AV-unprocessed.smi:1250|AV-procd|sdf|5255|dock9
  -GOLD-   22720 4363D 1   1.00000     0.00000
 Structure written by MMmdl.
 41 42  0  0  0  0  0  0  0  0  1 V2000
  148.3929  132.3077  154.9617 C   0  0  0  0  0  0  0  0  0  0  0  0
  149.0902  133.4616  154.2145 C   0  0  0  0  0  0  0  0  0  0  0  0
  149.7988  132.9075  152.9649 C   0  0  0  0  0  0  0  0  0  0  0  0
  150.0534  134.2608  155.1322 C   0  0  1  0  0  0  0  0  0  0  0  0
  151.3312  133.4826  155.4989 C   0  0  0  0  0  0  0  0  0  0  0  0
  150.4384  135.5181  154.4917 N   0  0  0  0  0  0  0  0  0  0  0  0
  151.1592  136.4969  155.0620 C   0  0  0  0  0  0  0  0  0  0  0  0
  151.5832  136.4457  156.2164 O   0  0  0  0  0  0  0  0  0  0  0  0
  151.4514  137.7227  154.1958 C   0  0  0  0  0  0  0  0  0  0  0  0
  150.9030  138.9615  154.8438 C   0  0  0  0  0  0  0  0  0  0  0  0
  149.7930  139.6726  154.4560 C   0  0  0  0  0  0  0  0  0  0  0  0
  149.5071  141.0505  155.4819 S   0  0  0  0  0  0  0  0  0  0  0  0
  150.9396  140.6093  156.4164 C   0  0  0  0  0  0  0  0  0  0  0  0
  151.4626  141.3122  157.5427 N   0  0  0  0  0  0  0  0  0  0  0  0
  150.9298  142.6066  157.9570 C   0  0  0  0  0  0  0  0  0  0  0  0
  151.5735  142.9118  159.3137 C   0  0  0  0  0  0  0  0  0  0  0  0
  152.7461  141.9403  159.4322 C   0  0  0  0  0  0  0  0  0  0  0  0
  152.4800  140.9253  158.3327 C   0  0  0  0  0  0  0  0  0  0  0  0
  153.1533  139.9011  158.2280 O   0  0  0  0  0  0  0  0  0  0  0  0
  151.5471  139.5088  155.9590 N   0  0  0  0  0  0  0  0  0  0  0  0
  149.1209  131.6125  155.3808 H   0  0  0  0  0  0  0  0  0  0  0  0
  147.7430  131.7427  154.2930 H   0  0  0  0  0  0  0  0  0  0  0  0
  147.7682  132.6688  155.7787 H   0  0  0  0  0  0  0  0  0  0  0  0
  148.3086  134.1406  153.8705 H   0  0  0  0  0  0  0  0  0  0  0  0
  150.6424  132.2726  153.2371 H   0  0  0  0  0  0  0  0  0  0  0  0
  150.1711  133.7042  152.3218 H   0  0  0  0  0  0  0  0  0  0  0  0
  149.1171  132.3089  152.3599 H   0  0  0  0  0  0  0  0  0  0  0  0
  149.5177  134.4883  156.0560 H   0  0  0  0  0  0  0  0  0  0  0  0
  151.1091  132.5920  156.0857 H   0  0  0  0  0  0  0  0  0  0  0  0
  152.0053  134.0938  156.1000 H   0  0  0  0  0  0  0  0  0  0  0  0
  151.8757  133.1707  154.6071 H   0  0  0  0  0  0  0  0  0  0  0  0
  150.1360  135.6510  153.5373 H   0  0  0  0  0  0  0  0  0  0  0  0
  152.5278  137.8031  154.0365 H   0  0  0  0  0  0  0  0  0  0  0  0
  151.0058  137.5803  153.2106 H   0  0  0  0  0  0  0  0  0  0  0  0
  149.1255  139.4652  153.6326 H   0  0  0  0  0  0  0  0  0  0  0  0
  151.2065  143.3612  157.2191 H   0  0  0  0  0  0  0  0  0  0  0  0
  149.8417  142.5879  158.0326 H   0  0  0  0  0  0  0  0  0  0  0  0
  151.8922  143.9520  159.3868 H   0  0  0  0  0  0  0  0  0  0  0  0
  150.8593  142.7291  160.1176 H   0  0  0  0  0  0  0  0  0  0  0  0
  153.6968  142.4388  159.2415 H   0  0  0  0  0  0  0  0  0  0  0  0
  152.7898  141.4650  160.4128 H   0  0  0  0  0  0  0  0  0  0  0  0
  1  2  1  0  0  0  0
  1 21  1  0  0  0  0
  1 22  1  0  0  0  0
  1 23  1  0  0  0  0
  2  3  1  0  0  0  0
  2  4  1  0  0  0  0
  2 24  1  0  0  0  0
  3 25  1  0  0  0  0
  3 26  1  0  0  0  0
  3 27  1  0  0  0  0
  4  5  1  0  0  0  0
  4  6  1  0  0  0  0
  4 28  1  0  0  0  0
  5 29  1  0  0  0  0
  5 30  1  0  0  0  0
  5 31  1  0  0  0  0
  6  7  1  0  0  0  0
  6 32  1  0  0  0  0
  7  8  2  0  0  0  0
  7  9  1  0  0  0  0
  9 10  1  0  0  0  0
  9 33  1  0  0  0  0
  9 34  1  0  0  0  0
 10 20  1  0  0  0  0
 10 11  2  0  0  0  0
 11 12  1  0  0  0  0
 11 35  1  0  0  0  0
 12 13  1  0  0  0  0
 13 14  1  0  0  0  0
 13 20  2  0  0  0  0
 14 18  1  0  0  0  0
 14 15  1  0  0  0  0
 15 16  1  0  0  0  0
 15 36  1  0  0  0  0
 15 37  1  0  0  0  0
 16 17  1  0  0  0  0
 16 38  1  0  0  0  0
 16 39  1  0  0  0  0
 17 18  1  0  0  0  0
 17 40  1  0  0  0  0
 17 41  1  0  0  0  0
 18 19  2  0  0  0  0
M  END
> <s_m_source_file>
AV-unprocessed.smi

> <i_m_source_file_index>
1250

> <i_lp_mmshare_version>
43012

> <i_f3d_flags>
0

> <s_epik_input>
W0NIM11bQ0hdKFtDSDNdKVtDQEhdKFtDSDNdKVtOSF1DKD1PKVtDSDJdYzFbY0hdc2MobjEpTjJbQ0gyXVtDSDJdW0NIMl1DMj1P

> <s_epik_cmdline>
J2VwaWtfcHl0aG9uJywgJy1waCcsICc3LjAnLCAnLXRuJywgJzgnLCAnLW1hJywgJzIwMCcsICctbWV0YWxfYmluZGluZycsICctaW1hZScsICc8aW5maWxlLm1hZT4nLCAnLW9tYWUnLCAnPG91dGZpbGUubWFlPic=

> <r_lp_tautomer_probability>
1

> <r_epik_Ionization_Penalty>
3.03552e-05

> <r_epik_Ionization_Penalty_Charging>
0

> <r_epik_Ionization_Penalty_Neutral>
3.03552e-05

> <r_epik_State_Penalty>
-0

> <r_epik_Charging_Adjusted_Penalty>
0

> <i_epik_Tot_Q>
0

> <i_epik_Tot_abs_Q>
0

> <r_epik_Metal_State_Penalty>
-0

> <b_epik_Metal_Only>
0

> <s_lp_Force_Field>
OPLS_2005

> <r_lp_Energy>
19.4329

> <b_lp_Chiralities_Consistent>
1

> <s_lp_Variant>
AV-unprocessed.smi:1250-2

> <Gold.Version>
5.8.1

> <Gold.Id.Protein>
6NUR|6NUR_protein|mol2

> <Gold.PLP.Fitness>
46.5385

> <Gold.PLP.PLP>
-38.2229

> <Gold.PLP.part.hbond>
-2.0000

> <Gold.PLP.part.metal>
0.0000

> <Gold.PLP.part.buried>
-3.6939

> <Gold.PLP.part.nonpolar>
-32.6716

> <Gold.PLP.part.repulsive>
0.0533

> <Gold.PLP.ligand.clash>
0.0000

> <Gold.PLP.ligand.torsion>
0.3293

> <Gold.PLP.Chemscore.Hbond>
2.0000

> <Gold.PLP.Chemscore.CHOScore>
0.9799

> <Gold.PLP.Chemscore.Metal>
0.0000

> <Gold.Chemscore.Hbonds>
donor molecule, donor type, donor heavy atom, donor atom, acceptor molecule, acceptor atom, score
      L1  H     6    32       P1  7948  0.22
      P1  H  7997  8008       L1    19  1.00
      L1  C    11    35       P1  7957  0.78

> <Gold.PLP.Chemscore.Internal.Correction>
0.0346

> <Gold.Rescore>
     Score         DG    S(hbond)    S(metal)    S(lipo)     H(rot)  DE(clash)    DE(int)     intcor
     13.23     -17.00       1.83        0.00      80.87       1.58       0.02       3.75       ----

> <Gold.Chemscore.Fitness>
13.2302

> <Gold.Chemscore.DG>
-16.9985

> <Gold.Chemscore.ZeroCoef>
-5.4800

> <Gold.Chemscore.Hbond>
1.8250

> <Gold.Chemscore.Metal>
0.0000

> <Gold.Chemscore.Lipo>
80.8663

> <Gold.Chemscore.Internal_Hbond>
0.0000

> <Gold.Chemscore.DEClash>
0.0205

> <Gold.Chemscore.DEInternal>
3.7477

> <Gold.Chemscore.Rot>
1.5775

> <Gold.Chemscore.Internal.Correction>
   9.000000E+99

> <Gold.Chemscore.Hbonds>
donor molecule, donor type, donor heavy atom, donor atom, acceptor molecule, acceptor atom, score
      P1  H  7997  8008       L1    19  0.88

> <Gold.Chemscore.Hbond.Weighted>
-6.0956

> <Gold.Chemscore.Metal.Weighted>
-0.0000

> <Gold.Chemscore.Lipo.Weighted>
-9.4614

> <Gold.Chemscore.Internal_Hbond.Weighted>
0.0000

> <Gold.Chemscore.DEClash.Weighted>
0.0205

> <Gold.Chemscore.DEInternal.Weighted>
3.7477

> <Gold.Chemscore.Rot.Weighted>
4.0385

> <Gold.Chemscore.Internal.Correction.Weighted>
   9.000000E+99

> <Gold.Protein.RotatedTorsions>
[ 6907 6896 6895 6894 ] final  154.11 input  -60.11 | X-H torsion
[ 7974 7965 7964 7962 ] final  -98.64 input  175.53 | X-H torsion
[ 8008 7997 7996 7995 ] final  -93.27 input   59.86 | X-H torsion
[ 10167 10162 10161 10158 ] final   59.84 input  -65.29 | X-H torsion
[ 10718 10713 10712 10709 ] final   20.66 input   66.30 | X-H torsion
[ 10763 10752 10751 10750 ] final  156.91 input  -60.55 | X-H torsion
[ 11005 11000 10999 10996 ] final  -15.17 input  -57.11 | X-H torsion

> <Gold.Protein.ActiveResidues>
 VAL166  LYS551  ARG553  GLY616  TRP617  ASP618  TYR619  PRO620  LYS621  CYS622 
 ASP623  PHE694  ASN695  SER759  ASP760  ASP761  ALA762  ILE779  LEU786  VAL792 
 PHE793  MET794  SER795  GLU796  ALA797  LYS798  CYS799  TRP800  GLU811  SER814 

> <Gold.Protein.RotatedAtoms>
  152.0631  133.4071  159.4426 H   0  0  0  0  0  0  0  0  0  0  0  0  # atno 6907 bound_to 6896
  150.6865  134.3177  159.4782 H   0  0  0  0  0  0  0  0  0  0  0  0  # atno 6908 bound_to 6896
  152.1001  134.9347  160.0620 H   0  0  0  0  0  0  0  0  0  0  0  0  # atno 6909 bound_to 6896
  145.3180  140.9415  143.2731 H   0  0  0  0  0  0  0  0  0  0  0  0  # atno 7974 bound_to 7965
  154.7335  140.0500  157.0748 H   0  0  0  0  0  0  0  0  0  0  0  0  # atno 8008 bound_to 7997
  155.0270  140.3153  155.4753 H   0  0  0  0  0  0  0  0  0  0  0  0  # atno 8009 bound_to 7997
  156.2847  140.2157  156.5390 H   0  0  0  0  0  0  0  0  0  0  0  0  # atno 8010 bound_to 7997
  140.1721  144.4266  150.6656 H   0  0  0  0  0  0  0  0  0  0  0  0  # atno 10167 bound_to 10162
  157.1276  130.6576  149.5942 H   0  0  0  0  0  0  0  0  0  0  0  0  # atno 10718 bound_to 10713
  154.1918  135.2794  155.3019 H   0  0  0  0  0  0  0  0  0  0  0  0  # atno 10763 bound_to 10752
  154.5923  135.5556  153.7294 H   0  0  0  0  0  0  0  0  0  0  0  0  # atno 10764 bound_to 10752
  153.0110  135.6371  154.2056 H   0  0  0  0  0  0  0  0  0  0  0  0  # atno 10765 bound_to 10752
  140.7938  133.8267  155.9405 H   0  0  0  0  0  0  0  0  0  0  0  0  # atno 11005 bound_to 11000
  144.8962  139.4709  143.6654 LP  0  0  0  0  0  0  0  0  0  0  0  0  # atno 17320 bound_to 7965
  146.3093  139.7689  142.9032 LP  0  0  0  0  0  0  0  0  0  0  0  0  # atno 17321 bound_to 7965
  140.6575  143.2242  151.5934 LP  0  0  0  0  0  0  0  0  0  0  0  0  # atno 17342 bound_to 10162
  139.5333  144.2852  152.1197 LP  0  0  0  0  0  0  0  0  0  0  0  0  # atno 17343 bound_to 10162
  155.9815  130.4822  150.6830 LP  0  0  0  0  0  0  0  0  0  0  0  0  # atno 17370 bound_to 10713
  157.4421  131.0862  151.0932 LP  0  0  0  0  0  0  0  0  0  0  0  0  # atno 17371 bound_to 10713
  140.9363  134.1958  157.4829 LP  0  0  0  0  0  0  0  0  0  0  0  0  # atno 17394 bound_to 11000
  139.8728  134.9853  156.5277 LP  0  0  0  0  0  0  0  0  0  0  0  0  # atno 17395 bound_to 11000

$$$$
