AV-unprocessed.smi:1040|AV-procd|sdf|4525|dock1
  -GOLD-   22720 2543D 1   1.00000     0.00000
 Structure written by MMmdl.
 54 55  0  0  0  0  0  0  0  0  1 V2000
  146.1376  138.0973  158.6654 C   0  0  0  0  0  0  0  0  0  0  0  0
  147.3089  137.1613  159.0078 C   0  0  1  0  0  0  0  0  0  0  0  0
  148.5485  137.9250  158.8798 N   0  0  0  0  0  0  0  0  0  0  0  0
  149.7828  137.4013  158.8629 C   0  0  0  0  0  0  0  0  0  0  0  0
  150.0082  136.1926  158.9192 O   0  0  0  0  0  0  0  0  0  0  0  0
  150.7120  138.3666  158.7674 N   0  0  0  0  0  0  0  0  0  0  0  0
  152.1246  138.2417  158.6261 C   0  0  0  0  0  0  0  0  0  0  0  0
  152.7806  136.9906  158.5204 C   0  0  0  0  0  0  0  0  0  0  0  0
  154.1832  136.9566  158.4224 C   0  0  0  0  0  0  0  0  0  0  0  0
  154.8846  138.1744  158.4454 C   0  0  0  0  0  0  0  0  0  0  0  0
  154.2776  139.3727  158.5593 N   0  0  0  0  0  0  0  0  0  0  0  0
  152.9260  139.4154  158.6505 C   0  0  0  0  0  0  0  0  0  0  0  0
  152.3263  140.6866  158.7520 N   0  0  0  0  0  0  0  0  0  0  0  0
  153.1493  141.7650  159.2990 C   0  0  0  0  0  0  0  0  0  0  0  0
  152.2791  142.9812  159.6592 C   0  0  0  0  0  0  0  0  0  0  0  0
  151.4395  143.4337  158.4532 C   0  0  0  0  0  0  0  0  0  0  0  0
  150.6225  142.2550  157.8989 C   0  0  0  0  0  0  0  0  0  0  0  0
  151.5323  141.0560  157.5817 C   0  0  0  0  0  0  0  0  0  0  0  0
  147.1229  136.6835  160.4565 C   0  0  0  0  0  0  0  0  0  0  0  0
  147.0595  137.4990  161.3778 O   0  0  0  0  0  0  0  0  0  0  0  0
  147.0179  135.3533  160.6252 N   0  0  0  0  0  0  0  0  0  0  0  0
  146.8201  134.6034  161.8714 C   0  0  0  0  0  0  0  0  0  0  0  0
  145.3009  134.4909  162.0902 C   0  0  0  0  0  0  0  0  0  0  0  0
  147.4422  135.3590  163.0643 C   0  0  0  0  0  0  0  0  0  0  0  0
  147.4159  133.1843  161.7555 C   0  0  0  0  0  0  0  0  0  0  0  0
  145.1808  137.5788  158.7411 H   0  0  0  0  0  0  0  0  0  0  0  0
  146.2241  138.4685  157.6436 H   0  0  0  0  0  0  0  0  0  0  0  0
  146.1001  138.9639  159.3276 H   0  0  0  0  0  0  0  0  0  0  0  0
  147.3133  136.3113  158.3223 H   0  0  0  0  0  0  0  0  0  0  0  0
  148.4577  138.9289  158.8309 H   0  0  0  0  0  0  0  0  0  0  0  0
  150.3587  139.3084  158.6798 H   0  0  0  0  0  0  0  0  0  0  0  0
  152.2415  136.0565  158.5299 H   0  0  0  0  0  0  0  0  0  0  0  0
  154.7089  136.0170  158.3399 H   0  0  0  0  0  0  0  0  0  0  0  0
  155.9622  138.1873  158.3764 H   0  0  0  0  0  0  0  0  0  0  0  0
  153.6797  141.4142  160.1853 H   0  0  0  0  0  0  0  0  0  0  0  0
  153.9027  142.0546  158.5650 H   0  0  0  0  0  0  0  0  0  0  0  0
  151.6178  142.7231  160.4874 H   0  0  0  0  0  0  0  0  0  0  0  0
  152.9081  143.8005  160.0080 H   0  0  0  0  0  0  0  0  0  0  0  0
  150.7767  144.2507  158.7397 H   0  0  0  0  0  0  0  0  0  0  0  0
  152.0968  143.8220  157.6744 H   0  0  0  0  0  0  0  0  0  0  0  0
  149.8689  141.9570  158.6294 H   0  0  0  0  0  0  0  0  0  0  0  0
  150.0817  142.5613  157.0031 H   0  0  0  0  0  0  0  0  0  0  0  0
  152.2081  141.3076  156.7634 H   0  0  0  0  0  0  0  0  0  0  0  0
  150.9273  140.2156  157.2407 H   0  0  0  0  0  0  0  0  0  0  0  0
  147.0843  134.7910  159.7892 H   0  0  0  0  0  0  0  0  0  0  0  0
  145.0707  133.9413  163.0037 H   0  0  0  0  0  0  0  0  0  0  0  0
  144.8171  133.9687  161.2638 H   0  0  0  0  0  0  0  0  0  0  0  0
  144.8373  135.4747  162.1748 H   0  0  0  0  0  0  0  0  0  0  0  0
  147.0560  136.3765  163.1339 H   0  0  0  0  0  0  0  0  0  0  0  0
  148.5276  135.4231  162.9888 H   0  0  0  0  0  0  0  0  0  0  0  0
  147.2170  134.8580  164.0065 H   0  0  0  0  0  0  0  0  0  0  0  0
  147.1884  132.5903  162.6414 H   0  0  0  0  0  0  0  0  0  0  0  0
  148.5009  133.2007  161.6539 H   0  0  0  0  0  0  0  0  0  0  0  0
  147.0121  132.6533  160.8925 H   0  0  0  0  0  0  0  0  0  0  0  0
  1  2  1  0  0  0  0
  1 26  1  0  0  0  0
  1 27  1  0  0  0  0
  1 28  1  0  0  0  0
  2  3  1  0  0  0  0
  2 19  1  0  0  0  0
  2 29  1  0  0  0  0
  3  4  1  0  0  0  0
  3 30  1  0  0  0  0
  4  5  2  0  0  0  0
  4  6  1  0  0  0  0
  6  7  1  0  0  0  0
  6 31  1  0  0  0  0
  7 12  1  0  0  0  0
  7  8  2  0  0  0  0
  8  9  1  0  0  0  0
  8 32  1  0  0  0  0
  9 10  2  0  0  0  0
  9 33  1  0  0  0  0
 10 11  1  0  0  0  0
 10 34  1  0  0  0  0
 11 12  2  0  0  0  0
 12 13  1  0  0  0  0
 13 18  1  0  0  0  0
 13 14  1  0  0  0  0
 14 15  1  0  0  0  0
 14 35  1  0  0  0  0
 14 36  1  0  0  0  0
 15 16  1  0  0  0  0
 15 37  1  0  0  0  0
 15 38  1  0  0  0  0
 16 17  1  0  0  0  0
 16 39  1  0  0  0  0
 16 40  1  0  0  0  0
 17 18  1  0  0  0  0
 17 41  1  0  0  0  0
 17 42  1  0  0  0  0
 18 43  1  0  0  0  0
 18 44  1  0  0  0  0
 19 20  2  0  0  0  0
 19 21  1  0  0  0  0
 21 22  1  0  0  0  0
 21 45  1  0  0  0  0
 22 23  1  0  0  0  0
 22 24  1  0  0  0  0
 22 25  1  0  0  0  0
 23 46  1  0  0  0  0
 23 47  1  0  0  0  0
 23 48  1  0  0  0  0
 24 49  1  0  0  0  0
 24 50  1  0  0  0  0
 24 51  1  0  0  0  0
 25 52  1  0  0  0  0
 25 53  1  0  0  0  0
 25 54  1  0  0  0  0
M  END
> <s_m_source_file>
AV-unprocessed.smi

> <i_m_source_file_index>
1040

> <i_lp_mmshare_version>
43012

> <i_f3d_flags>
0

> <s_epik_input>
W0NIM11DKFtDSDNdKShbQ0gzXSlbTkhdQyg9TylbQ0BIXShbQ0gzXSlbTkhdQyg9TylbTkhdYzFbY0hdW2NIXVtjSF1uYzFOMltDSDJdW0NIMl1bQ0gyXVtDSDJdW0NIMl0y

> <s_epik_cmdline>
J2VwaWtfcHl0aG9uJywgJy1waCcsICc3LjAnLCAnLXRuJywgJzgnLCAnLW1hJywgJzIwMCcsICctbWV0YWxfYmluZGluZycsICctaW1hZScsICc8aW5maWxlLm1hZT4nLCAnLW9tYWUnLCAnPG91dGZpbGUubWFlPic=

> <r_lp_tautomer_probability>
1

> <r_epik_Ionization_Penalty>
0.0878593

> <r_epik_Ionization_Penalty_Charging>
0

> <r_epik_Ionization_Penalty_Neutral>
0.0878593

> <r_epik_State_Penalty>
0.07381

> <r_epik_Charging_Adjusted_Penalty>
0.07381

> <i_epik_Tot_Q>
0

> <i_epik_Tot_abs_Q>
0

> <r_epik_Metal_State_Penalty>
0.0646628

> <b_epik_Metal_Only>
0

> <s_lp_Force_Field>
OPLS_2005

> <r_lp_Energy>
20.3339

> <b_lp_Chiralities_Consistent>
1

> <s_lp_Variant>
AV-unprocessed.smi:1040-2

> <Gold.Version>
5.8.1

> <Gold.Id.Protein>
6NUR|6NUR_protein|mol2

> <Gold.PLP.Fitness>
48.1233

> <Gold.PLP.PLP>
-39.5521

> <Gold.PLP.part.hbond>
-3.9286

> <Gold.PLP.part.metal>
0.0000

> <Gold.PLP.part.buried>
-4.9501

> <Gold.PLP.part.nonpolar>
-31.5851

> <Gold.PLP.part.repulsive>
0.4283

> <Gold.PLP.ligand.clash>
0.0000

> <Gold.PLP.ligand.torsion>
1.1211

> <Gold.PLP.Chemscore.Hbond>
3.4643

> <Gold.PLP.Chemscore.CHOScore>
0.0000

> <Gold.PLP.Chemscore.Metal>
0.0000

> <Gold.Chemscore.Hbonds>
donor molecule, donor type, donor heavy atom, donor atom, acceptor molecule, acceptor atom, score
      P1  H  6896  6908       L1     5  1.00
      P1  H  6931  6943       L1    20  0.44
      P1  H  6934  6947       L1    20  1.00
      P1  H  7997  8010       L1    11  0.95

> <Gold.PLP.Chemscore.Internal.Correction>
0.4206

> <Gold.Rescore>
     Score         DG    S(hbond)    S(metal)    S(lipo)     H(rot)  DE(clash)    DE(int)     intcor
     17.99     -21.22       2.55        0.00      97.17       1.61       0.42       2.80       ----

> <Gold.Chemscore.Fitness>
17.9930

> <Gold.Chemscore.DG>
-21.2192

> <Gold.Chemscore.ZeroCoef>
-5.4800

> <Gold.Chemscore.Hbond>
2.5458

> <Gold.Chemscore.Metal>
0.0000

> <Gold.Chemscore.Lipo>
97.1702

> <Gold.Chemscore.Internal_Hbond>
0.0000

> <Gold.Chemscore.DEClash>
0.4213

> <Gold.Chemscore.DEInternal>
2.8048

> <Gold.Chemscore.Rot>
1.6143

> <Gold.Chemscore.Internal.Correction>
   9.000000E+99

> <Gold.Chemscore.Hbonds>
donor molecule, donor type, donor heavy atom, donor atom, acceptor molecule, acceptor atom, score
      P1  H  6896  6908       L1     5  1.00
      P1  H  6931  6943       L1    20  0.36
      P1  H  6934  6947       L1    20  0.88
      P1  H  7997  8010       L1    11  0.15

> <Gold.Chemscore.Hbond.Weighted>
-8.5029

> <Gold.Chemscore.Metal.Weighted>
-0.0000

> <Gold.Chemscore.Lipo.Weighted>
-11.3689

> <Gold.Chemscore.Internal_Hbond.Weighted>
0.0000

> <Gold.Chemscore.DEClash.Weighted>
0.4213

> <Gold.Chemscore.DEInternal.Weighted>
2.8048

> <Gold.Chemscore.Rot.Weighted>
4.1326

> <Gold.Chemscore.Internal.Correction.Weighted>
   9.000000E+99

> <Gold.Protein.RotatedTorsions>
[ 6907 6896 6895 6894 ] final -163.47 input  -60.11 | X-H torsion
[ 7974 7965 7964 7962 ] final -136.81 input  175.53 | X-H torsion
[ 8008 7997 7996 7995 ] final   24.83 input   59.86 | X-H torsion
[ 10167 10162 10161 10158 ] final  -32.04 input  -65.29 | X-H torsion
[ 10718 10713 10712 10709 ] final  -19.87 input   66.30 | X-H torsion
[ 10763 10752 10751 10750 ] final  170.76 input  -60.55 | X-H torsion
[ 11005 11000 10999 10996 ] final  107.22 input  -57.11 | X-H torsion

> <Gold.Protein.ActiveResidues>
 VAL166  LYS551  ARG553  GLY616  TRP617  ASP618  TYR619  PRO620  LYS621  CYS622 
 ASP623  PHE694  ASN695  SER759  ASP760  ASP761  ALA762  ILE779  LEU786  VAL792 
 PHE793  MET794  SER795  GLU796  ALA797  LYS798  CYS799  TRP800  GLU811  SER814 

> <Gold.Protein.RotatedAtoms>
  151.3965  133.3771  159.2726 H   0  0  0  0  0  0  0  0  0  0  0  0  # atno 6907 bound_to 6896
  150.9465  134.8871  159.7656 H   0  0  0  0  0  0  0  0  0  0  0  0  # atno 6908 bound_to 6896
  152.5094  134.3918  159.9439 H   0  0  0  0  0  0  0  0  0  0  0  0  # atno 6909 bound_to 6896
  144.8895  140.6622  143.5154 H   0  0  0  0  0  0  0  0  0  0  0  0  # atno 7974 bound_to 7965
  155.0023  140.3126  155.4862 H   0  0  0  0  0  0  0  0  0  0  0  0  # atno 8008 bound_to 7997
  156.2923  140.2229  156.5074 H   0  0  0  0  0  0  0  0  0  0  0  0  # atno 8009 bound_to 7997
  154.7608  140.0459  157.0959 H   0  0  0  0  0  0  0  0  0  0  0  0  # atno 8010 bound_to 7997
  140.7227  143.3724  151.1752 H   0  0  0  0  0  0  0  0  0  0  0  0  # atno 10167 bound_to 10162
  156.5396  130.4675  149.6505 H   0  0  0  0  0  0  0  0  0  0  0  0  # atno 10718 bound_to 10713
  154.4022  135.2755  155.2089 H   0  0  0  0  0  0  0  0  0  0  0  0  # atno 10763 bound_to 10752
  154.4110  135.6022  153.5956 H   0  0  0  0  0  0  0  0  0  0  0  0  # atno 10764 bound_to 10752
  152.9831  135.5949  154.4292 H   0  0  0  0  0  0  0  0  0  0  0  0  # atno 10765 bound_to 10752
  139.8825  134.9394  156.5785 H   0  0  0  0  0  0  0  0  0  0  0  0  # atno 11005 bound_to 11000
  145.3808  139.1637  143.4281 LP  0  0  0  0  0  0  0  0  0  0  0  0  # atno 17320 bound_to 7965
  146.3045  140.3889  142.8692 LP  0  0  0  0  0  0  0  0  0  0  0  0  # atno 17321 bound_to 7965
  139.7298  143.9090  152.3015 LP  0  0  0  0  0  0  0  0  0  0  0  0  # atno 17342 bound_to 10162
  139.8875  144.6984  150.8807 LP  0  0  0  0  0  0  0  0  0  0  0  0  # atno 17343 bound_to 10162
  156.2983  130.7163  151.2028 LP  0  0  0  0  0  0  0  0  0  0  0  0  # atno 17370 bound_to 10713
  157.7407  131.0513  150.5145 LP  0  0  0  0  0  0  0  0  0  0  0  0  # atno 17371 bound_to 10713
  140.8044  133.8479  155.8755 LP  0  0  0  0  0  0  0  0  0  0  0  0  # atno 17394 bound_to 11000
  140.9563  134.1714  157.4689 LP  0  0  0  0  0  0  0  0  0  0  0  0  # atno 17395 bound_to 11000

$$$$
