AV-unprocessed.smi:1184|AV-procd|sdf|4970|dock7
  -GOLD-   22720 3563D 1   1.00000     0.00000
 Structure written by MMmdl.
 43 44  0  0  0  0  0  0  0  0  2 V2000
  144.7610  131.4782  150.9310 C   0  0  0  0  0  0  0  0  0  0  0  0
  143.6580  132.5332  151.0897 C   0  0  0  0  0  0  0  0  0  0  0  0
  143.8518  133.3636  152.3015 N   0  3  2  0  0  0  0  0  0  0  0  0
  143.0279  134.5906  152.3283 C   0  0  0  0  0  0  0  0  0  0  0  0
  143.8031  135.5758  153.1972 C   0  0  0  0  0  0  0  0  0  0  0  0
  145.2530  135.2752  152.8210 C   0  0  1  0  0  0  0  0  0  0  0  0
  146.2993  135.7480  153.8482 C   0  0  0  0  0  0  0  0  0  0  0  0
  147.5838  135.0823  153.6634 N   0  0  0  0  0  0  0  0  0  0  0  0
  147.9082  133.8800  154.1646 C   0  0  0  0  0  0  0  0  0  0  0  0
  147.1390  133.2003  154.8435 O   0  0  0  0  0  0  0  0  0  0  0  0
  149.3088  133.3575  153.8416 C   0  0  0  0  0  0  0  0  0  0  0  0
  150.0004  132.9076  155.1039 C   0  0  0  0  0  0  0  0  0  0  0  0
  150.4768  131.6032  155.4227 C   0  0  0  0  0  0  0  0  0  0  0  0
  150.4158  130.3547  154.5902 C   0  0  0  0  0  0  0  0  0  0  0  0
  151.0361  131.5601  156.6201 N   0  0  0  0  0  0  0  0  0  0  0  0
  150.9404  132.8566  157.1346 O   0  0  0  0  0  0  0  0  0  0  0  0
  150.3230  133.6398  156.2141 C   0  0  0  0  0  0  0  0  0  0  0  0
  150.1229  135.0703  156.5864 C   0  0  0  0  0  0  0  0  0  0  0  0
  145.2552  133.7581  152.5810 C   0  0  0  0  0  0  0  0  0  0  0  0
  144.5673  130.8475  150.0632 H   0  0  0  0  0  0  0  0  0  0  0  0
  144.8144  130.8291  151.8055 H   0  0  0  0  0  0  0  0  0  0  0  0
  145.7409  131.9350  150.7914 H   0  0  0  0  0  0  0  0  0  0  0  0
  143.6046  133.1698  150.2053 H   0  0  0  0  0  0  0  0  0  0  0  0
  142.6973  132.0219  151.1672 H   0  0  0  0  0  0  0  0  0  0  0  0
  142.9331  134.9950  151.3188 H   0  0  0  0  0  0  0  0  0  0  0  0
  142.0247  134.3932  152.7074 H   0  0  0  0  0  0  0  0  0  0  0  0
  143.5219  136.6131  153.0118 H   0  0  0  0  0  0  0  0  0  0  0  0
  143.6298  135.3603  154.2527 H   0  0  0  0  0  0  0  0  0  0  0  0
  145.4530  135.7582  151.8627 H   0  0  0  0  0  0  0  0  0  0  0  0
  146.4599  136.8223  153.7533 H   0  0  0  0  0  0  0  0  0  0  0  0
  145.9367  135.5803  154.8638 H   0  0  0  0  0  0  0  0  0  0  0  0
  148.2811  135.5730  153.1224 H   0  0  0  0  0  0  0  0  0  0  0  0
  149.2281  132.5390  153.1254 H   0  0  0  0  0  0  0  0  0  0  0  0
  149.8684  134.1442  153.3348 H   0  0  0  0  0  0  0  0  0  0  0  0
  149.5248  130.3427  153.9624 H   0  0  0  0  0  0  0  0  0  0  0  0
  150.3904  129.4594  155.2119 H   0  0  0  0  0  0  0  0  0  0  0  0
  151.2839  130.2814  153.9352 H   0  0  0  0  0  0  0  0  0  0  0  0
  149.9221  135.6815  155.7067 H   0  0  0  0  0  0  0  0  0  0  0  0
  151.0096  135.4708  157.0776 H   0  0  0  0  0  0  0  0  0  0  0  0
  149.2803  135.1748  157.2698 H   0  0  0  0  0  0  0  0  0  0  0  0
  145.5872  133.2175  153.4682 H   0  0  0  0  0  0  0  0  0  0  0  0
  145.9346  133.4996  151.7674 H   0  0  0  0  0  0  0  0  0  0  0  0
  143.5517  132.8102  153.0914 H   0  0  0  0  0  0  0  0  0  0  0  0
  1  2  1  0  0  0  0
  1 20  1  0  0  0  0
  1 21  1  0  0  0  0
  1 22  1  0  0  0  0
  2  3  1  0  0  0  0
  2 23  1  0  0  0  0
  2 24  1  0  0  0  0
  3 19  1  0  0  0  0
  3  4  1  0  0  0  0
  3 43  1  0  0  0  0
  4  5  1  0  0  0  0
  4 25  1  0  0  0  0
  4 26  1  0  0  0  0
  5  6  1  0  0  0  0
  5 27  1  0  0  0  0
  5 28  1  0  0  0  0
  6  7  1  0  0  0  0
  6 19  1  0  0  0  0
  6 29  1  0  0  0  0
  7  8  1  0  0  0  0
  7 30  1  0  0  0  0
  7 31  1  0  0  0  0
  8  9  1  0  0  0  0
  8 32  1  0  0  0  0
  9 10  2  0  0  0  0
  9 11  1  0  0  0  0
 11 12  1  0  0  0  0
 11 33  1  0  0  0  0
 11 34  1  0  0  0  0
 12 17  2  0  0  0  0
 12 13  1  0  0  0  0
 13 14  1  0  0  0  0
 13 15  2  0  0  0  0
 14 35  1  0  0  0  0
 14 36  1  0  0  0  0
 14 37  1  0  0  0  0
 15 16  1  0  0  0  0
 16 17  1  0  0  0  0
 17 18  1  0  0  0  0
 18 38  1  0  0  0  0
 18 39  1  0  0  0  0
 18 40  1  0  0  0  0
 19 41  1  0  0  0  0
 19 42  1  0  0  0  0
M  CHG  1   3   1
M  END
> <s_m_source_file>
AV-unprocessed.smi

> <i_m_source_file_index>
1184

> <i_lp_mmshare_version>
43012

> <i_f3d_flags>
0

> <s_epik_input>
W0NIM11bQ0gyXU4xW0NIMl1bQ0gyXVtDQEhdKFtDSDJdMSlbQ0gyXVtOSF1DKD1PKVtDSDJdYzJjKFtDSDNdKW5vYzJbQ0gzXQ==

> <s_epik_cmdline>
J2VwaWtfcHl0aG9uJywgJy1waCcsICc3LjAnLCAnLXRuJywgJzgnLCAnLW1hJywgJzIwMCcsICctbWV0YWxfYmluZGluZycsICctaW1hZScsICc8aW5maWxlLm1hZT4nLCAnLW9tYWUnLCAnPG91dGZpbGUubWFlPic=

> <r_epik_Ionization_Penalty>
0.000590726

> <r_epik_Ionization_Penalty_Charging>
0.000590692

> <r_epik_Ionization_Penalty_Neutral>
3.44741e-08

> <r_epik_State_Penalty>
0.000371644

> <r_epik_Charging_Adjusted_Penalty>
0.000962336

> <i_epik_Tot_Q>
1

> <i_epik_Tot_abs_Q>
1

> <r_epik_Metal_State_Penalty>
-0

> <b_epik_Metal_Only>
0

> <s_lp_Force_Field>
OPLS_2005

> <r_lp_Energy>
22.2982

> <b_lp_Chiralities_Consistent>
1

> <s_lp_Variant>
AV-unprocessed.smi:1184-2

> <Gold.Version>
5.8.1

> <Gold.Id.Protein>
6NUR|6NUR_protein|mol2

> <Gold.PLP.Fitness>
39.4570

> <Gold.PLP.PLP>
-28.5431

> <Gold.PLP.part.hbond>
-2.9874

> <Gold.PLP.part.metal>
0.0000

> <Gold.PLP.part.buried>
-5.4879

> <Gold.PLP.part.nonpolar>
-21.8858

> <Gold.PLP.part.repulsive>
0.0303

> <Gold.PLP.ligand.clash>
0.0000

> <Gold.PLP.ligand.torsion>
0.5442

> <Gold.PLP.Chemscore.Hbond>
3.9920

> <Gold.PLP.Chemscore.CHOScore>
0.0000

> <Gold.PLP.Chemscore.Metal>
0.0000

> <Gold.Chemscore.Hbonds>
donor molecule, donor type, donor heavy atom, donor atom, acceptor molecule, acceptor atom, score
      L1  H     3    43       P1 10957  1.33
      L1  H     8    32       P1  7948  1.00
      P1  H  6896  6908       L1    16  0.68

> <Gold.PLP.Chemscore.Internal.Correction>
0.0264

> <Gold.Rescore>
     Score         DG    S(hbond)    S(metal)    S(lipo)     H(rot)  DE(clash)    DE(int)     intcor
     17.31     -17.99       2.90        0.00      60.77       1.67       0.00       0.68       ----

> <Gold.Chemscore.Fitness>
17.3084

> <Gold.Chemscore.DG>
-17.9889

> <Gold.Chemscore.ZeroCoef>
-5.4800

> <Gold.Chemscore.Hbond>
2.8952

> <Gold.Chemscore.Metal>
0.0000

> <Gold.Chemscore.Lipo>
60.7708

> <Gold.Chemscore.Internal_Hbond>
0.0000

> <Gold.Chemscore.DEClash>
0.0000

> <Gold.Chemscore.DEInternal>
0.6805

> <Gold.Chemscore.Rot>
1.6684

> <Gold.Chemscore.Internal.Correction>
   9.000000E+99

> <Gold.Chemscore.Hbonds>
donor molecule, donor type, donor heavy atom, donor atom, acceptor molecule, acceptor atom, score
      L1  H     3    43       P1 10957  0.26
      L1  H     8    32       P1  7948  0.95
      P1  H  6896  6908       L1    16  0.65

> <Gold.Chemscore.Hbond.Weighted>
-9.6700

> <Gold.Chemscore.Metal.Weighted>
-0.0000

> <Gold.Chemscore.Lipo.Weighted>
-7.1102

> <Gold.Chemscore.Internal_Hbond.Weighted>
0.0000

> <Gold.Chemscore.DEClash.Weighted>
0.0000

> <Gold.Chemscore.DEInternal.Weighted>
0.6805

> <Gold.Chemscore.Rot.Weighted>
4.2712

> <Gold.Chemscore.Internal.Correction.Weighted>
   9.000000E+99

> <Gold.Protein.RotatedTorsions>
[ 6907 6896 6895 6894 ] final   88.26 input  -60.11 | X-H torsion
[ 7974 7965 7964 7962 ] final  -86.81 input  175.53 | X-H torsion
[ 8008 7997 7996 7995 ] final   27.78 input   59.86 | X-H torsion
[ 10167 10162 10161 10158 ] final  119.12 input  -65.29 | X-H torsion
[ 10718 10713 10712 10709 ] final   57.24 input   66.30 | X-H torsion
[ 10763 10752 10751 10750 ] final  -51.63 input  -60.55 | X-H torsion
[ 11005 11000 10999 10996 ] final   33.97 input  -57.11 | X-H torsion

> <Gold.Protein.ActiveResidues>
 VAL166  LYS551  ARG553  GLY616  TRP617  ASP618  TYR619  PRO620  LYS621  CYS622 
 ASP623  PHE694  ASN695  SER759  ASP760  ASP761  ALA762  ILE779  LEU786  VAL792 
 PHE793  MET794  SER795  GLU796  ALA797  LYS798  CYS799  TRP800  GLU811  SER814 

> <Gold.Protein.RotatedAtoms>
  152.5422  134.2149  159.8764 H   0  0  0  0  0  0  0  0  0  0  0  0  # atno 6907 bound_to 6896
  151.2130  133.4538  159.2606 H   0  0  0  0  0  0  0  0  0  0  0  0  # atno 6908 bound_to 6896
  151.0879  134.9911  159.8444 H   0  0  0  0  0  0  0  0  0  0  0  0  # atno 6909 bound_to 6896
  145.4749  140.9559  143.1896 H   0  0  0  0  0  0  0  0  0  0  0  0  # atno 7974 bound_to 7965
  155.0483  140.3177  155.4701 H   0  0  0  0  0  0  0  0  0  0  0  0  # atno 8008 bound_to 7997
  156.2840  140.2150  156.5552 H   0  0  0  0  0  0  0  0  0  0  0  0  # atno 8009 bound_to 7997
  154.7232  140.0488  157.0646 H   0  0  0  0  0  0  0  0  0  0  0  0  # atno 8010 bound_to 7997
  139.6067  144.7071  151.2938 H   0  0  0  0  0  0  0  0  0  0  0  0  # atno 10167 bound_to 10162
  157.5498  130.8757  149.8946 H   0  0  0  0  0  0  0  0  0  0  0  0  # atno 10718 bound_to 10713
  154.1296  135.6522  153.4919 H   0  0  0  0  0  0  0  0  0  0  0  0  # atno 10763 bound_to 10752
  153.0199  135.5290  154.7014 H   0  0  0  0  0  0  0  0  0  0  0  0  # atno 10764 bound_to 10752
  154.6245  135.2968  155.0258 H   0  0  0  0  0  0  0  0  0  0  0  0  # atno 10765 bound_to 10752
  140.2576  134.3230  155.7868 H   0  0  0  0  0  0  0  0  0  0  0  0  # atno 11005 bound_to 11000
  144.7923  139.6303  143.7108 LP  0  0  0  0  0  0  0  0  0  0  0  0  # atno 17320 bound_to 7965
  146.2375  139.5934  142.9514 LP  0  0  0  0  0  0  0  0  0  0  0  0  # atno 17321 bound_to 7965
  140.7290  143.6921  150.7914 LP  0  0  0  0  0  0  0  0  0  0  0  0  # atno 17342 bound_to 10162
  140.0508  143.5252  152.2674 LP  0  0  0  0  0  0  0  0  0  0  0  0  # atno 17343 bound_to 10162
  156.0567  130.3707  150.1075 LP  0  0  0  0  0  0  0  0  0  0  0  0  # atno 17370 bound_to 10713
  156.9248  130.9695  151.3542 LP  0  0  0  0  0  0  0  0  0  0  0  0  # atno 17371 bound_to 10713
  141.2194  133.7390  156.9136 LP  0  0  0  0  0  0  0  0  0  0  0  0  # atno 17394 bound_to 11000
  140.1496  134.9239  157.2575 LP  0  0  0  0  0  0  0  0  0  0  0  0  # atno 17395 bound_to 11000

$$$$
