AV-unprocessed.smi:580|AV-procd|sdf|2990|dock8
  -GOLD-   2262023493D 1   1.00000     0.00000
 Structure written by MMmdl.
 36 37  0  0  0  0  0  0  0  0  1 V2000
  147.2336  133.8745  162.4284 C   0  0  0  0  0  0  0  0  0  0  0  0
  147.4373  135.0422  161.5251 C   0  0  0  0  0  0  0  0  0  0  0  0
  147.9739  135.1683  160.2746 C   0  0  0  0  0  0  0  0  0  0  0  0
  147.8542  136.5593  160.0142 C   0  0  0  0  0  0  0  0  0  0  0  0
  148.3089  137.1119  158.7897 N   0  0  0  0  0  0  0  0  0  0  0  0
  149.5703  137.1548  158.3283 C   0  0  0  0  0  0  0  0  0  0  0  0
  150.5577  136.7183  158.9206 O   0  0  0  0  0  0  0  0  0  0  0  0
  149.6277  137.7448  157.1256 N   0  0  0  0  0  0  0  0  0  0  0  0
  150.8443  137.9628  156.3442 C   0  0  2  0  0  0  0  0  0  0  0  0
  151.9223  138.6941  157.1716 C   0  0  0  0  0  0  0  0  0  0  0  0
  151.5444  140.1587  157.4550 C   0  0  0  0  0  0  0  0  0  0  0  0
  151.2437  140.9297  156.1555 C   0  0  2  0  0  0  0  0  0  0  0  0
  150.8646  142.3893  156.4429 C   0  0  0  0  0  0  0  0  0  0  0  0
  150.1471  140.2125  155.3452 C   0  0  0  0  0  0  0  0  0  0  0  0
  150.5181  138.7463  155.0581 C   0  0  0  0  0  0  0  0  0  0  0  0
  147.2960  137.2227  161.0153 N   0  0  0  0  0  0  0  0  0  0  0  0
  147.0264  136.2537  161.9890 O   0  0  0  0  0  0  0  0  0  0  0  0
  147.3045  132.9376  161.8754 H   0  0  0  0  0  0  0  0  0  0  0  0
  146.2512  133.9142  162.8992 H   0  0  0  0  0  0  0  0  0  0  0  0
  147.9868  133.8603  163.2161 H   0  0  0  0  0  0  0  0  0  0  0  0
  148.3845  134.3891  159.6496 H   0  0  0  0  0  0  0  0  0  0  0  0
  147.5963  137.5168  158.2008 H   0  0  0  0  0  0  0  0  0  0  0  0
  148.7653  138.0737  156.7171 H   0  0  0  0  0  0  0  0  0  0  0  0
  151.2351  136.9874  156.0487 H   0  0  0  0  0  0  0  0  0  0  0  0
  152.1078  138.1681  158.1088 H   0  0  0  0  0  0  0  0  0  0  0  0
  152.8657  138.6717  156.6245 H   0  0  0  0  0  0  0  0  0  0  0  0
  150.6765  140.1917  158.1148 H   0  0  0  0  0  0  0  0  0  0  0  0
  152.3576  140.6441  157.9959 H   0  0  0  0  0  0  0  0  0  0  0  0
  152.1535  140.9397  155.5534 H   0  0  0  0  0  0  0  0  0  0  0  0
  149.9576  142.4524  157.0451 H   0  0  0  0  0  0  0  0  0  0  0  0
  150.6888  142.9387  155.5176 H   0  0  0  0  0  0  0  0  0  0  0  0
  151.6601  142.9024  156.9840 H   0  0  0  0  0  0  0  0  0  0  0  0
  149.2016  140.2523  155.8876 H   0  0  0  0  0  0  0  0  0  0  0  0
  149.9801  140.7348  154.4026 H   0  0  0  0  0  0  0  0  0  0  0  0
  151.3861  138.7237  154.3979 H   0  0  0  0  0  0  0  0  0  0  0  0
  149.7112  138.2564  154.5117 H   0  0  0  0  0  0  0  0  0  0  0  0
  1  2  1  0  0  0  0
  1 18  1  0  0  0  0
  1 19  1  0  0  0  0
  1 20  1  0  0  0  0
  2 17  1  0  0  0  0
  2  3  2  0  0  0  0
  3  4  1  0  0  0  0
  3 21  1  0  0  0  0
  4  5  1  0  0  0  0
  4 16  2  0  0  0  0
  5  6  1  0  0  0  0
  5 22  1  0  0  0  0
  6  7  2  0  0  0  0
  6  8  1  0  0  0  0
  8  9  1  0  0  0  0
  8 23  1  0  0  0  0
  9 15  1  0  0  0  0
  9 10  1  0  0  0  0
  9 24  1  0  0  0  0
 10 11  1  0  0  0  0
 10 25  1  0  0  0  0
 10 26  1  0  0  0  0
 11 12  1  0  0  0  0
 11 27  1  0  0  0  0
 11 28  1  0  0  0  0
 12 13  1  0  0  0  0
 12 14  1  0  0  0  0
 12 29  1  0  0  0  0
 13 30  1  0  0  0  0
 13 31  1  0  0  0  0
 13 32  1  0  0  0  0
 14 15  1  0  0  0  0
 14 33  1  0  0  0  0
 14 34  1  0  0  0  0
 15 35  1  0  0  0  0
 15 36  1  0  0  0  0
 16 17  1  0  0  0  0
M  END
> <s_m_source_file>
AV-unprocessed.smi

> <i_m_source_file_index>
580

> <i_lp_mmshare_version>
43012

> <i_f3d_flags>
0

> <s_epik_input>
W0NIM11jMVtjSF1jKG5vMSlbTkhdQyg9TylbTkhdW0NAQEhdMltDSDJdW0NIMl1bQ0BASF0oW0NIM10pW0NIMl1bQ0gyXTI=

> <s_epik_cmdline>
J2VwaWtfcHl0aG9uJywgJy1waCcsICc3LjAnLCAnLXRuJywgJzgnLCAnLW1hJywgJzIwMCcsICctbWV0YWxfYmluZGluZycsICctaW1hZScsICc8aW5maWxlLm1hZT4nLCAnLW9tYWUnLCAnPG91dGZpbGUubWFlPic=

> <r_lp_tautomer_probability>
1

> <r_epik_Ionization_Penalty>
2.357e-05

> <r_epik_Ionization_Penalty_Charging>
0

> <r_epik_Ionization_Penalty_Neutral>
2.357e-05

> <r_epik_State_Penalty>
-0

> <r_epik_Charging_Adjusted_Penalty>
0

> <i_epik_Tot_Q>
0

> <i_epik_Tot_abs_Q>
0

> <r_epik_Metal_State_Penalty>
-0

> <b_epik_Metal_Only>
0

> <s_lp_Force_Field>
OPLS_2005

> <r_lp_Energy>
6.11035

> <b_lp_Chiralities_Consistent>
1

> <s_lp_Variant>
AV-unprocessed.smi:580-2

> <Gold.Version>
5.8.1

> <Gold.Id.Protein>
6NUR|6NUR_protein|mol2

> <Gold.PLP.Fitness>
35.1761

> <Gold.PLP.PLP>
-27.8730

> <Gold.PLP.part.hbond>
-3.0000

> <Gold.PLP.part.metal>
0.0000

> <Gold.PLP.part.buried>
-4.6163

> <Gold.PLP.part.nonpolar>
-20.4671

> <Gold.PLP.part.repulsive>
0.1601

> <Gold.PLP.ligand.clash>
0.0000

> <Gold.PLP.ligand.torsion>
0.6355

> <Gold.PLP.Chemscore.Hbond>
2.8560

> <Gold.PLP.Chemscore.CHOScore>
0.0000

> <Gold.PLP.Chemscore.Metal>
0.0000

> <Gold.Chemscore.Hbonds>
donor molecule, donor type, donor heavy atom, donor atom, acceptor molecule, acceptor atom, score
      P1  H  6896  6908       L1     7  1.00
      P1  H  6931  6943       L1    16  0.46
      P1  H  6934  6947       L1    16  1.00

> <Gold.PLP.Chemscore.Internal.Correction>
0.0060

> <Gold.Rescore>
     Score         DG    S(hbond)    S(metal)    S(lipo)     H(rot)  DE(clash)    DE(int)     intcor
     17.53     -18.87       2.57        0.00      63.07       1.00       0.01       1.33       ----

> <Gold.Chemscore.Fitness>
17.5272

> <Gold.Chemscore.DG>
-18.8681

> <Gold.Chemscore.ZeroCoef>
-5.4800

> <Gold.Chemscore.Hbond>
2.5656

> <Gold.Chemscore.Metal>
0.0000

> <Gold.Chemscore.Lipo>
63.0683

> <Gold.Chemscore.Internal_Hbond>
0.0000

> <Gold.Chemscore.DEClash>
0.0132

> <Gold.Chemscore.DEInternal>
1.3278

> <Gold.Chemscore.Rot>
1.0000

> <Gold.Chemscore.Internal.Correction>
   9.000000E+99

> <Gold.Chemscore.Hbonds>
donor molecule, donor type, donor heavy atom, donor atom, acceptor molecule, acceptor atom, score
      P1  H  6896  6908       L1     7  0.95
      P1  H  6931  6943       L1    16  0.05
      P1  H  6934  6947       L1    16  0.95

> <Gold.Chemscore.Hbond.Weighted>
-8.5692

> <Gold.Chemscore.Metal.Weighted>
-0.0000

> <Gold.Chemscore.Lipo.Weighted>
-7.3790

> <Gold.Chemscore.Internal_Hbond.Weighted>
0.0000

> <Gold.Chemscore.DEClash.Weighted>
0.0132

> <Gold.Chemscore.DEInternal.Weighted>
1.3278

> <Gold.Chemscore.Rot.Weighted>
2.5600

> <Gold.Chemscore.Internal.Correction.Weighted>
   9.000000E+99

> <Gold.Protein.RotatedTorsions>
[ 6907 6896 6895 6894 ] final -162.20 input  -60.11 | X-H torsion
[ 7974 7965 7964 7962 ] final -143.39 input  175.53 | X-H torsion
[ 8008 7997 7996 7995 ] final   52.41 input   59.86 | X-H torsion
[ 10167 10162 10161 10158 ] final    1.76 input  -65.29 | X-H torsion
[ 10718 10713 10712 10709 ] final  108.72 input   66.30 | X-H torsion
[ 10763 10752 10751 10750 ] final  -65.86 input  -60.55 | X-H torsion
[ 11005 11000 10999 10996 ] final -167.29 input  -57.11 | X-H torsion

> <Gold.Protein.ActiveResidues>
 VAL166  LYS551  ARG553  GLY616  TRP617  ASP618  TYR619  PRO620  LYS621  CYS622 
 ASP623  PHE694  ASN695  SER759  ASP760  ASP761  ALA762  ILE779  LEU786  VAL792 
 PHE793  MET794  SER795  GLU796  ALA797  LYS798  CYS799  TRP800  GLU811  SER814 

> <Gold.Protein.RotatedAtoms>
  151.3765  133.3836  159.2705 H   0  0  0  0  0  0  0  0  0  0  0  0  # atno 6907 bound_to 6896
  150.9610  134.8999  159.7741 H   0  0  0  0  0  0  0  0  0  0  0  0  # atno 6908 bound_to 6896
  152.5149  134.3724  159.9375 H   0  0  0  0  0  0  0  0  0  0  0  0  # atno 6909 bound_to 6896
  144.8373  140.5840  143.5476 H   0  0  0  0  0  0  0  0  0  0  0  0  # atno 7974 bound_to 7965
  155.4514  140.3458  155.4301 H   0  0  0  0  0  0  0  0  0  0  0  0  # atno 8008 bound_to 7997
  156.1218  140.1489  156.9223 H   0  0  0  0  0  0  0  0  0  0  0  0  # atno 8009 bound_to 7997
  154.4829  140.0864  156.7398 H   0  0  0  0  0  0  0  0  0  0  0  0  # atno 8010 bound_to 7997
  140.6667  143.7160  150.7841 H   0  0  0  0  0  0  0  0  0  0  0  0  # atno 10167 bound_to 10162
  157.6574  131.0899  150.6347 H   0  0  0  0  0  0  0  0  0  0  0  0  # atno 10718 bound_to 10713
  154.3513  135.6136  153.5644 H   0  0  0  0  0  0  0  0  0  0  0  0  # atno 10763 bound_to 10752
  152.9798  135.5793  154.4740 H   0  0  0  0  0  0  0  0  0  0  0  0  # atno 10764 bound_to 10752
  154.4462  135.2851  155.1790 H   0  0  0  0  0  0  0  0  0  0  0  0  # atno 10765 bound_to 10752
  140.5549  134.5391  157.5130 H   0  0  0  0  0  0  0  0  0  0  0  0  # atno 11005 bound_to 11000
  145.4768  139.1498  143.3783 LP  0  0  0  0  0  0  0  0  0  0  0  0  # atno 17320 bound_to 7965
  146.2670  140.4903  142.8830 LP  0  0  0  0  0  0  0  0  0  0  0  0  # atno 17321 bound_to 7965
  140.0838  143.4943  152.2516 LP  0  0  0  0  0  0  0  0  0  0  0  0  # atno 17342 bound_to 10162
  139.5919  144.7553  151.3380 LP  0  0  0  0  0  0  0  0  0  0  0  0  # atno 17343 bound_to 10162
  156.6653  130.4524  149.5674 LP  0  0  0  0  0  0  0  0  0  0  0  0  # atno 17370 bound_to 10713
  156.2037  130.6636  151.1195 LP  0  0  0  0  0  0  0  0  0  0  0  0  # atno 17371 bound_to 10713
  139.9436  134.7741  156.0616 LP  0  0  0  0  0  0  0  0  0  0  0  0  # atno 17394 bound_to 11000
  141.1149  133.6631  156.3070 LP  0  0  0  0  0  0  0  0  0  0  0  0  # atno 17395 bound_to 11000

$$$$
