AV-unprocessed.smi:3313|AV-procd|sdf|12729|dock8
  -GOLD-   2272019 73D 1   1.00000     0.00000
 Structure written by MMmdl.
 43 43  0  0  0  0  0  0  0  0  2 V2000
  147.3117  140.3370  153.6403 C   0  0  0  0  0  0  0  0  0  0  0  0
  147.9839  138.9545  153.6909 C   0  0  2  0  0  0  0  0  0  0  0  0
  149.4910  139.0447  154.0268 C   0  0  0  0  0  0  0  0  0  0  0  0
  149.7834  140.0363  155.0462 N   0  0  0  0  0  0  0  0  0  0  0  0
  149.9590  139.8522  156.4019 C   0  0  0  0  0  0  0  0  0  0  0  0
  150.2057  141.0787  156.9489 C   0  0  0  0  0  0  0  0  0  0  0  0
  150.1545  141.9628  155.8351 C   0  0  0  0  0  0  0  0  0  0  0  0
  149.8993  141.3359  154.6979 N   0  0  0  0  0  0  0  0  0  0  0  0
  147.7586  138.2542  152.4059 N   0  3  0  0  0  0  0  0  0  0  0  0
  146.3448  137.9774  152.0735 C   0  0  0  0  0  0  0  0  0  0  0  0
  146.2389  136.9587  150.9259 C   0  0  0  0  0  0  0  0  0  0  0  0
  145.8631  135.5565  151.4146 C   0  0  0  0  0  0  0  0  0  0  0  0
  145.7765  135.3278  152.6208 O   0  0  0  0  0  0  0  0  0  0  0  0
  145.6498  134.6339  150.4589 N   0  0  0  0  0  0  0  0  0  0  0  0
  145.2806  133.2219  150.6193 C   0  0  0  0  0  0  0  0  0  0  0  0
  144.1424  133.1722  151.6541 C   0  0  0  0  0  0  0  0  0  0  0  0
  146.4756  132.4015  151.1503 C   0  0  0  0  0  0  0  0  0  0  0  0
  144.7707  132.6387  149.2848 C   0  0  0  0  0  0  0  0  0  0  0  0
  147.3667  140.8464  154.6028 H   0  0  0  0  0  0  0  0  0  0  0  0
  146.2553  140.2502  153.3842 H   0  0  0  0  0  0  0  0  0  0  0  0
  147.7828  140.9804  152.8963 H   0  0  0  0  0  0  0  0  0  0  0  0
  147.4820  138.3807  154.4714 H   0  0  0  0  0  0  0  0  0  0  0  0
  149.8719  138.0869  154.3817 H   0  0  0  0  0  0  0  0  0  0  0  0
  150.0623  139.2935  153.1312 H   0  0  0  0  0  0  0  0  0  0  0  0
  149.8971  138.8757  156.8593 H   0  0  0  0  0  0  0  0  0  0  0  0
  150.3924  141.3101  157.9872 H   0  0  0  0  0  0  0  0  0  0  0  0
  150.2930  143.0340  155.8187 H   0  0  0  0  0  0  0  0  0  0  0  0
  148.1252  138.8454  151.6736 H   0  0  0  0  0  0  0  0  0  0  0  0
  145.8321  137.5992  152.9582 H   0  0  0  0  0  0  0  0  0  0  0  0
  145.8535  138.9085  151.7871 H   0  0  0  0  0  0  0  0  0  0  0  0
  145.4978  137.2998  150.2011 H   0  0  0  0  0  0  0  0  0  0  0  0
  147.1893  136.8917  150.3952 H   0  0  0  0  0  0  0  0  0  0  0  0
  145.7557  134.9431  149.5034 H   0  0  0  0  0  0  0  0  0  0  0  0
  143.8112  132.1483  151.8316 H   0  0  0  0  0  0  0  0  0  0  0  0
  143.2745  133.7428  151.3209 H   0  0  0  0  0  0  0  0  0  0  0  0
  144.4581  133.5843  152.6135 H   0  0  0  0  0  0  0  0  0  0  0  0
  146.8706  132.8259  152.0742 H   0  0  0  0  0  0  0  0  0  0  0  0
  147.2942  132.3551  150.4320 H   0  0  0  0  0  0  0  0  0  0  0  0
  146.1813  131.3731  151.3628 H   0  0  0  0  0  0  0  0  0  0  0  0
  144.4054  131.6196  149.4163 H   0  0  0  0  0  0  0  0  0  0  0  0
  145.5535  132.6011  148.5273 H   0  0  0  0  0  0  0  0  0  0  0  0
  143.9488  133.2306  148.8804 H   0  0  0  0  0  0  0  0  0  0  0  0
  148.2777  137.3878  152.4069 H   0  0  0  0  0  0  0  0  0  0  0  0
  1  2  1  0  0  0  0
  1 19  1  0  0  0  0
  1 20  1  0  0  0  0
  1 21  1  0  0  0  0
  2  3  1  0  0  0  0
  2  9  1  0  0  0  0
  2 22  1  0  0  0  0
  3  4  1  0  0  0  0
  3 23  1  0  0  0  0
  3 24  1  0  0  0  0
  4  8  1  0  0  0  0
  4  5  1  0  0  0  0
  5  6  2  0  0  0  0
  5 25  1  0  0  0  0
  6  7  1  0  0  0  0
  6 26  1  0  0  0  0
  7  8  2  0  0  0  0
  7 27  1  0  0  0  0
  9 10  1  0  0  0  0
  9 28  1  0  0  0  0
  9 43  1  0  0  0  0
 10 11  1  0  0  0  0
 10 29  1  0  0  0  0
 10 30  1  0  0  0  0
 11 12  1  0  0  0  0
 11 31  1  0  0  0  0
 11 32  1  0  0  0  0
 12 13  2  0  0  0  0
 12 14  1  0  0  0  0
 14 15  1  0  0  0  0
 14 33  1  0  0  0  0
 15 16  1  0  0  0  0
 15 17  1  0  0  0  0
 15 18  1  0  0  0  0
 16 34  1  0  0  0  0
 16 35  1  0  0  0  0
 16 36  1  0  0  0  0
 17 37  1  0  0  0  0
 17 38  1  0  0  0  0
 17 39  1  0  0  0  0
 18 40  1  0  0  0  0
 18 41  1  0  0  0  0
 18 42  1  0  0  0  0
M  CHG  1   9   1
M  END
> <s_m_source_file>
AV-unprocessed.smi

> <i_m_source_file_index>
3313

> <i_lp_mmshare_version>
43012

> <i_f3d_flags>
0

> <s_epik_input>
bjFbY0hdW2NIXVtjSF1uMVtDSDJdW0NAQEhdKFtDSDNdKVtOSF1bQ0gyXVtDSDJdQyg9TylbTkhdQyhbQ0gzXSkoW0NIM10pW0NIM10=

> <s_epik_cmdline>
J2VwaWtfcHl0aG9uJywgJy1waCcsICc3LjAnLCAnLXRuJywgJzgnLCAnLW1hJywgJzIwMCcsICctbWV0YWxfYmluZGluZycsICctaW1hZScsICc8aW5maWxlLm1hZT4nLCAnLW9tYWUnLCAnPG91dGZpbGUubWFlPic=

> <r_lp_tautomer_probability>
1

> <r_epik_Ionization_Penalty>
0.0056766

> <r_epik_Ionization_Penalty_Charging>
0.00567288

> <r_epik_Ionization_Penalty_Neutral>
3.71277e-06

> <r_epik_State_Penalty>
0.0041598

> <r_epik_Charging_Adjusted_Penalty>
0.00983268

> <i_epik_Tot_Q>
1

> <i_epik_Tot_abs_Q>
1

> <r_epik_Metal_State_Penalty>
-0

> <b_epik_Metal_Only>
0

> <s_lp_Force_Field>
OPLS_2005

> <r_lp_Energy>
7.49453

> <b_lp_Chiralities_Consistent>
1

> <s_lp_Variant>
AV-unprocessed.smi:3313-1

> <Gold.Version>
5.8.1

> <Gold.Id.Protein>
6NUR|6NUR_protein|mol2

> <Gold.PLP.Fitness>
47.8620

> <Gold.PLP.PLP>
-33.6118

> <Gold.PLP.part.hbond>
-3.8199

> <Gold.PLP.part.metal>
0.0000

> <Gold.PLP.part.buried>
0.7139

> <Gold.PLP.part.nonpolar>
-31.4290

> <Gold.PLP.part.repulsive>
0.3636

> <Gold.PLP.ligand.clash>
0.0000

> <Gold.PLP.ligand.torsion>
1.1250

> <Gold.PLP.Chemscore.Hbond>
4.5376

> <Gold.PLP.Chemscore.CHOScore>
0.9373

> <Gold.PLP.Chemscore.Metal>
0.0000

> <Gold.Chemscore.Hbonds>
donor molecule, donor type, donor heavy atom, donor atom, acceptor molecule, acceptor atom, score
      L1  H     9    28       P1  7957  0.93
      L1  H     9    43       P1  7948  1.50
      L1  H    14    33       P1  7921  1.00
      P1  H  7989  7998       L1     8  0.21
      L1  C     7    27       P1  8028  1.00

> <Gold.PLP.Chemscore.Internal.Correction>
0.0753

> <Gold.Rescore>
     Score         DG    S(hbond)    S(metal)    S(lipo)     H(rot)  DE(clash)    DE(int)     intcor
     18.85     -21.26       3.57        0.00      81.21       2.20       1.79       0.62       ----

> <Gold.Chemscore.Fitness>
18.8544

> <Gold.Chemscore.DG>
-21.2634

> <Gold.Chemscore.ZeroCoef>
-5.4800

> <Gold.Chemscore.Hbond>
3.5692

> <Gold.Chemscore.Metal>
0.0000

> <Gold.Chemscore.Lipo>
81.2066

> <Gold.Chemscore.Internal_Hbond>
0.0000

> <Gold.Chemscore.DEClash>
1.7914

> <Gold.Chemscore.DEInternal>
0.6176

> <Gold.Chemscore.Rot>
2.2027

> <Gold.Chemscore.Internal.Correction>
   9.000000E+99

> <Gold.Chemscore.Hbonds>
donor molecule, donor type, donor heavy atom, donor atom, acceptor molecule, acceptor atom, score
      L1  H     9    28       P1  7957  0.70
      L1  H     9    43       P1  7948  0.74
      L1  H    14    33       P1  7921  0.95
      P1  H  7989  7998       L1     8  0.01

> <Gold.Chemscore.Hbond.Weighted>
-11.9212

> <Gold.Chemscore.Metal.Weighted>
-0.0000

> <Gold.Chemscore.Lipo.Weighted>
-9.5012

> <Gold.Chemscore.Internal_Hbond.Weighted>
0.0000

> <Gold.Chemscore.DEClash.Weighted>
1.7914

> <Gold.Chemscore.DEInternal.Weighted>
0.6176

> <Gold.Chemscore.Rot.Weighted>
5.6390

> <Gold.Chemscore.Internal.Correction.Weighted>
   9.000000E+99

> <Gold.Protein.RotatedTorsions>
[ 6907 6896 6895 6894 ] final  143.15 input  -60.11 | X-H torsion
[ 7974 7965 7964 7962 ] final   36.81 input  175.53 | X-H torsion
[ 8008 7997 7996 7995 ] final  109.50 input   59.86 | X-H torsion
[ 10167 10162 10161 10158 ] final -137.89 input  -65.29 | X-H torsion
[ 10718 10713 10712 10709 ] final -127.75 input   66.30 | X-H torsion
[ 10763 10752 10751 10750 ] final   -1.51 input  -60.55 | X-H torsion
[ 11005 11000 10999 10996 ] final   27.80 input  -57.11 | X-H torsion

> <Gold.Protein.ActiveResidues>
 VAL166  LYS551  ARG553  GLY616  TRP617  ASP618  TYR619  PRO620  LYS621  CYS622 
 ASP623  PHE694  ASN695  SER759  ASP760  ASP761  ALA762  ILE779  LEU786  VAL792 
 PHE793  MET794  SER795  GLU796  ALA797  LYS798  CYS799  TRP800  GLU811  SER814 

> <Gold.Protein.RotatedAtoms>
  152.2099  133.4903  159.5104 H   0  0  0  0  0  0  0  0  0  0  0  0  # atno 6907 bound_to 6896
  150.6988  134.1481  159.4139 H   0  0  0  0  0  0  0  0  0  0  0  0  # atno 6908 bound_to 6896
  151.9400  135.0217  160.0586 H   0  0  0  0  0  0  0  0  0  0  0  0  # atno 6909 bound_to 6896
  146.1184  139.5972  142.9306 H   0  0  0  0  0  0  0  0  0  0  0  0  # atno 7974 bound_to 7965
  156.1984  140.3056  155.9475 H   0  0  0  0  0  0  0  0  0  0  0  0  # atno 8008 bound_to 7997
  155.3012  140.0446  157.3046 H   0  0  0  0  0  0  0  0  0  0  0  0  # atno 8009 bound_to 7997
  154.5539  140.2300  155.8450 H   0  0  0  0  0  0  0  0  0  0  0  0  # atno 8010 bound_to 7997
  139.8532  143.7171  152.2656 H   0  0  0  0  0  0  0  0  0  0  0  0  # atno 10167 bound_to 10162
  156.1886  130.6780  151.0395 H   0  0  0  0  0  0  0  0  0  0  0  0  # atno 10718 bound_to 10713
  153.3458  135.6983  153.6829 H   0  0  0  0  0  0  0  0  0  0  0  0  # atno 10763 bound_to 10752
  153.5575  135.3541  155.2786 H   0  0  0  0  0  0  0  0  0  0  0  0  # atno 10764 bound_to 10752
  154.8645  135.4241  154.2682 H   0  0  0  0  0  0  0  0  0  0  0  0  # atno 10765 bound_to 10752
  140.3224  134.2528  155.7715 H   0  0  0  0  0  0  0  0  0  0  0  0  # atno 11005 bound_to 11000
  145.5518  141.0412  143.2274 LP  0  0  0  0  0  0  0  0  0  0  0  0  # atno 17320 bound_to 7965
  144.7574  139.7040  143.7248 LP  0  0  0  0  0  0  0  0  0  0  0  0  # atno 17321 bound_to 7965
  139.7445  144.7551  151.0601 LP  0  0  0  0  0  0  0  0  0  0  0  0  # atno 17342 bound_to 10162
  140.7785  143.4933  150.9865 LP  0  0  0  0  0  0  0  0  0  0  0  0  # atno 17343 bound_to 10162
  157.6914  131.0808  150.7095 LP  0  0  0  0  0  0  0  0  0  0  0  0  # atno 17370 bound_to 10713
  156.7151  130.4664  149.5537 LP  0  0  0  0  0  0  0  0  0  0  0  0  # atno 17371 bound_to 10713
  141.2083  133.7781  157.0065 LP  0  0  0  0  0  0  0  0  0  0  0  0  # atno 17394 bound_to 11000
  140.0930  134.9581  157.1806 LP  0  0  0  0  0  0  0  0  0  0  0  0  # atno 17395 bound_to 11000

$$$$
