AV-unprocessed.smi:1586|AV-procd|sdf|6373|dock9
  -GOLD-   22720 7 03D 1   1.00000     0.00000
 Structure written by MMmdl.
 47 48  0  0  0  0  0  0  0  0  2 V2000
  145.6032  143.1448  156.9717 C   0  0  0  0  0  0  0  0  0  0  0  0
  146.0636  142.0860  155.9594 C   0  0  0  0  0  0  0  0  0  0  0  0
  147.5346  142.0838  155.7602 N   0  3  0  0  0  0  0  0  0  0  0  0
  147.9665  141.3988  154.5156 C   0  0  0  0  0  0  0  0  0  0  0  0
  149.5022  141.4600  154.3754 C   0  0  0  0  0  0  0  0  0  0  0  0
  150.1816  140.8087  155.5048 N   0  0  0  0  0  0  0  0  0  0  0  0
  149.9908  139.3447  155.6124 C   0  0  2  0  0  0  0  0  0  0  0  0
  150.2231  138.8783  157.0690 C   0  0  0  0  0  0  0  0  0  0  0  0
  150.9242  138.5637  154.6459 C   0  0  0  0  0  0  0  0  0  0  0  0
  150.3865  137.2568  154.2792 N   0  0  0  0  0  0  0  0  0  0  0  0
  150.6948  136.1070  154.8975 C   0  0  0  0  0  0  0  0  0  0  0  0
  151.4835  136.0366  155.8414 O   0  0  0  0  0  0  0  0  0  0  0  0
  150.0391  135.0660  154.3571 N   0  0  0  0  0  0  0  0  0  0  0  0
  150.1066  133.7055  154.7524 C   0  0  0  0  0  0  0  0  0  0  0  0
  149.4555  132.6933  153.9986 C   0  0  0  0  0  0  0  0  0  0  0  0
  149.7525  131.5538  154.6923 C   0  0  0  0  0  0  0  0  0  0  0  0
  149.4009  130.1203  154.4856 C   0  0  0  0  0  0  0  0  0  0  0  0
  150.5203  131.8458  155.7769 O   0  0  0  0  0  0  0  0  0  0  0  0
  150.7452  133.2271  155.8094 N   0  0  0  0  0  0  0  0  0  0  0  0
  149.7876  141.5699  156.7003 C   0  0  0  0  0  0  0  0  0  0  0  0
  148.2603  141.5364  156.9333 C   0  0  0  0  0  0  0  0  0  0  0  0
  144.5343  143.0496  157.1640 H   0  0  0  0  0  0  0  0  0  0  0  0
  145.7749  144.1584  156.6103 H   0  0  0  0  0  0  0  0  0  0  0  0
  146.1206  143.0325  157.9248 H   0  0  0  0  0  0  0  0  0  0  0  0
  145.7565  141.1087  156.3342 H   0  0  0  0  0  0  0  0  0  0  0  0
  145.5568  142.2239  155.0031 H   0  0  0  0  0  0  0  0  0  0  0  0
  147.6086  140.3686  154.5035 H   0  0  0  0  0  0  0  0  0  0  0  0
  147.5215  141.8903  153.6514 H   0  0  0  0  0  0  0  0  0  0  0  0
  149.8220  141.0458  153.4216 H   0  0  0  0  0  0  0  0  0  0  0  0
  149.8157  142.5043  154.3369 H   0  0  0  0  0  0  0  0  0  0  0  0
  148.9642  139.0986  155.3471 H   0  0  0  0  0  0  0  0  0  0  0  0
  150.1948  137.7925  157.1569 H   0  0  0  0  0  0  0  0  0  0  0  0
  149.4546  139.2442  157.7485 H   0  0  0  0  0  0  0  0  0  0  0  0
  151.1928  139.2096  157.4419 H   0  0  0  0  0  0  0  0  0  0  0  0
  151.0922  139.0975  153.7114 H   0  0  0  0  0  0  0  0  0  0  0  0
  151.9042  138.4191  155.1020 H   0  0  0  0  0  0  0  0  0  0  0  0
  149.7313  137.2302  153.5113 H   0  0  0  0  0  0  0  0  0  0  0  0
  149.4191  135.2682  153.5868 H   0  0  0  0  0  0  0  0  0  0  0  0
  148.8657  132.7847  153.0988 H   0  0  0  0  0  0  0  0  0  0  0  0
  149.1547  129.9270  153.4414 H   0  0  0  0  0  0  0  0  0  0  0  0
  148.5399  129.8433  155.0940 H   0  0  0  0  0  0  0  0  0  0  0  0
  150.2330  129.4719  154.7611 H   0  0  0  0  0  0  0  0  0  0  0  0
  150.3169  141.2221  157.5854 H   0  0  0  0  0  0  0  0  0  0  0  0
  150.1079  142.6051  156.5737 H   0  0  0  0  0  0  0  0  0  0  0  0
  148.0233  142.1389  157.8107 H   0  0  0  0  0  0  0  0  0  0  0  0
  147.9145  140.5258  157.1531 H   0  0  0  0  0  0  0  0  0  0  0  0
  147.8211  143.0487  155.6775 H   0  0  0  0  0  0  0  0  0  0  0  0
  1  2  1  0  0  0  0
  1 22  1  0  0  0  0
  1 23  1  0  0  0  0
  1 24  1  0  0  0  0
  2  3  1  0  0  0  0
  2 25  1  0  0  0  0
  2 26  1  0  0  0  0
  3 21  1  0  0  0  0
  3  4  1  0  0  0  0
  3 47  1  0  0  0  0
  4  5  1  0  0  0  0
  4 27  1  0  0  0  0
  4 28  1  0  0  0  0
  5  6  1  0  0  0  0
  5 29  1  0  0  0  0
  5 30  1  0  0  0  0
  6  7  1  0  0  0  0
  6 20  1  0  0  0  0
  7  8  1  0  0  0  0
  7  9  1  0  0  0  0
  7 31  1  0  0  0  0
  8 32  1  0  0  0  0
  8 33  1  0  0  0  0
  8 34  1  0  0  0  0
  9 10  1  0  0  0  0
  9 35  1  0  0  0  0
  9 36  1  0  0  0  0
 10 11  1  0  0  0  0
 10 37  1  0  0  0  0
 11 12  2  0  0  0  0
 11 13  1  0  0  0  0
 13 14  1  0  0  0  0
 13 38  1  0  0  0  0
 14 19  2  0  0  0  0
 14 15  1  0  0  0  0
 15 16  2  0  0  0  0
 15 39  1  0  0  0  0
 16 17  1  0  0  0  0
 16 18  1  0  0  0  0
 17 40  1  0  0  0  0
 17 41  1  0  0  0  0
 17 42  1  0  0  0  0
 18 19  1  0  0  0  0
 20 21  1  0  0  0  0
 20 43  1  0  0  0  0
 20 44  1  0  0  0  0
 21 45  1  0  0  0  0
 21 46  1  0  0  0  0
M  CHG  1   3   1
M  END
> <s_m_source_file>
AV-unprocessed.smi

> <i_m_source_file_index>
1586

> <i_lp_mmshare_version>
43012

> <i_f3d_flags>
0

> <s_epik_input>
W0NIM11bQ0gyXU4xW0NIMl1bQ0gyXU4oW0NIMl1bQ0gyXTEpW0NASF0oW0NIM10pW0NIMl1bTkhdQyg9TylbTkhdYzJbY0hdYyhbQ0gzXSlvbjI=

> <s_epik_cmdline>
J2VwaWtfcHl0aG9uJywgJy1waCcsICc3LjAnLCAnLXRuJywgJzgnLCAnLW1hJywgJzIwMCcsICctbWV0YWxfYmluZGluZycsICctaW1hZScsICc8aW5maWxlLm1hZT4nLCAnLW9tYWUnLCAnPG91dGZpbGUubWFlPic=

> <r_epik_Ionization_Penalty>
0.0459786

> <r_epik_Ionization_Penalty_Charging>
0.0453654

> <r_epik_Ionization_Penalty_Neutral>
0.000613264

> <r_epik_State_Penalty>
0.163057

> <r_epik_Charging_Adjusted_Penalty>
0.208422

> <i_epik_Tot_Q>
1

> <i_epik_Tot_abs_Q>
1

> <r_epik_Metal_State_Penalty>
0.17399

> <b_epik_Metal_Only>
0

> <s_lp_Force_Field>
OPLS_2005

> <r_lp_Energy>
17.9393

> <b_lp_Chiralities_Consistent>
1

> <s_lp_Variant>
AV-unprocessed.smi:1586-1

> <Gold.Version>
5.8.1

> <Gold.Id.Protein>
6NUR|6NUR_protein|mol2

> <Gold.PLP.Fitness>
42.9909

> <Gold.PLP.PLP>
-30.5513

> <Gold.PLP.part.hbond>
-5.1170

> <Gold.PLP.part.metal>
0.0000

> <Gold.PLP.part.buried>
-2.7132

> <Gold.PLP.part.nonpolar>
-22.7090

> <Gold.PLP.part.repulsive>
0.2754

> <Gold.PLP.ligand.clash>
0.0000

> <Gold.PLP.ligand.torsion>
1.0704

> <Gold.PLP.Chemscore.Hbond>
4.8400

> <Gold.PLP.Chemscore.CHOScore>
0.0000

> <Gold.PLP.Chemscore.Metal>
0.0000

> <Gold.Chemscore.Hbonds>
donor molecule, donor type, donor heavy atom, donor atom, acceptor molecule, acceptor atom, score
      L1  H     3    47       P1  8028  2.00
      L1  H    10    37       P1  7948  0.92
      L1  H    13    38       P1  7948  0.85
      P1  H 10752 10764       L1    12  1.00

> <Gold.PLP.Chemscore.Internal.Correction>
0.0603

> <Gold.Rescore>
     Score         DG    S(hbond)    S(metal)    S(lipo)     H(rot)  DE(clash)    DE(int)     intcor
     14.41     -17.72       2.91        0.00      60.02       1.76       1.16       2.15       ----

> <Gold.Chemscore.Fitness>
14.4074

> <Gold.Chemscore.DG>
-17.7180

> <Gold.Chemscore.ZeroCoef>
-5.4800

> <Gold.Chemscore.Hbond>
2.9132

> <Gold.Chemscore.Metal>
0.0000

> <Gold.Chemscore.Lipo>
60.0238

> <Gold.Chemscore.Internal_Hbond>
0.0000

> <Gold.Chemscore.DEClash>
1.1624

> <Gold.Chemscore.DEInternal>
2.1482

> <Gold.Chemscore.Rot>
1.7637

> <Gold.Chemscore.Internal.Correction>
   9.000000E+99

> <Gold.Chemscore.Hbonds>
donor molecule, donor type, donor heavy atom, donor atom, acceptor molecule, acceptor atom, score
      L1  H     3    47       P1  8028  0.49
      L1  H    10    37       P1  7948  0.59
      L1  H    13    38       P1  7948  0.14
      P1  H 10752 10764       L1    12  0.35

> <Gold.Chemscore.Hbond.Weighted>
-9.7302

> <Gold.Chemscore.Metal.Weighted>
-0.0000

> <Gold.Chemscore.Lipo.Weighted>
-7.0228

> <Gold.Chemscore.Internal_Hbond.Weighted>
0.0000

> <Gold.Chemscore.DEClash.Weighted>
1.1624

> <Gold.Chemscore.DEInternal.Weighted>
2.1482

> <Gold.Chemscore.Rot.Weighted>
4.5150

> <Gold.Chemscore.Internal.Correction.Weighted>
   9.000000E+99

> <Gold.Protein.RotatedTorsions>
[ 6907 6896 6895 6894 ] final   67.62 input  -60.11 | X-H torsion
[ 7974 7965 7964 7962 ] final   62.16 input  175.53 | X-H torsion
[ 8008 7997 7996 7995 ] final   74.49 input   59.86 | X-H torsion
[ 10167 10162 10161 10158 ] final  164.05 input  -65.29 | X-H torsion
[ 10718 10713 10712 10709 ] final  163.31 input   66.30 | X-H torsion
[ 10763 10752 10751 10750 ] final  -34.99 input  -60.55 | X-H torsion
[ 11005 11000 10999 10996 ] final  147.50 input  -57.11 | X-H torsion

> <Gold.Protein.ActiveResidues>
 VAL166  LYS551  ARG553  GLY616  TRP617  ASP618  TYR619  PRO620  LYS621  CYS622 
 ASP623  PHE694  ASN695  SER759  ASP760  ASP761  ALA762  ILE779  LEU786  VAL792 
 PHE793  MET794  SER795  GLU796  ALA797  LYS798  CYS799  TRP800  GLU811  SER814 

> <Gold.Protein.RotatedAtoms>
  152.4564  134.5282  159.9802 H   0  0  0  0  0  0  0  0  0  0  0  0  # atno 6907 bound_to 6896
  151.5341  133.3438  159.2931 H   0  0  0  0  0  0  0  0  0  0  0  0  # atno 6908 bound_to 6896
  150.8510  134.7865  159.7071 H   0  0  0  0  0  0  0  0  0  0  0  0  # atno 6909 bound_to 6896
  145.8765  139.3413  143.0731 H   0  0  0  0  0  0  0  0  0  0  0  0  # atno 7974 bound_to 7965
  155.7991  140.3477  155.5392 H   0  0  0  0  0  0  0  0  0  0  0  0  # atno 8008 bound_to 7997
  155.8556  140.0963  157.1667 H   0  0  0  0  0  0  0  0  0  0  0  0  # atno 8009 bound_to 7997
  154.4009  140.1368  156.3885 H   0  0  0  0  0  0  0  0  0  0  0  0  # atno 8010 bound_to 7997
  139.4883  144.4275  151.9111 H   0  0  0  0  0  0  0  0  0  0  0  0  # atno 10167 bound_to 10162
  157.1103  131.0466  151.2460 H   0  0  0  0  0  0  0  0  0  0  0  0  # atno 10718 bound_to 10713
  153.8558  135.6844  153.4787 H   0  0  0  0  0  0  0  0  0  0  0  0  # atno 10763 bound_to 10752
  153.1370  135.4673  154.9436 H   0  0  0  0  0  0  0  0  0  0  0  0  # atno 10764 bound_to 10752
  154.7781  135.3260  154.7997 H   0  0  0  0  0  0  0  0  0  0  0  0  # atno 10765 bound_to 10752
  140.0881  134.9057  157.1607 H   0  0  0  0  0  0  0  0  0  0  0  0  # atno 11005 bound_to 11000
  145.9075  140.9202  143.0471 LP  0  0  0  0  0  0  0  0  0  0  0  0  # atno 17320 bound_to 7965
  144.6726  140.1115  143.7455 LP  0  0  0  0  0  0  0  0  0  0  0  0  # atno 17321 bound_to 7965
  140.3721  144.2842  150.5918 LP  0  0  0  0  0  0  0  0  0  0  0  0  # atno 17342 bound_to 10162
  140.5309  143.2243  151.8240 LP  0  0  0  0  0  0  0  0  0  0  0  0  # atno 17343 bound_to 10162
  157.4565  130.7628  149.7198 LP  0  0  0  0  0  0  0  0  0  0  0  0  # atno 17370 bound_to 10713
  155.9852  130.3985  150.3273 LP  0  0  0  0  0  0  0  0  0  0  0  0  # atno 17371 bound_to 10713
  140.3391  134.2723  155.7215 LP  0  0  0  0  0  0  0  0  0  0  0  0  # atno 17394 bound_to 11000
  141.2069  133.7820  157.0150 LP  0  0  0  0  0  0  0  0  0  0  0  0  # atno 17395 bound_to 11000

$$$$
