AV-unprocessed.smi:2485|AV-procd|sdf|9788|dock10
  -GOLD-   2272013423D 1   1.00000     0.00000
 Structure written by MMmdl.
 39 40  0  0  0  0  0  0  0  0  1 V2000
  148.7666  141.3586  154.1617 C   0  0  0  0  0  0  0  0  0  0  0  0
  147.4184  140.6229  154.1876 C   0  0  0  0  0  0  0  0  0  0  0  0
  146.2521  141.6162  154.3277 C   0  0  0  0  0  0  0  0  0  0  0  0
  147.2414  139.6935  152.9807 C   0  0  0  0  0  0  0  0  0  0  0  0
  146.4753  138.5203  153.5582 C   0  0  1  0  0  0  0  0  0  0  0  0
  146.6731  137.3083  152.7658 N   0  0  0  0  0  0  0  0  0  0  0  0
  145.7099  136.4389  152.4306 C   0  0  0  0  0  0  0  0  0  0  0  0
  144.5264  136.5827  152.7373 O   0  0  0  0  0  0  0  0  0  0  0  0
  146.2117  135.4080  151.7295 N   0  0  0  0  0  0  0  0  0  0  0  0
  145.5208  134.2776  151.2200 C   0  0  0  0  0  0  0  0  0  0  0  0
  146.3180  133.3498  150.5167 C   0  0  0  0  0  0  0  0  0  0  0  0
  145.6983  132.2055  149.9864 C   0  0  0  0  0  0  0  0  0  0  0  0
  144.3160  132.0659  150.1979 C   0  0  0  0  0  0  0  0  0  0  0  0
  143.5913  132.9797  150.8788 N   0  0  0  0  0  0  0  0  0  0  0  0
  144.1879  134.0671  151.3799 N   0  0  0  0  0  0  0  0  0  0  0  0
  147.0390  138.4287  154.9935 C   0  0  0  0  0  0  0  0  0  0  0  0
  145.9862  137.9480  156.0047 C   0  0  0  0  0  0  0  0  0  0  0  0
  148.3331  137.5967  155.1167 C   0  0  0  0  0  0  0  0  0  0  0  0
  147.3889  139.7703  155.3312 O   0  0  0  0  0  0  0  0  0  0  0  0
  148.8421  142.0124  153.2924 H   0  0  0  0  0  0  0  0  0  0  0  0
  149.6000  140.6563  154.1242 H   0  0  0  0  0  0  0  0  0  0  0  0
  148.8969  141.9729  155.0532 H   0  0  0  0  0  0  0  0  0  0  0  0
  146.2035  142.2913  153.4730 H   0  0  0  0  0  0  0  0  0  0  0  0
  146.3622  142.2260  155.2249 H   0  0  0  0  0  0  0  0  0  0  0  0
  145.2936  141.1018  154.3988 H   0  0  0  0  0  0  0  0  0  0  0  0
  146.7250  140.1675  152.1451 H   0  0  0  0  0  0  0  0  0  0  0  0
  148.2137  139.3592  152.6151 H   0  0  0  0  0  0  0  0  0  0  0  0
  145.4174  138.7884  153.5855 H   0  0  0  0  0  0  0  0  0  0  0  0
  147.6176  137.1098  152.4703 H   0  0  0  0  0  0  0  0  0  0  0  0
  147.2039  135.4298  151.5470 H   0  0  0  0  0  0  0  0  0  0  0  0
  147.3782  133.5089  150.3846 H   0  0  0  0  0  0  0  0  0  0  0  0
  146.2607  131.4639  149.4387 H   0  0  0  0  0  0  0  0  0  0  0  0
  143.7823  131.2085  149.8156 H   0  0  0  0  0  0  0  0  0  0  0  0
  145.6779  136.9229  155.7993 H   0  0  0  0  0  0  0  0  0  0  0  0
  145.0950  138.5756  155.9763 H   0  0  0  0  0  0  0  0  0  0  0  0
  146.3756  137.9781  157.0226 H   0  0  0  0  0  0  0  0  0  0  0  0
  148.1518  136.5395  154.9211 H   0  0  0  0  0  0  0  0  0  0  0  0
  148.7497  137.6729  156.1215 H   0  0  0  0  0  0  0  0  0  0  0  0
  149.0991  137.9385  154.4206 H   0  0  0  0  0  0  0  0  0  0  0  0
  1  2  1  0  0  0  0
  1 20  1  0  0  0  0
  1 21  1  0  0  0  0
  1 22  1  0  0  0  0
  2 19  1  0  0  0  0
  2  3  1  0  0  0  0
  2  4  1  0  0  0  0
  3 23  1  0  0  0  0
  3 24  1  0  0  0  0
  3 25  1  0  0  0  0
  4  5  1  0  0  0  0
  4 26  1  0  0  0  0
  4 27  1  0  0  0  0
  5  6  1  0  0  0  0
  5 16  1  0  0  0  0
  5 28  1  0  0  0  0
  6  7  1  0  0  0  0
  6 29  1  0  0  0  0
  7  8  2  0  0  0  0
  7  9  1  0  0  0  0
  9 10  1  0  0  0  0
  9 30  1  0  0  0  0
 10 15  1  0  0  0  0
 10 11  2  0  0  0  0
 11 12  1  0  0  0  0
 11 31  1  0  0  0  0
 12 13  2  0  0  0  0
 12 32  1  0  0  0  0
 13 14  1  0  0  0  0
 13 33  1  0  0  0  0
 14 15  2  0  0  0  0
 16 17  1  0  0  0  0
 16 18  1  0  0  0  0
 16 19  1  0  0  0  0
 17 34  1  0  0  0  0
 17 35  1  0  0  0  0
 17 36  1  0  0  0  0
 18 37  1  0  0  0  0
 18 38  1  0  0  0  0
 18 39  1  0  0  0  0
M  END
> <s_m_source_file>
AV-unprocessed.smi

> <i_m_source_file_index>
2485

> <i_lp_mmshare_version>
43012

> <i_f3d_flags>
0

> <s_epik_input>
W0NIM11DMShbQ0gzXSlbQ0gyXVtDQEhdKEMoTzEpKFtDSDNdKVtDSDNdKVtOSF1DKD1PKVtOSF1jMltjSF1bY0hdW2NIXW5uMg==

> <s_epik_cmdline>
J2VwaWtfcHl0aG9uJywgJy1waCcsICc3LjAnLCAnLXRuJywgJzgnLCAnLW1hJywgJzIwMCcsICctbWV0YWxfYmluZGluZycsICctaW1hZScsICc8aW5maWxlLm1hZT4nLCAnLW9tYWUnLCAnPG91dGZpbGUubWFlPic=

> <r_lp_tautomer_probability>
1

> <r_epik_Ionization_Penalty>
0.00480341

> <r_epik_Ionization_Penalty_Charging>
0

> <r_epik_Ionization_Penalty_Neutral>
0.00480341

> <r_epik_State_Penalty>
-0

> <r_epik_Charging_Adjusted_Penalty>
0

> <i_epik_Tot_Q>
0

> <i_epik_Tot_abs_Q>
0

> <r_epik_Metal_State_Penalty>
-0

> <b_epik_Metal_Only>
0

> <s_lp_Force_Field>
OPLS_2005

> <r_lp_Energy>
24.1228

> <b_lp_Chiralities_Consistent>
1

> <s_lp_Variant>
AV-unprocessed.smi:2485-1

> <Gold.Version>
5.8.1

> <Gold.Id.Protein>
6NUR|6NUR_protein|mol2

> <Gold.PLP.Fitness>
32.1622

> <Gold.PLP.PLP>
-26.5267

> <Gold.PLP.part.hbond>
-2.0000

> <Gold.PLP.part.metal>
0.0000

> <Gold.PLP.part.buried>
-3.4224

> <Gold.PLP.part.nonpolar>
-21.7897

> <Gold.PLP.part.repulsive>
0.6368

> <Gold.PLP.ligand.clash>
0.0000

> <Gold.PLP.ligand.torsion>
0.1878

> <Gold.PLP.Chemscore.Hbond>
2.0000

> <Gold.PLP.Chemscore.CHOScore>
0.0000

> <Gold.PLP.Chemscore.Metal>
0.0000

> <Gold.Chemscore.Hbonds>
donor molecule, donor type, donor heavy atom, donor atom, acceptor molecule, acceptor atom, score
      L1  H     6    29       P1  7948  1.00
      L1  H     9    30       P1  7948  1.00

> <Gold.PLP.Chemscore.Internal.Correction>
0.0111

> <Gold.Rescore>
     Score         DG    S(hbond)    S(metal)    S(lipo)     H(rot)  DE(clash)    DE(int)     intcor
     15.20     -16.70       1.95        0.00      62.04       1.00       0.02       1.48       ----

> <Gold.Chemscore.Fitness>
15.2005

> <Gold.Chemscore.DG>
-16.6993

> <Gold.Chemscore.ZeroCoef>
-5.4800

> <Gold.Chemscore.Hbond>
1.9523

> <Gold.Chemscore.Metal>
0.0000

> <Gold.Chemscore.Lipo>
62.0382

> <Gold.Chemscore.Internal_Hbond>
0.0000

> <Gold.Chemscore.DEClash>
0.0232

> <Gold.Chemscore.DEInternal>
1.4756

> <Gold.Chemscore.Rot>
1.0000

> <Gold.Chemscore.Internal.Correction>
   9.000000E+99

> <Gold.Chemscore.Hbonds>
donor molecule, donor type, donor heavy atom, donor atom, acceptor molecule, acceptor atom, score
      L1  H     6    29       P1  7948  1.00
      L1  H     9    30       P1  7948  0.92

> <Gold.Chemscore.Hbond.Weighted>
-6.5208

> <Gold.Chemscore.Metal.Weighted>
-0.0000

> <Gold.Chemscore.Lipo.Weighted>
-7.2585

> <Gold.Chemscore.Internal_Hbond.Weighted>
0.0000

> <Gold.Chemscore.DEClash.Weighted>
0.0232

> <Gold.Chemscore.DEInternal.Weighted>
1.4756

> <Gold.Chemscore.Rot.Weighted>
2.5600

> <Gold.Chemscore.Internal.Correction.Weighted>
   9.000000E+99

> <Gold.Protein.RotatedTorsions>
[ 6907 6896 6895 6894 ] final   16.25 input  -60.11 | X-H torsion
[ 7974 7965 7964 7962 ] final  127.18 input  175.53 | X-H torsion
[ 8008 7997 7996 7995 ] final  -74.48 input   59.86 | X-H torsion
[ 10167 10162 10161 10158 ] final   59.41 input  -65.29 | X-H torsion
[ 10718 10713 10712 10709 ] final  105.42 input   66.30 | X-H torsion
[ 10763 10752 10751 10750 ] final  -64.74 input  -60.55 | X-H torsion
[ 11005 11000 10999 10996 ] final  113.85 input  -57.11 | X-H torsion

> <Gold.Protein.ActiveResidues>
 VAL166  LYS551  ARG553  GLY616  TRP617  ASP618  TYR619  PRO620  LYS621  CYS622 
 ASP623  PHE694  ASN695  SER759  ASP760  ASP761  ALA762  ILE779  LEU786  VAL792 
 PHE793  MET794  SER795  GLU796  ALA797  LYS798  CYS799  TRP800  GLU811  SER814 

> <Gold.Protein.RotatedAtoms>
  151.8310  135.0621  160.0436 H   0  0  0  0  0  0  0  0  0  0  0  0  # atno 6907 bound_to 6896
  152.2881  133.5530  159.5548 H   0  0  0  0  0  0  0  0  0  0  0  0  # atno 6908 bound_to 6896
  150.7218  134.0384  159.3799 H   0  0  0  0  0  0  0  0  0  0  0  0  # atno 6909 bound_to 6896
  145.0534  139.3864  143.5042 H   0  0  0  0  0  0  0  0  0  0  0  0  # atno 7974 bound_to 7965
  154.5334  140.0761  156.8385 H   0  0  0  0  0  0  0  0  0  0  0  0  # atno 8008 bound_to 7997
  155.3327  140.3402  155.4221 H   0  0  0  0  0  0  0  0  0  0  0  0  # atno 8009 bound_to 7997
  156.1804  140.1650  156.8271 H   0  0  0  0  0  0  0  0  0  0  0  0  # atno 8010 bound_to 7997
  140.1768  144.4222  150.6634 H   0  0  0  0  0  0  0  0  0  0  0  0  # atno 10167 bound_to 10162
  157.6706  131.0827  150.5853 H   0  0  0  0  0  0  0  0  0  0  0  0  # atno 10718 bound_to 10713
  154.3346  135.6169  153.5567 H   0  0  0  0  0  0  0  0  0  0  0  0  # atno 10763 bound_to 10752
  152.9809  135.5755  154.4923 H   0  0  0  0  0  0  0  0  0  0  0  0  # atno 10764 bound_to 10752
  154.4615  135.2856  155.1686 H   0  0  0  0  0  0  0  0  0  0  0  0  # atno 10765 bound_to 10752
  139.8964  134.9557  156.6802 H   0  0  0  0  0  0  0  0  0  0  0  0  # atno 11005 bound_to 11000
  146.3519  140.0196  142.8659 LP  0  0  0  0  0  0  0  0  0  0  0  0  # atno 17320 bound_to 7965
  145.1498  140.9617  143.4439 LP  0  0  0  0  0  0  0  0  0  0  0  0  # atno 17321 bound_to 7965
  140.6546  143.2234  151.5998 LP  0  0  0  0  0  0  0  0  0  0  0  0  # atno 17342 bound_to 10162
  139.5314  144.2906  152.1155 LP  0  0  0  0  0  0  0  0  0  0  0  0  # atno 17343 bound_to 10162
  156.6154  130.4391  149.5843 LP  0  0  0  0  0  0  0  0  0  0  0  0  # atno 17370 bound_to 10713
  156.2397  130.6844  151.1544 LP  0  0  0  0  0  0  0  0  0  0  0  0  # atno 17371 bound_to 10713
  140.7305  133.9063  155.8208 LP  0  0  0  0  0  0  0  0  0  0  0  0  # atno 17394 bound_to 11000
  141.0157  134.0959  157.4175 LP  0  0  0  0  0  0  0  0  0  0  0  0  # atno 17395 bound_to 11000

$$$$
