AV-unprocessed.smi:101|AV-procd|sdf|922|dock5
  -GOLD-   2262017423D 1   1.00000     0.00000
 Structure written by MMmdl.
 44 46  0  0  0  0  0  0  0  0  1 V2000
  151.0275  135.2394  155.7825 C   0  0  0  0  0  0  0  0  0  0  0  0
  149.7237  135.8849  156.2239 C   0  0  0  0  0  0  0  0  0  0  0  0
  149.1619  136.9229  155.5532 C   0  0  0  0  0  0  0  0  0  0  0  0
  147.9616  137.5271  155.9147 N   0  0  0  0  0  0  0  0  0  0  0  0
  147.3996  138.7093  155.1345 C   0  0  1  0  0  0  0  0  0  0  0  0
  147.4848  139.8625  155.9262 O   0  0  0  0  0  0  0  0  0  0  0  0
  148.5872  140.6765  155.5354 C   0  0  1  0  0  0  0  0  0  0  0  0
  149.8912  140.1996  156.2090 C   0  0  0  0  0  0  0  0  0  0  0  0
  150.6204  141.3241  156.6724 O   0  0  0  0  0  0  0  0  0  0  0  0
  151.7374  141.1481  157.4061 C   0  0  0  0  0  0  0  0  0  0  0  0
  152.4825  140.1727  157.2931 O   0  0  0  0  0  0  0  0  0  0  0  0
  151.9623  142.2445  158.3906 C   0  0  0  0  0  0  0  0  0  0  0  0
  152.5716  141.9462  159.6316 C   0  0  0  0  0  0  0  0  0  0  0  0
  152.7819  142.9577  160.5885 C   0  0  0  0  0  0  0  0  0  0  0  0
  152.3863  144.2800  160.3155 C   0  0  0  0  0  0  0  0  0  0  0  0
  151.7791  144.5895  159.0845 C   0  0  0  0  0  0  0  0  0  0  0  0
  151.5672  143.5791  158.1264 C   0  0  0  0  0  0  0  0  0  0  0  0
  148.5565  140.5032  154.0163 C   0  0  1  0  0  0  0  0  0  0  0  0
  149.7936  140.8254  153.4098 O   0  0  0  0  0  0  0  0  0  0  0  0
  148.1971  139.0313  153.8411 C   0  0  2  0  0  0  0  0  0  0  0  0
  147.4059  138.8699  152.6807 O   0  0  0  0  0  0  0  0  0  0  0  0
  147.3517  137.1378  157.1285 C   0  0  0  0  0  0  0  0  0  0  0  0
  146.3682  137.7067  157.5997 O   0  0  0  0  0  0  0  0  0  0  0  0
  147.9166  136.0612  157.8097 N   0  0  0  0  0  0  0  0  0  0  0  0
  149.0685  135.3708  157.4280 C   0  0  0  0  0  0  0  0  0  0  0  0
  149.4611  134.4214  158.1040 O   0  0  0  0  0  0  0  0  0  0  0  0
  147.4625  135.7636  158.6610 H   0  0  0  0  0  0  0  0  0  0  0  0
  151.4478  135.7323  154.9054 H   0  0  0  0  0  0  0  0  0  0  0  0
  150.8646  134.1913  155.5286 H   0  0  0  0  0  0  0  0  0  0  0  0
  151.7699  135.2890  156.5797 H   0  0  0  0  0  0  0  0  0  0  0  0
  149.6976  137.2905  154.6912 H   0  0  0  0  0  0  0  0  0  0  0  0
  146.3527  138.4496  154.9680 H   0  0  0  0  0  0  0  0  0  0  0  0
  148.3981  141.7153  155.8084 H   0  0  0  0  0  0  0  0  0  0  0  0
  149.6735  139.5128  157.0276 H   0  0  0  0  0  0  0  0  0  0  0  0
  150.5131  139.6592  155.4949 H   0  0  0  0  0  0  0  0  0  0  0  0
  152.8805  140.9374  159.8652 H   0  0  0  0  0  0  0  0  0  0  0  0
  153.2467  142.7178  161.5334 H   0  0  0  0  0  0  0  0  0  0  0  0
  152.5478  145.0558  161.0494 H   0  0  0  0  0  0  0  0  0  0  0  0
  151.4744  145.6040  158.8741 H   0  0  0  0  0  0  0  0  0  0  0  0
  151.0955  143.8499  157.1931 H   0  0  0  0  0  0  0  0  0  0  0  0
  147.7717  141.1397  153.6033 H   0  0  0  0  0  0  0  0  0  0  0  0
  149.9587  140.2062  152.7152 H   0  0  0  0  0  0  0  0  0  0  0  0
  149.1050  138.4294  153.7850 H   0  0  0  0  0  0  0  0  0  0  0  0
  147.8975  139.1901  151.9393 H   0  0  0  0  0  0  0  0  0  0  0  0
  1  2  1  0  0  0  0
  1 28  1  0  0  0  0
  1 29  1  0  0  0  0
  1 30  1  0  0  0  0
  2 25  1  0  0  0  0
  2  3  2  0  0  0  0
  3  4  1  0  0  0  0
  3 31  1  0  0  0  0
  4  5  1  0  0  0  0
  4 22  1  0  0  0  0
  5 20  1  0  0  0  0
  5  6  1  0  0  0  0
  5 32  1  0  0  0  0
  6  7  1  0  0  0  0
  7  8  1  0  0  0  0
  7 18  1  0  0  0  0
  7 33  1  0  0  0  0
  8  9  1  0  0  0  0
  8 34  1  0  0  0  0
  8 35  1  0  0  0  0
  9 10  1  0  0  0  0
 10 11  2  0  0  0  0
 10 12  1  0  0  0  0
 12 17  1  0  0  0  0
 12 13  2  0  0  0  0
 13 14  1  0  0  0  0
 13 36  1  0  0  0  0
 14 15  2  0  0  0  0
 14 37  1  0  0  0  0
 15 16  1  0  0  0  0
 15 38  1  0  0  0  0
 16 17  2  0  0  0  0
 16 39  1  0  0  0  0
 17 40  1  0  0  0  0
 18 19  1  0  0  0  0
 18 20  1  0  0  0  0
 18 41  1  0  0  0  0
 19 42  1  0  0  0  0
 20 21  1  0  0  0  0
 20 43  1  0  0  0  0
 21 44  1  0  0  0  0
 22 23  2  0  0  0  0
 22 24  1  0  0  0  0
 24 27  1  0  0  0  0
 24 25  1  0  0  0  0
 25 26  2  0  0  0  0
M  END
> <s_m_source_file>
AV-unprocessed.smi

> <i_m_source_file_index>
101

> <i_lp_mmshare_version>
43012

> <i_f3d_flags>
0

> <s_epik_input>
Tz1jMVtuSF1jKD1PKW4oW2NIXWMxW0NIM10pW0NAQEhdMk9bQ0BIXShbQ0BASF0oW09IXSlbQ0BIXTJbT0hdKVtDSDJdT0MoPU8pYzNbY0hdW2NIXVtjSF1bY0hdW2NIXTM=

> <s_epik_cmdline>
J2VwaWtfcHl0aG9uJywgJy1waCcsICc3LjAnLCAnLXRuJywgJzgnLCAnLW1hJywgJzIwMCcsICctbWV0YWxfYmluZGluZycsICctaW1hZScsICc8aW5maWxlLm1hZT4nLCAnLW9tYWUnLCAnPG91dGZpbGUubWFlPic=

> <r_lp_tautomer_probability>
0.999537

> <r_epik_Ionization_Penalty>
0.00263537

> <r_epik_Ionization_Penalty_Charging>
0.00263428

> <r_epik_Ionization_Penalty_Neutral>
1.09111e-06

> <r_epik_State_Penalty>
0.00183335

> <r_epik_Charging_Adjusted_Penalty>
0.00446763

> <i_epik_Tot_Q>
0

> <i_epik_Tot_abs_Q>
0

> <r_epik_Metal_State_Penalty>
1.00528

> <b_epik_Metal_Only>
0

> <s_epik_Chemistry_Notes>
This compound has an ester and may undergo hydrolysis at high or low pH. This compound contains an acetal/aminal-like group ( X-CH(R)-Y where X, Y are N, S, or O) that may be acid/base labile, releasing an aldehyde.

> <s_lp_Force_Field>
OPLS_2005

> <r_lp_Energy>
31.3632

> <b_lp_Chiralities_Consistent>
1

> <s_lp_Variant>
AV-unprocessed.smi:101-10

> <Gold.Version>
5.8.1

> <Gold.Id.Protein>
6NUR|6NUR_protein|mol2

> <Gold.PLP.Fitness>
48.7541

> <Gold.PLP.PLP>
-37.4222

> <Gold.PLP.part.hbond>
-5.5598

> <Gold.PLP.part.metal>
0.0000

> <Gold.PLP.part.buried>
-2.6191

> <Gold.PLP.part.nonpolar>
-27.0329

> <Gold.PLP.part.repulsive>
0.0702

> <Gold.PLP.ligand.clash>
0.0000

> <Gold.PLP.ligand.torsion>
1.5355

> <Gold.PLP.Chemscore.Hbond>
4.7381

> <Gold.PLP.Chemscore.CHOScore>
0.0000

> <Gold.PLP.Chemscore.Metal>
0.0000

> <Gold.Chemscore.Hbonds>
donor molecule, donor type, donor heavy atom, donor atom, acceptor molecule, acceptor atom, score
      L1  H    19    42       P1  7957  0.77
      L1  H    21    44       P1  7957  0.99
      P1  H  6896  6908       L1    26  1.00
      P1  H  7989  7998       L1    19  0.03
      P1  H  7997  8009       L1    11  0.99
      P1  H  8011  8017       L1    19  0.85

> <Gold.PLP.Chemscore.Internal.Correction>
0.1887

> <Gold.Rescore>
     Score         DG    S(hbond)    S(metal)    S(lipo)     H(rot)  DE(clash)    DE(int)     intcor
     19.09     -21.40       3.78        0.00     100.75       3.32       0.59       1.73       ----

> <Gold.Chemscore.Fitness>
19.0867

> <Gold.Chemscore.DG>
-21.4007

> <Gold.Chemscore.ZeroCoef>
-5.4800

> <Gold.Chemscore.Hbond>
3.7800

> <Gold.Chemscore.Metal>
0.0000

> <Gold.Chemscore.Lipo>
100.7493

> <Gold.Chemscore.Internal_Hbond>
0.0000

> <Gold.Chemscore.DEClash>
0.5874

> <Gold.Chemscore.DEInternal>
1.7266

> <Gold.Chemscore.Rot>
3.3172

> <Gold.Chemscore.Internal.Correction>
   9.000000E+99

> <Gold.Chemscore.Hbonds>
donor molecule, donor type, donor heavy atom, donor atom, acceptor molecule, acceptor atom, score
      L1  H    19    42       P1  7957  0.74
      L1  H    21    44       P1  7957  0.88
      P1  H  6896  6908       L1    26  0.98
      P1  H  7997  8009       L1    11  0.89
      P1  H  8011  8017       L1    19  0.13

> <Gold.Chemscore.Hbond.Weighted>
-12.6251

> <Gold.Chemscore.Metal.Weighted>
-0.0000

> <Gold.Chemscore.Lipo.Weighted>
-11.7877

> <Gold.Chemscore.Internal_Hbond.Weighted>
0.0000

> <Gold.Chemscore.DEClash.Weighted>
0.5874

> <Gold.Chemscore.DEInternal.Weighted>
1.7266

> <Gold.Chemscore.Rot.Weighted>
8.4920

> <Gold.Chemscore.Internal.Correction.Weighted>
   9.000000E+99

> <Gold.Protein.RotatedTorsions>
[ 6907 6896 6895 6894 ] final  128.32 input  -60.11 | X-H torsion
[ 7974 7965 7964 7962 ] final   73.79 input  175.53 | X-H torsion
[ 8008 7997 7996 7995 ] final  169.03 input   59.86 | X-H torsion
[ 10167 10162 10161 10158 ] final  108.62 input  -65.29 | X-H torsion
[ 10718 10713 10712 10709 ] final  165.40 input   66.30 | X-H torsion
[ 10763 10752 10751 10750 ] final  142.90 input  -60.55 | X-H torsion
[ 11005 11000 10999 10996 ] final  138.97 input  -57.11 | X-H torsion

> <Gold.Protein.ActiveResidues>
 VAL166  LYS551  ARG553  GLY616  TRP617  ASP618  TYR619  PRO620  LYS621  CYS622 
 ASP623  PHE694  ASN695  SER759  ASP760  ASP761  ALA762  ILE779  LEU786  VAL792 
 PHE793  MET794  SER795  GLU796  ALA797  LYS798  CYS799  TRP800  GLU811  SER814 

> <Gold.Protein.RotatedAtoms>
  152.3731  133.6445  159.6101 H   0  0  0  0  0  0  0  0  0  0  0  0  # atno 6907 bound_to 6896
  150.7683  133.9238  159.3415 H   0  0  0  0  0  0  0  0  0  0  0  0  # atno 6908 bound_to 6896
  151.7057  135.0923  160.0310 H   0  0  0  0  0  0  0  0  0  0  0  0  # atno 6909 bound_to 6896
  145.7365  139.2704  143.1511 H   0  0  0  0  0  0  0  0  0  0  0  0  # atno 7974 bound_to 7965
  156.1494  140.1575  156.8795 H   0  0  0  0  0  0  0  0  0  0  0  0  # atno 8008 bound_to 7997
  154.5057  140.0813  156.7926 H   0  0  0  0  0  0  0  0  0  0  0  0  # atno 8009 bound_to 7997
  155.3926  140.3410  155.4254 H   0  0  0  0  0  0  0  0  0  0  0  0  # atno 8010 bound_to 7997
  139.6832  144.7116  151.1479 H   0  0  0  0  0  0  0  0  0  0  0  0  # atno 10167 bound_to 10162
  157.0806  131.0391  151.2576 H   0  0  0  0  0  0  0  0  0  0  0  0  # atno 10718 bound_to 10713
  153.9635  135.2958  155.3432 H   0  0  0  0  0  0  0  0  0  0  0  0  # atno 10763 bound_to 10752
  154.7362  135.5045  153.9048 H   0  0  0  0  0  0  0  0  0  0  0  0  # atno 10764 bound_to 10752
  153.0935  135.6714  153.9919 H   0  0  0  0  0  0  0  0  0  0  0  0  # atno 10765 bound_to 10752
  140.0221  134.9392  157.0495 H   0  0  0  0  0  0  0  0  0  0  0  0  # atno 11005 bound_to 11000
  146.0488  140.8090  142.9792 LP  0  0  0  0  0  0  0  0  0  0  0  0  # atno 17320 bound_to 7965
  144.6880  140.3022  143.7261 LP  0  0  0  0  0  0  0  0  0  0  0  0  # atno 17321 bound_to 7965
  140.7659  143.5669  150.9038 LP  0  0  0  0  0  0  0  0  0  0  0  0  # atno 17342 bound_to 10162
  139.9342  143.6458  152.3069 LP  0  0  0  0  0  0  0  0  0  0  0  0  # atno 17343 bound_to 10162
  157.4803  130.7761  149.7408 LP  0  0  0  0  0  0  0  0  0  0  0  0  # atno 17370 bound_to 10713
  155.9924  130.3931  150.2941 LP  0  0  0  0  0  0  0  0  0  0  0  0  # atno 17371 bound_to 10713
  140.4369  134.1722  155.7171 LP  0  0  0  0  0  0  0  0  0  0  0  0  # atno 17394 bound_to 11000
  141.1780  133.8473  157.1355 LP  0  0  0  0  0  0  0  0  0  0  0  0  # atno 17395 bound_to 11000

$$$$
