AV-unprocessed.smi:1748|AV-procd|sdf|7039|dock6
  -GOLD-   22720 8253D 1   1.00000     0.00000
 Structure written by MMmdl.
 40 41  0  0  0  0  0  0  0  0  2 V2000
  144.5829  137.8159  154.6487 C   0  0  0  0  0  0  0  0  0  0  0  0
  145.3594  138.7044  153.7573 N   0  3  2  0  0  0  0  0  0  0  0  0
  146.0540  137.9559  152.6799 C   0  0  0  0  0  0  0  0  0  0  0  0
  146.7500  138.9158  151.7005 C   0  0  0  0  0  0  0  0  0  0  0  0
  147.7179  139.8511  152.4385 C   0  0  0  0  0  0  0  0  0  0  0  0
  146.9799  140.5937  153.5641 C   0  0  2  0  0  0  0  0  0  0  0  0
  147.9154  141.4388  154.3004 N   0  0  0  0  0  0  0  0  0  0  0  0
  148.8234  140.9965  155.1825 C   0  0  0  0  0  0  0  0  0  0  0  0
  148.9702  139.8052  155.4557 O   0  0  0  0  0  0  0  0  0  0  0  0
  149.5408  142.0160  155.6890 N   0  0  0  0  0  0  0  0  0  0  0  0
  150.5634  141.9876  156.6522 C   0  0  0  0  0  0  0  0  0  0  0  0
  150.7277  142.9100  157.6363 C   0  0  0  0  0  0  0  0  0  0  0  0
  151.8185  142.8315  158.5931 C   0  0  0  0  0  0  0  0  0  0  0  0
  151.9441  143.8305  159.7328 C   0  0  0  0  0  0  0  0  0  0  0  0
  152.7955  143.4024  160.6659 F   0  0  0  0  0  0  0  0  0  0  0  0
  152.3900  144.9960  159.2656 F   0  0  0  0  0  0  0  0  0  0  0  0
  150.7610  144.0418  160.3100 F   0  0  0  0  0  0  0  0  0  0  0  0
  152.6592  141.7887  158.4609 C   0  0  0  0  0  0  0  0  0  0  0  0
  152.5097  140.8480  157.4392 N   0  0  0  0  0  0  0  0  0  0  0  0
  151.5189  140.8754  156.5198 C   0  0  0  0  0  0  0  0  0  0  0  0
  151.4549  140.0088  155.6484 O   0  0  0  0  0  0  0  0  0  0  0  0
  146.2860  139.5884  154.5078 C   0  0  0  0  0  0  0  0  0  0  0  0
  153.1912  140.1040  157.3972 H   0  0  0  0  0  0  0  0  0  0  0  0
  145.2386  137.1259  155.1813 H   0  0  0  0  0  0  0  0  0  0  0  0
  143.8622  137.2308  154.0767 H   0  0  0  0  0  0  0  0  0  0  0  0
  144.0277  138.3981  155.3849 H   0  0  0  0  0  0  0  0  0  0  0  0
  146.7834  137.2739  153.1199 H   0  0  0  0  0  0  0  0  0  0  0  0
  145.3333  137.3425  152.1375 H   0  0  0  0  0  0  0  0  0  0  0  0
  147.2872  138.3483  150.9402 H   0  0  0  0  0  0  0  0  0  0  0  0
  146.0007  139.5075  151.1727 H   0  0  0  0  0  0  0  0  0  0  0  0
  148.5439  139.2701  152.8517 H   0  0  0  0  0  0  0  0  0  0  0  0
  148.1555  140.5622  151.7367 H   0  0  0  0  0  0  0  0  0  0  0  0
  146.2199  141.2307  153.1065 H   0  0  0  0  0  0  0  0  0  0  0  0
  147.8640  142.4330  154.1300 H   0  0  0  0  0  0  0  0  0  0  0  0
  149.3525  142.9318  155.3076 H   0  0  0  0  0  0  0  0  0  0  0  0
  150.0608  143.7521  157.7258 H   0  0  0  0  0  0  0  0  0  0  0  0
  153.4950  141.5927  159.1163 H   0  0  0  0  0  0  0  0  0  0  0  0
  145.7236  140.1255  155.2729 H   0  0  0  0  0  0  0  0  0  0  0  0
  147.0280  138.9803  155.0285 H   0  0  0  0  0  0  0  0  0  0  0  0
  144.6903  139.3099  153.3034 H   0  0  0  0  0  0  0  0  0  0  0  0
  1  2  1  0  0  0  0
  1 24  1  0  0  0  0
  1 25  1  0  0  0  0
  1 26  1  0  0  0  0
  2 22  1  0  0  0  0
  2  3  1  0  0  0  0
  2 40  1  0  0  0  0
  3  4  1  0  0  0  0
  3 27  1  0  0  0  0
  3 28  1  0  0  0  0
  4  5  1  0  0  0  0
  4 29  1  0  0  0  0
  4 30  1  0  0  0  0
  5  6  1  0  0  0  0
  5 31  1  0  0  0  0
  5 32  1  0  0  0  0
  6  7  1  0  0  0  0
  6 22  1  0  0  0  0
  6 33  1  0  0  0  0
  7  8  1  0  0  0  0
  7 34  1  0  0  0  0
  8  9  2  0  0  0  0
  8 10  1  0  0  0  0
 10 11  1  0  0  0  0
 10 35  1  0  0  0  0
 11 20  1  0  0  0  0
 11 12  2  0  0  0  0
 12 13  1  0  0  0  0
 12 36  1  0  0  0  0
 13 14  1  0  0  0  0
 13 18  2  0  0  0  0
 14 15  1  0  0  0  0
 14 16  1  0  0  0  0
 14 17  1  0  0  0  0
 18 19  1  0  0  0  0
 18 37  1  0  0  0  0
 19 23  1  0  0  0  0
 19 20  1  0  0  0  0
 20 21  2  0  0  0  0
 22 38  1  0  0  0  0
 22 39  1  0  0  0  0
M  CHG  1   2   1
M  END
> <s_m_source_file>
AV-unprocessed.smi

> <i_m_source_file_index>
1748

> <i_lp_mmshare_version>
43012

> <i_f3d_flags>
0

> <s_epik_input>
W0NIM11OMVtDSDJdW0NIMl1bQ0gyXVtDQEhdKFtDSDJdMSlbTkhdQyg9TylbTkhdYzJbY0hdYyhDKEYpKEYpRilbY0hdW25IXWMyPU8=

> <s_epik_cmdline>
J2VwaWtfcHl0aG9uJywgJy1waCcsICc3LjAnLCAnLXRuJywgJzgnLCAnLW1hJywgJzIwMCcsICctbWV0YWxfYmluZGluZycsICctaW1hZScsICc8aW5maWxlLm1hZT4nLCAnLW9tYWUnLCAnPG91dGZpbGUubWFlPic=

> <r_lp_tautomer_probability>
1

> <r_epik_Ionization_Penalty>
0.00746315

> <r_epik_Ionization_Penalty_Charging>
0.00744398

> <r_epik_Ionization_Penalty_Neutral>
1.91704e-05

> <r_epik_State_Penalty>
-0

> <r_epik_Charging_Adjusted_Penalty>
0.00744398

> <i_epik_Tot_Q>
1

> <i_epik_Tot_abs_Q>
1

> <r_epik_Metal_State_Penalty>
0.379332

> <b_epik_Metal_Only>
0

> <s_lp_Force_Field>
OPLS_2005

> <r_lp_Energy>
25.4307

> <b_lp_Chiralities_Consistent>
1

> <s_lp_Variant>
AV-unprocessed.smi:1748-4

> <Gold.Version>
5.8.1

> <Gold.Id.Protein>
6NUR|6NUR_protein|mol2

> <Gold.PLP.Fitness>
41.8848

> <Gold.PLP.PLP>
-35.9389

> <Gold.PLP.part.hbond>
-2.0000

> <Gold.PLP.part.metal>
0.0000

> <Gold.PLP.part.buried>
0.6004

> <Gold.PLP.part.nonpolar>
-34.8330

> <Gold.PLP.part.repulsive>
0.4020

> <Gold.PLP.ligand.clash>
0.5148

> <Gold.PLP.ligand.torsion>
0.9606

> <Gold.PLP.Chemscore.Hbond>
2.7840

> <Gold.PLP.Chemscore.CHOScore>
0.0000

> <Gold.PLP.Chemscore.Metal>
0.0000

> <Gold.Chemscore.Hbonds>
donor molecule, donor type, donor heavy atom, donor atom, acceptor molecule, acceptor atom, score
      L1  H     2    40       P1 10175  2.00
      L1  H    10    35       P1  8028  0.96
      P1  H  7989  7998       L1    21  0.29

> <Gold.PLP.Chemscore.Internal.Correction>
0.0298

> <Gold.Rescore>
     Score         DG    S(hbond)    S(metal)    S(lipo)     H(rot)  DE(clash)    DE(int)     intcor
     11.32     -21.77       2.68        0.00      84.58       1.00       4.92       5.53       ----

> <Gold.Chemscore.Fitness>
11.3231

> <Gold.Chemscore.DG>
-21.7746

> <Gold.Chemscore.ZeroCoef>
-5.4800

> <Gold.Chemscore.Hbond>
2.6823

> <Gold.Chemscore.Metal>
0.0000

> <Gold.Chemscore.Lipo>
84.5782

> <Gold.Chemscore.Internal_Hbond>
0.0000

> <Gold.Chemscore.DEClash>
4.9236

> <Gold.Chemscore.DEInternal>
5.5279

> <Gold.Chemscore.Rot>
1.0000

> <Gold.Chemscore.Internal.Correction>
   9.000000E+99

> <Gold.Chemscore.Hbonds>
donor molecule, donor type, donor heavy atom, donor atom, acceptor molecule, acceptor atom, score
      L1  H     2    40       P1 10175  1.00
      L1  H    10    35       P1  8028  0.92
      P1  H  7989  7998       L1    21  0.23

> <Gold.Chemscore.Hbond.Weighted>
-8.9590

> <Gold.Chemscore.Metal.Weighted>
-0.0000

> <Gold.Chemscore.Lipo.Weighted>
-9.8956

> <Gold.Chemscore.Internal_Hbond.Weighted>
0.0000

> <Gold.Chemscore.DEClash.Weighted>
4.9236

> <Gold.Chemscore.DEInternal.Weighted>
5.5279

> <Gold.Chemscore.Rot.Weighted>
2.5600

> <Gold.Chemscore.Internal.Correction.Weighted>
   9.000000E+99

> <Gold.Protein.RotatedTorsions>
[ 6907 6896 6895 6894 ] final   -5.98 input  -60.11 | X-H torsion
[ 7974 7965 7964 7962 ] final -126.11 input  175.53 | X-H torsion
[ 8008 7997 7996 7995 ] final  -50.28 input   59.86 | X-H torsion
[ 10167 10162 10161 10158 ] final   93.14 input  -65.29 | X-H torsion
[ 10718 10713 10712 10709 ] final -157.84 input   66.30 | X-H torsion
[ 10763 10752 10751 10750 ] final  -16.27 input  -60.55 | X-H torsion
[ 11005 11000 10999 10996 ] final -145.92 input  -57.11 | X-H torsion

> <Gold.Protein.ActiveResidues>
 VAL166  LYS551  ARG553  GLY616  TRP617  ASP618  TYR619  PRO620  LYS621  CYS622 
 ASP623  PHE694  ASN695  SER759  ASP760  ASP761  ALA762  ILE779  LEU786  VAL792 
 PHE793  MET794  SER795  GLU796  ALA797  LYS798  CYS799  TRP800  GLU811  SER814 

> <Gold.Protein.RotatedAtoms>
  151.4729  135.1047  159.9756 H   0  0  0  0  0  0  0  0  0  0  0  0  # atno 6907 bound_to 6896
  152.4809  133.8249  159.7083 H   0  0  0  0  0  0  0  0  0  0  0  0  # atno 6908 bound_to 6896
  150.8881  133.7219  159.2939 H   0  0  0  0  0  0  0  0  0  0  0  0  # atno 6909 bound_to 6896
  144.9906  140.7728  143.4556 H   0  0  0  0  0  0  0  0  0  0  0  0  # atno 7974 bound_to 7965
  154.4059  140.1276  156.4640 H   0  0  0  0  0  0  0  0  0  0  0  0  # atno 8008 bound_to 7997
  155.7245  140.3492  155.5011 H   0  0  0  0  0  0  0  0  0  0  0  0  # atno 8009 bound_to 7997
  155.9184  140.1048  157.1216 H   0  0  0  0  0  0  0  0  0  0  0  0  # atno 8010 bound_to 7997
  139.8208  144.6732  150.9521 H   0  0  0  0  0  0  0  0  0  0  0  0  # atno 10167 bound_to 10162
  156.5459  130.8584  151.2764 H   0  0  0  0  0  0  0  0  0  0  0  0  # atno 10718 bound_to 10713
  153.5560  135.7010  153.5569 H   0  0  0  0  0  0  0  0  0  0  0  0  # atno 10763 bound_to 10752
  153.3472  135.4005  155.1618 H   0  0  0  0  0  0  0  0  0  0  0  0  # atno 10764 bound_to 10752
  154.8654  135.3756  154.5075 H   0  0  0  0  0  0  0  0  0  0  0  0  # atno 10765 bound_to 10752
  140.7873  134.3009  157.5025 H   0  0  0  0  0  0  0  0  0  0  0  0  # atno 11005 bound_to 11000
  145.2291  139.2123  143.5052 LP  0  0  0  0  0  0  0  0  0  0  0  0  # atno 17320 bound_to 7965
  146.3430  140.2164  142.8591 LP  0  0  0  0  0  0  0  0  0  0  0  0  # atno 17321 bound_to 7965
  140.7813  143.4093  151.1019 LP  0  0  0  0  0  0  0  0  0  0  0  0  # atno 17342 bound_to 10162
  139.7754  143.8433  152.3128 LP  0  0  0  0  0  0  0  0  0  0  0  0  # atno 17343 bound_to 10162
  157.7397  130.9836  150.2328 LP  0  0  0  0  0  0  0  0  0  0  0  0  # atno 17370 bound_to 10713
  156.2929  130.3748  149.7824 LP  0  0  0  0  0  0  0  0  0  0  0  0  # atno 17371 bound_to 10713
  139.8735  134.9354  156.3632 LP  0  0  0  0  0  0  0  0  0  0  0  0  # atno 17394 bound_to 11000
  140.9424  133.7505  156.0164 LP  0  0  0  0  0  0  0  0  0  0  0  0  # atno 17395 bound_to 11000

$$$$
