AV-unprocessed.smi:99|AV-procd|sdf|866|dock4
  -GOLD-   2262017313D 1   1.00000     0.00000
 Structure written by MMmdl.
 53 56  0  0  0  0  0  0  0  0  1 V2000
  146.9727  137.6794  160.1288 O   0  0  0  0  0  0  0  0  0  0  0  0
  147.7085  136.7526  160.4737 C   0  0  0  0  0  0  0  0  0  0  0  0
  149.0411  136.7464  160.2791 O   0  0  0  0  0  0  0  0  0  0  0  0
  149.6539  137.7951  159.5489 C   0  0  0  0  0  0  0  0  0  0  0  0
  151.1236  137.4286  159.2765 C   0  0  1  0  0  0  0  0  0  0  0  0
  151.1940  136.1667  158.6113 O   0  0  0  0  0  0  0  0  0  0  0  0
  151.3602  136.3196  157.2268 C   0  0  1  0  0  0  0  0  0  0  0  0
  150.2267  135.6266  156.4956 N   0  0  0  0  0  0  0  0  0  0  0  0
  149.2104  134.9486  157.1588 C   0  0  0  0  0  0  0  0  0  0  0  0
  148.1955  134.3258  156.5142 C   0  0  0  0  0  0  0  0  0  0  0  0
  148.1252  134.3368  155.0569 C   0  0  0  0  0  0  0  0  0  0  0  0
  147.2458  133.8014  154.3856 O   0  0  0  0  0  0  0  0  0  0  0  0
  149.1685  135.0246  154.4309 N   0  0  0  0  0  0  0  0  0  0  0  0
  150.2191  135.6703  155.0844 C   0  0  0  0  0  0  0  0  0  0  0  0
  151.0889  136.2496  154.4345 O   0  0  0  0  0  0  0  0  0  0  0  0
  151.4472  137.8342  156.9312 C   0  0  1  0  0  0  0  0  0  0  0  0
  150.2203  138.3861  156.4776 O   0  0  0  0  0  0  0  0  0  0  0  0
  151.8396  138.3636  158.3031 C   0  0  1  0  0  0  0  0  0  0  0  0
  151.5623  139.7460  158.5005 O   0  0  0  0  0  0  0  0  0  0  0  0
  152.5495  140.6208  158.7857 C   0  0  0  0  0  0  0  0  0  0  0  0
  153.7270  140.2943  158.9471 O   0  0  0  0  0  0  0  0  0  0  0  0
  152.0633  142.0275  158.8773 C   0  0  0  0  0  0  0  0  0  0  0  0
  152.9563  143.0452  159.2864 C   0  0  0  0  0  0  0  0  0  0  0  0
  152.5253  144.3830  159.3786 C   0  0  0  0  0  0  0  0  0  0  0  0
  151.1965  144.7195  159.0613 C   0  0  0  0  0  0  0  0  0  0  0  0
  150.2984  143.7163  158.6528 C   0  0  0  0  0  0  0  0  0  0  0  0
  150.7269  142.3778  158.5616 C   0  0  0  0  0  0  0  0  0  0  0  0
  147.2163  135.5194  161.1524 C   0  0  0  0  0  0  0  0  0  0  0  0
  146.0409  135.5822  161.9370 C   0  0  0  0  0  0  0  0  0  0  0  0
  145.5516  134.4335  162.5887 C   0  0  0  0  0  0  0  0  0  0  0  0
  146.2309  133.2078  162.4626 C   0  0  0  0  0  0  0  0  0  0  0  0
  147.4001  133.1318  161.6835 C   0  0  0  0  0  0  0  0  0  0  0  0
  147.8914  134.2796  161.0314 C   0  0  0  0  0  0  0  0  0  0  0  0
  149.1609  135.0572  153.4218 H   0  0  0  0  0  0  0  0  0  0  0  0
  149.1120  137.9744  158.6205 H   0  0  0  0  0  0  0  0  0  0  0  0
  149.5986  138.7097  160.1407 H   0  0  0  0  0  0  0  0  0  0  0  0
  151.6664  137.3848  160.2214 H   0  0  0  0  0  0  0  0  0  0  0  0
  152.2660  135.7775  156.9470 H   0  0  0  0  0  0  0  0  0  0  0  0
  149.2044  134.8972  158.2361 H   0  0  0  0  0  0  0  0  0  0  0  0
  147.4311  133.8142  157.0810 H   0  0  0  0  0  0  0  0  0  0  0  0
  152.2167  138.0244  156.1825 H   0  0  0  0  0  0  0  0  0  0  0  0
  149.7530  138.7321  157.2225 H   0  0  0  0  0  0  0  0  0  0  0  0
  152.9089  138.1901  158.4377 H   0  0  0  0  0  0  0  0  0  0  0  0
  153.9819  142.8111  159.5341 H   0  0  0  0  0  0  0  0  0  0  0  0
  153.2160  145.1518  159.6924 H   0  0  0  0  0  0  0  0  0  0  0  0
  150.8668  145.7456  159.1308 H   0  0  0  0  0  0  0  0  0  0  0  0
  149.2781  143.9729  158.4079 H   0  0  0  0  0  0  0  0  0  0  0  0
  150.0113  141.6335  158.2439 H   0  0  0  0  0  0  0  0  0  0  0  0
  145.5026  136.5126  162.0488 H   0  0  0  0  0  0  0  0  0  0  0  0
  144.6540  134.4942  163.1866 H   0  0  0  0  0  0  0  0  0  0  0  0
  145.8558  132.3273  162.9629 H   0  0  0  0  0  0  0  0  0  0  0  0
  147.9221  132.1913  161.5853 H   0  0  0  0  0  0  0  0  0  0  0  0
  148.7900  134.1857  160.4391 H   0  0  0  0  0  0  0  0  0  0  0  0
  1  2  2  0  0  0  0
  2  3  1  0  0  0  0
  2 28  1  0  0  0  0
  3  4  1  0  0  0  0
  4  5  1  0  0  0  0
  4 35  1  0  0  0  0
  4 36  1  0  0  0  0
  5 18  1  0  0  0  0
  5  6  1  0  0  0  0
  5 37  1  0  0  0  0
  6  7  1  0  0  0  0
  7  8  1  0  0  0  0
  7 16  1  0  0  0  0
  7 38  1  0  0  0  0
  8 14  1  0  0  0  0
  8  9  1  0  0  0  0
  9 10  2  0  0  0  0
  9 39  1  0  0  0  0
 10 11  1  0  0  0  0
 10 40  1  0  0  0  0
 11 12  2  0  0  0  0
 11 13  1  0  0  0  0
 13 34  1  0  0  0  0
 13 14  1  0  0  0  0
 14 15  2  0  0  0  0
 16 17  1  0  0  0  0
 16 18  1  0  0  0  0
 16 41  1  0  0  0  0
 17 42  1  0  0  0  0
 18 19  1  0  0  0  0
 18 43  1  0  0  0  0
 19 20  1  0  0  0  0
 20 21  2  0  0  0  0
 20 22  1  0  0  0  0
 22 27  1  0  0  0  0
 22 23  2  0  0  0  0
 23 24  1  0  0  0  0
 23 44  1  0  0  0  0
 24 25  2  0  0  0  0
 24 45  1  0  0  0  0
 25 26  1  0  0  0  0
 25 46  1  0  0  0  0
 26 27  2  0  0  0  0
 26 47  1  0  0  0  0
 27 48  1  0  0  0  0
 28 33  1  0  0  0  0
 28 29  2  0  0  0  0
 29 30  1  0  0  0  0
 29 49  1  0  0  0  0
 30 31  2  0  0  0  0
 30 50  1  0  0  0  0
 31 32  1  0  0  0  0
 31 51  1  0  0  0  0
 32 33  2  0  0  0  0
 32 52  1  0  0  0  0
 33 53  1  0  0  0  0
M  END
> <s_m_source_file>
AV-unprocessed.smi

> <i_m_source_file_index>
99

> <i_lp_mmshare_version>
43012

> <i_f3d_flags>
0

> <s_epik_input>
W2NIXTFbY0hdW2NIXVtjSF1bY0hdYzFDKD1PKU9bQ0gyXVtDQEBIXTJPW0NAQEhdKG4zW2NIXVtjSF1jKD1PKVtuSF1jMz1PKVtDQEBIXShbT0hdKVtDQEhdMk9DKD1PKWM0W2NIXVtjSF1bY0hdW2NIXVtjSF00

> <s_epik_cmdline>
J2VwaWtfcHl0aG9uJywgJy1waCcsICc3LjAnLCAnLXRuJywgJzgnLCAnLW1hJywgJzIwMCcsICctbWV0YWxfYmluZGluZycsICctaW1hZScsICc8aW5maWxlLm1hZT4nLCAnLW9tYWUnLCAnPG91dGZpbGUubWFlPic=

> <r_lp_tautomer_probability>
1

> <r_epik_Ionization_Penalty>
0.00454555

> <r_epik_Ionization_Penalty_Charging>
0.0045191

> <r_epik_Ionization_Penalty_Neutral>
2.64449e-05

> <r_epik_State_Penalty>
-0

> <r_epik_Charging_Adjusted_Penalty>
0.0045191

> <i_epik_Tot_Q>
0

> <i_epik_Tot_abs_Q>
0

> <r_epik_Metal_State_Penalty>
1.27877

> <b_epik_Metal_Only>
0

> <s_epik_Chemistry_Notes>
This compound has an ester and may undergo hydrolysis at high or low pH. This compound contains an acetal/aminal-like group ( X-CH(R)-Y where X, Y are N, S, or O) that may be acid/base labile, releasing an aldehyde.

> <s_lp_Force_Field>
OPLS_2005

> <r_lp_Energy>
46.8901

> <b_lp_Chiralities_Consistent>
1

> <s_lp_Variant>
AV-unprocessed.smi:99-2

> <Gold.Version>
5.8.1

> <Gold.Id.Protein>
6NUR|6NUR_protein|mol2

> <Gold.PLP.Fitness>
54.8679

> <Gold.PLP.PLP>
-44.0601

> <Gold.PLP.part.hbond>
-5.8016

> <Gold.PLP.part.metal>
0.0000

> <Gold.PLP.part.buried>
-4.4319

> <Gold.PLP.part.nonpolar>
-37.4502

> <Gold.PLP.part.repulsive>
1.7421

> <Gold.PLP.ligand.clash>
0.0000

> <Gold.PLP.ligand.torsion>
1.1759

> <Gold.PLP.Chemscore.Hbond>
4.2928

> <Gold.PLP.Chemscore.CHOScore>
0.0000

> <Gold.PLP.Chemscore.Metal>
0.0000

> <Gold.Chemscore.Hbonds>
donor molecule, donor type, donor heavy atom, donor atom, acceptor molecule, acceptor atom, score
      L1  H    13    34       P1  7948  0.82
      P1  H  6896  6909       L1     6  0.56
      P1  H  6934  6947       L1     1  1.00
      P1  H  7997  8008       L1    21  0.84
      P1  H 10752 10764       L1    15  1.00

> <Gold.PLP.Chemscore.Internal.Correction>
0.2812

> <Gold.Rescore>
     Score         DG    S(hbond)    S(metal)    S(lipo)     H(rot)  DE(clash)    DE(int)     intcor
     18.81     -22.35       3.07        0.00     126.23       3.19       2.23       1.30       ----

> <Gold.Chemscore.Fitness>
18.8115

> <Gold.Chemscore.DG>
-22.3488

> <Gold.Chemscore.ZeroCoef>
-5.4800

> <Gold.Chemscore.Hbond>
3.0739

> <Gold.Chemscore.Metal>
0.0000

> <Gold.Chemscore.Lipo>
126.2301

> <Gold.Chemscore.Internal_Hbond>
0.0000

> <Gold.Chemscore.DEClash>
2.2335

> <Gold.Chemscore.DEInternal>
1.3038

> <Gold.Chemscore.Rot>
3.1903

> <Gold.Chemscore.Internal.Correction>
   9.000000E+99

> <Gold.Chemscore.Hbonds>
donor molecule, donor type, donor heavy atom, donor atom, acceptor molecule, acceptor atom, score
      L1  H    13    34       P1  7948  0.16
      P1  H  6896  6909       L1     6  0.39
      P1  H  6934  6947       L1     1  0.88
      P1  H  7997  8008       L1    21  0.70
      P1  H 10752 10764       L1    15  0.99

> <Gold.Chemscore.Hbond.Weighted>
-10.2670

> <Gold.Chemscore.Metal.Weighted>
-0.0000

> <Gold.Chemscore.Lipo.Weighted>
-14.7689

> <Gold.Chemscore.Internal_Hbond.Weighted>
0.0000

> <Gold.Chemscore.DEClash.Weighted>
2.2335

> <Gold.Chemscore.DEInternal.Weighted>
1.3038

> <Gold.Chemscore.Rot.Weighted>
8.1671

> <Gold.Chemscore.Internal.Correction.Weighted>
   9.000000E+99

> <Gold.Protein.RotatedTorsions>
[ 6907 6896 6895 6894 ] final   76.70 input  -60.11 | X-H torsion
[ 7974 7965 7964 7962 ] final -152.31 input  175.53 | X-H torsion
[ 8008 7997 7996 7995 ] final -100.22 input   59.86 | X-H torsion
[ 10167 10162 10161 10158 ] final   95.33 input  -65.29 | X-H torsion
[ 10718 10713 10712 10709 ] final -103.60 input   66.30 | X-H torsion
[ 10763 10752 10751 10750 ] final  -77.90 input  -60.55 | X-H torsion
[ 11005 11000 10999 10996 ] final   22.97 input  -57.11 | X-H torsion

> <Gold.Protein.ActiveResidues>
 VAL166  LYS551  ARG553  GLY616  TRP617  ASP618  TYR619  PRO620  LYS621  CYS622 
 ASP623  PHE694  ASN695  SER759  ASP760  ASP761  ALA762  ILE779  LEU786  VAL792 
 PHE793  MET794  SER795  GLU796  ALA797  LYS798  CYS799  TRP800  GLU811  SER814 

> <Gold.Protein.RotatedAtoms>
  152.5085  134.3929  159.9389 H   0  0  0  0  0  0  0  0  0  0  0  0  # atno 6907 bound_to 6896
  151.3889  133.3789  159.2726 H   0  0  0  0  0  0  0  0  0  0  0  0  # atno 6908 bound_to 6896
  150.9447  134.8874  159.7693 H   0  0  0  0  0  0  0  0  0  0  0  0  # atno 6909 bound_to 6896
  144.7801  140.4679  143.5845 H   0  0  0  0  0  0  0  0  0  0  0  0  # atno 7974 bound_to 7965
  154.8256  140.0442  157.1441 H   0  0  0  0  0  0  0  0  0  0  0  0  # atno 8008 bound_to 7997
  154.9210  140.3027  155.5196 H   0  0  0  0  0  0  0  0  0  0  0  0  # atno 8009 bound_to 7997
  156.2983  140.2340  156.4260 H   0  0  0  0  0  0  0  0  0  0  0  0  # atno 8010 bound_to 7997
  139.7999  144.6818  150.9779 H   0  0  0  0  0  0  0  0  0  0  0  0  # atno 10167 bound_to 10162
  156.0272  130.5475  150.7277 H   0  0  0  0  0  0  0  0  0  0  0  0  # atno 10718 bound_to 10713
  154.5190  135.5748  153.6665 H   0  0  0  0  0  0  0  0  0  0  0  0  # atno 10763 bound_to 10752
  152.9913  135.6177  154.2779 H   0  0  0  0  0  0  0  0  0  0  0  0  # atno 10764 bound_to 10752
  154.2699  135.2853  155.2722 H   0  0  0  0  0  0  0  0  0  0  0  0  # atno 10765 bound_to 10752
  140.3747  134.1985  155.7665 H   0  0  0  0  0  0  0  0  0  0  0  0  # atno 11005 bound_to 11000
  145.6074  139.1510  143.3095 LP  0  0  0  0  0  0  0  0  0  0  0  0  # atno 17320 bound_to 7965
  146.2004  140.6192  142.9105 LP  0  0  0  0  0  0  0  0  0  0  0  0  # atno 17321 bound_to 7965
  140.7820  143.4293  151.0720 LP  0  0  0  0  0  0  0  0  0  0  0  0  # atno 17342 bound_to 10162
  139.7965  143.8144  152.3158 LP  0  0  0  0  0  0  0  0  0  0  0  0  # atno 17343 bound_to 10162
  157.4877  131.0908  151.0463 LP  0  0  0  0  0  0  0  0  0  0  0  0  # atno 17370 bound_to 10713
  157.0879  130.5930  149.5433 LP  0  0  0  0  0  0  0  0  0  0  0  0  # atno 17371 bound_to 10713
  141.1943  133.8131  157.0763 LP  0  0  0  0  0  0  0  0  0  0  0  0  # atno 17394 bound_to 11000
  140.0524  134.9798  157.1161 LP  0  0  0  0  0  0  0  0  0  0  0  0  # atno 17395 bound_to 11000

$$$$
