AV-unprocessed.smi:251|AV-procd|sdf|1935|dock10
  -GOLD-   2262021 53D 1   1.00000     0.00000
 Structure written by MMmdl.
 50 54  0  0  0  0  0  0  0  0  1 V2000
  153.4619  136.7392  165.3767 O   0  0  0  0  0  0  0  0  0  0  0  0
  154.2234  137.0293  164.2216 C   0  0  0  0  0  0  0  0  0  0  0  0
  155.5990  137.6589  164.5663 C   0  0  0  0  0  0  0  0  0  0  0  0
  156.2688  138.2535  163.2857 C   0  0  0  0  0  0  0  0  0  0  0  0
  155.3736  138.9954  162.4075 N   0  0  0  0  0  0  0  0  0  0  0  0
  155.2730  140.3641  162.3058 C   0  0  0  0  0  0  0  0  0  0  0  0
  154.3962  140.7953  161.4429 N   0  0  0  0  0  0  0  0  0  0  0  0
  153.8647  139.6399  160.8805 C   0  0  0  0  0  0  0  0  0  0  0  0
  152.8792  139.3729  159.8828 C   0  0  0  0  0  0  0  0  0  0  0  0
  152.1804  140.3269  159.2130 N   0  0  0  0  0  0  0  0  0  0  0  0
  152.0122  140.2724  157.7615 C   0  0  0  0  0  0  0  0  0  0  0  0
  151.3937  141.5952  157.3807 C   0  0  1  0  0  0  0  0  0  0  0  0
  150.0998  142.0812  158.0027 C   0  0  0  0  0  0  0  0  0  0  0  0
  151.4384  142.4865  158.5832 C   0  0  2  0  0  0  0  0  0  0  0  0
  151.8978  143.9378  158.5351 C   0  0  0  0  0  0  0  0  0  0  0  0
  151.6246  144.4540  157.3374 F   0  0  0  0  0  0  0  0  0  0  0  0
  151.2706  144.6523  159.4698 F   0  0  0  0  0  0  0  0  0  0  0  0
  153.2107  144.0311  158.7478 F   0  0  0  0  0  0  0  0  0  0  0  0
  152.0496  141.6905  159.7180 C   0  0  0  0  0  0  0  0  0  0  0  0
  152.6211  138.0680  159.6013 N   0  0  0  0  0  0  0  0  0  0  0  0
  153.2805  137.0924  160.2311 C   0  0  0  0  0  0  0  0  0  0  0  0
  154.2202  137.1945  161.1708 N   0  0  0  0  0  0  0  0  0  0  0  0
  154.4789  138.4981  161.4738 C   0  0  0  0  0  0  0  0  0  0  0  0
  155.3628  138.7342  165.6574 C   0  0  0  0  0  0  0  0  0  0  0  0
  156.6741  139.2367  166.2863 C   0  0  0  0  0  0  0  0  0  0  0  0
  157.3859  138.1413  166.8465 O   0  0  0  0  0  0  0  0  0  0  0  0
  157.7647  137.1739  165.8755 C   0  0  0  0  0  0  0  0  0  0  0  0
  156.5146  136.5803  165.1984 C   0  0  0  0  0  0  0  0  0  0  0  0
  153.8984  137.1136  166.1266 H   0  0  0  0  0  0  0  0  0  0  0  0
  154.3451  136.1148  163.6409 H   0  0  0  0  0  0  0  0  0  0  0  0
  153.6351  137.7063  163.6012 H   0  0  0  0  0  0  0  0  0  0  0  0
  157.0848  138.9248  163.5487 H   0  0  0  0  0  0  0  0  0  0  0  0
  156.7338  137.4594  162.7007 H   0  0  0  0  0  0  0  0  0  0  0  0
  155.8677  141.0400  162.9023 H   0  0  0  0  0  0  0  0  0  0  0  0
  152.9773  140.1618  157.2656 H   0  0  0  0  0  0  0  0  0  0  0  0
  151.3608  139.4501  157.4639 H   0  0  0  0  0  0  0  0  0  0  0  0
  151.6638  142.0026  156.4087 H   0  0  0  0  0  0  0  0  0  0  0  0
  149.5297  142.8264  157.4522 H   0  0  0  0  0  0  0  0  0  0  0  0
  149.5019  141.3632  158.5608 H   0  0  0  0  0  0  0  0  0  0  0  0
  151.3966  141.7305  160.5899 H   0  0  0  0  0  0  0  0  0  0  0  0
  153.0278  142.0904  159.9864 H   0  0  0  0  0  0  0  0  0  0  0  0
  153.0154  136.0862  159.9423 H   0  0  0  0  0  0  0  0  0  0  0  0
  154.7824  139.5713  165.2711 H   0  0  0  0  0  0  0  0  0  0  0  0
  154.7552  138.3095  166.4576 H   0  0  0  0  0  0  0  0  0  0  0  0
  157.2966  139.7595  165.5599 H   0  0  0  0  0  0  0  0  0  0  0  0
  156.4544  139.9504  167.0803 H   0  0  0  0  0  0  0  0  0  0  0  0
  158.4443  137.6179  165.1479 H   0  0  0  0  0  0  0  0  0  0  0  0
  158.3233  136.3832  166.3763 H   0  0  0  0  0  0  0  0  0  0  0  0
  155.9544  136.0246  165.9518 H   0  0  0  0  0  0  0  0  0  0  0  0
  156.8187  135.8483  164.4493 H   0  0  0  0  0  0  0  0  0  0  0  0
  1  2  1  0  0  0  0
  1 29  1  0  0  0  0
  2  3  1  0  0  0  0
  2 30  1  0  0  0  0
  2 31  1  0  0  0  0
  3 28  1  0  0  0  0
  3  4  1  0  0  0  0
  3 24  1  0  0  0  0
  4  5  1  0  0  0  0
  4 32  1  0  0  0  0
  4 33  1  0  0  0  0
  5 23  1  0  0  0  0
  5  6  1  0  0  0  0
  6  7  2  0  0  0  0
  6 34  1  0  0  0  0
  7  8  1  0  0  0  0
  8 23  2  0  0  0  0
  8  9  1  0  0  0  0
  9 10  1  0  0  0  0
  9 20  2  0  0  0  0
 10 19  1  0  0  0  0
 10 11  1  0  0  0  0
 11 12  1  0  0  0  0
 11 35  1  0  0  0  0
 11 36  1  0  0  0  0
 12 14  1  0  0  0  0
 12 13  1  0  0  0  0
 12 37  1  0  0  0  0
 13 14  1  0  0  0  0
 13 38  1  0  0  0  0
 13 39  1  0  0  0  0
 14 15  1  0  0  0  0
 14 19  1  0  0  0  0
 15 16  1  0  0  0  0
 15 17  1  0  0  0  0
 15 18  1  0  0  0  0
 19 40  1  0  0  0  0
 19 41  1  0  0  0  0
 20 21  1  0  0  0  0
 21 22  2  0  0  0  0
 21 42  1  0  0  0  0
 22 23  1  0  0  0  0
 24 25  1  0  0  0  0
 24 43  1  0  0  0  0
 24 44  1  0  0  0  0
 25 26  1  0  0  0  0
 25 45  1  0  0  0  0
 25 46  1  0  0  0  0
 26 27  1  0  0  0  0
 27 28  1  0  0  0  0
 27 47  1  0  0  0  0
 27 48  1  0  0  0  0
 28 49  1  0  0  0  0
 28 50  1  0  0  0  0
M  END
> <s_m_source_file>
AV-unprocessed.smi

> <i_m_source_file_index>
251

> <i_lp_mmshare_version>
43012

> <i_f3d_flags>
0

> <s_epik_input>
W0NIMl0xW0NIMl1PW0NIMl1bQ0gyXUMxKFtDSDJdW09IXSlbQ0gyXW4oW2NIXW4yKWMoYzIzKW5bY0hdbmMzTihbQ0gyXTQpW0NIMl1bQ0BIXShbQ0gyXTUpW0NAQF00NUMoRikoRilG

> <s_epik_cmdline>
J2VwaWtfcHl0aG9uJywgJy1waCcsICc3LjAnLCAnLXRuJywgJzgnLCAnLW1hJywgJzIwMCcsICctbWV0YWxfYmluZGluZycsICctaW1hZScsICc8aW5maWxlLm1hZT4nLCAnLW9tYWUnLCAnPG91dGZpbGUubWFlPic=

> <r_lp_tautomer_probability>
1

> <r_epik_Ionization_Penalty>
0.00226625

> <r_epik_Ionization_Penalty_Charging>
0

> <r_epik_Ionization_Penalty_Neutral>
0.00226625

> <r_epik_State_Penalty>
0.00138204

> <r_epik_Charging_Adjusted_Penalty>
0.00138204

> <i_epik_Tot_Q>
0

> <i_epik_Tot_abs_Q>
0

> <r_epik_Metal_State_Penalty>
-0

> <b_epik_Metal_Only>
0

> <s_lp_Force_Field>
OPLS_2005

> <r_lp_Energy>
66.9276

> <b_lp_Chiralities_Consistent>
1

> <s_lp_Variant>
AV-unprocessed.smi:251-2

> <Gold.Version>
5.8.1

> <Gold.Id.Protein>
6NUR|6NUR_protein|mol2

> <Gold.PLP.Fitness>
47.3175

> <Gold.PLP.PLP>
-49.6972

> <Gold.PLP.part.hbond>
-2.6940

> <Gold.PLP.part.metal>
0.0000

> <Gold.PLP.part.buried>
-6.0848

> <Gold.PLP.part.nonpolar>
-39.7990

> <Gold.PLP.part.repulsive>
0.0527

> <Gold.PLP.ligand.clash>
0.0000

> <Gold.PLP.ligand.torsion>
2.0668

> <Gold.PLP.Chemscore.Hbond>
0.0000

> <Gold.PLP.Chemscore.CHOScore>
0.0000

> <Gold.PLP.Chemscore.Metal>
0.0000

> <Gold.PLP.Chemscore.Internal.Correction>
1.7540

> <Gold.Rescore>
     Score         DG    S(hbond)    S(metal)    S(lipo)     H(rot)  DE(clash)    DE(int)     intcor
      5.00      -9.48       0.00        0.00      83.11       2.23       0.70       3.79       ----

> <Gold.Chemscore.Fitness>
5.0014

> <Gold.Chemscore.DG>
-9.4841

> <Gold.Chemscore.ZeroCoef>
-5.4800

> <Gold.Chemscore.Hbond>
0.0000

> <Gold.Chemscore.Metal>
0.0000

> <Gold.Chemscore.Lipo>
83.1122

> <Gold.Chemscore.Internal_Hbond>
0.0000

> <Gold.Chemscore.DEClash>
0.6965

> <Gold.Chemscore.DEInternal>
3.7862

> <Gold.Chemscore.Rot>
2.2344

> <Gold.Chemscore.Internal.Correction>
   9.000000E+99

> <Gold.Chemscore.Hbond.Weighted>
-0.0000

> <Gold.Chemscore.Metal.Weighted>
-0.0000

> <Gold.Chemscore.Lipo.Weighted>
-9.7241

> <Gold.Chemscore.Internal_Hbond.Weighted>
0.0000

> <Gold.Chemscore.DEClash.Weighted>
0.6965

> <Gold.Chemscore.DEInternal.Weighted>
3.7862

> <Gold.Chemscore.Rot.Weighted>
5.7200

> <Gold.Chemscore.Internal.Correction.Weighted>
   9.000000E+99

> <Gold.Protein.RotatedTorsions>
[ 6907 6896 6895 6894 ] final   26.21 input  -60.11 | X-H torsion
[ 7974 7965 7964 7962 ] final  163.95 input  175.53 | X-H torsion
[ 8008 7997 7996 7995 ] final  126.00 input   59.86 | X-H torsion
[ 10167 10162 10161 10158 ] final   25.55 input  -65.29 | X-H torsion
[ 10718 10713 10712 10709 ] final  -44.16 input   66.30 | X-H torsion
[ 10763 10752 10751 10750 ] final -144.05 input  -60.55 | X-H torsion
[ 11005 11000 10999 10996 ] final  121.05 input  -57.11 | X-H torsion

> <Gold.Protein.ActiveResidues>
 VAL166  LYS551  ARG553  GLY616  TRP617  ASP618  TYR619  PRO620  LYS621  CYS622 
 ASP623  PHE694  ASN695  SER759  ASP760  ASP761  ALA762  ILE779  LEU786  VAL792 
 PHE793  MET794  SER795  GLU796  ALA797  LYS798  CYS799  TRP800  GLU811  SER814 

> <Gold.Protein.RotatedAtoms>
  151.9840  135.0014  160.0558 H   0  0  0  0  0  0  0  0  0  0  0  0  # atno 6907 bound_to 6896
  152.1670  133.4614  159.4898 H   0  0  0  0  0  0  0  0  0  0  0  0  # atno 6908 bound_to 6896
  150.6896  134.1918  159.4331 H   0  0  0  0  0  0  0  0  0  0  0  0  # atno 6909 bound_to 6896
  144.7566  139.8257  143.6347 H   0  0  0  0  0  0  0  0  0  0  0  0  # atno 7974 bound_to 7965
  156.2851  140.2703  156.2040 H   0  0  0  0  0  0  0  0  0  0  0  0  # atno 8008 bound_to 7997
  155.0332  140.0386  157.2500 H   0  0  0  0  0  0  0  0  0  0  0  0  # atno 8009 bound_to 7997
  154.7337  140.2711  155.6439 H   0  0  0  0  0  0  0  0  0  0  0  0  # atno 8010 bound_to 7997
  140.5097  144.0181  150.6367 H   0  0  0  0  0  0  0  0  0  0  0  0  # atno 10167 bound_to 10162
  156.2414  130.4180  149.8756 H   0  0  0  0  0  0  0  0  0  0  0  0  # atno 10718 bound_to 10713
  154.8445  135.3451  154.6284 H   0  0  0  0  0  0  0  0  0  0  0  0  # atno 10763 bound_to 10752
  153.6893  135.6976  153.5099 H   0  0  0  0  0  0  0  0  0  0  0  0  # atno 10764 bound_to 10752
  153.2607  135.4324  155.0846 H   0  0  0  0  0  0  0  0  0  0  0  0  # atno 10765 bound_to 10752
  139.9210  134.9637  156.7899 H   0  0  0  0  0  0  0  0  0  0  0  0  # atno 11005 bound_to 11000
  146.1584  139.4689  143.0004 LP  0  0  0  0  0  0  0  0  0  0  0  0  # atno 17320 bound_to 7965
  145.6757  141.0204  143.1633 LP  0  0  0  0  0  0  0  0  0  0  0  0  # atno 17321 bound_to 7965
  140.3500  143.2969  152.0497 LP  0  0  0  0  0  0  0  0  0  0  0  0  # atno 17342 bound_to 10162
  139.4893  144.6381  151.6934 LP  0  0  0  0  0  0  0  0  0  0  0  0  # atno 17343 bound_to 10162
  156.6336  130.8676  151.3500 LP  0  0  0  0  0  0  0  0  0  0  0  0  # atno 17370 bound_to 10713
  157.7177  130.9518  150.1317 LP  0  0  0  0  0  0  0  0  0  0  0  0  # atno 17371 bound_to 10713
  140.6475  133.9761  155.7738 LP  0  0  0  0  0  0  0  0  0  0  0  0  # atno 17394 bound_to 11000
  141.0730  134.0177  157.3498 LP  0  0  0  0  0  0  0  0  0  0  0  0  # atno 17395 bound_to 11000

$$$$
