AV-unprocessed.smi:3067|AV-procd|sdf|11695|dock3
  -GOLD-   2272017 93D 1   1.00000     0.00000
 Structure written by MMmdl.
 34 35  0  0  0  0  0  0  0  0  1 V2000
  144.2708  136.0180  151.7560 C   0  0  0  0  0  0  0  0  0  0  0  0
  145.3305  135.0977  151.5481 O   0  0  0  0  0  0  0  0  0  0  0  0
  145.2000  133.8780  152.2731 C   0  0  1  0  0  0  0  0  0  0  0  0
  143.8871  133.1612  151.8925 C   0  0  0  0  0  0  0  0  0  0  0  0
  143.8803  132.7299  150.4163 C   0  0  0  0  0  0  0  0  0  0  0  0
  145.1010  131.8585  150.0839 C   0  0  0  0  0  0  0  0  0  0  0  0
  146.4126  132.5653  150.4611 C   0  0  0  0  0  0  0  0  0  0  0  0
  146.4173  132.9792  151.9454 C   0  0  1  0  0  0  0  0  0  0  0  0
  147.6806  133.6185  152.2989 N   0  0  0  0  0  0  0  0  0  0  0  0
  148.4454  133.1984  153.3981 C   0  0  0  0  0  0  0  0  0  0  0  0
  148.7764  131.8475  153.6562 C   0  0  0  0  0  0  0  0  0  0  0  0
  149.5499  131.5374  154.7912 C   0  0  0  0  0  0  0  0  0  0  0  0
  149.9714  132.5886  155.6318 C   0  0  0  0  0  0  0  0  0  0  0  0
  150.7703  132.2892  156.8079 C   0  0  0  0  0  0  0  0  0  0  0  0
  151.4071  132.0514  157.7444 N   0  0  0  0  0  0  0  0  0  0  0  0
  149.6640  133.8816  155.3926 N   0  0  0  0  0  0  0  0  0  0  0  0
  148.9218  134.1707  154.3025 C   0  0  0  0  0  0  0  0  0  0  0  0
  144.4615  136.9246  151.1817 H   0  0  0  0  0  0  0  0  0  0  0  0
  144.1949  136.2998  152.8070 H   0  0  0  0  0  0  0  0  0  0  0  0
  143.3120  135.6148  151.4309 H   0  0  0  0  0  0  0  0  0  0  0  0
  145.1914  134.0881  153.3436 H   0  0  0  0  0  0  0  0  0  0  0  0
  143.7684  132.2784  152.5220 H   0  0  0  0  0  0  0  0  0  0  0  0
  143.0235  133.7922  152.0997 H   0  0  0  0  0  0  0  0  0  0  0  0
  142.9635  132.1838  150.1928 H   0  0  0  0  0  0  0  0  0  0  0  0
  143.8761  133.6132  149.7765 H   0  0  0  0  0  0  0  0  0  0  0  0
  145.0305  130.9118  150.6210 H   0  0  0  0  0  0  0  0  0  0  0  0
  145.1036  131.6114  149.0219 H   0  0  0  0  0  0  0  0  0  0  0  0
  147.2530  131.9010  150.2566 H   0  0  0  0  0  0  0  0  0  0  0  0
  146.5510  133.4416  149.8260 H   0  0  0  0  0  0  0  0  0  0  0  0
  146.3356  132.0586  152.5228 H   0  0  0  0  0  0  0  0  0  0  0  0
  147.8450  134.5458  151.9335 H   0  0  0  0  0  0  0  0  0  0  0  0
  148.4527  131.0470  153.0089 H   0  0  0  0  0  0  0  0  0  0  0  0
  149.8122  130.5117  155.0066 H   0  0  0  0  0  0  0  0  0  0  0  0
  148.6989  135.2169  154.1500 H   0  0  0  0  0  0  0  0  0  0  0  0
  1  2  1  0  0  0  0
  1 18  1  0  0  0  0
  1 19  1  0  0  0  0
  1 20  1  0  0  0  0
  2  3  1  0  0  0  0
  3  8  1  0  0  0  0
  3  4  1  0  0  0  0
  3 21  1  0  0  0  0
  4  5  1  0  0  0  0
  4 22  1  0  0  0  0
  4 23  1  0  0  0  0
  5  6  1  0  0  0  0
  5 24  1  0  0  0  0
  5 25  1  0  0  0  0
  6  7  1  0  0  0  0
  6 26  1  0  0  0  0
  6 27  1  0  0  0  0
  7  8  1  0  0  0  0
  7 28  1  0  0  0  0
  7 29  1  0  0  0  0
  8  9  1  0  0  0  0
  8 30  1  0  0  0  0
  9 10  1  0  0  0  0
  9 31  1  0  0  0  0
 10 17  1  0  0  0  0
 10 11  2  0  0  0  0
 11 12  1  0  0  0  0
 11 32  1  0  0  0  0
 12 13  2  0  0  0  0
 12 33  1  0  0  0  0
 13 14  1  0  0  0  0
 13 16  1  0  0  0  0
 14 15  3  0  0  0  0
 16 17  2  0  0  0  0
 17 34  1  0  0  0  0
M  END
> <s_m_source_file>
AV-unprocessed.smi

> <i_m_source_file_index>
3067

> <i_lp_mmshare_version>
43012

> <i_f3d_flags>
0

> <s_epik_input>
W0NIM11PW0NAQEhdMVtDSDJdW0NIMl1bQ0gyXVtDSDJdW0NASF0xW05IXWMyW2NIXVtjSF1jKEMjTiluW2NIXTI=

> <s_epik_cmdline>
J2VwaWtfcHl0aG9uJywgJy1waCcsICc3LjAnLCAnLXRuJywgJzgnLCAnLW1hJywgJzIwMCcsICctbWV0YWxfYmluZGluZycsICctaW1hZScsICc8aW5maWxlLm1hZT4nLCAnLW9tYWUnLCAnPG91dGZpbGUubWFlPic=

> <r_lp_tautomer_probability>
1

> <r_epik_Ionization_Penalty>
2.01011e-07

> <r_epik_Ionization_Penalty_Charging>
0

> <r_epik_Ionization_Penalty_Neutral>
2.01011e-07

> <r_epik_State_Penalty>
-0

> <r_epik_Charging_Adjusted_Penalty>
0

> <i_epik_Tot_Q>
0

> <i_epik_Tot_abs_Q>
0

> <r_epik_Metal_State_Penalty>
-0

> <b_epik_Metal_Only>
0

> <s_lp_Force_Field>
OPLS_2005

> <r_lp_Energy>
17.9327

> <b_lp_Chiralities_Consistent>
1

> <s_lp_Variant>
AV-unprocessed.smi:3067-2

> <Gold.Version>
5.8.1

> <Gold.Id.Protein>
6NUR|6NUR_protein|mol2

> <Gold.PLP.Fitness>
38.6788

> <Gold.PLP.PLP>
-31.3700

> <Gold.PLP.part.hbond>
-2.0000

> <Gold.PLP.part.metal>
0.0000

> <Gold.PLP.part.buried>
-1.6179

> <Gold.PLP.part.nonpolar>
-27.9376

> <Gold.PLP.part.repulsive>
0.2462

> <Gold.PLP.ligand.clash>
0.0000

> <Gold.PLP.ligand.torsion>
0.5199

> <Gold.PLP.Chemscore.Hbond>
2.0000

> <Gold.PLP.Chemscore.CHOScore>
0.7794

> <Gold.PLP.Chemscore.Metal>
0.0000

> <Gold.Chemscore.Hbonds>
donor molecule, donor type, donor heavy atom, donor atom, acceptor molecule, acceptor atom, score
      L1  H     9    31       P1  7948  1.00
      P1  H  6896  6908       L1    15  1.00
      L1  C    17    34       P1  7948  0.78

> <Gold.PLP.Chemscore.Internal.Correction>
0.0105

> <Gold.Rescore>
     Score         DG    S(hbond)    S(metal)    S(lipo)     H(rot)  DE(clash)    DE(int)     intcor
     13.48     -15.49       1.01        0.00      83.08       1.20       1.41       0.59       ----

> <Gold.Chemscore.Fitness>
13.4844

> <Gold.Chemscore.DG>
-15.4854

> <Gold.Chemscore.ZeroCoef>
-5.4800

> <Gold.Chemscore.Hbond>
1.0061

> <Gold.Chemscore.Metal>
0.0000

> <Gold.Chemscore.Lipo>
83.0777

> <Gold.Chemscore.Internal_Hbond>
0.0000

> <Gold.Chemscore.DEClash>
1.4129

> <Gold.Chemscore.DEInternal>
0.5881

> <Gold.Chemscore.Rot>
1.2012

> <Gold.Chemscore.Internal.Correction>
   9.000000E+99

> <Gold.Chemscore.Hbonds>
donor molecule, donor type, donor heavy atom, donor atom, acceptor molecule, acceptor atom, score
      L1  H     9    31       P1  7948  0.24
      P1  H  6896  6908       L1    15  0.91

> <Gold.Chemscore.Hbond.Weighted>
-3.3602

> <Gold.Chemscore.Metal.Weighted>
-0.0000

> <Gold.Chemscore.Lipo.Weighted>
-9.7201

> <Gold.Chemscore.Internal_Hbond.Weighted>
0.0000

> <Gold.Chemscore.DEClash.Weighted>
1.4129

> <Gold.Chemscore.DEInternal.Weighted>
0.5881

> <Gold.Chemscore.Rot.Weighted>
3.0750

> <Gold.Chemscore.Internal.Correction.Weighted>
   9.000000E+99

> <Gold.Protein.RotatedTorsions>
[ 6907 6896 6895 6894 ] final   52.33 input  -60.11 | X-H torsion
[ 7974 7965 7964 7962 ] final  151.30 input  175.53 | X-H torsion
[ 8008 7997 7996 7995 ] final   91.17 input   59.86 | X-H torsion
[ 10167 10162 10161 10158 ] final -169.39 input  -65.29 | X-H torsion
[ 10718 10713 10712 10709 ] final   50.49 input   66.30 | X-H torsion
[ 10763 10752 10751 10750 ] final   11.74 input  -60.55 | X-H torsion
[ 11005 11000 10999 10996 ] final  -99.12 input  -57.11 | X-H torsion

> <Gold.Protein.ActiveResidues>
 VAL166  LYS551  ARG553  GLY616  TRP617  ASP618  TYR619  PRO620  LYS621  CYS622 
 ASP623  PHE694  ASN695  SER759  ASP760  ASP761  ALA762  ILE779  LEU786  VAL792 
 PHE793  MET794  SER795  GLU796  ALA797  LYS798  CYS799  TRP800  GLU811  SER814 

> <Gold.Protein.RotatedAtoms>
  152.3222  134.7366  160.0310 H   0  0  0  0  0  0  0  0  0  0  0  0  # atno 6907 bound_to 6896
  151.7811  133.3344  159.3480 H   0  0  0  0  0  0  0  0  0  0  0  0  # atno 6908 bound_to 6896
  150.7376  134.5861  159.6008 H   0  0  0  0  0  0  0  0  0  0  0  0  # atno 6909 bound_to 6896
  144.8302  139.6520  143.6062 H   0  0  0  0  0  0  0  0  0  0  0  0  # atno 7974 bound_to 7965
  156.0207  140.3341  155.7035 H   0  0  0  0  0  0  0  0  0  0  0  0  # atno 8008 bound_to 7997
  155.6027  140.0657  157.2746 H   0  0  0  0  0  0  0  0  0  0  0  0  # atno 8009 bound_to 7997
  154.4315  140.1807  156.1178 H   0  0  0  0  0  0  0  0  0  0  0  0  # atno 8010 bound_to 7997
  139.5926  144.1181  152.1652 H   0  0  0  0  0  0  0  0  0  0  0  0  # atno 10167 bound_to 10162
  157.4890  130.8364  149.8180 H   0  0  0  0  0  0  0  0  0  0  0  0  # atno 10718 bound_to 10713
  153.1894  135.6840  153.8372 H   0  0  0  0  0  0  0  0  0  0  0  0  # atno 10763 bound_to 10752
  153.7676  135.3200  155.3348 H   0  0  0  0  0  0  0  0  0  0  0  0  # atno 10764 bound_to 10752
  154.8108  135.4718  154.0610 H   0  0  0  0  0  0  0  0  0  0  0  0  # atno 10765 bound_to 10752
  141.1320  133.8297  157.0930 H   0  0  0  0  0  0  0  0  0  0  0  0  # atno 11005 bound_to 11000
  146.2605  139.6401  142.9365 LP  0  0  0  0  0  0  0  0  0  0  0  0  # atno 17320 bound_to 7965
  145.4912  141.0438  143.2592 LP  0  0  0  0  0  0  0  0  0  0  0  0  # atno 17321 bound_to 7965
  140.0759  144.5741  150.7158 LP  0  0  0  0  0  0  0  0  0  0  0  0  # atno 17342 bound_to 10162
  140.7185  143.2567  151.4355 LP  0  0  0  0  0  0  0  0  0  0  0  0  # atno 17343 bound_to 10162
  156.0163  130.3812  150.2102 LP  0  0  0  0  0  0  0  0  0  0  0  0  # atno 17370 bound_to 10713
  157.0290  131.0002  151.3318 LP  0  0  0  0  0  0  0  0  0  0  0  0  # atno 17371 bound_to 10713
  140.0380  134.9868  157.0909 LP  0  0  0  0  0  0  0  0  0  0  0  0  # atno 17394 bound_to 11000
  140.4179  134.1911  155.7164 LP  0  0  0  0  0  0  0  0  0  0  0  0  # atno 17395 bound_to 11000

$$$$
