AV-unprocessed.smi:2228|AV-procd|sdf|9026|dock7
  -GOLD-   2272012233D 1   1.00000     0.00000
 Structure written by MMmdl.
 40 41  0  0  0  0  0  0  0  0  1 V2000
  146.3790  142.1401  154.0065 C   0  0  0  0  0  0  0  0  0  0  0  0
  146.4903  140.7323  154.1489 O   0  0  0  0  0  0  0  0  0  0  0  0
  147.6413  140.3221  154.8745 C   0  0  1  0  0  0  0  0  0  0  0  0
  147.7860  138.8003  154.7897 C   0  0  0  0  0  0  0  0  0  0  0  0
  149.2819  138.5545  154.9513 C   0  0  0  0  0  0  0  0  0  0  0  0
  149.9289  139.7042  154.1787 C   0  0  0  0  0  0  0  0  0  0  0  0
  148.9567  140.8938  154.2977 C   0  0  2  0  0  0  0  0  0  0  0  0
  149.4987  141.9214  155.1833 N   0  0  0  0  0  0  0  0  0  0  0  0
  150.1822  141.6886  156.3126 C   0  0  0  0  0  0  0  0  0  0  0  0
  150.4092  140.5602  156.7500 O   0  0  0  0  0  0  0  0  0  0  0  0
  150.5787  142.8395  156.8839 N   0  0  0  0  0  0  0  0  0  0  0  0
  151.3487  143.0140  158.0641 C   0  0  0  0  0  0  0  0  0  0  0  0
  151.3287  144.3195  158.6043 C   0  0  0  0  0  0  0  0  0  0  0  0
  152.0637  144.5986  159.7739 C   0  0  0  0  0  0  0  0  0  0  0  0
  152.0565  145.9913  160.3688 C   0  0  0  0  0  0  0  0  0  0  0  0
  152.7996  143.5593  160.3743 C   0  0  0  0  0  0  0  0  0  0  0  0
  152.7648  142.2862  159.7724 C   0  0  0  0  0  0  0  0  0  0  0  0
  153.5291  141.1220  160.3668 C   0  0  0  0  0  0  0  0  0  0  0  0
  152.0609  142.0205  158.6515 N   0  0  0  0  0  0  0  0  0  0  0  0
  145.4594  142.3798  153.4729 H   0  0  0  0  0  0  0  0  0  0  0  0
  147.2107  142.5555  153.4365 H   0  0  0  0  0  0  0  0  0  0  0  0
  146.3416  142.6338  154.9781 H   0  0  0  0  0  0  0  0  0  0  0  0
  147.5334  140.5874  155.9286 H   0  0  0  0  0  0  0  0  0  0  0  0
  147.1879  138.2788  155.5376 H   0  0  0  0  0  0  0  0  0  0  0  0
  147.4685  138.4493  153.8065 H   0  0  0  0  0  0  0  0  0  0  0  0
  149.5536  138.6176  156.0057 H   0  0  0  0  0  0  0  0  0  0  0  0
  149.5898  137.5752  154.5839 H   0  0  0  0  0  0  0  0  0  0  0  0
  150.9343  139.9260  154.5399 H   0  0  0  0  0  0  0  0  0  0  0  0
  150.0224  139.4230  153.1289 H   0  0  0  0  0  0  0  0  0  0  0  0
  148.7762  141.3011  153.3009 H   0  0  0  0  0  0  0  0  0  0  0  0
  149.3551  142.8805  154.9034 H   0  0  0  0  0  0  0  0  0  0  0  0
  150.3134  143.6899  156.4097 H   0  0  0  0  0  0  0  0  0  0  0  0
  150.7568  145.1024  158.1272 H   0  0  0  0  0  0  0  0  0  0  0  0
  152.7250  146.0595  161.2275 H   0  0  0  0  0  0  0  0  0  0  0  0
  151.0513  146.2560  160.6972 H   0  0  0  0  0  0  0  0  0  0  0  0
  152.3797  146.7218  159.6269 H   0  0  0  0  0  0  0  0  0  0  0  0
  153.3747  143.7328  161.2723 H   0  0  0  0  0  0  0  0  0  0  0  0
  154.1610  141.4456  161.1942 H   0  0  0  0  0  0  0  0  0  0  0  0
  154.1676  140.6598  159.6133 H   0  0  0  0  0  0  0  0  0  0  0  0
  152.8365  140.3675  160.7408 H   0  0  0  0  0  0  0  0  0  0  0  0
  1  2  1  0  0  0  0
  1 20  1  0  0  0  0
  1 21  1  0  0  0  0
  1 22  1  0  0  0  0
  2  3  1  0  0  0  0
  3  7  1  0  0  0  0
  3  4  1  0  0  0  0
  3 23  1  0  0  0  0
  4  5  1  0  0  0  0
  4 24  1  0  0  0  0
  4 25  1  0  0  0  0
  5  6  1  0  0  0  0
  5 26  1  0  0  0  0
  5 27  1  0  0  0  0
  6  7  1  0  0  0  0
  6 28  1  0  0  0  0
  6 29  1  0  0  0  0
  7  8  1  0  0  0  0
  7 30  1  0  0  0  0
  8  9  1  0  0  0  0
  8 31  1  0  0  0  0
  9 10  2  0  0  0  0
  9 11  1  0  0  0  0
 11 12  1  0  0  0  0
 11 32  1  0  0  0  0
 12 19  1  0  0  0  0
 12 13  2  0  0  0  0
 13 14  1  0  0  0  0
 13 33  1  0  0  0  0
 14 15  1  0  0  0  0
 14 16  2  0  0  0  0
 15 34  1  0  0  0  0
 15 35  1  0  0  0  0
 15 36  1  0  0  0  0
 16 17  1  0  0  0  0
 16 37  1  0  0  0  0
 17 18  1  0  0  0  0
 17 19  2  0  0  0  0
 18 38  1  0  0  0  0
 18 39  1  0  0  0  0
 18 40  1  0  0  0  0
M  END
> <s_m_source_file>
AV-unprocessed.smi

> <i_m_source_file_index>
2228

> <i_lp_mmshare_version>
43012

> <i_f3d_flags>
0

> <s_epik_input>
W0NIM11PW0NAQEhdMVtDSDJdW0NIMl1bQ0gyXVtDQEhdMVtOSF1DKD1PKVtOSF1jMltjSF1jKFtDSDNdKVtjSF1jKG4yKVtDSDNd

> <s_epik_cmdline>
J2VwaWtfcHl0aG9uJywgJy1waCcsICc3LjAnLCAnLXRuJywgJzgnLCAnLW1hJywgJzIwMCcsICctbWV0YWxfYmluZGluZycsICctaW1hZScsICc8aW5maWxlLm1hZT4nLCAnLW9tYWUnLCAnPG91dGZpbGUubWFlPic=

> <r_lp_tautomer_probability>
1

> <r_epik_Ionization_Penalty>
0.000275391

> <r_epik_Ionization_Penalty_Charging>
0

> <r_epik_Ionization_Penalty_Neutral>
0.000275391

> <r_epik_State_Penalty>
-0

> <r_epik_Charging_Adjusted_Penalty>
0

> <i_epik_Tot_Q>
0

> <i_epik_Tot_abs_Q>
0

> <r_epik_Metal_State_Penalty>
-0

> <b_epik_Metal_Only>
0

> <s_lp_Force_Field>
OPLS_2005

> <r_lp_Energy>
19.8708

> <b_lp_Chiralities_Consistent>
1

> <s_lp_Variant>
AV-unprocessed.smi:2228-4

> <Gold.Version>
5.8.1

> <Gold.Id.Protein>
6NUR|6NUR_protein|mol2

> <Gold.PLP.Fitness>
43.9132

> <Gold.PLP.PLP>
-39.1612

> <Gold.PLP.part.hbond>
-2.0000

> <Gold.PLP.part.metal>
0.0000

> <Gold.PLP.part.buried>
-4.3061

> <Gold.PLP.part.nonpolar>
-34.7762

> <Gold.PLP.part.repulsive>
0.3920

> <Gold.PLP.ligand.clash>
0.0000

> <Gold.PLP.ligand.torsion>
0.3629

> <Gold.PLP.Chemscore.Hbond>
1.8240

> <Gold.PLP.Chemscore.CHOScore>
0.0000

> <Gold.PLP.Chemscore.Metal>
0.0000

> <Gold.Chemscore.Hbonds>
donor molecule, donor type, donor heavy atom, donor atom, acceptor molecule, acceptor atom, score
      L1  H     8    31       P1  8028  0.86
      L1  H    11    32       P1  8028  0.94

> <Gold.PLP.Chemscore.Internal.Correction>
0.0059

> <Gold.Rescore>
     Score         DG    S(hbond)    S(metal)    S(lipo)     H(rot)  DE(clash)    DE(int)     intcor
     15.91     -20.20       1.88        0.00      98.76       1.21       0.04       4.25       ----

> <Gold.Chemscore.Fitness>
15.9123

> <Gold.Chemscore.DG>
-20.1980

> <Gold.Chemscore.ZeroCoef>
-5.4800

> <Gold.Chemscore.Hbond>
1.8761

> <Gold.Chemscore.Metal>
0.0000

> <Gold.Chemscore.Lipo>
98.7564

> <Gold.Chemscore.Internal_Hbond>
0.0000

> <Gold.Chemscore.DEClash>
0.0356

> <Gold.Chemscore.DEInternal>
4.2501

> <Gold.Chemscore.Rot>
1.2119

> <Gold.Chemscore.Internal.Correction>
   9.000000E+99

> <Gold.Chemscore.Hbonds>
donor molecule, donor type, donor heavy atom, donor atom, acceptor molecule, acceptor atom, score
      L1  H     8    31       P1  8028  0.79
      L1  H    11    32       P1  8028  0.92

> <Gold.Chemscore.Hbond.Weighted>
-6.2660

> <Gold.Chemscore.Metal.Weighted>
-0.0000

> <Gold.Chemscore.Lipo.Weighted>
-11.5545

> <Gold.Chemscore.Internal_Hbond.Weighted>
0.0000

> <Gold.Chemscore.DEClash.Weighted>
0.0356

> <Gold.Chemscore.DEInternal.Weighted>
4.2501

> <Gold.Chemscore.Rot.Weighted>
3.1026

> <Gold.Chemscore.Internal.Correction.Weighted>
   9.000000E+99

> <Gold.Protein.RotatedTorsions>
[ 6907 6896 6895 6894 ] final  170.11 input  -60.11 | X-H torsion
[ 7974 7965 7964 7962 ] final -130.65 input  175.53 | X-H torsion
[ 8008 7997 7996 7995 ] final   81.64 input   59.86 | X-H torsion
[ 10167 10162 10161 10158 ] final  -38.24 input  -65.29 | X-H torsion
[ 10718 10713 10712 10709 ] final   91.91 input   66.30 | X-H torsion
[ 10763 10752 10751 10750 ] final  159.09 input  -60.55 | X-H torsion
[ 11005 11000 10999 10996 ] final -138.99 input  -57.11 | X-H torsion

> <Gold.Protein.ActiveResidues>
 VAL166  LYS551  ARG553  GLY616  TRP617  ASP618  TYR619  PRO620  LYS621  CYS622 
 ASP623  PHE694  ASN695  SER759  ASP760  ASP761  ALA762  ILE779  LEU786  VAL792 
 PHE793  MET794  SER795  GLU796  ALA797  LYS798  CYS799  TRP800  GLU811  SER814 

> <Gold.Protein.RotatedAtoms>
  151.8213  133.3395  159.3584 H   0  0  0  0  0  0  0  0  0  0  0  0  # atno 6907 bound_to 6896
  150.7294  134.5571  159.5833 H   0  0  0  0  0  0  0  0  0  0  0  0  # atno 6908 bound_to 6896
  152.3004  134.7619  160.0410 H   0  0  0  0  0  0  0  0  0  0  0  0  # atno 6909 bound_to 6896
  144.9454  140.7286  143.4820 H   0  0  0  0  0  0  0  0  0  0  0  0  # atno 7974 bound_to 7965
  155.8999  140.3434  155.6018 H   0  0  0  0  0  0  0  0  0  0  0  0  # atno 8008 bound_to 7997
  155.7512  140.0820  157.2219 H   0  0  0  0  0  0  0  0  0  0  0  0  # atno 8009 bound_to 7997
  154.4042  140.1553  156.2714 H   0  0  0  0  0  0  0  0  0  0  0  0  # atno 8010 bound_to 7997
  140.7097  143.3290  151.2613 H   0  0  0  0  0  0  0  0  0  0  0  0  # atno 10167 bound_to 10162
  157.6959  131.0424  150.3802 H   0  0  0  0  0  0  0  0  0  0  0  0  # atno 10718 bound_to 10713
  154.2263  135.2780  155.2906 H   0  0  0  0  0  0  0  0  0  0  0  0  # atno 10763 bound_to 10752
  154.5660  135.5633  153.7054 H   0  0  0  0  0  0  0  0  0  0  0  0  # atno 10764 bound_to 10752
  153.0030  135.6309  154.2404 H   0  0  0  0  0  0  0  0  0  0  0  0  # atno 10765 bound_to 10752
  140.8563  134.2224  157.4732 H   0  0  0  0  0  0  0  0  0  0  0  0  # atno 11005 bound_to 11000
  145.2925  139.1878  143.4732 LP  0  0  0  0  0  0  0  0  0  0  0  0  # atno 17320 bound_to 7965
  146.3302  140.2904  142.8615 LP  0  0  0  0  0  0  0  0  0  0  0  0  # atno 17321 bound_to 7965
  139.6766  143.9926  152.2785 LP  0  0  0  0  0  0  0  0  0  0  0  0  # atno 17342 bound_to 10162
  139.9543  144.6600  150.8142 LP  0  0  0  0  0  0  0  0  0  0  0  0  # atno 17343 bound_to 10162
  156.4216  130.3954  149.6821 LP  0  0  0  0  0  0  0  0  0  0  0  0  # atno 17370 bound_to 10713
  156.4069  130.7703  151.2714 LP  0  0  0  0  0  0  0  0  0  0  0  0  # atno 17371 bound_to 10713
  139.8705  134.9708  156.4714 LP  0  0  0  0  0  0  0  0  0  0  0  0  # atno 17394 bound_to 11000
  140.8733  133.7972  155.9388 LP  0  0  0  0  0  0  0  0  0  0  0  0  # atno 17395 bound_to 11000

$$$$
