AV-unprocessed.smi:1254|AV-procd|sdf|5280|dock1
  -GOLD-   22720 4403D 1   1.00000     0.00000
 Structure written by MMmdl.
 44 45  0  0  0  0  0  0  0  0  2 V2000
  144.1424  134.7214  162.6066 C   0  0  0  0  0  0  0  0  0  0  0  0
  145.2809  135.2514  161.8044 C   0  0  0  0  0  0  0  0  0  0  0  0
  145.9340  136.4512  161.7964 C   0  0  0  0  0  0  0  0  0  0  0  0
  146.9217  136.2765  160.7888 C   0  0  0  0  0  0  0  0  0  0  0  0
  147.8168  137.1958  160.3958 N   0  5  0  0  0  0  0  0  0  0  0  0
  148.7565  136.8811  159.4743 C   0  0  0  0  0  0  0  0  0  0  0  0
  148.9855  135.7584  159.0185 O   0  0  0  0  0  0  0  0  0  0  0  0
  149.4756  137.9334  159.0585 N   0  0  0  0  0  0  0  0  0  0  0  0
  150.5469  137.9066  158.0677 C   0  0  0  0  0  0  0  0  0  0  0  0
  151.5551  139.0458  158.2927 C   0  0  1  0  0  0  0  0  0  0  0  0
  150.8568  140.4167  158.3869 C   0  0  0  0  0  0  0  0  0  0  0  0
  151.7981  141.5004  158.6509 N   0  0  0  0  0  0  0  0  0  0  0  0
  151.1031  142.7868  158.7227 C   0  0  0  0  0  0  0  0  0  0  0  0
  151.9484  143.9838  159.2085 C   0  0  0  0  0  0  0  0  0  0  0  0
  151.0398  145.0886  159.7676 C   0  0  0  0  0  0  0  0  0  0  0  0
  152.8450  144.5394  158.0900 C   0  0  0  0  0  0  0  0  0  0  0  0
  152.5449  141.1921  159.8686 C   0  0  0  0  0  0  0  0  0  0  0  0
  153.2294  139.8172  159.7898 C   0  0  0  0  0  0  0  0  0  0  0  0
  152.2555  138.8178  159.5132 O   0  0  0  0  0  0  0  0  0  0  0  0
  146.8610  135.0824  160.2229 N   0  0  0  0  0  0  0  0  0  0  0  0
  145.8154  134.4164  160.8734 O   0  0  0  0  0  0  0  0  0  0  0  0
  143.2368  134.6691  162.0023 H   0  0  0  0  0  0  0  0  0  0  0  0
  143.9403  135.3622  163.4650 H   0  0  0  0  0  0  0  0  0  0  0  0
  144.3620  133.7200  162.9771 H   0  0  0  0  0  0  0  0  0  0  0  0
  145.7405  137.3154  162.4142 H   0  0  0  0  0  0  0  0  0  0  0  0
  149.2493  138.8319  159.4588 H   0  0  0  0  0  0  0  0  0  0  0  0
  151.0537  136.9466  158.1681 H   0  0  0  0  0  0  0  0  0  0  0  0
  150.1485  137.9369  157.0522 H   0  0  0  0  0  0  0  0  0  0  0  0
  152.2680  139.0596  157.4659 H   0  0  0  0  0  0  0  0  0  0  0  0
  150.3254  140.6123  157.4548 H   0  0  0  0  0  0  0  0  0  0  0  0
  150.1018  140.3844  159.1743 H   0  0  0  0  0  0  0  0  0  0  0  0
  150.7166  143.0355  157.7331 H   0  0  0  0  0  0  0  0  0  0  0  0
  150.2257  142.6827  159.3630 H   0  0  0  0  0  0  0  0  0  0  0  0
  152.5898  143.6637  160.0290 H   0  0  0  0  0  0  0  0  0  0  0  0
  150.3685  145.4763  159.0006 H   0  0  0  0  0  0  0  0  0  0  0  0
  151.6261  145.9243  160.1503 H   0  0  0  0  0  0  0  0  0  0  0  0
  150.4266  144.7155  160.5883 H   0  0  0  0  0  0  0  0  0  0  0  0
  152.2532  144.8791  157.2395 H   0  0  0  0  0  0  0  0  0  0  0  0
  153.5432  143.7838  157.7289 H   0  0  0  0  0  0  0  0  0  0  0  0
  153.4354  145.3850  158.4437 H   0  0  0  0  0  0  0  0  0  0  0  0
  153.3083  141.9475  160.0491 H   0  0  0  0  0  0  0  0  0  0  0  0
  151.8742  141.2107  160.7292 H   0  0  0  0  0  0  0  0  0  0  0  0
  153.9986  139.8106  159.0160 H   0  0  0  0  0  0  0  0  0  0  0  0
  153.7218  139.5828  160.7336 H   0  0  0  0  0  0  0  0  0  0  0  0
  1  2  1  0  0  0  0
  1 22  1  0  0  0  0
  1 23  1  0  0  0  0
  1 24  1  0  0  0  0
  2 21  1  0  0  0  0
  2  3  2  0  0  0  0
  3  4  1  0  0  0  0
  3 25  1  0  0  0  0
  4  5  1  0  0  0  0
  4 20  2  0  0  0  0
  5  6  1  0  0  0  0
  6  7  2  0  0  0  0
  6  8  1  0  0  0  0
  8  9  1  0  0  0  0
  8 26  1  0  0  0  0
  9 10  1  0  0  0  0
  9 27  1  0  0  0  0
  9 28  1  0  0  0  0
 10 19  1  0  0  0  0
 10 11  1  0  0  0  0
 10 29  1  0  0  0  0
 11 12  1  0  0  0  0
 11 30  1  0  0  0  0
 11 31  1  0  0  0  0
 12 13  1  0  0  0  0
 12 17  1  0  0  0  0
 13 14  1  0  0  0  0
 13 32  1  0  0  0  0
 13 33  1  0  0  0  0
 14 15  1  0  0  0  0
 14 16  1  0  0  0  0
 14 34  1  0  0  0  0
 15 35  1  0  0  0  0
 15 36  1  0  0  0  0
 15 37  1  0  0  0  0
 16 38  1  0  0  0  0
 16 39  1  0  0  0  0
 16 40  1  0  0  0  0
 17 18  1  0  0  0  0
 17 41  1  0  0  0  0
 17 42  1  0  0  0  0
 18 19  1  0  0  0  0
 18 43  1  0  0  0  0
 18 44  1  0  0  0  0
 20 21  1  0  0  0  0
M  CHG  1   5  -1
M  END
> <s_m_source_file>
AV-unprocessed.smi

> <i_m_source_file_index>
1254

> <i_lp_mmshare_version>
43012

> <i_f3d_flags>
0

> <s_epik_input>
W0NIM11jMVtjSF1jKG5vMSlbTkhdQyg9TylbTkhdW0NIMl1bQ0BASF0yW0NIMl1OKFtDSDJdW0NIMl1PMilbQ0gyXVtDSF0oW0NIM10pW0NIM10=

> <s_epik_cmdline>
J2VwaWtfcHl0aG9uJywgJy1waCcsICc3LjAnLCAnLXRuJywgJzgnLCAnLW1hJywgJzIwMCcsICctbWV0YWxfYmluZGluZycsICctaW1hZScsICc8aW5maWxlLm1hZT4nLCAnLW9tYWUnLCAnPG91dGZpbGUubWFlPic=

> <r_epik_Ionization_Penalty>
7.56718

> <r_epik_Ionization_Penalty_Charging>
6.43435

> <r_epik_Ionization_Penalty_Neutral>
1.13283

> <r_epik_State_Penalty>
7.60314

> <r_epik_Charging_Adjusted_Penalty>
14.0375

> <i_epik_Tot_Q>
-1

> <i_epik_Tot_abs_Q>
1

> <r_epik_Metal_State_Penalty>
3.53636

> <b_epik_Metal_Only>
1

> <s_lp_Force_Field>
OPLS_2005

> <r_lp_Energy>
16.636

> <b_lp_Chiralities_Consistent>
1

> <s_lp_Variant>
AV-unprocessed.smi:1254-12

> <Gold.Version>
5.8.1

> <Gold.Id.Protein>
6NUR|6NUR_protein|mol2

> <Gold.PLP.Fitness>
49.1047

> <Gold.PLP.PLP>
-37.8189

> <Gold.PLP.part.hbond>
-3.0000

> <Gold.PLP.part.metal>
0.0000

> <Gold.PLP.part.buried>
-6.3996

> <Gold.PLP.part.nonpolar>
-30.2024

> <Gold.PLP.part.repulsive>
0.8654

> <Gold.PLP.ligand.clash>
0.0000

> <Gold.PLP.ligand.torsion>
0.4841

> <Gold.PLP.Chemscore.Hbond>
3.9658

> <Gold.PLP.Chemscore.CHOScore>
0.0000

> <Gold.PLP.Chemscore.Metal>
0.0000

> <Gold.Chemscore.Hbonds>
donor molecule, donor type, donor heavy atom, donor atom, acceptor molecule, acceptor atom, score
      P1  H  6896  6908       L1     7  0.75
      P1  H  6931  6943       L1     5  0.82
      P1  H  6934  6947       L1     5  1.70

> <Gold.PLP.Chemscore.Internal.Correction>
0.3565

> <Gold.Rescore>
     Score         DG    S(hbond)    S(metal)    S(lipo)     H(rot)  DE(clash)    DE(int)     intcor
     16.92     -19.17       1.86        0.00     100.03       1.65       0.12       2.13       ----

> <Gold.Chemscore.Fitness>
16.9234

> <Gold.Chemscore.DG>
-19.1735

> <Gold.Chemscore.ZeroCoef>
-5.4800

> <Gold.Chemscore.Hbond>
1.8625

> <Gold.Chemscore.Metal>
0.0000

> <Gold.Chemscore.Lipo>
100.0293

> <Gold.Chemscore.Internal_Hbond>
0.0000

> <Gold.Chemscore.DEClash>
0.1238

> <Gold.Chemscore.DEInternal>
2.1263

> <Gold.Chemscore.Rot>
1.6526

> <Gold.Chemscore.Internal.Correction>
   9.000000E+99

> <Gold.Chemscore.Hbonds>
donor molecule, donor type, donor heavy atom, donor atom, acceptor molecule, acceptor atom, score
      P1  H  6896  6908       L1     7  0.75
      P1  H  6931  6943       L1     5  0.12
      P1  H  6934  6947       L1     5  0.61

> <Gold.Chemscore.Hbond.Weighted>
-6.2208

> <Gold.Chemscore.Metal.Weighted>
-0.0000

> <Gold.Chemscore.Lipo.Weighted>
-11.7034

> <Gold.Chemscore.Internal_Hbond.Weighted>
0.0000

> <Gold.Chemscore.DEClash.Weighted>
0.1238

> <Gold.Chemscore.DEInternal.Weighted>
2.1263

> <Gold.Chemscore.Rot.Weighted>
4.2308

> <Gold.Chemscore.Internal.Correction.Weighted>
   9.000000E+99

> <Gold.Protein.RotatedTorsions>
[ 6907 6896 6895 6894 ] final  167.01 input  -60.11 | X-H torsion
[ 7974 7965 7964 7962 ] final -107.77 input  175.53 | X-H torsion
[ 8008 7997 7996 7995 ] final  -22.02 input   59.86 | X-H torsion
[ 10167 10162 10161 10158 ] final  -24.46 input  -65.29 | X-H torsion
[ 10718 10713 10712 10709 ] final  -72.93 input   66.30 | X-H torsion
[ 10763 10752 10751 10750 ] final  -24.97 input  -60.55 | X-H torsion
[ 11005 11000 10999 10996 ] final  151.77 input  -57.11 | X-H torsion

> <Gold.Protein.ActiveResidues>
 VAL166  LYS551  ARG553  GLY616  TRP617  ASP618  TYR619  PRO620  LYS621  CYS622 
 ASP623  PHE694  ASN695  SER759  ASP760  ASP761  ALA762  ILE779  LEU786  VAL792 
 PHE793  MET794  SER795  GLU796  ALA797  LYS798  CYS799  TRP800  GLU811  SER814 

> <Gold.Protein.RotatedAtoms>
  151.8701  133.3474  159.3731 H   0  0  0  0  0  0  0  0  0  0  0  0  # atno 6907 bound_to 6896
  150.7155  134.5121  159.5622 H   0  0  0  0  0  0  0  0  0  0  0  0  # atno 6908 bound_to 6896
  152.2652  134.7992  160.0475 H   0  0  0  0  0  0  0  0  0  0  0  0  # atno 6909 bound_to 6896
  145.2012  140.9057  143.3368 H   0  0  0  0  0  0  0  0  0  0  0  0  # atno 7974 bound_to 7965
  154.4669  140.2019  156.0094 H   0  0  0  0  0  0  0  0  0  0  0  0  # atno 8008 bound_to 7997
  156.0943  140.3253  155.7828 H   0  0  0  0  0  0  0  0  0  0  0  0  # atno 8009 bound_to 7997
  155.4904  140.0545  157.2945 H   0  0  0  0  0  0  0  0  0  0  0  0  # atno 8010 bound_to 7997
  140.7288  143.4351  151.0742 H   0  0  0  0  0  0  0  0  0  0  0  0  # atno 10167 bound_to 10162
  156.0300  130.4383  150.2666 H   0  0  0  0  0  0  0  0  0  0  0  0  # atno 10718 bound_to 10713
  153.6923  135.6961  153.5086 H   0  0  0  0  0  0  0  0  0  0  0  0  # atno 10763 bound_to 10752
  153.2404  135.4308  155.0691 H   0  0  0  0  0  0  0  0  0  0  0  0  # atno 10764 bound_to 10752
  154.8369  135.3506  154.6464 H   0  0  0  0  0  0  0  0  0  0  0  0  # atno 10765 bound_to 10752
  140.1248  134.8840  157.2123 H   0  0  0  0  0  0  0  0  0  0  0  0  # atno 11005 bound_to 11000
  144.9946  139.3656  143.6198 LP  0  0  0  0  0  0  0  0  0  0  0  0  # atno 17320 bound_to 7965
  146.3417  139.9143  142.8776 LP  0  0  0  0  0  0  0  0  0  0  0  0  # atno 17321 bound_to 7965
  139.8012  143.8081  152.3163 LP  0  0  0  0  0  0  0  0  0  0  0  0  # atno 17342 bound_to 10162
  139.8098  144.7340  150.9712 LP  0  0  0  0  0  0  0  0  0  0  0  0  # atno 17343 bound_to 10162
  157.0769  131.0132  151.3170 LP  0  0  0  0  0  0  0  0  0  0  0  0  # atno 17370 bound_to 10713
  157.4957  130.7849  149.7553 LP  0  0  0  0  0  0  0  0  0  0  0  0  # atno 17371 bound_to 10713
  140.2918  134.3232  155.7313 LP  0  0  0  0  0  0  0  0  0  0  0  0  # atno 17394 bound_to 11000
  141.2159  133.7539  156.9513 LP  0  0  0  0  0  0  0  0  0  0  0  0  # atno 17395 bound_to 11000

$$$$
