AV-unprocessed.smi:1368|AV-procd|sdf|5575|dock7
  -GOLD-   22720 5173D 1   1.00000     0.00000
 Structure written by MMmdl.
 46 48  0  0  0  0  0  0  0  0  1 V2000
  144.3353  134.6805  150.8073 C   0  0  0  0  0  0  0  0  0  0  0  0
  144.8781  135.5254  151.9559 C   0  0  0  0  0  0  0  0  0  0  0  0
  145.0576  135.0016  153.0544 O   0  0  0  0  0  0  0  0  0  0  0  0
  145.0999  136.8226  151.6721 N   0  0  0  0  0  0  0  0  0  0  0  0
  145.6072  137.8500  152.5144 C   0  0  0  0  0  0  0  0  0  0  0  0
  145.1342  137.8862  153.8416 C   0  0  0  0  0  0  0  0  0  0  0  0
  145.5763  138.8831  154.7318 C   0  0  0  0  0  0  0  0  0  0  0  0
  146.4920  139.8693  154.3150 C   0  0  0  0  0  0  0  0  0  0  0  0
  146.8736  140.8065  155.2513 O   0  0  0  0  0  0  0  0  0  0  0  0
  148.0771  141.5291  155.0274 C   0  0  0  0  0  0  0  0  0  0  0  0
  148.9877  141.3804  156.2564 C   0  0  2  0  0  0  0  0  0  0  0  0
  148.5783  142.3197  157.2313 O   0  0  0  0  0  0  0  0  0  0  0  0
  150.4680  141.6292  155.9019 C   0  0  0  0  0  0  0  0  0  0  0  0
  151.3870  141.1599  156.9307 N   0  0  0  0  0  0  0  0  0  0  0  0
  152.0527  139.9799  156.9795 C   0  0  0  0  0  0  0  0  0  0  0  0
  151.9120  138.9484  155.9055 C   0  0  0  0  0  0  0  0  0  0  0  0
  152.8420  139.8001  158.0387 N   0  0  0  0  0  0  0  0  0  0  0  0
  152.6743  140.9761  158.7440 C   0  0  0  0  0  0  0  0  0  0  0  0
  153.2462  141.4054  159.9633 C   0  0  0  0  0  0  0  0  0  0  0  0
  152.9204  142.6687  160.4990 C   0  0  0  0  0  0  0  0  0  0  0  0
  152.0196  143.5189  159.8254 C   0  0  0  0  0  0  0  0  0  0  0  0
  151.4399  143.1115  158.6086 C   0  0  0  0  0  0  0  0  0  0  0  0
  151.7689  141.8500  158.0775 C   0  0  0  0  0  0  0  0  0  0  0  0
  146.9561  139.8432  152.9763 C   0  0  0  0  0  0  0  0  0  0  0  0
  146.5151  138.8467  152.0840 C   0  0  0  0  0  0  0  0  0  0  0  0
  144.6626  135.0688  149.8422 H   0  0  0  0  0  0  0  0  0  0  0  0
  143.2452  134.6759  150.8257 H   0  0  0  0  0  0  0  0  0  0  0  0
  144.6837  133.6507  150.8929 H   0  0  0  0  0  0  0  0  0  0  0  0
  144.8225  137.1216  150.7486 H   0  0  0  0  0  0  0  0  0  0  0  0
  144.4302  137.1431  154.1871 H   0  0  0  0  0  0  0  0  0  0  0  0
  145.2075  138.8909  155.7473 H   0  0  0  0  0  0  0  0  0  0  0  0
  148.5757  141.0998  154.1566 H   0  0  0  0  0  0  0  0  0  0  0  0
  147.8828  142.5822  154.8148 H   0  0  0  0  0  0  0  0  0  0  0  0
  148.8819  140.3769  156.6693 H   0  0  0  0  0  0  0  0  0  0  0  0
  148.5633  143.1768  156.8331 H   0  0  0  0  0  0  0  0  0  0  0  0
  150.7186  141.1399  154.9605 H   0  0  0  0  0  0  0  0  0  0  0  0
  150.6426  142.6939  155.7413 H   0  0  0  0  0  0  0  0  0  0  0  0
  152.5060  138.0655  156.1440 H   0  0  0  0  0  0  0  0  0  0  0  0
  152.2587  139.3463  154.9518 H   0  0  0  0  0  0  0  0  0  0  0  0
  150.8708  138.6426  155.8053 H   0  0  0  0  0  0  0  0  0  0  0  0
  153.9367  140.7611  160.4874 H   0  0  0  0  0  0  0  0  0  0  0  0
  153.3630  142.9866  161.4315 H   0  0  0  0  0  0  0  0  0  0  0  0
  151.7733  144.4841  160.2435 H   0  0  0  0  0  0  0  0  0  0  0  0
  150.7476  143.7587  158.0910 H   0  0  0  0  0  0  0  0  0  0  0  0
  147.6501  140.5812  152.6041 H   0  0  0  0  0  0  0  0  0  0  0  0
  146.8797  138.8788  151.0693 H   0  0  0  0  0  0  0  0  0  0  0  0
  1  2  1  0  0  0  0
  1 26  1  0  0  0  0
  1 27  1  0  0  0  0
  1 28  1  0  0  0  0
  2  3  2  0  0  0  0
  2  4  1  0  0  0  0
  4  5  1  0  0  0  0
  4 29  1  0  0  0  0
  5 25  1  0  0  0  0
  5  6  2  0  0  0  0
  6  7  1  0  0  0  0
  6 30  1  0  0  0  0
  7  8  2  0  0  0  0
  7 31  1  0  0  0  0
  8  9  1  0  0  0  0
  8 24  1  0  0  0  0
  9 10  1  0  0  0  0
 10 11  1  0  0  0  0
 10 32  1  0  0  0  0
 10 33  1  0  0  0  0
 11 12  1  0  0  0  0
 11 13  1  0  0  0  0
 11 34  1  0  0  0  0
 12 35  1  0  0  0  0
 13 14  1  0  0  0  0
 13 36  1  0  0  0  0
 13 37  1  0  0  0  0
 14 23  1  0  0  0  0
 14 15  1  0  0  0  0
 15 16  1  0  0  0  0
 15 17  2  0  0  0  0
 16 38  1  0  0  0  0
 16 39  1  0  0  0  0
 16 40  1  0  0  0  0
 17 18  1  0  0  0  0
 18 23  2  0  0  0  0
 18 19  1  0  0  0  0
 19 20  2  0  0  0  0
 19 41  1  0  0  0  0
 20 21  1  0  0  0  0
 20 42  1  0  0  0  0
 21 22  2  0  0  0  0
 21 43  1  0  0  0  0
 22 23  1  0  0  0  0
 22 44  1  0  0  0  0
 24 25  2  0  0  0  0
 24 45  1  0  0  0  0
 25 46  1  0  0  0  0
M  END
> <s_m_source_file>
AV-unprocessed.smi

> <i_m_source_file_index>
1368

> <i_lp_mmshare_version>
43012

> <i_f3d_flags>
0

> <s_epik_input>
W0NIM11DKD1PKVtOSF1jMVtjSF1bY0hdYyhbY0hdW2NIXTEpT1tDSDJdW0NASF0oW09IXSlbQ0gyXW4oYyhuMilbQ0gzXSljKGMyMylbY0hdW2NIXVtjSF1bY0hdMw==

> <s_epik_cmdline>
J2VwaWtfcHl0aG9uJywgJy1waCcsICc3LjAnLCAnLXRuJywgJzgnLCAnLW1hJywgJzIwMCcsICctbWV0YWxfYmluZGluZycsICctaW1hZScsICc8aW5maWxlLm1hZT4nLCAnLW9tYWUnLCAnPG91dGZpbGUubWFlPic=

> <r_lp_tautomer_probability>
1

> <r_epik_Ionization_Penalty>
0.119634

> <r_epik_Ionization_Penalty_Charging>
0

> <r_epik_Ionization_Penalty_Neutral>
0.119634

> <r_epik_State_Penalty>
0.10919

> <r_epik_Charging_Adjusted_Penalty>
0.10919

> <i_epik_Tot_Q>
0

> <i_epik_Tot_abs_Q>
0

> <r_epik_Metal_State_Penalty>
0.0906856

> <b_epik_Metal_Only>
0

> <s_lp_Force_Field>
OPLS_2005

> <r_lp_Energy>
21.7849

> <b_lp_Chiralities_Consistent>
1

> <s_lp_Variant>
AV-unprocessed.smi:1368-1

> <Gold.Version>
5.8.1

> <Gold.Id.Protein>
6NUR|6NUR_protein|mol2

> <Gold.PLP.Fitness>
51.9632

> <Gold.PLP.PLP>
-46.9911

> <Gold.PLP.part.hbond>
-3.0000

> <Gold.PLP.part.metal>
0.0000

> <Gold.PLP.part.buried>
-2.9367

> <Gold.PLP.part.nonpolar>
-41.4159

> <Gold.PLP.part.repulsive>
0.1909

> <Gold.PLP.ligand.clash>
0.0000

> <Gold.PLP.ligand.torsion>
1.6460

> <Gold.PLP.Chemscore.Hbond>
2.7120

> <Gold.PLP.Chemscore.CHOScore>
0.0000

> <Gold.PLP.Chemscore.Metal>
0.0000

> <Gold.Chemscore.Hbonds>
donor molecule, donor type, donor heavy atom, donor atom, acceptor molecule, acceptor atom, score
      L1  H     4    29       P1 10171  0.85
      L1  H    12    35       P1  8028  1.00
      P1  H  7997  8009       L1    17  0.84

> <Gold.PLP.Chemscore.Internal.Correction>
0.1281

> <Gold.Rescore>
     Score         DG    S(hbond)    S(metal)    S(lipo)     H(rot)  DE(clash)    DE(int)     intcor
     17.33     -20.23       1.92        0.00     123.72       2.39       0.24       2.66       ----

> <Gold.Chemscore.Fitness>
17.3281

> <Gold.Chemscore.DG>
-20.2299

> <Gold.Chemscore.ZeroCoef>
-5.4800

> <Gold.Chemscore.Hbond>
1.9150

> <Gold.Chemscore.Metal>
0.0000

> <Gold.Chemscore.Lipo>
123.7233

> <Gold.Chemscore.Internal_Hbond>
0.0000

> <Gold.Chemscore.DEClash>
0.2392

> <Gold.Chemscore.DEInternal>
2.6626

> <Gold.Chemscore.Rot>
2.3914

> <Gold.Chemscore.Internal.Correction>
   9.000000E+99

> <Gold.Chemscore.Hbonds>
donor molecule, donor type, donor heavy atom, donor atom, acceptor molecule, acceptor atom, score
      L1  H     4    29       P1 10171  0.81
      L1  H    12    35       P1  8028  0.55
      P1  H  7997  8009       L1    17  0.08

> <Gold.Chemscore.Hbond.Weighted>
-6.3963

> <Gold.Chemscore.Metal.Weighted>
-0.0000

> <Gold.Chemscore.Lipo.Weighted>
-14.4756

> <Gold.Chemscore.Internal_Hbond.Weighted>
0.0000

> <Gold.Chemscore.DEClash.Weighted>
0.2392

> <Gold.Chemscore.DEInternal.Weighted>
2.6626

> <Gold.Chemscore.Rot.Weighted>
6.1220

> <Gold.Chemscore.Internal.Correction.Weighted>
   9.000000E+99

> <Gold.Protein.RotatedTorsions>
[ 6907 6896 6895 6894 ] final   99.83 input  -60.11 | X-H torsion
[ 7974 7965 7964 7962 ] final -179.32 input  175.53 | X-H torsion
[ 8008 7997 7996 7995 ] final  145.91 input   59.86 | X-H torsion
[ 10167 10162 10161 10158 ] final  141.84 input  -65.29 | X-H torsion
[ 10718 10713 10712 10709 ] final   12.44 input   66.30 | X-H torsion
[ 10763 10752 10751 10750 ] final -107.32 input  -60.55 | X-H torsion
[ 11005 11000 10999 10996 ] final  -80.80 input  -57.11 | X-H torsion

> <Gold.Protein.ActiveResidues>
 VAL166  LYS551  ARG553  GLY616  TRP617  ASP618  TYR619  PRO620  LYS621  CYS622 
 ASP623  PHE694  ASN695  SER759  ASP760  ASP761  ALA762  ILE779  LEU786  VAL792 
 PHE793  MET794  SER795  GLU796  ALA797  LYS798  CYS799  TRP800  GLU811  SER814 

> <Gold.Protein.RotatedAtoms>
  152.5384  134.0369  159.8049 H   0  0  0  0  0  0  0  0  0  0  0  0  # atno 6907 bound_to 6896
  151.0531  133.5599  159.2648 H   0  0  0  0  0  0  0  0  0  0  0  0  # atno 6908 bound_to 6896
  151.2526  135.0635  159.9121 H   0  0  0  0  0  0  0  0  0  0  0  0  # atno 6909 bound_to 6896
  144.7136  140.0735  143.6428 H   0  0  0  0  0  0  0  0  0  0  0  0  # atno 7974 bound_to 7965
  156.2870  140.2196  156.5291 H   0  0  0  0  0  0  0  0  0  0  0  0  # atno 8008 bound_to 7997
  154.7464  140.0484  157.0877 H   0  0  0  0  0  0  0  0  0  0  0  0  # atno 8009 bound_to 7997
  155.0165  140.3119  155.4812 H   0  0  0  0  0  0  0  0  0  0  0  0  # atno 8010 bound_to 7997
  139.5010  144.6146  151.6194 H   0  0  0  0  0  0  0  0  0  0  0  0  # atno 10167 bound_to 10162
  157.0102  130.6114  149.5707 H   0  0  0  0  0  0  0  0  0  0  0  0  # atno 10718 bound_to 10713
  154.8068  135.4679  154.0412 H   0  0  0  0  0  0  0  0  0  0  0  0  # atno 10763 bound_to 10752
  153.1875  135.6850  153.8403 H   0  0  0  0  0  0  0  0  0  0  0  0  # atno 10764 bound_to 10752
  153.7932  135.3240  155.3358 H   0  0  0  0  0  0  0  0  0  0  0  0  # atno 10765 bound_to 10752
  141.1667  133.7167  156.8327 H   0  0  0  0  0  0  0  0  0  0  0  0  # atno 11005 bound_to 11000
  145.9763  139.2907  143.1068 LP  0  0  0  0  0  0  0  0  0  0  0  0  # atno 17320 bound_to 7965
  145.9060  140.9211  143.0478 LP  0  0  0  0  0  0  0  0  0  0  0  0  # atno 17321 bound_to 7965
  140.5830  143.9913  150.6279 LP  0  0  0  0  0  0  0  0  0  0  0  0  # atno 17342 bound_to 10162
  140.3068  143.3224  152.0918 LP  0  0  0  0  0  0  0  0  0  0  0  0  # atno 17343 bound_to 10162
  156.0139  130.5232  150.8074 LP  0  0  0  0  0  0  0  0  0  0  0  0  # atno 17370 bound_to 10713
  157.5326  131.0937  150.9935 LP  0  0  0  0  0  0  0  0  0  0  0  0  # atno 17371 bound_to 10713
  140.2040  134.8876  157.3200 LP  0  0  0  0  0  0  0  0  0  0  0  0  # atno 17394 bound_to 11000
  140.2157  134.4084  155.7590 LP  0  0  0  0  0  0  0  0  0  0  0  0  # atno 17395 bound_to 11000

$$$$
