AV-unprocessed.smi:713|AV-procd|sdf|3481|dock2
  -GOLD-   22720 0473D 1   1.00000     0.00000
 Structure written by MMmdl.
 41 42  0  0  0  0  0  0  0  0  1 V2000
  153.4060  141.7046  161.0913 C   0  0  0  0  0  0  0  0  0  0  0  0
  153.1906  142.1857  159.6416 C   0  0  1  0  0  0  0  0  0  0  0  0
  152.6935  141.0718  158.7021 C   0  0  0  0  0  0  0  0  0  0  0  0
  153.3399  140.0336  158.5550 O   0  0  0  0  0  0  0  0  0  0  0  0
  151.5416  141.3114  158.0546 N   0  0  0  0  0  0  0  0  0  0  0  0
  150.8877  140.3992  157.1229 C   0  0  1  0  0  0  0  0  0  0  0  0
  149.7292  141.1326  156.4236 C   0  0  0  0  0  0  0  0  0  0  0  0
  149.0358  140.2411  155.3820 C   0  0  0  0  0  0  0  0  0  0  0  0
  150.0410  139.6699  154.3656 C   0  0  0  0  0  0  0  0  0  0  0  0
  151.2535  138.9679  155.0191 C   0  0  2  0  0  0  0  0  0  0  0  0
  150.8569  137.2879  155.7142 S   0  0  0  0  0  0  0  0  0  0  0  0
  149.0495  137.1429  155.3965 C   0  0  0  0  0  0  0  0  0  0  0  0
  151.5476  136.2813  154.8942 O   0  0  0  0  0  0  0  0  0  0  0  0
  151.0528  137.2858  157.1712 O   0  0  0  0  0  0  0  0  0  0  0  0
  151.9017  139.8730  156.0857 C   0  0  0  0  0  0  0  0  0  0  0  0
  152.3116  143.3495  159.5817 N   0  0  0  0  0  0  0  0  0  0  0  0
  152.5613  144.5716  158.9906 C   0  0  0  0  0  0  0  0  0  0  0  0
  151.4434  145.3396  159.1465 C   0  0  0  0  0  0  0  0  0  0  0  0
  150.5451  144.4896  159.8491 C   0  0  0  0  0  0  0  0  0  0  0  0
  151.0633  143.2992  160.1024 N   0  0  0  0  0  0  0  0  0  0  0  0
  154.1261  140.8865  161.1331 H   0  0  0  0  0  0  0  0  0  0  0  0
  152.4790  141.3533  161.5464 H   0  0  0  0  0  0  0  0  0  0  0  0
  153.7945  142.5113  161.7136 H   0  0  0  0  0  0  0  0  0  0  0  0
  154.1630  142.4999  159.2593 H   0  0  0  0  0  0  0  0  0  0  0  0
  151.0746  142.1883  158.2334 H   0  0  0  0  0  0  0  0  0  0  0  0
  150.4727  139.5630  157.6869 H   0  0  0  0  0  0  0  0  0  0  0  0
  148.9994  141.4680  157.1617 H   0  0  0  0  0  0  0  0  0  0  0  0
  150.1054  142.0309  155.9318 H   0  0  0  0  0  0  0  0  0  0  0  0
  148.4970  139.4391  155.8829 H   0  0  0  0  0  0  0  0  0  0  0  0
  148.2765  140.8198  154.8556 H   0  0  0  0  0  0  0  0  0  0  0  0
  149.5312  139.0011  153.6736 H   0  0  0  0  0  0  0  0  0  0  0  0
  150.4120  140.4940  153.7553 H   0  0  0  0  0  0  0  0  0  0  0  0
  151.9979  138.7853  154.2436 H   0  0  0  0  0  0  0  0  0  0  0  0
  148.7197  136.1379  155.6587 H   0  0  0  0  0  0  0  0  0  0  0  0
  148.8470  137.3232  154.3413 H   0  0  0  0  0  0  0  0  0  0  0  0
  148.5039  137.8636  156.0040 H   0  0  0  0  0  0  0  0  0  0  0  0
  152.3708  140.7213  155.5853 H   0  0  0  0  0  0  0  0  0  0  0  0
  152.7098  139.3371  156.5850 H   0  0  0  0  0  0  0  0  0  0  0  0
  153.5042  144.7905  158.5113 H   0  0  0  0  0  0  0  0  0  0  0  0
  151.2896  146.3532  158.8074 H   0  0  0  0  0  0  0  0  0  0  0  0
  149.5374  144.6989  160.1764 H   0  0  0  0  0  0  0  0  0  0  0  0
  1  2  1  0  0  0  0
  1 21  1  0  0  0  0
  1 22  1  0  0  0  0
  1 23  1  0  0  0  0
  2  3  1  0  0  0  0
  2 16  1  0  0  0  0
  2 24  1  0  0  0  0
  3  4  2  0  0  0  0
  3  5  1  0  0  0  0
  5  6  1  0  0  0  0
  5 25  1  0  0  0  0
  6 15  1  0  0  0  0
  6  7  1  0  0  0  0
  6 26  1  0  0  0  0
  7  8  1  0  0  0  0
  7 27  1  0  0  0  0
  7 28  1  0  0  0  0
  8  9  1  0  0  0  0
  8 29  1  0  0  0  0
  8 30  1  0  0  0  0
  9 10  1  0  0  0  0
  9 31  1  0  0  0  0
  9 32  1  0  0  0  0
 10 11  1  0  0  0  0
 10 15  1  0  0  0  0
 10 33  1  0  0  0  0
 11 12  1  0  0  0  0
 11 13  2  0  0  0  0
 11 14  2  0  0  0  0
 12 34  1  0  0  0  0
 12 35  1  0  0  0  0
 12 36  1  0  0  0  0
 15 37  1  0  0  0  0
 15 38  1  0  0  0  0
 16 20  1  0  0  0  0
 16 17  1  0  0  0  0
 17 18  2  0  0  0  0
 17 39  1  0  0  0  0
 18 19  1  0  0  0  0
 18 40  1  0  0  0  0
 19 20  2  0  0  0  0
 19 41  1  0  0  0  0
M  END
> <s_m_source_file>
AV-unprocessed.smi

> <i_m_source_file_index>
713

> <i_lp_mmshare_version>
43012

> <i_f3d_flags>
0

> <s_epik_input>
bjFbY0hdW2NIXVtjSF1uMVtDQEhdKFtDSDNdKUMoPU8pW05IXVtDQEBIXTJbQ0gyXVtDSDJdW0NIMl1bQ0BIXShbQ0gyXTIpUyg9TykoPU8pW0NIM10=

> <s_epik_cmdline>
J2VwaWtfcHl0aG9uJywgJy1waCcsICc3LjAnLCAnLXRuJywgJzgnLCAnLW1hJywgJzIwMCcsICctbWV0YWxfYmluZGluZycsICctaW1hZScsICc8aW5maWxlLm1hZT4nLCAnLW9tYWUnLCAnPG91dGZpbGUubWFlPic=

> <r_lp_tautomer_probability>
1

> <r_epik_Ionization_Penalty>
4.07816e-05

> <r_epik_Ionization_Penalty_Charging>
0

> <r_epik_Ionization_Penalty_Neutral>
4.07816e-05

> <r_epik_State_Penalty>
-0

> <r_epik_Charging_Adjusted_Penalty>
0

> <i_epik_Tot_Q>
0

> <i_epik_Tot_abs_Q>
0

> <r_epik_Metal_State_Penalty>
-0

> <b_epik_Metal_Only>
0

> <s_lp_Force_Field>
OPLS_2005

> <r_lp_Energy>
4.31355

> <b_lp_Chiralities_Consistent>
1

> <s_lp_Variant>
AV-unprocessed.smi:713-8

> <Gold.Version>
5.8.1

> <Gold.Id.Protein>
6NUR|6NUR_protein|mol2

> <Gold.PLP.Fitness>
47.4221

> <Gold.PLP.PLP>
-41.8163

> <Gold.PLP.part.hbond>
-3.0000

> <Gold.PLP.part.metal>
0.0000

> <Gold.PLP.part.buried>
-4.5053

> <Gold.PLP.part.nonpolar>
-34.8557

> <Gold.PLP.part.repulsive>
0.2749

> <Gold.PLP.ligand.clash>
0.0000

> <Gold.PLP.ligand.torsion>
0.3535

> <Gold.PLP.Chemscore.Hbond>
2.0000

> <Gold.PLP.Chemscore.CHOScore>
0.0000

> <Gold.PLP.Chemscore.Metal>
0.0000

> <Gold.Chemscore.Hbonds>
donor molecule, donor type, donor heavy atom, donor atom, acceptor molecule, acceptor atom, score
      P1  H  7997  8008       L1     4  1.00
      P1  H 10752 10765       L1    13  1.00

> <Gold.PLP.Chemscore.Internal.Correction>
0.3129

> <Gold.Rescore>
     Score         DG    S(hbond)    S(metal)    S(lipo)     H(rot)  DE(clash)    DE(int)     intcor
     15.77     -18.87       1.92        0.00      97.40       1.72       0.12       2.98       ----

> <Gold.Chemscore.Fitness>
15.7678

> <Gold.Chemscore.DG>
-18.8745

> <Gold.Chemscore.ZeroCoef>
-5.4800

> <Gold.Chemscore.Hbond>
1.9205

> <Gold.Chemscore.Metal>
0.0000

> <Gold.Chemscore.Lipo>
97.4005

> <Gold.Chemscore.Internal_Hbond>
0.0000

> <Gold.Chemscore.DEClash>
0.1222

> <Gold.Chemscore.DEInternal>
2.9845

> <Gold.Chemscore.Rot>
1.7249

> <Gold.Chemscore.Internal.Correction>
   9.000000E+99

> <Gold.Chemscore.Hbonds>
donor molecule, donor type, donor heavy atom, donor atom, acceptor molecule, acceptor atom, score
      P1  H  7997  8008       L1     4  0.89
      P1  H 10752 10765       L1    13  0.98

> <Gold.Chemscore.Hbond.Weighted>
-6.4144

> <Gold.Chemscore.Metal.Weighted>
-0.0000

> <Gold.Chemscore.Lipo.Weighted>
-11.3959

> <Gold.Chemscore.Internal_Hbond.Weighted>
0.0000

> <Gold.Chemscore.DEClash.Weighted>
0.1222

> <Gold.Chemscore.DEInternal.Weighted>
2.9845

> <Gold.Chemscore.Rot.Weighted>
4.4157

> <Gold.Chemscore.Internal.Correction.Weighted>
   9.000000E+99

> <Gold.Protein.RotatedTorsions>
[ 6907 6896 6895 6894 ] final   91.66 input  -60.11 | X-H torsion
[ 7974 7965 7964 7962 ] final  -18.59 input  175.53 | X-H torsion
[ 8008 7997 7996 7995 ] final  -95.60 input   59.86 | X-H torsion
[ 10167 10162 10161 10158 ] final  -78.32 input  -65.29 | X-H torsion
[ 10718 10713 10712 10709 ] final  -90.35 input   66.30 | X-H torsion
[ 10763 10752 10751 10750 ] final -167.10 input  -60.55 | X-H torsion
[ 11005 11000 10999 10996 ] final -165.60 input  -57.11 | X-H torsion

> <Gold.Protein.ActiveResidues>
 VAL166  LYS551  ARG553  GLY616  TRP617  ASP618  TYR619  PRO620  LYS621  CYS622 
 ASP623  PHE694  ASN695  SER759  ASP760  ASP761  ALA762  ILE779  LEU786  VAL792 
 PHE793  MET794  SER795  GLU796  ALA797  LYS798  CYS799  TRP800  GLU811  SER814 

> <Gold.Protein.RotatedAtoms>
  152.5451  134.1623  159.8562 H   0  0  0  0  0  0  0  0  0  0  0  0  # atno 6907 bound_to 6896
  151.1640  133.4819  159.2601 H   0  0  0  0  0  0  0  0  0  0  0  0  # atno 6908 bound_to 6896
  151.1343  135.0158  159.8652 H   0  0  0  0  0  0  0  0  0  0  0  0  # atno 6909 bound_to 6896
  146.1884  140.3943  142.8467 H   0  0  0  0  0  0  0  0  0  0  0  0  # atno 7974 bound_to 7965
  154.7634  140.0478  157.0992 H   0  0  0  0  0  0  0  0  0  0  0  0  # atno 8008 bound_to 7997
  154.9909  140.3113  155.4887 H   0  0  0  0  0  0  0  0  0  0  0  0  # atno 8009 bound_to 7997
  156.2908  140.2219  156.5014 H   0  0  0  0  0  0  0  0  0  0  0  0  # atno 8010 bound_to 7997
  140.4692  143.2431  151.8230 H   0  0  0  0  0  0  0  0  0  0  0  0  # atno 10167 bound_to 10162
  155.9987  130.4906  150.5309 H   0  0  0  0  0  0  0  0  0  0  0  0  # atno 10718 bound_to 10713
  154.6767  135.2948  154.9669 H   0  0  0  0  0  0  0  0  0  0  0  0  # atno 10763 bound_to 10752
  154.0678  135.6622  153.4824 H   0  0  0  0  0  0  0  0  0  0  0  0  # atno 10764 bound_to 10752
  153.0520  135.5167  154.7789 H   0  0  0  0  0  0  0  0  0  0  0  0  # atno 10765 bound_to 10752
  140.5739  134.5210  157.5167 H   0  0  0  0  0  0  0  0  0  0  0  0  # atno 11005 bound_to 11000
  144.8440  140.6901  143.6211 LP  0  0  0  0  0  0  0  0  0  0  0  0  # atno 17320 bound_to 7965
  145.3868  139.1625  143.4251 LP  0  0  0  0  0  0  0  0  0  0  0  0  # atno 17321 bound_to 7965
  139.4816  144.4912  151.9182 LP  0  0  0  0  0  0  0  0  0  0  0  0  # atno 17342 bound_to 10162
  140.3997  144.2508  150.5894 LP  0  0  0  0  0  0  0  0  0  0  0  0  # atno 17343 bound_to 10162
  157.3258  131.0690  151.1897 LP  0  0  0  0  0  0  0  0  0  0  0  0  # atno 17370 bound_to 10713
  157.2795  130.6743  149.6059 LP  0  0  0  0  0  0  0  0  0  0  0  0  # atno 17371 bound_to 10713
  139.9349  134.7895  156.0831 LP  0  0  0  0  0  0  0  0  0  0  0  0  # atno 17394 bound_to 11000
  141.1039  133.6667  156.2817 LP  0  0  0  0  0  0  0  0  0  0  0  0  # atno 17395 bound_to 11000

$$$$
