AV-unprocessed.smi:3149|AV-procd|sdf|12001|dock1
  -GOLD-   2272017403D 1   1.00000     0.00000
 Structure written by MMmdl.
 38 39  0  0  0  0  0  0  0  0  2 V2000
  146.9338  140.9088  153.6762 C   0  0  0  0  0  0  0  0  0  0  0  0
  148.0781  139.8783  153.5672 C   0  0  2  0  0  0  0  0  0  0  0  0
  147.5346  138.5413  153.2347 N   0  3  0  0  0  0  0  0  0  0  0  0
  146.3715  138.5364  152.3220 C   0  0  0  0  0  0  0  0  0  0  0  0
  145.3173  137.5156  152.7611 C   0  0  0  0  0  0  0  0  0  0  0  0
  144.6936  137.6711  153.8117 O   0  0  0  0  0  0  0  0  0  0  0  0
  145.1709  136.3663  151.9814 N   0  0  0  0  0  0  0  0  0  0  0  0
  143.8740  135.7336  151.7910 C   0  0  0  0  0  0  0  0  0  0  0  0
  144.4105  135.2943  150.4247 C   0  0  0  0  0  0  0  0  0  0  0  0
  145.4866  136.3763  150.5609 C   0  0  0  0  0  0  0  0  0  0  0  0
  148.9352  139.7870  154.8585 C   0  0  1  0  0  0  0  0  0  0  0  0
  148.2177  139.0255  155.9905 C   0  0  0  0  0  0  0  0  0  0  0  0
  150.2449  139.1966  154.6120 N   0  0  0  0  0  0  0  0  0  0  0  0
  150.5369  137.9644  154.0636 C   0  0  0  0  0  0  0  0  0  0  0  0
  151.8963  137.8419  154.0340 C   0  0  0  0  0  0  0  0  0  0  0  0
  152.3589  139.0675  154.5884 C   0  0  0  0  0  0  0  0  0  0  0  0
  151.3696  139.8763  154.9325 N   0  0  0  0  0  0  0  0  0  0  0  0
  147.3112  141.9164  153.8503 H   0  0  0  0  0  0  0  0  0  0  0  0
  146.2578  140.6627  154.4955 H   0  0  0  0  0  0  0  0  0  0  0  0
  146.3431  140.9572  152.7619 H   0  0  0  0  0  0  0  0  0  0  0  0
  148.7357  140.1874  152.7529 H   0  0  0  0  0  0  0  0  0  0  0  0
  148.2673  138.0211  152.7730 H   0  0  0  0  0  0  0  0  0  0  0  0
  145.9261  139.5308  152.2905 H   0  0  0  0  0  0  0  0  0  0  0  0
  146.6980  138.2863  151.3120 H   0  0  0  0  0  0  0  0  0  0  0  0
  143.6714  134.9153  152.4828 H   0  0  0  0  0  0  0  0  0  0  0  0
  143.0461  136.4416  151.7185 H   0  0  0  0  0  0  0  0  0  0  0  0
  144.8143  134.2801  150.4239 H   0  0  0  0  0  0  0  0  0  0  0  0
  143.7164  135.4545  149.5990 H   0  0  0  0  0  0  0  0  0  0  0  0
  145.2231  137.3094  150.0585 H   0  0  0  0  0  0  0  0  0  0  0  0
  146.4988  136.0432  150.3287 H   0  0  0  0  0  0  0  0  0  0  0  0
  149.1171  140.8037  155.2118 H   0  0  0  0  0  0  0  0  0  0  0  0
  147.2946  139.5233  156.2881 H   0  0  0  0  0  0  0  0  0  0  0  0
  148.8484  138.9600  156.8776 H   0  0  0  0  0  0  0  0  0  0  0  0
  147.9627  138.0085  155.6904 H   0  0  0  0  0  0  0  0  0  0  0  0
  149.7619  137.2824  153.7457 H   0  0  0  0  0  0  0  0  0  0  0  0
  152.4731  137.0045  153.6704 H   0  0  0  0  0  0  0  0  0  0  0  0
  153.3765  139.3912  154.7504 H   0  0  0  0  0  0  0  0  0  0  0  0
  147.2931  138.0574  154.0877 H   0  0  0  0  0  0  0  0  0  0  0  0
  1  2  1  0  0  0  0
  1 18  1  0  0  0  0
  1 19  1  0  0  0  0
  1 20  1  0  0  0  0
  2  3  1  0  0  0  0
  2 11  1  0  0  0  0
  2 21  1  0  0  0  0
  3  4  1  0  0  0  0
  3 22  1  0  0  0  0
  3 38  1  0  0  0  0
  4  5  1  0  0  0  0
  4 23  1  0  0  0  0
  4 24  1  0  0  0  0
  5  6  2  0  0  0  0
  5  7  1  0  0  0  0
  7 10  1  0  0  0  0
  7  8  1  0  0  0  0
  8  9  1  0  0  0  0
  8 25  1  0  0  0  0
  8 26  1  0  0  0  0
  9 10  1  0  0  0  0
  9 27  1  0  0  0  0
  9 28  1  0  0  0  0
 10 29  1  0  0  0  0
 10 30  1  0  0  0  0
 11 12  1  0  0  0  0
 11 13  1  0  0  0  0
 11 31  1  0  0  0  0
 12 32  1  0  0  0  0
 12 33  1  0  0  0  0
 12 34  1  0  0  0  0
 13 17  1  0  0  0  0
 13 14  1  0  0  0  0
 14 15  2  0  0  0  0
 14 35  1  0  0  0  0
 15 16  1  0  0  0  0
 15 36  1  0  0  0  0
 16 17  2  0  0  0  0
 16 37  1  0  0  0  0
M  CHG  1   3   1
M  END
> <s_m_source_file>
AV-unprocessed.smi

> <i_m_source_file_index>
3149

> <i_lp_mmshare_version>
43012

> <i_f3d_flags>
0

> <s_epik_input>
bjFbY0hdW2NIXVtjSF1uMVtDQEBIXShbQ0gzXSlbQ0BIXShbQ0gzXSlbTkhdW0NIMl1DKD1PKU4yW0NIMl1bQ0gyXVtDSDJdMg==

> <s_epik_cmdline>
J2VwaWtfcHl0aG9uJywgJy1waCcsICc3LjAnLCAnLXRuJywgJzgnLCAnLW1hJywgJzIwMCcsICctbWV0YWxfYmluZGluZycsICctaW1hZScsICc8aW5maWxlLm1hZT4nLCAnLW9tYWUnLCAnPG91dGZpbGUubWFlPic=

> <r_lp_tautomer_probability>
1

> <r_epik_Ionization_Penalty>
0.141739

> <r_epik_Ionization_Penalty_Charging>
0.141731

> <r_epik_Ionization_Penalty_Neutral>
8.82171e-06

> <r_epik_State_Penalty>
0.131043

> <r_epik_Charging_Adjusted_Penalty>
0.272773

> <i_epik_Tot_Q>
1

> <i_epik_Tot_abs_Q>
1

> <r_epik_Metal_State_Penalty>
0.131384

> <b_epik_Metal_Only>
0

> <s_lp_Force_Field>
OPLS_2005

> <r_lp_Energy>
21.3939

> <b_lp_Chiralities_Consistent>
1

> <s_lp_Variant>
AV-unprocessed.smi:3149-3

> <Gold.Version>
5.8.1

> <Gold.Id.Protein>
6NUR|6NUR_protein|mol2

> <Gold.PLP.Fitness>
43.0915

> <Gold.PLP.PLP>
-32.8336

> <Gold.PLP.part.hbond>
-2.2062

> <Gold.PLP.part.metal>
0.0000

> <Gold.PLP.part.buried>
-0.8604

> <Gold.PLP.part.nonpolar>
-31.6301

> <Gold.PLP.part.repulsive>
0.2809

> <Gold.PLP.ligand.clash>
0.0000

> <Gold.PLP.ligand.torsion>
1.3401

> <Gold.PLP.Chemscore.Hbond>
3.0000

> <Gold.PLP.Chemscore.CHOScore>
1.0000

> <Gold.PLP.Chemscore.Metal>
0.0000

> <Gold.Chemscore.Hbonds>
donor molecule, donor type, donor heavy atom, donor atom, acceptor molecule, acceptor atom, score
      L1  H     3    22       P1  7948  1.62
      P1  H  7989  7998       L1    17  0.55
      L1  C    14    35       P1  7948  1.00

> <Gold.PLP.Chemscore.Internal.Correction>
0.9381

> <Gold.Rescore>
     Score         DG    S(hbond)    S(metal)    S(lipo)     H(rot)  DE(clash)    DE(int)     intcor
     11.87     -15.12       1.76        0.00      72.79       1.85       2.07       1.18       ----

> <Gold.Chemscore.Fitness>
11.8696

> <Gold.Chemscore.DG>
-15.1199

> <Gold.Chemscore.ZeroCoef>
-5.4800

> <Gold.Chemscore.Hbond>
1.7575

> <Gold.Chemscore.Metal>
0.0000

> <Gold.Chemscore.Lipo>
72.7938

> <Gold.Chemscore.Internal_Hbond>
0.0000

> <Gold.Chemscore.DEClash>
2.0721

> <Gold.Chemscore.DEInternal>
1.1782

> <Gold.Chemscore.Rot>
1.8544

> <Gold.Chemscore.Internal.Correction>
   9.000000E+99

> <Gold.Chemscore.Hbonds>
donor molecule, donor type, donor heavy atom, donor atom, acceptor molecule, acceptor atom, score
      L1  H     3    22       P1  7948  0.77
      P1  H  7989  7998       L1    17  0.01

> <Gold.Chemscore.Hbond.Weighted>
-5.8701

> <Gold.Chemscore.Metal.Weighted>
-0.0000

> <Gold.Chemscore.Lipo.Weighted>
-8.5169

> <Gold.Chemscore.Internal_Hbond.Weighted>
0.0000

> <Gold.Chemscore.DEClash.Weighted>
2.0721

> <Gold.Chemscore.DEInternal.Weighted>
1.1782

> <Gold.Chemscore.Rot.Weighted>
4.7472

> <Gold.Chemscore.Internal.Correction.Weighted>
   9.000000E+99

> <Gold.Protein.RotatedTorsions>
[ 6907 6896 6895 6894 ] final  171.70 input  -60.11 | X-H torsion
[ 7974 7965 7964 7962 ] final -164.94 input  175.53 | X-H torsion
[ 8008 7997 7996 7995 ] final    2.07 input   59.86 | X-H torsion
[ 10167 10162 10161 10158 ] final -133.34 input  -65.29 | X-H torsion
[ 10718 10713 10712 10709 ] final  -16.80 input   66.30 | X-H torsion
[ 10763 10752 10751 10750 ] final  -54.61 input  -60.55 | X-H torsion
[ 11005 11000 10999 10996 ] final  -57.02 input  -57.11 | X-H torsion

> <Gold.Protein.ActiveResidues>
 VAL166  LYS551  ARG553  GLY616  TRP617  ASP618  TYR619  PRO620  LYS621  CYS622 
 ASP623  PHE694  ASN695  SER759  ASP760  ASP761  ALA762  ILE779  LEU786  VAL792 
 PHE793  MET794  SER795  GLU796  ALA797  LYS798  CYS799  TRP800  GLU811  SER814 

> <Gold.Protein.RotatedAtoms>
  151.7961  133.3364  159.3512 H   0  0  0  0  0  0  0  0  0  0  0  0  # atno 6907 bound_to 6896
  150.7375  134.5797  159.5942 H   0  0  0  0  0  0  0  0  0  0  0  0  # atno 6908 bound_to 6896
  152.3176  134.7421  160.0373 H   0  0  0  0  0  0  0  0  0  0  0  0  # atno 6909 bound_to 6896
  144.7283  140.2887  143.6224 H   0  0  0  0  0  0  0  0  0  0  0  0  # atno 7974 bound_to 7965
  154.6872  140.2645  155.6848 H   0  0  0  0  0  0  0  0  0  0  0  0  # atno 8008 bound_to 7997
  156.2719  140.2798  156.1361 H   0  0  0  0  0  0  0  0  0  0  0  0  # atno 8009 bound_to 7997
  155.0947  140.0374  157.2669 H   0  0  0  0  0  0  0  0  0  0  0  0  # atno 8010 bound_to 7997
  139.8993  143.6627  152.2598 H   0  0  0  0  0  0  0  0  0  0  0  0  # atno 10167 bound_to 10162
  156.5825  130.4778  149.6314 H   0  0  0  0  0  0  0  0  0  0  0  0  # atno 10718 bound_to 10713
  154.1776  135.6449  153.5025 H   0  0  0  0  0  0  0  0  0  0  0  0  # atno 10763 bound_to 10752
  153.0068  135.5398  154.6548 H   0  0  0  0  0  0  0  0  0  0  0  0  # atno 10764 bound_to 10752
  154.5903  135.2933  155.0614 H   0  0  0  0  0  0  0  0  0  0  0  0  # atno 10765 bound_to 10752
  141.1146  133.6610  156.4706 H   0  0  0  0  0  0  0  0  0  0  0  0  # atno 11005 bound_to 11000
  145.7877  139.1915  143.2121 LP  0  0  0  0  0  0  0  0  0  0  0  0  # atno 17320 bound_to 7965
  146.0781  140.7794  142.9655 LP  0  0  0  0  0  0  0  0  0  0  0  0  # atno 17321 bound_to 7965
  139.7040  144.7631  151.1225 LP  0  0  0  0  0  0  0  0  0  0  0  0  # atno 17342 bound_to 10162
  140.7710  143.5420  150.9302 LP  0  0  0  0  0  0  0  0  0  0  0  0  # atno 17343 bound_to 10162
  156.2619  130.6967  151.1738 LP  0  0  0  0  0  0  0  0  0  0  0  0  # atno 17370 bound_to 10713
  157.7323  131.0601  150.5635 LP  0  0  0  0  0  0  0  0  0  0  0  0  # atno 17371 bound_to 10713
  140.4681  134.6778  157.5117 LP  0  0  0  0  0  0  0  0  0  0  0  0  # atno 17394 bound_to 11000
  140.0060  134.6763  155.9454 LP  0  0  0  0  0  0  0  0  0  0  0  0  # atno 17395 bound_to 11000

$$$$
