AV-unprocessed.smi:1963|AV-procd|sdf|7926|dock8
  -GOLD-   2272010 93D 1   1.00000     0.00000
 Structure written by MMmdl.
 47 48  0  0  0  0  0  0  0  0  1 V2000
  142.9011  141.5813  156.0919 C   0  0  0  0  0  0  0  0  0  0  0  0
  141.6262  140.7855  155.8361 C   0  0  0  0  0  0  0  0  0  0  0  0
  140.8740  140.5061  156.7695 O   0  0  0  0  0  0  0  0  0  0  0  0
  141.3938  140.4284  154.5631 N   0  0  0  0  0  0  0  0  0  0  0  0
  140.2422  139.6526  154.0964 C   0  0  2  0  0  0  0  0  0  0  0  0
  140.7277  138.2560  153.6606 C   0  0  0  0  0  0  0  0  0  0  0  0
  139.9719  137.2873  153.7477 O   0  0  0  0  0  0  0  0  0  0  0  0
  141.9893  138.2001  153.1956 N   0  0  0  0  0  0  0  0  0  0  0  0
  142.7249  137.0666  152.7571 C   0  0  0  0  0  0  0  0  0  0  0  0
  142.0365  135.8449  152.6204 C   0  0  0  0  0  0  0  0  0  0  0  0
  142.7316  134.7121  152.1565 C   0  0  0  0  0  0  0  0  0  0  0  0
  144.1011  134.8430  151.8319 C   0  0  0  0  0  0  0  0  0  0  0  0
  144.8521  133.7579  151.3605 N   0  0  0  0  0  0  0  0  0  0  0  0
  144.4486  133.2775  150.0448 C   0  0  0  0  0  0  0  0  0  0  0  0
  145.4180  132.1824  149.5682 C   0  0  0  0  0  0  0  0  0  0  0  0
  145.4639  131.1359  150.5344 O   0  0  0  0  0  0  0  0  0  0  0  0
  145.9291  131.5967  151.8004 C   0  0  0  0  0  0  0  0  0  0  0  0
  144.9820  132.6847  152.3368 C   0  0  0  0  0  0  0  0  0  0  0  0
  144.7674  136.0112  151.9545 N   0  0  0  0  0  0  0  0  0  0  0  0
  144.0953  137.0939  152.4012 C   0  0  0  0  0  0  0  0  0  0  0  0
  139.5894  140.3931  152.8915 C   0  0  0  0  0  0  0  0  0  0  0  0
  139.0236  141.7673  153.3013 C   0  0  0  0  0  0  0  0  0  0  0  0
  138.4732  139.5740  152.2098 C   0  0  0  0  0  0  0  0  0  0  0  0
  143.7533  141.1114  155.5998 H   0  0  0  0  0  0  0  0  0  0  0  0
  143.1139  141.6380  157.1598 H   0  0  0  0  0  0  0  0  0  0  0  0
  142.7958  142.5965  155.7089 H   0  0  0  0  0  0  0  0  0  0  0  0
  142.0716  140.6973  153.8645 H   0  0  0  0  0  0  0  0  0  0  0  0
  139.5113  139.5606  154.9028 H   0  0  0  0  0  0  0  0  0  0  0  0
  142.4611  139.0873  153.0958 H   0  0  0  0  0  0  0  0  0  0  0  0
  140.9878  135.7723  152.8694 H   0  0  0  0  0  0  0  0  0  0  0  0
  142.2195  133.7669  152.0545 H   0  0  0  0  0  0  0  0  0  0  0  0
  143.4353  132.8761  150.0871 H   0  0  0  0  0  0  0  0  0  0  0  0
  144.4394  134.1065  149.3359 H   0  0  0  0  0  0  0  0  0  0  0  0
  145.0844  131.7725  148.6149 H   0  0  0  0  0  0  0  0  0  0  0  0
  146.4178  132.5896  149.4089 H   0  0  0  0  0  0  0  0  0  0  0  0
  145.9665  130.7556  152.4927 H   0  0  0  0  0  0  0  0  0  0  0  0
  146.9473  131.9783  151.7073 H   0  0  0  0  0  0  0  0  0  0  0  0
  145.3643  133.0837  153.2773 H   0  0  0  0  0  0  0  0  0  0  0  0
  144.0008  132.2547  152.5430 H   0  0  0  0  0  0  0  0  0  0  0  0
  144.6795  137.9997  152.4439 H   0  0  0  0  0  0  0  0  0  0  0  0
  140.3593  140.5765  152.1398 H   0  0  0  0  0  0  0  0  0  0  0  0
  138.2613  141.6649  154.0742 H   0  0  0  0  0  0  0  0  0  0  0  0
  138.5657  142.2727  152.4507 H   0  0  0  0  0  0  0  0  0  0  0  0
  139.7980  142.4319  153.6842 H   0  0  0  0  0  0  0  0  0  0  0  0
  137.6886  139.3099  152.9194 H   0  0  0  0  0  0  0  0  0  0  0  0
  138.8491  138.6507  151.7691 H   0  0  0  0  0  0  0  0  0  0  0  0
  138.0098  140.1401  151.4015 H   0  0  0  0  0  0  0  0  0  0  0  0
  1  2  1  0  0  0  0
  1 24  1  0  0  0  0
  1 25  1  0  0  0  0
  1 26  1  0  0  0  0
  2  3  2  0  0  0  0
  2  4  1  0  0  0  0
  4  5  1  0  0  0  0
  4 27  1  0  0  0  0
  5  6  1  0  0  0  0
  5 21  1  0  0  0  0
  5 28  1  0  0  0  0
  6  7  2  0  0  0  0
  6  8  1  0  0  0  0
  8  9  1  0  0  0  0
  8 29  1  0  0  0  0
  9 20  1  0  0  0  0
  9 10  2  0  0  0  0
 10 11  1  0  0  0  0
 10 30  1  0  0  0  0
 11 12  2  0  0  0  0
 11 31  1  0  0  0  0
 12 13  1  0  0  0  0
 12 19  1  0  0  0  0
 13 18  1  0  0  0  0
 13 14  1  0  0  0  0
 14 15  1  0  0  0  0
 14 32  1  0  0  0  0
 14 33  1  0  0  0  0
 15 16  1  0  0  0  0
 15 34  1  0  0  0  0
 15 35  1  0  0  0  0
 16 17  1  0  0  0  0
 17 18  1  0  0  0  0
 17 36  1  0  0  0  0
 17 37  1  0  0  0  0
 18 38  1  0  0  0  0
 18 39  1  0  0  0  0
 19 20  2  0  0  0  0
 20 40  1  0  0  0  0
 21 22  1  0  0  0  0
 21 23  1  0  0  0  0
 21 41  1  0  0  0  0
 22 42  1  0  0  0  0
 22 43  1  0  0  0  0
 22 44  1  0  0  0  0
 23 45  1  0  0  0  0
 23 46  1  0  0  0  0
 23 47  1  0  0  0  0
M  END
> <s_m_source_file>
AV-unprocessed.smi

> <i_m_source_file_index>
1963

> <i_lp_mmshare_version>
43012

> <i_f3d_flags>
0

> <s_epik_input>
W0NIM11DKD1PKVtOSF1bQ0BASF0oW0NIXShbQ0gzXSlbQ0gzXSlDKD1PKVtOSF1jMVtjSF1bY0hdYyhuW2NIXTEpTjJbQ0gyXVtDSDJdT1tDSDJdW0NIMl0y

> <s_epik_cmdline>
J2VwaWtfcHl0aG9uJywgJy1waCcsICc3LjAnLCAnLXRuJywgJzgnLCAnLW1hJywgJzIwMCcsICctbWV0YWxfYmluZGluZycsICctaW1hZScsICc8aW5maWxlLm1hZT4nLCAnLW9tYWUnLCAnPG91dGZpbGUubWFlPic=

> <r_lp_tautomer_probability>
1

> <r_epik_Ionization_Penalty>
0.00051446

> <r_epik_Ionization_Penalty_Charging>
0

> <r_epik_Ionization_Penalty_Neutral>
0.00051446

> <r_epik_State_Penalty>
0.00031949

> <r_epik_Charging_Adjusted_Penalty>
0.00031949

> <i_epik_Tot_Q>
0

> <i_epik_Tot_abs_Q>
0

> <r_epik_Metal_State_Penalty>
-0

> <b_epik_Metal_Only>
0

> <s_lp_Force_Field>
OPLS_2005

> <r_lp_Energy>
27.6856

> <b_lp_Chiralities_Consistent>
1

> <s_lp_Variant>
AV-unprocessed.smi:1963-1

> <Gold.Version>
5.8.1

> <Gold.Id.Protein>
6NUR|6NUR_protein|mol2

> <Gold.PLP.Fitness>
38.0103

> <Gold.PLP.PLP>
-29.6063

> <Gold.PLP.part.hbond>
-2.0000

> <Gold.PLP.part.metal>
0.0000

> <Gold.PLP.part.buried>
-3.8022

> <Gold.PLP.part.nonpolar>
-24.4329

> <Gold.PLP.part.repulsive>
0.4045

> <Gold.PLP.ligand.clash>
0.0000

> <Gold.PLP.ligand.torsion>
0.9414

> <Gold.PLP.Chemscore.Hbond>
2.0000

> <Gold.PLP.Chemscore.CHOScore>
1.3821

> <Gold.PLP.Chemscore.Metal>
0.0000

> <Gold.Chemscore.Hbonds>
donor molecule, donor type, donor heavy atom, donor atom, acceptor molecule, acceptor atom, score
      L1  H     4    27       P1 10175  0.86
      L1  H     8    29       P1 10175  1.00
      L1  C    20    40       P1 10171  0.06
      L1  C    20    40       P1 10175  0.63

> <Gold.PLP.Chemscore.Internal.Correction>
0.1404

> <Gold.Rescore>
     Score         DG    S(hbond)    S(metal)    S(lipo)     H(rot)  DE(clash)    DE(int)     intcor
     12.91     -15.89       1.88        0.00      73.33       1.74       0.69       2.29       ----

> <Gold.Chemscore.Fitness>
12.9126

> <Gold.Chemscore.DG>
-15.8896

> <Gold.Chemscore.ZeroCoef>
-5.4800

> <Gold.Chemscore.Hbond>
1.8812

> <Gold.Chemscore.Metal>
0.0000

> <Gold.Chemscore.Lipo>
73.3267

> <Gold.Chemscore.Internal_Hbond>
0.0000

> <Gold.Chemscore.DEClash>
0.6909

> <Gold.Chemscore.DEInternal>
2.2861

> <Gold.Chemscore.Rot>
1.7394

> <Gold.Chemscore.Internal.Correction>
   9.000000E+99

> <Gold.Chemscore.Hbonds>
donor molecule, donor type, donor heavy atom, donor atom, acceptor molecule, acceptor atom, score
      L1  H     4    27       P1 10175  0.16
      L1  H     8    29       P1 10175  1.00

> <Gold.Chemscore.Hbond.Weighted>
-6.2832

> <Gold.Chemscore.Metal.Weighted>
-0.0000

> <Gold.Chemscore.Lipo.Weighted>
-8.5792

> <Gold.Chemscore.Internal_Hbond.Weighted>
0.0000

> <Gold.Chemscore.DEClash.Weighted>
0.6909

> <Gold.Chemscore.DEInternal.Weighted>
2.2861

> <Gold.Chemscore.Rot.Weighted>
4.4528

> <Gold.Chemscore.Internal.Correction.Weighted>
   9.000000E+99

> <Gold.Protein.RotatedTorsions>
[ 6907 6896 6895 6894 ] final   11.32 input  -60.11 | X-H torsion
[ 7974 7965 7964 7962 ] final  -60.94 input  175.53 | X-H torsion
[ 8008 7997 7996 7995 ] final -154.54 input   59.86 | X-H torsion
[ 10167 10162 10161 10158 ] final  171.12 input  -65.29 | X-H torsion
[ 10718 10713 10712 10709 ] final  -81.36 input   66.30 | X-H torsion
[ 10763 10752 10751 10750 ] final   47.35 input  -60.55 | X-H torsion
[ 11005 11000 10999 10996 ] final   -5.89 input  -57.11 | X-H torsion

> <Gold.Protein.ActiveResidues>
 VAL166  LYS551  ARG553  GLY616  TRP617  ASP618  TYR619  PRO620  LYS621  CYS622 
 ASP623  PHE694  ASN695  SER759  ASP760  ASP761  ALA762  ILE779  LEU786  VAL792 
 PHE793  MET794  SER795  GLU796  ALA797  LYS798  CYS799  TRP800  GLU811  SER814 

> <Gold.Protein.RotatedAtoms>
  151.7525  135.0829  160.0332 H   0  0  0  0  0  0  0  0  0  0  0  0  # atno 6907 bound_to 6896
  152.3407  133.6059  159.5883 H   0  0  0  0  0  0  0  0  0  0  0  0  # atno 6908 bound_to 6896
  150.7478  133.9642  159.3567 H   0  0  0  0  0  0  0  0  0  0  0  0  # atno 6909 bound_to 6896
  145.8095  140.8607  143.0189 H   0  0  0  0  0  0  0  0  0  0  0  0  # atno 7974 bound_to 7965
  155.6879  140.0752  157.2459 H   0  0  0  0  0  0  0  0  0  0  0  0  # atno 8008 bound_to 7997
  154.4094  140.1670  156.2106 H   0  0  0  0  0  0  0  0  0  0  0  0  # atno 8009 bound_to 7997
  155.9477  140.3379  155.6384 H   0  0  0  0  0  0  0  0  0  0  0  0  # atno 8010 bound_to 7997
  139.5037  144.3521  151.9912 H   0  0  0  0  0  0  0  0  0  0  0  0  # atno 10167 bound_to 10162
  156.0052  130.4601  150.3941 H   0  0  0  0  0  0  0  0  0  0  0  0  # atno 10718 bound_to 10713
  152.9801  135.5979  154.3748 H   0  0  0  0  0  0  0  0  0  0  0  0  # atno 10763 bound_to 10752
  154.3418  135.2767  155.2420 H   0  0  0  0  0  0  0  0  0  0  0  0  # atno 10764 bound_to 10752
  154.4498  135.5992  153.6239 H   0  0  0  0  0  0  0  0  0  0  0  0  # atno 10765 bound_to 10752
  140.6960  133.9030  155.8651 H   0  0  0  0  0  0  0  0  0  0  0  0  # atno 11005 bound_to 11000
  144.6759  140.0374  143.7481 LP  0  0  0  0  0  0  0  0  0  0  0  0  # atno 17320 bound_to 7965
  145.9793  139.2928  143.1052 LP  0  0  0  0  0  0  0  0  0  0  0  0  # atno 17321 bound_to 7965
  140.2957  144.3703  150.6075 LP  0  0  0  0  0  0  0  0  0  0  0  0  # atno 17342 bound_to 10162
  140.5912  143.2168  151.7250 LP  0  0  0  0  0  0  0  0  0  0  0  0  # atno 17343 bound_to 10162
  157.2014  131.0439  151.2648 LP  0  0  0  0  0  0  0  0  0  0  0  0  # atno 17370 bound_to 10713
  157.3972  130.7314  149.6740 LP  0  0  0  0  0  0  0  0  0  0  0  0  # atno 17371 bound_to 10713
  141.0202  134.0899  157.4128 LP  0  0  0  0  0  0  0  0  0  0  0  0  # atno 17394 bound_to 11000
  139.8910  135.0115  156.6766 LP  0  0  0  0  0  0  0  0  0  0  0  0  # atno 17395 bound_to 11000

$$$$
