AV-unprocessed.smi:9|AV-procd|sdf|49|dock1
  -GOLD-   2262015163D 1   1.00000     0.00000
 Structure written by MMmdl.
 34 36  0  0  0  0  0  0  0  0  2 V2000
  152.6442  138.4432  154.2296 O   0  0  0  0  0  0  0  0  0  0  0  0
  152.4611  138.8870  155.3615 C   0  0  0  0  0  0  0  0  0  0  0  0
  153.1035  138.4576  156.4930 N   0  5  0  0  0  0  0  0  0  0  0  0
  152.8231  139.0324  157.7377 C   0  0  0  0  0  0  0  0  0  0  0  0
  153.6058  138.4727  158.9209 C   0  0  0  0  0  0  0  0  0  0  0  0
  154.9196  138.4610  158.6825 F   0  0  0  0  0  0  0  0  0  0  0  0
  153.3956  139.2102  160.0122 F   0  0  0  0  0  0  0  0  0  0  0  0
  153.2255  137.2212  159.1809 F   0  0  0  0  0  0  0  0  0  0  0  0
  151.9700  139.9825  157.9505 N   0  0  0  0  0  0  0  0  0  0  0  0
  151.3069  140.4380  156.8322 C   0  0  0  0  0  0  0  0  0  0  0  0
  151.4702  139.9782  155.5560 C   0  0  0  0  0  0  0  0  0  0  0  0
  150.6387  140.6511  154.6679 N   0  0  0  0  0  0  0  0  0  0  0  0
  150.0021  141.5027  155.4722 C   0  0  0  0  0  0  0  0  0  0  0  0
  150.3512  141.4442  156.7734 N   0  0  0  0  0  0  0  0  0  0  0  0
  149.8236  142.2476  157.8669 C   0  0  0  0  0  0  0  0  0  0  0  0
  150.7848  143.3571  158.3666 C   0  0  1  0  0  0  0  0  0  0  0  0
  151.2464  144.0609  157.2285 O   0  0  0  0  0  0  0  0  0  0  0  0
  150.0843  144.3446  159.3264 C   0  0  0  0  0  0  0  0  0  0  0  0
  151.0872  145.2698  160.0225 C   0  0  0  0  0  0  0  0  0  0  0  0
  152.2051  144.4451  160.6698 C   0  0  0  0  0  0  0  0  0  0  0  0
  152.8596  143.6806  159.6670 O   0  0  0  0  0  0  0  0  0  0  0  0
  152.0211  142.7136  159.0389 C   0  0  0  0  0  0  0  0  0  0  0  0
  149.2611  142.1960  155.1023 H   0  0  0  0  0  0  0  0  0  0  0  0
  148.8892  142.6954  157.5260 H   0  0  0  0  0  0  0  0  0  0  0  0
  149.5544  141.5790  158.6859 H   0  0  0  0  0  0  0  0  0  0  0  0
  150.5339  144.1324  156.6118 H   0  0  0  0  0  0  0  0  0  0  0  0
  149.3375  144.9401  158.7999 H   0  0  0  0  0  0  0  0  0  0  0  0
  149.5459  143.7808  160.0894 H   0  0  0  0  0  0  0  0  0  0  0  0
  151.5156  145.9663  159.3008 H   0  0  0  0  0  0  0  0  0  0  0  0
  150.5793  145.8732  160.7753 H   0  0  0  0  0  0  0  0  0  0  0  0
  152.9338  145.1055  161.1402 H   0  0  0  0  0  0  0  0  0  0  0  0
  151.8130  143.7915  161.4505 H   0  0  0  0  0  0  0  0  0  0  0  0
  151.7050  141.9930  159.7948 H   0  0  0  0  0  0  0  0  0  0  0  0
  152.6100  142.1550  158.3102 H   0  0  0  0  0  0  0  0  0  0  0  0
  1  2  2  0  0  0  0
  2 11  1  0  0  0  0
  2  3  1  0  0  0  0
  3  4  1  0  0  0  0
  4  5  1  0  0  0  0
  4  9  2  0  0  0  0
  5  6  1  0  0  0  0
  5  7  1  0  0  0  0
  5  8  1  0  0  0  0
  9 10  1  0  0  0  0
 10 14  1  0  0  0  0
 10 11  2  0  0  0  0
 11 12  1  0  0  0  0
 12 13  2  0  0  0  0
 13 14  1  0  0  0  0
 13 23  1  0  0  0  0
 14 15  1  0  0  0  0
 15 16  1  0  0  0  0
 15 24  1  0  0  0  0
 15 25  1  0  0  0  0
 16 22  1  0  0  0  0
 16 17  1  0  0  0  0
 16 18  1  0  0  0  0
 17 26  1  0  0  0  0
 18 19  1  0  0  0  0
 18 27  1  0  0  0  0
 18 28  1  0  0  0  0
 19 20  1  0  0  0  0
 19 29  1  0  0  0  0
 19 30  1  0  0  0  0
 20 21  1  0  0  0  0
 20 31  1  0  0  0  0
 20 32  1  0  0  0  0
 21 22  1  0  0  0  0
 22 33  1  0  0  0  0
 22 34  1  0  0  0  0
M  CHG  1   3  -1
M  END
> <s_m_source_file>
AV-unprocessed.smi

> <i_m_source_file_index>
9

> <i_lp_mmshare_version>
43012

> <i_f3d_flags>
0

> <s_epik_input>
RkMoRikoRiljKG4xKVtuSF1jKD1PKWMoYzEyKW5bY0hdbjJbQ0gyXVtDQEBdMyhbT0hdKVtDSDJdW0NIMl1bQ0gyXU9bQ0gyXTM=

> <s_epik_cmdline>
J2VwaWtfcHl0aG9uJywgJy1waCcsICc3LjAnLCAnLXRuJywgJzgnLCAnLW1hJywgJzIwMCcsICctbWV0YWxfYmluZGluZycsICctaW1hZScsICc8aW5maWxlLm1hZT4nLCAnLW9tYWUnLCAnPG91dGZpbGUubWFlPic=

> <r_lp_tautomer_probability>
1

> <r_epik_Ionization_Penalty>
0.188582

> <r_epik_Ionization_Penalty_Charging>
1.37005e-11

> <r_epik_Ionization_Penalty_Neutral>
0.188582

> <r_epik_State_Penalty>
0.012336

> <r_epik_Charging_Adjusted_Penalty>
0.012336

> <i_epik_Tot_Q>
-1

> <i_epik_Tot_abs_Q>
1

> <r_epik_Metal_State_Penalty>
0.0089237

> <b_epik_Metal_Only>
0

> <s_lp_Force_Field>
OPLS_2005

> <r_lp_Energy>
37.6166

> <b_lp_Chiralities_Consistent>
1

> <s_lp_Variant>
AV-unprocessed.smi:9-1

> <Gold.Version>
5.8.1

> <Gold.Id.Protein>
6NUR|6NUR_protein|mol2

> <Gold.PLP.Fitness>
45.8547

> <Gold.PLP.PLP>
-38.1950

> <Gold.PLP.part.hbond>
-3.0000

> <Gold.PLP.part.metal>
0.0000

> <Gold.PLP.part.buried>
-5.2990

> <Gold.PLP.part.nonpolar>
-29.4603

> <Gold.PLP.part.repulsive>
0.1519

> <Gold.PLP.ligand.clash>
0.0000

> <Gold.PLP.ligand.torsion>
0.4796

> <Gold.PLP.Chemscore.Hbond>
2.0833

> <Gold.PLP.Chemscore.CHOScore>
0.7877

> <Gold.PLP.Chemscore.Metal>
0.0000

> <Gold.Chemscore.Hbonds>
donor molecule, donor type, donor heavy atom, donor atom, acceptor molecule, acceptor atom, score
      L1  H    17    26       P1  8028  1.00
      P1  H  7989  7998       L1    12  0.94
      L1  C    13    23       P1  8028  0.82

> <Gold.PLP.Chemscore.Internal.Correction>
0.0061

> <Gold.Rescore>
     Score         DG    S(hbond)    S(metal)    S(lipo)     H(rot)  DE(clash)    DE(int)     intcor
     13.58     -14.32       2.00        0.00      64.88       2.12       0.26       0.49       ----

> <Gold.Chemscore.Fitness>
13.5793

> <Gold.Chemscore.DG>
-14.3245

> <Gold.Chemscore.ZeroCoef>
-5.4800

> <Gold.Chemscore.Hbond>
2.0032

> <Gold.Chemscore.Metal>
0.0000

> <Gold.Chemscore.Lipo>
64.8806

> <Gold.Chemscore.Internal_Hbond>
0.0000

> <Gold.Chemscore.DEClash>
0.2586

> <Gold.Chemscore.DEInternal>
0.4865

> <Gold.Chemscore.Rot>
2.1239

> <Gold.Chemscore.Internal.Correction>
   9.000000E+99

> <Gold.Chemscore.Hbonds>
donor molecule, donor type, donor heavy atom, donor atom, acceptor molecule, acceptor atom, score
      L1  H    17    26       P1  8028  0.98
      P1  H  7989  7998       L1    12  0.22

> <Gold.Chemscore.Hbond.Weighted>
-6.6907

> <Gold.Chemscore.Metal.Weighted>
-0.0000

> <Gold.Chemscore.Lipo.Weighted>
-7.5910

> <Gold.Chemscore.Internal_Hbond.Weighted>
0.0000

> <Gold.Chemscore.DEClash.Weighted>
0.2586

> <Gold.Chemscore.DEInternal.Weighted>
0.4865

> <Gold.Chemscore.Rot.Weighted>
5.4373

> <Gold.Chemscore.Internal.Correction.Weighted>
   9.000000E+99

> <Gold.Protein.RotatedTorsions>
[ 6907 6896 6895 6894 ] final  -44.41 input  -60.11 | X-H torsion
[ 7974 7965 7964 7962 ] final  120.19 input  175.53 | X-H torsion
[ 8008 7997 7996 7995 ] final  -50.73 input   59.86 | X-H torsion
[ 10167 10162 10161 10158 ] final   61.67 input  -65.29 | X-H torsion
[ 10718 10713 10712 10709 ] final  132.62 input   66.30 | X-H torsion
[ 10763 10752 10751 10750 ] final   42.40 input  -60.55 | X-H torsion
[ 11005 11000 10999 10996 ] final   32.01 input  -57.11 | X-H torsion

> <Gold.Protein.ActiveResidues>
 VAL166  LYS551  ARG553  GLY616  TRP617  ASP618  TYR619  PRO620  LYS621  CYS622 
 ASP623  PHE694  ASN695  SER759  ASP760  ASP761  ALA762  ILE779  LEU786  VAL792 
 PHE793  MET794  SER795  GLU796  ALA797  LYS798  CYS799  TRP800  GLU811  SER814 

> <Gold.Protein.RotatedAtoms>
  150.9331  134.8745  159.7564 H   0  0  0  0  0  0  0  0  0  0  0  0  # atno 6907 bound_to 6896
  152.5047  134.4050  159.9439 H   0  0  0  0  0  0  0  0  0  0  0  0  # atno 6908 bound_to 6896
  151.4075  133.3698  159.2775 H   0  0  0  0  0  0  0  0  0  0  0  0  # atno 6909 bound_to 6896
  145.1341  139.3309  143.4650 H   0  0  0  0  0  0  0  0  0  0  0  0  # atno 7974 bound_to 7965
  154.4068  140.1265  156.4713 H   0  0  0  0  0  0  0  0  0  0  0  0  # atno 8008 bound_to 7997
  155.7176  140.3493  155.4982 H   0  0  0  0  0  0  0  0  0  0  0  0  # atno 8009 bound_to 7997
  155.9243  140.1058  157.1172 H   0  0  0  0  0  0  0  0  0  0  0  0  # atno 8010 bound_to 7997
  140.1522  144.4451  150.6753 H   0  0  0  0  0  0  0  0  0  0  0  0  # atno 10167 bound_to 10162
  157.4853  131.1088  150.9628 H   0  0  0  0  0  0  0  0  0  0  0  0  # atno 10718 bound_to 10713
  152.9884  135.6133  154.2942 H   0  0  0  0  0  0  0  0  0  0  0  0  # atno 10763 bound_to 10752
  154.2666  135.2781  155.2757 H   0  0  0  0  0  0  0  0  0  0  0  0  # atno 10764 bound_to 10752
  154.5159  135.5828  153.6699 H   0  0  0  0  0  0  0  0  0  0  0  0  # atno 10765 bound_to 10752
  140.2779  134.3007  155.7809 H   0  0  0  0  0  0  0  0  0  0  0  0  # atno 11005 bound_to 11000
  146.3511  140.1351  142.8596 LP  0  0  0  0  0  0  0  0  0  0  0  0  # atno 17320 bound_to 7965
  145.0603  140.9083  143.4942 LP  0  0  0  0  0  0  0  0  0  0  0  0  # atno 17321 bound_to 7965
  140.6695  143.2280  151.5660 LP  0  0  0  0  0  0  0  0  0  0  0  0  # atno 17342 bound_to 10162
  139.5420  144.2621  152.1369 LP  0  0  0  0  0  0  0  0  0  0  0  0  # atno 17343 bound_to 10162
  157.0347  130.5725  149.5348 LP  0  0  0  0  0  0  0  0  0  0  0  0  # atno 17370 bound_to 10713
  156.0143  130.5237  150.8088 LP  0  0  0  0  0  0  0  0  0  0  0  0  # atno 17371 bound_to 10713
  141.2167  133.7507  156.9435 LP  0  0  0  0  0  0  0  0  0  0  0  0  # atno 17394 bound_to 11000
  140.1311  134.9355  157.2338 LP  0  0  0  0  0  0  0  0  0  0  0  0  # atno 17395 bound_to 11000

$$$$
