AV-unprocessed.smi:1982|AV-procd|sdf|8022|dock1
  -GOLD-   2272010213D 1   1.00000     0.00000
 Structure written by MMmdl.
 36 37  0  0  0  0  0  0  0  0  1 V2000
  152.1195  145.4322  160.7185 C   0  0  0  0  0  0  0  0  0  0  0  0
  152.2795  144.4795  159.5192 C   0  0  2  0  0  0  0  0  0  0  0  0
  151.4288  144.9908  158.3389 C   0  0  0  0  0  0  0  0  0  0  0  0
  151.5716  144.0972  157.1020 C   0  0  0  0  0  0  0  0  0  0  0  0
  151.1849  142.6529  157.4336 C   0  0  0  0  0  0  0  0  0  0  0  0
  152.0261  142.1028  158.6001 C   0  0  2  0  0  0  0  0  0  0  0  0
  151.5832  140.7472  158.9144 N   0  0  0  0  0  0  0  0  0  0  0  0
  152.0294  139.6204  158.3373 C   0  0  0  0  0  0  0  0  0  0  0  0
  152.8234  139.6048  157.3976 O   0  0  0  0  0  0  0  0  0  0  0  0
  151.5058  138.3055  158.9179 C   0  0  0  0  0  0  0  0  0  0  0  0
  151.9731  137.1695  158.1430 N   0  0  0  0  0  0  0  0  0  0  0  0
  151.8110  136.8592  156.8549 C   0  0  0  0  0  0  0  0  0  0  0  0
  152.4294  135.7308  156.5426 N   0  0  0  0  0  0  0  0  0  0  0  0
  153.0004  135.3420  157.7427 N   0  0  0  0  0  0  0  0  0  0  0  0
  152.7327  136.1914  158.6961 N   0  0  0  0  0  0  0  0  0  0  0  0
  151.9323  143.0028  159.8620 C   0  0  1  0  0  0  0  0  0  0  0  0
  152.8138  142.4485  161.0039 C   0  0  0  0  0  0  0  0  0  0  0  0
  151.1146  145.3772  161.1381 H   0  0  0  0  0  0  0  0  0  0  0  0
  152.2973  146.4667  160.4230 H   0  0  0  0  0  0  0  0  0  0  0  0
  152.8295  145.2095  161.5139 H   0  0  0  0  0  0  0  0  0  0  0  0
  153.3252  144.5167  159.2097 H   0  0  0  0  0  0  0  0  0  0  0  0
  150.3794  145.0386  158.6333 H   0  0  0  0  0  0  0  0  0  0  0  0
  151.7215  146.0091  158.0807 H   0  0  0  0  0  0  0  0  0  0  0  0
  150.9433  144.4747  156.2949 H   0  0  0  0  0  0  0  0  0  0  0  0
  152.5994  144.1306  156.7382 H   0  0  0  0  0  0  0  0  0  0  0  0
  150.1246  142.6103  157.6875 H   0  0  0  0  0  0  0  0  0  0  0  0
  151.3161  142.0287  156.5487 H   0  0  0  0  0  0  0  0  0  0  0  0
  153.0720  142.0767  158.2869 H   0  0  0  0  0  0  0  0  0  0  0  0
  150.9231  140.6554  159.6734 H   0  0  0  0  0  0  0  0  0  0  0  0
  151.8327  138.2031  159.9538 H   0  0  0  0  0  0  0  0  0  0  0  0
  150.4152  138.3016  158.9189 H   0  0  0  0  0  0  0  0  0  0  0  0
  151.2542  137.4601  156.1511 H   0  0  0  0  0  0  0  0  0  0  0  0
  150.8977  142.9794  160.2090 H   0  0  0  0  0  0  0  0  0  0  0  0
  153.8710  142.4870  160.7398 H   0  0  0  0  0  0  0  0  0  0  0  0
  152.5724  141.4123  161.2411 H   0  0  0  0  0  0  0  0  0  0  0  0
  152.6798  143.0078  161.9289 H   0  0  0  0  0  0  0  0  0  0  0  0
  1  2  1  0  0  0  0
  1 18  1  0  0  0  0
  1 19  1  0  0  0  0
  1 20  1  0  0  0  0
  2 16  1  0  0  0  0
  2  3  1  0  0  0  0
  2 21  1  0  0  0  0
  3  4  1  0  0  0  0
  3 22  1  0  0  0  0
  3 23  1  0  0  0  0
  4  5  1  0  0  0  0
  4 24  1  0  0  0  0
  4 25  1  0  0  0  0
  5  6  1  0  0  0  0
  5 26  1  0  0  0  0
  5 27  1  0  0  0  0
  6  7  1  0  0  0  0
  6 16  1  0  0  0  0
  6 28  1  0  0  0  0
  7  8  1  0  0  0  0
  7 29  1  0  0  0  0
  8  9  2  0  0  0  0
  8 10  1  0  0  0  0
 10 11  1  0  0  0  0
 10 30  1  0  0  0  0
 10 31  1  0  0  0  0
 11 15  1  0  0  0  0
 11 12  1  0  0  0  0
 12 13  2  0  0  0  0
 12 32  1  0  0  0  0
 13 14  1  0  0  0  0
 14 15  2  0  0  0  0
 16 17  1  0  0  0  0
 16 33  1  0  0  0  0
 17 34  1  0  0  0  0
 17 35  1  0  0  0  0
 17 36  1  0  0  0  0
M  END
> <s_m_source_file>
AV-unprocessed.smi

> <i_m_source_file_index>
1982

> <i_lp_mmshare_version>
43012

> <i_f3d_flags>
0

> <s_epik_input>
W0NIM11bQ0BASF0xW0NIMl1bQ0gyXVtDSDJdW0NASF0oW0NASF0xW0NIM10pW05IXUMoPU8pW0NIMl1uMltjSF1ubm4y

> <s_epik_cmdline>
J2VwaWtfcHl0aG9uJywgJy1waCcsICc3LjAnLCAnLXRuJywgJzgnLCAnLW1hJywgJzIwMCcsICctbWV0YWxfYmluZGluZycsICctaW1hZScsICc8aW5maWxlLm1hZT4nLCAnLW9tYWUnLCAnPG91dGZpbGUubWFlPic=

> <r_lp_tautomer_probability>
1

> <r_epik_Ionization_Penalty>
5.03816e-07

> <r_epik_Ionization_Penalty_Charging>
0

> <r_epik_Ionization_Penalty_Neutral>
5.03816e-07

> <r_epik_State_Penalty>
-0

> <r_epik_Charging_Adjusted_Penalty>
0

> <i_epik_Tot_Q>
0

> <i_epik_Tot_abs_Q>
0

> <r_epik_Metal_State_Penalty>
-0

> <b_epik_Metal_Only>
0

> <s_lp_Force_Field>
OPLS_2005

> <r_lp_Energy>
13.7929

> <b_lp_Chiralities_Consistent>
1

> <s_lp_Variant>
AV-unprocessed.smi:1982-3

> <Gold.Version>
5.8.1

> <Gold.Id.Protein>
6NUR|6NUR_protein|mol2

> <Gold.PLP.Fitness>
41.8742

> <Gold.PLP.PLP>
-34.5312

> <Gold.PLP.part.hbond>
-4.0000

> <Gold.PLP.part.metal>
0.0000

> <Gold.PLP.part.buried>
-2.4963

> <Gold.PLP.part.nonpolar>
-27.2473

> <Gold.PLP.part.repulsive>
0.1547

> <Gold.PLP.ligand.clash>
0.0000

> <Gold.PLP.ligand.torsion>
0.3956

> <Gold.PLP.Chemscore.Hbond>
2.7056

> <Gold.PLP.Chemscore.CHOScore>
0.0000

> <Gold.PLP.Chemscore.Metal>
0.0000

> <Gold.Chemscore.Hbonds>
donor molecule, donor type, donor heavy atom, donor atom, acceptor molecule, acceptor atom, score
      P1  H  6896  6907       L1    15  0.61
      P1  H  7997  8008       L1     9  1.00
      P1  H 10752 10765       L1    13  1.00

> <Gold.PLP.Chemscore.Internal.Correction>
0.0173

> <Gold.Rescore>
     Score         DG    S(hbond)    S(metal)    S(lipo)     H(rot)  DE(clash)    DE(int)     intcor
     16.91     -18.49       2.01        0.00      95.48       1.91       0.32       1.26       ----

> <Gold.Chemscore.Fitness>
16.9096

> <Gold.Chemscore.DG>
-18.4853

> <Gold.Chemscore.ZeroCoef>
-5.4800

> <Gold.Chemscore.Hbond>
2.0097

> <Gold.Chemscore.Metal>
0.0000

> <Gold.Chemscore.Lipo>
95.4848

> <Gold.Chemscore.Internal_Hbond>
0.0000

> <Gold.Chemscore.DEClash>
0.3201

> <Gold.Chemscore.DEInternal>
1.2556

> <Gold.Chemscore.Rot>
1.9058

> <Gold.Chemscore.Internal.Correction>
   9.000000E+99

> <Gold.Chemscore.Hbonds>
donor molecule, donor type, donor heavy atom, donor atom, acceptor molecule, acceptor atom, score
      P1  H  6896  6907       L1    15  0.18
      P1  H  7997  8008       L1     9  0.98
      P1  H 10752 10765       L1    13  0.85

> <Gold.Chemscore.Hbond.Weighted>
-6.7124

> <Gold.Chemscore.Metal.Weighted>
-0.0000

> <Gold.Chemscore.Lipo.Weighted>
-11.1717

> <Gold.Chemscore.Internal_Hbond.Weighted>
0.0000

> <Gold.Chemscore.DEClash.Weighted>
0.3201

> <Gold.Chemscore.DEInternal.Weighted>
1.2556

> <Gold.Chemscore.Rot.Weighted>
4.8788

> <Gold.Chemscore.Internal.Correction.Weighted>
   9.000000E+99

> <Gold.Protein.RotatedTorsions>
[ 6907 6896 6895 6894 ] final   27.05 input  -60.11 | X-H torsion
[ 7974 7965 7964 7962 ] final  -18.00 input  175.53 | X-H torsion
[ 8008 7997 7996 7995 ] final  -83.93 input   59.86 | X-H torsion
[ 10167 10162 10161 10158 ] final   14.79 input  -65.29 | X-H torsion
[ 10718 10713 10712 10709 ] final  -13.40 input   66.30 | X-H torsion
[ 10763 10752 10751 10750 ] final -132.50 input  -60.55 | X-H torsion
[ 11005 11000 10999 10996 ] final   86.17 input  -57.11 | X-H torsion

> <Gold.Protein.ActiveResidues>
 VAL166  LYS551  ARG553  GLY616  TRP617  ASP618  TYR619  PRO620  LYS621  CYS622 
 ASP623  PHE694  ASN695  SER759  ASP760  ASP761  ALA762  ILE779  LEU786  VAL792 
 PHE793  MET794  SER795  GLU796  ALA797  LYS798  CYS799  TRP800  GLU811  SER814 

> <Gold.Protein.RotatedAtoms>
  151.9965  134.9951  160.0563 H   0  0  0  0  0  0  0  0  0  0  0  0  # atno 6907 bound_to 6896
  152.1559  133.4546  159.4845 H   0  0  0  0  0  0  0  0  0  0  0  0  # atno 6908 bound_to 6896
  150.6881  134.2049  159.4379 H   0  0  0  0  0  0  0  0  0  0  0  0  # atno 6909 bound_to 6896
  146.1914  140.3858  142.8457 H   0  0  0  0  0  0  0  0  0  0  0  0  # atno 7974 bound_to 7965
  154.6243  140.0612  156.9654 H   0  0  0  0  0  0  0  0  0  0  0  0  # atno 8008 bound_to 7997
  155.1767  140.3295  155.4364 H   0  0  0  0  0  0  0  0  0  0  0  0  # atno 8009 bound_to 7997
  156.2449  140.1905  156.6866 H   0  0  0  0  0  0  0  0  0  0  0  0  # atno 8010 bound_to 7997
  140.5911  143.8793  150.6875 H   0  0  0  0  0  0  0  0  0  0  0  0  # atno 10167 bound_to 10162
  156.6308  130.4901  149.6130 H   0  0  0  0  0  0  0  0  0  0  0  0  # atno 10718 bound_to 10713
  154.8742  135.3796  154.4419 H   0  0  0  0  0  0  0  0  0  0  0  0  # atno 10763 bound_to 10752
  153.5103  135.7029  153.5789 H   0  0  0  0  0  0  0  0  0  0  0  0  # atno 10764 bound_to 10752
  153.4082  135.3931  155.1999 H   0  0  0  0  0  0  0  0  0  0  0  0  # atno 10765 bound_to 10752
  139.8952  134.8337  156.2683 H   0  0  0  0  0  0  0  0  0  0  0  0  # atno 11005 bound_to 11000
  144.8494  140.6978  143.6178 LP  0  0  0  0  0  0  0  0  0  0  0  0  # atno 17320 bound_to 7965
  145.3781  139.1643  143.4295 LP  0  0  0  0  0  0  0  0  0  0  0  0  # atno 17321 bound_to 7965
  140.2316  143.3731  152.1561 LP  0  0  0  0  0  0  0  0  0  0  0  0  # atno 17342 bound_to 10162
  139.5228  144.7064  151.5342 LP  0  0  0  0  0  0  0  0  0  0  0  0  # atno 17343 bound_to 10162
  156.2236  130.6752  151.1393 LP  0  0  0  0  0  0  0  0  0  0  0  0  # atno 17370 bound_to 10713
  157.7200  131.0687  150.6173 LP  0  0  0  0  0  0  0  0  0  0  0  0  # atno 17371 bound_to 10713
  141.0117  133.7091  156.1123 LP  0  0  0  0  0  0  0  0  0  0  0  0  # atno 17394 bound_to 11000
  140.7357  134.4205  157.5561 LP  0  0  0  0  0  0  0  0  0  0  0  0  # atno 17395 bound_to 11000

$$$$
