AV-unprocessed.smi:99|AV-procd|sdf|881|dock6
  -GOLD-   2262017353D 1   1.00000     0.00000
 Structure written by MMmdl.
 52 55  0  0  0  0  0  0  0  0  2 V2000
  146.8023  134.0999  158.0075 O   0  0  0  0  0  0  0  0  0  0  0  0
  146.6493  135.0155  158.8181 C   0  0  0  0  0  0  0  0  0  0  0  0
  146.2887  136.2664  158.4739 O   0  0  0  0  0  0  0  0  0  0  0  0
  146.0318  136.5990  157.1193 C   0  0  0  0  0  0  0  0  0  0  0  0
  147.3618  136.9397  156.4355 C   0  0  2  0  0  0  0  0  0  0  0  0
  147.9778  138.0437  157.0898 O   0  0  0  0  0  0  0  0  0  0  0  0
  148.8425  138.7045  156.2061 C   0  0  1  0  0  0  0  0  0  0  0  0
  150.2750  138.5114  156.6660 N   0  0  0  0  0  0  0  0  0  0  0  0
  150.5816  137.7442  157.7781 C   0  0  0  0  0  0  0  0  0  0  0  0
  151.8571  137.5737  158.1826 C   0  0  0  0  0  0  0  0  0  0  0  0
  152.9381  138.2098  157.4351 C   0  0  0  0  0  0  0  0  0  0  0  0
  154.0968  138.0529  157.8151 O   0  0  0  0  0  0  0  0  0  0  0  0
  152.6105  138.9545  156.3399 N   0  5  0  0  0  0  0  0  0  0  0  0
  151.3211  139.1254  155.9255 C   0  0  0  0  0  0  0  0  0  0  0  0
  151.0131  139.7853  154.9324 O   0  0  0  0  0  0  0  0  0  0  0  0
  148.5763  138.1394  154.7892 C   0  0  1  0  0  0  0  0  0  0  0  0
  149.5698  137.2170  154.3654 O   0  0  0  0  0  0  0  0  0  0  0  0
  147.2353  137.4534  155.0023 C   0  0  1  0  0  0  0  0  0  0  0  0
  146.9854  136.4458  154.0253 O   0  0  0  0  0  0  0  0  0  0  0  0
  145.9258  136.5236  153.1907 C   0  0  0  0  0  0  0  0  0  0  0  0
  145.1543  137.4838  153.1466 O   0  0  0  0  0  0  0  0  0  0  0  0
  145.7581  135.2997  152.3569 C   0  0  0  0  0  0  0  0  0  0  0  0
  144.8947  135.3378  151.2373 C   0  0  0  0  0  0  0  0  0  0  0  0
  144.6944  134.1894  150.4474 C   0  0  0  0  0  0  0  0  0  0  0  0
  145.3585  132.9905  150.7647 C   0  0  0  0  0  0  0  0  0  0  0  0
  146.2246  132.9417  151.8724 C   0  0  0  0  0  0  0  0  0  0  0  0
  146.4240  134.0882  152.6657 C   0  0  0  0  0  0  0  0  0  0  0  0
  146.8698  134.8657  160.2856 C   0  0  0  0  0  0  0  0  0  0  0  0
  146.8599  136.0144  161.1102 C   0  0  0  0  0  0  0  0  0  0  0  0
  147.0403  135.8995  162.5024 C   0  0  0  0  0  0  0  0  0  0  0  0
  147.2343  134.6344  163.0868 C   0  0  0  0  0  0  0  0  0  0  0  0
  147.2509  133.4843  162.2771 C   0  0  0  0  0  0  0  0  0  0  0  0
  147.0722  133.5978  160.8849 C   0  0  0  0  0  0  0  0  0  0  0  0
  145.5422  135.7779  156.5934 H   0  0  0  0  0  0  0  0  0  0  0  0
  145.3597  137.4572  157.0903 H   0  0  0  0  0  0  0  0  0  0  0  0
  148.0414  136.0867  156.4785 H   0  0  0  0  0  0  0  0  0  0  0  0
  148.6411  139.7736  156.2919 H   0  0  0  0  0  0  0  0  0  0  0  0
  149.7975  137.2639  158.3425 H   0  0  0  0  0  0  0  0  0  0  0  0
  152.0784  136.9714  159.0516 H   0  0  0  0  0  0  0  0  0  0  0  0
  148.5111  138.9524  154.0657 H   0  0  0  0  0  0  0  0  0  0  0  0
  149.4350  137.0331  153.4485 H   0  0  0  0  0  0  0  0  0  0  0  0
  146.4657  138.2266  154.9773 H   0  0  0  0  0  0  0  0  0  0  0  0
  144.3674  136.2449  150.9792 H   0  0  0  0  0  0  0  0  0  0  0  0
  144.0274  134.2282  149.5988 H   0  0  0  0  0  0  0  0  0  0  0  0
  145.2036  132.1095  150.1597 H   0  0  0  0  0  0  0  0  0  0  0  0
  146.7356  132.0221  152.1166 H   0  0  0  0  0  0  0  0  0  0  0  0
  147.0923  134.0162  153.5113 H   0  0  0  0  0  0  0  0  0  0  0  0
  146.7067  136.9958  160.6847 H   0  0  0  0  0  0  0  0  0  0  0  0
  147.0271  136.7837  163.1225 H   0  0  0  0  0  0  0  0  0  0  0  0
  147.3690  134.5462  164.1548 H   0  0  0  0  0  0  0  0  0  0  0  0
  147.3947  132.5118  162.7240 H   0  0  0  0  0  0  0  0  0  0  0  0
  147.0826  132.6932  160.2946 H   0  0  0  0  0  0  0  0  0  0  0  0
  1  2  2  0  0  0  0
  2  3  1  0  0  0  0
  2 28  1  0  0  0  0
  3  4  1  0  0  0  0
  4  5  1  0  0  0  0
  4 34  1  0  0  0  0
  4 35  1  0  0  0  0
  5 18  1  0  0  0  0
  5  6  1  0  0  0  0
  5 36  1  0  0  0  0
  6  7  1  0  0  0  0
  7  8  1  0  0  0  0
  7 16  1  0  0  0  0
  7 37  1  0  0  0  0
  8 14  1  0  0  0  0
  8  9  1  0  0  0  0
  9 10  2  0  0  0  0
  9 38  1  0  0  0  0
 10 11  1  0  0  0  0
 10 39  1  0  0  0  0
 11 12  2  0  0  0  0
 11 13  1  0  0  0  0
 13 14  1  0  0  0  0
 14 15  2  0  0  0  0
 16 17  1  0  0  0  0
 16 18  1  0  0  0  0
 16 40  1  0  0  0  0
 17 41  1  0  0  0  0
 18 19  1  0  0  0  0
 18 42  1  0  0  0  0
 19 20  1  0  0  0  0
 20 21  2  0  0  0  0
 20 22  1  0  0  0  0
 22 27  1  0  0  0  0
 22 23  2  0  0  0  0
 23 24  1  0  0  0  0
 23 43  1  0  0  0  0
 24 25  2  0  0  0  0
 24 44  1  0  0  0  0
 25 26  1  0  0  0  0
 25 45  1  0  0  0  0
 26 27  2  0  0  0  0
 26 46  1  0  0  0  0
 27 47  1  0  0  0  0
 28 33  1  0  0  0  0
 28 29  2  0  0  0  0
 29 30  1  0  0  0  0
 29 48  1  0  0  0  0
 30 31  2  0  0  0  0
 30 49  1  0  0  0  0
 31 32  1  0  0  0  0
 31 50  1  0  0  0  0
 32 33  2  0  0  0  0
 32 51  1  0  0  0  0
 33 52  1  0  0  0  0
M  CHG  1  13  -1
M  END
> <s_m_source_file>
AV-unprocessed.smi

> <i_m_source_file_index>
99

> <i_lp_mmshare_version>
43012

> <i_f3d_flags>
0

> <s_epik_input>
W2NIXTFbY0hdW2NIXVtjSF1bY0hdYzFDKD1PKU9bQ0gyXVtDQEBIXTJPW0NAQEhdKG4zW2NIXVtjSF1jKD1PKVtuSF1jMz1PKVtDQEBIXShbT0hdKVtDQEhdMk9DKD1PKWM0W2NIXVtjSF1bY0hdW2NIXVtjSF00

> <s_epik_cmdline>
J2VwaWtfcHl0aG9uJywgJy1waCcsICc3LjAnLCAnLXRuJywgJzgnLCAnLW1hJywgJzIwMCcsICctbWV0YWxfYmluZGluZycsICctaW1hZScsICc8aW5maWxlLm1hZT4nLCAnLW9tYWUnLCAnPG91dGZpbGUubWFlPic=

> <r_lp_tautomer_probability>
1

> <r_epik_Ionization_Penalty>
2.89159

> <r_epik_Ionization_Penalty_Charging>
2.1077e-08

> <r_epik_Ionization_Penalty_Neutral>
2.89159

> <r_epik_State_Penalty>
2.88671

> <r_epik_Charging_Adjusted_Penalty>
2.88671

> <i_epik_Tot_Q>
-1

> <i_epik_Tot_abs_Q>
1

> <r_epik_Metal_State_Penalty>
0.0727308

> <b_epik_Metal_Only>
1

> <s_epik_Chemistry_Notes>
This compound has an ester and may undergo hydrolysis at high or low pH. This compound contains an acetal/aminal-like group ( X-CH(R)-Y where X, Y are N, S, or O) that may be acid/base labile, releasing an aldehyde.

> <s_lp_Force_Field>
OPLS_2005

> <r_lp_Energy>
51.3472

> <b_lp_Chiralities_Consistent>
1

> <s_lp_Variant>
AV-unprocessed.smi:99-17

> <Gold.Version>
5.8.1

> <Gold.Id.Protein>
6NUR|6NUR_protein|mol2

> <Gold.PLP.Fitness>
51.1530

> <Gold.PLP.PLP>
-40.4839

> <Gold.PLP.part.hbond>
-4.0000

> <Gold.PLP.part.metal>
0.0000

> <Gold.PLP.part.buried>
-4.9343

> <Gold.PLP.part.nonpolar>
-31.9107

> <Gold.PLP.part.repulsive>
2.1177

> <Gold.PLP.ligand.clash>
0.0000

> <Gold.PLP.ligand.torsion>
1.0707

> <Gold.PLP.Chemscore.Hbond>
4.1813

> <Gold.PLP.Chemscore.CHOScore>
0.0000

> <Gold.PLP.Chemscore.Metal>
0.0000

> <Gold.Chemscore.Hbonds>
donor molecule, donor type, donor heavy atom, donor atom, acceptor molecule, acceptor atom, score
      L1  H    17    41       P1  7948  1.00
      P1  H  7989  7998       L1    15  1.00
      P1  H  7997  8008       L1    13  1.10

> <Gold.PLP.Chemscore.Internal.Correction>
0.2666

> <Gold.Rescore>
     Score         DG    S(hbond)    S(metal)    S(lipo)     H(rot)  DE(clash)    DE(int)     intcor
     14.36     -15.90       2.56        0.00      84.65       3.13       0.28       1.26       ----

> <Gold.Chemscore.Fitness>
14.3643

> <Gold.Chemscore.DG>
-15.9005

> <Gold.Chemscore.ZeroCoef>
-5.4800

> <Gold.Chemscore.Hbond>
2.5572

> <Gold.Chemscore.Metal>
0.0000

> <Gold.Chemscore.Lipo>
84.6496

> <Gold.Chemscore.Internal_Hbond>
0.0000

> <Gold.Chemscore.DEClash>
0.2774

> <Gold.Chemscore.DEInternal>
1.2588

> <Gold.Chemscore.Rot>
3.1346

> <Gold.Chemscore.Internal.Correction>
   9.000000E+99

> <Gold.Chemscore.Hbonds>
donor molecule, donor type, donor heavy atom, donor atom, acceptor molecule, acceptor atom, score
      L1  H    17    41       P1  7948  0.91
      P1  H  7989  7998       L1    15  1.00
      P1  H  7997  8008       L1    13  0.21
      P1  H  7997  8010       L1    12  0.02

> <Gold.Chemscore.Hbond.Weighted>
-8.5410

> <Gold.Chemscore.Metal.Weighted>
-0.0000

> <Gold.Chemscore.Lipo.Weighted>
-9.9040

> <Gold.Chemscore.Internal_Hbond.Weighted>
0.0000

> <Gold.Chemscore.DEClash.Weighted>
0.2774

> <Gold.Chemscore.DEInternal.Weighted>
1.2588

> <Gold.Chemscore.Rot.Weighted>
8.0246

> <Gold.Chemscore.Internal.Correction.Weighted>
   9.000000E+99

> <Gold.Protein.RotatedTorsions>
[ 6907 6896 6895 6894 ] final  -46.23 input  -60.11 | X-H torsion
[ 7974 7965 7964 7962 ] final  -13.08 input  175.53 | X-H torsion
[ 8008 7997 7996 7995 ] final  -22.32 input   59.86 | X-H torsion
[ 10167 10162 10161 10158 ] final   29.72 input  -65.29 | X-H torsion
[ 10718 10713 10712 10709 ] final -170.43 input   66.30 | X-H torsion
[ 10763 10752 10751 10750 ] final -148.81 input  -60.55 | X-H torsion
[ 11005 11000 10999 10996 ] final  133.87 input  -57.11 | X-H torsion

> <Gold.Protein.ActiveResidues>
 VAL166  LYS551  ARG553  GLY616  TRP617  ASP618  TYR619  PRO620  LYS621  CYS622 
 ASP623  PHE694  ASN695  SER759  ASP760  ASP761  ALA762  ILE779  LEU786  VAL792 
 PHE793  MET794  SER795  GLU796  ALA797  LYS798  CYS799  TRP800  GLU811  SER814 

> <Gold.Protein.RotatedAtoms>
  150.9135  134.8552  159.7440 H   0  0  0  0  0  0  0  0  0  0  0  0  # atno 6907 bound_to 6896
  152.4956  134.4324  159.9526 H   0  0  0  0  0  0  0  0  0  0  0  0  # atno 6908 bound_to 6896
  151.4365  133.3616  159.2811 H   0  0  0  0  0  0  0  0  0  0  0  0  # atno 6909 bound_to 6896
  146.2128  140.3151  142.8386 H   0  0  0  0  0  0  0  0  0  0  0  0  # atno 7974 bound_to 7965
  154.4651  140.2011  156.0139 H   0  0  0  0  0  0  0  0  0  0  0  0  # atno 8008 bound_to 7997
  156.0912  140.3257  155.7790 H   0  0  0  0  0  0  0  0  0  0  0  0  # atno 8009 bound_to 7997
  155.4953  140.0549  157.2938 H   0  0  0  0  0  0  0  0  0  0  0  0  # atno 8010 bound_to 7997
  140.4741  144.0717  150.6245 H   0  0  0  0  0  0  0  0  0  0  0  0  # atno 10167 bound_to 10162
  156.7260  130.9288  151.3101 H   0  0  0  0  0  0  0  0  0  0  0  0  # atno 10718 bound_to 10713
  154.8212  135.3325  154.7031 H   0  0  0  0  0  0  0  0  0  0  0  0  # atno 10763 bound_to 10752
  153.7663  135.6929  153.4919 H   0  0  0  0  0  0  0  0  0  0  0  0  # atno 10764 bound_to 10752
  153.2075  135.4494  155.0289 H   0  0  0  0  0  0  0  0  0  0  0  0  # atno 10765 bound_to 10752
  139.9879  134.9526  156.9786 H   0  0  0  0  0  0  0  0  0  0  0  0  # atno 11005 bound_to 11000
  144.8960  140.7583  143.5897 LP  0  0  0  0  0  0  0  0  0  0  0  0  # atno 17320 bound_to 7965
  145.3075  139.1829  143.4656 LP  0  0  0  0  0  0  0  0  0  0  0  0  # atno 17321 bound_to 7965
  140.3940  143.2738  152.0027 LP  0  0  0  0  0  0  0  0  0  0  0  0  # atno 17342 bound_to 10162
  139.4823  144.6053  151.7532 LP  0  0  0  0  0  0  0  0  0  0  0  0  # atno 17343 bound_to 10162
  157.6878  130.9203  150.0433 LP  0  0  0  0  0  0  0  0  0  0  0  0  # atno 17370 bound_to 10713
  156.1561  130.3643  149.9366 LP  0  0  0  0  0  0  0  0  0  0  0  0  # atno 17371 bound_to 10713
  140.4967  134.1139  155.7242 LP  0  0  0  0  0  0  0  0  0  0  0  0  # atno 17394 bound_to 11000
  141.1540  133.8916  157.2024 LP  0  0  0  0  0  0  0  0  0  0  0  0  # atno 17395 bound_to 11000

$$$$
