AV-unprocessed.smi:181|AV-procd|sdf|1453|dock5
  -GOLD-   2262019253D 1   1.00000     0.00000
 Structure written by MMmdl.
 50 53  0  0  0  0  0  0  0  0  1 V2000
  144.4524  135.5282  150.6296 C   0  0  0  0  0  0  0  0  0  0  0  0
  145.1092  136.0667  151.9062 C   0  0  0  0  0  0  0  0  0  0  0  0
  144.1731  136.8549  152.7067 N   0  0  0  0  0  0  0  0  0  0  0  0
  144.7497  137.5626  153.7052 C   0  0  0  0  0  0  0  0  0  0  0  0
  144.2876  137.4442  154.9762 N   0  0  0  0  0  0  0  0  0  0  0  0
  144.8627  138.1406  155.9613 C   0  0  0  0  0  0  0  0  0  0  0  0
  145.8925  138.9881  155.8943 N   0  0  0  0  0  0  0  0  0  0  0  0
  146.3636  139.0964  154.6185 C   0  0  0  0  0  0  0  0  0  0  0  0
  145.8552  138.4217  153.4746 C   0  0  0  0  0  0  0  0  0  0  0  0
  146.5833  138.7751  152.3461 N   0  0  0  0  0  0  0  0  0  0  0  0
  147.4766  139.6127  152.7988 C   0  0  0  0  0  0  0  0  0  0  0  0
  147.4191  139.8601  154.1525 N   0  0  0  0  0  0  0  0  0  0  0  0
  148.2869  140.7440  154.9149 C   0  0  0  0  0  0  0  0  0  0  0  0
  149.5266  140.0387  155.5184 C   0  0  0  0  0  0  0  0  0  0  0  0
  150.3438  139.6122  154.4416 O   0  0  0  0  0  0  0  0  0  0  0  0
  150.3371  141.0246  156.3832 C   0  0  0  0  0  0  0  0  0  0  0  0
  151.4818  140.3279  157.1399 C   0  0  0  0  0  0  0  0  0  0  0  0
  150.9668  139.2578  157.9226 O   0  0  0  0  0  0  0  0  0  0  0  0
  150.3657  138.2388  157.1328 C   0  0  0  0  0  0  0  0  0  0  0  0
  149.1550  138.8038  156.3691 C   0  0  0  0  0  0  0  0  0  0  0  0
  142.7731  136.4186  152.8393 C   0  0  2  0  0  0  0  0  0  0  0  0
  141.8023  137.5376  153.2702 C   0  0  0  0  0  0  0  0  0  0  0  0
  140.7129  136.8136  154.0750 C   0  0  0  0  0  0  0  0  0  0  0  0
  141.3440  135.5786  154.5021 N   0  0  0  0  0  0  0  0  0  0  0  0
  142.4902  135.3272  153.8703 C   0  0  0  0  0  0  0  0  0  0  0  0
  143.2135  134.3517  154.0611 O   0  0  0  0  0  0  0  0  0  0  0  0
  145.1690  134.9580  150.0382 H   0  0  0  0  0  0  0  0  0  0  0  0
  144.0820  136.3435  150.0075 H   0  0  0  0  0  0  0  0  0  0  0  0
  143.6133  134.8701  150.8543 H   0  0  0  0  0  0  0  0  0  0  0  0
  145.4850  135.2343  152.5012 H   0  0  0  0  0  0  0  0  0  0  0  0
  145.9844  136.6583  151.6296 H   0  0  0  0  0  0  0  0  0  0  0  0
  144.4378  137.9968  156.9437 H   0  0  0  0  0  0  0  0  0  0  0  0
  148.2113  140.0738  152.1544 H   0  0  0  0  0  0  0  0  0  0  0  0
  148.5949  141.5644  154.2650 H   0  0  0  0  0  0  0  0  0  0  0  0
  147.6919  141.1962  155.7094 H   0  0  0  0  0  0  0  0  0  0  0  0
  149.8750  139.7566  153.6339 H   0  0  0  0  0  0  0  0  0  0  0  0
  150.7322  141.8364  155.7710 H   0  0  0  0  0  0  0  0  0  0  0  0
  149.6754  141.4900  157.1151 H   0  0  0  0  0  0  0  0  0  0  0  0
  152.2423  139.9572  156.4509 H   0  0  0  0  0  0  0  0  0  0  0  0
  151.9766  141.0389  157.8016 H   0  0  0  0  0  0  0  0  0  0  0  0
  151.1000  137.8135  156.4471 H   0  0  0  0  0  0  0  0  0  0  0  0
  150.0451  137.4306  157.7904 H   0  0  0  0  0  0  0  0  0  0  0  0
  148.3897  139.0845  157.0939 H   0  0  0  0  0  0  0  0  0  0  0  0
  148.7174  138.0207  155.7488 H   0  0  0  0  0  0  0  0  0  0  0  0
  142.4406  136.0246  151.8786 H   0  0  0  0  0  0  0  0  0  0  0  0
  142.2780  138.2729  153.9191 H   0  0  0  0  0  0  0  0  0  0  0  0
  141.3926  138.0783  152.4164 H   0  0  0  0  0  0  0  0  0  0  0  0
  140.3712  137.4017  154.9271 H   0  0  0  0  0  0  0  0  0  0  0  0
  139.8513  136.5775  153.4494 H   0  0  0  0  0  0  0  0  0  0  0  0
  140.9536  134.9883  155.2223 H   0  0  0  0  0  0  0  0  0  0  0  0
  1  2  1  0  0  0  0
  1 27  1  0  0  0  0
  1 28  1  0  0  0  0
  1 29  1  0  0  0  0
  2  3  1  0  0  0  0
  2 30  1  0  0  0  0
  2 31  1  0  0  0  0
  3  4  1  0  0  0  0
  3 21  1  0  0  0  0
  4  9  1  0  0  0  0
  4  5  2  0  0  0  0
  5  6  1  0  0  0  0
  6  7  2  0  0  0  0
  6 32  1  0  0  0  0
  7  8  1  0  0  0  0
  8 12  1  0  0  0  0
  8  9  2  0  0  0  0
  9 10  1  0  0  0  0
 10 11  2  0  0  0  0
 11 12  1  0  0  0  0
 11 33  1  0  0  0  0
 12 13  1  0  0  0  0
 13 14  1  0  0  0  0
 13 34  1  0  0  0  0
 13 35  1  0  0  0  0
 14 20  1  0  0  0  0
 14 15  1  0  0  0  0
 14 16  1  0  0  0  0
 15 36  1  0  0  0  0
 16 17  1  0  0  0  0
 16 37  1  0  0  0  0
 16 38  1  0  0  0  0
 17 18  1  0  0  0  0
 17 39  1  0  0  0  0
 17 40  1  0  0  0  0
 18 19  1  0  0  0  0
 19 20  1  0  0  0  0
 19 41  1  0  0  0  0
 19 42  1  0  0  0  0
 20 43  1  0  0  0  0
 20 44  1  0  0  0  0
 21 25  1  0  0  0  0
 21 22  1  0  0  0  0
 21 45  1  0  0  0  0
 22 23  1  0  0  0  0
 22 46  1  0  0  0  0
 22 47  1  0  0  0  0
 23 24  1  0  0  0  0
 23 48  1  0  0  0  0
 23 49  1  0  0  0  0
 24 25  1  0  0  0  0
 24 50  1  0  0  0  0
 25 26  2  0  0  0  0
M  END
> <s_m_source_file>
AV-unprocessed.smi

> <i_m_source_file_index>
181

> <i_lp_mmshare_version>
43012

> <i_f3d_flags>
0

> <s_epik_input>
Tz1DMVtOSF1bQ0gyXVtDSDJdW0NASF0xTihbQ0gyXVtDSDNdKWMobltjSF1uMiljKGMyMyluW2NIXW4zW0NIMl1DNChbT0hdKVtDSDJdW0NIMl1PW0NIMl1bQ0gyXTQ=

> <s_epik_cmdline>
J2VwaWtfcHl0aG9uJywgJy1waCcsICc3LjAnLCAnLXRuJywgJzgnLCAnLW1hJywgJzIwMCcsICctbWV0YWxfYmluZGluZycsICctaW1hZScsICc8aW5maWxlLm1hZT4nLCAnLW9tYWUnLCAnPG91dGZpbGUubWFlPic=

> <r_lp_tautomer_probability>
1

> <r_epik_Ionization_Penalty>
0.000985257

> <r_epik_Ionization_Penalty_Charging>
0

> <r_epik_Ionization_Penalty_Neutral>
0.000985257

> <r_epik_State_Penalty>
0.000517047

> <r_epik_Charging_Adjusted_Penalty>
0.000517047

> <i_epik_Tot_Q>
0

> <i_epik_Tot_abs_Q>
0

> <r_epik_Metal_State_Penalty>
-0

> <b_epik_Metal_Only>
0

> <s_lp_Force_Field>
OPLS_2005

> <r_lp_Energy>
35.7055

> <b_lp_Chiralities_Consistent>
1

> <s_lp_Variant>
AV-unprocessed.smi:181-1

> <Gold.Version>
5.8.1

> <Gold.Id.Protein>
6NUR|6NUR_protein|mol2

> <Gold.PLP.Fitness>
37.1111

> <Gold.PLP.PLP>
-29.7450

> <Gold.PLP.part.hbond>
-3.0000

> <Gold.PLP.part.metal>
0.0000

> <Gold.PLP.part.buried>
-1.2491

> <Gold.PLP.part.nonpolar>
-29.4867

> <Gold.PLP.part.repulsive>
2.4109

> <Gold.PLP.ligand.clash>
0.0000

> <Gold.PLP.ligand.torsion>
1.5927

> <Gold.PLP.Chemscore.Hbond>
2.9040

> <Gold.PLP.Chemscore.CHOScore>
0.1933

> <Gold.PLP.Chemscore.Metal>
0.0000

> <Gold.Chemscore.Hbonds>
donor molecule, donor type, donor heavy atom, donor atom, acceptor molecule, acceptor atom, score
      L1  H    24    50       P1 11000  1.00
      L1  C    11    33       P1  7957  0.17

> <Gold.PLP.Chemscore.Internal.Correction>
1.2595

> <Gold.Rescore>
     Score         DG    S(hbond)    S(metal)    S(lipo)     H(rot)  DE(clash)    DE(int)     intcor
      8.88     -15.00       2.46        0.00      65.67       2.49       3.27       2.85       ----

> <Gold.Chemscore.Fitness>
8.8842

> <Gold.Chemscore.DG>
-15.0038

> <Gold.Chemscore.ZeroCoef>
-5.4800

> <Gold.Chemscore.Hbond>
2.4593

> <Gold.Chemscore.Metal>
0.0000

> <Gold.Chemscore.Lipo>
65.6692

> <Gold.Chemscore.Internal_Hbond>
0.0000

> <Gold.Chemscore.DEClash>
3.2700

> <Gold.Chemscore.DEInternal>
2.8496

> <Gold.Chemscore.Rot>
2.4897

> <Gold.Chemscore.Internal.Correction>
   9.000000E+99

> <Gold.Chemscore.Hbonds>
donor molecule, donor type, donor heavy atom, donor atom, acceptor molecule, acceptor atom, score
      L1  H    15    36       P1  7957  0.01
      L1  H    24    50       P1 11000  0.65

> <Gold.Chemscore.Hbond.Weighted>
-8.2140

> <Gold.Chemscore.Metal.Weighted>
-0.0000

> <Gold.Chemscore.Lipo.Weighted>
-7.6833

> <Gold.Chemscore.Internal_Hbond.Weighted>
0.0000

> <Gold.Chemscore.DEClash.Weighted>
3.2700

> <Gold.Chemscore.DEInternal.Weighted>
2.8496

> <Gold.Chemscore.Rot.Weighted>
6.3735

> <Gold.Chemscore.Internal.Correction.Weighted>
   9.000000E+99

> <Gold.Protein.RotatedTorsions>
[ 6907 6896 6895 6894 ] final -132.10 input  -60.11 | X-H torsion
[ 7974 7965 7964 7962 ] final -140.44 input  175.53 | X-H torsion
[ 8008 7997 7996 7995 ] final -158.15 input   59.86 | X-H torsion
[ 10167 10162 10161 10158 ] final -154.97 input  -65.29 | X-H torsion
[ 10718 10713 10712 10709 ] final   92.34 input   66.30 | X-H torsion
[ 10763 10752 10751 10750 ] final   37.42 input  -60.55 | X-H torsion
[ 11005 11000 10999 10996 ] final  177.72 input  -57.11 | X-H torsion

> <Gold.Protein.ActiveResidues>
 VAL166  LYS551  ARG553  GLY616  TRP617  ASP618  TYR619  PRO620  LYS621  CYS622 
 ASP623  PHE694  ASN695  SER759  ASP760  ASP761  ALA762  ILE779  LEU786  VAL792 
 PHE793  MET794  SER795  GLU796  ALA797  LYS798  CYS799  TRP800  GLU811  SER814 

> <Gold.Protein.RotatedAtoms>
  150.9585  133.6470  159.2758 H   0  0  0  0  0  0  0  0  0  0  0  0  # atno 6907 bound_to 6896
  151.3801  135.0937  159.9503 H   0  0  0  0  0  0  0  0  0  0  0  0  # atno 6908 bound_to 6896
  152.5138  133.9122  159.7548 H   0  0  0  0  0  0  0  0  0  0  0  0  # atno 6909 bound_to 6896
  144.8597  140.6200  143.5336 H   0  0  0  0  0  0  0  0  0  0  0  0  # atno 7974 bound_to 7965
  155.7431  140.0817  157.2236 H   0  0  0  0  0  0  0  0  0  0  0  0  # atno 8008 bound_to 7997
  154.4020  140.1574  156.2694 H   0  0  0  0  0  0  0  0  0  0  0  0  # atno 8009 bound_to 7997
  155.9001  140.3410  155.6023 H   0  0  0  0  0  0  0  0  0  0  0  0  # atno 8010 bound_to 7997
  139.6970  143.9326  152.2411 H   0  0  0  0  0  0  0  0  0  0  0  0  # atno 10167 bound_to 10162
  157.6959  131.0440  150.3867 H   0  0  0  0  0  0  0  0  0  0  0  0  # atno 10718 bound_to 10713
  153.0038  135.6278  154.2142 H   0  0  0  0  0  0  0  0  0  0  0  0  # atno 10763 bound_to 10752
  154.1885  135.2810  155.3031 H   0  0  0  0  0  0  0  0  0  0  0  0  # atno 10764 bound_to 10752
  154.5778  135.5657  153.7216 H   0  0  0  0  0  0  0  0  0  0  0  0  # atno 10765 bound_to 10752
  140.3872  134.6894  157.4486 H   0  0  0  0  0  0  0  0  0  0  0  0  # atno 11005 bound_to 11000
  145.4336  139.1545  143.4009 LP  0  0  0  0  0  0  0  0  0  0  0  0  # atno 17320 bound_to 7965
  146.2851  140.4453  142.8761 LP  0  0  0  0  0  0  0  0  0  0  0  0  # atno 17321 bound_to 7965
  139.9158  144.6829  150.8514 LP  0  0  0  0  0  0  0  0  0  0  0  0  # atno 17342 bound_to 10162
  140.7699  143.3410  151.2208 LP  0  0  0  0  0  0  0  0  0  0  0  0  # atno 17343 bound_to 10162
  156.4275  130.3965  149.6783 LP  0  0  0  0  0  0  0  0  0  0  0  0  # atno 17370 bound_to 10713
  156.4012  130.7675  151.2683 LP  0  0  0  0  0  0  0  0  0  0  0  0  # atno 17371 bound_to 10713
  140.0433  134.6235  155.8952 LP  0  0  0  0  0  0  0  0  0  0  0  0  # atno 17394 bound_to 11000
  141.1903  133.6568  156.5406 LP  0  0  0  0  0  0  0  0  0  0  0  0  # atno 17395 bound_to 11000

$$$$
