AV-unprocessed.smi:2985|AV-procd|sdf|11379|dock3
  -GOLD-   2272016303D 1   1.00000     0.00000
 Structure written by MMmdl.
 33 34  0  0  0  0  0  0  0  0  1 V2000
  156.6066  140.2583  159.5870 C   0  0  0  0  0  0  0  0  0  0  0  0
  155.3063  139.8399  159.2106 O   0  0  0  0  0  0  0  0  0  0  0  0
  154.2940  140.4463  159.9951 C   0  0  0  0  0  0  0  0  0  0  0  0
  152.9275  139.9233  159.5346 C   0  0  0  0  0  0  0  0  0  0  0  0
  152.2253  140.9067  158.7261 N   0  0  0  0  0  0  0  0  0  0  0  0
  151.4959  140.6906  157.6049 C   0  0  0  0  0  0  0  0  0  0  0  0
  151.2800  139.0749  156.9356 S   0  0  0  0  0  0  0  0  0  0  0  0
  151.6424  139.4708  155.2013 C   0  0  0  0  0  0  0  0  0  0  0  0
  151.0985  138.4232  154.2332 C   0  0  0  0  0  0  0  0  0  0  0  0
  150.1764  138.8265  153.3550 N   0  0  0  0  0  0  0  0  0  0  0  0
  151.4960  137.2614  154.2824 O   0  0  0  0  0  0  0  0  0  0  0  0
  150.9638  141.7764  157.0434 N   0  0  0  0  0  0  0  0  0  0  0  0
  151.3904  142.7914  157.8775 C   0  0  0  0  0  0  0  0  0  0  0  0
  151.1622  144.1850  157.8198 C   0  0  0  0  0  0  0  0  0  0  0  0
  151.7149  145.0395  158.7962 C   0  0  0  0  0  0  0  0  0  0  0  0
  152.5025  144.5145  159.8413 C   0  0  0  0  0  0  0  0  0  0  0  0
  152.7416  143.1288  159.9177 C   0  0  0  0  0  0  0  0  0  0  0  0
  152.1859  142.2801  158.9416 C   0  0  0  0  0  0  0  0  0  0  0  0
  157.3473  139.7628  158.9597 H   0  0  0  0  0  0  0  0  0  0  0  0
  156.8189  140.0008  160.6255 H   0  0  0  0  0  0  0  0  0  0  0  0
  156.7256  141.3352  159.4620 H   0  0  0  0  0  0  0  0  0  0  0  0
  154.4485  140.2139  161.0501 H   0  0  0  0  0  0  0  0  0  0  0  0
  154.3403  141.5312  159.8864 H   0  0  0  0  0  0  0  0  0  0  0  0
  153.0404  139.0029  158.9612 H   0  0  0  0  0  0  0  0  0  0  0  0
  152.3111  139.6730  160.3985 H   0  0  0  0  0  0  0  0  0  0  0  0
  151.2234  140.4489  154.9615 H   0  0  0  0  0  0  0  0  0  0  0  0
  152.7229  139.5438  155.0697 H   0  0  0  0  0  0  0  0  0  0  0  0
  149.7782  138.1663  152.7029 H   0  0  0  0  0  0  0  0  0  0  0  0
  149.8717  139.7892  153.3552 H   0  0  0  0  0  0  0  0  0  0  0  0
  150.5617  144.5971  157.0223 H   0  0  0  0  0  0  0  0  0  0  0  0
  151.5347  146.1031  158.7421 H   0  0  0  0  0  0  0  0  0  0  0  0
  152.9234  145.1761  160.5843 H   0  0  0  0  0  0  0  0  0  0  0  0
  153.3458  142.7249  160.7164 H   0  0  0  0  0  0  0  0  0  0  0  0
  1  2  1  0  0  0  0
  1 19  1  0  0  0  0
  1 20  1  0  0  0  0
  1 21  1  0  0  0  0
  2  3  1  0  0  0  0
  3  4  1  0  0  0  0
  3 22  1  0  0  0  0
  3 23  1  0  0  0  0
  4  5  1  0  0  0  0
  4 24  1  0  0  0  0
  4 25  1  0  0  0  0
  5 18  1  0  0  0  0
  5  6  1  0  0  0  0
  6  7  1  0  0  0  0
  6 12  2  0  0  0  0
  7  8  1  0  0  0  0
  8  9  1  0  0  0  0
  8 26  1  0  0  0  0
  8 27  1  0  0  0  0
  9 10  1  0  0  0  0
  9 11  2  0  0  0  0
 10 28  1  0  0  0  0
 10 29  1  0  0  0  0
 12 13  1  0  0  0  0
 13 18  2  0  0  0  0
 13 14  1  0  0  0  0
 14 15  2  0  0  0  0
 14 30  1  0  0  0  0
 15 16  1  0  0  0  0
 15 31  1  0  0  0  0
 16 17  2  0  0  0  0
 16 32  1  0  0  0  0
 17 18  1  0  0  0  0
 17 33  1  0  0  0  0
M  END
> <s_m_source_file>
AV-unprocessed.smi

> <i_m_source_file_index>
2985

> <i_lp_mmshare_version>
43012

> <i_f3d_flags>
0

> <s_epik_input>
W2NIXTFbY0hdW2NIXVtjSF1jKGMxMiluKFtDSDJdW0NIMl1PW0NIM10pYyhuMilTW0NIMl1DKD1PKVtOSDJd

> <s_epik_cmdline>
J2VwaWtfcHl0aG9uJywgJy1waCcsICc3LjAnLCAnLXRuJywgJzgnLCAnLW1hJywgJzIwMCcsICctbWV0YWxfYmluZGluZycsICctaW1hZScsICc8aW5maWxlLm1hZT4nLCAnLW9tYWUnLCAnPG91dGZpbGUubWFlPic=

> <r_epik_Ionization_Penalty>
0.0273334

> <r_epik_Ionization_Penalty_Charging>
0

> <r_epik_Ionization_Penalty_Neutral>
0.0273334

> <r_epik_State_Penalty>
0.0223655

> <r_epik_Charging_Adjusted_Penalty>
0.0223655

> <i_epik_Tot_Q>
0

> <i_epik_Tot_abs_Q>
0

> <r_epik_Metal_State_Penalty>
0.0213644

> <b_epik_Metal_Only>
0

> <s_lp_Force_Field>
OPLS_2005

> <r_lp_Energy>
5.41897

> <b_lp_Chiralities_Consistent>
1

> <s_lp_Variant>
AV-unprocessed.smi:2985-1

> <Gold.Version>
5.8.1

> <Gold.Id.Protein>
6NUR|6NUR_protein|mol2

> <Gold.PLP.Fitness>
48.6631

> <Gold.PLP.PLP>
-41.3136

> <Gold.PLP.part.hbond>
-4.2876

> <Gold.PLP.part.metal>
0.0000

> <Gold.PLP.part.buried>
-3.2283

> <Gold.PLP.part.nonpolar>
-33.2735

> <Gold.PLP.part.repulsive>
0.2993

> <Gold.PLP.ligand.clash>
0.0000

> <Gold.PLP.ligand.torsion>
0.8398

> <Gold.PLP.Chemscore.Hbond>
3.0000

> <Gold.PLP.Chemscore.CHOScore>
0.0000

> <Gold.PLP.Chemscore.Metal>
0.0000

> <Gold.Chemscore.Hbonds>
donor molecule, donor type, donor heavy atom, donor atom, acceptor molecule, acceptor atom, score
      L1  H    10    28       P1  7948  0.54
      P1  H  7997  8010       L1     2  0.73
      P1  H 10752 10763       L1    11  0.70

> <Gold.PLP.Chemscore.Internal.Correction>
0.0290

> <Gold.Rescore>
     Score         DG    S(hbond)    S(metal)    S(lipo)     H(rot)  DE(clash)    DE(int)     intcor
     17.17     -19.35       2.63        0.00     102.06       2.68       0.19       1.99       ----

> <Gold.Chemscore.Fitness>
17.1720

> <Gold.Chemscore.DG>
-19.3506

> <Gold.Chemscore.ZeroCoef>
-5.4800

> <Gold.Chemscore.Hbond>
2.6329

> <Gold.Chemscore.Metal>
0.0000

> <Gold.Chemscore.Lipo>
102.0609

> <Gold.Chemscore.Internal_Hbond>
0.0000

> <Gold.Chemscore.DEClash>
0.1859

> <Gold.Chemscore.DEInternal>
1.9927

> <Gold.Chemscore.Rot>
2.6814

> <Gold.Chemscore.Internal.Correction>
   9.000000E+99

> <Gold.Chemscore.Hbonds>
donor molecule, donor type, donor heavy atom, donor atom, acceptor molecule, acceptor atom, score
      L1  H    10    28       P1  7948  0.24
      L1  H    10    29       P1  7957  0.02
      P1  H  7997  8010       L1     2  0.09
      P1  H 10752 10763       L1    11  0.68

> <Gold.Chemscore.Hbond.Weighted>
-8.7938

> <Gold.Chemscore.Metal.Weighted>
-0.0000

> <Gold.Chemscore.Lipo.Weighted>
-11.9411

> <Gold.Chemscore.Internal_Hbond.Weighted>
0.0000

> <Gold.Chemscore.DEClash.Weighted>
0.1859

> <Gold.Chemscore.DEInternal.Weighted>
1.9927

> <Gold.Chemscore.Rot.Weighted>
6.8644

> <Gold.Chemscore.Internal.Correction.Weighted>
   9.000000E+99

> <Gold.Protein.RotatedTorsions>
[ 6907 6896 6895 6894 ] final -100.18 input  -60.11 | X-H torsion
[ 7974 7965 7964 7962 ] final  106.56 input  175.53 | X-H torsion
[ 8008 7997 7996 7995 ] final  -28.14 input   59.86 | X-H torsion
[ 10167 10162 10161 10158 ] final  -11.09 input  -65.29 | X-H torsion
[ 10718 10713 10712 10709 ] final  152.82 input   66.30 | X-H torsion
[ 10763 10752 10751 10750 ] final   40.09 input  -60.55 | X-H torsion
[ 11005 11000 10999 10996 ] final   20.12 input  -57.11 | X-H torsion

> <Gold.Protein.ActiveResidues>
 VAL166  LYS551  ARG553  GLY616  TRP617  ASP618  TYR619  PRO620  LYS621  CYS622 
 ASP623  PHE694  ASN695  SER759  ASP760  ASP761  ALA762  ILE779  LEU786  VAL792 
 PHE793  MET794  SER795  GLU796  ALA797  LYS798  CYS799  TRP800  GLU811  SER814 

> <Gold.Protein.RotatedAtoms>
  150.7106  134.0926  159.3936 H   0  0  0  0  0  0  0  0  0  0  0  0  # atno 6907 bound_to 6896
  151.8912  135.0413  160.0507 H   0  0  0  0  0  0  0  0  0  0  0  0  # atno 6908 bound_to 6896
  152.2490  133.5163  159.5351 H   0  0  0  0  0  0  0  0  0  0  0  0  # atno 6909 bound_to 6896
  145.3050  139.2557  143.3793 H   0  0  0  0  0  0  0  0  0  0  0  0  # atno 7974 bound_to 7965
  154.4345  140.1853  156.1042 H   0  0  0  0  0  0  0  0  0  0  0  0  # atno 8008 bound_to 7997
  156.0268  140.3335  155.7071 H   0  0  0  0  0  0  0  0  0  0  0  0  # atno 8009 bound_to 7997
  155.5897  140.0629  157.2752 H   0  0  0  0  0  0  0  0  0  0  0  0  # atno 8010 bound_to 7997
  140.7130  143.5677  150.9126 H   0  0  0  0  0  0  0  0  0  0  0  0  # atno 10167 bound_to 10162
  157.2528  131.0782  151.1718 H   0  0  0  0  0  0  0  0  0  0  0  0  # atno 10718 bound_to 10713
  152.9947  135.6201  154.2570 H   0  0  0  0  0  0  0  0  0  0  0  0  # atno 10763 bound_to 10752
  154.2307  135.2792  155.2892 H   0  0  0  0  0  0  0  0  0  0  0  0  # atno 10764 bound_to 10752
  154.5452  135.5749  153.6932 H   0  0  0  0  0  0  0  0  0  0  0  0  # atno 10765 bound_to 10752
  140.4061  134.1667  155.7665 H   0  0  0  0  0  0  0  0  0  0  0  0  # atno 11005 bound_to 11000
  146.3138  140.3573  142.8661 LP  0  0  0  0  0  0  0  0  0  0  0  0  # atno 17320 bound_to 7965
  144.9062  140.7702  143.5836 LP  0  0  0  0  0  0  0  0  0  0  0  0  # atno 17321 bound_to 7965
  139.9403  143.6390  152.3055 LP  0  0  0  0  0  0  0  0  0  0  0  0  # atno 17342 bound_to 10162
  139.6872  144.7650  151.1503 LP  0  0  0  0  0  0  0  0  0  0  0  0  # atno 17343 bound_to 10162
  157.3259  130.6960  149.6296 LP  0  0  0  0  0  0  0  0  0  0  0  0  # atno 17370 bound_to 10713
  155.9666  130.4321  150.4951 LP  0  0  0  0  0  0  0  0  0  0  0  0  # atno 17371 bound_to 10713
  141.1838  133.8356  157.1160 LP  0  0  0  0  0  0  0  0  0  0  0  0  # atno 17394 bound_to 11000
  140.0301  134.9905  157.0763 LP  0  0  0  0  0  0  0  0  0  0  0  0  # atno 17395 bound_to 11000

$$$$
