AV-unprocessed.smi:41|AV-procd|sdf|386|dock2
  -GOLD-   2262016243D 1   1.00000     0.00000
 Structure written by MMmdl.
 26 27  0  0  0  0  0  0  0  0  1 V2000
  150.0333  139.2789  153.5701 N   0  0  0  0  0  0  0  0  0  0  0  0
  150.3279  139.9190  154.7109 C   0  0  0  0  0  0  0  0  0  0  0  0
  151.3038  139.4597  155.4698 N   0  0  0  0  0  0  0  0  0  0  0  0
  151.6766  140.0441  156.6520 C   0  0  0  0  0  0  0  0  0  0  0  0
  152.5813  139.5563  157.3283 O   0  0  0  0  0  0  0  0  0  0  0  0
  150.9868  141.2176  157.0497 N   0  0  0  0  0  0  0  0  0  0  0  0
  151.2771  141.8560  158.3310 C   0  0  1  0  0  0  0  0  0  0  0  0
  152.7838  141.9981  158.6424 C   0  0  0  0  0  0  0  0  0  0  0  0
  152.9445  143.3826  159.7838 S   0  0  0  0  0  0  0  0  0  0  0  0
  151.2046  143.7897  159.5055 C   0  0  1  0  0  0  0  0  0  0  0  0
  150.9354  145.2986  159.3830 C   0  0  0  0  0  0  0  0  0  0  0  0
  149.5651  145.5982  159.5576 O   0  0  0  0  0  0  0  0  0  0  0  0
  150.7121  143.1275  158.3534 O   0  0  0  0  0  0  0  0  0  0  0  0
  149.9363  141.6874  156.2709 C   0  0  0  0  0  0  0  0  0  0  0  0
  149.5836  141.0903  155.1125 C   0  0  0  0  0  0  0  0  0  0  0  0
  148.5705  141.5660  154.3679 F   0  0  0  0  0  0  0  0  0  0  0  0
  150.8090  141.2951  159.1418 H   0  0  0  0  0  0  0  0  0  0  0  0
  150.6443  143.4033  160.3585 H   0  0  0  0  0  0  0  0  0  0  0  0
  149.2838  139.6168  152.9836 H   0  0  0  0  0  0  0  0  0  0  0  0
  150.5598  138.4605  153.3009 H   0  0  0  0  0  0  0  0  0  0  0  0
  153.1693  141.0732  159.0715 H   0  0  0  0  0  0  0  0  0  0  0  0
  153.3653  142.2310  157.7530 H   0  0  0  0  0  0  0  0  0  0  0  0
  151.5296  145.8572  160.1067 H   0  0  0  0  0  0  0  0  0  0  0  0
  151.2290  145.6461  158.3921 H   0  0  0  0  0  0  0  0  0  0  0  0
  149.1313  145.5192  158.7219 H   0  0  0  0  0  0  0  0  0  0  0  0
  149.3616  142.5454  156.5869 H   0  0  0  0  0  0  0  0  0  0  0  0
  1  2  1  0  0  0  0
  1 19  1  0  0  0  0
  1 20  1  0  0  0  0
  2 15  1  0  0  0  0
  2  3  2  0  0  0  0
  3  4  1  0  0  0  0
  4  5  2  0  0  0  0
  4  6  1  0  0  0  0
  6  7  1  0  0  0  0
  6 14  1  0  0  0  0
  7 17  1  0  0  0  0
  7 13  1  0  0  0  0
  7  8  1  0  0  0  0
  8  9  1  0  0  0  0
  8 21  1  0  0  0  0
  8 22  1  0  0  0  0
  9 10  1  0  0  0  0
 10 18  1  0  0  0  0
 10 11  1  0  0  0  0
 10 13  1  0  0  0  0
 11 12  1  0  0  0  0
 11 23  1  0  0  0  0
 11 24  1  0  0  0  0
 12 25  1  0  0  0  0
 14 15  2  0  0  0  0
 14 26  1  0  0  0  0
 15 16  1  0  0  0  0
M  END
> <s_m_source_file>
AV-unprocessed.smi

> <i_m_source_file_index>
41

> <i_lp_mmshare_version>
43012

> <i_f3d_flags>
0

> <s_epik_input>
W05IMl1jMW5jKD1PKW4oW2NIXWMxRilbQ0BASF0yW0NIMl1TW0NAQEhdKE8yKVtDSDJdW09IXQ==

> <s_epik_cmdline>
J2VwaWtfcHl0aG9uJywgJy1waCcsICc3LjAnLCAnLXRuJywgJzgnLCAnLW1hJywgJzIwMCcsICctbWV0YWxfYmluZGluZycsICctaW1hZScsICc8aW5maWxlLm1hZT4nLCAnLW9tYWUnLCAnPG91dGZpbGUubWFlPic=

> <r_lp_tautomer_probability>
1

> <r_epik_Ionization_Penalty>
0.000101883

> <r_epik_Ionization_Penalty_Charging>
1.48607e-08

> <r_epik_Ionization_Penalty_Neutral>
0.000101868

> <r_epik_State_Penalty>
-0

> <r_epik_Charging_Adjusted_Penalty>
1.48607e-08

> <i_epik_Tot_Q>
0

> <i_epik_Tot_abs_Q>
0

> <r_epik_Metal_State_Penalty>
-0

> <b_epik_Metal_Only>
0

> <s_epik_Chemistry_Notes>
This compound contains an acetal/aminal-like group ( X-CH(R)-Y where X, Y are N, S, or O) that may be acid/base labile, releasing an aldehyde.

> <s_lp_Force_Field>
OPLS_2005

> <r_lp_Energy>
14.0891

> <b_lp_Chiralities_Consistent>
1

> <s_lp_Variant>
AV-unprocessed.smi:41-4

> <Gold.Version>
5.8.1

> <Gold.Id.Protein>
6NUR|6NUR_protein|mol2

> <Gold.PLP.Fitness>
41.3418

> <Gold.PLP.PLP>
-31.7480

> <Gold.PLP.part.hbond>
-4.0000

> <Gold.PLP.part.metal>
0.0000

> <Gold.PLP.part.buried>
-1.8682

> <Gold.PLP.part.nonpolar>
-25.3361

> <Gold.PLP.part.repulsive>
0.2368

> <Gold.PLP.ligand.clash>
0.0000

> <Gold.PLP.ligand.torsion>
0.5664

> <Gold.PLP.Chemscore.Hbond>
2.5600

> <Gold.PLP.Chemscore.CHOScore>
1.0000

> <Gold.PLP.Chemscore.Metal>
0.0000

> <Gold.Chemscore.Hbonds>
donor molecule, donor type, donor heavy atom, donor atom, acceptor molecule, acceptor atom, score
      L1  H     1    19       P1  7957  0.40
      L1  H    12    25       P1  8029  1.00
      P1  H  7997  8008       L1     5  0.94
      L1  C    14    26       P1  8028  1.00

> <Gold.PLP.Chemscore.Internal.Correction>
0.0464

> <Gold.Rescore>
     Score         DG    S(hbond)    S(metal)    S(lipo)     H(rot)  DE(clash)    DE(int)     intcor
     11.07     -14.38       2.40        0.00      55.53       2.19       1.13       2.17       ----

> <Gold.Chemscore.Fitness>
11.0740

> <Gold.Chemscore.DG>
-14.3804

> <Gold.Chemscore.ZeroCoef>
-5.4800

> <Gold.Chemscore.Hbond>
2.4004

> <Gold.Chemscore.Metal>
0.0000

> <Gold.Chemscore.Lipo>
55.5280

> <Gold.Chemscore.Internal_Hbond>
0.0000

> <Gold.Chemscore.DEClash>
1.1319

> <Gold.Chemscore.DEInternal>
2.1746

> <Gold.Chemscore.Rot>
2.1929

> <Gold.Chemscore.Internal.Correction>
   9.000000E+99

> <Gold.Chemscore.Hbonds>
donor molecule, donor type, donor heavy atom, donor atom, acceptor molecule, acceptor atom, score
      L1  H     1    19       P1  7957  0.40
      L1  H    12    25       P1  8029  0.98
      P1  H  7997  8008       L1     5  0.85

> <Gold.Chemscore.Hbond.Weighted>
-8.0174

> <Gold.Chemscore.Metal.Weighted>
-0.0000

> <Gold.Chemscore.Lipo.Weighted>
-6.4968

> <Gold.Chemscore.Internal_Hbond.Weighted>
0.0000

> <Gold.Chemscore.DEClash.Weighted>
1.1319

> <Gold.Chemscore.DEInternal.Weighted>
2.1746

> <Gold.Chemscore.Rot.Weighted>
5.6137

> <Gold.Chemscore.Internal.Correction.Weighted>
   9.000000E+99

> <Gold.Protein.RotatedTorsions>
[ 6907 6896 6895 6894 ] final   39.55 input  -60.11 | X-H torsion
[ 7974 7965 7964 7962 ] final   94.23 input  175.53 | X-H torsion
[ 8008 7997 7996 7995 ] final  -82.08 input   59.86 | X-H torsion
[ 10167 10162 10161 10158 ] final  142.74 input  -65.29 | X-H torsion
[ 10718 10713 10712 10709 ] final -110.37 input   66.30 | X-H torsion
[ 10763 10752 10751 10750 ] final -107.10 input  -60.55 | X-H torsion
[ 11005 11000 10999 10996 ] final   75.43 input  -57.11 | X-H torsion

> <Gold.Protein.ActiveResidues>
 VAL166  LYS551  ARG553  GLY616  TRP617  ASP618  TYR619  PRO620  LYS621  CYS622 
 ASP623  PHE694  ASN695  SER759  ASP760  ASP761  ALA762  ILE779  LEU786  VAL792 
 PHE793  MET794  SER795  GLU796  ALA797  LYS798  CYS799  TRP800  GLU811  SER814 

> <Gold.Protein.RotatedAtoms>
  152.1710  134.8834  160.0534 H   0  0  0  0  0  0  0  0  0  0  0  0  # atno 6907 bound_to 6896
  151.9794  133.3748  159.4110 H   0  0  0  0  0  0  0  0  0  0  0  0  # atno 6908 bound_to 6896
  150.6902  134.3977  159.5149 H   0  0  0  0  0  0  0  0  0  0  0  0  # atno 6909 bound_to 6896
  145.4683  139.2283  143.2949 H   0  0  0  0  0  0  0  0  0  0  0  0  # atno 7974 bound_to 7965
  154.6049  140.0638  156.9418 H   0  0  0  0  0  0  0  0  0  0  0  0  # atno 8008 bound_to 7997
  155.2070  140.3319  155.4316 H   0  0  0  0  0  0  0  0  0  0  0  0  # atno 8009 bound_to 7997
  156.2341  140.1854  156.7149 H   0  0  0  0  0  0  0  0  0  0  0  0  # atno 8010 bound_to 7997
  139.4987  144.6087  151.6320 H   0  0  0  0  0  0  0  0  0  0  0  0  # atno 10167 bound_to 10162
  156.0587  130.5812  150.8228 H   0  0  0  0  0  0  0  0  0  0  0  0  # atno 10718 bound_to 10713
  154.8054  135.4687  154.0379 H   0  0  0  0  0  0  0  0  0  0  0  0  # atno 10763 bound_to 10752
  153.1852  135.6846  153.8432 H   0  0  0  0  0  0  0  0  0  0  0  0  # atno 10764 bound_to 10752
  153.7969  135.3235  155.3363 H   0  0  0  0  0  0  0  0  0  0  0  0  # atno 10765 bound_to 10752
  139.9344  134.7517  156.1270 H   0  0  0  0  0  0  0  0  0  0  0  0  # atno 11005 bound_to 11000
  146.2412  140.5458  142.8933 LP  0  0  0  0  0  0  0  0  0  0  0  0  # atno 17320 bound_to 7965
  144.7961  140.6125  143.6509 LP  0  0  0  0  0  0  0  0  0  0  0  0  # atno 17321 bound_to 7965
  140.5756  144.0034  150.6240 LP  0  0  0  0  0  0  0  0  0  0  0  0  # atno 17342 bound_to 10162
  140.3166  143.3163  152.0826 LP  0  0  0  0  0  0  0  0  0  0  0  0  # atno 17343 bound_to 10162
  157.5578  131.0945  150.9602 LP  0  0  0  0  0  0  0  0  0  0  0  0  # atno 17370 bound_to 10713
  156.9847  130.5540  149.5299 LP  0  0  0  0  0  0  0  0  0  0  0  0  # atno 17371 bound_to 10713
  141.0950  133.6699  156.2625 LP  0  0  0  0  0  0  0  0  0  0  0  0  # atno 17394 bound_to 11000
  140.6115  134.5453  157.5534 LP  0  0  0  0  0  0  0  0  0  0  0  0  # atno 17395 bound_to 11000

$$$$
