AV-unprocessed.smi:2572|AV-procd|sdf|10110|dock7
  -GOLD-   2272014123D 1   1.00000     0.00000
 Structure written by MMmdl.
 38 39  0  0  0  0  0  0  0  0  1 V2000
  149.4642  141.1696  155.6501 C   0  0  0  0  0  0  0  0  0  0  0  0
  150.3071  140.4051  154.7903 O   0  0  0  0  0  0  0  0  0  0  0  0
  150.8861  139.2697  155.3298 C   0  0  0  0  0  0  0  0  0  0  0  0
  150.5792  137.9890  154.7289 C   0  0  0  0  0  0  0  0  0  0  0  0
  151.1395  136.8730  155.2432 C   0  0  0  0  0  0  0  0  0  0  0  0
  152.0484  136.9239  156.3878 C   0  0  0  0  0  0  0  0  0  0  0  0
  152.5782  135.9236  156.8710 O   0  0  0  0  0  0  0  0  0  0  0  0
  152.2565  138.1851  156.8703 N   0  0  0  0  0  0  0  0  0  0  0  0
  153.1495  138.4269  158.0098 C   0  0  0  0  0  0  0  0  0  0  0  0
  152.3670  138.7942  159.2894 C   0  0  2  0  0  0  0  0  0  0  0  0
  151.2321  137.9553  159.3867 O   0  0  0  0  0  0  0  0  0  0  0  0
  151.8753  140.2534  159.2573 C   0  0  0  0  0  0  0  0  0  0  0  0
  152.9945  141.2716  158.9810 C   0  0  0  0  0  0  0  0  0  0  0  0
  152.6618  142.6462  159.5290 C   0  0  0  0  0  0  0  0  0  0  0  0
  152.4277  143.7231  158.6480 C   0  0  0  0  0  0  0  0  0  0  0  0
  152.1103  144.9976  159.1574 C   0  0  0  0  0  0  0  0  0  0  0  0
  152.0250  145.1991  160.5487 C   0  0  0  0  0  0  0  0  0  0  0  0
  152.2585  144.1264  161.4309 C   0  0  0  0  0  0  0  0  0  0  0  0
  152.5767  142.8520  160.9222 C   0  0  0  0  0  0  0  0  0  0  0  0
  151.6852  139.3339  156.3480 N   0  0  0  0  0  0  0  0  0  0  0  0
  149.0817  142.0292  155.1000 H   0  0  0  0  0  0  0  0  0  0  0  0
  150.0072  141.5529  156.5159 H   0  0  0  0  0  0  0  0  0  0  0  0
  148.6032  140.5931  155.9931 H   0  0  0  0  0  0  0  0  0  0  0  0
  149.9104  137.9389  153.8824 H   0  0  0  0  0  0  0  0  0  0  0  0
  150.9118  135.9155  154.7981 H   0  0  0  0  0  0  0  0  0  0  0  0
  153.7118  137.5077  158.1841 H   0  0  0  0  0  0  0  0  0  0  0  0
  153.9109  139.1770  157.7872 H   0  0  0  0  0  0  0  0  0  0  0  0
  152.9949  138.6496  160.1696 H   0  0  0  0  0  0  0  0  0  0  0  0
  151.1119  137.7131  160.2922 H   0  0  0  0  0  0  0  0  0  0  0  0
  151.1220  140.3545  158.4747 H   0  0  0  0  0  0  0  0  0  0  0  0
  151.3728  140.4978  160.1944 H   0  0  0  0  0  0  0  0  0  0  0  0
  153.9336  140.9341  159.4208 H   0  0  0  0  0  0  0  0  0  0  0  0
  153.1707  141.3505  157.9076 H   0  0  0  0  0  0  0  0  0  0  0  0
  152.4881  143.5739  157.5799 H   0  0  0  0  0  0  0  0  0  0  0  0
  151.9304  145.8198  158.4805 H   0  0  0  0  0  0  0  0  0  0  0  0
  151.7797  146.1759  160.9393 H   0  0  0  0  0  0  0  0  0  0  0  0
  152.1927  144.2803  162.4979 H   0  0  0  0  0  0  0  0  0  0  0  0
  152.7527  142.0325  161.6040 H   0  0  0  0  0  0  0  0  0  0  0  0
  1  2  1  0  0  0  0
  1 21  1  0  0  0  0
  1 22  1  0  0  0  0
  1 23  1  0  0  0  0
  2  3  1  0  0  0  0
  3 20  2  0  0  0  0
  3  4  1  0  0  0  0
  4  5  2  0  0  0  0
  4 24  1  0  0  0  0
  5  6  1  0  0  0  0
  5 25  1  0  0  0  0
  6  7  2  0  0  0  0
  6  8  1  0  0  0  0
  8  9  1  0  0  0  0
  8 20  1  0  0  0  0
  9 10  1  0  0  0  0
  9 26  1  0  0  0  0
  9 27  1  0  0  0  0
 10 11  1  0  0  0  0
 10 12  1  0  0  0  0
 10 28  1  0  0  0  0
 11 29  1  0  0  0  0
 12 13  1  0  0  0  0
 12 30  1  0  0  0  0
 12 31  1  0  0  0  0
 13 14  1  0  0  0  0
 13 32  1  0  0  0  0
 13 33  1  0  0  0  0
 14 19  1  0  0  0  0
 14 15  2  0  0  0  0
 15 16  1  0  0  0  0
 15 34  1  0  0  0  0
 16 17  2  0  0  0  0
 16 35  1  0  0  0  0
 17 18  1  0  0  0  0
 17 36  1  0  0  0  0
 18 19  2  0  0  0  0
 18 37  1  0  0  0  0
 19 38  1  0  0  0  0
M  END
> <s_m_source_file>
AV-unprocessed.smi

> <i_m_source_file_index>
2572

> <i_lp_mmshare_version>
43012

> <i_f3d_flags>
0

> <s_epik_input>
W0NIM11PYzFbY0hdW2NIXWMoPU8pbihuMSlbQ0gyXVtDQEhdKFtPSF0pW0NIMl1bQ0gyXWMyW2NIXVtjSF1bY0hdW2NIXVtjSF0y

> <s_epik_cmdline>
J2VwaWtfcHl0aG9uJywgJy1waCcsICc3LjAnLCAnLXRuJywgJzgnLCAnLW1hJywgJzIwMCcsICctbWV0YWxfYmluZGluZycsICctaW1hZScsICc8aW5maWxlLm1hZT4nLCAnLW9tYWUnLCAnPG91dGZpbGUubWFlPic=

> <r_lp_tautomer_probability>
1

> <r_epik_Ionization_Penalty>
8.48543e-06

> <r_epik_Ionization_Penalty_Charging>
6.90219e-06

> <r_epik_Ionization_Penalty_Neutral>
1.58323e-06

> <r_epik_State_Penalty>
-0

> <r_epik_Charging_Adjusted_Penalty>
6.90219e-06

> <i_epik_Tot_Q>
0

> <i_epik_Tot_abs_Q>
0

> <r_epik_Metal_State_Penalty>
-0

> <b_epik_Metal_Only>
0

> <s_lp_Force_Field>
OPLS_2005

> <r_lp_Energy>
29.9707

> <b_lp_Chiralities_Consistent>
1

> <s_lp_Variant>
AV-unprocessed.smi:2572-1

> <Gold.Version>
5.8.1

> <Gold.Id.Protein>
6NUR|6NUR_protein|mol2

> <Gold.PLP.Fitness>
50.3282

> <Gold.PLP.PLP>
-45.4975

> <Gold.PLP.part.hbond>
-1.8474

> <Gold.PLP.part.metal>
0.0000

> <Gold.PLP.part.buried>
-5.5760

> <Gold.PLP.part.nonpolar>
-38.9443

> <Gold.PLP.part.repulsive>
0.1192

> <Gold.PLP.ligand.clash>
0.0000

> <Gold.PLP.ligand.torsion>
0.4994

> <Gold.PLP.Chemscore.Hbond>
1.9280

> <Gold.PLP.Chemscore.CHOScore>
0.0000

> <Gold.PLP.Chemscore.Metal>
0.0000

> <Gold.Chemscore.Hbonds>
donor molecule, donor type, donor heavy atom, donor atom, acceptor molecule, acceptor atom, score
      P1  H  7989  7998       L1     2  1.00
      P1  H 10752 10763       L1     7  0.85

> <Gold.PLP.Chemscore.Internal.Correction>
0.0456

> <Gold.Rescore>
     Score         DG    S(hbond)    S(metal)    S(lipo)     H(rot)  DE(clash)    DE(int)     intcor
     15.08     -15.92       0.85        0.00     120.17       2.52       0.08       0.77       ----

> <Gold.Chemscore.Fitness>
15.0777

> <Gold.Chemscore.DG>
-15.9228

> <Gold.Chemscore.ZeroCoef>
-5.4800

> <Gold.Chemscore.Hbond>
0.8496

> <Gold.Chemscore.Metal>
0.0000

> <Gold.Chemscore.Lipo>
120.1674

> <Gold.Chemscore.Internal_Hbond>
0.0000

> <Gold.Chemscore.DEClash>
0.0786

> <Gold.Chemscore.DEInternal>
0.7665

> <Gold.Chemscore.Rot>
2.5212

> <Gold.Chemscore.Internal.Correction>
   9.000000E+99

> <Gold.Chemscore.Hbonds>
donor molecule, donor type, donor heavy atom, donor atom, acceptor molecule, acceptor atom, score
      P1  H  7989  7998       L1     2  0.29
      P1  H 10752 10763       L1     7  0.15

> <Gold.Chemscore.Hbond.Weighted>
-2.8375

> <Gold.Chemscore.Metal.Weighted>
-0.0000

> <Gold.Chemscore.Lipo.Weighted>
-14.0596

> <Gold.Chemscore.Internal_Hbond.Weighted>
0.0000

> <Gold.Chemscore.DEClash.Weighted>
0.0786

> <Gold.Chemscore.DEInternal.Weighted>
0.7665

> <Gold.Chemscore.Rot.Weighted>
6.4543

> <Gold.Chemscore.Internal.Correction.Weighted>
   9.000000E+99

> <Gold.Protein.RotatedTorsions>
[ 6907 6896 6895 6894 ] final  179.35 input  -60.11 | X-H torsion
[ 7974 7965 7964 7962 ] final   -7.17 input  175.53 | X-H torsion
[ 8008 7997 7996 7995 ] final -154.97 input   59.86 | X-H torsion
[ 10167 10162 10161 10158 ] final   -6.89 input  -65.29 | X-H torsion
[ 10718 10713 10712 10709 ] final  -40.50 input   66.30 | X-H torsion
[ 10763 10752 10751 10750 ] final  115.26 input  -60.55 | X-H torsion
[ 11005 11000 10999 10996 ] final  169.66 input  -57.11 | X-H torsion

> <Gold.Protein.ActiveResidues>
 VAL166  LYS551  ARG553  GLY616  TRP617  ASP618  TYR619  PRO620  LYS621  CYS622 
 ASP623  PHE694  ASN695  SER759  ASP760  ASP761  ALA762  ILE779  LEU786  VAL792 
 PHE793  MET794  SER795  GLU796  ALA797  LYS798  CYS799  TRP800  GLU811  SER814 

> <Gold.Protein.RotatedAtoms>
  151.6731  133.3313  159.3201 H   0  0  0  0  0  0  0  0  0  0  0  0  # atno 6907 bound_to 6896
  150.7858  134.6845  159.6472 H   0  0  0  0  0  0  0  0  0  0  0  0  # atno 6908 bound_to 6896
  152.3927  134.6418  160.0153 H   0  0  0  0  0  0  0  0  0  0  0  0  # atno 6909 bound_to 6896
  146.2313  140.2280  142.8339 H   0  0  0  0  0  0  0  0  0  0  0  0  # atno 7974 bound_to 7965
  155.6945  140.0759  157.2435 H   0  0  0  0  0  0  0  0  0  0  0  0  # atno 8008 bound_to 7997
  154.4083  140.1658  156.2176 H   0  0  0  0  0  0  0  0  0  0  0  0  # atno 8009 bound_to 7997
  155.9422  140.3383  155.6340 H   0  0  0  0  0  0  0  0  0  0  0  0  # atno 8010 bound_to 7997
  140.7011  143.6142  150.8674 H   0  0  0  0  0  0  0  0  0  0  0  0  # atno 10167 bound_to 10162
  156.2806  130.4217  149.8340 H   0  0  0  0  0  0  0  0  0  0  0  0  # atno 10718 bound_to 10713
  153.5196  135.3600  155.2625 H   0  0  0  0  0  0  0  0  0  0  0  0  # atno 10763 bound_to 10752
  154.8736  135.4042  154.3275 H   0  0  0  0  0  0  0  0  0  0  0  0  # atno 10764 bound_to 10752
  153.3943  135.7073  153.6539 H   0  0  0  0  0  0  0  0  0  0  0  0  # atno 10765 bound_to 10752
  140.3001  134.7602  157.3909 H   0  0  0  0  0  0  0  0  0  0  0  0  # atno 11005 bound_to 11000
  144.9580  140.8246  143.5531 LP  0  0  0  0  0  0  0  0  0  0  0  0  # atno 17320 bound_to 7965
  145.2248  139.2142  143.5074 LP  0  0  0  0  0  0  0  0  0  0  0  0  # atno 17321 bound_to 7965
  139.9864  143.5894  152.2925 LP  0  0  0  0  0  0  0  0  0  0  0  0  # atno 17342 bound_to 10162
  139.6534  144.7661  151.2103 LP  0  0  0  0  0  0  0  0  0  0  0  0  # atno 17343 bound_to 10162
  156.5789  130.8457  151.3377 LP  0  0  0  0  0  0  0  0  0  0  0  0  # atno 17370 bound_to 10713
  157.7313  130.9698  150.1874 LP  0  0  0  0  0  0  0  0  0  0  0  0  # atno 17371 bound_to 10713
  140.1117  134.5337  155.8260 LP  0  0  0  0  0  0  0  0  0  0  0  0  # atno 17394 bound_to 11000
  141.2130  133.6727  156.6701 LP  0  0  0  0  0  0  0  0  0  0  0  0  # atno 17395 bound_to 11000

$$$$
