AV-unprocessed.smi:1985|AV-procd|sdf|8043|dock2
  -GOLD-   2272010243D 1   1.00000     0.00000
 Structure written by MMmdl.
 50 51  0  0  0  0  0  0  0  0  1 V2000
  149.2579  141.6428  155.5795 C   0  0  0  0  0  0  0  0  0  0  0  0
  149.3457  140.9249  156.9382 C   0  0  0  0  0  0  0  0  0  0  0  0
  150.7867  140.7448  157.5155 C   0  0  2  0  0  0  0  0  0  0  0  0
  151.6297  140.0894  156.3870 C   0  0  0  0  0  0  0  0  0  0  0  0
  150.7100  139.7461  158.7131 C   0  0  0  0  0  0  0  0  0  0  0  0
  149.7243  138.6939  158.4936 N   0  0  0  0  0  0  0  0  0  0  0  0
  149.7188  137.4780  159.0615 C   0  0  0  0  0  0  0  0  0  0  0  0
  150.6061  137.0893  159.8195 O   0  0  0  0  0  0  0  0  0  0  0  0
  148.5367  136.5448  158.7431 C   0  0  0  0  0  0  0  0  0  0  0  0
  147.8383  136.0179  159.9271 N   0  0  0  0  0  0  0  0  0  0  0  0
  148.1151  134.7360  160.3667 C   0  0  0  0  0  0  0  0  0  0  0  0
  147.4908  134.1563  161.4149 C   0  0  0  0  0  0  0  0  0  0  0  0
  146.4622  134.8714  162.1595 C   0  0  0  0  0  0  0  0  0  0  0  0
  145.8472  134.3798  163.1068 O   0  0  0  0  0  0  0  0  0  0  0  0
  146.2090  136.1848  161.7016 N   0  0  0  0  0  0  0  0  0  0  0  0
  145.1757  136.9270  162.3935 C   0  0  0  0  0  0  0  0  0  0  0  0
  146.8612  136.7851  160.6001 C   0  0  0  0  0  0  0  0  0  0  0  0
  146.5894  137.9235  160.2121 O   0  0  0  0  0  0  0  0  0  0  0  0
  151.3737  142.0554  157.9137 N   0  0  0  0  0  0  0  0  0  0  0  0
  152.5025  141.9766  158.8485 C   0  0  0  0  0  0  0  0  0  0  0  0
  153.1427  143.3534  159.0960 C   0  0  0  0  0  0  0  0  0  0  0  0
  152.1586  144.2616  159.5760 O   0  0  0  0  0  0  0  0  0  0  0  0
  151.0699  144.4100  158.6724 C   0  0  0  0  0  0  0  0  0  0  0  0
  150.4131  143.0416  158.4238 C   0  0  0  0  0  0  0  0  0  0  0  0
  148.2180  141.7402  155.2680 H   0  0  0  0  0  0  0  0  0  0  0  0
  149.7792  141.0922  154.7970 H   0  0  0  0  0  0  0  0  0  0  0  0
  149.6793  142.6470  155.6220 H   0  0  0  0  0  0  0  0  0  0  0  0
  148.7141  141.4498  157.6549 H   0  0  0  0  0  0  0  0  0  0  0  0
  148.8658  139.9529  156.8187 H   0  0  0  0  0  0  0  0  0  0  0  0
  151.1052  139.2615  155.9079 H   0  0  0  0  0  0  0  0  0  0  0  0
  152.5680  139.6817  156.7636 H   0  0  0  0  0  0  0  0  0  0  0  0
  151.8777  140.8054  155.6031 H   0  0  0  0  0  0  0  0  0  0  0  0
  151.6685  139.2555  158.8802 H   0  0  0  0  0  0  0  0  0  0  0  0
  150.4653  140.2763  159.6339 H   0  0  0  0  0  0  0  0  0  0  0  0
  148.9544  138.9238  157.8822 H   0  0  0  0  0  0  0  0  0  0  0  0
  147.8330  137.0934  158.1155 H   0  0  0  0  0  0  0  0  0  0  0  0
  148.8969  135.7220  158.1236 H   0  0  0  0  0  0  0  0  0  0  0  0
  148.8643  134.1621  159.8405 H   0  0  0  0  0  0  0  0  0  0  0  0
  147.7512  133.1480  161.7017 H   0  0  0  0  0  0  0  0  0  0  0  0
  145.2188  137.9860  162.1403 H   0  0  0  0  0  0  0  0  0  0  0  0
  145.3438  136.8204  163.4667 H   0  0  0  0  0  0  0  0  0  0  0  0
  144.2199  136.4946  162.0934 H   0  0  0  0  0  0  0  0  0  0  0  0
  152.1752  141.5672  159.8041 H   0  0  0  0  0  0  0  0  0  0  0  0
  153.2782  141.3142  158.4684 H   0  0  0  0  0  0  0  0  0  0  0  0
  153.9420  143.2726  159.8327 H   0  0  0  0  0  0  0  0  0  0  0  0
  153.5902  143.7410  158.1794 H   0  0  0  0  0  0  0  0  0  0  0  0
  150.3470  145.1063  159.0976 H   0  0  0  0  0  0  0  0  0  0  0  0
  151.4213  144.8452  157.7356 H   0  0  0  0  0  0  0  0  0  0  0  0
  149.5933  143.1887  157.7232 H   0  0  0  0  0  0  0  0  0  0  0  0
  149.9727  142.6925  159.3577 H   0  0  0  0  0  0  0  0  0  0  0  0
  1  2  1  0  0  0  0
  1 25  1  0  0  0  0
  1 26  1  0  0  0  0
  1 27  1  0  0  0  0
  2  3  1  0  0  0  0
  2 28  1  0  0  0  0
  2 29  1  0  0  0  0
  3  4  1  0  0  0  0
  3  5  1  0  0  0  0
  3 19  1  0  0  0  0
  4 30  1  0  0  0  0
  4 31  1  0  0  0  0
  4 32  1  0  0  0  0
  5  6  1  0  0  0  0
  5 33  1  0  0  0  0
  5 34  1  0  0  0  0
  6  7  1  0  0  0  0
  6 35  1  0  0  0  0
  7  8  2  0  0  0  0
  7  9  1  0  0  0  0
  9 10  1  0  0  0  0
  9 36  1  0  0  0  0
  9 37  1  0  0  0  0
 10 17  1  0  0  0  0
 10 11  1  0  0  0  0
 11 12  2  0  0  0  0
 11 38  1  0  0  0  0
 12 13  1  0  0  0  0
 12 39  1  0  0  0  0
 13 14  2  0  0  0  0
 13 15  1  0  0  0  0
 15 16  1  0  0  0  0
 15 17  1  0  0  0  0
 16 40  1  0  0  0  0
 16 41  1  0  0  0  0
 16 42  1  0  0  0  0
 17 18  2  0  0  0  0
 19 24  1  0  0  0  0
 19 20  1  0  0  0  0
 20 21  1  0  0  0  0
 20 43  1  0  0  0  0
 20 44  1  0  0  0  0
 21 22  1  0  0  0  0
 21 45  1  0  0  0  0
 21 46  1  0  0  0  0
 22 23  1  0  0  0  0
 23 24  1  0  0  0  0
 23 47  1  0  0  0  0
 23 48  1  0  0  0  0
 24 49  1  0  0  0  0
 24 50  1  0  0  0  0
M  END
> <s_m_source_file>
AV-unprocessed.smi

> <i_m_source_file_index>
1985

> <i_lp_mmshare_version>
43012

> <i_f3d_flags>
0

> <s_epik_input>
W0NIMl0xW0NIMl1PW0NIMl1bQ0gyXU4xW0NAQF0oW0NIM10pKFtDSDJdW0NIM10pW0NIMl1bTkhdQyg9TylbQ0gyXW4yW2NIXVtjSF1jKD1PKW4oW0NIM10pYzI9Tw==

> <s_epik_cmdline>
J2VwaWtfcHl0aG9uJywgJy1waCcsICc3LjAnLCAnLXRuJywgJzgnLCAnLW1hJywgJzIwMCcsICctbWV0YWxfYmluZGluZycsICctaW1hZScsICc8aW5maWxlLm1hZT4nLCAnLW9tYWUnLCAnPG91dGZpbGUubWFlPic=

> <r_lp_tautomer_probability>
1

> <r_epik_Ionization_Penalty>
0.318667

> <r_epik_Ionization_Penalty_Charging>
1.17294e-08

> <r_epik_Ionization_Penalty_Neutral>
0.318667

> <r_epik_State_Penalty>
0.313095

> <r_epik_Charging_Adjusted_Penalty>
0.313095

> <i_epik_Tot_Q>
0

> <i_epik_Tot_abs_Q>
0

> <r_epik_Metal_State_Penalty>
0.313065

> <b_epik_Metal_Only>
0

> <s_lp_Force_Field>
OPLS_2005

> <r_lp_Energy>
50.9959

> <b_lp_Chiralities_Consistent>
1

> <s_lp_Variant>
AV-unprocessed.smi:1985-2

> <Gold.Version>
5.8.1

> <Gold.Id.Protein>
6NUR|6NUR_protein|mol2

> <Gold.PLP.Fitness>
42.6027

> <Gold.PLP.PLP>
-39.8870

> <Gold.PLP.part.hbond>
-3.0435

> <Gold.PLP.part.metal>
0.0000

> <Gold.PLP.part.buried>
-7.8165

> <Gold.PLP.part.nonpolar>
-29.8801

> <Gold.PLP.part.repulsive>
0.2293

> <Gold.PLP.ligand.clash>
0.1502

> <Gold.PLP.ligand.torsion>
1.6939

> <Gold.PLP.Chemscore.Hbond>
1.9913

> <Gold.PLP.Chemscore.CHOScore>
0.0000

> <Gold.PLP.Chemscore.Metal>
0.0000

> <Gold.Chemscore.Hbonds>
donor molecule, donor type, donor heavy atom, donor atom, acceptor molecule, acceptor atom, score
      P1  H  6896  6909       L1     8  0.93
      P1  H  6934  6947       L1    18  0.73

> <Gold.PLP.Chemscore.Internal.Correction>
0.2799

> <Gold.Rescore>
     Score         DG    S(hbond)    S(metal)    S(lipo)     H(rot)  DE(clash)    DE(int)     intcor
     14.94     -16.51       1.98        0.00      85.68       2.20       0.09       1.48       ----

> <Gold.Chemscore.Fitness>
14.9403

> <Gold.Chemscore.DG>
-16.5070

> <Gold.Chemscore.ZeroCoef>
-5.4800

> <Gold.Chemscore.Hbond>
1.9827

> <Gold.Chemscore.Metal>
0.0000

> <Gold.Chemscore.Lipo>
85.6807

> <Gold.Chemscore.Internal_Hbond>
0.0000

> <Gold.Chemscore.DEClash>
0.0860

> <Gold.Chemscore.DEInternal>
1.4807

> <Gold.Chemscore.Rot>
2.1952

> <Gold.Chemscore.Internal.Correction>
   9.000000E+99

> <Gold.Chemscore.Hbonds>
donor molecule, donor type, donor heavy atom, donor atom, acceptor molecule, acceptor atom, score
      P1  H  6896  6909       L1     8  0.88
      P1  H  6934  6947       L1    18  0.70

> <Gold.Chemscore.Hbond.Weighted>
-6.6221

> <Gold.Chemscore.Metal.Weighted>
-0.0000

> <Gold.Chemscore.Lipo.Weighted>
-10.0246

> <Gold.Chemscore.Internal_Hbond.Weighted>
0.0000

> <Gold.Chemscore.DEClash.Weighted>
0.0860

> <Gold.Chemscore.DEInternal.Weighted>
1.4807

> <Gold.Chemscore.Rot.Weighted>
5.6197

> <Gold.Chemscore.Internal.Correction.Weighted>
   9.000000E+99

> <Gold.Protein.RotatedTorsions>
[ 6907 6896 6895 6894 ] final   99.77 input  -60.11 | X-H torsion
[ 7974 7965 7964 7962 ] final  -95.56 input  175.53 | X-H torsion
[ 8008 7997 7996 7995 ] final   83.13 input   59.86 | X-H torsion
[ 10167 10162 10161 10158 ] final  150.97 input  -65.29 | X-H torsion
[ 10718 10713 10712 10709 ] final -127.75 input   66.30 | X-H torsion
[ 10763 10752 10751 10750 ] final  -44.50 input  -60.55 | X-H torsion
[ 11005 11000 10999 10996 ] final  -25.39 input  -57.11 | X-H torsion

> <Gold.Protein.ActiveResidues>
 VAL166  LYS551  ARG553  GLY616  TRP617  ASP618  TYR619  PRO620  LYS621  CYS622 
 ASP623  PHE694  ASN695  SER759  ASP760  ASP761  ALA762  ILE779  LEU786  VAL792 
 PHE793  MET794  SER795  GLU796  ALA797  LYS798  CYS799  TRP800  GLU811  SER814 

> <Gold.Protein.RotatedAtoms>
  152.5385  134.0379  159.8053 H   0  0  0  0  0  0  0  0  0  0  0  0  # atno 6907 bound_to 6896
  151.0539  133.5593  159.2647 H   0  0  0  0  0  0  0  0  0  0  0  0  # atno 6908 bound_to 6896
  151.2517  135.0632  159.9118 H   0  0  0  0  0  0  0  0  0  0  0  0  # atno 6909 bound_to 6896
  145.3585  140.9488  143.2514 H   0  0  0  0  0  0  0  0  0  0  0  0  # atno 7974 bound_to 7965
  155.9199  140.3422  155.6164 H   0  0  0  0  0  0  0  0  0  0  0  0  # atno 8008 bound_to 7997
  155.7286  140.0792  157.2317 H   0  0  0  0  0  0  0  0  0  0  0  0  # atno 8009 bound_to 7997
  154.4068  140.1592  156.2471 H   0  0  0  0  0  0  0  0  0  0  0  0  # atno 8010 bound_to 7997
  139.4845  144.5479  151.7452 H   0  0  0  0  0  0  0  0  0  0  0  0  # atno 10167 bound_to 10162
  156.1886  130.6780  151.0396 H   0  0  0  0  0  0  0  0  0  0  0  0  # atno 10718 bound_to 10713
  154.0131  135.6679  153.4767 H   0  0  0  0  0  0  0  0  0  0  0  0  # atno 10763 bound_to 10752
  153.0612  135.5026  154.8094 H   0  0  0  0  0  0  0  0  0  0  0  0  # atno 10764 bound_to 10752
  154.6983  135.3074  154.9342 H   0  0  0  0  0  0  0  0  0  0  0  0  # atno 10765 bound_to 10752
  140.8934  133.7573  156.0450 H   0  0  0  0  0  0  0  0  0  0  0  0  # atno 11005 bound_to 11000
  144.8664  139.5101  143.6788 LP  0  0  0  0  0  0  0  0  0  0  0  0  # atno 17320 bound_to 7965
  146.2937  139.7216  142.9142 LP  0  0  0  0  0  0  0  0  0  0  0  0  # atno 17321 bound_to 7965
  140.5029  144.1142  150.5975 LP  0  0  0  0  0  0  0  0  0  0  0  0  # atno 17342 bound_to 10162
  140.4041  143.2689  151.9912 LP  0  0  0  0  0  0  0  0  0  0  0  0  # atno 17343 bound_to 10162
  157.6915  131.0808  150.7094 LP  0  0  0  0  0  0  0  0  0  0  0  0  # atno 17370 bound_to 10713
  156.7151  130.4663  149.5537 LP  0  0  0  0  0  0  0  0  0  0  0  0  # atno 17371 bound_to 10713
  140.8319  134.3168  157.5345 LP  0  0  0  0  0  0  0  0  0  0  0  0  # atno 17394 bound_to 11000
  139.8732  134.9368  156.3670 LP  0  0  0  0  0  0  0  0  0  0  0  0  # atno 17395 bound_to 11000

$$$$
