AV-unprocessed.smi:221|AV-procd|sdf|1689|dock10
  -GOLD-   2262020133D 1   1.00000     0.00000
 Structure written by MMmdl.
 50 53  0  0  0  0  0  0  0  0  1 V2000
  154.5051  139.6647  160.9538 N   0  0  0  0  0  0  0  0  0  0  0  0
  153.9293  140.1844  159.8643 C   0  0  0  0  0  0  0  0  0  0  0  0
  154.2091  139.7828  158.7370 O   0  0  0  0  0  0  0  0  0  0  0  0
  152.8959  141.3156  160.0356 C   0  0  1  0  0  0  0  0  0  0  0  0
  153.4937  142.4909  160.8265 C   0  0  0  0  0  0  0  0  0  0  0  0
  152.6708  143.6924  160.3749 C   0  0  2  0  0  0  0  0  0  0  0  0
  151.5231  143.7267  161.0539 F   0  0  0  0  0  0  0  0  0  0  0  0
  152.3826  143.3873  158.9055 C   0  0  0  0  0  0  0  0  0  0  0  0
  152.4380  141.9342  158.7833 N   0  0  0  0  0  0  0  0  0  0  0  0
  151.5622  141.3171  157.9438 C   0  0  0  0  0  0  0  0  0  0  0  0
  150.8836  142.0531  157.0240 N   0  0  0  0  0  0  0  0  0  0  0  0
  150.0186  141.4690  156.1904 C   0  0  0  0  0  0  0  0  0  0  0  0
  149.6798  140.1820  156.1089 N   0  0  0  0  0  0  0  0  0  0  0  0
  150.3441  139.4363  157.0370 C   0  0  0  0  0  0  0  0  0  0  0  0
  151.2941  139.9175  157.9829 C   0  0  0  0  0  0  0  0  0  0  0  0
  151.7494  138.8630  158.7673 N   0  0  0  0  0  0  0  0  0  0  0  0
  151.1155  137.8205  158.3050 C   0  0  0  0  0  0  0  0  0  0  0  0
  150.2445  138.0759  157.2713 N   0  0  0  0  0  0  0  0  0  0  0  0
  149.4184  137.1050  156.5756 C   0  0  0  0  0  0  0  0  0  0  0  0
  150.0590  135.6897  156.5444 C   0  0  2  0  0  0  0  0  0  0  0  0
  150.5124  135.3239  155.1146 C   0  0  0  0  0  0  0  0  0  0  0  0
  151.3789  136.3065  154.5865 O   0  0  0  0  0  0  0  0  0  0  0  0
  149.1602  134.5903  157.1741 C   0  0  2  0  0  0  0  0  0  0  0  0
  148.8263  134.7895  158.6552 C   0  0  0  0  0  0  0  0  0  0  0  0
  149.0259  133.4039  159.2617 C   0  0  0  0  0  0  0  0  0  0  0  0
  150.0619  132.8518  158.4681 O   0  0  0  0  0  0  0  0  0  0  0  0
  149.7631  133.1775  157.1193 C   0  0  0  0  0  0  0  0  0  0  0  0
  152.0349  140.9297  160.5843 H   0  0  0  0  0  0  0  0  0  0  0  0
  153.1736  144.6478  160.5279 H   0  0  0  0  0  0  0  0  0  0  0  0
  155.1892  138.9285  160.8568 H   0  0  0  0  0  0  0  0  0  0  0  0
  154.2591  140.0155  161.8680 H   0  0  0  0  0  0  0  0  0  0  0  0
  153.4531  142.3366  161.9054 H   0  0  0  0  0  0  0  0  0  0  0  0
  154.5388  142.6506  160.5543 H   0  0  0  0  0  0  0  0  0  0  0  0
  151.4241  143.8092  158.5982 H   0  0  0  0  0  0  0  0  0  0  0  0
  153.1585  143.8143  158.2692 H   0  0  0  0  0  0  0  0  0  0  0  0
  149.5275  142.1270  155.4890 H   0  0  0  0  0  0  0  0  0  0  0  0
  151.2599  136.8303  158.7127 H   0  0  0  0  0  0  0  0  0  0  0  0
  148.4360  137.0940  157.0464 H   0  0  0  0  0  0  0  0  0  0  0  0
  149.2500  137.4806  155.5657 H   0  0  0  0  0  0  0  0  0  0  0  0
  150.9678  135.7211  157.1484 H   0  0  0  0  0  0  0  0  0  0  0  0
  151.0091  134.3535  155.0934 H   0  0  0  0  0  0  0  0  0  0  0  0
  149.6493  135.2551  154.4512 H   0  0  0  0  0  0  0  0  0  0  0  0
  150.9779  137.1548  154.7008 H   0  0  0  0  0  0  0  0  0  0  0  0
  148.2244  134.5532  156.6144 H   0  0  0  0  0  0  0  0  0  0  0  0
  149.5080  135.4954  159.1290 H   0  0  0  0  0  0  0  0  0  0  0  0
  147.8139  135.1638  158.8091 H   0  0  0  0  0  0  0  0  0  0  0  0
  149.3012  133.4409  160.3159 H   0  0  0  0  0  0  0  0  0  0  0  0
  148.1236  132.7984  159.1607 H   0  0  0  0  0  0  0  0  0  0  0  0
  149.0287  132.4654  156.7402 H   0  0  0  0  0  0  0  0  0  0  0  0
  150.6462  133.1042  156.4852 H   0  0  0  0  0  0  0  0  0  0  0  0
  1  2  1  0  0  0  0
  1 30  1  0  0  0  0
  1 31  1  0  0  0  0
  2  3  2  0  0  0  0
  2  4  1  0  0  0  0
  4 28  1  0  0  0  0
  4  9  1  0  0  0  0
  4  5  1  0  0  0  0
  5  6  1  0  0  0  0
  5 32  1  0  0  0  0
  5 33  1  0  0  0  0
  6 29  1  0  0  0  0
  6  7  1  0  0  0  0
  6  8  1  0  0  0  0
  8  9  1  0  0  0  0
  8 34  1  0  0  0  0
  8 35  1  0  0  0  0
  9 10  1  0  0  0  0
 10 15  1  0  0  0  0
 10 11  2  0  0  0  0
 11 12  1  0  0  0  0
 12 13  2  0  0  0  0
 12 36  1  0  0  0  0
 13 14  1  0  0  0  0
 14 18  1  0  0  0  0
 14 15  2  0  0  0  0
 15 16  1  0  0  0  0
 16 17  2  0  0  0  0
 17 18  1  0  0  0  0
 17 37  1  0  0  0  0
 18 19  1  0  0  0  0
 19 20  1  0  0  0  0
 19 38  1  0  0  0  0
 19 39  1  0  0  0  0
 20 21  1  0  0  0  0
 20 23  1  0  0  0  0
 20 40  1  0  0  0  0
 21 22  1  0  0  0  0
 21 41  1  0  0  0  0
 21 42  1  0  0  0  0
 22 43  1  0  0  0  0
 23 27  1  0  0  0  0
 23 24  1  0  0  0  0
 23 44  1  0  0  0  0
 24 25  1  0  0  0  0
 24 45  1  0  0  0  0
 24 46  1  0  0  0  0
 25 26  1  0  0  0  0
 25 47  1  0  0  0  0
 25 48  1  0  0  0  0
 26 27  1  0  0  0  0
 27 49  1  0  0  0  0
 27 50  1  0  0  0  0
M  END
> <s_m_source_file>
AV-unprocessed.smi

> <i_m_source_file_index>
221

> <i_lp_mmshare_version>
43012

> <i_f3d_flags>
0

> <s_epik_input>
W05IMl1DKD1PKVtDQEBIXTFbQ0gyXVtDQEBIXShGKVtDSDJdTjFjKG5bY0hdbjIpYyhjMjMpbltjSF1uM1tDSDJdW0NASF0oW0NIMl1bT0hdKVtDQEBIXTRbQ0gyXVtDSDJdT1tDSDJdNA==

> <s_epik_cmdline>
J2VwaWtfcHl0aG9uJywgJy1waCcsICc3LjAnLCAnLXRuJywgJzgnLCAnLW1hJywgJzIwMCcsICctbWV0YWxfYmluZGluZycsICctaW1hZScsICc8aW5maWxlLm1hZT4nLCAnLW9tYWUnLCAnPG91dGZpbGUubWFlPic=

> <r_lp_tautomer_probability>
1

> <r_epik_Ionization_Penalty>
0.000818822

> <r_epik_Ionization_Penalty_Charging>
0

> <r_epik_Ionization_Penalty_Neutral>
0.000818822

> <r_epik_State_Penalty>
0.000440551

> <r_epik_Charging_Adjusted_Penalty>
0.000440551

> <i_epik_Tot_Q>
0

> <i_epik_Tot_abs_Q>
0

> <r_epik_Metal_State_Penalty>
-0

> <b_epik_Metal_Only>
0

> <s_lp_Force_Field>
OPLS_2005

> <r_lp_Energy>
52.2348

> <b_lp_Chiralities_Consistent>
1

> <s_lp_Variant>
AV-unprocessed.smi:221-4

> <Gold.Version>
5.8.1

> <Gold.Id.Protein>
6NUR|6NUR_protein|mol2

> <Gold.PLP.Fitness>
49.0601

> <Gold.PLP.PLP>
-39.4701

> <Gold.PLP.part.hbond>
-3.8147

> <Gold.PLP.part.metal>
0.0000

> <Gold.PLP.part.buried>
-6.5413

> <Gold.PLP.part.nonpolar>
-29.8632

> <Gold.PLP.part.repulsive>
0.1380

> <Gold.PLP.ligand.clash>
0.0000

> <Gold.PLP.ligand.torsion>
1.3346

> <Gold.PLP.Chemscore.Hbond>
3.0000

> <Gold.PLP.Chemscore.CHOScore>
0.9535

> <Gold.PLP.Chemscore.Metal>
0.0000

> <Gold.Chemscore.Hbonds>
donor molecule, donor type, donor heavy atom, donor atom, acceptor molecule, acceptor atom, score
      P1  H  6896  6908       L1    26  0.15
      P1  H  7997  8010       L1     3  1.00
      P1  H 10752 10765       L1    22  1.00
      L1  C    12    36       P1  8028  0.64

> <Gold.PLP.Chemscore.Internal.Correction>
0.3988

> <Gold.Rescore>
     Score         DG    S(hbond)    S(metal)    S(lipo)     H(rot)  DE(clash)    DE(int)     intcor
      9.56     -14.64       2.80        0.00      70.63       3.31       0.02       5.06       ----

> <Gold.Chemscore.Fitness>
9.5562

> <Gold.Chemscore.DG>
-14.6396

> <Gold.Chemscore.ZeroCoef>
-5.4800

> <Gold.Chemscore.Hbond>
2.8044

> <Gold.Chemscore.Metal>
0.0000

> <Gold.Chemscore.Lipo>
70.6297

> <Gold.Chemscore.Internal_Hbond>
0.0000

> <Gold.Chemscore.DEClash>
0.0227

> <Gold.Chemscore.DEInternal>
5.0607

> <Gold.Chemscore.Rot>
3.3089

> <Gold.Chemscore.Internal.Correction>
   9.000000E+99

> <Gold.Chemscore.Hbonds>
donor molecule, donor type, donor heavy atom, donor atom, acceptor molecule, acceptor atom, score
      P1  H  7997  8010       L1     3  0.95
      P1  H 10752 10765       L1    22  0.70

> <Gold.Chemscore.Hbond.Weighted>
-9.3668

> <Gold.Chemscore.Metal.Weighted>
-0.0000

> <Gold.Chemscore.Lipo.Weighted>
-8.2637

> <Gold.Chemscore.Internal_Hbond.Weighted>
0.0000

> <Gold.Chemscore.DEClash.Weighted>
0.0227

> <Gold.Chemscore.DEInternal.Weighted>
5.0607

> <Gold.Chemscore.Rot.Weighted>
8.4709

> <Gold.Chemscore.Internal.Correction.Weighted>
   9.000000E+99

> <Gold.Protein.RotatedTorsions>
[ 6907 6896 6895 6894 ] final  108.36 input  -60.11 | X-H torsion
[ 7974 7965 7964 7962 ] final -146.76 input  175.53 | X-H torsion
[ 8008 7997 7996 7995 ] final   -1.70 input   59.86 | X-H torsion
[ 10167 10162 10161 10158 ] final -120.66 input  -65.29 | X-H torsion
[ 10718 10713 10712 10709 ] final  -18.39 input   66.30 | X-H torsion
[ 10763 10752 10751 10750 ] final  169.10 input  -60.55 | X-H torsion
[ 11005 11000 10999 10996 ] final   49.88 input  -57.11 | X-H torsion

> <Gold.Protein.ActiveResidues>
 VAL166  LYS551  ARG553  GLY616  TRP617  ASP618  TYR619  PRO620  LYS621  CYS622 
 ASP623  PHE694  ASN695  SER759  ASP760  ASP761  ALA762  ILE779  LEU786  VAL792 
 PHE793  MET794  SER795  GLU796  ALA797  LYS798  CYS799  TRP800  GLU811  SER814 

> <Gold.Protein.RotatedAtoms>
  152.5115  133.9100  159.7482 H   0  0  0  0  0  0  0  0  0  0  0  0  # atno 6907 bound_to 6896
  150.9495  133.6556  159.2781 H   0  0  0  0  0  0  0  0  0  0  0  0  # atno 6908 bound_to 6896
  151.3839  135.0950  159.9557 H   0  0  0  0  0  0  0  0  0  0  0  0  # atno 6909 bound_to 6896
  144.8138  140.5414  143.5624 H   0  0  0  0  0  0  0  0  0  0  0  0  # atno 7974 bound_to 7965
  154.6439  140.2553  155.7290 H   0  0  0  0  0  0  0  0  0  0  0  0  # atno 8008 bound_to 7997
  156.2542  140.2882  156.0765 H   0  0  0  0  0  0  0  0  0  0  0  0  # atno 8009 bound_to 7997
  155.1554  140.0383  157.2821 H   0  0  0  0  0  0  0  0  0  0  0  0  # atno 8010 bound_to 7997
  140.0334  143.5225  152.2165 H   0  0  0  0  0  0  0  0  0  0  0  0  # atno 10167 bound_to 10162
  156.5603  130.4724  149.6410 H   0  0  0  0  0  0  0  0  0  0  0  0  # atno 10718 bound_to 10713
  154.3782  135.2753  155.2227 H   0  0  0  0  0  0  0  0  0  0  0  0  # atno 10763 bound_to 10752
  154.4345  135.5969  153.6093 H   0  0  0  0  0  0  0  0  0  0  0  0  # atno 10764 bound_to 10752
  152.9835  135.6003  154.4021 H   0  0  0  0  0  0  0  0  0  0  0  0  # atno 10765 bound_to 10752
  140.1065  134.5012  155.8715 H   0  0  0  0  0  0  0  0  0  0  0  0  # atno 11005 bound_to 11000
  145.5262  139.1476  143.3525 LP  0  0  0  0  0  0  0  0  0  0  0  0  # atno 17320 bound_to 7965
  146.2439  140.5403  142.8922 LP  0  0  0  0  0  0  0  0  0  0  0  0  # atno 17321 bound_to 7965
  139.6061  144.7596  151.3059 LP  0  0  0  0  0  0  0  0  0  0  0  0  # atno 17342 bound_to 10162
  140.7292  143.6914  150.7919 LP  0  0  0  0  0  0  0  0  0  0  0  0  # atno 17343 bound_to 10162
  156.2805  130.7068  151.1891 LP  0  0  0  0  0  0  0  0  0  0  0  0  # atno 17370 bound_to 10713
  157.7370  131.0556  150.5382 LP  0  0  0  0  0  0  0  0  0  0  0  0  # atno 17371 bound_to 10713
  141.2119  133.6713  156.6621 LP  0  0  0  0  0  0  0  0  0  0  0  0  # atno 17394 bound_to 11000
  140.3149  134.8056  157.4206 LP  0  0  0  0  0  0  0  0  0  0  0  0  # atno 17395 bound_to 11000

$$$$
