AV-unprocessed.smi:3217|AV-procd|sdf|12290|dock8
  -GOLD-   2272018133D 1   1.00000     0.00000
 Structure written by MMmdl.
 34 35  0  0  0  0  0  0  0  0  1 V2000
  144.5937  135.1787  153.3389 C   0  0  0  0  0  0  0  0  0  0  0  0
  145.1004  135.6349  151.9630 C   0  0  1  0  0  0  0  0  0  0  0  0
  146.2709  136.4910  152.1515 N   0  0  0  0  0  0  0  0  0  0  0  0
  146.2991  137.6495  152.8262 C   0  0  0  0  0  0  0  0  0  0  0  0
  145.3131  138.1457  153.3700 O   0  0  0  0  0  0  0  0  0  0  0  0
  147.5377  138.1716  152.8320 N   0  0  0  0  0  0  0  0  0  0  0  0
  148.0038  139.3614  153.4554 C   0  0  0  0  0  0  0  0  0  0  0  0
  147.2429  140.5480  153.5955 C   0  0  0  0  0  0  0  0  0  0  0  0
  147.8301  141.6616  154.2266 C   0  0  0  0  0  0  0  0  0  0  0  0
  149.1564  141.5530  154.6869 C   0  0  0  0  0  0  0  0  0  0  0  0
  149.8976  140.4339  154.5486 N   0  0  0  0  0  0  0  0  0  0  0  0
  149.3277  139.3699  153.9437 C   0  0  0  0  0  0  0  0  0  0  0  0
  145.4498  134.4412  151.0512 C   0  0  2  0  0  0  0  0  0  0  0  0
  144.2754  133.5138  150.7272 C   0  0  0  0  0  0  0  0  0  0  0  0
  144.9817  132.2118  150.4288 C   0  0  0  0  0  0  0  0  0  0  0  0
  146.0991  132.2263  151.4659 C   0  0  0  0  0  0  0  0  0  0  0  0
  146.4164  133.5994  151.6783 O   0  0  0  0  0  0  0  0  0  0  0  0
  143.6968  134.5660  153.2453 H   0  0  0  0  0  0  0  0  0  0  0  0
  144.3411  136.0343  153.9663 H   0  0  0  0  0  0  0  0  0  0  0  0
  145.3455  134.5899  153.8654 H   0  0  0  0  0  0  0  0  0  0  0  0
  144.2963  136.1997  151.4879 H   0  0  0  0  0  0  0  0  0  0  0  0
  147.1338  136.1656  151.7412 H   0  0  0  0  0  0  0  0  0  0  0  0
  148.2510  137.6144  152.3851 H   0  0  0  0  0  0  0  0  0  0  0  0
  146.2334  140.6352  153.2267 H   0  0  0  0  0  0  0  0  0  0  0  0
  147.2760  142.5800  154.3521 H   0  0  0  0  0  0  0  0  0  0  0  0
  149.6362  142.3889  155.1740 H   0  0  0  0  0  0  0  0  0  0  0  0
  149.9513  138.4925  153.8507 H   0  0  0  0  0  0  0  0  0  0  0  0
  145.8845  134.7978  150.1157 H   0  0  0  0  0  0  0  0  0  0  0  0
  143.6269  133.3939  151.5966 H   0  0  0  0  0  0  0  0  0  0  0  0
  143.6681  133.8700  149.8946 H   0  0  0  0  0  0  0  0  0  0  0  0
  144.3320  131.3403  150.5132 H   0  0  0  0  0  0  0  0  0  0  0  0
  145.4002  132.2332  149.4215 H   0  0  0  0  0  0  0  0  0  0  0  0
  145.7486  131.8032  152.4081 H   0  0  0  0  0  0  0  0  0  0  0  0
  146.9730  131.6593  151.1447 H   0  0  0  0  0  0  0  0  0  0  0  0
  1  2  1  0  0  0  0
  1 18  1  0  0  0  0
  1 19  1  0  0  0  0
  1 20  1  0  0  0  0
  2  3  1  0  0  0  0
  2 13  1  0  0  0  0
  2 21  1  0  0  0  0
  3  4  1  0  0  0  0
  3 22  1  0  0  0  0
  4  5  2  0  0  0  0
  4  6  1  0  0  0  0
  6  7  1  0  0  0  0
  6 23  1  0  0  0  0
  7 12  1  0  0  0  0
  7  8  2  0  0  0  0
  8  9  1  0  0  0  0
  8 24  1  0  0  0  0
  9 10  2  0  0  0  0
  9 25  1  0  0  0  0
 10 11  1  0  0  0  0
 10 26  1  0  0  0  0
 11 12  2  0  0  0  0
 12 27  1  0  0  0  0
 13 17  1  0  0  0  0
 13 14  1  0  0  0  0
 13 28  1  0  0  0  0
 14 15  1  0  0  0  0
 14 29  1  0  0  0  0
 14 30  1  0  0  0  0
 15 16  1  0  0  0  0
 15 31  1  0  0  0  0
 15 32  1  0  0  0  0
 16 17  1  0  0  0  0
 16 33  1  0  0  0  0
 16 34  1  0  0  0  0
M  END
> <s_m_source_file>
AV-unprocessed.smi

> <i_m_source_file_index>
3217

> <i_lp_mmshare_version>
43012

> <i_f3d_flags>
0

> <s_epik_input>
TzFbQ0gyXVtDSDJdW0NIMl1bQ0BIXTFbQ0BIXShbQ0gzXSlbTkhdQyg9TylbTkhdYzJbY0hdW2NIXVtjSF1uW2NIXTI=

> <s_epik_cmdline>
J2VwaWtfcHl0aG9uJywgJy1waCcsICc3LjAnLCAnLXRuJywgJzgnLCAnLW1hJywgJzIwMCcsICctbWV0YWxfYmluZGluZycsICctaW1hZScsICc8aW5maWxlLm1hZT4nLCAnLW9tYWUnLCAnPG91dGZpbGUubWFlPic=

> <r_epik_Ionization_Penalty>
0.00475451

> <r_epik_Ionization_Penalty_Charging>
0

> <r_epik_Ionization_Penalty_Neutral>
0.00475451

> <r_epik_State_Penalty>
0.00341814

> <r_epik_Charging_Adjusted_Penalty>
0.00341814

> <i_epik_Tot_Q>
0

> <i_epik_Tot_abs_Q>
0

> <r_epik_Metal_State_Penalty>
-0

> <b_epik_Metal_Only>
0

> <s_lp_Force_Field>
OPLS_2005

> <r_lp_Energy>
20.7148

> <b_lp_Chiralities_Consistent>
1

> <s_lp_Variant>
AV-unprocessed.smi:3217-2

> <Gold.Version>
5.8.1

> <Gold.Id.Protein>
6NUR|6NUR_protein|mol2

> <Gold.PLP.Fitness>
38.8492

> <Gold.PLP.PLP>
-27.9446

> <Gold.PLP.part.hbond>
-3.5176

> <Gold.PLP.part.metal>
0.0000

> <Gold.PLP.part.buried>
-0.4217

> <Gold.PLP.part.nonpolar>
-26.5324

> <Gold.PLP.part.repulsive>
2.1289

> <Gold.PLP.ligand.clash>
0.0000

> <Gold.PLP.ligand.torsion>
0.2523

> <Gold.PLP.Chemscore.Hbond>
2.8002

> <Gold.PLP.Chemscore.CHOScore>
1.0000

> <Gold.PLP.Chemscore.Metal>
0.0000

> <Gold.Chemscore.Hbonds>
donor molecule, donor type, donor heavy atom, donor atom, acceptor molecule, acceptor atom, score
      L1  H     3    22       P1  7948  0.93
      L1  H     6    23       P1  7948  1.00
      P1  H  7989  7998       L1    11  0.80
      L1  C    10    26       P1  8028  1.00

> <Gold.PLP.Chemscore.Internal.Correction>
0.0088

> <Gold.Rescore>
     Score         DG    S(hbond)    S(metal)    S(lipo)     H(rot)  DE(clash)    DE(int)     intcor
     16.40     -17.06       1.95        0.00      69.96       1.22       0.38       0.28       ----

> <Gold.Chemscore.Fitness>
16.3962

> <Gold.Chemscore.DG>
-17.0562

> <Gold.Chemscore.ZeroCoef>
-5.4800

> <Gold.Chemscore.Hbond>
1.9533

> <Gold.Chemscore.Metal>
0.0000

> <Gold.Chemscore.Lipo>
69.9554

> <Gold.Chemscore.Internal_Hbond>
0.0000

> <Gold.Chemscore.DEClash>
0.3752

> <Gold.Chemscore.DEInternal>
0.2848

> <Gold.Chemscore.Rot>
1.2236

> <Gold.Chemscore.Internal.Correction>
   9.000000E+99

> <Gold.Chemscore.Hbonds>
donor molecule, donor type, donor heavy atom, donor atom, acceptor molecule, acceptor atom, score
      L1  H     3    22       P1  7948  0.90
      L1  H     6    23       P1  7948  0.98
      P1  H  7989  7998       L1    11  0.32

> <Gold.Chemscore.Hbond.Weighted>
-6.5239

> <Gold.Chemscore.Metal.Weighted>
-0.0000

> <Gold.Chemscore.Lipo.Weighted>
-8.1848

> <Gold.Chemscore.Internal_Hbond.Weighted>
0.0000

> <Gold.Chemscore.DEClash.Weighted>
0.3752

> <Gold.Chemscore.DEInternal.Weighted>
0.2848

> <Gold.Chemscore.Rot.Weighted>
3.1325

> <Gold.Chemscore.Internal.Correction.Weighted>
   9.000000E+99

> <Gold.Protein.RotatedTorsions>
[ 6907 6896 6895 6894 ] final -141.84 input  -60.11 | X-H torsion
[ 7974 7965 7964 7962 ] final -138.06 input  175.53 | X-H torsion
[ 8008 7997 7996 7995 ] final -157.08 input   59.86 | X-H torsion
[ 10167 10162 10161 10158 ] final   42.63 input  -65.29 | X-H torsion
[ 10718 10713 10712 10709 ] final  -33.04 input   66.30 | X-H torsion
[ 10763 10752 10751 10750 ] final  128.89 input  -60.55 | X-H torsion
[ 11005 11000 10999 10996 ] final   36.91 input  -57.11 | X-H torsion

> <Gold.Protein.ActiveResidues>
 VAL166  LYS551  ARG553  GLY616  TRP617  ASP618  TYR619  PRO620  LYS621  CYS622 
 ASP623  PHE694  ASN695  SER759  ASP760  ASP761  ALA762  ILE779  LEU786  VAL792 
 PHE793  MET794  SER795  GLU796  ALA797  LYS798  CYS799  TRP800  GLU811  SER814 

> <Gold.Protein.RotatedAtoms>
  151.0792  133.5404  159.2621 H   0  0  0  0  0  0  0  0  0  0  0  0  # atno 6907 bound_to 6896
  151.2314  135.0555  159.8999 H   0  0  0  0  0  0  0  0  0  0  0  0  # atno 6908 bound_to 6896
  152.5421  134.0580  159.8193 H   0  0  0  0  0  0  0  0  0  0  0  0  # atno 6909 bound_to 6896
  144.8790  140.6480  143.5218 H   0  0  0  0  0  0  0  0  0  0  0  0  # atno 7974 bound_to 7965
  155.7270  140.0797  157.2306 H   0  0  0  0  0  0  0  0  0  0  0  0  # atno 8008 bound_to 7997
  154.4038  140.1602  156.2520 H   0  0  0  0  0  0  0  0  0  0  0  0  # atno 8009 bound_to 7997
  155.9144  140.3402  155.6126 H   0  0  0  0  0  0  0  0  0  0  0  0  # atno 8010 bound_to 7997
  140.3524  144.2333  150.6144 H   0  0  0  0  0  0  0  0  0  0  0  0  # atno 10167 bound_to 10162
  156.3675  130.4334  149.7573 H   0  0  0  0  0  0  0  0  0  0  0  0  # atno 10718 bound_to 10713
  153.7329  135.3236  155.3289 H   0  0  0  0  0  0  0  0  0  0  0  0  # atno 10763 bound_to 10752
  154.8320  135.4526  154.1104 H   0  0  0  0  0  0  0  0  0  0  0  0  # atno 10764 bound_to 10752
  153.2256  135.6953  153.8030 H   0  0  0  0  0  0  0  0  0  0  0  0  # atno 10765 bound_to 10752
  140.2278  134.3564  155.7977 H   0  0  0  0  0  0  0  0  0  0  0  0  # atno 11005 bound_to 11000
  145.3989  139.1601  143.4188 LP  0  0  0  0  0  0  0  0  0  0  0  0  # atno 17320 bound_to 7965
  146.2982  140.4084  142.8714 LP  0  0  0  0  0  0  0  0  0  0  0  0  # atno 17321 bound_to 7965
  140.5206  143.2267  151.8395 LP  0  0  0  0  0  0  0  0  0  0  0  0  # atno 17342 bound_to 10162
  139.4824  144.4841  151.9269 LP  0  0  0  0  0  0  0  0  0  0  0  0  # atno 17343 bound_to 10162
  156.4713  130.7998  151.3016 LP  0  0  0  0  0  0  0  0  0  0  0  0  # atno 17370 bound_to 10713
  157.7480  131.0035  150.3040 LP  0  0  0  0  0  0  0  0  0  0  0  0  # atno 17371 bound_to 10713
  141.2219  133.7229  156.8682 LP  0  0  0  0  0  0  0  0  0  0  0  0  # atno 17394 bound_to 11000
  140.1782  134.9052  157.2916 LP  0  0  0  0  0  0  0  0  0  0  0  0  # atno 17395 bound_to 11000

$$$$
