AV-unprocessed.smi:1087|AV-procd|sdf|4727|dock2
  -GOLD-   22720 3253D 1   1.00000     0.00000
 Structure written by MMmdl.
 46 47  0  0  0  0  0  0  0  0  1 V2000
  143.5598  146.2854  155.6755 C   0  0  0  0  0  0  0  0  0  0  0  0
  143.3803  144.9109  155.3726 O   0  0  0  0  0  0  0  0  0  0  0  0
  144.5716  144.1372  155.4402 C   0  0  0  0  0  0  0  0  0  0  0  0
  144.3541  142.6347  155.1616 C   0  0  0  0  0  0  0  0  0  0  0  0
  145.5684  141.8349  154.9872 N   0  0  0  0  0  0  0  0  0  0  0  0
  146.2884  141.6177  156.2445 C   0  0  0  0  0  0  0  0  0  0  0  0
  147.5426  140.7449  156.0663 C   0  0  0  0  0  0  0  0  0  0  0  0
  148.5013  141.3541  155.0277 C   0  0  0  0  0  0  0  0  0  0  0  0
  149.7328  140.4508  154.8050 C   0  0  0  0  0  0  0  0  0  0  0  0
  150.4191  140.1279  156.0513 N   0  0  0  0  0  0  0  0  0  0  0  0
  151.7500  140.0988  156.2146 C   0  0  0  0  0  0  0  0  0  0  0  0
  152.5467  140.3886  155.3212 O   0  0  0  0  0  0  0  0  0  0  0  0
  152.2480  139.6918  157.6083 C   0  0  0  0  0  0  0  0  0  0  0  0
  152.4653  140.8409  158.5024 N   0  0  0  0  0  0  0  0  0  0  0  0
  151.4577  141.8185  158.5629 C   0  0  0  0  0  0  0  0  0  0  0  0
  151.5882  142.8930  159.3540 C   0  0  0  0  0  0  0  0  0  0  0  0
  152.8276  142.9806  160.1373 C   0  0  0  0  0  0  0  0  0  0  0  0
  153.7490  142.0927  160.0826 N   0  0  0  0  0  0  0  0  0  0  0  0
  153.6111  140.9667  159.2488 C   0  0  0  0  0  0  0  0  0  0  0  0
  154.4949  140.1114  159.1876 O   0  0  0  0  0  0  0  0  0  0  0  0
  147.7194  141.6343  153.7282 C   0  0  0  0  0  0  0  0  0  0  0  0
  146.4613  142.4696  154.0170 C   0  0  0  0  0  0  0  0  0  0  0  0
  142.6111  146.8085  155.5555 H   0  0  0  0  0  0  0  0  0  0  0  0
  144.2824  146.7476  155.0017 H   0  0  0  0  0  0  0  0  0  0  0  0
  143.8909  146.4368  156.7027 H   0  0  0  0  0  0  0  0  0  0  0  0
  145.2798  144.5384  154.7143 H   0  0  0  0  0  0  0  0  0  0  0  0
  145.0366  144.2729  156.4178 H   0  0  0  0  0  0  0  0  0  0  0  0
  143.8159  142.2407  156.0247 H   0  0  0  0  0  0  0  0  0  0  0  0
  143.6827  142.4887  154.3157 H   0  0  0  0  0  0  0  0  0  0  0  0
  146.5675  142.5768  156.6838 H   0  0  0  0  0  0  0  0  0  0  0  0
  145.6426  141.1207  156.9661 H   0  0  0  0  0  0  0  0  0  0  0  0
  148.0507  140.6313  157.0244 H   0  0  0  0  0  0  0  0  0  0  0  0
  147.2440  139.7435  155.7533 H   0  0  0  0  0  0  0  0  0  0  0  0
  148.8476  142.3108  155.4223 H   0  0  0  0  0  0  0  0  0  0  0  0
  149.4416  139.5296  154.2974 H   0  0  0  0  0  0  0  0  0  0  0  0
  150.4463  140.9493  154.1482 H   0  0  0  0  0  0  0  0  0  0  0  0
  149.8390  139.8833  156.8406 H   0  0  0  0  0  0  0  0  0  0  0  0
  151.5215  139.0012  158.0384 H   0  0  0  0  0  0  0  0  0  0  0  0
  153.1719  139.1172  157.5158 H   0  0  0  0  0  0  0  0  0  0  0  0
  150.5967  141.6426  157.9345 H   0  0  0  0  0  0  0  0  0  0  0  0
  150.8550  143.6807  159.4458 H   0  0  0  0  0  0  0  0  0  0  0  0
  152.9148  143.8623  160.7773 H   0  0  0  0  0  0  0  0  0  0  0  0
  148.3463  142.1649  153.0111 H   0  0  0  0  0  0  0  0  0  0  0  0
  147.4324  140.6939  153.2556 H   0  0  0  0  0  0  0  0  0  0  0  0
  145.9287  142.6311  153.0789 H   0  0  0  0  0  0  0  0  0  0  0  0
  146.7565  143.4567  154.3764 H   0  0  0  0  0  0  0  0  0  0  0  0
  1  2  1  0  0  0  0
  1 23  1  0  0  0  0
  1 24  1  0  0  0  0
  1 25  1  0  0  0  0
  2  3  1  0  0  0  0
  3  4  1  0  0  0  0
  3 26  1  0  0  0  0
  3 27  1  0  0  0  0
  4  5  1  0  0  0  0
  4 28  1  0  0  0  0
  4 29  1  0  0  0  0
  5 22  1  0  0  0  0
  5  6  1  0  0  0  0
  6  7  1  0  0  0  0
  6 30  1  0  0  0  0
  6 31  1  0  0  0  0
  7  8  1  0  0  0  0
  7 32  1  0  0  0  0
  7 33  1  0  0  0  0
  8  9  1  0  0  0  0
  8 21  1  0  0  0  0
  8 34  1  0  0  0  0
  9 10  1  0  0  0  0
  9 35  1  0  0  0  0
  9 36  1  0  0  0  0
 10 11  1  0  0  0  0
 10 37  1  0  0  0  0
 11 12  2  0  0  0  0
 11 13  1  0  0  0  0
 13 14  1  0  0  0  0
 13 38  1  0  0  0  0
 13 39  1  0  0  0  0
 14 19  1  0  0  0  0
 14 15  1  0  0  0  0
 15 16  2  0  0  0  0
 15 40  1  0  0  0  0
 16 17  1  0  0  0  0
 16 41  1  0  0  0  0
 17 18  2  0  0  0  0
 17 42  1  0  0  0  0
 18 19  1  0  0  0  0
 19 20  2  0  0  0  0
 21 22  1  0  0  0  0
 21 43  1  0  0  0  0
 21 44  1  0  0  0  0
 22 45  1  0  0  0  0
 22 46  1  0  0  0  0
M  END
> <s_m_source_file>
AV-unprocessed.smi

> <i_m_source_file_index>
1087

> <i_lp_mmshare_version>
43012

> <i_f3d_flags>
0

> <s_epik_input>
W0NIM11PW0NIMl1bQ0gyXU4xW0NIMl1bQ0gyXVtDSF0oW0NIMl1bQ0gyXTEpW0NIMl1bTkhdQyg9TylbQ0gyXW4yW2NIXVtjSF1bY0hdbmMyPU8=

> <s_epik_cmdline>
J2VwaWtfcHl0aG9uJywgJy1waCcsICc3LjAnLCAnLXRuJywgJzgnLCAnLW1hJywgJzIwMCcsICctbWV0YWxfYmluZGluZycsICctaW1hZScsICc8aW5maWxlLm1hZT4nLCAnLW9tYWUnLCAnPG91dGZpbGUubWFlPic=

> <r_lp_tautomer_probability>
1

> <r_epik_Ionization_Penalty>
2.43401

> <r_epik_Ionization_Penalty_Charging>
1.64716e-08

> <r_epik_Ionization_Penalty_Neutral>
2.43401

> <r_epik_State_Penalty>
2.59428

> <r_epik_Charging_Adjusted_Penalty>
2.59428

> <i_epik_Tot_Q>
0

> <i_epik_Tot_abs_Q>
0

> <r_epik_Metal_State_Penalty>
2.59427

> <b_epik_Metal_Only>
0

> <s_lp_Force_Field>
OPLS_2005

> <r_lp_Energy>
30.2677

> <b_lp_Chiralities_Consistent>
1

> <s_lp_Variant>
AV-unprocessed.smi:1087-3

> <Gold.Version>
5.8.1

> <Gold.Id.Protein>
6NUR|6NUR_protein|mol2

> <Gold.PLP.Fitness>
43.3692

> <Gold.PLP.PLP>
-37.5232

> <Gold.PLP.part.hbond>
-3.0000

> <Gold.PLP.part.metal>
0.0000

> <Gold.PLP.part.buried>
-4.4972

> <Gold.PLP.part.nonpolar>
-28.8898

> <Gold.PLP.part.repulsive>
0.2675

> <Gold.PLP.ligand.clash>
0.0000

> <Gold.PLP.ligand.torsion>
0.7541

> <Gold.PLP.Chemscore.Hbond>
2.3668

> <Gold.PLP.Chemscore.CHOScore>
0.0000

> <Gold.PLP.Chemscore.Metal>
0.0000

> <Gold.Chemscore.Hbonds>
donor molecule, donor type, donor heavy atom, donor atom, acceptor molecule, acceptor atom, score
      P1  H  7989  7998       L1    12  0.42
      P1  H  7997  8008       L1    12  0.96
      P1  H  7997  8010       L1    20  0.90

> <Gold.PLP.Chemscore.Internal.Correction>
0.2537

> <Gold.Rescore>
     Score         DG    S(hbond)    S(metal)    S(lipo)     H(rot)  DE(clash)    DE(int)     intcor
     14.38     -15.27       1.90        0.00      81.38       2.37       0.12       0.76       ----

> <Gold.Chemscore.Fitness>
14.3833

> <Gold.Chemscore.DG>
-15.2700

> <Gold.Chemscore.ZeroCoef>
-5.4800

> <Gold.Chemscore.Hbond>
1.8986

> <Gold.Chemscore.Metal>
0.0000

> <Gold.Chemscore.Lipo>
81.3840

> <Gold.Chemscore.Internal_Hbond>
0.0000

> <Gold.Chemscore.DEClash>
0.1239

> <Gold.Chemscore.DEInternal>
0.7629

> <Gold.Chemscore.Rot>
2.3723

> <Gold.Chemscore.Internal.Correction>
   9.000000E+99

> <Gold.Chemscore.Hbonds>
donor molecule, donor type, donor heavy atom, donor atom, acceptor molecule, acceptor atom, score
      P1  H  7989  7998       L1    12  0.36
      P1  H  7997  8008       L1    12  0.80
      P1  H  7997  8010       L1    20  0.64

> <Gold.Chemscore.Hbond.Weighted>
-6.3412

> <Gold.Chemscore.Metal.Weighted>
-0.0000

> <Gold.Chemscore.Lipo.Weighted>
-9.5219

> <Gold.Chemscore.Internal_Hbond.Weighted>
0.0000

> <Gold.Chemscore.DEClash.Weighted>
0.1239

> <Gold.Chemscore.DEInternal.Weighted>
0.7629

> <Gold.Chemscore.Rot.Weighted>
6.0731

> <Gold.Chemscore.Internal.Correction.Weighted>
   9.000000E+99

> <Gold.Protein.RotatedTorsions>
[ 6907 6896 6895 6894 ] final   56.84 input  -60.11 | X-H torsion
[ 7974 7965 7964 7962 ] final -132.86 input  175.53 | X-H torsion
[ 8008 7997 7996 7995 ] final   -8.40 input   59.86 | X-H torsion
[ 10167 10162 10161 10158 ] final  106.27 input  -65.29 | X-H torsion
[ 10718 10713 10712 10709 ] final  -84.75 input   66.30 | X-H torsion
[ 10763 10752 10751 10750 ] final  -85.03 input  -60.55 | X-H torsion
[ 11005 11000 10999 10996 ] final -164.57 input  -57.11 | X-H torsion

> <Gold.Protein.ActiveResidues>
 VAL166  LYS551  ARG553  GLY616  TRP617  ASP618  TYR619  PRO620  LYS621  CYS622 
 ASP623  PHE694  ASN695  SER759  ASP760  ASP761  ALA762  ILE779  LEU786  VAL792 
 PHE793  MET794  SER795  GLU796  ALA797  LYS798  CYS799  TRP800  GLU811  SER814 

> <Gold.Protein.RotatedAtoms>
  152.3675  134.6783  160.0186 H   0  0  0  0  0  0  0  0  0  0  0  0  # atno 6907 bound_to 6896
  151.7086  133.3306  159.3293 H   0  0  0  0  0  0  0  0  0  0  0  0  # atno 6908 bound_to 6896
  150.7649  134.6487  159.6321 H   0  0  0  0  0  0  0  0  0  0  0  0  # atno 6909 bound_to 6896
  144.9247  140.7056  143.4943 H   0  0  0  0  0  0  0  0  0  0  0  0  # atno 7974 bound_to 7965
  154.5745  140.2382  155.8143 H   0  0  0  0  0  0  0  0  0  0  0  0  # atno 8008 bound_to 7997
  156.2132  140.3020  155.9737 H   0  0  0  0  0  0  0  0  0  0  0  0  # atno 8009 bound_to 7997
  155.2652  140.0416  157.2992 H   0  0  0  0  0  0  0  0  0  0  0  0  # atno 8010 bound_to 7997
  139.7023  144.7092  151.1165 H   0  0  0  0  0  0  0  0  0  0  0  0  # atno 10167 bound_to 10162
  156.0003  130.4708  150.4457 H   0  0  0  0  0  0  0  0  0  0  0  0  # atno 10718 bound_to 10713
  154.6063  135.5500  153.7427 H   0  0  0  0  0  0  0  0  0  0  0  0  # atno 10763 bound_to 10752
  153.0176  135.6378  154.1642 H   0  0  0  0  0  0  0  0  0  0  0  0  # atno 10764 bound_to 10752
  154.1581  135.2899  155.3096 H   0  0  0  0  0  0  0  0  0  0  0  0  # atno 10765 bound_to 10752
  140.5854  134.5099  157.5185 H   0  0  0  0  0  0  0  0  0  0  0  0  # atno 11005 bound_to 11000
  145.3239  139.1780  143.4573 LP  0  0  0  0  0  0  0  0  0  0  0  0  # atno 17320 bound_to 7965
  146.3220  140.3260  142.8637 LP  0  0  0  0  0  0  0  0  0  0  0  0  # atno 17321 bound_to 7965
  140.7712  143.5407  150.9316 LP  0  0  0  0  0  0  0  0  0  0  0  0  # atno 17342 bound_to 10162
  139.9089  143.6744  152.3118 LP  0  0  0  0  0  0  0  0  0  0  0  0  # atno 17343 bound_to 10162
  157.2494  131.0543  151.2388 LP  0  0  0  0  0  0  0  0  0  0  0  0  # atno 17370 bound_to 10713
  157.3543  130.7098  149.6460 LP  0  0  0  0  0  0  0  0  0  0  0  0  # atno 17371 bound_to 10713
  139.9298  134.7985  156.0963 LP  0  0  0  0  0  0  0  0  0  0  0  0  # atno 17394 bound_to 11000
  141.0969  133.6692  156.2666 LP  0  0  0  0  0  0  0  0  0  0  0  0  # atno 17395 bound_to 11000

$$$$
