AV-unprocessed.smi:2092|AV-procd|sdf|8543|dock5
  -GOLD-   2272011263D 1   1.00000     0.00000
 Structure written by MMmdl.
 44 45  0  0  0  0  0  0  0  0  1 V2000
  146.7449  134.7887  159.2954 C   0  0  0  0  0  0  0  0  0  0  0  0
  147.2149  136.2048  158.9303 C   0  0  1  0  0  0  0  0  0  0  0  0
  147.1510  136.9968  160.1140 O   0  0  0  0  0  0  0  0  0  0  0  0
  147.9564  136.5494  161.2004 C   0  0  0  0  0  0  0  0  0  0  0  0
  147.0954  136.4529  162.4653 C   0  0  0  0  0  0  0  0  0  0  0  0
  146.1415  137.3821  162.4195 F   0  0  0  0  0  0  0  0  0  0  0  0
  146.5200  135.2532  162.5396 F   0  0  0  0  0  0  0  0  0  0  0  0
  147.8423  136.6596  163.5495 F   0  0  0  0  0  0  0  0  0  0  0  0
  148.6446  136.1935  158.3649 C   0  0  0  0  0  0  0  0  0  0  0  0
  149.3066  135.1555  158.3715 O   0  0  0  0  0  0  0  0  0  0  0  0
  149.1049  137.3622  157.8933 N   0  0  0  0  0  0  0  0  0  0  0  0
  150.4169  137.5826  157.2919 C   0  0  0  0  0  0  0  0  0  0  0  0
  150.6294  139.0050  156.7969 C   0  0  0  0  0  0  0  0  0  0  0  0
  150.6037  139.3323  155.4241 C   0  0  0  0  0  0  0  0  0  0  0  0
  150.8054  140.6744  155.0522 C   0  0  0  0  0  0  0  0  0  0  0  0
  151.0286  141.6642  155.9416 N   0  0  0  0  0  0  0  0  0  0  0  0
  151.0727  141.3595  157.2620 C   0  0  0  0  0  0  0  0  0  0  0  0
  151.3187  142.4001  158.1825 N   0  0  0  0  0  0  0  0  0  0  0  0
  152.1902  142.0530  159.3018 C   0  0  0  0  0  0  0  0  0  0  0  0
  152.1349  143.1475  160.3815 C   0  0  0  0  0  0  0  0  0  0  0  0
  152.4525  144.4102  159.8052 O   0  0  0  0  0  0  0  0  0  0  0  0
  151.5244  144.7777  158.7898 C   0  0  0  0  0  0  0  0  0  0  0  0
  151.5618  143.7408  157.6542 C   0  0  0  0  0  0  0  0  0  0  0  0
  150.8752  140.0371  157.7256 C   0  0  0  0  0  0  0  0  0  0  0  0
  146.7934  134.1198  158.4353 H   0  0  0  0  0  0  0  0  0  0  0  0
  145.7118  134.8026  159.6435 H   0  0  0  0  0  0  0  0  0  0  0  0
  147.3527  134.3567  160.0913 H   0  0  0  0  0  0  0  0  0  0  0  0
  146.5272  136.6105  158.1857 H   0  0  0  0  0  0  0  0  0  0  0  0
  148.3942  135.5743  160.9840 H   0  0  0  0  0  0  0  0  0  0  0  0
  148.7781  137.2471  161.3684 H   0  0  0  0  0  0  0  0  0  0  0  0
  148.4889  138.1612  157.9346 H   0  0  0  0  0  0  0  0  0  0  0  0
  151.1723  137.3478  158.0426 H   0  0  0  0  0  0  0  0  0  0  0  0
  150.5937  136.9078  156.4531 H   0  0  0  0  0  0  0  0  0  0  0  0
  150.4363  138.5817  154.6657 H   0  0  0  0  0  0  0  0  0  0  0  0
  150.7887  140.9614  154.0112 H   0  0  0  0  0  0  0  0  0  0  0  0
  151.9132  141.0987  159.7479 H   0  0  0  0  0  0  0  0  0  0  0  0
  153.2106  141.9459  158.9313 H   0  0  0  0  0  0  0  0  0  0  0  0
  151.1480  143.1848  160.8458 H   0  0  0  0  0  0  0  0  0  0  0  0
  152.8508  142.9288  161.1738 H   0  0  0  0  0  0  0  0  0  0  0  0
  150.5209  144.8578  159.2109 H   0  0  0  0  0  0  0  0  0  0  0  0
  151.7887  145.7634  158.4067 H   0  0  0  0  0  0  0  0  0  0  0  0
  152.5338  143.7650  157.1597 H   0  0  0  0  0  0  0  0  0  0  0  0
  150.8080  143.9937  156.9073 H   0  0  0  0  0  0  0  0  0  0  0  0
  150.8946  139.8113  158.7816 H   0  0  0  0  0  0  0  0  0  0  0  0
  1  2  1  0  0  0  0
  1 25  1  0  0  0  0
  1 26  1  0  0  0  0
  1 27  1  0  0  0  0
  2  3  1  0  0  0  0
  2  9  1  0  0  0  0
  2 28  1  0  0  0  0
  3  4  1  0  0  0  0
  4  5  1  0  0  0  0
  4 29  1  0  0  0  0
  4 30  1  0  0  0  0
  5  6  1  0  0  0  0
  5  7  1  0  0  0  0
  5  8  1  0  0  0  0
  9 10  2  0  0  0  0
  9 11  1  0  0  0  0
 11 12  1  0  0  0  0
 11 31  1  0  0  0  0
 12 13  1  0  0  0  0
 12 32  1  0  0  0  0
 12 33  1  0  0  0  0
 13 24  1  0  0  0  0
 13 14  2  0  0  0  0
 14 15  1  0  0  0  0
 14 34  1  0  0  0  0
 15 16  2  0  0  0  0
 15 35  1  0  0  0  0
 16 17  1  0  0  0  0
 17 18  1  0  0  0  0
 17 24  2  0  0  0  0
 18 23  1  0  0  0  0
 18 19  1  0  0  0  0
 19 20  1  0  0  0  0
 19 36  1  0  0  0  0
 19 37  1  0  0  0  0
 20 21  1  0  0  0  0
 20 38  1  0  0  0  0
 20 39  1  0  0  0  0
 21 22  1  0  0  0  0
 22 23  1  0  0  0  0
 22 40  1  0  0  0  0
 22 41  1  0  0  0  0
 23 42  1  0  0  0  0
 23 43  1  0  0  0  0
 24 44  1  0  0  0  0
M  END
> <s_m_source_file>
AV-unprocessed.smi

> <i_m_source_file_index>
2092

> <i_lp_mmshare_version>
43012

> <i_f3d_flags>
0

> <s_epik_input>
RkMoRikoRilbQ0gyXU9bQ0BASF0oW0NIM10pQyg9TylbTkhdW0NIMl1jMVtjSF1bY0hdbmMoW2NIXTEpTjJbQ0gyXVtDSDJdT1tDSDJdW0NIMl0y

> <s_epik_cmdline>
J2VwaWtfcHl0aG9uJywgJy1waCcsICc3LjAnLCAnLXRuJywgJzgnLCAnLW1hJywgJzIwMCcsICctbWV0YWxfYmluZGluZycsICctaW1hZScsICc8aW5maWxlLm1hZT4nLCAnLW9tYWUnLCAnPG91dGZpbGUubWFlPic=

> <r_lp_tautomer_probability>
1

> <r_epik_Ionization_Penalty>
0.00451782

> <r_epik_Ionization_Penalty_Charging>
0

> <r_epik_Ionization_Penalty_Neutral>
0.00451782

> <r_epik_State_Penalty>
0.00326147

> <r_epik_Charging_Adjusted_Penalty>
0.00326147

> <i_epik_Tot_Q>
0

> <i_epik_Tot_abs_Q>
0

> <r_epik_Metal_State_Penalty>
-0

> <b_epik_Metal_Only>
0

> <s_lp_Force_Field>
OPLS_2005

> <r_lp_Energy>
17.1262

> <b_lp_Chiralities_Consistent>
1

> <s_lp_Variant>
AV-unprocessed.smi:2092-2

> <Gold.Version>
5.8.1

> <Gold.Id.Protein>
6NUR|6NUR_protein|mol2

> <Gold.PLP.Fitness>
42.2811

> <Gold.PLP.PLP>
-38.6840

> <Gold.PLP.part.hbond>
-2.0000

> <Gold.PLP.part.metal>
0.0000

> <Gold.PLP.part.buried>
0.3931

> <Gold.PLP.part.nonpolar>
-36.5257

> <Gold.PLP.part.repulsive>
0.2401

> <Gold.PLP.ligand.clash>
0.0000

> <Gold.PLP.ligand.torsion>
1.4474

> <Gold.PLP.Chemscore.Hbond>
2.0000

> <Gold.PLP.Chemscore.CHOScore>
0.0000

> <Gold.PLP.Chemscore.Metal>
0.0000

> <Gold.Chemscore.Hbonds>
donor molecule, donor type, donor heavy atom, donor atom, acceptor molecule, acceptor atom, score
      P1  H  6896  6908       L1    10  1.00
      P1  H  6934  6947       L1     3  0.32

> <Gold.PLP.Chemscore.Internal.Correction>
0.4921

> <Gold.Rescore>
     Score         DG    S(hbond)    S(metal)    S(lipo)     H(rot)  DE(clash)    DE(int)     intcor
     12.85     -15.72       1.69        0.00      93.87       2.49       1.43       1.44       ----

> <Gold.Chemscore.Fitness>
12.8469

> <Gold.Chemscore.DG>
-15.7198

> <Gold.Chemscore.ZeroCoef>
-5.4800

> <Gold.Chemscore.Hbond>
1.6859

> <Gold.Chemscore.Metal>
0.0000

> <Gold.Chemscore.Lipo>
93.8733

> <Gold.Chemscore.Internal_Hbond>
0.0000

> <Gold.Chemscore.DEClash>
1.4326

> <Gold.Chemscore.DEInternal>
1.4403

> <Gold.Chemscore.Rot>
2.4899

> <Gold.Chemscore.Internal.Correction>
   9.000000E+99

> <Gold.Chemscore.Hbonds>
donor molecule, donor type, donor heavy atom, donor atom, acceptor molecule, acceptor atom, score
      P1  H  6896  6908       L1    10  0.97
      P1  H  6934  6947       L1     3  0.01

> <Gold.Chemscore.Hbond.Weighted>
-5.6308

> <Gold.Chemscore.Metal.Weighted>
-0.0000

> <Gold.Chemscore.Lipo.Weighted>
-10.9832

> <Gold.Chemscore.Internal_Hbond.Weighted>
0.0000

> <Gold.Chemscore.DEClash.Weighted>
1.4326

> <Gold.Chemscore.DEInternal.Weighted>
1.4403

> <Gold.Chemscore.Rot.Weighted>
6.3741

> <Gold.Chemscore.Internal.Correction.Weighted>
   9.000000E+99

> <Gold.Protein.RotatedTorsions>
[ 6907 6896 6895 6894 ] final  144.76 input  -60.11 | X-H torsion
[ 7974 7965 7964 7962 ] final -131.68 input  175.53 | X-H torsion
[ 8008 7997 7996 7995 ] final  154.46 input   59.86 | X-H torsion
[ 10167 10162 10161 10158 ] final   80.05 input  -65.29 | X-H torsion
[ 10718 10713 10712 10709 ] final   -7.21 input   66.30 | X-H torsion
[ 10763 10752 10751 10750 ] final  -97.26 input  -60.55 | X-H torsion
[ 11005 11000 10999 10996 ] final  109.33 input  -57.11 | X-H torsion

> <Gold.Protein.ActiveResidues>
 VAL166  LYS551  ARG553  GLY616  TRP617  ASP618  TYR619  PRO620  LYS621  CYS622 
 ASP623  PHE694  ASN695  SER759  ASP760  ASP761  ALA762  ILE779  LEU786  VAL792 
 PHE793  MET794  SER795  GLU796  ALA797  LYS798  CYS799  TRP800  GLU811  SER814 

> <Gold.Protein.RotatedAtoms>
  152.1896  133.4763  159.5000 H   0  0  0  0  0  0  0  0  0  0  0  0  # atno 6907 bound_to 6896
  150.6948  134.1730  159.4228 H   0  0  0  0  0  0  0  0  0  0  0  0  # atno 6908 bound_to 6896
  151.9644  135.0107  160.0600 H   0  0  0  0  0  0  0  0  0  0  0  0  # atno 6909 bound_to 6896
  144.9356  140.7179  143.4878 H   0  0  0  0  0  0  0  0  0  0  0  0  # atno 7974 bound_to 7965
  156.2530  140.1966  156.6649 H   0  0  0  0  0  0  0  0  0  0  0  0  # atno 8008 bound_to 7997
  154.6436  140.0580  156.9900 H   0  0  0  0  0  0  0  0  0  0  0  0  # atno 8009 bound_to 7997
  155.1525  140.3252  155.4431 H   0  0  0  0  0  0  0  0  0  0  0  0  # atno 8010 bound_to 7997
  139.9538  144.6008  150.8136 H   0  0  0  0  0  0  0  0  0  0  0  0  # atno 10167 bound_to 10162
  156.7205  130.5149  149.5869 H   0  0  0  0  0  0  0  0  0  0  0  0  # atno 10718 bound_to 10713
  154.7312  135.5053  153.8967 H   0  0  0  0  0  0  0  0  0  0  0  0  # atno 10763 bound_to 10752
  153.0952  135.6670  153.9786 H   0  0  0  0  0  0  0  0  0  0  0  0  # atno 10764 bound_to 10752
  153.9586  135.3050  155.3414 H   0  0  0  0  0  0  0  0  0  0  0  0  # atno 10765 bound_to 10752
  139.8860  134.9455  156.6110 H   0  0  0  0  0  0  0  0  0  0  0  0  # atno 11005 bound_to 11000
  145.3072  139.1830  143.4658 LP  0  0  0  0  0  0  0  0  0  0  0  0  # atno 17320 bound_to 7965
  146.3265  140.3071  142.8624 LP  0  0  0  0  0  0  0  0  0  0  0  0  # atno 17321 bound_to 7965
  140.7574  143.3087  151.2899 LP  0  0  0  0  0  0  0  0  0  0  0  0  # atno 17342 bound_to 10162
  139.6607  144.0194  152.2690 LP  0  0  0  0  0  0  0  0  0  0  0  0  # atno 17343 bound_to 10162
  156.1598  130.6366  151.0704 LP  0  0  0  0  0  0  0  0  0  0  0  0  # atno 17370 bound_to 10713
  157.6900  131.0813  150.7135 LP  0  0  0  0  0  0  0  0  0  0  0  0  # atno 17371 bound_to 10713
  140.7812  133.8659  155.8569 LP  0  0  0  0  0  0  0  0  0  0  0  0  # atno 17394 bound_to 11000
  140.9759  134.1470  157.4537 LP  0  0  0  0  0  0  0  0  0  0  0  0  # atno 17395 bound_to 11000

$$$$
