AV-unprocessed.smi:2006|AV-procd|sdf|8132|dock8
  -GOLD-   2272010363D 1   1.00000     0.00000
 Structure written by MMmdl.
 32 33  0  0  0  0  0  0  0  0  1 V2000
  151.9683  145.3731  159.2129 C   0  0  0  0  0  0  0  0  0  0  0  0
  151.9127  143.8603  159.4492 C   0  0  1  0  0  0  0  0  0  0  0  0
  151.7828  143.0734  158.1307 C   0  0  0  0  0  0  0  0  0  0  0  0
  151.8260  141.6408  158.3947 N   0  0  0  0  0  0  0  0  0  0  0  0
  151.5987  140.8576  157.2544 C   0  0  0  0  0  0  0  0  0  0  0  0
  150.4284  141.0764  156.4979 C   0  0  0  0  0  0  0  0  0  0  0  0
  150.2074  140.2912  155.3503 C   0  0  0  0  0  0  0  0  0  0  0  0
  151.1628  139.3163  154.9978 C   0  0  0  0  0  0  0  0  0  0  0  0
  150.9723  138.4467  153.7716 C   0  0  0  0  0  0  0  0  0  0  0  0
  149.6421  138.5631  153.2078 N   0  0  0  0  0  0  0  0  0  0  0  0
  152.2996  139.1709  155.8198 C   0  0  0  0  0  0  0  0  0  0  0  0
  152.5183  139.9197  156.9219 N   0  0  0  0  0  0  0  0  0  0  0  0
  153.0133  141.2470  159.1422 C   0  0  0  0  0  0  0  0  0  0  0  0
  153.1194  142.0756  160.4334 C   0  0  0  0  0  0  0  0  0  0  0  0
  153.1120  143.4638  160.1116 O   0  0  0  0  0  0  0  0  0  0  0  0
  151.0627  145.7259  158.7186 H   0  0  0  0  0  0  0  0  0  0  0  0
  152.8187  145.6437  158.5863 H   0  0  0  0  0  0  0  0  0  0  0  0
  152.0640  145.9115  160.1561 H   0  0  0  0  0  0  0  0  0  0  0  0
  151.0600  143.6404  160.0942 H   0  0  0  0  0  0  0  0  0  0  0  0
  150.8452  143.3259  157.6335 H   0  0  0  0  0  0  0  0  0  0  0  0
  152.5920  143.3477  157.4523 H   0  0  0  0  0  0  0  0  0  0  0  0
  149.7134  141.8321  156.7890 H   0  0  0  0  0  0  0  0  0  0  0  0
  149.3205  140.4370  154.7512 H   0  0  0  0  0  0  0  0  0  0  0  0
  151.7058  138.7099  153.0089 H   0  0  0  0  0  0  0  0  0  0  0  0
  151.1534  137.4059  154.0415 H   0  0  0  0  0  0  0  0  0  0  0  0
  149.6627  139.2122  152.4341 H   0  0  0  0  0  0  0  0  0  0  0  0
  149.3658  137.6737  152.8166 H   0  0  0  0  0  0  0  0  0  0  0  0
  153.0562  138.4357  155.5881 H   0  0  0  0  0  0  0  0  0  0  0  0
  152.9646  140.1839  159.3816 H   0  0  0  0  0  0  0  0  0  0  0  0
  153.9036  141.4009  158.5306 H   0  0  0  0  0  0  0  0  0  0  0  0
  152.2981  141.8444  161.1136 H   0  0  0  0  0  0  0  0  0  0  0  0
  154.0444  141.8374  160.9587 H   0  0  0  0  0  0  0  0  0  0  0  0
  1  2  1  0  0  0  0
  1 16  1  0  0  0  0
  1 17  1  0  0  0  0
  1 18  1  0  0  0  0
  2 15  1  0  0  0  0
  2  3  1  0  0  0  0
  2 19  1  0  0  0  0
  3  4  1  0  0  0  0
  3 20  1  0  0  0  0
  3 21  1  0  0  0  0
  4  5  1  0  0  0  0
  4 13  1  0  0  0  0
  5 12  1  0  0  0  0
  5  6  2  0  0  0  0
  6  7  1  0  0  0  0
  6 22  1  0  0  0  0
  7  8  2  0  0  0  0
  7 23  1  0  0  0  0
  8  9  1  0  0  0  0
  8 11  1  0  0  0  0
  9 10  1  0  0  0  0
  9 24  1  0  0  0  0
  9 25  1  0  0  0  0
 10 26  1  0  0  0  0
 10 27  1  0  0  0  0
 11 12  2  0  0  0  0
 11 28  1  0  0  0  0
 13 14  1  0  0  0  0
 13 29  1  0  0  0  0
 13 30  1  0  0  0  0
 14 15  1  0  0  0  0
 14 31  1  0  0  0  0
 14 32  1  0  0  0  0
M  END
> <s_m_source_file>
AV-unprocessed.smi

> <i_m_source_file_index>
2006

> <i_lp_mmshare_version>
43012

> <i_f3d_flags>
0

> <s_epik_input>
W0NIM11bQ0BASF0xW0NIMl1OKFtDSDJdW0NIMl1PMSljMltjSF1bY0hdYyhbY0hdbjIpW0NIMl1bTkgyXQ==

> <s_epik_cmdline>
J2VwaWtfcHl0aG9uJywgJy1waCcsICc3LjAnLCAnLXRuJywgJzgnLCAnLW1hJywgJzIwMCcsICctbWV0YWxfYmluZGluZycsICctaW1hZScsICc8aW5maWxlLm1hZT4nLCAnLW9tYWUnLCAnPG91dGZpbGUubWFlPic=

> <r_lp_tautomer_probability>
1

> <r_epik_Ionization_Penalty>
1.39389

> <r_epik_Ionization_Penalty_Charging>
0

> <r_epik_Ionization_Penalty_Neutral>
1.39389

> <r_epik_State_Penalty>
1.46818

> <r_epik_Charging_Adjusted_Penalty>
1.46818

> <i_epik_Tot_Q>
0

> <i_epik_Tot_abs_Q>
0

> <r_epik_Metal_State_Penalty>
1.46201

> <b_epik_Metal_Only>
0

> <s_lp_Force_Field>
OPLS_2005

> <r_lp_Energy>
16.9225

> <b_lp_Chiralities_Consistent>
1

> <s_lp_Variant>
AV-unprocessed.smi:2006-4

> <Gold.Version>
5.8.1

> <Gold.Id.Protein>
6NUR|6NUR_protein|mol2

> <Gold.PLP.Fitness>
44.3329

> <Gold.PLP.PLP>
-35.6291

> <Gold.PLP.part.hbond>
-3.0000

> <Gold.PLP.part.metal>
0.0000

> <Gold.PLP.part.buried>
-4.4903

> <Gold.PLP.part.nonpolar>
-28.2659

> <Gold.PLP.part.repulsive>
0.0000

> <Gold.PLP.ligand.clash>
0.0000

> <Gold.PLP.ligand.torsion>
0.1622

> <Gold.PLP.Chemscore.Hbond>
2.9760

> <Gold.PLP.Chemscore.CHOScore>
0.0000

> <Gold.PLP.Chemscore.Metal>
0.0000

> <Gold.Chemscore.Hbonds>
donor molecule, donor type, donor heavy atom, donor atom, acceptor molecule, acceptor atom, score
      L1  H    10    26       P1  7957  0.94
      L1  H    10    27       P1  7948  1.00
      P1  H  7997  8009       L1    12  0.94

> <Gold.PLP.Chemscore.Internal.Correction>
0.1002

> <Gold.Rescore>
     Score         DG    S(hbond)    S(metal)    S(lipo)     H(rot)  DE(clash)    DE(int)     intcor
     21.78     -21.94       2.72        0.00      90.89       1.28       0.03       0.13       ----

> <Gold.Chemscore.Fitness>
21.7771

> <Gold.Chemscore.DG>
-21.9426

> <Gold.Chemscore.ZeroCoef>
-5.4800

> <Gold.Chemscore.Hbond>
2.7233

> <Gold.Chemscore.Metal>
0.0000

> <Gold.Chemscore.Lipo>
90.8872

> <Gold.Chemscore.Internal_Hbond>
0.0000

> <Gold.Chemscore.DEClash>
0.0341

> <Gold.Chemscore.DEInternal>
0.1314

> <Gold.Chemscore.Rot>
1.2762

> <Gold.Chemscore.Internal.Correction>
   9.000000E+99

> <Gold.Chemscore.Hbonds>
donor molecule, donor type, donor heavy atom, donor atom, acceptor molecule, acceptor atom, score
      L1  H    10    26       P1  7957  0.83
      L1  H    10    27       P1  7948  0.91
      P1  H  7997  8009       L1    12  0.23

> <Gold.Chemscore.Hbond.Weighted>
-9.0959

> <Gold.Chemscore.Metal.Weighted>
-0.0000

> <Gold.Chemscore.Lipo.Weighted>
-10.6338

> <Gold.Chemscore.Internal_Hbond.Weighted>
0.0000

> <Gold.Chemscore.DEClash.Weighted>
0.0341

> <Gold.Chemscore.DEInternal.Weighted>
0.1314

> <Gold.Chemscore.Rot.Weighted>
3.2671

> <Gold.Chemscore.Internal.Correction.Weighted>
   9.000000E+99

> <Gold.Protein.RotatedTorsions>
[ 6907 6896 6895 6894 ] final  136.42 input  -60.11 | X-H torsion
[ 7974 7965 7964 7962 ] final  -39.06 input  175.53 | X-H torsion
[ 8008 7997 7996 7995 ] final  165.97 input   59.86 | X-H torsion
[ 10167 10162 10161 10158 ] final  -74.87 input  -65.29 | X-H torsion
[ 10718 10713 10712 10709 ] final -112.77 input   66.30 | X-H torsion
[ 10763 10752 10751 10750 ] final   57.38 input  -60.55 | X-H torsion
[ 11005 11000 10999 10996 ] final -130.86 input  -57.11 | X-H torsion

> <Gold.Protein.ActiveResidues>
 VAL166  LYS551  ARG553  GLY616  TRP617  ASP618  TYR619  PRO620  LYS621  CYS622 
 ASP623  PHE694  ASN695  SER759  ASP760  ASP761  ALA762  ILE779  LEU786  VAL792 
 PHE793  MET794  SER795  GLU796  ALA797  LYS798  CYS799  TRP800  GLU811  SER814 

> <Gold.Protein.RotatedAtoms>
  152.2895  133.5548  159.5548 H   0  0  0  0  0  0  0  0  0  0  0  0  # atno 6907 bound_to 6896
  150.7229  134.0448  159.3787 H   0  0  0  0  0  0  0  0  0  0  0  0  # atno 6908 bound_to 6896
  151.8355  135.0608  160.0493 H   0  0  0  0  0  0  0  0  0  0  0  0  # atno 6909 bound_to 6896
  146.0430  140.6583  142.9078 H   0  0  0  0  0  0  0  0  0  0  0  0  # atno 7974 bound_to 7965
  156.1757  140.1656  156.8367 H   0  0  0  0  0  0  0  0  0  0  0  0  # atno 8008 bound_to 7997
  154.5304  140.0758  156.8369 H   0  0  0  0  0  0  0  0  0  0  0  0  # atno 8009 bound_to 7997
  155.3418  140.3385  155.4241 H   0  0  0  0  0  0  0  0  0  0  0  0  # atno 8010 bound_to 7997
  140.4990  143.2365  151.7783 H   0  0  0  0  0  0  0  0  0  0  0  0  # atno 10167 bound_to 10162
  156.0726  130.5938  150.8553 H   0  0  0  0  0  0  0  0  0  0  0  0  # atno 10718 bound_to 10713
  152.9849  135.5643  154.5381 H   0  0  0  0  0  0  0  0  0  0  0  0  # atno 10763 bound_to 10752
  154.4841  135.2790  155.1550 H   0  0  0  0  0  0  0  0  0  0  0  0  # atno 10764 bound_to 10752
  154.3046  135.6300  153.5492 H   0  0  0  0  0  0  0  0  0  0  0  0  # atno 10765 bound_to 10752
  140.9309  134.1321  157.4235 H   0  0  0  0  0  0  0  0  0  0  0  0  # atno 11005 bound_to 11000
  144.7084  140.3943  143.7100 LP  0  0  0  0  0  0  0  0  0  0  0  0  # atno 17320 bound_to 7965
  145.6852  139.1627  143.2678 LP  0  0  0  0  0  0  0  0  0  0  0  0  # atno 17321 bound_to 7965
  139.4868  144.4547  151.9612 LP  0  0  0  0  0  0  0  0  0  0  0  0  # atno 17342 bound_to 10162
  140.3636  144.2943  150.5930 LP  0  0  0  0  0  0  0  0  0  0  0  0  # atno 17343 bound_to 10162
  157.5805  131.0946  150.9279 LP  0  0  0  0  0  0  0  0  0  0  0  0  # atno 17370 bound_to 10713
  156.9475  130.5407  149.5281 LP  0  0  0  0  0  0  0  0  0  0  0  0  # atno 17371 bound_to 10713
  139.8796  135.0004  156.6011 LP  0  0  0  0  0  0  0  0  0  0  0  0  # atno 17394 bound_to 11000
  140.7864  133.8618  155.8610 LP  0  0  0  0  0  0  0  0  0  0  0  0  # atno 17395 bound_to 11000

$$$$
