AV-unprocessed.smi:2784|AV-procd|sdf|10739|dock3
  -GOLD-   2272015173D 1   1.00000     0.00000
 Structure written by MMmdl.
 31 32  0  0  0  0  0  0  0  0  1 V2000
  150.6164  145.2390  159.5225 C   0  0  0  0  0  0  0  0  0  0  0  0
  150.6063  144.2746  158.4825 O   0  0  0  0  0  0  0  0  0  0  0  0
  151.9061  143.8580  158.0725 C   0  0  1  0  0  0  0  0  0  0  0  0
  152.6164  143.3452  159.3271 C   0  0  0  0  0  0  0  0  0  0  0  0
  152.1364  141.9041  159.4709 C   0  0  0  0  0  0  0  0  0  0  0  0
  152.0374  141.3885  158.0337 C   0  0  0  0  0  0  0  0  0  0  0  0
  151.8386  142.6266  157.1370 C   0  0  1  0  0  0  0  0  0  0  0  0
  150.5833  142.5361  156.3930 N   0  0  0  0  0  0  0  0  0  0  0  0
  150.2538  141.5596  155.5346 C   0  0  0  0  0  0  0  0  0  0  0  0
  151.0243  140.6245  155.2959 O   0  0  0  0  0  0  0  0  0  0  0  0
  148.9921  141.7975  155.0090 N   0  0  0  0  0  0  0  0  0  0  0  0
  148.3889  140.8663  154.3367 C   0  0  0  0  0  0  0  0  0  0  0  0
  147.1372  140.9274  153.7450 N   0  0  0  0  0  0  0  0  0  0  0  0
  146.8915  139.7242  153.1430 C   0  0  0  0  0  0  0  0  0  0  0  0
  147.9446  138.9377  153.3452 C   0  0  0  0  0  0  0  0  0  0  0  0
  148.8804  139.6083  154.0735 O   0  0  0  0  0  0  0  0  0  0  0  0
  149.5934  145.5276  159.7638 H   0  0  0  0  0  0  0  0  0  0  0  0
  151.1592  146.1377  159.2293 H   0  0  0  0  0  0  0  0  0  0  0  0
  151.0740  144.8341  160.4260 H   0  0  0  0  0  0  0  0  0  0  0  0
  152.4696  144.6765  157.6200 H   0  0  0  0  0  0  0  0  0  0  0  0
  153.6953  143.3535  159.1661 H   0  0  0  0  0  0  0  0  0  0  0  0
  152.4090  143.9507  160.2102 H   0  0  0  0  0  0  0  0  0  0  0  0
  152.8006  141.2991  160.0890 H   0  0  0  0  0  0  0  0  0  0  0  0
  151.1489  141.8923  159.9343 H   0  0  0  0  0  0  0  0  0  0  0  0
  152.9668  140.8882  157.7581 H   0  0  0  0  0  0  0  0  0  0  0  0
  151.2379  140.6529  157.9330 H   0  0  0  0  0  0  0  0  0  0  0  0
  152.6779  142.6645  156.4399 H   0  0  0  0  0  0  0  0  0  0  0  0
  149.9162  143.2800  156.5385 H   0  0  0  0  0  0  0  0  0  0  0  0
  146.4878  141.7004  153.7346 H   0  0  0  0  0  0  0  0  0  0  0  0
  145.9624  139.5551  152.6190 H   0  0  0  0  0  0  0  0  0  0  0  0
  148.1708  137.9237  153.0504 H   0  0  0  0  0  0  0  0  0  0  0  0
  1  2  1  0  0  0  0
  1 17  1  0  0  0  0
  1 18  1  0  0  0  0
  1 19  1  0  0  0  0
  2  3  1  0  0  0  0
  3  7  1  0  0  0  0
  3  4  1  0  0  0  0
  3 20  1  0  0  0  0
  4  5  1  0  0  0  0
  4 21  1  0  0  0  0
  4 22  1  0  0  0  0
  5  6  1  0  0  0  0
  5 23  1  0  0  0  0
  5 24  1  0  0  0  0
  6  7  1  0  0  0  0
  6 25  1  0  0  0  0
  6 26  1  0  0  0  0
  7  8  1  0  0  0  0
  7 27  1  0  0  0  0
  8 28  1  0  0  0  0
  8  9  1  0  0  0  0
  9 11  1  0  0  0  0
  9 10  2  0  0  0  0
 11 12  2  0  0  0  0
 12 16  1  0  0  0  0
 12 13  1  0  0  0  0
 13 29  1  0  0  0  0
 13 14  1  0  0  0  0
 14 30  1  0  0  0  0
 14 15  2  0  0  0  0
 15 31  1  0  0  0  0
 15 16  1  0  0  0  0
M  END
> <s_m_source_file>
AV-unprocessed.smi

> <i_m_source_file_index>
2784

> <i_lp_mmshare_version>
43012

> <i_f3d_flags>
0

> <s_epik_input>
W0NIM11PW0NAQEhdMVtDSDJdW0NIMl1bQ0gyXVtDQEhdMVtOSF1DKD1PKVtOSF1jMm5bY0hdW2NIXW8y

> <s_epik_cmdline>
J2VwaWtfcHl0aG9uJywgJy1waCcsICc3LjAnLCAnLXRuJywgJzgnLCAnLW1hJywgJzIwMCcsICctbWV0YWxfYmluZGluZycsICctaW1hZScsICc8aW5maWxlLm1hZT4nLCAnLW9tYWUnLCAnPG91dGZpbGUubWFlPic=

> <r_lp_tautomer_probability>
0.107061

> <r_epik_Ionization_Penalty>
1.29244

> <r_epik_Ionization_Penalty_Charging>
1.29208

> <r_epik_Ionization_Penalty_Neutral>
0.000359742

> <r_epik_State_Penalty>
2.59896

> <r_epik_Charging_Adjusted_Penalty>
3.89105

> <i_epik_Tot_Q>
0

> <i_epik_Tot_abs_Q>
0

> <r_epik_Metal_State_Penalty>
3.62496

> <b_epik_Metal_Only>
0

> <s_lp_Force_Field>
OPLS_2005

> <r_lp_Energy>
45.4074

> <b_lp_Chiralities_Consistent>
1

> <s_lp_Variant>
AV-unprocessed.smi:2784-14

> <Gold.Version>
5.8.1

> <Gold.Id.Protein>
6NUR|6NUR_protein|mol2

> <Gold.PLP.Fitness>
38.2916

> <Gold.PLP.PLP>
-26.7942

> <Gold.PLP.part.hbond>
-2.0000

> <Gold.PLP.part.metal>
0.0000

> <Gold.PLP.part.buried>
-5.6793

> <Gold.PLP.part.nonpolar>
-20.2961

> <Gold.PLP.part.repulsive>
1.3037

> <Gold.PLP.ligand.clash>
0.0000

> <Gold.PLP.ligand.torsion>
0.0653

> <Gold.PLP.Chemscore.Hbond>
1.8720

> <Gold.PLP.Chemscore.CHOScore>
2.0000

> <Gold.PLP.Chemscore.Metal>
0.0000

> <Gold.Chemscore.Hbonds>
donor molecule, donor type, donor heavy atom, donor atom, acceptor molecule, acceptor atom, score
      L1  H     8    28       P1  8028  0.90
      P1  H  7989  7998       L1    10  0.90
      L1  C    14    30       P1 10175  1.00
      L1  C    15    31       P1  7948  1.00

> <Gold.PLP.Chemscore.Internal.Correction>
0.0120

> <Gold.Rescore>
     Score         DG    S(hbond)    S(metal)    S(lipo)     H(rot)  DE(clash)    DE(int)     intcor
     12.10     -15.60       1.48        0.00      73.23       1.32       1.31       2.19       ----

> <Gold.Chemscore.Fitness>
12.1025

> <Gold.Chemscore.DG>
-15.5959

> <Gold.Chemscore.ZeroCoef>
-5.4800

> <Gold.Chemscore.Hbond>
1.4780

> <Gold.Chemscore.Metal>
0.0000

> <Gold.Chemscore.Lipo>
73.2271

> <Gold.Chemscore.Internal_Hbond>
0.0000

> <Gold.Chemscore.DEClash>
1.3082

> <Gold.Chemscore.DEInternal>
2.1852

> <Gold.Chemscore.Rot>
1.3235

> <Gold.Chemscore.Internal.Correction>
   9.000000E+99

> <Gold.Chemscore.Hbonds>
donor molecule, donor type, donor heavy atom, donor atom, acceptor molecule, acceptor atom, score
      L1  H     8    28       P1  8028  0.86
      P1  H  7989  7998       L1    10  0.49

> <Gold.Chemscore.Hbond.Weighted>
-4.9365

> <Gold.Chemscore.Metal.Weighted>
-0.0000

> <Gold.Chemscore.Lipo.Weighted>
-8.5676

> <Gold.Chemscore.Internal_Hbond.Weighted>
0.0000

> <Gold.Chemscore.DEClash.Weighted>
1.3082

> <Gold.Chemscore.DEInternal.Weighted>
2.1852

> <Gold.Chemscore.Rot.Weighted>
3.3882

> <Gold.Chemscore.Internal.Correction.Weighted>
   9.000000E+99

> <Gold.Protein.RotatedTorsions>
[ 6907 6896 6895 6894 ] final  146.78 input  -60.11 | X-H torsion
[ 7974 7965 7964 7962 ] final  -23.55 input  175.53 | X-H torsion
[ 8008 7997 7996 7995 ] final    2.50 input   59.86 | X-H torsion
[ 10167 10162 10161 10158 ] final  -65.22 input  -65.29 | X-H torsion
[ 10718 10713 10712 10709 ] final   37.54 input   66.30 | X-H torsion
[ 10763 10752 10751 10750 ] final    0.71 input  -60.55 | X-H torsion
[ 11005 11000 10999 10996 ] final   59.21 input  -57.11 | X-H torsion

> <Gold.Protein.ActiveResidues>
 VAL166  LYS551  ARG553  GLY616  TRP617  ASP618  TYR619  PRO620  LYS621  CYS622 
 ASP623  PHE694  ASN695  SER759  ASP760  ASP761  ALA762  ILE779  LEU786  VAL792 
 PHE793  MET794  SER795  GLU796  ALA797  LYS798  CYS799  TRP800  GLU811  SER814 

> <Gold.Protein.RotatedAtoms>
  152.1634  133.4596  159.4872 H   0  0  0  0  0  0  0  0  0  0  0  0  # atno 6907 bound_to 6896
  150.6910  134.2043  159.4343 H   0  0  0  0  0  0  0  0  0  0  0  0  # atno 6908 bound_to 6896
  151.9946  134.9960  160.0613 H   0  0  0  0  0  0  0  0  0  0  0  0  # atno 6909 bound_to 6896
  146.1609  140.4631  142.8572 H   0  0  0  0  0  0  0  0  0  0  0  0  # atno 7974 bound_to 7965
  154.6923  140.2656  155.6800 H   0  0  0  0  0  0  0  0  0  0  0  0  # atno 8008 bound_to 7997
  156.2736  140.2788  156.1429 H   0  0  0  0  0  0  0  0  0  0  0  0  # atno 8009 bound_to 7997
  155.0879  140.0373  157.2649 H   0  0  0  0  0  0  0  0  0  0  0  0  # atno 8010 bound_to 7997
  140.5745  143.2320  151.6471 H   0  0  0  0  0  0  0  0  0  0  0  0  # atno 10167 bound_to 10162
  157.3482  130.7584  149.6959 H   0  0  0  0  0  0  0  0  0  0  0  0  # atno 10718 bound_to 10713
  153.3172  135.6967  153.7063 H   0  0  0  0  0  0  0  0  0  0  0  0  # atno 10763 bound_to 10752
  153.5917  135.3478  155.2914 H   0  0  0  0  0  0  0  0  0  0  0  0  # atno 10764 bound_to 10752
  154.8589  135.4319  154.2326 H   0  0  0  0  0  0  0  0  0  0  0  0  # atno 10765 bound_to 10752
  140.0320  134.5998  155.9494 H   0  0  0  0  0  0  0  0  0  0  0  0  # atno 11005 bound_to 11000
  144.8026  140.6241  143.6468 LP  0  0  0  0  0  0  0  0  0  0  0  0  # atno 17320 bound_to 7965
  145.4590  139.1515  143.3877 LP  0  0  0  0  0  0  0  0  0  0  0  0  # atno 17321 bound_to 7965
  139.5135  144.3441  152.0713 LP  0  0  0  0  0  0  0  0  0  0  0  0  # atno 17342 bound_to 10162
  140.2582  144.4095  150.6195 LP  0  0  0  0  0  0  0  0  0  0  0  0  # atno 17343 bound_to 10162
  155.9717  130.4148  150.4150 LP  0  0  0  0  0  0  0  0  0  0  0  0  # atno 17370 bound_to 10713
  157.2209  131.0482  151.2547 LP  0  0  0  0  0  0  0  0  0  0  0  0  # atno 17371 bound_to 10713
  141.1836  133.6551  156.5124 LP  0  0  0  0  0  0  0  0  0  0  0  0  # atno 17394 bound_to 11000
  140.4209  134.7188  157.4889 LP  0  0  0  0  0  0  0  0  0  0  0  0  # atno 17395 bound_to 11000

$$$$
