AV-unprocessed.smi:1284|AV-procd|sdf|5363|dock5
  -GOLD-   22720 4503D 1   1.00000     0.00000
 Structure written by MMmdl.
 39 41  0  0  0  0  0  0  0  0  1 V2000
  152.7351  139.2976  155.1648 N   0  0  0  0  0  0  0  0  0  0  0  0
  151.4486  139.6505  155.2392 C   0  0  0  0  0  0  0  0  0  0  0  0
  150.8039  139.9902  154.2495 O   0  0  0  0  0  0  0  0  0  0  0  0
  150.7859  139.6021  156.6193 C   0  0  0  0  0  0  0  0  0  0  0  0
  151.1373  140.8563  157.3706 C   0  0  0  0  0  0  0  0  0  0  0  0
  150.9103  142.0668  156.8554 N   0  0  0  0  0  0  0  0  0  0  0  0
  151.3799  142.9122  157.8411 C   0  0  0  0  0  0  0  0  0  0  0  0
  151.4201  144.3237  157.8979 C   0  0  0  0  0  0  0  0  0  0  0  0
  151.9592  144.9776  159.0251 C   0  0  0  0  0  0  0  0  0  0  0  0
  152.4646  144.2313  160.1095 C   0  0  0  0  0  0  0  0  0  0  0  0
  152.4320  142.8239  160.0737 C   0  0  0  0  0  0  0  0  0  0  0  0
  151.8923  142.1764  158.9462 C   0  0  0  0  0  0  0  0  0  0  0  0
  151.7165  140.8408  158.5999 N   0  0  0  0  0  0  0  0  0  0  0  0
  152.0917  139.6951  159.4185 C   0  0  0  0  0  0  0  0  0  0  0  0
  153.6186  139.5510  159.5759 C   0  0  2  0  0  0  0  0  0  0  0  0
  154.1696  138.9209  158.4356 O   0  0  0  0  0  0  0  0  0  0  0  0
  153.9724  138.8189  160.8606 C   0  0  0  0  0  0  0  0  0  0  0  0
  153.5841  137.4734  161.0381 C   0  0  0  0  0  0  0  0  0  0  0  0
  153.9161  136.7894  162.2238 C   0  0  0  0  0  0  0  0  0  0  0  0
  154.6397  137.4461  163.2377 C   0  0  0  0  0  0  0  0  0  0  0  0
  155.0338  138.7866  163.0643 C   0  0  0  0  0  0  0  0  0  0  0  0
  154.7023  139.4709  161.8789 C   0  0  0  0  0  0  0  0  0  0  0  0
  153.2121  139.3247  154.2754 H   0  0  0  0  0  0  0  0  0  0  0  0
  153.2285  139.0142  155.9992 H   0  0  0  0  0  0  0  0  0  0  0  0
  149.7055  139.4943  156.5257 H   0  0  0  0  0  0  0  0  0  0  0  0
  151.1421  138.7321  157.1728 H   0  0  0  0  0  0  0  0  0  0  0  0
  151.0365  144.9042  157.0720 H   0  0  0  0  0  0  0  0  0  0  0  0
  151.9863  146.0568  159.0573 H   0  0  0  0  0  0  0  0  0  0  0  0
  152.8773  144.7398  160.9685 H   0  0  0  0  0  0  0  0  0  0  0  0
  152.8182  142.2488  160.9021 H   0  0  0  0  0  0  0  0  0  0  0  0
  151.6312  139.8197  160.3992 H   0  0  0  0  0  0  0  0  0  0  0  0
  151.6596  138.7866  159.0015 H   0  0  0  0  0  0  0  0  0  0  0  0
  154.0598  140.5476  159.6190 H   0  0  0  0  0  0  0  0  0  0  0  0
  154.4659  138.0589  158.6847 H   0  0  0  0  0  0  0  0  0  0  0  0
  153.0314  136.9598  160.2653 H   0  0  0  0  0  0  0  0  0  0  0  0
  153.6165  135.7600  162.3551 H   0  0  0  0  0  0  0  0  0  0  0  0
  154.8940  136.9210  164.1468 H   0  0  0  0  0  0  0  0  0  0  0  0
  155.5916  139.2905  163.8397 H   0  0  0  0  0  0  0  0  0  0  0  0
  155.0127  140.4979  161.7517 H   0  0  0  0  0  0  0  0  0  0  0  0
  1  2  1  0  0  0  0
  1 23  1  0  0  0  0
  1 24  1  0  0  0  0
  2  3  2  0  0  0  0
  2  4  1  0  0  0  0
  4  5  1  0  0  0  0
  4 25  1  0  0  0  0
  4 26  1  0  0  0  0
  5 13  1  0  0  0  0
  5  6  2  0  0  0  0
  6  7  1  0  0  0  0
  7 12  2  0  0  0  0
  7  8  1  0  0  0  0
  8  9  2  0  0  0  0
  8 27  1  0  0  0  0
  9 10  1  0  0  0  0
  9 28  1  0  0  0  0
 10 11  2  0  0  0  0
 10 29  1  0  0  0  0
 11 12  1  0  0  0  0
 11 30  1  0  0  0  0
 12 13  1  0  0  0  0
 13 14  1  0  0  0  0
 14 15  1  0  0  0  0
 14 31  1  0  0  0  0
 14 32  1  0  0  0  0
 15 16  1  0  0  0  0
 15 17  1  0  0  0  0
 15 33  1  0  0  0  0
 16 34  1  0  0  0  0
 17 22  1  0  0  0  0
 17 18  2  0  0  0  0
 18 19  1  0  0  0  0
 18 35  1  0  0  0  0
 19 20  2  0  0  0  0
 19 36  1  0  0  0  0
 20 21  1  0  0  0  0
 20 37  1  0  0  0  0
 21 22  2  0  0  0  0
 21 38  1  0  0  0  0
 22 39  1  0  0  0  0
M  END
> <s_m_source_file>
AV-unprocessed.smi

> <i_m_source_file_index>
1284

> <i_lp_mmshare_version>
43012

> <i_f3d_flags>
0

> <s_epik_input>
W2NIXTFbY0hdW2NIXVtjSF1jKGMxMiluKGMobjIpW0NIMl1DKD1PKVtOSDJdKVtDSDJdW0NASF0oW09IXSljM1tjSF1bY0hdW2NIXVtjSF1bY0hdMw==

> <s_epik_cmdline>
J2VwaWtfcHl0aG9uJywgJy1waCcsICc3LjAnLCAnLXRuJywgJzgnLCAnLW1hJywgJzIwMCcsICctbWV0YWxfYmluZGluZycsICctaW1hZScsICc8aW5maWxlLm1hZT4nLCAnLW9tYWUnLCAnPG91dGZpbGUubWFlPic=

> <r_epik_Ionization_Penalty>
0.0366899

> <r_epik_Ionization_Penalty_Charging>
0

> <r_epik_Ionization_Penalty_Neutral>
0.0366899

> <r_epik_State_Penalty>
0.0306642

> <r_epik_Charging_Adjusted_Penalty>
0.0306642

> <i_epik_Tot_Q>
0

> <i_epik_Tot_abs_Q>
0

> <r_epik_Metal_State_Penalty>
0.028853

> <b_epik_Metal_Only>
0

> <s_lp_Force_Field>
OPLS_2005

> <r_lp_Energy>
12.351

> <b_lp_Chiralities_Consistent>
1

> <s_lp_Variant>
AV-unprocessed.smi:1284-1

> <Gold.Version>
5.8.1

> <Gold.Id.Protein>
6NUR|6NUR_protein|mol2

> <Gold.PLP.Fitness>
50.7269

> <Gold.PLP.PLP>
-45.9721

> <Gold.PLP.part.hbond>
-2.0000

> <Gold.PLP.part.metal>
0.0000

> <Gold.PLP.part.buried>
-6.5273

> <Gold.PLP.part.nonpolar>
-39.1124

> <Gold.PLP.part.repulsive>
0.4238

> <Gold.PLP.ligand.clash>
0.0000

> <Gold.PLP.ligand.torsion>
0.6503

> <Gold.PLP.Chemscore.Hbond>
2.0000

> <Gold.PLP.Chemscore.CHOScore>
0.0000

> <Gold.PLP.Chemscore.Metal>
0.0000

> <Gold.Chemscore.Hbonds>
donor molecule, donor type, donor heavy atom, donor atom, acceptor molecule, acceptor atom, score
      P1  H  7989  7998       L1     3  0.73
      P1  H  7997  8010       L1    16  1.00

> <Gold.PLP.Chemscore.Internal.Correction>
0.0553

> <Gold.Rescore>
     Score         DG    S(hbond)    S(metal)    S(lipo)     H(rot)  DE(clash)    DE(int)     intcor
     19.46     -20.06       1.99        0.00     130.38       2.86       0.12       0.48       ----

> <Gold.Chemscore.Fitness>
19.4611

> <Gold.Chemscore.DG>
-20.0564

> <Gold.Chemscore.ZeroCoef>
-5.4800

> <Gold.Chemscore.Hbond>
1.9897

> <Gold.Chemscore.Metal>
0.0000

> <Gold.Chemscore.Lipo>
130.3767

> <Gold.Chemscore.Internal_Hbond>
0.0000

> <Gold.Chemscore.DEClash>
0.1153

> <Gold.Chemscore.DEInternal>
0.4800

> <Gold.Chemscore.Rot>
2.8606

> <Gold.Chemscore.Internal.Correction>
   9.000000E+99

> <Gold.Chemscore.Hbonds>
donor molecule, donor type, donor heavy atom, donor atom, acceptor molecule, acceptor atom, score
      P1  H  7989  7998       L1     3  0.44
      P1  H  7997  8010       L1    16  0.93

> <Gold.Chemscore.Hbond.Weighted>
-6.6455

> <Gold.Chemscore.Metal.Weighted>
-0.0000

> <Gold.Chemscore.Lipo.Weighted>
-15.2541

> <Gold.Chemscore.Internal_Hbond.Weighted>
0.0000

> <Gold.Chemscore.DEClash.Weighted>
0.1153

> <Gold.Chemscore.DEInternal.Weighted>
0.4800

> <Gold.Chemscore.Rot.Weighted>
7.3231

> <Gold.Chemscore.Internal.Correction.Weighted>
   9.000000E+99

> <Gold.Protein.RotatedTorsions>
[ 6907 6896 6895 6894 ] final -110.65 input  -60.11 | X-H torsion
[ 7974 7965 7964 7962 ] final   77.26 input  175.53 | X-H torsion
[ 8008 7997 7996 7995 ] final   13.76 input   59.86 | X-H torsion
[ 10167 10162 10161 10158 ] final -177.89 input  -65.29 | X-H torsion
[ 10718 10713 10712 10709 ] final -151.14 input   66.30 | X-H torsion
[ 10763 10752 10751 10750 ] final -122.72 input  -60.55 | X-H torsion
[ 11005 11000 10999 10996 ] final  -36.82 input  -57.11 | X-H torsion

> <Gold.Protein.ActiveResidues>
 VAL166  LYS551  ARG553  GLY616  TRP617  ASP618  TYR619  PRO620  LYS621  CYS622 
 ASP623  PHE694  ASN695  SER759  ASP760  ASP761  ALA762  ILE779  LEU786  VAL792 
 PHE793  MET794  SER795  GLU796  ALA797  LYS798  CYS799  TRP800  GLU811  SER814 

> <Gold.Protein.RotatedAtoms>
  150.7639  133.9350  159.3438 H   0  0  0  0  0  0  0  0  0  0  0  0  # atno 6907 bound_to 6896
  151.7253  135.0884  160.0300 H   0  0  0  0  0  0  0  0  0  0  0  0  # atno 6908 bound_to 6896
  152.3624  133.6276  159.6061 H   0  0  0  0  0  0  0  0  0  0  0  0  # atno 6909 bound_to 6896
  145.6923  139.2556  143.1753 H   0  0  0  0  0  0  0  0  0  0  0  0  # atno 7974 bound_to 7965
  154.8390  140.2911  155.5672 H   0  0  0  0  0  0  0  0  0  0  0  0  # atno 8008 bound_to 7997
  156.3010  140.2517  156.3261 H   0  0  0  0  0  0  0  0  0  0  0  0  # atno 8009 bound_to 7997
  154.9146  140.0387  157.1954 H   0  0  0  0  0  0  0  0  0  0  0  0  # atno 8010 bound_to 7997
  139.5458  144.2239  152.0985 H   0  0  0  0  0  0  0  0  0  0  0  0  # atno 10167 bound_to 10162
  156.4553  130.8187  151.2418 H   0  0  0  0  0  0  0  0  0  0  0  0  # atno 10718 bound_to 10713
  154.8695  135.4123  154.2827 H   0  0  0  0  0  0  0  0  0  0  0  0  # atno 10763 bound_to 10752
  153.3717  135.7008  153.6638 H   0  0  0  0  0  0  0  0  0  0  0  0  # atno 10764 bound_to 10752
  153.5497  135.3631  155.2726 H   0  0  0  0  0  0  0  0  0  0  0  0  # atno 10765 bound_to 10752
  140.9904  133.7008  156.1840 H   0  0  0  0  0  0  0  0  0  0  0  0  # atno 11005 bound_to 11000
  146.0871  140.7698  142.9613 LP  0  0  0  0  0  0  0  0  0  0  0  0  # atno 17320 bound_to 7965
  144.6993  140.3579  143.7169 LP  0  0  0  0  0  0  0  0  0  0  0  0  # atno 17321 bound_to 7965
  140.1725  144.4922  150.6572 LP  0  0  0  0  0  0  0  0  0  0  0  0  # atno 17342 bound_to 10162
  140.6706  143.2284  151.5635 LP  0  0  0  0  0  0  0  0  0  0  0  0  # atno 17343 bound_to 10162
  157.7501  131.0124  150.3385 LP  0  0  0  0  0  0  0  0  0  0  0  0  # atno 17370 bound_to 10713
  156.3773  130.3874  149.7129 LP  0  0  0  0  0  0  0  0  0  0  0  0  # atno 17371 bound_to 10713
  140.7049  134.4524  157.5584 LP  0  0  0  0  0  0  0  0  0  0  0  0  # atno 17394 bound_to 11000
  139.8990  134.8602  156.1980 LP  0  0  0  0  0  0  0  0  0  0  0  0  # atno 17395 bound_to 11000

$$$$
