AV-unprocessed.smi:752|AV-procd|sdf|3598|dock8
  -GOLD-   22720 0593D 1   1.00000     0.00000
 Structure written by MMmdl.
 41 42  0  0  0  0  0  0  0  0  1 V2000
  148.8737  123.5550  150.0277 C   0  0  0  0  0  0  0  0  0  0  0  0
  149.3587  124.3096  151.2699 C   0  0  0  0  0  0  0  0  0  0  0  0
  148.8532  125.7123  151.3225 C   0  0  0  0  0  0  0  0  0  0  0  0
  148.0680  126.1761  152.2979 N   0  0  0  0  0  0  0  0  0  0  0  0
  147.7225  127.5202  152.1194 C   0  0  0  0  0  0  0  0  0  0  0  0
  146.8990  128.2285  153.1572 C   0  0  0  0  0  0  0  0  0  0  0  0
  147.1292  129.7344  153.0316 C   0  0  0  0  0  0  0  0  0  0  0  0
  148.2332  130.2148  153.2868 O   0  0  0  0  0  0  0  0  0  0  0  0
  146.0606  130.4699  152.6881 N   0  0  0  0  0  0  0  0  0  0  0  0
  145.9816  131.9225  152.7815 C   0  0  0  0  0  0  0  0  0  0  0  0
  145.0468  132.5057  151.6995 C   0  0  1  0  0  0  0  0  0  0  0  0
  145.0399  134.0455  151.7349 C   0  0  0  0  0  0  0  0  0  0  0  0
  144.0778  134.6265  150.6866 C   0  0  0  0  0  0  0  0  0  0  0  0
  144.4216  134.1309  149.2717 C   0  0  0  0  0  0  0  0  0  0  0  0
  144.4842  132.5942  149.1924 C   0  0  2  0  0  0  0  0  0  0  0  0
  143.1864  132.0442  149.3093 O   0  0  0  0  0  0  0  0  0  0  0  0
  145.4039  132.0060  150.2786 C   0  0  0  0  0  0  0  0  0  0  0  0
  148.2342  128.0595  150.9647 C   0  0  0  0  0  0  0  0  0  0  0  0
  149.1873  126.9059  150.0738 S   0  0  0  0  0  0  0  0  0  0  0  0
  149.2580  122.5351  150.0174 H   0  0  0  0  0  0  0  0  0  0  0  0
  149.2089  124.0464  149.1139 H   0  0  0  0  0  0  0  0  0  0  0  0
  147.7852  123.5015  149.9997 H   0  0  0  0  0  0  0  0  0  0  0  0
  149.0399  123.7864  152.1720 H   0  0  0  0  0  0  0  0  0  0  0  0
  150.4485  124.3314  151.2904 H   0  0  0  0  0  0  0  0  0  0  0  0
  145.8390  128.0089  153.0247 H   0  0  0  0  0  0  0  0  0  0  0  0
  147.1633  127.9014  154.1637 H   0  0  0  0  0  0  0  0  0  0  0  0
  145.2007  129.9815  152.4825 H   0  0  0  0  0  0  0  0  0  0  0  0
  145.6454  132.2143  153.7779 H   0  0  0  0  0  0  0  0  0  0  0  0
  146.9874  132.3266  152.6645 H   0  0  0  0  0  0  0  0  0  0  0  0
  144.0328  132.1728  151.9275 H   0  0  0  0  0  0  0  0  0  0  0  0
  144.7487  134.3940  152.7265 H   0  0  0  0  0  0  0  0  0  0  0  0
  146.0471  134.4253  151.5573 H   0  0  0  0  0  0  0  0  0  0  0  0
  143.0536  134.3458  150.9359 H   0  0  0  0  0  0  0  0  0  0  0  0
  144.1129  135.7158  150.7154 H   0  0  0  0  0  0  0  0  0  0  0  0
  143.7000  134.5188  148.5518 H   0  0  0  0  0  0  0  0  0  0  0  0
  145.3900  134.5401  148.9811 H   0  0  0  0  0  0  0  0  0  0  0  0
  144.8625  132.3035  148.2117 H   0  0  0  0  0  0  0  0  0  0  0  0
  142.5614  132.7524  149.3407 H   0  0  0  0  0  0  0  0  0  0  0  0
  146.4358  132.2799  150.0551 H   0  0  0  0  0  0  0  0  0  0  0  0
  145.3644  130.9179  150.2280 H   0  0  0  0  0  0  0  0  0  0  0  0
  148.1211  129.0678  150.5943 H   0  0  0  0  0  0  0  0  0  0  0  0
  1  2  1  0  0  0  0
  1 20  1  0  0  0  0
  1 21  1  0  0  0  0
  1 22  1  0  0  0  0
  2  3  1  0  0  0  0
  2 23  1  0  0  0  0
  2 24  1  0  0  0  0
  3 19  1  0  0  0  0
  3  4  2  0  0  0  0
  4  5  1  0  0  0  0
  5  6  1  0  0  0  0
  5 18  2  0  0  0  0
  6  7  1  0  0  0  0
  6 25  1  0  0  0  0
  6 26  1  0  0  0  0
  7  8  2  0  0  0  0
  7  9  1  0  0  0  0
  9 10  1  0  0  0  0
  9 27  1  0  0  0  0
 10 11  1  0  0  0  0
 10 28  1  0  0  0  0
 10 29  1  0  0  0  0
 11 17  1  0  0  0  0
 11 12  1  0  0  0  0
 11 30  1  0  0  0  0
 12 13  1  0  0  0  0
 12 31  1  0  0  0  0
 12 32  1  0  0  0  0
 13 14  1  0  0  0  0
 13 33  1  0  0  0  0
 13 34  1  0  0  0  0
 14 15  1  0  0  0  0
 14 35  1  0  0  0  0
 14 36  1  0  0  0  0
 15 16  1  0  0  0  0
 15 17  1  0  0  0  0
 15 37  1  0  0  0  0
 16 38  1  0  0  0  0
 17 39  1  0  0  0  0
 17 40  1  0  0  0  0
 18 19  1  0  0  0  0
 18 41  1  0  0  0  0
M  END
> <s_m_source_file>
AV-unprocessed.smi

> <i_m_source_file_index>
752

> <i_lp_mmshare_version>
43012

> <i_f3d_flags>
0

> <s_epik_input>
W0NIM11bQ0gyXWMxbmMoW2NIXXMxKVtDSDJdQyg9TylbTkhdW0NIMl1bQ0BASF0yW0NIMl1bQ0gyXVtDSDJdW0NAQEhdKFtPSF0pW0NIMl0y

> <s_epik_cmdline>
J2VwaWtfcHl0aG9uJywgJy1waCcsICc3LjAnLCAnLXRuJywgJzgnLCAnLW1hJywgJzIwMCcsICctbWV0YWxfYmluZGluZycsICctaW1hZScsICc8aW5maWxlLm1hZT4nLCAnLW9tYWUnLCAnPG91dGZpbGUubWFlPic=

> <r_lp_tautomer_probability>
1

> <r_epik_Ionization_Penalty>
5.44903e-05

> <r_epik_Ionization_Penalty_Charging>
0

> <r_epik_Ionization_Penalty_Neutral>
5.44903e-05

> <r_epik_State_Penalty>
-0

> <r_epik_Charging_Adjusted_Penalty>
0

> <i_epik_Tot_Q>
0

> <i_epik_Tot_abs_Q>
0

> <r_epik_Metal_State_Penalty>
-0

> <b_epik_Metal_Only>
0

> <s_lp_Force_Field>
OPLS_2005

> <r_lp_Energy>
4.32924

> <b_lp_Chiralities_Consistent>
1

> <s_lp_Variant>
AV-unprocessed.smi:752-4

> <Gold.Version>
5.8.1

> <Gold.Id.Protein>
6NUR|6NUR_protein|mol2

> <Gold.PLP.Fitness>
43.8346

> <Gold.PLP.PLP>
-37.0031

> <Gold.PLP.part.hbond>
-3.7311

> <Gold.PLP.part.metal>
0.0000

> <Gold.PLP.part.buried>
-2.6624

> <Gold.PLP.part.nonpolar>
-31.1098

> <Gold.PLP.part.repulsive>
0.1155

> <Gold.PLP.ligand.clash>
0.0000

> <Gold.PLP.ligand.torsion>
0.5419

> <Gold.PLP.Chemscore.Hbond>
1.6250

> <Gold.PLP.Chemscore.CHOScore>
1.0000

> <Gold.PLP.Chemscore.Metal>
0.0000

> <Gold.Chemscore.Hbonds>
donor molecule, donor type, donor heavy atom, donor atom, acceptor molecule, acceptor atom, score
      L1  H    16    38       P1 10186  0.37
      P1  H 10785 10796       L1    16  1.00
      L1  C    18    41       P1 10747  0.67

> <Gold.PLP.Chemscore.Internal.Correction>
0.0403

> <Gold.Rescore>
     Score         DG    S(hbond)    S(metal)    S(lipo)     H(rot)  DE(clash)    DE(int)     intcor
     12.88     -15.28       1.07        0.00      98.85       2.08       1.79       0.62       ----

> <Gold.Chemscore.Fitness>
12.8756

> <Gold.Chemscore.DG>
-15.2760

> <Gold.Chemscore.ZeroCoef>
-5.4800

> <Gold.Chemscore.Hbond>
1.0677

> <Gold.Chemscore.Metal>
0.0000

> <Gold.Chemscore.Lipo>
98.8462

> <Gold.Chemscore.Internal_Hbond>
0.0000

> <Gold.Chemscore.DEClash>
1.7852

> <Gold.Chemscore.DEInternal>
0.6152

> <Gold.Chemscore.Rot>
2.0840

> <Gold.Chemscore.Internal.Correction>
   9.000000E+99

> <Gold.Chemscore.Hbonds>
donor molecule, donor type, donor heavy atom, donor atom, acceptor molecule, acceptor atom, score
      L1  H    16    38       P1 10186  0.37
      P1  H 10785 10796       L1    16  0.72

> <Gold.Chemscore.Hbond.Weighted>
-3.5660

> <Gold.Chemscore.Metal.Weighted>
-0.0000

> <Gold.Chemscore.Lipo.Weighted>
-11.5650

> <Gold.Chemscore.Internal_Hbond.Weighted>
0.0000

> <Gold.Chemscore.DEClash.Weighted>
1.7852

> <Gold.Chemscore.DEInternal.Weighted>
0.6152

> <Gold.Chemscore.Rot.Weighted>
5.3350

> <Gold.Chemscore.Internal.Correction.Weighted>
   9.000000E+99

> <Gold.Protein.RotatedTorsions>
[ 6907 6896 6895 6894 ] final  176.43 input  -60.11 | X-H torsion
[ 7974 7965 7964 7962 ] final   68.90 input  175.53 | X-H torsion
[ 8008 7997 7996 7995 ] final   37.75 input   59.86 | X-H torsion
[ 10167 10162 10161 10158 ] final -161.52 input  -65.29 | X-H torsion
[ 10718 10713 10712 10709 ] final  -67.70 input   66.30 | X-H torsion
[ 10763 10752 10751 10750 ] final  -91.05 input  -60.55 | X-H torsion
[ 11005 11000 10999 10996 ] final   39.78 input  -57.11 | X-H torsion

> <Gold.Protein.ActiveResidues>
 VAL166  LYS551  ARG553  GLY616  TRP617  ASP618  TYR619  PRO620  LYS621  CYS622 
 ASP623  PHE694  ASN695  SER759  ASP760  ASP761  ALA762  ILE779  LEU786  VAL792 
 PHE793  MET794  SER795  GLU796  ALA797  LYS798  CYS799  TRP800  GLU811  SER814 

> <Gold.Protein.RotatedAtoms>
  151.7202  133.3314  159.3313 H   0  0  0  0  0  0  0  0  0  0  0  0  # atno 6907 bound_to 6896
  150.7656  134.6454  159.6269 H   0  0  0  0  0  0  0  0  0  0  0  0  # atno 6908 bound_to 6896
  152.3656  134.6811  160.0244 H   0  0  0  0  0  0  0  0  0  0  0  0  # atno 6909 bound_to 6896
  145.7969  139.2962  143.1177 H   0  0  0  0  0  0  0  0  0  0  0  0  # atno 7974 bound_to 7965
  155.2088  140.3322  155.4332 H   0  0  0  0  0  0  0  0  0  0  0  0  # atno 8008 bound_to 7997
  156.2378  140.1880  156.7120 H   0  0  0  0  0  0  0  0  0  0  0  0  # atno 8009 bound_to 7997
  154.6092  140.0611  156.9456 H   0  0  0  0  0  0  0  0  0  0  0  0  # atno 8010 bound_to 7997
  139.6459  144.0173  152.2126 H   0  0  0  0  0  0  0  0  0  0  0  0  # atno 10167 bound_to 10162
  156.0544  130.4282  150.1892 H   0  0  0  0  0  0  0  0  0  0  0  0  # atno 10718 bound_to 10713
  154.6720  135.5282  153.8151 H   0  0  0  0  0  0  0  0  0  0  0  0  # atno 10763 bound_to 10752
  153.0508  135.6531  154.0709 H   0  0  0  0  0  0  0  0  0  0  0  0  # atno 10764 bound_to 10752
  154.0607  135.2962  155.3305 H   0  0  0  0  0  0  0  0  0  0  0  0  # atno 10765 bound_to 10752
  140.1994  134.3889  155.8104 H   0  0  0  0  0  0  0  0  0  0  0  0  # atno 11005 bound_to 11000
  145.9918  140.8596  143.0062 LP  0  0  0  0  0  0  0  0  0  0  0  0  # atno 17320 bound_to 7965
  144.6774  140.2227  143.7364 LP  0  0  0  0  0  0  0  0  0  0  0  0  # atno 17321 bound_to 7965
  139.9875  144.6385  150.7845 LP  0  0  0  0  0  0  0  0  0  0  0  0  # atno 17342 bound_to 10162
  140.7514  143.2972  151.3173 LP  0  0  0  0  0  0  0  0  0  0  0  0  # atno 17343 bound_to 10162
  156.9971  130.9911  151.3400 LP  0  0  0  0  0  0  0  0  0  0  0  0  # atno 17370 bound_to 10713
  157.5500  130.8176  149.8133 LP  0  0  0  0  0  0  0  0  0  0  0  0  # atno 17371 bound_to 10713
  141.2227  133.7086  156.8232 LP  0  0  0  0  0  0  0  0  0  0  0  0  # atno 17394 bound_to 11000
  140.2071  134.8855  157.3233 LP  0  0  0  0  0  0  0  0  0  0  0  0  # atno 17395 bound_to 11000

$$$$
