AV-unprocessed.smi:3165|AV-procd|sdf|12089|dock4
  -GOLD-   2272017523D 1   1.00000     0.00000
 Structure written by MMmdl.
 37 38  0  0  0  0  0  0  0  0  1 V2000
  148.0279  141.7901  154.0824 C   0  0  0  0  0  0  0  0  0  0  0  0
  149.2283  141.4047  154.9614 C   0  0  2  0  0  0  0  0  0  0  0  0
  149.2554  139.8903  155.2909 C   0  0  0  0  0  0  0  0  0  0  0  0
  150.5526  139.2639  155.0895 N   0  0  0  0  0  0  0  0  0  0  0  0
  151.7608  139.5845  155.6729 C   0  0  0  0  0  0  0  0  0  0  0  0
  152.6939  138.7175  155.1811 C   0  0  0  0  0  0  0  0  0  0  0  0
  151.9507  137.8886  154.2952 C   0  0  0  0  0  0  0  0  0  0  0  0
  150.6696  138.2140  154.2474 N   0  0  0  0  0  0  0  0  0  0  0  0
  149.2482  142.2565  156.1561 N   0  0  0  0  0  0  0  0  0  0  0  0
  150.0999  141.7947  157.2515 C   0  0  0  0  0  0  0  0  0  0  0  0
  150.9769  142.9355  157.7860 C   0  0  2  0  0  0  0  0  0  0  0  0
  151.9718  142.4335  158.8506 C   0  0  0  0  0  0  0  0  0  0  0  0
  152.7701  143.6021  159.4395 C   0  0  0  0  0  0  0  0  0  0  0  0
  151.8082  144.6837  159.9425 C   0  0  0  0  0  0  0  0  0  0  0  0
  150.8127  145.0687  158.8369 C   0  0  0  0  0  0  0  0  0  0  0  0
  150.1219  143.9089  158.3835 O   0  0  0  0  0  0  0  0  0  0  0  0
  147.9858  141.1737  153.1841 H   0  0  0  0  0  0  0  0  0  0  0  0
  148.0960  142.8302  153.7624 H   0  0  0  0  0  0  0  0  0  0  0  0
  147.0830  141.6714  154.6134 H   0  0  0  0  0  0  0  0  0  0  0  0
  150.1246  141.6190  154.3782 H   0  0  0  0  0  0  0  0  0  0  0  0
  148.9795  139.7480  156.3363 H   0  0  0  0  0  0  0  0  0  0  0  0
  148.5052  139.3428  154.7198 H   0  0  0  0  0  0  0  0  0  0  0  0
  151.8544  140.3961  156.3794 H   0  0  0  0  0  0  0  0  0  0  0  0
  153.7465  138.6805  155.4181 H   0  0  0  0  0  0  0  0  0  0  0  0
  152.3008  137.0640  153.6920 H   0  0  0  0  0  0  0  0  0  0  0  0
  149.5070  143.2033  155.8981 H   0  0  0  0  0  0  0  0  0  0  0  0
  149.5066  141.3835  158.0678 H   0  0  0  0  0  0  0  0  0  0  0  0
  150.7416  140.9898  156.8912 H   0  0  0  0  0  0  0  0  0  0  0  0
  151.5295  143.3863  156.9593 H   0  0  0  0  0  0  0  0  0  0  0  0
  151.4293  141.9247  159.6487 H   0  0  0  0  0  0  0  0  0  0  0  0
  152.6520  141.6992  158.4180 H   0  0  0  0  0  0  0  0  0  0  0  0
  153.4109  143.2558  160.2508 H   0  0  0  0  0  0  0  0  0  0  0  0
  153.4270  144.0203  158.6757 H   0  0  0  0  0  0  0  0  0  0  0  0
  151.2616  144.3134  160.8105 H   0  0  0  0  0  0  0  0  0  0  0  0
  152.3647  145.5608  160.2732 H   0  0  0  0  0  0  0  0  0  0  0  0
  150.0849  145.7836  159.2210 H   0  0  0  0  0  0  0  0  0  0  0  0
  151.3229  145.5514  158.0021 H   0  0  0  0  0  0  0  0  0  0  0  0
  1  2  1  0  0  0  0
  1 17  1  0  0  0  0
  1 18  1  0  0  0  0
  1 19  1  0  0  0  0
  2  3  1  0  0  0  0
  2  9  1  0  0  0  0
  2 20  1  0  0  0  0
  3  4  1  0  0  0  0
  3 21  1  0  0  0  0
  3 22  1  0  0  0  0
  4  8  1  0  0  0  0
  4  5  1  0  0  0  0
  5  6  2  0  0  0  0
  5 23  1  0  0  0  0
  6  7  1  0  0  0  0
  6 24  1  0  0  0  0
  7  8  2  0  0  0  0
  7 25  1  0  0  0  0
  9 10  1  0  0  0  0
  9 26  1  0  0  0  0
 10 11  1  0  0  0  0
 10 27  1  0  0  0  0
 10 28  1  0  0  0  0
 11 16  1  0  0  0  0
 11 12  1  0  0  0  0
 11 29  1  0  0  0  0
 12 13  1  0  0  0  0
 12 30  1  0  0  0  0
 12 31  1  0  0  0  0
 13 14  1  0  0  0  0
 13 32  1  0  0  0  0
 13 33  1  0  0  0  0
 14 15  1  0  0  0  0
 14 34  1  0  0  0  0
 14 35  1  0  0  0  0
 15 16  1  0  0  0  0
 15 36  1  0  0  0  0
 15 37  1  0  0  0  0
M  END
> <s_m_source_file>
AV-unprocessed.smi

> <i_m_source_file_index>
3165

> <i_lp_mmshare_version>
43012

> <i_f3d_flags>
0

> <s_epik_input>
bjFbY0hdW2NIXVtjSF1uMVtDSDJdW0NAQEhdKFtDSDNdKVtOSF1bQ0gyXVtDQEBIXTJbQ0gyXVtDSDJdW0NIMl1bQ0gyXU8y

> <s_epik_cmdline>
J2VwaWtfcHl0aG9uJywgJy1waCcsICc3LjAnLCAnLXRuJywgJzgnLCAnLW1hJywgJzIwMCcsICctbWV0YWxfYmluZGluZycsICctaW1hZScsICc8aW5maWxlLm1hZT4nLCAnLW9tYWUnLCAnPG91dGZpbGUubWFlPic=

> <r_lp_tautomer_probability>
1

> <r_epik_Ionization_Penalty>
2.51982

> <r_epik_Ionization_Penalty_Charging>
0

> <r_epik_Ionization_Penalty_Neutral>
2.51982

> <r_epik_State_Penalty>
2.68614

> <r_epik_Charging_Adjusted_Penalty>
2.68614

> <i_epik_Tot_Q>
0

> <i_epik_Tot_abs_Q>
0

> <r_epik_Metal_State_Penalty>
2.6861

> <b_epik_Metal_Only>
0

> <s_lp_Force_Field>
OPLS_2005

> <r_lp_Energy>
14.3424

> <b_lp_Chiralities_Consistent>
1

> <s_lp_Variant>
AV-unprocessed.smi:3165-5

> <Gold.Version>
5.8.1

> <Gold.Id.Protein>
6NUR|6NUR_protein|mol2

> <Gold.PLP.Fitness>
43.1321

> <Gold.PLP.PLP>
-39.9617

> <Gold.PLP.part.hbond>
-1.0000

> <Gold.PLP.part.metal>
0.0000

> <Gold.PLP.part.buried>
-5.5707

> <Gold.PLP.part.nonpolar>
-35.3577

> <Gold.PLP.part.repulsive>
0.5442

> <Gold.PLP.ligand.clash>
0.0000

> <Gold.PLP.ligand.torsion>
1.1668

> <Gold.PLP.Chemscore.Hbond>
0.8160

> <Gold.PLP.Chemscore.CHOScore>
1.0000

> <Gold.PLP.Chemscore.Metal>
0.0000

> <Gold.Chemscore.Hbonds>
donor molecule, donor type, donor heavy atom, donor atom, acceptor molecule, acceptor atom, score
      L1  H     9    26       P1  8028  0.86
      L1  C     7    25       P1  7949  0.59

> <Gold.PLP.Chemscore.Internal.Correction>
0.0560

> <Gold.Rescore>
     Score         DG    S(hbond)    S(metal)    S(lipo)     H(rot)  DE(clash)    DE(int)     intcor
     16.10     -17.27       0.98        0.00     107.04       1.57       0.02       1.15       ----

> <Gold.Chemscore.Fitness>
16.1023

> <Gold.Chemscore.DG>
-17.2654

> <Gold.Chemscore.ZeroCoef>
-5.4800

> <Gold.Chemscore.Hbond>
0.9846

> <Gold.Chemscore.Metal>
0.0000

> <Gold.Chemscore.Lipo>
107.0442

> <Gold.Chemscore.Internal_Hbond>
0.0000

> <Gold.Chemscore.DEClash>
0.0156

> <Gold.Chemscore.DEInternal>
1.1476

> <Gold.Chemscore.Rot>
1.5731

> <Gold.Chemscore.Internal.Correction>
   9.000000E+99

> <Gold.Chemscore.Hbonds>
donor molecule, donor type, donor heavy atom, donor atom, acceptor molecule, acceptor atom, score
      L1  H     9    26       P1  8028  0.85

> <Gold.Chemscore.Hbond.Weighted>
-3.2885

> <Gold.Chemscore.Metal.Weighted>
-0.0000

> <Gold.Chemscore.Lipo.Weighted>
-12.5242

> <Gold.Chemscore.Internal_Hbond.Weighted>
0.0000

> <Gold.Chemscore.DEClash.Weighted>
0.0156

> <Gold.Chemscore.DEInternal.Weighted>
1.1476

> <Gold.Chemscore.Rot.Weighted>
4.0273

> <Gold.Chemscore.Internal.Correction.Weighted>
   9.000000E+99

> <Gold.Protein.RotatedTorsions>
[ 6907 6896 6895 6894 ] final  149.03 input  -60.11 | X-H torsion
[ 7974 7965 7964 7962 ] final  175.00 input  175.53 | X-H torsion
[ 8008 7997 7996 7995 ] final   69.21 input   59.86 | X-H torsion
[ 10167 10162 10161 10158 ] final  139.39 input  -65.29 | X-H torsion
[ 10718 10713 10712 10709 ] final  177.51 input   66.30 | X-H torsion
[ 10763 10752 10751 10750 ] final    2.05 input  -60.55 | X-H torsion
[ 11005 11000 10999 10996 ] final   45.05 input  -57.11 | X-H torsion

> <Gold.Protein.ActiveResidues>
 VAL166  LYS551  ARG553  GLY616  TRP617  ASP618  TYR619  PRO620  LYS621  CYS622 
 ASP623  PHE694  ASN695  SER759  ASP760  ASP761  ALA762  ILE779  LEU786  VAL792 
 PHE793  MET794  SER795  GLU796  ALA797  LYS798  CYS799  TRP800  GLU811  SER814 

> <Gold.Protein.RotatedAtoms>
  152.1336  133.4422  159.4732 H   0  0  0  0  0  0  0  0  0  0  0  0  # atno 6907 bound_to 6896
  150.6880  134.2391  159.4474 H   0  0  0  0  0  0  0  0  0  0  0  0  # atno 6908 bound_to 6896
  152.0277  134.9786  160.0622 H   0  0  0  0  0  0  0  0  0  0  0  0  # atno 6909 bound_to 6896
  144.7210  139.9881  143.6439 H   0  0  0  0  0  0  0  0  0  0  0  0  # atno 7974 bound_to 7965
  155.7202  140.3493  155.5012 H   0  0  0  0  0  0  0  0  0  0  0  0  # atno 8008 bound_to 7997
  155.9277  140.1078  157.1179 H   0  0  0  0  0  0  0  0  0  0  0  0  # atno 8009 bound_to 7997
  154.4080  140.1237  156.4748 H   0  0  0  0  0  0  0  0  0  0  0  0  # atno 8010 bound_to 7997
  139.5080  144.6297  151.5848 H   0  0  0  0  0  0  0  0  0  0  0  0  # atno 10167 bound_to 10162
  156.9043  130.9889  151.3031 H   0  0  0  0  0  0  0  0  0  0  0  0  # atno 10718 bound_to 10713
  153.3004  135.6955  153.7208 H   0  0  0  0  0  0  0  0  0  0  0  0  # atno 10763 bound_to 10752
  153.6125  135.3442  155.2984 H   0  0  0  0  0  0  0  0  0  0  0  0  # atno 10764 bound_to 10752
  154.8549  135.4367  154.2113 H   0  0  0  0  0  0  0  0  0  0  0  0  # atno 10765 bound_to 10752
  140.1495  134.4480  155.8392 H   0  0  0  0  0  0  0  0  0  0  0  0  # atno 11005 bound_to 11000
  146.0434  139.3442  143.0684 LP  0  0  0  0  0  0  0  0  0  0  0  0  # atno 17320 bound_to 7965
  145.8306  140.9632  143.0851 LP  0  0  0  0  0  0  0  0  0  0  0  0  # atno 17321 bound_to 7965
  140.6026  143.9583  150.6396 LP  0  0  0  0  0  0  0  0  0  0  0  0  # atno 17342 bound_to 10162
  140.2799  143.3396  152.1160 LP  0  0  0  0  0  0  0  0  0  0  0  0  # atno 17343 bound_to 10162
  157.6007  130.8510  149.8797 LP  0  0  0  0  0  0  0  0  0  0  0  0  # atno 17370 bound_to 10713
  156.0566  130.3707  150.1076 LP  0  0  0  0  0  0  0  0  0  0  0  0  # atno 17371 bound_to 10713
  141.2197  133.6866  156.7395 LP  0  0  0  0  0  0  0  0  0  0  0  0  # atno 17394 bound_to 11000
  140.2622  134.8458  157.3769 LP  0  0  0  0  0  0  0  0  0  0  0  0  # atno 17395 bound_to 11000

$$$$
