AV-unprocessed.smi:3028|AV-procd|sdf|11523|dock3
  -GOLD-   2272016463D 1   1.00000     0.00000
 Structure written by MMmdl.
 47 48  0  0  0  0  0  0  0  0  1 V2000
  154.1180  142.1111  163.2221 C   0  0  0  0  0  0  0  0  0  0  0  0
  153.4190  142.7638  162.0646 C   0  0  0  0  0  0  0  0  0  0  0  0
  152.5627  143.9004  162.0895 C   0  0  0  0  0  0  0  0  0  0  0  0
  152.1046  144.2235  160.8921 N   0  0  0  0  0  0  0  0  0  0  0  0
  152.6541  143.3132  160.0560 N   0  0  0  0  0  0  0  0  0  0  0  0
  152.3549  143.3378  158.6259 C   0  0  2  0  0  0  0  0  0  0  0  0
  152.7332  144.6853  157.9822 C   0  0  0  0  0  0  0  0  0  0  0  0
  150.9152  142.8526  158.2876 C   0  0  1  0  0  0  0  0  0  0  0  0
  149.8354  143.7439  158.9247 C   0  0  0  0  0  0  0  0  0  0  0  0
  150.6597  142.8484  156.8497 N   0  0  0  0  0  0  0  0  0  0  0  0
  150.1015  141.5816  156.3583 C   0  0  0  0  0  0  0  0  0  0  0  0
  148.6099  141.4211  156.6918 C   0  0  0  0  0  0  0  0  0  0  0  0
  148.2226  140.4684  157.3675 O   0  0  0  0  0  0  0  0  0  0  0  0
  147.7362  142.3374  156.2418 N   0  0  0  0  0  0  0  0  0  0  0  0
  146.2895  142.3714  156.4441 C   0  0  0  0  0  0  0  0  0  0  0  0
  145.6119  142.9834  155.2091 C   0  0  0  0  0  0  0  0  0  0  0  0
  144.1069  143.1782  155.4546 C   0  0  0  0  0  0  0  0  0  0  0  0
  143.9030  143.9871  156.6082 O   0  0  0  0  0  0  0  0  0  0  0  0
  144.4139  143.3954  157.7981 C   0  0  0  0  0  0  0  0  0  0  0  0
  145.9356  143.2094  157.6840 C   0  0  0  0  0  0  0  0  0  0  0  0
  153.4462  142.4164  160.7436 C   0  0  0  0  0  0  0  0  0  0  0  0
  153.6098  142.3105  164.1659 H   0  0  0  0  0  0  0  0  0  0  0  0
  155.1420  142.4700  163.3262 H   0  0  0  0  0  0  0  0  0  0  0  0
  154.1659  141.0282  163.1067 H   0  0  0  0  0  0  0  0  0  0  0  0
  152.2606  144.4960  162.9384 H   0  0  0  0  0  0  0  0  0  0  0  0
  153.0282  142.6097  158.1712 H   0  0  0  0  0  0  0  0  0  0  0  0
  152.5448  144.6734  156.9085 H   0  0  0  0  0  0  0  0  0  0  0  0
  153.7926  144.8988  158.1262 H   0  0  0  0  0  0  0  0  0  0  0  0
  152.1744  145.5172  158.4102 H   0  0  0  0  0  0  0  0  0  0  0  0
  150.7764  141.8494  158.6945 H   0  0  0  0  0  0  0  0  0  0  0  0
  149.9650  143.8051  160.0054 H   0  0  0  0  0  0  0  0  0  0  0  0
  148.8379  143.3437  158.7391 H   0  0  0  0  0  0  0  0  0  0  0  0
  149.8588  144.7602  158.5299 H   0  0  0  0  0  0  0  0  0  0  0  0
  151.5095  143.0991  156.3629 H   0  0  0  0  0  0  0  0  0  0  0  0
  150.2253  141.5199  155.2786 H   0  0  0  0  0  0  0  0  0  0  0  0
  150.6551  140.7524  156.8001 H   0  0  0  0  0  0  0  0  0  0  0  0
  148.1216  143.0983  155.7012 H   0  0  0  0  0  0  0  0  0  0  0  0
  145.8946  141.3630  156.5712 H   0  0  0  0  0  0  0  0  0  0  0  0
  146.0639  143.9490  154.9769 H   0  0  0  0  0  0  0  0  0  0  0  0
  145.7691  142.3473  154.3373 H   0  0  0  0  0  0  0  0  0  0  0  0
  143.6485  143.6684  154.5957 H   0  0  0  0  0  0  0  0  0  0  0  0
  143.6049  142.2171  155.5777 H   0  0  0  0  0  0  0  0  0  0  0  0
  144.1789  144.0444  158.6420 H   0  0  0  0  0  0  0  0  0  0  0  0
  143.9187  142.4410  157.9838 H   0  0  0  0  0  0  0  0  0  0  0  0
  146.3213  142.7388  158.5886 H   0  0  0  0  0  0  0  0  0  0  0  0
  146.4104  144.1895  157.6165 H   0  0  0  0  0  0  0  0  0  0  0  0
  153.9591  141.6102  160.2400 H   0  0  0  0  0  0  0  0  0  0  0  0
  1  2  1  0  0  0  0
  1 22  1  0  0  0  0
  1 23  1  0  0  0  0
  1 24  1  0  0  0  0
  2 21  2  0  0  0  0
  2  3  1  0  0  0  0
  3  4  2  0  0  0  0
  3 25  1  0  0  0  0
  4  5  1  0  0  0  0
  5  6  1  0  0  0  0
  5 21  1  0  0  0  0
  6  7  1  0  0  0  0
  6  8  1  0  0  0  0
  6 26  1  0  0  0  0
  7 27  1  0  0  0  0
  7 28  1  0  0  0  0
  7 29  1  0  0  0  0
  8  9  1  0  0  0  0
  8 10  1  0  0  0  0
  8 30  1  0  0  0  0
  9 31  1  0  0  0  0
  9 32  1  0  0  0  0
  9 33  1  0  0  0  0
 10 11  1  0  0  0  0
 10 34  1  0  0  0  0
 11 12  1  0  0  0  0
 11 35  1  0  0  0  0
 11 36  1  0  0  0  0
 12 13  2  0  0  0  0
 12 14  1  0  0  0  0
 14 15  1  0  0  0  0
 14 37  1  0  0  0  0
 15 20  1  0  0  0  0
 15 16  1  0  0  0  0
 15 38  1  0  0  0  0
 16 17  1  0  0  0  0
 16 39  1  0  0  0  0
 16 40  1  0  0  0  0
 17 18  1  0  0  0  0
 17 41  1  0  0  0  0
 17 42  1  0  0  0  0
 18 19  1  0  0  0  0
 19 20  1  0  0  0  0
 19 43  1  0  0  0  0
 19 44  1  0  0  0  0
 20 45  1  0  0  0  0
 20 46  1  0  0  0  0
 21 47  1  0  0  0  0
M  END
> <s_m_source_file>
AV-unprocessed.smi

> <i_m_source_file_index>
3028

> <i_lp_mmshare_version>
43012

> <i_f3d_flags>
0

> <s_epik_input>
W0NIM11jMVtjSF1ubihbY0hdMSlbQ0BIXShbQ0gzXSlbQ0BIXShbQ0gzXSlbTkhdW0NIMl1DKD1PKVtOSF1bQ0hdMltDSDJdW0NIMl1PW0NIMl1bQ0gyXTI=

> <s_epik_cmdline>
J2VwaWtfcHl0aG9uJywgJy1waCcsICc3LjAnLCAnLXRuJywgJzgnLCAnLW1hJywgJzIwMCcsICctbWV0YWxfYmluZGluZycsICctaW1hZScsICc8aW5maWxlLm1hZT4nLCAnLW9tYWUnLCAnPG91dGZpbGUubWFlPic=

> <r_lp_tautomer_probability>
1

> <r_epik_Ionization_Penalty>
0.88617

> <r_epik_Ionization_Penalty_Charging>
0

> <r_epik_Ionization_Penalty_Neutral>
0.88617

> <r_epik_State_Penalty>
0.921066

> <r_epik_Charging_Adjusted_Penalty>
0.921066

> <i_epik_Tot_Q>
0

> <i_epik_Tot_abs_Q>
0

> <r_epik_Metal_State_Penalty>
0.917309

> <b_epik_Metal_Only>
0

> <s_lp_Force_Field>
OPLS_2005

> <r_lp_Energy>
19.7658

> <b_lp_Chiralities_Consistent>
1

> <s_lp_Variant>
AV-unprocessed.smi:3028-7

> <Gold.Version>
5.8.1

> <Gold.Id.Protein>
6NUR|6NUR_protein|mol2

> <Gold.PLP.Fitness>
43.4901

> <Gold.PLP.PLP>
-42.8457

> <Gold.PLP.part.hbond>
-2.0000

> <Gold.PLP.part.metal>
0.0000

> <Gold.PLP.part.buried>
-5.4612

> <Gold.PLP.part.nonpolar>
-35.3681

> <Gold.PLP.part.repulsive>
0.2059

> <Gold.PLP.ligand.clash>
0.0000

> <Gold.PLP.ligand.torsion>
1.3208

> <Gold.PLP.Chemscore.Hbond>
0.9920

> <Gold.PLP.Chemscore.CHOScore>
0.0000

> <Gold.PLP.Chemscore.Metal>
0.0000

> <Gold.Chemscore.Hbonds>
donor molecule, donor type, donor heavy atom, donor atom, acceptor molecule, acceptor atom, score
      L1  H    14    37       P1  8028  0.99

> <Gold.PLP.Chemscore.Internal.Correction>
0.3100

> <Gold.Rescore>
     Score         DG    S(hbond)    S(metal)    S(lipo)     H(rot)  DE(clash)    DE(int)     intcor
     13.04     -15.48       0.69        0.00     107.95       1.92       0.07       2.37       ----

> <Gold.Chemscore.Fitness>
13.0400

> <Gold.Chemscore.DG>
-15.4808

> <Gold.Chemscore.ZeroCoef>
-5.4800

> <Gold.Chemscore.Hbond>
0.6867

> <Gold.Chemscore.Metal>
0.0000

> <Gold.Chemscore.Lipo>
107.9540

> <Gold.Chemscore.Internal_Hbond>
0.0000

> <Gold.Chemscore.DEClash>
0.0692

> <Gold.Chemscore.DEInternal>
2.3716

> <Gold.Chemscore.Rot>
1.9233

> <Gold.Chemscore.Internal.Correction>
   9.000000E+99

> <Gold.Chemscore.Hbonds>
donor molecule, donor type, donor heavy atom, donor atom, acceptor molecule, acceptor atom, score
      L1  H    14    37       P1  8028  0.77

> <Gold.Chemscore.Hbond.Weighted>
-2.2937

> <Gold.Chemscore.Metal.Weighted>
-0.0000

> <Gold.Chemscore.Lipo.Weighted>
-12.6306

> <Gold.Chemscore.Internal_Hbond.Weighted>
0.0000

> <Gold.Chemscore.DEClash.Weighted>
0.0692

> <Gold.Chemscore.DEInternal.Weighted>
2.3716

> <Gold.Chemscore.Rot.Weighted>
4.9235

> <Gold.Chemscore.Internal.Correction.Weighted>
   9.000000E+99

> <Gold.Protein.RotatedTorsions>
[ 6907 6896 6895 6894 ] final -151.18 input  -60.11 | X-H torsion
[ 7974 7965 7964 7962 ] final  159.50 input  175.53 | X-H torsion
[ 8008 7997 7996 7995 ] final    7.66 input   59.86 | X-H torsion
[ 10167 10162 10161 10158 ] final  160.26 input  -65.29 | X-H torsion
[ 10718 10713 10712 10709 ] final   -0.96 input   66.30 | X-H torsion
[ 10763 10752 10751 10750 ] final   -7.66 input  -60.55 | X-H torsion
[ 11005 11000 10999 10996 ] final -156.75 input  -57.11 | X-H torsion

> <Gold.Protein.ActiveResidues>
 VAL166  LYS551  ARG553  GLY616  TRP617  ASP618  TYR619  PRO620  LYS621  CYS622 
 ASP623  PHE694  ASN695  SER759  ASP760  ASP761  ALA762  ILE779  LEU786  VAL792 
 PHE793  MET794  SER795  GLU796  ALA797  LYS798  CYS799  TRP800  GLU811  SER814 

> <Gold.Protein.RotatedAtoms>
  151.2094  133.4565  159.2597 H   0  0  0  0  0  0  0  0  0  0  0  0  # atno 6907 bound_to 6896
  151.0992  134.9962  159.8450 H   0  0  0  0  0  0  0  0  0  0  0  0  # atno 6908 bound_to 6896
  152.5442  134.2021  159.8769 H   0  0  0  0  0  0  0  0  0  0  0  0  # atno 6909 bound_to 6896
  144.7787  139.7626  143.6268 H   0  0  0  0  0  0  0  0  0  0  0  0  # atno 7974 bound_to 7965
  154.7567  140.2777  155.6247 H   0  0  0  0  0  0  0  0  0  0  0  0  # atno 8008 bound_to 7997
  156.2907  140.2668  156.2262 H   0  0  0  0  0  0  0  0  0  0  0  0  # atno 8009 bound_to 7997
  155.0068  140.0372  157.2373 H   0  0  0  0  0  0  0  0  0  0  0  0  # atno 8010 bound_to 7997
  139.4838  144.4651  151.8652 H   0  0  0  0  0  0  0  0  0  0  0  0  # atno 10167 bound_to 10162
  156.8127  130.5430  149.5707 H   0  0  0  0  0  0  0  0  0  0  0  0  # atno 10718 bound_to 10713
  153.4295  135.7011  153.6240 H   0  0  0  0  0  0  0  0  0  0  0  0  # atno 10763 bound_to 10752
  153.4661  135.3725  155.2365 H   0  0  0  0  0  0  0  0  0  0  0  0  # atno 10764 bound_to 10752
  154.8725  135.4031  154.3677 H   0  0  0  0  0  0  0  0  0  0  0  0  # atno 10765 bound_to 10752
  140.6721  134.4236  157.5231 H   0  0  0  0  0  0  0  0  0  0  0  0  # atno 11005 bound_to 11000
  146.1982  139.5261  142.9760 LP  0  0  0  0  0  0  0  0  0  0  0  0  # atno 17320 bound_to 7965
  145.6112  141.0339  143.1965 LP  0  0  0  0  0  0  0  0  0  0  0  0  # atno 17321 bound_to 7965
  140.4116  144.2362  150.5889 LP  0  0  0  0  0  0  0  0  0  0  0  0  # atno 17342 bound_to 10162
  140.4961  143.2332  151.8748 LP  0  0  0  0  0  0  0  0  0  0  0  0  # atno 17343 bound_to 10162
  156.1035  130.5987  150.9932 LP  0  0  0  0  0  0  0  0  0  0  0  0  # atno 17370 bound_to 10713
  157.6497  131.0899  150.8076 LP  0  0  0  0  0  0  0  0  0  0  0  0  # atno 17371 bound_to 10713
  139.8978  134.8628  156.2028 LP  0  0  0  0  0  0  0  0  0  0  0  0  # atno 17394 bound_to 11000
  141.0384  133.6951  156.1553 LP  0  0  0  0  0  0  0  0  0  0  0  0  # atno 17395 bound_to 11000

$$$$
