AV-unprocessed.smi:3314|AV-procd|sdf|12738|dock10
  -GOLD-   2272019 83D 1   1.00000     0.00000
 Structure written by MMmdl.
 38 39  0  0  0  0  0  0  0  0  2 V2000
  153.6324  142.2969  162.4771 C   0  0  0  0  0  0  0  0  0  0  0  0
  152.9654  142.4530  161.1258 C   0  0  0  0  0  0  0  0  0  0  0  0
  152.4897  143.7535  160.6862 C   0  0  0  0  0  0  0  0  0  0  0  0
  151.9051  143.8723  159.4825 C   0  0  0  0  0  0  0  0  0  0  0  0
  151.3764  145.1847  158.9423 C   0  0  0  0  0  0  0  0  0  0  0  0
  151.7503  142.7680  158.6530 N   0  0  0  0  0  0  0  0  0  0  0  0
  152.1744  141.4758  159.0092 C   0  0  0  0  0  0  0  0  0  0  0  0
  152.0415  140.4076  158.2776 N   0  0  0  0  0  0  0  0  0  0  0  0
  151.4589  140.4263  157.0130 C   0  0  0  0  0  0  0  0  0  0  0  0
  150.4334  141.0021  156.6377 O   0  0  0  0  0  0  0  0  0  0  0  0
  152.2629  139.5765  156.0051 C   0  0  1  0  0  0  0  0  0  0  0  0
  152.3880  138.0769  156.3690 C   0  0  0  0  0  0  0  0  0  0  0  0
  151.0969  137.3700  156.1925 N   0  3  2  0  0  0  0  0  0  0  0  0
  151.1690  135.9454  156.5804 C   0  0  0  0  0  0  0  0  0  0  0  0
  150.5748  137.5624  154.8208 C   0  0  0  0  0  0  0  0  0  0  0  0
  150.4559  139.0606  154.4994 C   0  0  0  0  0  0  0  0  0  0  0  0
  151.7222  139.6924  154.6842 O   0  0  0  0  0  0  0  0  0  0  0  0
  152.8065  141.3796  160.3161 C   0  0  0  0  0  0  0  0  0  0  0  0
  153.6953  143.2519  162.9995 H   0  0  0  0  0  0  0  0  0  0  0  0
  154.6438  141.9073  162.3582 H   0  0  0  0  0  0  0  0  0  0  0  0
  153.0676  141.6040  163.1011 H   0  0  0  0  0  0  0  0  0  0  0  0
  152.6025  144.6196  161.3223 H   0  0  0  0  0  0  0  0  0  0  0  0
  150.6011  145.5776  159.6006 H   0  0  0  0  0  0  0  0  0  0  0  0
  150.9485  145.0663  157.9460 H   0  0  0  0  0  0  0  0  0  0  0  0
  152.1798  145.9194  158.8830 H   0  0  0  0  0  0  0  0  0  0  0  0
  153.2673  140.0011  155.9788 H   0  0  0  0  0  0  0  0  0  0  0  0
  153.1408  137.6109  155.7311 H   0  0  0  0  0  0  0  0  0  0  0  0
  152.7395  137.9583  157.3951 H   0  0  0  0  0  0  0  0  0  0  0  0
  151.8696  135.4003  155.9463 H   0  0  0  0  0  0  0  0  0  0  0  0
  150.1899  135.4732  156.4934 H   0  0  0  0  0  0  0  0  0  0  0  0
  151.4954  135.8456  157.6160 H   0  0  0  0  0  0  0  0  0  0  0  0
  151.2408  137.0788  154.1041 H   0  0  0  0  0  0  0  0  0  0  0  0
  149.5989  137.0851  154.7259 H   0  0  0  0  0  0  0  0  0  0  0  0
  150.1468  139.1964  153.4631 H   0  0  0  0  0  0  0  0  0  0  0  0
  149.6885  139.5309  155.1150 H   0  0  0  0  0  0  0  0  0  0  0  0
  153.1714  140.4284  160.6770 H   0  0  0  0  0  0  0  0  0  0  0  0
  151.2977  142.9411  157.7669 H   0  0  0  0  0  0  0  0  0  0  0  0
  150.4371  137.8081  156.8198 H   0  0  0  0  0  0  0  0  0  0  0  0
  1  2  1  0  0  0  0
  1 19  1  0  0  0  0
  1 20  1  0  0  0  0
  1 21  1  0  0  0  0
  2 18  2  0  0  0  0
  2  3  1  0  0  0  0
  3  4  2  0  0  0  0
  3 22  1  0  0  0  0
  4  5  1  0  0  0  0
  4  6  1  0  0  0  0
  5 23  1  0  0  0  0
  5 24  1  0  0  0  0
  5 25  1  0  0  0  0
  6  7  1  0  0  0  0
  6 37  1  0  0  0  0
  7  8  2  0  0  0  0
  7 18  1  0  0  0  0
  8  9  1  0  0  0  0
  9 10  2  0  0  0  0
  9 11  1  0  0  0  0
 11 17  1  0  0  0  0
 11 12  1  0  0  0  0
 11 26  1  0  0  0  0
 12 13  1  0  0  0  0
 12 27  1  0  0  0  0
 12 28  1  0  0  0  0
 13 14  1  0  0  0  0
 13 15  1  0  0  0  0
 13 38  1  0  0  0  0
 14 29  1  0  0  0  0
 14 30  1  0  0  0  0
 14 31  1  0  0  0  0
 15 16  1  0  0  0  0
 15 32  1  0  0  0  0
 15 33  1  0  0  0  0
 16 17  1  0  0  0  0
 16 34  1  0  0  0  0
 16 35  1  0  0  0  0
 18 36  1  0  0  0  0
M  CHG  1  13   1
M  END
> <s_m_source_file>
AV-unprocessed.smi

> <i_m_source_file_index>
3314

> <i_lp_mmshare_version>
43012

> <i_f3d_flags>
0

> <s_epik_input>
W0NIM11jMVtjSF1jKFtDSDNdKW5jKFtjSF0xKVtOSF1DKD1PKVtDQEBIXTJbQ0gyXU4oW0NIM10pW0NIMl1bQ0gyXU8y

> <s_epik_cmdline>
J2VwaWtfcHl0aG9uJywgJy1waCcsICc3LjAnLCAnLXRuJywgJzgnLCAnLW1hJywgJzIwMCcsICctbWV0YWxfYmluZGluZycsICctaW1hZScsICc8aW5maWxlLm1hZT4nLCAnLW9tYWUnLCAnPG91dGZpbGUubWFlPic=

> <r_epik_Ionization_Penalty>
0.519783

> <r_epik_Ionization_Penalty_Charging>
0.519783

> <r_epik_Ionization_Penalty_Neutral>
1.74183e-13

> <r_epik_State_Penalty>
2.39351

> <r_epik_Charging_Adjusted_Penalty>
2.91329

> <i_epik_Tot_Q>
1

> <i_epik_Tot_abs_Q>
1

> <r_epik_Metal_State_Penalty>
2.41924

> <b_epik_Metal_Only>
0

> <s_lp_Force_Field>
OPLS_2005

> <r_lp_Energy>
32.167

> <b_lp_Chiralities_Consistent>
1

> <s_lp_Variant>
AV-unprocessed.smi:3314-8

> <Gold.Version>
5.8.1

> <Gold.Id.Protein>
6NUR|6NUR_protein|mol2

> <Gold.PLP.Fitness>
40.7686

> <Gold.PLP.PLP>
-38.5193

> <Gold.PLP.part.hbond>
-1.0000

> <Gold.PLP.part.metal>
0.0000

> <Gold.PLP.part.buried>
-4.9143

> <Gold.PLP.part.nonpolar>
-32.5860

> <Gold.PLP.part.repulsive>
0.2184

> <Gold.PLP.ligand.clash>
0.0000

> <Gold.PLP.ligand.torsion>
0.3855

> <Gold.PLP.Chemscore.Hbond>
1.0000

> <Gold.PLP.Chemscore.CHOScore>
0.0000

> <Gold.PLP.Chemscore.Metal>
0.0000

> <Gold.Chemscore.Hbonds>
donor molecule, donor type, donor heavy atom, donor atom, acceptor molecule, acceptor atom, score
      P1  H  7989  7998       L1    17  1.00

> <Gold.PLP.Chemscore.Internal.Correction>
0.0203

> <Gold.Rescore>
     Score         DG    S(hbond)    S(metal)    S(lipo)     H(rot)  DE(clash)    DE(int)     intcor
     15.03     -17.76       0.95        0.00      99.56       1.00       0.08       2.64       ----

> <Gold.Chemscore.Fitness>
15.0308

> <Gold.Chemscore.DG>
-17.7583

> <Gold.Chemscore.ZeroCoef>
-5.4800

> <Gold.Chemscore.Hbond>
0.9548

> <Gold.Chemscore.Metal>
0.0000

> <Gold.Chemscore.Lipo>
99.5650

> <Gold.Chemscore.Internal_Hbond>
0.0000

> <Gold.Chemscore.DEClash>
0.0849

> <Gold.Chemscore.DEInternal>
2.6426

> <Gold.Chemscore.Rot>
1.0000

> <Gold.Chemscore.Internal.Correction>
   9.000000E+99

> <Gold.Chemscore.Hbonds>
donor molecule, donor type, donor heavy atom, donor atom, acceptor molecule, acceptor atom, score
      P1  H  7989  7998       L1    17  0.29

> <Gold.Chemscore.Hbond.Weighted>
-3.1892

> <Gold.Chemscore.Metal.Weighted>
-0.0000

> <Gold.Chemscore.Lipo.Weighted>
-11.6491

> <Gold.Chemscore.Internal_Hbond.Weighted>
0.0000

> <Gold.Chemscore.DEClash.Weighted>
0.0849

> <Gold.Chemscore.DEInternal.Weighted>
2.6426

> <Gold.Chemscore.Rot.Weighted>
2.5600

> <Gold.Chemscore.Internal.Correction.Weighted>
   9.000000E+99

> <Gold.Protein.RotatedTorsions>
[ 6907 6896 6895 6894 ] final   26.13 input  -60.11 | X-H torsion
[ 7974 7965 7964 7962 ] final  101.36 input  175.53 | X-H torsion
[ 8008 7997 7996 7995 ] final  -94.91 input   59.86 | X-H torsion
[ 10167 10162 10161 10158 ] final -101.54 input  -65.29 | X-H torsion
[ 10718 10713 10712 10709 ] final  111.15 input   66.30 | X-H torsion
[ 10763 10752 10751 10750 ] final -148.86 input  -60.55 | X-H torsion
[ 11005 11000 10999 10996 ] final  126.05 input  -57.11 | X-H torsion

> <Gold.Protein.ActiveResidues>
 VAL166  LYS551  ARG553  GLY616  TRP617  ASP618  TYR619  PRO620  LYS621  CYS622 
 ASP623  PHE694  ASN695  SER759  ASP760  ASP761  ALA762  ILE779  LEU786  VAL792 
 PHE793  MET794  SER795  GLU796  ALA797  LYS798  CYS799  TRP800  GLU811  SER814 

> <Gold.Protein.RotatedAtoms>
  151.9828  135.0019  160.0557 H   0  0  0  0  0  0  0  0  0  0  0  0  # atno 6907 bound_to 6896
  152.1680  133.4620  159.4903 H   0  0  0  0  0  0  0  0  0  0  0  0  # atno 6908 bound_to 6896
  150.6897  134.1906  159.4327 H   0  0  0  0  0  0  0  0  0  0  0  0  # atno 6909 bound_to 6896
  145.3733  139.2394  143.3443 H   0  0  0  0  0  0  0  0  0  0  0  0  # atno 7974 bound_to 7965
  154.7545  140.0485  157.0921 H   0  0  0  0  0  0  0  0  0  0  0  0  # atno 8008 bound_to 7997
  155.0015  140.3125  155.4846 H   0  0  0  0  0  0  0  0  0  0  0  0  # atno 8009 bound_to 7997
  156.2892  140.2200  156.5125 H   0  0  0  0  0  0  0  0  0  0  0  0  # atno 8010 bound_to 7997
  140.2402  143.3544  152.0809 H   0  0  0  0  0  0  0  0  0  0  0  0  # atno 10167 bound_to 10162
  157.6459  131.0945  150.6706 H   0  0  0  0  0  0  0  0  0  0  0  0  # atno 10718 bound_to 10713
  154.8210  135.3324  154.7039 H   0  0  0  0  0  0  0  0  0  0  0  0  # atno 10763 bound_to 10752
  153.7672  135.6928  153.4918 H   0  0  0  0  0  0  0  0  0  0  0  0  # atno 10764 bound_to 10752
  153.2069  135.4496  155.0283 H   0  0  0  0  0  0  0  0  0  0  0  0  # atno 10765 bound_to 10752
  139.9437  134.9632  156.8649 H   0  0  0  0  0  0  0  0  0  0  0  0  # atno 11005 bound_to 11000
  146.2875  140.4388  142.8752 LP  0  0  0  0  0  0  0  0  0  0  0  0  # atno 17320 bound_to 7965
  144.8560  140.7071  143.6137 LP  0  0  0  0  0  0  0  0  0  0  0  0  # atno 17321 bound_to 7965
  139.5080  144.6842  151.5930 LP  0  0  0  0  0  0  0  0  0  0  0  0  # atno 17342 bound_to 10162
  140.6119  143.9419  150.6460 LP  0  0  0  0  0  0  0  0  0  0  0  0  # atno 17343 bound_to 10162
  156.7023  130.4627  149.5569 LP  0  0  0  0  0  0  0  0  0  0  0  0  # atno 17370 bound_to 10713
  156.1786  130.6484  151.0925 LP  0  0  0  0  0  0  0  0  0  0  0  0  # atno 17371 bound_to 10713
  140.5888  134.0281  155.7492 LP  0  0  0  0  0  0  0  0  0  0  0  0  # atno 17394 bound_to 11000
  141.1080  133.9662  157.2962 LP  0  0  0  0  0  0  0  0  0  0  0  0  # atno 17395 bound_to 11000

$$$$
