AV-unprocessed.smi:1768|AV-procd|sdf|7149|dock2
  -GOLD-   22720 8383D 1   1.00000     0.00000
 Structure written by MMmdl.
 32 33  0  0  0  0  0  0  0  0  2 V2000
  145.8183  141.6882  155.9527 C   0  0  0  0  0  0  0  0  0  0  0  0
  147.1552  141.3791  155.3717 C   0  0  0  0  0  0  0  0  0  0  0  0
  147.4838  141.6850  154.1142 N   0  0  0  0  0  0  0  0  0  0  0  0
  148.7811  141.3018  153.8055 N   0  0  0  0  0  0  0  0  0  0  0  0
  149.4173  140.7223  154.8335 C   0  0  0  0  0  0  0  0  0  0  0  0
  150.6820  140.2792  154.7390 N   0  5  0  0  0  0  0  0  0  0  0  0
  151.3966  140.0305  155.8603 C   0  0  0  0  0  0  0  0  0  0  0  0
  152.0413  139.0075  156.1033 O   0  0  0  0  0  0  0  0  0  0  0  0
  151.3605  141.0282  156.7553 N   0  0  0  0  0  0  0  0  0  0  0  0
  152.0365  141.0518  158.0508 C   0  0  2  0  0  0  0  0  0  0  0  0
  151.6870  139.7774  158.8398 C   0  0  0  0  0  0  0  0  0  0  0  0
  151.6334  142.3333  158.8052 C   0  0  1  0  0  0  0  0  0  0  0  0
  152.5363  142.6937  159.9868 C   0  0  0  0  0  0  0  0  0  0  0  0
  152.3830  144.2019  160.1148 C   0  0  0  0  0  0  0  0  0  0  0  0
  151.7126  144.6220  158.8046 C   0  0  0  0  0  0  0  0  0  0  0  0
  151.7792  143.4738  157.9722 O   0  0  0  0  0  0  0  0  0  0  0  0
  148.4263  140.5848  156.2857 S   0  0  0  0  0  0  0  0  0  0  0  0
  145.7649  142.7431  156.2224 H   0  0  0  0  0  0  0  0  0  0  0  0
  145.6461  141.0884  156.8465 H   0  0  0  0  0  0  0  0  0  0  0  0
  145.0325  141.4692  155.2294 H   0  0  0  0  0  0  0  0  0  0  0  0
  150.8233  141.8468  156.5103 H   0  0  0  0  0  0  0  0  0  0  0  0
  153.1156  141.0782  157.8891 H   0  0  0  0  0  0  0  0  0  0  0  0
  152.2038  139.7488  159.7989 H   0  0  0  0  0  0  0  0  0  0  0  0
  151.9774  138.8809  158.2911 H   0  0  0  0  0  0  0  0  0  0  0  0
  150.6162  139.7143  159.0357 H   0  0  0  0  0  0  0  0  0  0  0  0
  150.5952  142.2708  159.1380 H   0  0  0  0  0  0  0  0  0  0  0  0
  152.2648  142.1633  160.8999 H   0  0  0  0  0  0  0  0  0  0  0  0
  153.5748  142.4530  159.7548 H   0  0  0  0  0  0  0  0  0  0  0  0
  151.7615  144.4718  160.9691 H   0  0  0  0  0  0  0  0  0  0  0  0
  153.3544  144.6809  160.2412 H   0  0  0  0  0  0  0  0  0  0  0  0
  150.6667  144.8810  158.9748 H   0  0  0  0  0  0  0  0  0  0  0  0
  152.2033  145.4755  158.3364 H   0  0  0  0  0  0  0  0  0  0  0  0
  1  2  1  0  0  0  0
  1 18  1  0  0  0  0
  1 19  1  0  0  0  0
  1 20  1  0  0  0  0
  2 17  1  0  0  0  0
  2  3  2  0  0  0  0
  3  4  1  0  0  0  0
  4  5  2  0  0  0  0
  5  6  1  0  0  0  0
  5 17  1  0  0  0  0
  6  7  1  0  0  0  0
  7  8  2  0  0  0  0
  7  9  1  0  0  0  0
  9 10  1  0  0  0  0
  9 21  1  0  0  0  0
 10 11  1  0  0  0  0
 10 12  1  0  0  0  0
 10 22  1  0  0  0  0
 11 23  1  0  0  0  0
 11 24  1  0  0  0  0
 11 25  1  0  0  0  0
 12 16  1  0  0  0  0
 12 13  1  0  0  0  0
 12 26  1  0  0  0  0
 13 14  1  0  0  0  0
 13 27  1  0  0  0  0
 13 28  1  0  0  0  0
 14 15  1  0  0  0  0
 14 29  1  0  0  0  0
 14 30  1  0  0  0  0
 15 16  1  0  0  0  0
 15 31  1  0  0  0  0
 15 32  1  0  0  0  0
M  CHG  1   6  -1
M  END
> <s_m_source_file>
AV-unprocessed.smi

> <i_m_source_file_index>
1768

> <i_lp_mmshare_version>
43012

> <i_f3d_flags>
0

> <s_epik_input>
W0NIM11jMW5uYyhzMSlbTkhdQyg9TylbTkhdW0NASF0oW0NIM10pW0NAQEhdMltDSDJdW0NIMl1bQ0gyXU8y

> <s_epik_cmdline>
J2VwaWtfcHl0aG9uJywgJy1waCcsICc3LjAnLCAnLXRuJywgJzgnLCAnLW1hJywgJzIwMCcsICctbWV0YWxfYmluZGluZycsICctaW1hZScsICc8aW5maWxlLm1hZT4nLCAnLW9tYWUnLCAnPG91dGZpbGUubWFlPic=

> <r_lp_tautomer_probability>
1

> <r_epik_Ionization_Penalty>
4.3376

> <r_epik_Ionization_Penalty_Charging>
4.19392

> <r_epik_Ionization_Penalty_Neutral>
0.143681

> <r_epik_State_Penalty>
4.19342

> <r_epik_Charging_Adjusted_Penalty>
8.38735

> <i_epik_Tot_Q>
-1

> <i_epik_Tot_abs_Q>
1

> <r_epik_Metal_State_Penalty>
0.686065

> <b_epik_Metal_Only>
1

> <s_lp_Force_Field>
OPLS_2005

> <r_lp_Energy>
16.4236

> <b_lp_Chiralities_Consistent>
1

> <s_lp_Variant>
AV-unprocessed.smi:1768-7

> <Gold.Version>
5.8.1

> <Gold.Id.Protein>
6NUR|6NUR_protein|mol2

> <Gold.PLP.Fitness>
35.2302

> <Gold.PLP.PLP>
-31.2919

> <Gold.PLP.part.hbond>
-2.4428

> <Gold.PLP.part.metal>
0.0000

> <Gold.PLP.part.buried>
-6.3599

> <Gold.PLP.part.nonpolar>
-24.0806

> <Gold.PLP.part.repulsive>
1.2911

> <Gold.PLP.ligand.clash>
0.0000

> <Gold.PLP.ligand.torsion>
0.7012

> <Gold.PLP.Chemscore.Hbond>
1.7680

> <Gold.PLP.Chemscore.CHOScore>
0.0000

> <Gold.PLP.Chemscore.Metal>
0.0000

> <Gold.Chemscore.Hbonds>
donor molecule, donor type, donor heavy atom, donor atom, acceptor molecule, acceptor atom, score
      P1  H  7989  7998       L1     6  1.00
      P1  H  8011  8017       L1     4  0.65

> <Gold.PLP.Chemscore.Internal.Correction>
0.0367

> <Gold.Rescore>
     Score         DG    S(hbond)    S(metal)    S(lipo)     H(rot)  DE(clash)    DE(int)     intcor
     12.78     -15.26       1.67        0.00      63.91       1.28       0.28       2.19       ----

> <Gold.Chemscore.Fitness>
12.7843

> <Gold.Chemscore.DG>
-15.2588

> <Gold.Chemscore.ZeroCoef>
-5.4800

> <Gold.Chemscore.Hbond>
1.6681

> <Gold.Chemscore.Metal>
0.0000

> <Gold.Chemscore.Lipo>
63.9133

> <Gold.Chemscore.Internal_Hbond>
0.0000

> <Gold.Chemscore.DEClash>
0.2813

> <Gold.Chemscore.DEInternal>
2.1932

> <Gold.Chemscore.Rot>
1.2776

> <Gold.Chemscore.Internal.Correction>
   9.000000E+99

> <Gold.Chemscore.Hbonds>
donor molecule, donor type, donor heavy atom, donor atom, acceptor molecule, acceptor atom, score
      P1  H  7989  7998       L1     6  0.81
      P1  H  8011  8017       L1     4  0.60

> <Gold.Chemscore.Hbond.Weighted>
-5.5715

> <Gold.Chemscore.Metal.Weighted>
-0.0000

> <Gold.Chemscore.Lipo.Weighted>
-7.4779

> <Gold.Chemscore.Internal_Hbond.Weighted>
0.0000

> <Gold.Chemscore.DEClash.Weighted>
0.2813

> <Gold.Chemscore.DEInternal.Weighted>
2.1932

> <Gold.Chemscore.Rot.Weighted>
3.2706

> <Gold.Chemscore.Internal.Correction.Weighted>
   9.000000E+99

> <Gold.Protein.RotatedTorsions>
[ 6907 6896 6895 6894 ] final   57.03 input  -60.11 | X-H torsion
[ 7974 7965 7964 7962 ] final   94.33 input  175.53 | X-H torsion
[ 8008 7997 7996 7995 ] final  -26.58 input   59.86 | X-H torsion
[ 10167 10162 10161 10158 ] final  173.75 input  -65.29 | X-H torsion
[ 10718 10713 10712 10709 ] final   99.39 input   66.30 | X-H torsion
[ 10763 10752 10751 10750 ] final   91.56 input  -60.55 | X-H torsion
[ 11005 11000 10999 10996 ] final -149.15 input  -57.11 | X-H torsion

> <Gold.Protein.ActiveResidues>
 VAL166  LYS551  ARG553  GLY616  TRP617  ASP618  TYR619  PRO620  LYS621  CYS622 
 ASP623  PHE694  ASN695  SER759  ASP760  ASP761  ALA762  ILE779  LEU786  VAL792 
 PHE793  MET794  SER795  GLU796  ALA797  LYS798  CYS799  TRP800  GLU811  SER814 

> <Gold.Protein.RotatedAtoms>
  152.3693  134.6758  160.0181 H   0  0  0  0  0  0  0  0  0  0  0  0  # atno 6907 bound_to 6896
  151.7056  133.3306  159.3285 H   0  0  0  0  0  0  0  0  0  0  0  0  # atno 6908 bound_to 6896
  150.7661  134.6512  159.6334 H   0  0  0  0  0  0  0  0  0  0  0  0  # atno 6909 bound_to 6896
  145.4670  139.2284  143.2956 H   0  0  0  0  0  0  0  0  0  0  0  0  # atno 7974 bound_to 7965
  154.4418  140.1895  156.0798 H   0  0  0  0  0  0  0  0  0  0  0  0  # atno 8008 bound_to 7997
  156.0447  140.3315  155.7257 H   0  0  0  0  0  0  0  0  0  0  0  0  # atno 8009 bound_to 7997
  155.5646  140.0607  157.2811 H   0  0  0  0  0  0  0  0  0  0  0  0  # atno 8010 bound_to 7997
  139.5119  144.3225  152.0189 H   0  0  0  0  0  0  0  0  0  0  0  0  # atno 10167 bound_to 10162
  157.6877  131.0668  150.4942 H   0  0  0  0  0  0  0  0  0  0  0  0  # atno 10718 bound_to 10713
  153.2096  135.4393  155.0364 H   0  0  0  0  0  0  0  0  0  0  0  0  # atno 10763 bound_to 10752
  154.8193  135.3330  154.7088 H   0  0  0  0  0  0  0  0  0  0  0  0  # atno 10764 bound_to 10752
  153.7527  135.6997  153.4998 H   0  0  0  0  0  0  0  0  0  0  0  0  # atno 10765 bound_to 10752
  140.7538  134.3377  157.5119 H   0  0  0  0  0  0  0  0  0  0  0  0  # atno 11005 bound_to 11000
  146.2419  140.5444  142.8930 LP  0  0  0  0  0  0  0  0  0  0  0  0  # atno 17320 bound_to 7965
  144.7968  140.6138  143.6504 LP  0  0  0  0  0  0  0  0  0  0  0  0  # atno 17321 bound_to 7965
  140.2666  144.4009  150.6166 LP  0  0  0  0  0  0  0  0  0  0  0  0  # atno 17342 bound_to 10162
  140.6119  143.2170  151.6870 LP  0  0  0  0  0  0  0  0  0  0  0  0  # atno 17343 bound_to 10162
  156.5267  130.4175  149.6223 LP  0  0  0  0  0  0  0  0  0  0  0  0  # atno 17370 bound_to 10713
  156.3106  130.7227  151.2118 LP  0  0  0  0  0  0  0  0  0  0  0  0  # atno 17371 bound_to 10713
  139.8783  134.9158  156.3141 LP  0  0  0  0  0  0  0  0  0  0  0  0  # atno 17394 bound_to 11000
  140.9727  133.7317  156.0557 LP  0  0  0  0  0  0  0  0  0  0  0  0  # atno 17395 bound_to 11000

$$$$
