AV-unprocessed.smi:464|AV-procd|sdf|2636|dock1
  -GOLD-   2262023 43D 1   1.00000     0.00000
 Structure written by MMmdl.
 25 26  0  0  0  0  0  0  0  0  1 V2000
  151.7302  137.2857  154.4954 O   0  0  0  0  0  0  0  0  0  0  0  0
  151.6342  138.2341  155.2701 C   0  0  0  0  0  0  0  0  0  0  0  0
  150.6247  139.1886  155.1385 N   0  0  0  0  0  0  0  0  0  0  0  0
  150.5289  140.2482  156.0156 C   0  0  0  0  0  0  0  0  0  0  0  0
  151.3960  140.4273  157.0439 C   0  0  0  0  0  0  0  0  0  0  0  0
  151.2935  141.4965  157.9195 N   0  0  0  0  0  0  0  0  0  0  0  0
  150.9271  142.8407  157.4970 C   0  0  0  0  0  0  0  0  0  0  0  0
  152.0782  143.8191  157.7904 C   0  0  0  0  0  0  0  0  0  0  0  0
  152.4214  143.7512  159.1719 O   0  0  0  0  0  0  0  0  0  0  0  0
  152.8561  142.4493  159.5554 C   0  0  0  0  0  0  0  0  0  0  0  0
  151.7256  141.4346  159.3086 C   0  0  0  0  0  0  0  0  0  0  0  0
  152.4881  139.4643  157.2501 C   0  0  0  0  0  0  0  0  0  0  0  0
  153.3329  139.5188  158.1427 O   0  0  0  0  0  0  0  0  0  0  0  0
  152.5282  138.4126  156.3262 N   0  0  0  0  0  0  0  0  0  0  0  0
  149.9654  139.0823  154.3810 H   0  0  0  0  0  0  0  0  0  0  0  0
  153.2635  137.7292  156.4337 H   0  0  0  0  0  0  0  0  0  0  0  0
  149.7267  140.9564  155.8646 H   0  0  0  0  0  0  0  0  0  0  0  0
  150.6874  142.8506  156.4329 H   0  0  0  0  0  0  0  0  0  0  0  0
  150.0247  143.1468  158.0279 H   0  0  0  0  0  0  0  0  0  0  0  0
  152.9512  143.5907  157.1771 H   0  0  0  0  0  0  0  0  0  0  0  0
  151.7772  144.8382  157.5482 H   0  0  0  0  0  0  0  0  0  0  0  0
  153.7541  142.1766  158.9988 H   0  0  0  0  0  0  0  0  0  0  0  0
  153.1275  142.4615  160.6110 H   0  0  0  0  0  0  0  0  0  0  0  0
  150.8745  141.6497  159.9559 H   0  0  0  0  0  0  0  0  0  0  0  0
  152.0644  140.4273  159.5547 H   0  0  0  0  0  0  0  0  0  0  0  0
  1  2  2  0  0  0  0
  2 14  1  0  0  0  0
  2  3  1  0  0  0  0
  3 15  1  0  0  0  0
  3  4  1  0  0  0  0
  4  5  2  0  0  0  0
  4 17  1  0  0  0  0
  5  6  1  0  0  0  0
  5 12  1  0  0  0  0
  6 11  1  0  0  0  0
  6  7  1  0  0  0  0
  7  8  1  0  0  0  0
  7 18  1  0  0  0  0
  7 19  1  0  0  0  0
  8  9  1  0  0  0  0
  8 20  1  0  0  0  0
  8 21  1  0  0  0  0
  9 10  1  0  0  0  0
 10 11  1  0  0  0  0
 10 22  1  0  0  0  0
 10 23  1  0  0  0  0
 11 24  1  0  0  0  0
 11 25  1  0  0  0  0
 12 13  2  0  0  0  0
 12 14  1  0  0  0  0
 14 16  1  0  0  0  0
M  END
> <s_m_source_file>
AV-unprocessed.smi

> <i_m_source_file_index>
464

> <i_lp_mmshare_version>
43012

> <i_f3d_flags>
0

> <s_epik_input>
Tz1jMVtuSF1bY0hdYyhjKD1PKVtuSF0xKU4yW0NIMl1bQ0gyXU9bQ0gyXVtDSDJdMg==

> <s_epik_cmdline>
J2VwaWtfcHl0aG9uJywgJy1waCcsICc3LjAnLCAnLXRuJywgJzgnLCAnLW1hJywgJzIwMCcsICctbWV0YWxfYmluZGluZycsICctaW1hZScsICc8aW5maWxlLm1hZT4nLCAnLW9tYWUnLCAnPG91dGZpbGUubWFlPic=

> <r_lp_tautomer_probability>
0.999801

> <r_epik_Ionization_Penalty>
0.0101854

> <r_epik_Ionization_Penalty_Charging>
0.0101853

> <r_epik_Ionization_Penalty_Neutral>
7.32569e-08

> <r_epik_State_Penalty>
0.00491364

> <r_epik_Charging_Adjusted_Penalty>
0.015099

> <i_epik_Tot_Q>
0

> <i_epik_Tot_abs_Q>
0

> <r_epik_Metal_State_Penalty>
1.54201

> <b_epik_Metal_Only>
0

> <s_lp_Force_Field>
OPLS_2005

> <r_lp_Energy>
18.7327

> <b_lp_Chiralities_Consistent>
1

> <s_lp_Variant>
AV-unprocessed.smi:464-1

> <Gold.Version>
5.8.1

> <Gold.Id.Protein>
6NUR|6NUR_protein|mol2

> <Gold.PLP.Fitness>
30.8490

> <Gold.PLP.PLP>
-25.5197

> <Gold.PLP.part.hbond>
-2.0000

> <Gold.PLP.part.metal>
0.0000

> <Gold.PLP.part.buried>
-3.0994

> <Gold.PLP.part.nonpolar>
-20.9367

> <Gold.PLP.part.repulsive>
0.4590

> <Gold.PLP.ligand.clash>
0.0000

> <Gold.PLP.ligand.torsion>
0.4778

> <Gold.PLP.Chemscore.Hbond>
1.9199

> <Gold.PLP.Chemscore.CHOScore>
0.0000

> <Gold.PLP.Chemscore.Metal>
0.0000

> <Gold.Chemscore.Hbonds>
donor molecule, donor type, donor heavy atom, donor atom, acceptor molecule, acceptor atom, score
      P1  H  7997  8008       L1    13  1.00
      P1  H 10752 10765       L1     1  0.96

> <Gold.PLP.Chemscore.Internal.Correction>
0.5253

> <Gold.Rescore>
     Score         DG    S(hbond)    S(metal)    S(lipo)     H(rot)  DE(clash)    DE(int)     intcor
     14.36     -16.59       1.52        0.00      51.54       0.00       0.32       1.91       ----

> <Gold.Chemscore.Fitness>
14.3609

> <Gold.Chemscore.DG>
-16.5926

> <Gold.Chemscore.ZeroCoef>
-5.4800

> <Gold.Chemscore.Hbond>
1.5215

> <Gold.Chemscore.Metal>
0.0000

> <Gold.Chemscore.Lipo>
51.5441

> <Gold.Chemscore.Internal_Hbond>
0.0000

> <Gold.Chemscore.DEClash>
0.3226

> <Gold.Chemscore.DEInternal>
1.9091

> <Gold.Chemscore.Rot>
0.0000

> <Gold.Chemscore.Internal.Correction>
   9.000000E+99

> <Gold.Chemscore.Hbonds>
donor molecule, donor type, donor heavy atom, donor atom, acceptor molecule, acceptor atom, score
      P1  H  7997  8008       L1    13  0.25
      P1  H 10752 10765       L1     1  0.86

> <Gold.Chemscore.Hbond.Weighted>
-5.0819

> <Gold.Chemscore.Metal.Weighted>
-0.0000

> <Gold.Chemscore.Lipo.Weighted>
-6.0307

> <Gold.Chemscore.Internal_Hbond.Weighted>
0.0000

> <Gold.Chemscore.DEClash.Weighted>
0.3226

> <Gold.Chemscore.DEInternal.Weighted>
1.9091

> <Gold.Chemscore.Rot.Weighted>
0.0000

> <Gold.Chemscore.Internal.Correction.Weighted>
   9.000000E+99

> <Gold.Protein.RotatedTorsions>
[ 6907 6896 6895 6894 ] final  -50.07 input  -60.11 | X-H torsion
[ 7974 7965 7964 7962 ] final  118.58 input  175.53 | X-H torsion
[ 8008 7997 7996 7995 ] final -100.79 input   59.86 | X-H torsion
[ 10167 10162 10161 10158 ] final   30.65 input  -65.29 | X-H torsion
[ 10718 10713 10712 10709 ] final   80.40 input   66.30 | X-H torsion
[ 10763 10752 10751 10750 ] final  154.06 input  -60.55 | X-H torsion
[ 11005 11000 10999 10996 ] final -150.53 input  -57.11 | X-H torsion

> <Gold.Protein.ActiveResidues>
 VAL166  LYS551  ARG553  GLY616  TRP617  ASP618  TYR619  PRO620  LYS621  CYS622 
 ASP623  PHE694  ASN695  SER759  ASP760  ASP761  ALA762  ILE779  LEU786  VAL792 
 PHE793  MET794  SER795  GLU796  ALA797  LYS798  CYS799  TRP800  GLU811  SER814 

> <Gold.Protein.RotatedAtoms>
  150.8743  134.8123  159.7177 H   0  0  0  0  0  0  0  0  0  0  0  0  # atno 6907 bound_to 6896
  152.4736  134.4896  159.9701 H   0  0  0  0  0  0  0  0  0  0  0  0  # atno 6908 bound_to 6896
  151.4980  133.3472  159.2900 H   0  0  0  0  0  0  0  0  0  0  0  0  # atno 6909 bound_to 6896
  145.1535  139.3196  143.4554 H   0  0  0  0  0  0  0  0  0  0  0  0  # atno 7974 bound_to 7965
  154.8335  140.0438  157.1493 H   0  0  0  0  0  0  0  0  0  0  0  0  # atno 8008 bound_to 7997
  154.9126  140.3015  155.5238 H   0  0  0  0  0  0  0  0  0  0  0  0  # atno 8009 bound_to 7997
  156.2988  140.2355  156.4167 H   0  0  0  0  0  0  0  0  0  0  0  0  # atno 8010 bound_to 7997
  140.4659  144.0837  150.6224 H   0  0  0  0  0  0  0  0  0  0  0  0  # atno 10167 bound_to 10162
  157.6805  130.9958  150.2074 H   0  0  0  0  0  0  0  0  0  0  0  0  # atno 10718 bound_to 10713
  154.1462  135.2818  155.3148 H   0  0  0  0  0  0  0  0  0  0  0  0  # atno 10763 bound_to 10752
  154.6251  135.5454  153.7621 H   0  0  0  0  0  0  0  0  0  0  0  0  # atno 10764 bound_to 10752
  153.0235  135.6448  154.1607 H   0  0  0  0  0  0  0  0  0  0  0  0  # atno 10765 bound_to 10752
  140.7392  134.3533  157.5151 H   0  0  0  0  0  0  0  0  0  0  0  0  # atno 11005 bound_to 11000
  146.3491  140.1618  142.8590 LP  0  0  0  0  0  0  0  0  0  0  0  0  # atno 17320 bound_to 7965
  145.0406  140.8942  143.5055 LP  0  0  0  0  0  0  0  0  0  0  0  0  # atno 17321 bound_to 7965
  140.4037  143.2691  151.9917 LP  0  0  0  0  0  0  0  0  0  0  0  0  # atno 17342 bound_to 10162
  139.4812  144.5975  151.7664 LP  0  0  0  0  0  0  0  0  0  0  0  0  # atno 17343 bound_to 10162
  156.2752  130.3726  149.7991 LP  0  0  0  0  0  0  0  0  0  0  0  0  # atno 17370 bound_to 10713
  156.5696  130.8419  151.3352 LP  0  0  0  0  0  0  0  0  0  0  0  0  # atno 17371 bound_to 10713
  139.8809  134.9070  156.2935 LP  0  0  0  0  0  0  0  0  0  0  0  0  # atno 17394 bound_to 11000
  140.9851  133.7243  156.0730 LP  0  0  0  0  0  0  0  0  0  0  0  0  # atno 17395 bound_to 11000

$$$$
