AV-unprocessed.smi:487|AV-procd|sdf|2700|dock3
  -GOLD-   2262023133D 1   1.00000     0.00000
 Structure written by MMmdl.
 40 41  0  0  0  0  0  0  0  0  2 V2000
  149.1348  140.2748  157.3851 O   0  0  0  0  0  0  0  0  0  0  0  0
  149.1017  141.1907  156.5635 C   0  0  0  0  0  0  0  0  0  0  0  0
  148.2361  141.0317  155.3014 C   0  0  0  0  0  0  0  0  0  0  0  0
  147.1209  141.9900  155.1885 N   0  0  0  0  0  0  0  0  0  0  0  0
  146.9233  142.6128  153.9435 C   0  0  0  0  0  0  0  0  0  0  0  0
  145.9377  143.5087  153.7454 C   0  0  0  0  0  0  0  0  0  0  0  0
  145.0608  143.8288  154.8647 C   0  0  0  0  0  0  0  0  0  0  0  0
  144.1548  144.6439  154.7021 O   0  0  0  0  0  0  0  0  0  0  0  0
  145.2940  143.1996  156.0536 N   0  5  0  0  0  0  0  0  0  0  0  0
  146.3018  142.2921  156.2412 C   0  0  0  0  0  0  0  0  0  0  0  0
  146.5020  141.7444  157.3254 O   0  0  0  0  0  0  0  0  0  0  0  0
  149.7977  142.3310  156.7139 N   0  0  0  0  0  0  0  0  0  0  0  0
  150.6611  142.6726  157.8413 C   0  0  0  0  0  0  0  0  0  0  0  0
  151.4085  143.9919  157.5365 C   0  0  0  0  0  0  0  0  0  0  0  0
  151.2086  145.1062  158.5820 C   0  0  0  0  0  0  0  0  0  0  0  0
  151.2880  144.7123  160.0719 C   0  0  0  0  0  0  0  0  0  0  0  0
  152.5381  143.9286  160.5086 C   0  0  0  0  0  0  0  0  0  0  0  0
  152.4050  142.3906  160.4621 C   0  0  0  0  0  0  0  0  0  0  0  0
  152.7717  141.7422  159.1159 C   0  0  0  0  0  0  0  0  0  0  0  0
  151.6053  141.4856  158.1392 C   0  0  0  0  0  0  0  0  0  0  0  0
  148.8896  141.1191  154.4325 H   0  0  0  0  0  0  0  0  0  0  0  0
  147.8597  140.0079  155.2671 H   0  0  0  0  0  0  0  0  0  0  0  0
  147.6195  142.3248  153.1696 H   0  0  0  0  0  0  0  0  0  0  0  0
  145.8012  143.9802  152.7833 H   0  0  0  0  0  0  0  0  0  0  0  0
  149.7025  143.0294  155.9903 H   0  0  0  0  0  0  0  0  0  0  0  0
  150.0108  142.8183  158.7027 H   0  0  0  0  0  0  0  0  0  0  0  0
  152.4735  143.8092  157.4046 H   0  0  0  0  0  0  0  0  0  0  0  0
  151.0921  144.3911  156.5713 H   0  0  0  0  0  0  0  0  0  0  0  0
  151.9368  145.8934  158.3839 H   0  0  0  0  0  0  0  0  0  0  0  0
  150.2333  145.5640  158.4122 H   0  0  0  0  0  0  0  0  0  0  0  0
  151.2643  145.6423  160.6408 H   0  0  0  0  0  0  0  0  0  0  0  0
  150.3880  144.1831  160.3842 H   0  0  0  0  0  0  0  0  0  0  0  0
  153.4214  144.2684  159.9666 H   0  0  0  0  0  0  0  0  0  0  0  0
  152.7247  144.1933  161.5500 H   0  0  0  0  0  0  0  0  0  0  0  0
  153.1033  141.9950  161.2009 H   0  0  0  0  0  0  0  0  0  0  0  0
  151.4203  142.0647  160.7992 H   0  0  0  0  0  0  0  0  0  0  0  0
  153.5646  142.3119  158.6318 H   0  0  0  0  0  0  0  0  0  0  0  0
  153.2242  140.7722  159.3245 H   0  0  0  0  0  0  0  0  0  0  0  0
  151.0078  140.6580  158.5237 H   0  0  0  0  0  0  0  0  0  0  0  0
  152.0333  141.1251  157.2025 H   0  0  0  0  0  0  0  0  0  0  0  0
  1  2  2  0  0  0  0
  2  3  1  0  0  0  0
  2 12  1  0  0  0  0
  3  4  1  0  0  0  0
  3 21  1  0  0  0  0
  3 22  1  0  0  0  0
  4 10  1  0  0  0  0
  4  5  1  0  0  0  0
  5  6  2  0  0  0  0
  5 23  1  0  0  0  0
  6  7  1  0  0  0  0
  6 24  1  0  0  0  0
  7  8  2  0  0  0  0
  7  9  1  0  0  0  0
  9 10  1  0  0  0  0
 10 11  2  0  0  0  0
 12 13  1  0  0  0  0
 12 25  1  0  0  0  0
 13 20  1  0  0  0  0
 13 14  1  0  0  0  0
 13 26  1  0  0  0  0
 14 15  1  0  0  0  0
 14 27  1  0  0  0  0
 14 28  1  0  0  0  0
 15 16  1  0  0  0  0
 15 29  1  0  0  0  0
 15 30  1  0  0  0  0
 16 17  1  0  0  0  0
 16 31  1  0  0  0  0
 16 32  1  0  0  0  0
 17 18  1  0  0  0  0
 17 33  1  0  0  0  0
 17 34  1  0  0  0  0
 18 19  1  0  0  0  0
 18 35  1  0  0  0  0
 18 36  1  0  0  0  0
 19 20  1  0  0  0  0
 19 37  1  0  0  0  0
 19 38  1  0  0  0  0
 20 39  1  0  0  0  0
 20 40  1  0  0  0  0
M  CHG  1   9  -1
M  END
> <s_m_source_file>
AV-unprocessed.smi

> <i_m_source_file_index>
487

> <i_lp_mmshare_version>
43012

> <i_f3d_flags>
0

> <s_epik_input>
Tz1jMVtuSF1jKD1PKVtjSF1bY0hdbjFbQ0gyXUMoPU8pW05IXVtDSF0yW0NIMl1bQ0gyXVtDSDJdW0NIMl1bQ0gyXVtDSDJdW0NIMl0y

> <s_epik_cmdline>
J2VwaWtfcHl0aG9uJywgJy1waCcsICc3LjAnLCAnLXRuJywgJzgnLCAnLW1hJywgJzIwMCcsICctbWV0YWxfYmluZGluZycsICctaW1hZScsICc8aW5maWxlLm1hZT4nLCAnLW9tYWUnLCAnPG91dGZpbGUubWFlPic=

> <r_lp_tautomer_probability>
0.999537

> <r_epik_Ionization_Penalty>
3.09244

> <r_epik_Ionization_Penalty_Charging>
2.84692e-08

> <r_epik_Ionization_Penalty_Neutral>
3.09244

> <r_epik_State_Penalty>
3.09149

> <r_epik_Charging_Adjusted_Penalty>
3.09149

> <i_epik_Tot_Q>
-1

> <i_epik_Tot_abs_Q>
1

> <r_epik_Metal_State_Penalty>
0.461034

> <b_epik_Metal_Only>
1

> <s_lp_Force_Field>
OPLS_2005

> <r_lp_Energy>
30.2877

> <b_lp_Chiralities_Consistent>
1

> <s_lp_Variant>
AV-unprocessed.smi:487-2

> <Gold.Version>
5.8.1

> <Gold.Id.Protein>
6NUR|6NUR_protein|mol2

> <Gold.PLP.Fitness>
42.5387

> <Gold.PLP.PLP>
-40.4662

> <Gold.PLP.part.hbond>
-1.0000

> <Gold.PLP.part.metal>
0.0000

> <Gold.PLP.part.buried>
-6.4875

> <Gold.PLP.part.nonpolar>
-33.9379

> <Gold.PLP.part.repulsive>
0.3445

> <Gold.PLP.ligand.clash>
0.0000

> <Gold.PLP.ligand.torsion>
0.2901

> <Gold.PLP.Chemscore.Hbond>
0.8800

> <Gold.PLP.Chemscore.CHOScore>
0.0000

> <Gold.PLP.Chemscore.Metal>
0.0000

> <Gold.Chemscore.Hbonds>
donor molecule, donor type, donor heavy atom, donor atom, acceptor molecule, acceptor atom, score
      L1  H    12    25       P1  8028  0.83

> <Gold.PLP.Chemscore.Internal.Correction>
0.0127

> <Gold.Rescore>
     Score         DG    S(hbond)    S(metal)    S(lipo)     H(rot)  DE(clash)    DE(int)     intcor
     13.60     -16.52       0.92        0.00     104.02       1.64       0.07       2.84       ----

> <Gold.Chemscore.Fitness>
13.6048

> <Gold.Chemscore.DG>
-16.5218

> <Gold.Chemscore.ZeroCoef>
-5.4800

> <Gold.Chemscore.Hbond>
0.9221

> <Gold.Chemscore.Metal>
0.0000

> <Gold.Chemscore.Lipo>
104.0184

> <Gold.Chemscore.Internal_Hbond>
0.0000

> <Gold.Chemscore.DEClash>
0.0730

> <Gold.Chemscore.DEInternal>
2.8441

> <Gold.Chemscore.Rot>
1.6438

> <Gold.Chemscore.Internal.Correction>
   9.000000E+99

> <Gold.Chemscore.Hbonds>
donor molecule, donor type, donor heavy atom, donor atom, acceptor molecule, acceptor atom, score
      L1  H    12    25       P1  8028  0.81

> <Gold.Chemscore.Hbond.Weighted>
-3.0797

> <Gold.Chemscore.Metal.Weighted>
-0.0000

> <Gold.Chemscore.Lipo.Weighted>
-12.1702

> <Gold.Chemscore.Internal_Hbond.Weighted>
0.0000

> <Gold.Chemscore.DEClash.Weighted>
0.0730

> <Gold.Chemscore.DEInternal.Weighted>
2.8441

> <Gold.Chemscore.Rot.Weighted>
4.2080

> <Gold.Chemscore.Internal.Correction.Weighted>
   9.000000E+99

> <Gold.Protein.RotatedTorsions>
[ 6907 6896 6895 6894 ] final   19.34 input  -60.11 | X-H torsion
[ 7974 7965 7964 7962 ] final -131.81 input  175.53 | X-H torsion
[ 8008 7997 7996 7995 ] final  178.75 input   59.86 | X-H torsion
[ 10167 10162 10161 10158 ] final   74.80 input  -65.29 | X-H torsion
[ 10718 10713 10712 10709 ] final   93.42 input   66.30 | X-H torsion
[ 10763 10752 10751 10750 ] final -153.94 input  -60.55 | X-H torsion
[ 11005 11000 10999 10996 ] final  162.09 input  -57.11 | X-H torsion

> <Gold.Protein.ActiveResidues>
 VAL166  LYS551  ARG553  GLY616  TRP617  ASP618  TYR619  PRO620  LYS621  CYS622 
 ASP623  PHE694  ASN695  SER759  ASP760  ASP761  ALA762  ILE779  LEU786  VAL792 
 PHE793  MET794  SER795  GLU796  ALA797  LYS798  CYS799  TRP800  GLU811  SER814 

> <Gold.Protein.RotatedAtoms>
  151.8793  135.0460  160.0486 H   0  0  0  0  0  0  0  0  0  0  0  0  # atno 6907 bound_to 6896
  152.2526  133.5223  159.5342 H   0  0  0  0  0  0  0  0  0  0  0  0  # atno 6908 bound_to 6896
  150.7089  134.0856  159.3956 H   0  0  0  0  0  0  0  0  0  0  0  0  # atno 6909 bound_to 6896
  144.9344  140.7166  143.4885 H   0  0  0  0  0  0  0  0  0  0  0  0  # atno 7974 bound_to 7965
  156.0511  140.1325  157.0049 H   0  0  0  0  0  0  0  0  0  0  0  0  # atno 8008 bound_to 7997
  154.4435  140.1010  156.6448 H   0  0  0  0  0  0  0  0  0  0  0  0  # atno 8009 bound_to 7997
  155.5522  140.3463  155.4473 H   0  0  0  0  0  0  0  0  0  0  0  0  # atno 8010 bound_to 7997
  140.0098  144.5622  150.7668 H   0  0  0  0  0  0  0  0  0  0  0  0  # atno 10167 bound_to 10162
  157.6954  131.0477  150.4031 H   0  0  0  0  0  0  0  0  0  0  0  0  # atno 10718 bound_to 10713
  154.7893  135.3201  154.7814 H   0  0  0  0  0  0  0  0  0  0  0  0  # atno 10763 bound_to 10752
  153.8506  135.6862  153.4797 H   0  0  0  0  0  0  0  0  0  0  0  0  # atno 10764 bound_to 10752
  153.1557  135.4681  154.9640 H   0  0  0  0  0  0  0  0  0  0  0  0  # atno 10765 bound_to 10752
  140.2223  134.8187  157.3232 H   0  0  0  0  0  0  0  0  0  0  0  0  # atno 11005 bound_to 11000
  145.3090  139.1825  143.4649 LP  0  0  0  0  0  0  0  0  0  0  0  0  # atno 17320 bound_to 7965
  146.3260  140.3092  142.8625 LP  0  0  0  0  0  0  0  0  0  0  0  0  # atno 17321 bound_to 7965
  140.7386  143.2780  151.3683 LP  0  0  0  0  0  0  0  0  0  0  0  0  # atno 17342 bound_to 10162
  139.6213  144.0902  152.2393 LP  0  0  0  0  0  0  0  0  0  0  0  0  # atno 17343 bound_to 10162
  156.4423  130.3994  149.6689 LP  0  0  0  0  0  0  0  0  0  0  0  0  # atno 17370 bound_to 10713
  156.3868  130.7607  151.2605 LP  0  0  0  0  0  0  0  0  0  0  0  0  # atno 17371 bound_to 10713
  140.1837  134.4458  155.7756 LP  0  0  0  0  0  0  0  0  0  0  0  0  # atno 17394 bound_to 11000
  141.2222  133.6995  156.7911 LP  0  0  0  0  0  0  0  0  0  0  0  0  # atno 17395 bound_to 11000

$$$$
