AV-unprocessed.smi:81|AV-procd|sdf|786|dock1
  -GOLD-   2262017153D 1   1.00000     0.00000
 Structure written by MMmdl.
 64 67  0  0  0  0  0  0  0  0  2 V2000
  149.1151  139.6427  153.9410 C   0  0  0  0  0  0  0  0  0  0  0  0
  150.2536  140.1882  154.8187 C   0  0  0  0  0  0  0  0  0  0  0  0
  151.3823  139.1549  154.9386 C   0  0  0  0  0  0  0  0  0  0  0  0
  149.7521  140.6020  156.2214 C   0  0  0  0  0  0  0  0  0  0  0  0
  150.8020  140.6464  157.2438 N   0  0  0  0  0  0  0  0  0  0  0  0
  150.8914  139.5323  158.0119 C   0  0  0  0  0  0  0  0  0  0  0  0
  152.0848  139.1749  158.5557 N   0  0  0  0  0  0  0  0  0  0  0  0
  152.1685  138.0881  159.3289 C   0  0  0  0  0  0  0  0  0  0  0  0
  151.2007  137.2404  159.6842 N   0  0  0  0  0  0  0  0  0  0  0  0
  150.0000  137.6049  159.1491 C   0  0  0  0  0  0  0  0  0  0  0  0
  149.7611  138.7237  158.3043 C   0  0  0  0  0  0  0  0  0  0  0  0
  148.4195  138.7764  157.9492 N   0  0  0  0  0  0  0  0  0  0  0  0
  147.8920  137.7485  158.5564 C   0  0  0  0  0  0  0  0  0  0  0  0
  148.7670  136.9976  159.3094 N   0  0  0  0  0  0  0  0  0  0  0  0
  148.4474  135.8190  160.1005 C   0  0  0  0  0  0  0  0  0  0  0  0
  147.3143  136.0630  161.1322 C   0  0  1  0  0  0  0  0  0  0  0  0
  147.6194  137.2503  161.8448 O   0  0  0  0  0  0  0  0  0  0  0  0
  145.9383  136.2436  160.4978 C   0  0  0  0  0  0  0  0  0  0  0  0
  144.9945  135.7750  161.5944 C   0  0  0  0  0  0  0  0  0  0  0  0
  145.6772  134.6547  162.1289 O   0  0  0  0  0  0  0  0  0  0  0  0
  147.0742  134.9369  162.1770 C   0  0  1  0  0  0  0  0  0  0  0  0
  147.8185  133.6122  161.9483 C   0  0  0  0  0  0  0  0  0  0  0  0
  150.9859  141.9296  157.9372 C   0  0  2  0  0  0  0  0  0  0  0  0
  151.7867  141.8191  159.2519 C   0  0  0  0  0  0  0  0  0  0  0  0
  152.0135  143.2063  159.8744 C   0  0  0  0  0  0  0  0  0  0  0  0
  150.7239  143.9030  160.1068 N   0  3  1  0  0  0  0  0  0  0  0  0
  150.8996  145.1885  160.8160 C   0  0  0  0  0  0  0  0  0  0  0  0
  149.9375  144.0510  158.8567 C   0  0  0  0  0  0  0  0  0  0  0  0
  149.6660  142.6841  158.2074 C   0  0  0  0  0  0  0  0  0  0  0  0
  148.6525  138.7647  154.3927 H   0  0  0  0  0  0  0  0  0  0  0  0
  149.4829  139.3549  152.9557 H   0  0  0  0  0  0  0  0  0  0  0  0
  148.3346  140.3883  153.7900 H   0  0  0  0  0  0  0  0  0  0  0  0
  150.6772  141.0591  154.3172 H   0  0  0  0  0  0  0  0  0  0  0  0
  151.0372  138.2450  155.4307 H   0  0  0  0  0  0  0  0  0  0  0  0
  152.2167  139.5509  155.5181 H   0  0  0  0  0  0  0  0  0  0  0  0
  151.7680  138.8773  153.9572 H   0  0  0  0  0  0  0  0  0  0  0  0
  149.2824  141.5840  156.1556 H   0  0  0  0  0  0  0  0  0  0  0  0
  148.9678  139.9164  156.5451 H   0  0  0  0  0  0  0  0  0  0  0  0
  153.1497  137.8684  159.7231 H   0  0  0  0  0  0  0  0  0  0  0  0
  146.8403  137.5140  158.4791 H   0  0  0  0  0  0  0  0  0  0  0  0
  148.1693  135.0252  159.4068 H   0  0  0  0  0  0  0  0  0  0  0  0
  149.3566  135.4871  160.6035 H   0  0  0  0  0  0  0  0  0  0  0  0
  147.5081  137.0836  162.7683 H   0  0  0  0  0  0  0  0  0  0  0  0
  145.7362  137.2616  160.1616 H   0  0  0  0  0  0  0  0  0  0  0  0
  145.8322  135.5822  159.6371 H   0  0  0  0  0  0  0  0  0  0  0  0
  144.8747  136.5384  162.3647 H   0  0  0  0  0  0  0  0  0  0  0  0
  144.0083  135.5041  161.2171 H   0  0  0  0  0  0  0  0  0  0  0  0
  147.3084  135.2930  163.1820 H   0  0  0  0  0  0  0  0  0  0  0  0
  148.8991  133.7508  161.9826 H   0  0  0  0  0  0  0  0  0  0  0  0
  147.5604  133.1685  160.9866 H   0  0  0  0  0  0  0  0  0  0  0  0
  147.5588  132.8886  162.7212 H   0  0  0  0  0  0  0  0  0  0  0  0
  151.5795  142.5459  157.2607 H   0  0  0  0  0  0  0  0  0  0  0  0
  151.2613  141.1916  159.9729 H   0  0  0  0  0  0  0  0  0  0  0  0
  152.7497  141.3432  159.0641 H   0  0  0  0  0  0  0  0  0  0  0  0
  152.5461  143.0976  160.8199 H   0  0  0  0  0  0  0  0  0  0  0  0
  152.6448  143.8122  159.2223 H   0  0  0  0  0  0  0  0  0  0  0  0
  151.4801  145.8906  160.2161 H   0  0  0  0  0  0  0  0  0  0  0  0
  151.4178  145.0384  161.7636 H   0  0  0  0  0  0  0  0  0  0  0  0
  149.9329  145.6430  161.0349 H   0  0  0  0  0  0  0  0  0  0  0  0
  148.9891  144.5420  159.0785 H   0  0  0  0  0  0  0  0  0  0  0  0
  150.4740  144.6976  158.1603 H   0  0  0  0  0  0  0  0  0  0  0  0
  149.1111  142.8306  157.2805 H   0  0  0  0  0  0  0  0  0  0  0  0
  149.0218  142.1019  158.8667 H   0  0  0  0  0  0  0  0  0  0  0  0
  150.1824  143.3095  160.7193 H   0  0  0  0  0  0  0  0  0  0  0  0
  1  2  1  0  0  0  0
  1 30  1  0  0  0  0
  1 31  1  0  0  0  0
  1 32  1  0  0  0  0
  2  3  1  0  0  0  0
  2  4  1  0  0  0  0
  2 33  1  0  0  0  0
  3 34  1  0  0  0  0
  3 35  1  0  0  0  0
  3 36  1  0  0  0  0
  4  5  1  0  0  0  0
  4 37  1  0  0  0  0
  4 38  1  0  0  0  0
  5  6  1  0  0  0  0
  5 23  1  0  0  0  0
  6 11  1  0  0  0  0
  6  7  2  0  0  0  0
  7  8  1  0  0  0  0
  8  9  2  0  0  0  0
  8 39  1  0  0  0  0
  9 10  1  0  0  0  0
 10 14  1  0  0  0  0
 10 11  2  0  0  0  0
 11 12  1  0  0  0  0
 12 13  2  0  0  0  0
 13 14  1  0  0  0  0
 13 40  1  0  0  0  0
 14 15  1  0  0  0  0
 15 16  1  0  0  0  0
 15 41  1  0  0  0  0
 15 42  1  0  0  0  0
 16 21  1  0  0  0  0
 16 17  1  0  0  0  0
 16 18  1  0  0  0  0
 17 43  1  0  0  0  0
 18 19  1  0  0  0  0
 18 44  1  0  0  0  0
 18 45  1  0  0  0  0
 19 20  1  0  0  0  0
 19 46  1  0  0  0  0
 19 47  1  0  0  0  0
 20 21  1  0  0  0  0
 21 22  1  0  0  0  0
 21 48  1  0  0  0  0
 22 49  1  0  0  0  0
 22 50  1  0  0  0  0
 22 51  1  0  0  0  0
 23 29  1  0  0  0  0
 23 24  1  0  0  0  0
 23 52  1  0  0  0  0
 24 25  1  0  0  0  0
 24 53  1  0  0  0  0
 24 54  1  0  0  0  0
 25 26  1  0  0  0  0
 25 55  1  0  0  0  0
 25 56  1  0  0  0  0
 26 27  1  0  0  0  0
 26 28  1  0  0  0  0
 26 64  1  0  0  0  0
 27 57  1  0  0  0  0
 27 58  1  0  0  0  0
 27 59  1  0  0  0  0
 28 29  1  0  0  0  0
 28 60  1  0  0  0  0
 28 61  1  0  0  0  0
 29 62  1  0  0  0  0
 29 63  1  0  0  0  0
M  CHG  1  26   1
M  END
> <s_m_source_file>
AV-unprocessed.smi

> <i_m_source_file_index>
81

> <i_lp_mmshare_version>
43012

> <i_f3d_flags>
0

> <s_epik_input>
W0NIMl0xW0NIMl1OKFtDSDNdKVtDSDJdW0NIMl1bQ0hdMU4oW0NIMl1bQ0hdKFtDSDNdKVtDSDNdKWMobltjSF1uMiljKGMyMyluW2NIXW4zW0NIMl1bQ0BAXTQoW09IXSlbQ0gyXVtDSDJdT1tDQEhdNFtDSDNd

> <s_epik_cmdline>
J2VwaWtfcHl0aG9uJywgJy1waCcsICc3LjAnLCAnLXRuJywgJzgnLCAnLW1hJywgJzIwMCcsICctbWV0YWxfYmluZGluZycsICctaW1hZScsICc8aW5maWxlLm1hZT4nLCAnLW9tYWUnLCAnPG91dGZpbGUubWFlPic=

> <r_lp_tautomer_probability>
1

> <r_epik_Ionization_Penalty>
0.00272708

> <r_epik_Ionization_Penalty_Charging>
0.00158983

> <r_epik_Ionization_Penalty_Neutral>
0.00113725

> <r_epik_State_Penalty>
-0

> <r_epik_Charging_Adjusted_Penalty>
0.00158983

> <i_epik_Tot_Q>
1

> <i_epik_Tot_abs_Q>
1

> <r_epik_Metal_State_Penalty>
-0

> <b_epik_Metal_Only>
0

> <s_lp_Force_Field>
OPLS_2005

> <r_lp_Energy>
44.8479

> <b_lp_Chiralities_Consistent>
1

> <s_lp_Variant>
AV-unprocessed.smi:81-1

> <Gold.Version>
5.8.1

> <Gold.Id.Protein>
6NUR|6NUR_protein|mol2

> <Gold.PLP.Fitness>
54.0360

> <Gold.PLP.PLP>
-50.2481

> <Gold.PLP.part.hbond>
-3.1846

> <Gold.PLP.part.metal>
0.0000

> <Gold.PLP.part.buried>
-6.8799

> <Gold.PLP.part.nonpolar>
-40.1332

> <Gold.PLP.part.repulsive>
0.0835

> <Gold.PLP.ligand.clash>
0.0000

> <Gold.PLP.ligand.torsion>
2.1781

> <Gold.PLP.Chemscore.Hbond>
2.2652

> <Gold.PLP.Chemscore.CHOScore>
0.0000

> <Gold.PLP.Chemscore.Metal>
0.0000

> <Gold.Chemscore.Hbonds>
donor molecule, donor type, donor heavy atom, donor atom, acceptor molecule, acceptor atom, score
      P1  H  6896  6908       L1     9  0.73
      P1  H  6931  6943       L1    17  0.91
      P1  H  6934  6947       L1    17  0.68

> <Gold.PLP.Chemscore.Internal.Correction>
1.3485

> <Gold.Rescore>
     Score         DG    S(hbond)    S(metal)    S(lipo)     H(rot)  DE(clash)    DE(int)     intcor
     12.05     -15.94       1.22        0.00     111.06       2.58       2.48       1.41       ----

> <Gold.Chemscore.Fitness>
12.0483

> <Gold.Chemscore.DG>
-15.9402

> <Gold.Chemscore.ZeroCoef>
-5.4800

> <Gold.Chemscore.Hbond>
1.2169

> <Gold.Chemscore.Metal>
0.0000

> <Gold.Chemscore.Lipo>
111.0586

> <Gold.Chemscore.Internal_Hbond>
0.0000

> <Gold.Chemscore.DEClash>
2.4845

> <Gold.Chemscore.DEInternal>
1.4074

> <Gold.Chemscore.Rot>
2.5774

> <Gold.Chemscore.Internal.Correction>
   9.000000E+99

> <Gold.Chemscore.Hbonds>
donor molecule, donor type, donor heavy atom, donor atom, acceptor molecule, acceptor atom, score
      P1  H  6896  6908       L1     9  0.47
      P1  H  6931  6943       L1    17  0.20
      P1  H  6934  6947       L1    17  0.61

> <Gold.Chemscore.Hbond.Weighted>
-4.0646

> <Gold.Chemscore.Metal.Weighted>
-0.0000

> <Gold.Chemscore.Lipo.Weighted>
-12.9939

> <Gold.Chemscore.Internal_Hbond.Weighted>
0.0000

> <Gold.Chemscore.DEClash.Weighted>
2.4845

> <Gold.Chemscore.DEInternal.Weighted>
1.4074

> <Gold.Chemscore.Rot.Weighted>
6.5982

> <Gold.Chemscore.Internal.Correction.Weighted>
   9.000000E+99

> <Gold.Protein.RotatedTorsions>
[ 6907 6896 6895 6894 ] final -143.91 input  -60.11 | X-H torsion
[ 7974 7965 7964 7962 ] final    4.73 input  175.53 | X-H torsion
[ 8008 7997 7996 7995 ] final -163.73 input   59.86 | X-H torsion
[ 10167 10162 10161 10158 ] final   11.85 input  -65.29 | X-H torsion
[ 10718 10713 10712 10709 ] final   20.35 input   66.30 | X-H torsion
[ 10763 10752 10751 10750 ] final   62.33 input  -60.55 | X-H torsion
[ 11005 11000 10999 10996 ] final  147.26 input  -57.11 | X-H torsion

> <Gold.Protein.ActiveResidues>
 VAL166  LYS551  ARG553  GLY616  TRP617  ASP618  TYR619  PRO620  LYS621  CYS622 
 ASP623  PHE694  ASN695  SER759  ASP760  ASP761  ALA762  ILE779  LEU786  VAL792 
 PHE793  MET794  SER795  GLU796  ALA797  LYS798  CYS799  TRP800  GLU811  SER814 

> <Gold.Protein.RotatedAtoms>
  151.1069  133.5201  159.2607 H   0  0  0  0  0  0  0  0  0  0  0  0  # atno 6907 bound_to 6896
  151.2011  135.0442  159.8882 H   0  0  0  0  0  0  0  0  0  0  0  0  # atno 6908 bound_to 6896
  152.5447  134.0897  159.8325 H   0  0  0  0  0  0  0  0  0  0  0  0  # atno 6909 bound_to 6896
  146.2443  140.0491  142.8376 H   0  0  0  0  0  0  0  0  0  0  0  0  # atno 7974 bound_to 7965
  155.8254  140.0926  157.1824 H   0  0  0  0  0  0  0  0  0  0  0  0  # atno 8008 bound_to 7997
  154.3979  140.1429  156.3611 H   0  0  0  0  0  0  0  0  0  0  0  0  # atno 8009 bound_to 7997
  155.8222  140.3446  155.5523 H   0  0  0  0  0  0  0  0  0  0  0  0  # atno 8010 bound_to 7997
  140.6105  143.8417  150.7061 H   0  0  0  0  0  0  0  0  0  0  0  0  # atno 10167 bound_to 10162
  157.1232  130.6559  149.5930 H   0  0  0  0  0  0  0  0  0  0  0  0  # atno 10718 bound_to 10713
  152.9979  135.5469  154.6176 H   0  0  0  0  0  0  0  0  0  0  0  0  # atno 10763 bound_to 10752
  154.5482  135.2824  155.1035 H   0  0  0  0  0  0  0  0  0  0  0  0  # atno 10764 bound_to 10752
  154.2285  135.6438  153.5220 H   0  0  0  0  0  0  0  0  0  0  0  0  # atno 10765 bound_to 10752
  140.0861  134.9068  157.1578 H   0  0  0  0  0  0  0  0  0  0  0  0  # atno 11005 bound_to 11000
  145.1001  140.9340  143.4718 LP  0  0  0  0  0  0  0  0  0  0  0  0  # atno 17320 bound_to 7965
  145.0682  139.3052  143.5846 LP  0  0  0  0  0  0  0  0  0  0  0  0  # atno 17321 bound_to 7965
  140.1984  143.3979  152.1810 LP  0  0  0  0  0  0  0  0  0  0  0  0  # atno 17342 bound_to 10162
  139.5358  144.7208  151.4899 LP  0  0  0  0  0  0  0  0  0  0  0  0  # atno 17343 bound_to 10162
  155.9824  130.4837  150.6878 LP  0  0  0  0  0  0  0  0  0  0  0  0  # atno 17370 bound_to 10713
  157.4458  131.0866  151.0897 LP  0  0  0  0  0  0  0  0  0  0  0  0  # atno 17371 bound_to 10713
  140.3418  134.2696  155.7211 LP  0  0  0  0  0  0  0  0  0  0  0  0  # atno 17394 bound_to 11000
  141.2063  133.7837  157.0185 LP  0  0  0  0  0  0  0  0  0  0  0  0  # atno 17395 bound_to 11000

$$$$
