AV-unprocessed.smi:15|AV-procd|sdf|79|dock4
  -GOLD-   2262015203D 1   1.00000     0.00000
 Structure written by MMmdl.
 53 56  0  0  0  0  0  0  0  0  1 V2000
  151.1335  139.5146  155.1467 C   0  0  0  0  0  0  0  0  0  0  0  0
  150.4126  140.5872  155.9788 C   0  0  0  0  0  0  0  0  0  0  0  0
  150.7903  140.5774  157.3922 N   0  0  0  0  0  0  0  0  0  0  0  0
  150.3616  141.7196  158.1955 C   0  0  0  0  0  0  0  0  0  0  0  0
  151.3493  142.8933  158.1089 C   0  0  2  0  0  0  0  0  0  0  0  0
  152.6775  142.6480  158.8258 C   0  0  0  0  0  0  0  0  0  0  0  0
  153.1334  144.0408  159.2361 C   0  0  0  0  0  0  0  0  0  0  0  0
  151.9119  144.9272  158.9795 C   0  0  0  0  0  0  0  0  0  0  0  0
  150.8343  144.0200  158.7991 O   0  0  0  0  0  0  0  0  0  0  0  0
  150.5742  139.4035  158.0241 C   0  0  0  0  0  0  0  0  0  0  0  0
  151.6630  138.7010  158.4218 N   0  0  0  0  0  0  0  0  0  0  0  0
  151.5074  137.5347  159.0562 C   0  0  0  0  0  0  0  0  0  0  0  0
  150.3758  136.9101  159.3908 N   0  0  0  0  0  0  0  0  0  0  0  0
  149.2802  137.6212  158.9973 C   0  0  0  0  0  0  0  0  0  0  0  0
  149.2881  138.8672  158.3107 C   0  0  0  0  0  0  0  0  0  0  0  0
  147.9858  139.2891  158.0749 N   0  0  0  0  0  0  0  0  0  0  0  0
  147.2487  138.3449  158.5928 C   0  0  0  0  0  0  0  0  0  0  0  0
  147.9438  137.3101  159.1785 N   0  0  0  0  0  0  0  0  0  0  0  0
  147.3776  136.1421  159.8369 C   0  0  0  0  0  0  0  0  0  0  0  0
  146.6702  136.4745  161.1771 C   0  0  1  0  0  0  0  0  0  0  0  0
  147.5876  137.1833  161.9931 O   0  0  0  0  0  0  0  0  0  0  0  0
  145.4253  137.3437  161.0096 C   0  0  0  0  0  0  0  0  0  0  0  0
  144.5505  136.9236  162.1806 C   0  0  0  0  0  0  0  0  0  0  0  0
  144.7618  135.5241  162.2267 O   0  0  0  0  0  0  0  0  0  0  0  0
  146.1449  135.2649  162.0021 C   0  0  1  0  0  0  0  0  0  0  0  0
  146.2653  133.8760  161.3556 C   0  0  0  0  0  0  0  0  0  0  0  0
  150.8659  139.6022  154.0937 H   0  0  0  0  0  0  0  0  0  0  0  0
  150.8696  138.5064  155.4675 H   0  0  0  0  0  0  0  0  0  0  0  0
  152.2160  139.6205  155.2238 H   0  0  0  0  0  0  0  0  0  0  0  0
  150.6417  141.5663  155.5588 H   0  0  0  0  0  0  0  0  0  0  0  0
  149.3334  140.4634  155.8856 H   0  0  0  0  0  0  0  0  0  0  0  0
  149.3807  142.0438  157.8460 H   0  0  0  0  0  0  0  0  0  0  0  0
  150.2348  141.4328  159.2413 H   0  0  0  0  0  0  0  0  0  0  0  0
  151.5276  143.1810  157.0715 H   0  0  0  0  0  0  0  0  0  0  0  0
  152.5201  142.0398  159.7178 H   0  0  0  0  0  0  0  0  0  0  0  0
  153.4011  142.1318  158.1944 H   0  0  0  0  0  0  0  0  0  0  0  0
  153.4201  144.0547  160.2881 H   0  0  0  0  0  0  0  0  0  0  0  0
  153.9894  144.3781  158.6506 H   0  0  0  0  0  0  0  0  0  0  0  0
  151.7152  145.6193  159.7985 H   0  0  0  0  0  0  0  0  0  0  0  0
  152.0459  145.5094  158.0667 H   0  0  0  0  0  0  0  0  0  0  0  0
  152.4204  137.0306  159.3370 H   0  0  0  0  0  0  0  0  0  0  0  0
  146.1693  138.3822  158.5688 H   0  0  0  0  0  0  0  0  0  0  0  0
  146.6766  135.6825  159.1396 H   0  0  0  0  0  0  0  0  0  0  0  0
  148.1770  135.4169  159.9953 H   0  0  0  0  0  0  0  0  0  0  0  0
  147.8336  136.6301  162.7189 H   0  0  0  0  0  0  0  0  0  0  0  0
  145.6315  138.4149  160.9887 H   0  0  0  0  0  0  0  0  0  0  0  0
  144.9108  137.0871  160.0827 H   0  0  0  0  0  0  0  0  0  0  0  0
  144.8884  137.3819  163.1113 H   0  0  0  0  0  0  0  0  0  0  0  0
  143.4987  137.1684  162.0322 H   0  0  0  0  0  0  0  0  0  0  0  0
  146.6328  135.2313  162.9783 H   0  0  0  0  0  0  0  0  0  0  0  0
  147.3058  133.6147  161.1640 H   0  0  0  0  0  0  0  0  0  0  0  0
  145.7189  133.8228  160.4138 H   0  0  0  0  0  0  0  0  0  0  0  0
  145.8534  133.1105  162.0136 H   0  0  0  0  0  0  0  0  0  0  0  0
  1  2  1  0  0  0  0
  1 27  1  0  0  0  0
  1 28  1  0  0  0  0
  1 29  1  0  0  0  0
  2  3  1  0  0  0  0
  2 30  1  0  0  0  0
  2 31  1  0  0  0  0
  3  4  1  0  0  0  0
  3 10  1  0  0  0  0
  4  5  1  0  0  0  0
  4 32  1  0  0  0  0
  4 33  1  0  0  0  0
  5  9  1  0  0  0  0
  5  6  1  0  0  0  0
  5 34  1  0  0  0  0
  6  7  1  0  0  0  0
  6 35  1  0  0  0  0
  6 36  1  0  0  0  0
  7  8  1  0  0  0  0
  7 37  1  0  0  0  0
  7 38  1  0  0  0  0
  8  9  1  0  0  0  0
  8 39  1  0  0  0  0
  8 40  1  0  0  0  0
 10 15  1  0  0  0  0
 10 11  2  0  0  0  0
 11 12  1  0  0  0  0
 12 13  2  0  0  0  0
 12 41  1  0  0  0  0
 13 14  1  0  0  0  0
 14 18  1  0  0  0  0
 14 15  2  0  0  0  0
 15 16  1  0  0  0  0
 16 17  2  0  0  0  0
 17 18  1  0  0  0  0
 17 42  1  0  0  0  0
 18 19  1  0  0  0  0
 19 20  1  0  0  0  0
 19 43  1  0  0  0  0
 19 44  1  0  0  0  0
 20 25  1  0  0  0  0
 20 21  1  0  0  0  0
 20 22  1  0  0  0  0
 21 45  1  0  0  0  0
 22 23  1  0  0  0  0
 22 46  1  0  0  0  0
 22 47  1  0  0  0  0
 23 24  1  0  0  0  0
 23 48  1  0  0  0  0
 23 49  1  0  0  0  0
 24 25  1  0  0  0  0
 25 26  1  0  0  0  0
 25 50  1  0  0  0  0
 26 51  1  0  0  0  0
 26 52  1  0  0  0  0
 26 53  1  0  0  0  0
M  END
> <s_m_source_file>
AV-unprocessed.smi

> <i_m_source_file_index>
15

> <i_lp_mmshare_version>
43012

> <i_f3d_flags>
0

> <s_epik_input>
TzFbQ0gyXVtDSDJdW0NIMl1bQ0BIXTFbQ0gyXU4oW0NIMl1bQ0gzXSljKG5bY0hdbjIpYyhjMjMpbltjSF1uM1tDSDJdW0NAQF00KFtPSF0pW0NIMl1bQ0gyXU9bQ0BIXTRbQ0gzXQ==

> <s_epik_cmdline>
J2VwaWtfcHl0aG9uJywgJy1waCcsICc3LjAnLCAnLXRuJywgJzgnLCAnLW1hJywgJzIwMCcsICctbWV0YWxfYmluZGluZycsICctaW1hZScsICc8aW5maWxlLm1hZT4nLCAnLW9tYWUnLCAnPG91dGZpbGUubWFlPic=

> <r_lp_tautomer_probability>
1

> <r_epik_Ionization_Penalty>
0.00360814

> <r_epik_Ionization_Penalty_Charging>
0

> <r_epik_Ionization_Penalty_Neutral>
0.00360814

> <r_epik_State_Penalty>
0.00237482

> <r_epik_Charging_Adjusted_Penalty>
0.00237482

> <i_epik_Tot_Q>
0

> <i_epik_Tot_abs_Q>
0

> <r_epik_Metal_State_Penalty>
-0

> <b_epik_Metal_Only>
0

> <s_lp_Force_Field>
OPLS_2005

> <r_lp_Energy>
46.4206

> <b_lp_Chiralities_Consistent>
1

> <s_lp_Variant>
AV-unprocessed.smi:15-1

> <Gold.Version>
5.8.1

> <Gold.Id.Protein>
6NUR|6NUR_protein|mol2

> <Gold.PLP.Fitness>
52.8209

> <Gold.PLP.PLP>
-47.6480

> <Gold.PLP.part.hbond>
-2.1413

> <Gold.PLP.part.metal>
0.0000

> <Gold.PLP.part.buried>
-7.7474

> <Gold.PLP.part.nonpolar>
-39.0139

> <Gold.PLP.part.repulsive>
0.1809

> <Gold.PLP.ligand.clash>
0.0000

> <Gold.PLP.ligand.torsion>
0.7322

> <Gold.PLP.Chemscore.Hbond>
1.9920

> <Gold.PLP.Chemscore.CHOScore>
0.0000

> <Gold.PLP.Chemscore.Metal>
0.0000

> <Gold.Chemscore.Hbonds>
donor molecule, donor type, donor heavy atom, donor atom, acceptor molecule, acceptor atom, score
      P1  H  6896  6908       L1    13  1.00
      P1  H  6931  6943       L1    21  0.96
      P1  H  6934  6947       L1    21  0.28

> <Gold.PLP.Chemscore.Internal.Correction>
0.6614

> <Gold.Rescore>
     Score         DG    S(hbond)    S(metal)    S(lipo)     H(rot)  DE(clash)    DE(int)     intcor
     17.02     -17.98       1.96        0.00     110.02       2.71       0.15       0.82       ----

> <Gold.Chemscore.Fitness>
17.0181

> <Gold.Chemscore.DG>
-17.9823

> <Gold.Chemscore.ZeroCoef>
-5.4800

> <Gold.Chemscore.Hbond>
1.9644

> <Gold.Chemscore.Metal>
0.0000

> <Gold.Chemscore.Lipo>
110.0173

> <Gold.Chemscore.Internal_Hbond>
0.0000

> <Gold.Chemscore.DEClash>
0.1489

> <Gold.Chemscore.DEInternal>
0.8153

> <Gold.Chemscore.Rot>
2.7074

> <Gold.Chemscore.Internal.Correction>
   9.000000E+99

> <Gold.Chemscore.Hbonds>
donor molecule, donor type, donor heavy atom, donor atom, acceptor molecule, acceptor atom, score
      P1  H  6896  6908       L1    13  0.28
      P1  H  6931  6943       L1    21  0.24
      P1  H  6934  6947       L1    21  0.02

> <Gold.Chemscore.Hbond.Weighted>
-6.5611

> <Gold.Chemscore.Metal.Weighted>
-0.0000

> <Gold.Chemscore.Lipo.Weighted>
-12.8720

> <Gold.Chemscore.Internal_Hbond.Weighted>
0.0000

> <Gold.Chemscore.DEClash.Weighted>
0.1489

> <Gold.Chemscore.DEInternal.Weighted>
0.8153

> <Gold.Chemscore.Rot.Weighted>
6.9308

> <Gold.Chemscore.Internal.Correction.Weighted>
   9.000000E+99

> <Gold.Protein.RotatedTorsions>
[ 6907 6896 6895 6894 ] final -152.08 input  -60.11 | X-H torsion
[ 7974 7965 7964 7962 ] final -101.18 input  175.53 | X-H torsion
[ 8008 7997 7996 7995 ] final  150.01 input   59.86 | X-H torsion
[ 10167 10162 10161 10158 ] final  -82.88 input  -65.29 | X-H torsion
[ 10718 10713 10712 10709 ] final   79.16 input   66.30 | X-H torsion
[ 10763 10752 10751 10750 ] final -129.51 input  -60.55 | X-H torsion
[ 11005 11000 10999 10996 ] final   50.09 input  -57.11 | X-H torsion

> <Gold.Protein.ActiveResidues>
 VAL166  LYS551  ARG553  GLY616  TRP617  ASP618  TYR619  PRO620  LYS621  CYS622 
 ASP623  PHE694  ASN695  SER759  ASP760  ASP761  ALA762  ILE779  LEU786  VAL792 
 PHE793  MET794  SER795  GLU796  ALA797  LYS798  CYS799  TRP800  GLU811  SER814 

> <Gold.Protein.RotatedAtoms>
  151.2225  133.4494  159.2600 H   0  0  0  0  0  0  0  0  0  0  0  0  # atno 6907 bound_to 6896
  151.0871  134.9894  159.8395 H   0  0  0  0  0  0  0  0  0  0  0  0  # atno 6908 bound_to 6896
  152.5431  134.2161  159.8822 H   0  0  0  0  0  0  0  0  0  0  0  0  # atno 6909 bound_to 6896
  145.2849  140.9337  143.2911 H   0  0  0  0  0  0  0  0  0  0  0  0  # atno 7974 bound_to 7965
  156.2732  140.2086  156.5950 H   0  0  0  0  0  0  0  0  0  0  0  0  # atno 8008 bound_to 7997
  154.6952  140.0526  157.0427 H   0  0  0  0  0  0  0  0  0  0  0  0  # atno 8009 bound_to 7997
  155.0811  140.3186  155.4604 H   0  0  0  0  0  0  0  0  0  0  0  0  # atno 8010 bound_to 7997
  140.4279  143.2559  151.8800 H   0  0  0  0  0  0  0  0  0  0  0  0  # atno 10167 bound_to 10162
  157.6768  130.9901  150.1892 H   0  0  0  0  0  0  0  0  0  0  0  0  # atno 10718 bound_to 10713
  154.8757  135.3893  154.3931 H   0  0  0  0  0  0  0  0  0  0  0  0  # atno 10763 bound_to 10752
  153.4664  135.7029  153.6024 H   0  0  0  0  0  0  0  0  0  0  0  0  # atno 10764 bound_to 10752
  153.4500  135.3836  155.2247 H   0  0  0  0  0  0  0  0  0  0  0  0  # atno 10765 bound_to 10752
  140.1047  134.5035  155.8731 H   0  0  0  0  0  0  0  0  0  0  0  0  # atno 11005 bound_to 11000
  144.9221  139.4399  143.6536 LP  0  0  0  0  0  0  0  0  0  0  0  0  # atno 17320 bound_to 7965
  146.3204  139.8087  142.8950 LP  0  0  0  0  0  0  0  0  0  0  0  0  # atno 17321 bound_to 7965
  139.4784  144.5367  151.8588 LP  0  0  0  0  0  0  0  0  0  0  0  0  # atno 17342 bound_to 10162
  140.4461  144.1920  150.5894 LP  0  0  0  0  0  0  0  0  0  0  0  0  # atno 17343 bound_to 10162
  156.2607  130.3710  149.8133 LP  0  0  0  0  0  0  0  0  0  0  0  0  # atno 17370 bound_to 10713
  156.5879  130.8494  151.3400 LP  0  0  0  0  0  0  0  0  0  0  0  0  # atno 17371 bound_to 10713
  141.2115  133.6707  156.6587 LP  0  0  0  0  0  0  0  0  0  0  0  0  # atno 17394 bound_to 11000
  140.3172  134.8037  157.4224 LP  0  0  0  0  0  0  0  0  0  0  0  0  # atno 17395 bound_to 11000

$$$$
