AV-unprocessed.smi:224|AV-procd|sdf|1718|dock7
  -GOLD-   2262020193D 1   1.00000     0.00000
 Structure written by MMmdl.
 56 59  0  0  0  0  0  0  0  0  2 V2000
  146.1539  133.3678  150.5139 C   0  0  0  0  0  0  0  0  0  0  0  0
  144.7742  134.0316  150.6373 C   0  0  1  0  0  0  0  0  0  0  0  0
  144.1724  134.0376  149.3601 O   0  0  0  0  0  0  0  0  0  0  0  0
  143.8344  133.2930  151.6132 C   0  0  0  0  0  0  0  0  0  0  0  0
  144.0226  133.7133  153.0320 N   0  3  1  0  0  0  0  0  0  0  0  0
  145.4579  133.6381  153.4304 C   0  0  0  0  0  0  0  0  0  0  0  0
  145.6791  134.0375  154.8982 C   0  0  0  0  0  0  0  0  0  0  0  0
  145.0867  135.3389  155.1821 N   0  0  0  0  0  0  0  0  0  0  0  0
  145.8214  136.4682  154.9949 C   0  0  0  0  0  0  0  0  0  0  0  0
  145.4356  137.3791  154.0618 N   0  0  0  0  0  0  0  0  0  0  0  0
  146.1438  138.4954  153.8694 C   0  0  0  0  0  0  0  0  0  0  0  0
  147.2577  138.8917  154.4858 N   0  0  0  0  0  0  0  0  0  0  0  0
  147.6617  137.9779  155.4135 C   0  0  0  0  0  0  0  0  0  0  0  0
  147.0069  136.7539  155.7316 C   0  0  0  0  0  0  0  0  0  0  0  0
  147.7177  136.0843  156.7210 N   0  0  0  0  0  0  0  0  0  0  0  0
  148.7287  136.8690  156.9766 C   0  0  0  0  0  0  0  0  0  0  0  0
  148.7780  138.0241  156.2300 N   0  0  0  0  0  0  0  0  0  0  0  0
  149.7968  139.0606  156.2995 C   0  0  0  0  0  0  0  0  0  0  0  0
  150.7618  139.0508  155.0909 C   0  0  1  0  0  0  0  0  0  0  0  0
  150.2529  139.9174  154.0911 O   0  0  0  0  0  0  0  0  0  0  0  0
  152.1872  139.4806  155.4238 C   0  0  0  0  0  0  0  0  0  0  0  0
  153.0197  138.6877  154.4264 C   0  0  0  0  0  0  0  0  0  0  0  0
  152.3614  137.4325  154.4012 O   0  0  0  0  0  0  0  0  0  0  0  0
  150.9556  137.6524  154.4711 C   0  0  0  0  0  0  0  0  0  0  0  0
  143.6706  135.4137  154.8471 C   0  0  0  0  0  0  0  0  0  0  0  0
  143.4059  135.0377  153.3710 C   0  0  2  0  0  0  0  0  0  0  0  0
  141.8811  135.0708  153.1374 C   0  0  0  0  0  0  0  0  0  0  0  0
  146.6825  133.3746  151.4674 H   0  0  0  0  0  0  0  0  0  0  0  0
  146.7793  133.8942  149.7920 H   0  0  0  0  0  0  0  0  0  0  0  0
  146.0702  132.3305  150.1878 H   0  0  0  0  0  0  0  0  0  0  0  0
  144.8986  135.0740  150.9267 H   0  0  0  0  0  0  0  0  0  0  0  0
  144.8494  133.9839  148.7025 H   0  0  0  0  0  0  0  0  0  0  0  0
  142.7914  133.4483  151.3313 H   0  0  0  0  0  0  0  0  0  0  0  0
  144.0161  132.2293  151.4830 H   0  0  0  0  0  0  0  0  0  0  0  0
  145.8437  132.6297  153.2913 H   0  0  0  0  0  0  0  0  0  0  0  0
  146.0438  134.2855  152.7769 H   0  0  0  0  0  0  0  0  0  0  0  0
  145.2097  133.3017  155.5521 H   0  0  0  0  0  0  0  0  0  0  0  0
  146.7413  134.0278  155.1473 H   0  0  0  0  0  0  0  0  0  0  0  0
  145.7644  139.1669  153.1133 H   0  0  0  0  0  0  0  0  0  0  0  0
  149.4782  136.6207  157.7144 H   0  0  0  0  0  0  0  0  0  0  0  0
  149.2970  140.0271  156.3740 H   0  0  0  0  0  0  0  0  0  0  0  0
  150.3538  138.9332  157.2288 H   0  0  0  0  0  0  0  0  0  0  0  0
  149.3128  139.8242  154.0650 H   0  0  0  0  0  0  0  0  0  0  0  0
  152.3501  140.5577  155.3656 H   0  0  0  0  0  0  0  0  0  0  0  0
  152.4534  139.1584  156.4309 H   0  0  0  0  0  0  0  0  0  0  0  0
  152.9859  139.1429  153.4354 H   0  0  0  0  0  0  0  0  0  0  0  0
  154.0626  138.5902  154.7284 H   0  0  0  0  0  0  0  0  0  0  0  0
  150.5073  136.8652  155.0782 H   0  0  0  0  0  0  0  0  0  0  0  0
  150.5209  137.5800  153.4726 H   0  0  0  0  0  0  0  0  0  0  0  0
  143.1342  134.7290  155.5054 H   0  0  0  0  0  0  0  0  0  0  0  0
  143.2635  136.4032  155.0501 H   0  0  0  0  0  0  0  0  0  0  0  0
  143.8699  135.7963  152.7380 H   0  0  0  0  0  0  0  0  0  0  0  0
  141.4452  135.9776  153.5585 H   0  0  0  0  0  0  0  0  0  0  0  0
  141.3877  134.2216  153.6115 H   0  0  0  0  0  0  0  0  0  0  0  0
  141.6131  135.0758  152.0821 H   0  0  0  0  0  0  0  0  0  0  0  0
  143.5317  133.0352  153.5968 H   0  0  0  0  0  0  0  0  0  0  0  0
  1  2  1  0  0  0  0
  1 28  1  0  0  0  0
  1 29  1  0  0  0  0
  1 30  1  0  0  0  0
  2  3  1  0  0  0  0
  2  4  1  0  0  0  0
  2 31  1  0  0  0  0
  3 32  1  0  0  0  0
  4  5  1  0  0  0  0
  4 33  1  0  0  0  0
  4 34  1  0  0  0  0
  5 26  1  0  0  0  0
  5  6  1  0  0  0  0
  5 56  1  0  0  0  0
  6  7  1  0  0  0  0
  6 35  1  0  0  0  0
  6 36  1  0  0  0  0
  7  8  1  0  0  0  0
  7 37  1  0  0  0  0
  7 38  1  0  0  0  0
  8  9  1  0  0  0  0
  8 25  1  0  0  0  0
  9 14  1  0  0  0  0
  9 10  2  0  0  0  0
 10 11  1  0  0  0  0
 11 12  2  0  0  0  0
 11 39  1  0  0  0  0
 12 13  1  0  0  0  0
 13 17  1  0  0  0  0
 13 14  2  0  0  0  0
 14 15  1  0  0  0  0
 15 16  2  0  0  0  0
 16 17  1  0  0  0  0
 16 40  1  0  0  0  0
 17 18  1  0  0  0  0
 18 19  1  0  0  0  0
 18 41  1  0  0  0  0
 18 42  1  0  0  0  0
 19 24  1  0  0  0  0
 19 20  1  0  0  0  0
 19 21  1  0  0  0  0
 20 43  1  0  0  0  0
 21 22  1  0  0  0  0
 21 44  1  0  0  0  0
 21 45  1  0  0  0  0
 22 23  1  0  0  0  0
 22 46  1  0  0  0  0
 22 47  1  0  0  0  0
 23 24  1  0  0  0  0
 24 48  1  0  0  0  0
 24 49  1  0  0  0  0
 25 26  1  0  0  0  0
 25 50  1  0  0  0  0
 25 51  1  0  0  0  0
 26 27  1  0  0  0  0
 26 52  1  0  0  0  0
 27 53  1  0  0  0  0
 27 54  1  0  0  0  0
 27 55  1  0  0  0  0
M  CHG  1   5   1
M  END
> <s_m_source_file>
AV-unprocessed.smi

> <i_m_source_file_index>
224

> <i_lp_mmshare_version>
43012

> <i_f3d_flags>
0

> <s_epik_input>
W0NIM11bQ0BIXShbT0hdKVtDSDJdTjFbQ0gyXVtDSDJdTihbQ0gyXVtDQEhdMVtDSDNdKWMobltjSF1uMiljKGMyMyluW2NIXW4zW0NIMl1bQ0BAXTQoW09IXSlbQ0gyXVtDSDJdT1tDSDJdNA==

> <s_epik_cmdline>
J2VwaWtfcHl0aG9uJywgJy1waCcsICc3LjAnLCAnLXRuJywgJzgnLCAnLW1hJywgJzIwMCcsICctbWV0YWxfYmluZGluZycsICctaW1hZScsICc8aW5maWxlLm1hZT4nLCAnLW9tYWUnLCAnPG91dGZpbGUubWFlPic=

> <r_lp_tautomer_probability>
1

> <r_epik_Ionization_Penalty>
0.00516958

> <r_epik_Ionization_Penalty_Charging>
0.00509693

> <r_epik_Ionization_Penalty_Neutral>
7.26542e-05

> <r_epik_State_Penalty>
-0

> <r_epik_Charging_Adjusted_Penalty>
0.00509693

> <i_epik_Tot_Q>
1

> <i_epik_Tot_abs_Q>
1

> <r_epik_Metal_State_Penalty>
-0

> <b_epik_Metal_Only>
0

> <s_lp_Force_Field>
OPLS_2005

> <r_lp_Energy>
49.0033

> <b_lp_Chiralities_Consistent>
1

> <s_lp_Variant>
AV-unprocessed.smi:224-12

> <Gold.Version>
5.8.1

> <Gold.Id.Protein>
6NUR|6NUR_protein|mol2

> <Gold.PLP.Fitness>
49.1721

> <Gold.PLP.PLP>
-34.4545

> <Gold.PLP.part.hbond>
-5.7918

> <Gold.PLP.part.metal>
0.0000

> <Gold.PLP.part.buried>
-6.8885

> <Gold.PLP.part.nonpolar>
-21.1074

> <Gold.PLP.part.repulsive>
0.3694

> <Gold.PLP.ligand.clash>
0.0000

> <Gold.PLP.ligand.torsion>
1.5227

> <Gold.PLP.Chemscore.Hbond>
4.7520

> <Gold.PLP.Chemscore.CHOScore>
1.0000

> <Gold.PLP.Chemscore.Metal>
0.0000

> <Gold.Chemscore.Hbonds>
donor molecule, donor type, donor heavy atom, donor atom, acceptor molecule, acceptor atom, score
      L1  H     3    32       P1  7921  1.00
      L1  H     5    56       P1 10957  2.00
      P1  H  7989  7998       L1    20  1.00
      P1  H 10752 10765       L1    23  0.72
      L1  C    11    39       P1 10175  0.98

> <Gold.PLP.Chemscore.Internal.Correction>
0.5071

> <Gold.Rescore>
     Score         DG    S(hbond)    S(metal)    S(lipo)     H(rot)  DE(clash)    DE(int)     intcor
     15.92     -17.60       3.75        0.00      70.09       3.36       0.06       1.61       ----

> <Gold.Chemscore.Fitness>
15.9210

> <Gold.Chemscore.DG>
-17.5979

> <Gold.Chemscore.ZeroCoef>
-5.4800

> <Gold.Chemscore.Hbond>
3.7490

> <Gold.Chemscore.Metal>
0.0000

> <Gold.Chemscore.Lipo>
70.0922

> <Gold.Chemscore.Internal_Hbond>
0.0000

> <Gold.Chemscore.DEClash>
0.0632

> <Gold.Chemscore.DEInternal>
1.6137

> <Gold.Chemscore.Rot>
3.3611

> <Gold.Chemscore.Internal.Correction>
   9.000000E+99

> <Gold.Chemscore.Hbonds>
donor molecule, donor type, donor heavy atom, donor atom, acceptor molecule, acceptor atom, score
      L1  H     3    32       P1  7921  0.95
      L1  H     5    56       P1 10957  0.92
      P1  H  7989  7998       L1    20  0.58
      P1  H 10752 10765       L1    23  0.70

> <Gold.Chemscore.Hbond.Weighted>
-12.5217

> <Gold.Chemscore.Metal.Weighted>
-0.0000

> <Gold.Chemscore.Lipo.Weighted>
-8.2008

> <Gold.Chemscore.Internal_Hbond.Weighted>
0.0000

> <Gold.Chemscore.DEClash.Weighted>
0.0632

> <Gold.Chemscore.DEInternal.Weighted>
1.6137

> <Gold.Chemscore.Rot.Weighted>
8.6045

> <Gold.Chemscore.Internal.Correction.Weighted>
   9.000000E+99

> <Gold.Protein.RotatedTorsions>
[ 6907 6896 6895 6894 ] final  101.19 input  -60.11 | X-H torsion
[ 7974 7965 7964 7962 ] final   66.32 input  175.53 | X-H torsion
[ 8008 7997 7996 7995 ] final -166.19 input   59.86 | X-H torsion
[ 10167 10162 10161 10158 ] final  125.99 input  -65.29 | X-H torsion
[ 10718 10713 10712 10709 ] final  -60.19 input   66.30 | X-H torsion
[ 10763 10752 10751 10750 ] final  157.55 input  -60.55 | X-H torsion
[ 11005 11000 10999 10996 ] final  -14.76 input  -57.11 | X-H torsion

> <Gold.Protein.ActiveResidues>
 VAL166  LYS551  ARG553  GLY616  TRP617  ASP618  TYR619  PRO620  LYS621  CYS622 
 ASP623  PHE694  ASN695  SER759  ASP760  ASP761  ALA762  ILE779  LEU786  VAL792 
 PHE793  MET794  SER795  GLU796  ALA797  LYS798  CYS799  TRP800  GLU811  SER814 

> <Gold.Protein.RotatedAtoms>
  152.5355  134.0164  159.7961 H   0  0  0  0  0  0  0  0  0  0  0  0  # atno 6907 bound_to 6896
  151.0357  133.5742  159.2663 H   0  0  0  0  0  0  0  0  0  0  0  0  # atno 6908 bound_to 6896
  151.2730  135.0698  159.9195 H   0  0  0  0  0  0  0  0  0  0  0  0  # atno 6909 bound_to 6896
  145.8280  139.3123  143.1004 H   0  0  0  0  0  0  0  0  0  0  0  0  # atno 7974 bound_to 7965
  155.8603  140.0977  157.1617 H   0  0  0  0  0  0  0  0  0  0  0  0  # atno 8008 bound_to 7997
  154.3990  140.1366  156.4015 H   0  0  0  0  0  0  0  0  0  0  0  0  # atno 8009 bound_to 7997
  155.7864  140.3457  155.5327 H   0  0  0  0  0  0  0  0  0  0  0  0  # atno 8010 bound_to 7997
  139.5655  144.6909  151.3921 H   0  0  0  0  0  0  0  0  0  0  0  0  # atno 10167 bound_to 10162
  156.1008  130.4186  150.0819 H   0  0  0  0  0  0  0  0  0  0  0  0  # atno 10718 bound_to 10713
  154.2020  135.2790  155.2987 H   0  0  0  0  0  0  0  0  0  0  0  0  # atno 10763 bound_to 10752
  154.5846  135.5579  153.7222 H   0  0  0  0  0  0  0  0  0  0  0  0  # atno 10764 bound_to 10752
  153.0085  135.6353  154.2159 H   0  0  0  0  0  0  0  0  0  0  0  0  # atno 10765 bound_to 10752
  140.7898  133.8297  155.9368 H   0  0  0  0  0  0  0  0  0  0  0  0  # atno 11005 bound_to 11000
  145.9602  140.8841  143.0215 LP  0  0  0  0  0  0  0  0  0  0  0  0  # atno 17320 bound_to 7965
  144.6742  140.1801  143.7406 LP  0  0  0  0  0  0  0  0  0  0  0  0  # atno 17321 bound_to 7965
  140.6939  143.7797  150.7296 LP  0  0  0  0  0  0  0  0  0  0  0  0  # atno 17342 bound_to 10162
  140.1287  143.4545  152.2268 LP  0  0  0  0  0  0  0  0  0  0  0  0  # atno 17343 bound_to 10162
  156.8807  130.9555  151.3599 LP  0  0  0  0  0  0  0  0  0  0  0  0  # atno 17370 bound_to 10713
  157.6178  130.8631  149.9057 LP  0  0  0  0  0  0  0  0  0  0  0  0  # atno 17371 bound_to 10713
  140.9401  134.1912  157.4803 LP  0  0  0  0  0  0  0  0  0  0  0  0  # atno 17394 bound_to 11000
  139.8732  134.9868  156.5341 LP  0  0  0  0  0  0  0  0  0  0  0  0  # atno 17395 bound_to 11000

$$$$
