AV-unprocessed.smi:218|AV-procd|sdf|1669|dock2
  -GOLD-   2262020 83D 1   1.00000     0.00000
 Structure written by MMmdl.
 54 57  0  0  0  0  0  0  0  0  1 V2000
  151.3080  141.2298  159.0356 C   0  0  0  0  0  0  0  0  0  0  0  0
  151.4931  142.3733  158.0309 C   0  0  0  0  0  0  0  0  0  0  0  0
  151.8866  143.6801  158.7410 C   0  0  0  0  0  0  0  0  0  0  0  0
  150.2471  142.5323  157.3490 O   0  0  0  0  0  0  0  0  0  0  0  0
  149.8686  141.6287  156.3746 C   0  0  0  0  0  0  0  0  0  0  0  0
  148.6254  141.8156  155.7361 C   0  0  0  0  0  0  0  0  0  0  0  0
  148.2234  140.8969  154.7452 C   0  0  0  0  0  0  0  0  0  0  0  0
  146.8978  141.0631  154.0329 C   0  0  0  0  0  0  0  0  0  0  0  0
  146.6731  140.0481  153.0133 N   0  0  0  0  0  0  0  0  0  0  0  0
  146.0668  138.8867  153.3387 C   0  0  0  0  0  0  0  0  0  0  0  0
  145.4670  138.7244  154.5475 N   0  0  0  0  0  0  0  0  0  0  0  0
  144.8714  137.5660  154.8470 C   0  0  0  0  0  0  0  0  0  0  0  0
  144.7625  136.4666  154.0984 N   0  0  0  0  0  0  0  0  0  0  0  0
  145.3656  136.6241  152.8849 C   0  0  0  0  0  0  0  0  0  0  0  0
  146.0326  137.7958  152.4319 C   0  0  0  0  0  0  0  0  0  0  0  0
  146.5192  137.5924  151.1470 N   0  0  0  0  0  0  0  0  0  0  0  0
  146.1577  136.3699  150.8618 C   0  0  0  0  0  0  0  0  0  0  0  0
  145.4542  135.7164  151.8494 N   0  0  0  0  0  0  0  0  0  0  0  0
  144.9175  134.3180  151.8234 C   0  0  1  0  0  0  0  0  0  0  0  0
  144.1027  134.2026  150.6989 O   0  0  0  0  0  0  0  0  0  0  0  0
  144.3017  132.9246  150.1182 C   0  0  1  0  0  0  0  0  0  0  0  0
  143.8098  132.8951  148.6595 C   0  0  0  0  0  0  0  0  0  0  0  0
  142.6149  132.1567  148.5105 O   0  0  0  0  0  0  0  0  0  0  0  0
  145.7798  132.6051  150.3655 C   0  0  2  0  0  0  0  0  0  0  0  0
  145.9800  131.2068  150.4162 O   0  0  0  0  0  0  0  0  0  0  0  0
  146.0234  133.2354  151.7332 C   0  0  1  0  0  0  0  0  0  0  0  0
  147.3462  133.7314  151.8355 O   0  0  0  0  0  0  0  0  0  0  0  0
  149.0826  139.8263  154.4275 C   0  0  0  0  0  0  0  0  0  0  0  0
  150.3043  139.7215  155.1198 C   0  0  0  0  0  0  0  0  0  0  0  0
  150.6939  140.5957  156.0716 N   0  0  0  0  0  0  0  0  0  0  0  0
  144.3219  134.2334  152.7333 H   0  0  0  0  0  0  0  0  0  0  0  0
  143.6855  132.2368  150.7012 H   0  0  0  0  0  0  0  0  0  0  0  0
  146.4205  133.0602  149.6094 H   0  0  0  0  0  0  0  0  0  0  0  0
  145.8427  132.5160  152.5335 H   0  0  0  0  0  0  0  0  0  0  0  0
  152.2263  141.0434  159.5930 H   0  0  0  0  0  0  0  0  0  0  0  0
  151.0365  140.3048  158.5264 H   0  0  0  0  0  0  0  0  0  0  0  0
  150.5202  141.4578  159.7541 H   0  0  0  0  0  0  0  0  0  0  0  0
  152.2827  142.0706  157.3416 H   0  0  0  0  0  0  0  0  0  0  0  0
  152.8169  143.5570  159.2959 H   0  0  0  0  0  0  0  0  0  0  0  0
  151.1167  143.9909  159.4476 H   0  0  0  0  0  0  0  0  0  0  0  0
  152.0350  144.4964  158.0347 H   0  0  0  0  0  0  0  0  0  0  0  0
  147.9921  142.6486  156.0041 H   0  0  0  0  0  0  0  0  0  0  0  0
  146.0883  141.0291  154.7632 H   0  0  0  0  0  0  0  0  0  0  0  0
  146.8749  142.0518  153.5727 H   0  0  0  0  0  0  0  0  0  0  0  0
  147.0201  140.2585  152.0884 H   0  0  0  0  0  0  0  0  0  0  0  0
  144.4171  137.5105  155.8253 H   0  0  0  0  0  0  0  0  0  0  0  0
  146.3950  135.9086  149.9142 H   0  0  0  0  0  0  0  0  0  0  0  0
  143.6148  133.9123  148.3198 H   0  0  0  0  0  0  0  0  0  0  0  0
  144.5779  132.4829  148.0047 H   0  0  0  0  0  0  0  0  0  0  0  0
  141.8860  132.7185  148.7253 H   0  0  0  0  0  0  0  0  0  0  0  0
  146.9075  131.0373  150.3491 H   0  0  0  0  0  0  0  0  0  0  0  0
  147.4818  134.3566  151.1392 H   0  0  0  0  0  0  0  0  0  0  0  0
  148.8163  139.1018  153.6720 H   0  0  0  0  0  0  0  0  0  0  0  0
  150.9877  138.9139  154.9032 H   0  0  0  0  0  0  0  0  0  0  0  0
  1  2  1  0  0  0  0
  1 35  1  0  0  0  0
  1 36  1  0  0  0  0
  1 37  1  0  0  0  0
  2  3  1  0  0  0  0
  2  4  1  0  0  0  0
  2 38  1  0  0  0  0
  3 39  1  0  0  0  0
  3 40  1  0  0  0  0
  3 41  1  0  0  0  0
  4  5  1  0  0  0  0
  5 30  1  0  0  0  0
  5  6  2  0  0  0  0
  6  7  1  0  0  0  0
  6 42  1  0  0  0  0
  7  8  1  0  0  0  0
  7 28  2  0  0  0  0
  8  9  1  0  0  0  0
  8 43  1  0  0  0  0
  8 44  1  0  0  0  0
  9 10  1  0  0  0  0
  9 45  1  0  0  0  0
 10 15  1  0  0  0  0
 10 11  2  0  0  0  0
 11 12  1  0  0  0  0
 12 13  2  0  0  0  0
 12 46  1  0  0  0  0
 13 14  1  0  0  0  0
 14 18  1  0  0  0  0
 14 15  2  0  0  0  0
 15 16  1  0  0  0  0
 16 17  2  0  0  0  0
 17 18  1  0  0  0  0
 17 47  1  0  0  0  0
 18 19  1  0  0  0  0
 19 31  1  0  0  0  0
 19 26  1  0  0  0  0
 19 20  1  0  0  0  0
 20 21  1  0  0  0  0
 21 32  1  0  0  0  0
 21 22  1  0  0  0  0
 21 24  1  0  0  0  0
 22 23  1  0  0  0  0
 22 48  1  0  0  0  0
 22 49  1  0  0  0  0
 23 50  1  0  0  0  0
 24 33  1  0  0  0  0
 24 25  1  0  0  0  0
 24 26  1  0  0  0  0
 25 51  1  0  0  0  0
 26 34  1  0  0  0  0
 26 27  1  0  0  0  0
 27 52  1  0  0  0  0
 28 29  1  0  0  0  0
 28 53  1  0  0  0  0
 29 30  2  0  0  0  0
 29 54  1  0  0  0  0
M  END
> <s_m_source_file>
AV-unprocessed.smi

> <i_m_source_file_index>
218

> <i_lp_mmshare_version>
43012

> <i_f3d_flags>
0

> <s_epik_input>
W0NIM11bQ0hdKFtDSDNdKU9jMVtjSF1jKFtjSF1bY0hdbjEpW0NIMl1bTkhdYyhuW2NIXW4yKWMoYzIzKW5bY0hdbjNbQ0BASF00T1tDQEhdKFtDSDJdW09IXSlbQ0BASF0oW09IXSlbQ0BIXTRbT0hd

> <s_epik_cmdline>
J2VwaWtfcHl0aG9uJywgJy1waCcsICc3LjAnLCAnLXRuJywgJzgnLCAnLW1hJywgJzIwMCcsICctbWV0YWxfYmluZGluZycsICctaW1hZScsICc8aW5maWxlLm1hZT4nLCAnLW9tYWUnLCAnPG91dGZpbGUubWFlPic=

> <r_lp_tautomer_probability>
1

> <r_epik_Ionization_Penalty>
0.00457014

> <r_epik_Ionization_Penalty_Charging>
0

> <r_epik_Ionization_Penalty_Neutral>
0.00457014

> <r_epik_State_Penalty>
-0

> <r_epik_Charging_Adjusted_Penalty>
0

> <i_epik_Tot_Q>
0

> <i_epik_Tot_abs_Q>
0

> <r_epik_Metal_State_Penalty>
-0

> <b_epik_Metal_Only>
0

> <s_epik_Chemistry_Notes>
This compound contains an acetal/aminal-like group ( X-CH(R)-Y where X, Y are N, S, or O) that may be acid/base labile, releasing an aldehyde.

> <s_lp_Force_Field>
OPLS_2005

> <r_lp_Energy>
42.4644

> <b_lp_Chiralities_Consistent>
1

> <s_lp_Variant>
AV-unprocessed.smi:218-8

> <Gold.Version>
5.8.1

> <Gold.Id.Protein>
6NUR|6NUR_protein|mol2

> <Gold.PLP.Fitness>
57.3499

> <Gold.PLP.PLP>
-44.3207

> <Gold.PLP.part.hbond>
-6.6597

> <Gold.PLP.part.metal>
0.0000

> <Gold.PLP.part.buried>
-2.1977

> <Gold.PLP.part.nonpolar>
-39.3930

> <Gold.PLP.part.repulsive>
3.6635

> <Gold.PLP.ligand.clash>
0.0000

> <Gold.PLP.ligand.torsion>
1.0625

> <Gold.PLP.Chemscore.Hbond>
3.9316

> <Gold.PLP.Chemscore.CHOScore>
1.0000

> <Gold.PLP.Chemscore.Metal>
0.0000

> <Gold.Chemscore.Hbonds>
donor molecule, donor type, donor heavy atom, donor atom, acceptor molecule, acceptor atom, score
      L1  H    23    50       P1 10186  0.93
      L1  H    25    51       P1 10747  0.91
      L1  H    27    52       P1  7948  0.01
      P1  H  7954  7966       L1    16  0.86
      P1  H 10785 10796       L1    23  0.78
      L1  C    17    47       P1  7921  1.00

> <Gold.PLP.Chemscore.Internal.Correction>
0.3596

> <Gold.Rescore>
     Score         DG    S(hbond)    S(metal)    S(lipo)     H(rot)  DE(clash)    DE(int)     intcor
      9.05     -14.11       2.57        0.00     107.73       4.90       3.64       1.42       ----

> <Gold.Chemscore.Fitness>
9.0495

> <Gold.Chemscore.DG>
-14.1060

> <Gold.Chemscore.ZeroCoef>
-5.4800

> <Gold.Chemscore.Hbond>
2.5669

> <Gold.Chemscore.Metal>
0.0000

> <Gold.Chemscore.Lipo>
107.7263

> <Gold.Chemscore.Internal_Hbond>
0.0000

> <Gold.Chemscore.DEClash>
3.6367

> <Gold.Chemscore.DEInternal>
1.4198

> <Gold.Chemscore.Rot>
4.9029

> <Gold.Chemscore.Internal.Correction>
   9.000000E+99

> <Gold.Chemscore.Hbonds>
donor molecule, donor type, donor heavy atom, donor atom, acceptor molecule, acceptor atom, score
      L1  H    23    50       P1 10186  0.87
      L1  H    25    51       P1 10747  0.87
      P1  H  7954  7966       L1    16  0.29
      P1  H 10785 10796       L1    23  0.37

> <Gold.Chemscore.Hbond.Weighted>
-8.5736

> <Gold.Chemscore.Metal.Weighted>
-0.0000

> <Gold.Chemscore.Lipo.Weighted>
-12.6040

> <Gold.Chemscore.Internal_Hbond.Weighted>
0.0000

> <Gold.Chemscore.DEClash.Weighted>
3.6367

> <Gold.Chemscore.DEInternal.Weighted>
1.4198

> <Gold.Chemscore.Rot.Weighted>
12.5515

> <Gold.Chemscore.Internal.Correction.Weighted>
   9.000000E+99

> <Gold.Protein.RotatedTorsions>
[ 6907 6896 6895 6894 ] final  159.24 input  -60.11 | X-H torsion
[ 7974 7965 7964 7962 ] final  158.24 input  175.53 | X-H torsion
[ 8008 7997 7996 7995 ] final  -32.27 input   59.86 | X-H torsion
[ 10167 10162 10161 10158 ] final  -81.75 input  -65.29 | X-H torsion
[ 10718 10713 10712 10709 ] final  107.16 input   66.30 | X-H torsion
[ 10763 10752 10751 10750 ] final  -40.26 input  -60.55 | X-H torsion
[ 11005 11000 10999 10996 ] final   20.04 input  -57.11 | X-H torsion

> <Gold.Protein.ActiveResidues>
 VAL166  LYS551  ARG553  GLY616  TRP617  ASP618  TYR619  PRO620  LYS621  CYS622 
 ASP623  PHE694  ASN695  SER759  ASP760  ASP761  ALA762  ILE779  LEU786  VAL792 
 PHE793  MET794  SER795  GLU796  ALA797  LYS798  CYS799  TRP800  GLU811  SER814 

> <Gold.Protein.RotatedAtoms>
  151.9884  133.3782  159.4134 H   0  0  0  0  0  0  0  0  0  0  0  0  # atno 6907 bound_to 6896
  150.6925  134.3963  159.5108 H   0  0  0  0  0  0  0  0  0  0  0  0  # atno 6908 bound_to 6896
  152.1692  134.8848  160.0586 H   0  0  0  0  0  0  0  0  0  0  0  0  # atno 6909 bound_to 6896
  144.7857  139.7451  143.6242 H   0  0  0  0  0  0  0  0  0  0  0  0  # atno 7974 bound_to 7965
  154.4185  140.1742  156.1700 H   0  0  0  0  0  0  0  0  0  0  0  0  # atno 8008 bound_to 7997
  155.9768  140.3381  155.6602 H   0  0  0  0  0  0  0  0  0  0  0  0  # atno 8009 bound_to 7997
  155.6553  140.0695  157.2563 H   0  0  0  0  0  0  0  0  0  0  0  0  # atno 8010 bound_to 7997
  140.4383  143.2524  151.8662 H   0  0  0  0  0  0  0  0  0  0  0  0  # atno 10167 bound_to 10162
  157.6640  131.0866  150.6114 H   0  0  0  0  0  0  0  0  0  0  0  0  # atno 10718 bound_to 10713
  153.9430  135.6759  153.4744 H   0  0  0  0  0  0  0  0  0  0  0  0  # atno 10763 bound_to 10752
  153.0922  135.4869  154.8708 H   0  0  0  0  0  0  0  0  0  0  0  0  # atno 10764 bound_to 10752
  154.7367  135.3151  154.8758 H   0  0  0  0  0  0  0  0  0  0  0  0  # atno 10765 bound_to 10752
  140.4070  134.1658  155.7665 H   0  0  0  0  0  0  0  0  0  0  0  0  # atno 11005 bound_to 11000
  146.2087  139.5429  142.9695 LP  0  0  0  0  0  0  0  0  0  0  0  0  # atno 17320 bound_to 7965
  145.5929  141.0367  143.2060 LP  0  0  0  0  0  0  0  0  0  0  0  0  # atno 17321 bound_to 7965
  139.4788  144.5258  151.8737 LP  0  0  0  0  0  0  0  0  0  0  0  0  # atno 17342 bound_to 10162
  140.4348  144.2067  150.5889 LP  0  0  0  0  0  0  0  0  0  0  0  0  # atno 17343 bound_to 10162
  156.6416  130.4460  149.5750 LP  0  0  0  0  0  0  0  0  0  0  0  0  # atno 17370 bound_to 10713
  156.2205  130.6734  151.1363 LP  0  0  0  0  0  0  0  0  0  0  0  0  # atno 17371 bound_to 10713
  141.1835  133.8362  157.1171 LP  0  0  0  0  0  0  0  0  0  0  0  0  # atno 17394 bound_to 11000
  140.0295  134.9908  157.0752 LP  0  0  0  0  0  0  0  0  0  0  0  0  # atno 17395 bound_to 11000

$$$$
