AV-unprocessed.smi:2597|AV-procd|sdf|10170|dock7
  -GOLD-   2272014183D 1   1.00000     0.00000
 Structure written by MMmdl.
 31 32  0  0  0  0  0  0  0  0  2 V2000
  142.3718  133.3225  151.5175 N   0  3  0  0  0  0  0  0  0  0  0  0
  143.6590  132.6771  151.1963 C   0  0  1  0  0  0  0  0  0  0  0  0
  143.9667  132.7761  149.6882 C   0  0  0  0  0  0  0  0  0  0  0  0
  145.3036  132.0993  149.3464 C   0  0  0  0  0  0  0  0  0  0  0  0
  146.4601  132.6738  150.1790 C   0  0  0  0  0  0  0  0  0  0  0  0
  146.1661  132.5857  151.6885 C   0  0  0  0  0  0  0  0  0  0  0  0
  144.8097  133.2086  152.0941 C   0  0  1  0  0  0  0  0  0  0  0  0
  144.8646  134.6681  152.1938 N   0  0  0  0  0  0  0  0  0  0  0  0
  145.9586  135.4812  151.9728 C   0  0  0  0  0  0  0  0  0  0  0  0
  145.4849  136.7389  152.2165 C   0  0  0  0  0  0  0  0  0  0  0  0
  146.2018  138.0528  152.1542 C   0  0  0  0  0  0  0  0  0  0  0  0
  146.5986  138.2341  150.8120 O   0  0  0  0  0  0  0  0  0  0  0  0
  144.1397  136.6462  152.5649 N   0  0  0  0  0  0  0  0  0  0  0  0
  143.7792  135.4029  152.5436 N   0  0  0  0  0  0  0  0  0  0  0  0
  143.5296  131.6189  151.4277 H   0  0  0  0  0  0  0  0  0  0  0  0
  144.6030  132.8579  153.1066 H   0  0  0  0  0  0  0  0  0  0  0  0
  141.8502  133.4736  150.6656 H   0  0  0  0  0  0  0  0  0  0  0  0
  142.5419  134.2105  151.9678 H   0  0  0  0  0  0  0  0  0  0  0  0
  143.1684  132.3006  149.1171 H   0  0  0  0  0  0  0  0  0  0  0  0
  143.9864  133.8156  149.3621 H   0  0  0  0  0  0  0  0  0  0  0  0
  145.2246  131.0266  149.5276 H   0  0  0  0  0  0  0  0  0  0  0  0
  145.5182  132.2164  148.2837 H   0  0  0  0  0  0  0  0  0  0  0  0
  147.3775  132.1287  149.9546 H   0  0  0  0  0  0  0  0  0  0  0  0
  146.6502  133.7056  149.8861 H   0  0  0  0  0  0  0  0  0  0  0  0
  146.1633  131.5331  151.9749 H   0  0  0  0  0  0  0  0  0  0  0  0
  146.9772  133.0457  152.2545 H   0  0  0  0  0  0  0  0  0  0  0  0
  146.9328  135.1163  151.6820 H   0  0  0  0  0  0  0  0  0  0  0  0
  145.5512  138.8727  152.4586 H   0  0  0  0  0  0  0  0  0  0  0  0
  147.0800  138.0660  152.8005 H   0  0  0  0  0  0  0  0  0  0  0  0
  145.8230  138.3379  150.2820 H   0  0  0  0  0  0  0  0  0  0  0  0
  141.8398  132.7274  152.1364 H   0  0  0  0  0  0  0  0  0  0  0  0
  1  2  1  0  0  0  0
  1 17  1  0  0  0  0
  1 18  1  0  0  0  0
  1 31  1  0  0  0  0
  2 15  1  0  0  0  0
  2  7  1  0  0  0  0
  2  3  1  0  0  0  0
  3  4  1  0  0  0  0
  3 19  1  0  0  0  0
  3 20  1  0  0  0  0
  4  5  1  0  0  0  0
  4 21  1  0  0  0  0
  4 22  1  0  0  0  0
  5  6  1  0  0  0  0
  5 23  1  0  0  0  0
  5 24  1  0  0  0  0
  6  7  1  0  0  0  0
  6 25  1  0  0  0  0
  6 26  1  0  0  0  0
  7 16  1  0  0  0  0
  7  8  1  0  0  0  0
  8 14  1  0  0  0  0
  8  9  1  0  0  0  0
  9 10  2  0  0  0  0
  9 27  1  0  0  0  0
 10 11  1  0  0  0  0
 10 13  1  0  0  0  0
 11 12  1  0  0  0  0
 11 28  1  0  0  0  0
 11 29  1  0  0  0  0
 12 30  1  0  0  0  0
 13 14  2  0  0  0  0
M  CHG  1   1   1
M  END
> <s_m_source_file>
AV-unprocessed.smi

> <i_m_source_file_index>
2597

> <i_lp_mmshare_version>
43012

> <i_f3d_flags>
0

> <s_epik_input>
W05IMl1bQ0BIXTFbQ0gyXVtDSDJdW0NIMl1bQ0gyXVtDQEhdMW4yW2NIXWMobm4yKVtDSDJdW09IXQ==

> <s_epik_cmdline>
J2VwaWtfcHl0aG9uJywgJy1waCcsICc3LjAnLCAnLXRuJywgJzgnLCAnLW1hJywgJzIwMCcsICctbWV0YWxfYmluZGluZycsICctaW1hZScsICc8aW5maWxlLm1hZT4nLCAnLW9tYWUnLCAnPG91dGZpbGUubWFlPic=

> <r_lp_tautomer_probability>
1

> <r_epik_Ionization_Penalty>
0.014346

> <r_epik_Ionization_Penalty_Charging>
0.014316

> <r_epik_Ionization_Penalty_Neutral>
3.00097e-05

> <r_epik_State_Penalty>
0.0111909

> <r_epik_Charging_Adjusted_Penalty>
0.0255069

> <i_epik_Tot_Q>
1

> <i_epik_Tot_abs_Q>
1

> <r_epik_Metal_State_Penalty>
0.011192

> <b_epik_Metal_Only>
0

> <s_lp_Force_Field>
OPLS_2005

> <r_lp_Energy>
16.1833

> <b_lp_Chiralities_Consistent>
1

> <s_lp_Variant>
AV-unprocessed.smi:2597-1

> <Gold.Version>
5.8.1

> <Gold.Id.Protein>
6NUR|6NUR_protein|mol2

> <Gold.PLP.Fitness>
42.7318

> <Gold.PLP.PLP>
-27.9020

> <Gold.PLP.part.hbond>
-3.3735

> <Gold.PLP.part.metal>
0.0000

> <Gold.PLP.part.buried>
-2.9369

> <Gold.PLP.part.nonpolar>
-22.0582

> <Gold.PLP.part.repulsive>
0.3026

> <Gold.PLP.ligand.clash>
0.0000

> <Gold.PLP.ligand.torsion>
0.0723

> <Gold.PLP.Chemscore.Hbond>
4.0000

> <Gold.PLP.Chemscore.CHOScore>
0.9698

> <Gold.PLP.Chemscore.Metal>
0.0000

> <Gold.Chemscore.Hbonds>
donor molecule, donor type, donor heavy atom, donor atom, acceptor molecule, acceptor atom, score
      L1  H     1    17       P1 10186  2.00
      L1  H    12    30       P1 10171  1.00
      P1  H  7954  7966       L1    12  1.00
      L1  C     9    27       P1  7948  0.97

> <Gold.PLP.Chemscore.Internal.Correction>
0.0650

> <Gold.Rescore>
     Score         DG    S(hbond)    S(metal)    S(lipo)     H(rot)  DE(clash)    DE(int)     intcor
     16.51     -18.18       2.78        0.00      69.86       1.86       0.15       1.52       ----

> <Gold.Chemscore.Fitness>
16.5063

> <Gold.Chemscore.DG>
-18.1828

> <Gold.Chemscore.ZeroCoef>
-5.4800

> <Gold.Chemscore.Hbond>
2.7780

> <Gold.Chemscore.Metal>
0.0000

> <Gold.Chemscore.Lipo>
69.8577

> <Gold.Chemscore.Internal_Hbond>
0.0000

> <Gold.Chemscore.DEClash>
0.1521

> <Gold.Chemscore.DEInternal>
1.5244

> <Gold.Chemscore.Rot>
1.8551

> <Gold.Chemscore.Internal.Correction>
   9.000000E+99

> <Gold.Chemscore.Hbonds>
donor molecule, donor type, donor heavy atom, donor atom, acceptor molecule, acceptor atom, score
      L1  H     1    17       P1 10186  0.86
      L1  H    12    30       P1 10171  0.96
      P1  H  7954  7966       L1    12  0.87

> <Gold.Chemscore.Hbond.Weighted>
-9.2784

> <Gold.Chemscore.Metal.Weighted>
-0.0000

> <Gold.Chemscore.Lipo.Weighted>
-8.1734

> <Gold.Chemscore.Internal_Hbond.Weighted>
0.0000

> <Gold.Chemscore.DEClash.Weighted>
0.1521

> <Gold.Chemscore.DEInternal.Weighted>
1.5244

> <Gold.Chemscore.Rot.Weighted>
4.7489

> <Gold.Chemscore.Internal.Correction.Weighted>
   9.000000E+99

> <Gold.Protein.RotatedTorsions>
[ 6907 6896 6895 6894 ] final   81.50 input  -60.11 | X-H torsion
[ 7974 7965 7964 7962 ] final  164.91 input  175.53 | X-H torsion
[ 8008 7997 7996 7995 ] final -145.31 input   59.86 | X-H torsion
[ 10167 10162 10161 10158 ] final  -79.02 input  -65.29 | X-H torsion
[ 10718 10713 10712 10709 ] final  -96.42 input   66.30 | X-H torsion
[ 10763 10752 10751 10750 ] final -152.40 input  -60.55 | X-H torsion
[ 11005 11000 10999 10996 ] final -136.32 input  -57.11 | X-H torsion

> <Gold.Protein.ActiveResidues>
 VAL166  LYS551  ARG553  GLY616  TRP617  ASP618  TYR619  PRO620  LYS621  CYS622 
 ASP623  PHE694  ASN695  SER759  ASP760  ASP761  ALA762  ILE779  LEU786  VAL792 
 PHE793  MET794  SER795  GLU796  ALA797  LYS798  CYS799  TRP800  GLU811  SER814 

> <Gold.Protein.RotatedAtoms>
  152.5270  134.3195  159.9142 H   0  0  0  0  0  0  0  0  0  0  0  0  # atno 6907 bound_to 6896
  151.3144  133.4060  159.2657 H   0  0  0  0  0  0  0  0  0  0  0  0  # atno 6908 bound_to 6896
  151.0011  134.9340  159.8012 H   0  0  0  0  0  0  0  0  0  0  0  0  # atno 6909 bound_to 6896
  144.7525  139.8394  143.6361 H   0  0  0  0  0  0  0  0  0  0  0  0  # atno 7974 bound_to 7965
  155.5411  140.0608  157.2870 H   0  0  0  0  0  0  0  0  0  0  0  0  # atno 8008 bound_to 7997
  154.4452  140.1919  156.0635 H   0  0  0  0  0  0  0  0  0  0  0  0  # atno 8009 bound_to 7997
  156.0584  140.3275  155.7436 H   0  0  0  0  0  0  0  0  0  0  0  0  # atno 8010 bound_to 7997
  140.4631  143.2448  151.8319 H   0  0  0  0  0  0  0  0  0  0  0  0  # atno 10167 bound_to 10162
  156.0062  130.5151  150.6224 H   0  0  0  0  0  0  0  0  0  0  0  0  # atno 10718 bound_to 10713
  154.7996  135.3237  154.7582 H   0  0  0  0  0  0  0  0  0  0  0  0  # atno 10763 bound_to 10752
  153.8252  135.6884  153.4826 H   0  0  0  0  0  0  0  0  0  0  0  0  # atno 10764 bound_to 10752
  153.1706  135.4625  154.9840 H   0  0  0  0  0  0  0  0  0  0  0  0  # atno 10765 bound_to 10752
  140.8816  134.1924  157.4587 H   0  0  0  0  0  0  0  0  0  0  0  0  # atno 11005 bound_to 11000
  146.1493  139.4571  143.0059 LP  0  0  0  0  0  0  0  0  0  0  0  0  # atno 17320 bound_to 7965
  145.6895  141.0168  143.1563 LP  0  0  0  0  0  0  0  0  0  0  0  0  # atno 17321 bound_to 7965
  139.4808  144.4984  151.9093 LP  0  0  0  0  0  0  0  0  0  0  0  0  # atno 17342 bound_to 10162
  140.4069  144.2420  150.5890 LP  0  0  0  0  0  0  0  0  0  0  0  0  # atno 17343 bound_to 10162
  157.4037  131.0813  151.1285 LP  0  0  0  0  0  0  0  0  0  0  0  0  # atno 17370 bound_to 10713
  157.1939  130.6364  149.5714 LP  0  0  0  0  0  0  0  0  0  0  0  0  # atno 17371 bound_to 10713
  139.8720  134.9820  156.5138 LP  0  0  0  0  0  0  0  0  0  0  0  0  # atno 17394 bound_to 11000
  140.8454  133.8173  155.9116 LP  0  0  0  0  0  0  0  0  0  0  0  0  # atno 17395 bound_to 11000

$$$$
