AV-unprocessed.smi:2351|AV-procd|sdf|9377|dock5
  -GOLD-   2272013 03D 1   1.00000     0.00000
 Structure written by MMmdl.
 47 49  0  0  0  0  0  0  0  0  2 V2000
  149.5690  135.6798  158.3334 O   0  0  0  0  0  0  0  0  0  0  0  0
  148.6917  134.8397  158.1376 C   0  0  0  0  0  0  0  0  0  0  0  0
  147.8759  134.3273  159.0750 N   0  0  0  0  0  0  0  0  0  0  0  0
  147.7835  134.6505  160.4571 C   0  0  0  0  0  0  0  0  0  0  0  0
  147.8733  135.9641  160.9790 C   0  0  0  0  0  0  0  0  0  0  0  0
  147.7458  136.1477  162.3708 C   0  0  0  0  0  0  0  0  0  0  0  0
  147.5337  135.1363  163.2389 N   0  0  0  0  0  0  0  0  0  0  0  0
  147.4367  133.8872  162.7369 C   0  0  0  0  0  0  0  0  0  0  0  0
  147.5497  133.5943  161.3630 C   0  0  0  0  0  0  0  0  0  0  0  0
  147.4369  132.3168  160.9249 F   0  0  0  0  0  0  0  0  0  0  0  0
  148.4404  134.3047  156.9338 N   0  0  0  0  0  0  0  0  0  0  0  0
  149.1494  134.6327  155.6969 C   0  0  2  0  0  0  0  0  0  0  0  0
  148.6339  135.9421  155.0670 C   0  0  0  0  0  0  0  0  0  0  0  0
  147.2169  135.7836  154.4890 C   0  0  0  0  0  0  0  0  0  0  0  0
  147.1614  134.6767  153.4998 N   0  3  2  0  0  0  0  0  0  0  0  0
  145.8425  134.5976  152.8207 C   0  0  0  0  0  0  0  0  0  0  0  0
  145.6602  133.2897  152.0257 C   0  0  1  0  0  0  0  0  0  0  0  0
  144.2954  133.1558  151.3810 C   0  0  0  0  0  0  0  0  0  0  0  0
  144.5489  132.0924  150.3163 C   0  0  0  0  0  0  0  0  0  0  0  0
  145.9122  132.2448  149.9306 O   0  0  0  0  0  0  0  0  0  0  0  0
  146.5664  133.1627  150.8001 C   0  0  0  0  0  0  0  0  0  0  0  0
  147.5920  133.3863  154.1018 C   0  0  0  0  0  0  0  0  0  0  0  0
  149.0159  133.4860  154.6803 C   0  0  0  0  0  0  0  0  0  0  0  0
  147.2635  133.5843  158.7715 H   0  0  0  0  0  0  0  0  0  0  0  0
  148.0239  136.8281  160.3511 H   0  0  0  0  0  0  0  0  0  0  0  0
  147.8101  137.1374  162.7980 H   0  0  0  0  0  0  0  0  0  0  0  0
  147.2612  133.0970  163.4519 H   0  0  0  0  0  0  0  0  0  0  0  0
  147.7108  133.6099  156.8700 H   0  0  0  0  0  0  0  0  0  0  0  0
  150.2072  134.7498  155.9392 H   0  0  0  0  0  0  0  0  0  0  0  0
  148.6522  136.7550  155.7935 H   0  0  0  0  0  0  0  0  0  0  0  0
  149.3113  136.2426  154.2665 H   0  0  0  0  0  0  0  0  0  0  0  0
  146.4976  135.5981  155.2882 H   0  0  0  0  0  0  0  0  0  0  0  0
  146.9237  136.7195  154.0118 H   0  0  0  0  0  0  0  0  0  0  0  0
  145.0460  134.7115  153.5577 H   0  0  0  0  0  0  0  0  0  0  0  0
  145.7374  135.4355  152.1298 H   0  0  0  0  0  0  0  0  0  0  0  0
  145.8095  132.4221  152.6685 H   0  0  0  0  0  0  0  0  0  0  0  0
  143.5135  132.8709  152.0856 H   0  0  0  0  0  0  0  0  0  0  0  0
  144.0018  134.0936  150.9065 H   0  0  0  0  0  0  0  0  0  0  0  0
  144.4179  131.0942  150.7357 H   0  0  0  0  0  0  0  0  0  0  0  0
  143.8786  132.1915  149.4622 H   0  0  0  0  0  0  0  0  0  0  0  0
  146.6574  134.1191  150.2832 H   0  0  0  0  0  0  0  0  0  0  0  0
  147.5697  132.8210  151.0561 H   0  0  0  0  0  0  0  0  0  0  0  0
  146.8872  133.0947  154.8821 H   0  0  0  0  0  0  0  0  0  0  0  0
  147.5748  132.5938  153.3550 H   0  0  0  0  0  0  0  0  0  0  0  0
  149.7197  133.6498  153.8630 H   0  0  0  0  0  0  0  0  0  0  0  0
  149.3023  132.5383  155.1384 H   0  0  0  0  0  0  0  0  0  0  0  0
  147.8361  134.9087  152.7847 H   0  0  0  0  0  0  0  0  0  0  0  0
  1  2  2  0  0  0  0
  2  3  1  0  0  0  0
  2 11  1  0  0  0  0
  3  4  1  0  0  0  0
  3 24  1  0  0  0  0
  4  9  1  0  0  0  0
  4  5  2  0  0  0  0
  5  6  1  0  0  0  0
  5 25  1  0  0  0  0
  6  7  2  0  0  0  0
  6 26  1  0  0  0  0
  7  8  1  0  0  0  0
  8  9  2  0  0  0  0
  8 27  1  0  0  0  0
  9 10  1  0  0  0  0
 11 12  1  0  0  0  0
 11 28  1  0  0  0  0
 12 23  1  0  0  0  0
 12 13  1  0  0  0  0
 12 29  1  0  0  0  0
 13 14  1  0  0  0  0
 13 30  1  0  0  0  0
 13 31  1  0  0  0  0
 14 15  1  0  0  0  0
 14 32  1  0  0  0  0
 14 33  1  0  0  0  0
 15 16  1  0  0  0  0
 15 22  1  0  0  0  0
 15 47  1  0  0  0  0
 16 17  1  0  0  0  0
 16 34  1  0  0  0  0
 16 35  1  0  0  0  0
 17 21  1  0  0  0  0
 17 18  1  0  0  0  0
 17 36  1  0  0  0  0
 18 19  1  0  0  0  0
 18 37  1  0  0  0  0
 18 38  1  0  0  0  0
 19 20  1  0  0  0  0
 19 39  1  0  0  0  0
 19 40  1  0  0  0  0
 20 21  1  0  0  0  0
 21 41  1  0  0  0  0
 21 42  1  0  0  0  0
 22 23  1  0  0  0  0
 22 43  1  0  0  0  0
 22 44  1  0  0  0  0
 23 45  1  0  0  0  0
 23 46  1  0  0  0  0
M  CHG  1  15   1
M  END
> <s_m_source_file>
AV-unprocessed.smi

> <i_m_source_file_index>
2351

> <i_lp_mmshare_version>
43012

> <i_f3d_flags>
0

> <s_epik_input>
RmMxW2NIXW5bY0hdW2NIXWMxW05IXUMoPU8pW05IXVtDSF0yW0NIMl1bQ0gyXU4oW0NIMl1bQ0gyXTIpW0NIMl1bQ0BASF0zW0NIMl1bQ0gyXU9bQ0gyXTM=

> <s_epik_cmdline>
J2VwaWtfcHl0aG9uJywgJy1waCcsICc3LjAnLCAnLXRuJywgJzgnLCAnLW1hJywgJzIwMCcsICctbWV0YWxfYmluZGluZycsICctaW1hZScsICc8aW5maWxlLm1hZT4nLCAnLW9tYWUnLCAnPG91dGZpbGUubWFlPic=

> <r_epik_Ionization_Penalty>
0.0102464

> <r_epik_Ionization_Penalty_Charging>
0.00747775

> <r_epik_Ionization_Penalty_Neutral>
0.00276864

> <r_epik_State_Penalty>
0.00558817

> <r_epik_Charging_Adjusted_Penalty>
0.0130659

> <i_epik_Tot_Q>
1

> <i_epik_Tot_abs_Q>
1

> <r_epik_Metal_State_Penalty>
-0

> <b_epik_Metal_Only>
0

> <s_lp_Force_Field>
OPLS_2005

> <r_lp_Energy>
39.2901

> <b_lp_Chiralities_Consistent>
1

> <s_lp_Variant>
AV-unprocessed.smi:2351-4

> <Gold.Version>
5.8.1

> <Gold.Id.Protein>
6NUR|6NUR_protein|mol2

> <Gold.PLP.Fitness>
43.5260

> <Gold.PLP.PLP>
-35.9955

> <Gold.PLP.part.hbond>
-2.0000

> <Gold.PLP.part.metal>
0.0000

> <Gold.PLP.part.buried>
-4.5993

> <Gold.PLP.part.nonpolar>
-29.6006

> <Gold.PLP.part.repulsive>
0.2763

> <Gold.PLP.ligand.clash>
0.0000

> <Gold.PLP.ligand.torsion>
0.7483

> <Gold.PLP.Chemscore.Hbond>
3.0000

> <Gold.PLP.Chemscore.CHOScore>
0.0000

> <Gold.PLP.Chemscore.Metal>
0.0000

> <Gold.Chemscore.Hbonds>
donor molecule, donor type, donor heavy atom, donor atom, acceptor molecule, acceptor atom, score
      L1  H    15    47       P1  7948  2.00
      P1  H  6896  6908       L1     1  0.85

> <Gold.PLP.Chemscore.Internal.Correction>
0.0272

> <Gold.Rescore>
     Score         DG    S(hbond)    S(metal)    S(lipo)     H(rot)  DE(clash)    DE(int)     intcor
     17.05     -18.00       1.90        0.00      84.39       1.45       0.06       0.90       ----

> <Gold.Chemscore.Fitness>
17.0476

> <Gold.Chemscore.DG>
-18.0048

> <Gold.Chemscore.ZeroCoef>
-5.4800

> <Gold.Chemscore.Hbond>
1.9038

> <Gold.Chemscore.Metal>
0.0000

> <Gold.Chemscore.Lipo>
84.3912

> <Gold.Chemscore.Internal_Hbond>
0.0000

> <Gold.Chemscore.DEClash>
0.0556

> <Gold.Chemscore.DEInternal>
0.9016

> <Gold.Chemscore.Rot>
1.4483

> <Gold.Chemscore.Internal.Correction>
   9.000000E+99

> <Gold.Chemscore.Hbonds>
donor molecule, donor type, donor heavy atom, donor atom, acceptor molecule, acceptor atom, score
      L1  H    15    47       P1  7948  0.92
      P1  H  6896  6908       L1     1  0.14

> <Gold.Chemscore.Hbond.Weighted>
-6.3587

> <Gold.Chemscore.Metal.Weighted>
-0.0000

> <Gold.Chemscore.Lipo.Weighted>
-9.8738

> <Gold.Chemscore.Internal_Hbond.Weighted>
0.0000

> <Gold.Chemscore.DEClash.Weighted>
0.0556

> <Gold.Chemscore.DEInternal.Weighted>
0.9016

> <Gold.Chemscore.Rot.Weighted>
3.7077

> <Gold.Chemscore.Internal.Correction.Weighted>
   9.000000E+99

> <Gold.Protein.RotatedTorsions>
[ 6907 6896 6895 6894 ] final  170.21 input  -60.11 | X-H torsion
[ 7974 7965 7964 7962 ] final  -85.24 input  175.53 | X-H torsion
[ 8008 7997 7996 7995 ] final   66.69 input   59.86 | X-H torsion
[ 10167 10162 10161 10158 ] final  -84.89 input  -65.29 | X-H torsion
[ 10718 10713 10712 10709 ] final  -45.49 input   66.30 | X-H torsion
[ 10763 10752 10751 10750 ] final  129.90 input  -60.55 | X-H torsion
[ 11005 11000 10999 10996 ] final   57.57 input  -57.11 | X-H torsion

> <Gold.Protein.ActiveResidues>
 VAL166  LYS551  ARG553  GLY616  TRP617  ASP618  TYR619  PRO620  LYS621  CYS622 
 ASP623  PHE694  ASN695  SER759  ASP760  ASP761  ALA762  ILE779  LEU786  VAL792 
 PHE793  MET794  SER795  GLU796  ALA797  LYS798  CYS799  TRP800  GLU811  SER814 

> <Gold.Protein.RotatedAtoms>
  151.8196  133.3393  159.3579 H   0  0  0  0  0  0  0  0  0  0  0  0  # atno 6907 bound_to 6896
  150.7299  134.5586  159.5840 H   0  0  0  0  0  0  0  0  0  0  0  0  # atno 6908 bound_to 6896
  152.3015  134.7606  160.0408 H   0  0  0  0  0  0  0  0  0  0  0  0  # atno 6909 bound_to 6896
  145.4959  140.9550  143.1786 H   0  0  0  0  0  0  0  0  0  0  0  0  # atno 7974 bound_to 7965
  155.6814  140.3496  155.4856 H   0  0  0  0  0  0  0  0  0  0  0  0  # atno 8008 bound_to 7997
  155.9604  140.1136  157.0923 H   0  0  0  0  0  0  0  0  0  0  0  0  # atno 8009 bound_to 7997
  154.4142  140.1177  156.5157 H   0  0  0  0  0  0  0  0  0  0  0  0  # atno 8010 bound_to 7997
  140.4089  143.2631  151.9044 H   0  0  0  0  0  0  0  0  0  0  0  0  # atno 10167 bound_to 10162
  156.2278  130.4170  149.8912 H   0  0  0  0  0  0  0  0  0  0  0  0  # atno 10718 bound_to 10713
  153.7493  135.3212  155.3318 H   0  0  0  0  0  0  0  0  0  0  0  0  # atno 10763 bound_to 10752
  154.8268  135.4563  154.0948 H   0  0  0  0  0  0  0  0  0  0  0  0  # atno 10764 bound_to 10752
  153.2146  135.6940  153.8155 H   0  0  0  0  0  0  0  0  0  0  0  0  # atno 10765 bound_to 10752
  140.0443  134.5829  155.9343 H   0  0  0  0  0  0  0  0  0  0  0  0  # atno 11005 bound_to 11000
  144.7807  139.6532  143.7155 LP  0  0  0  0  0  0  0  0  0  0  0  0  # atno 17320 bound_to 7965
  146.2256  139.5716  142.9589 LP  0  0  0  0  0  0  0  0  0  0  0  0  # atno 17321 bound_to 7965
  139.4783  144.5557  151.8317 LP  0  0  0  0  0  0  0  0  0  0  0  0  # atno 17342 bound_to 10162
  140.4659  144.1656  150.5911 LP  0  0  0  0  0  0  0  0  0  0  0  0  # atno 17343 bound_to 10162
  156.6536  130.8753  151.3535 LP  0  0  0  0  0  0  0  0  0  0  0  0  # atno 17370 bound_to 10713
  157.7119  130.9450  150.1118 LP  0  0  0  0  0  0  0  0  0  0  0  0  # atno 17371 bound_to 10713
  141.1899  133.6566  156.5387 LP  0  0  0  0  0  0  0  0  0  0  0  0  # atno 17394 bound_to 11000
  140.4019  134.7349  157.4785 LP  0  0  0  0  0  0  0  0  0  0  0  0  # atno 17395 bound_to 11000

$$$$
