AV-unprocessed.smi:2120|AV-procd|sdf|8639|dock9
  -GOLD-   2272011383D 1   1.00000     0.00000
 Structure written by MMmdl.
 46 49  0  0  0  0  0  0  0  0  2 V2000
  153.1696  139.2733  157.1552 O   0  0  0  0  0  0  0  0  0  0  0  0
  152.1939  139.9086  157.5577 C   0  0  0  0  0  0  0  0  0  0  0  0
  152.2290  140.6241  158.6947 N   0  0  0  0  0  0  0  0  0  0  0  0
  153.3817  140.7361  159.5803 C   0  0  0  0  0  0  0  0  0  0  0  0
  153.0952  141.6620  160.7752 C   0  0  0  0  0  0  0  0  0  0  0  0
  152.6840  143.0545  160.3380 C   0  0  0  0  0  0  0  0  0  0  0  0
  152.9801  143.5104  159.0342 C   0  0  0  0  0  0  0  0  0  0  0  0
  152.5877  144.8094  158.6495 C   0  0  0  0  0  0  0  0  0  0  0  0
  151.9049  145.6226  159.5768 C   0  0  0  0  0  0  0  0  0  0  0  0
  151.6375  145.1520  160.8150 N   0  3  0  0  0  0  0  0  0  0  0  0
  151.9982  143.9151  161.2226 C   0  0  0  0  0  0  0  0  0  0  0  0
  150.8825  139.8976  156.7367 C   0  0  0  0  0  0  0  0  0  0  0  0
  151.0714  138.9930  155.4884 C   0  0  0  0  0  0  0  0  0  0  0  0
  149.7609  138.9193  154.6748 C   0  0  1  0  0  0  0  0  0  0  0  0
  148.6411  138.3241  155.5537 C   0  0  0  0  0  0  0  0  0  0  0  0
  148.4286  139.2274  156.7865 C   0  0  2  0  0  0  0  0  0  0  0  0
  148.0213  140.6427  156.3281 C   0  0  0  0  0  0  0  0  0  0  0  0
  149.1410  141.2326  155.4460 C   0  0  2  0  0  0  0  0  0  0  0  0
  149.3577  140.3343  154.2104 C   0  0  0  0  0  0  0  0  0  0  0  0
  150.4506  141.3165  156.2587 C   0  0  0  0  0  0  0  0  0  0  0  0
  149.7368  139.3030  157.6027 C   0  0  0  0  0  0  0  0  0  0  0  0
  151.3922  141.1202  158.9661 H   0  0  0  0  0  0  0  0  0  0  0  0
  153.6341  139.7369  159.9366 H   0  0  0  0  0  0  0  0  0  0  0  0
  154.2445  141.0916  159.0145 H   0  0  0  0  0  0  0  0  0  0  0  0
  152.2974  141.2499  161.3944 H   0  0  0  0  0  0  0  0  0  0  0  0
  153.9763  141.7277  161.4153 H   0  0  0  0  0  0  0  0  0  0  0  0
  153.5041  142.8727  158.3368 H   0  0  0  0  0  0  0  0  0  0  0  0
  152.8072  145.1758  157.6572 H   0  0  0  0  0  0  0  0  0  0  0  0
  151.5674  146.6272  159.3671 H   0  0  0  0  0  0  0  0  0  0  0  0
  151.7281  143.6549  162.2358 H   0  0  0  0  0  0  0  0  0  0  0  0
  151.8740  139.3794  154.8581 H   0  0  0  0  0  0  0  0  0  0  0  0
  151.3736  137.9863  155.7822 H   0  0  0  0  0  0  0  0  0  0  0  0
  149.9127  138.2824  153.8028 H   0  0  0  0  0  0  0  0  0  0  0  0
  147.7159  138.2396  154.9823 H   0  0  0  0  0  0  0  0  0  0  0  0
  148.9034  137.3128  155.8668 H   0  0  0  0  0  0  0  0  0  0  0  0
  147.6383  138.8078  157.4099 H   0  0  0  0  0  0  0  0  0  0  0  0
  147.0829  140.6047  155.7733 H   0  0  0  0  0  0  0  0  0  0  0  0
  147.8433  141.2834  157.1927 H   0  0  0  0  0  0  0  0  0  0  0  0
  148.8536  142.2324  155.1195 H   0  0  0  0  0  0  0  0  0  0  0  0
  150.1303  140.7559  153.5662 H   0  0  0  0  0  0  0  0  0  0  0  0
  148.4477  140.2901  153.6106 H   0  0  0  0  0  0  0  0  0  0  0  0
  150.3062  141.9820  157.1115 H   0  0  0  0  0  0  0  0  0  0  0  0
  151.2267  141.7690  155.6393 H   0  0  0  0  0  0  0  0  0  0  0  0
  149.9962  138.3045  157.9584 H   0  0  0  0  0  0  0  0  0  0  0  0
  149.5803  139.9122  158.4944 H   0  0  0  0  0  0  0  0  0  0  0  0
  151.1410  145.7566  161.4703 H   0  0  0  0  0  0  0  0  0  0  0  0
  1  2  2  0  0  0  0
  2  3  1  0  0  0  0
  2 12  1  0  0  0  0
  3  4  1  0  0  0  0
  3 22  1  0  0  0  0
  4  5  1  0  0  0  0
  4 23  1  0  0  0  0
  4 24  1  0  0  0  0
  5  6  1  0  0  0  0
  5 25  1  0  0  0  0
  5 26  1  0  0  0  0
  6 11  1  0  0  0  0
  6  7  2  0  0  0  0
  7  8  1  0  0  0  0
  7 27  1  0  0  0  0
  8  9  2  0  0  0  0
  8 28  1  0  0  0  0
  9 10  1  0  0  0  0
  9 29  1  0  0  0  0
 10 11  2  0  0  0  0
 10 46  1  0  0  0  0
 11 30  1  0  0  0  0
 12 20  1  0  0  0  0
 12 21  1  0  0  0  0
 12 13  1  0  0  0  0
 13 14  1  0  0  0  0
 13 31  1  0  0  0  0
 13 32  1  0  0  0  0
 14 19  1  0  0  0  0
 14 15  1  0  0  0  0
 14 33  1  0  0  0  0
 15 16  1  0  0  0  0
 15 34  1  0  0  0  0
 15 35  1  0  0  0  0
 16 17  1  0  0  0  0
 16 21  1  0  0  0  0
 16 36  1  0  0  0  0
 17 18  1  0  0  0  0
 17 37  1  0  0  0  0
 17 38  1  0  0  0  0
 18 19  1  0  0  0  0
 18 20  1  0  0  0  0
 18 39  1  0  0  0  0
 19 40  1  0  0  0  0
 19 41  1  0  0  0  0
 20 42  1  0  0  0  0
 20 43  1  0  0  0  0
 21 44  1  0  0  0  0
 21 45  1  0  0  0  0
M  CHG  1  10   1
M  END
> <s_m_source_file>
AV-unprocessed.smi

> <i_m_source_file_index>
2120

> <i_lp_mmshare_version>
43012

> <i_f3d_flags>
0

> <s_epik_input>
W0NIMl0xW0NASF0oW0NIMl0yKVtDSDJdW0NASF0oW0NIMl0zKVtDSDJdW0NAQEhdMVtDSDJdQzIzQyg9TylbTkhdW0NIMl1bQ0gyXWM0W2NIXVtjSF1bY0hdbltjSF00

> <s_epik_cmdline>
J2VwaWtfcHl0aG9uJywgJy1waCcsICc3LjAnLCAnLXRuJywgJzgnLCAnLW1hJywgJzIwMCcsICctbWV0YWxfYmluZGluZycsICctaW1hZScsICc8aW5maWxlLm1hZT4nLCAnLW9tYWUnLCAnPG91dGZpbGUubWFlPic=

> <r_epik_Ionization_Penalty>
2.23732

> <r_epik_Ionization_Penalty_Charging>
2.23732

> <r_epik_Ionization_Penalty_Neutral>
2.68417e-08

> <r_epik_State_Penalty>
2.38345

> <r_epik_Charging_Adjusted_Penalty>
4.62076

> <i_epik_Tot_Q>
1

> <i_epik_Tot_abs_Q>
1

> <r_epik_Metal_State_Penalty>
2.39692

> <b_epik_Metal_Only>
0

> <s_lp_Force_Field>
OPLS_2005

> <r_lp_Energy>
42.1143

> <b_lp_Chiralities_Consistent>
1

> <s_lp_Variant>
AV-unprocessed.smi:2120-2

> <Gold.Version>
5.8.1

> <Gold.Id.Protein>
6NUR|6NUR_protein|mol2

> <Gold.PLP.Fitness>
48.8811

> <Gold.PLP.PLP>
-46.4228

> <Gold.PLP.part.hbond>
-1.9267

> <Gold.PLP.part.metal>
0.0000

> <Gold.PLP.part.buried>
-4.6756

> <Gold.PLP.part.nonpolar>
-40.9814

> <Gold.PLP.part.repulsive>
0.2304

> <Gold.PLP.ligand.clash>
0.0000

> <Gold.PLP.ligand.torsion>
0.2765

> <Gold.PLP.Chemscore.Hbond>
1.0000

> <Gold.PLP.Chemscore.CHOScore>
0.0000

> <Gold.PLP.Chemscore.Metal>
0.0000

> <Gold.Chemscore.Hbonds>
donor molecule, donor type, donor heavy atom, donor atom, acceptor molecule, acceptor atom, score
      P1  H  7997  8009       L1     1  1.00

> <Gold.PLP.Chemscore.Internal.Correction>
0.0114

> <Gold.Rescore>
     Score         DG    S(hbond)    S(metal)    S(lipo)     H(rot)  DE(clash)    DE(int)     intcor
     19.22     -19.84       0.92        0.00     127.47       1.41       0.29       0.33       ----

> <Gold.Chemscore.Fitness>
19.2208

> <Gold.Chemscore.DG>
-19.8412

> <Gold.Chemscore.ZeroCoef>
-5.4800

> <Gold.Chemscore.Hbond>
0.9186

> <Gold.Chemscore.Metal>
0.0000

> <Gold.Chemscore.Lipo>
127.4710

> <Gold.Chemscore.Internal_Hbond>
0.0000

> <Gold.Chemscore.DEClash>
0.2860

> <Gold.Chemscore.DEInternal>
0.3344

> <Gold.Chemscore.Rot>
1.4145

> <Gold.Chemscore.Internal.Correction>
   9.000000E+99

> <Gold.Chemscore.Hbonds>
donor molecule, donor type, donor heavy atom, donor atom, acceptor molecule, acceptor atom, score
      P1  H  7997  8009       L1     1  0.90

> <Gold.Chemscore.Hbond.Weighted>
-3.0681

> <Gold.Chemscore.Metal.Weighted>
-0.0000

> <Gold.Chemscore.Lipo.Weighted>
-14.9141

> <Gold.Chemscore.Internal_Hbond.Weighted>
0.0000

> <Gold.Chemscore.DEClash.Weighted>
0.2860

> <Gold.Chemscore.DEInternal.Weighted>
0.3344

> <Gold.Chemscore.Rot.Weighted>
3.6210

> <Gold.Chemscore.Internal.Correction.Weighted>
   9.000000E+99

> <Gold.Protein.RotatedTorsions>
[ 6907 6896 6895 6894 ] final   41.75 input  -60.11 | X-H torsion
[ 7974 7965 7964 7962 ] final  118.47 input  175.53 | X-H torsion
[ 8008 7997 7996 7995 ] final  167.05 input   59.86 | X-H torsion
[ 10167 10162 10161 10158 ] final  165.35 input  -65.29 | X-H torsion
[ 10718 10713 10712 10709 ] final   79.68 input   66.30 | X-H torsion
[ 10763 10752 10751 10750 ] final   16.32 input  -60.55 | X-H torsion
[ 11005 11000 10999 10996 ] final  145.33 input  -57.11 | X-H torsion

> <Gold.Protein.ActiveResidues>
 VAL166  LYS551  ARG553  GLY616  TRP617  ASP618  TYR619  PRO620  LYS621  CYS622 
 ASP623  PHE694  ASN695  SER759  ASP760  ASP761  ALA762  ILE779  LEU786  VAL792 
 PHE793  MET794  SER795  GLU796  ALA797  LYS798  CYS799  TRP800  GLU811  SER814 

> <Gold.Protein.RotatedAtoms>
  152.1992  134.8603  160.0509 H   0  0  0  0  0  0  0  0  0  0  0  0  # atno 6907 bound_to 6896
  151.9463  133.3648  159.3992 H   0  0  0  0  0  0  0  0  0  0  0  0  # atno 6908 bound_to 6896
  150.6951  134.4310  159.5292 H   0  0  0  0  0  0  0  0  0  0  0  0  # atno 6909 bound_to 6896
  145.1548  139.3189  143.4547 H   0  0  0  0  0  0  0  0  0  0  0  0  # atno 7974 bound_to 7965
  156.1667  140.1627  156.8519 H   0  0  0  0  0  0  0  0  0  0  0  0  # atno 8008 bound_to 7997
  154.5215  140.0777  156.8215 H   0  0  0  0  0  0  0  0  0  0  0  0  # atno 8009 bound_to 7997
  155.3597  140.3394  155.4243 H   0  0  0  0  0  0  0  0  0  0  0  0  # atno 8010 bound_to 7997
  139.4904  144.4141  151.9264 H   0  0  0  0  0  0  0  0  0  0  0  0  # atno 10167 bound_to 10162
  157.6784  130.9925  150.1967 H   0  0  0  0  0  0  0  0  0  0  0  0  # atno 10718 bound_to 10713
  153.1442  135.6766  153.8981 H   0  0  0  0  0  0  0  0  0  0  0  0  # atno 10763 bound_to 10752
  153.8428  135.3103  155.3428 H   0  0  0  0  0  0  0  0  0  0  0  0  # atno 10764 bound_to 10752
  154.7811  135.4887  153.9932 H   0  0  0  0  0  0  0  0  0  0  0  0  # atno 10765 bound_to 10752
  140.0703  134.9155  157.1334 H   0  0  0  0  0  0  0  0  0  0  0  0  # atno 11005 bound_to 11000
  146.3490  140.1637  142.8590 LP  0  0  0  0  0  0  0  0  0  0  0  0  # atno 17320 bound_to 7965
  145.0392  140.8932  143.5062 LP  0  0  0  0  0  0  0  0  0  0  0  0  # atno 17321 bound_to 7965
  140.3584  144.3004  150.5937 LP  0  0  0  0  0  0  0  0  0  0  0  0  # atno 17342 bound_to 10162
  140.5425  143.2221  151.8062 LP  0  0  0  0  0  0  0  0  0  0  0  0  # atno 17343 bound_to 10162
  156.2667  130.3717  149.8074 LP  0  0  0  0  0  0  0  0  0  0  0  0  # atno 17370 bound_to 10713
  156.5803  130.8463  151.3381 LP  0  0  0  0  0  0  0  0  0  0  0  0  # atno 17371 bound_to 10713
  140.3637  134.2466  155.7184 LP  0  0  0  0  0  0  0  0  0  0  0  0  # atno 17394 bound_to 11000
  141.2009  133.7976  157.0466 LP  0  0  0  0  0  0  0  0  0  0  0  0  # atno 17395 bound_to 11000

$$$$
