AV-unprocessed.smi:1406|AV-procd|sdf|5719|dock2
  -GOLD-   22720 5353D 1   1.00000     0.00000
 Structure written by MMmdl.
 41 43  0  0  0  0  0  0  0  0  2 V2000
  153.1313  138.6244  154.4697 C   0  0  0  0  0  0  0  0  0  0  0  0
  151.9845  138.5310  155.4965 C   0  0  2  0  0  0  0  0  0  0  0  0
  151.0651  139.7617  155.4686 C   0  0  0  0  0  0  0  0  0  0  0  0
  150.3991  140.0276  154.4675 O   0  0  0  0  0  0  0  0  0  0  0  0
  151.0439  140.5150  156.5793 N   0  0  0  0  0  0  0  0  0  0  0  0
  150.2751  141.7455  156.7309 C   0  0  1  0  0  0  0  0  0  0  0  0
  148.7710  141.5253  156.9845 C   0  0  0  0  0  0  0  0  0  0  0  0
  148.3600  142.6260  157.9823 C   0  0  0  0  0  0  0  0  0  0  0  0
  149.5725  143.4424  158.1853 N   0  3  1  0  0  0  0  0  0  0  0  0
  149.6763  144.1945  159.4546 C   0  0  0  0  0  0  0  0  0  0  0  0
  150.9642  145.0429  159.4378 C   0  0  0  0  0  0  0  0  0  0  0  0
  152.2100  144.1897  159.1203 C   0  0  0  0  0  0  0  0  0  0  0  0
  152.0053  143.3584  157.8386 C   0  0  0  0  0  0  0  0  0  0  0  0
  150.7108  142.5387  157.9617 C   0  0  2  0  0  0  0  0  0  0  0  0
  152.4734  138.3043  156.8507 N   0  0  0  0  0  0  0  0  0  0  0  0
  152.2329  137.2958  157.6915 C   0  0  0  0  0  0  0  0  0  0  0  0
  152.8056  137.4352  158.8787 N   0  0  0  0  0  0  0  0  0  0  0  0
  153.4215  138.6405  158.6944 C   0  0  0  0  0  0  0  0  0  0  0  0
  153.2453  139.2097  157.5024 N   0  0  0  0  0  0  0  0  0  0  0  0
  152.7432  138.7321  153.4563 H   0  0  0  0  0  0  0  0  0  0  0  0
  153.7439  137.7225  154.4898 H   0  0  0  0  0  0  0  0  0  0  0  0
  153.7890  139.4727  154.6627 H   0  0  0  0  0  0  0  0  0  0  0  0
  151.3809  137.6629  155.2253 H   0  0  0  0  0  0  0  0  0  0  0  0
  151.6189  140.2303  157.3591 H   0  0  0  0  0  0  0  0  0  0  0  0
  150.4030  142.3679  155.8426 H   0  0  0  0  0  0  0  0  0  0  0  0
  148.2030  141.5852  156.0553 H   0  0  0  0  0  0  0  0  0  0  0  0
  148.5813  140.5438  157.4213 H   0  0  0  0  0  0  0  0  0  0  0  0
  147.5408  143.2411  157.6085 H   0  0  0  0  0  0  0  0  0  0  0  0
  148.0445  142.1770  158.9254 H   0  0  0  0  0  0  0  0  0  0  0  0
  148.8029  144.8369  159.5722 H   0  0  0  0  0  0  0  0  0  0  0  0
  149.6848  143.5024  160.2979 H   0  0  0  0  0  0  0  0  0  0  0  0
  150.8667  145.8282  158.6871 H   0  0  0  0  0  0  0  0  0  0  0  0
  151.0911  145.5484  160.3957 H   0  0  0  0  0  0  0  0  0  0  0  0
  153.0866  144.8298  159.0174 H   0  0  0  0  0  0  0  0  0  0  0  0
  152.4127  143.5207  159.9577 H   0  0  0  0  0  0  0  0  0  0  0  0
  151.9522  144.0191  156.9722 H   0  0  0  0  0  0  0  0  0  0  0  0
  152.8588  142.6988  157.6787 H   0  0  0  0  0  0  0  0  0  0  0  0
  150.7894  141.8615  158.8157 H   0  0  0  0  0  0  0  0  0  0  0  0
  151.6214  136.4442  157.4321 H   0  0  0  0  0  0  0  0  0  0  0  0
  154.0115  139.1160  159.4641 H   0  0  0  0  0  0  0  0  0  0  0  0
  149.5927  144.1166  157.4335 H   0  0  0  0  0  0  0  0  0  0  0  0
  1  2  1  0  0  0  0
  1 20  1  0  0  0  0
  1 21  1  0  0  0  0
  1 22  1  0  0  0  0
  2  3  1  0  0  0  0
  2 15  1  0  0  0  0
  2 23  1  0  0  0  0
  3  4  2  0  0  0  0
  3  5  1  0  0  0  0
  5  6  1  0  0  0  0
  5 24  1  0  0  0  0
  6 14  1  0  0  0  0
  6  7  1  0  0  0  0
  6 25  1  0  0  0  0
  7  8  1  0  0  0  0
  7 26  1  0  0  0  0
  7 27  1  0  0  0  0
  8  9  1  0  0  0  0
  8 28  1  0  0  0  0
  8 29  1  0  0  0  0
  9 14  1  0  0  0  0
  9 10  1  0  0  0  0
  9 41  1  0  0  0  0
 10 11  1  0  0  0  0
 10 30  1  0  0  0  0
 10 31  1  0  0  0  0
 11 12  1  0  0  0  0
 11 32  1  0  0  0  0
 11 33  1  0  0  0  0
 12 13  1  0  0  0  0
 12 34  1  0  0  0  0
 12 35  1  0  0  0  0
 13 14  1  0  0  0  0
 13 36  1  0  0  0  0
 13 37  1  0  0  0  0
 14 38  1  0  0  0  0
 15 19  1  0  0  0  0
 15 16  1  0  0  0  0
 16 17  2  0  0  0  0
 16 39  1  0  0  0  0
 17 18  1  0  0  0  0
 18 19  2  0  0  0  0
 18 40  1  0  0  0  0
M  CHG  1   9   1
M  END
> <s_m_source_file>
AV-unprocessed.smi

> <i_m_source_file_index>
1406

> <i_lp_mmshare_version>
43012

> <i_f3d_flags>
0

> <s_epik_input>
bjFbY0hdbltjSF1uMVtDQEhdKFtDSDNdKUMoPU8pW05IXVtDQEhdKFtDSDJdW0NIMl0yKVtDQEBIXShOMjMpW0NIMl1bQ0gyXVtDSDJdW0NIMl0z

> <s_epik_cmdline>
J2VwaWtfcHl0aG9uJywgJy1waCcsICc3LjAnLCAnLXRuJywgJzgnLCAnLW1hJywgJzIwMCcsICctbWV0YWxfYmluZGluZycsICctaW1hZScsICc8aW5maWxlLm1hZT4nLCAnLW9tYWUnLCAnPG91dGZpbGUubWFlPic=

> <r_lp_tautomer_probability>
1

> <r_epik_Ionization_Penalty>
0.00197066

> <r_epik_Ionization_Penalty_Charging>
0.00196223

> <r_epik_Ionization_Penalty_Neutral>
8.43107e-06

> <r_epik_State_Penalty>
0.00133866

> <r_epik_Charging_Adjusted_Penalty>
0.00330089

> <i_epik_Tot_Q>
1

> <i_epik_Tot_abs_Q>
1

> <r_epik_Metal_State_Penalty>
-0

> <b_epik_Metal_Only>
0

> <s_lp_Force_Field>
OPLS_2005

> <r_lp_Energy>
39.7149

> <b_lp_Chiralities_Consistent>
1

> <s_lp_Variant>
AV-unprocessed.smi:1406-11

> <Gold.Version>
5.8.1

> <Gold.Id.Protein>
6NUR|6NUR_protein|mol2

> <Gold.PLP.Fitness>
45.3849

> <Gold.PLP.PLP>
-33.9723

> <Gold.PLP.part.hbond>
-3.7197

> <Gold.PLP.part.metal>
0.0000

> <Gold.PLP.part.buried>
-5.6652

> <Gold.PLP.part.nonpolar>
-25.3875

> <Gold.PLP.part.repulsive>
0.2445

> <Gold.PLP.ligand.clash>
0.0000

> <Gold.PLP.ligand.torsion>
0.3441

> <Gold.PLP.Chemscore.Hbond>
4.0000

> <Gold.PLP.Chemscore.CHOScore>
0.0000

> <Gold.PLP.Chemscore.Metal>
0.0000

> <Gold.Chemscore.Hbonds>
donor molecule, donor type, donor heavy atom, donor atom, acceptor molecule, acceptor atom, score
      L1  H     9    41       P1  8028  1.98
      P1  H  7989  7998       L1     4  1.00
      P1  H  7997  8010       L1    19  1.00

> <Gold.PLP.Chemscore.Internal.Correction>
0.1007

> <Gold.Rescore>
     Score         DG    S(hbond)    S(metal)    S(lipo)     H(rot)  DE(clash)    DE(int)     intcor
     15.98     -17.87       2.47        0.00      76.52       1.89       0.11       1.78       ----

> <Gold.Chemscore.Fitness>
15.9794

> <Gold.Chemscore.DG>
-17.8665

> <Gold.Chemscore.ZeroCoef>
-5.4800

> <Gold.Chemscore.Hbond>
2.4740

> <Gold.Chemscore.Metal>
0.0000

> <Gold.Chemscore.Lipo>
76.5195

> <Gold.Chemscore.Internal_Hbond>
0.0000

> <Gold.Chemscore.DEClash>
0.1080

> <Gold.Chemscore.DEInternal>
1.7791

> <Gold.Chemscore.Rot>
1.8865

> <Gold.Chemscore.Internal.Correction>
   9.000000E+99

> <Gold.Chemscore.Hbonds>
donor molecule, donor type, donor heavy atom, donor atom, acceptor molecule, acceptor atom, score
      L1  H     9    41       P1  8028  0.28
      P1  H  7989  7998       L1     4  0.25
      P1  H  7997  8010       L1    19  0.95

> <Gold.Chemscore.Hbond.Weighted>
-8.2632

> <Gold.Chemscore.Metal.Weighted>
-0.0000

> <Gold.Chemscore.Lipo.Weighted>
-8.9528

> <Gold.Chemscore.Internal_Hbond.Weighted>
0.0000

> <Gold.Chemscore.DEClash.Weighted>
0.1080

> <Gold.Chemscore.DEInternal.Weighted>
1.7791

> <Gold.Chemscore.Rot.Weighted>
4.8295

> <Gold.Chemscore.Internal.Correction.Weighted>
   9.000000E+99

> <Gold.Protein.RotatedTorsions>
[ 6907 6896 6895 6894 ] final -145.33 input  -60.11 | X-H torsion
[ 7974 7965 7964 7962 ] final  158.99 input  175.53 | X-H torsion
[ 8008 7997 7996 7995 ] final   61.80 input   59.86 | X-H torsion
[ 10167 10162 10161 10158 ] final  103.72 input  -65.29 | X-H torsion
[ 10718 10713 10712 10709 ] final   62.46 input   66.30 | X-H torsion
[ 10763 10752 10751 10750 ] final -135.69 input  -60.55 | X-H torsion
[ 11005 11000 10999 10996 ] final   97.76 input  -57.11 | X-H torsion

> <Gold.Protein.ActiveResidues>
 VAL166  LYS551  ARG553  GLY616  TRP617  ASP618  TYR619  PRO620  LYS621  CYS622 
 ASP623  PHE694  ASN695  SER759  ASP760  ASP761  ALA762  ILE779  LEU786  VAL792 
 PHE793  MET794  SER795  GLU796  ALA797  LYS798  CYS799  TRP800  GLU811  SER814 

> <Gold.Protein.RotatedAtoms>
  151.1263  133.5068  159.2600 H   0  0  0  0  0  0  0  0  0  0  0  0  # atno 6907 bound_to 6896
  151.1806  135.0359  159.8801 H   0  0  0  0  0  0  0  0  0  0  0  0  # atno 6908 bound_to 6896
  152.5458  134.1115  159.8414 H   0  0  0  0  0  0  0  0  0  0  0  0  # atno 6909 bound_to 6896
  144.7815  139.7555  143.6258 H   0  0  0  0  0  0  0  0  0  0  0  0  # atno 7974 bound_to 7965
  155.6041  140.3494  155.4602 H   0  0  0  0  0  0  0  0  0  0  0  0  # atno 8008 bound_to 7997
  156.0205  140.1252  157.0386 H   0  0  0  0  0  0  0  0  0  0  0  0  # atno 8009 bound_to 7997
  154.4313  140.1063  156.5943 H   0  0  0  0  0  0  0  0  0  0  0  0  # atno 8010 bound_to 7997
  139.7238  144.7052  151.0829 H   0  0  0  0  0  0  0  0  0  0  0  0  # atno 10167 bound_to 10162
  157.5902  130.9051  149.9590 H   0  0  0  0  0  0  0  0  0  0  0  0  # atno 10718 bound_to 10713
  154.8698  135.3695  154.4940 H   0  0  0  0  0  0  0  0  0  0  0  0  # atno 10763 bound_to 10752
  153.5585  135.7023  153.5563 H   0  0  0  0  0  0  0  0  0  0  0  0  # atno 10764 bound_to 10752
  153.3650  135.4036  155.1710 H   0  0  0  0  0  0  0  0  0  0  0  0  # atno 10765 bound_to 10752
  139.8774  134.9016  156.4355 H   0  0  0  0  0  0  0  0  0  0  0  0  # atno 11005 bound_to 11000
  146.2025  139.5329  142.9734 LP  0  0  0  0  0  0  0  0  0  0  0  0  # atno 17320 bound_to 7965
  145.6038  141.0351  143.2004 LP  0  0  0  0  0  0  0  0  0  0  0  0  # atno 17321 bound_to 7965
  140.7759  143.5131  150.9628 LP  0  0  0  0  0  0  0  0  0  0  0  0  # atno 17342 bound_to 10162
  139.8818  143.7062  152.3156 LP  0  0  0  0  0  0  0  0  0  0  0  0  # atno 17343 bound_to 10162
  156.0956  130.3659  150.0313 LP  0  0  0  0  0  0  0  0  0  0  0  0  # atno 17370 bound_to 10713
  156.8437  130.9435  151.3630 LP  0  0  0  0  0  0  0  0  0  0  0  0  # atno 17371 bound_to 10713
  140.9036  133.7761  155.9709 LP  0  0  0  0  0  0  0  0  0  0  0  0  # atno 17394 bound_to 11000
  140.8623  134.2825  157.5229 LP  0  0  0  0  0  0  0  0  0  0  0  0  # atno 17395 bound_to 11000

$$$$
