AV-unprocessed.smi:868|AV-procd|sdf|4002|dock8
  -GOLD-   22720 1483D 1   1.00000     0.00000
 Structure written by MMmdl.
 47 49  0  0  0  0  0  0  0  0  1 V2000
  146.0655  143.4915  154.0881 C   0  0  0  0  0  0  0  0  0  0  0  0
  145.4140  142.3393  154.8704 C   0  0  0  0  0  0  0  0  0  0  0  0
  144.4892  142.8937  155.9646 C   0  0  0  0  0  0  0  0  0  0  0  0
  146.4407  141.3506  155.4836 C   0  0  0  0  0  0  0  0  0  0  0  0
  147.4184  140.6471  154.5158 C   0  0  0  0  0  0  0  0  0  0  0  0
  148.8803  141.0378  154.8483 C   0  0  0  0  0  0  0  0  0  0  0  0
  149.6065  141.5625  154.0034 O   0  0  0  0  0  0  0  0  0  0  0  0
  149.3038  140.7544  156.0907 N   0  0  0  0  0  0  0  0  0  0  0  0
  150.6569  140.9725  156.5862 C   0  0  0  0  0  0  0  0  0  0  0  0
  150.7090  140.8884  158.1199 C   0  0  0  0  0  0  0  0  0  0  0  0
  152.1077  140.7732  158.6397 C   0  0  0  0  0  0  0  0  0  0  0  0
  152.9033  139.7263  158.3891 N   0  0  0  0  0  0  0  0  0  0  0  0
  154.1105  140.0248  158.9880 N   0  0  0  0  0  0  0  0  0  0  0  0
  153.9257  141.2264  159.5327 C   0  0  0  0  0  0  0  0  0  0  0  0
  152.6974  141.7434  159.3689 N   0  0  0  0  0  0  0  0  0  0  0  0
  152.1885  143.0393  159.7863 C   0  0  0  0  0  0  0  0  0  0  0  0
  151.4550  143.8165  158.7156 C   0  0  0  0  0  0  0  0  0  0  0  0
  152.8572  144.2171  159.1157 C   0  0  0  0  0  0  0  0  0  0  0  0
  147.2240  139.1250  154.2830 C   0  0  0  0  0  0  0  0  0  0  0  0
  147.3922  139.3262  152.7778 C   0  0  0  0  0  0  0  0  0  0  0  0
  147.1420  140.8171  153.0021 C   0  0  0  0  0  0  0  0  0  0  0  0
  146.7770  144.0396  154.7063 H   0  0  0  0  0  0  0  0  0  0  0  0
  145.3148  144.2010  153.7386 H   0  0  0  0  0  0  0  0  0  0  0  0
  146.5917  143.1301  153.2056 H   0  0  0  0  0  0  0  0  0  0  0  0
  144.7740  141.7946  154.1759 H   0  0  0  0  0  0  0  0  0  0  0  0
  145.0485  143.4702  156.7022 H   0  0  0  0  0  0  0  0  0  0  0  0
  143.9744  142.0892  156.4905 H   0  0  0  0  0  0  0  0  0  0  0  0
  143.7256  143.5470  155.5412 H   0  0  0  0  0  0  0  0  0  0  0  0
  147.0188  141.8906  156.2345 H   0  0  0  0  0  0  0  0  0  0  0  0
  145.8967  140.5947  156.0520 H   0  0  0  0  0  0  0  0  0  0  0  0
  148.6466  140.3292  156.7287 H   0  0  0  0  0  0  0  0  0  0  0  0
  151.3450  140.2538  156.1375 H   0  0  0  0  0  0  0  0  0  0  0  0
  150.9803  141.9603  156.2572 H   0  0  0  0  0  0  0  0  0  0  0  0
  150.2247  141.7587  158.5621 H   0  0  0  0  0  0  0  0  0  0  0  0
  150.1439  140.0215  158.4652 H   0  0  0  0  0  0  0  0  0  0  0  0
  154.7115  141.7450  160.0621 H   0  0  0  0  0  0  0  0  0  0  0  0
  151.8826  143.0816  160.8297 H   0  0  0  0  0  0  0  0  0  0  0  0
  151.3310  143.3687  157.7314 H   0  0  0  0  0  0  0  0  0  0  0  0
  150.6410  144.4632  159.0361 H   0  0  0  0  0  0  0  0  0  0  0  0
  152.9705  145.1280  159.6997 H   0  0  0  0  0  0  0  0  0  0  0  0
  153.6568  144.0184  158.4042 H   0  0  0  0  0  0  0  0  0  0  0  0
  147.9684  138.4588  154.7197 H   0  0  0  0  0  0  0  0  0  0  0  0
  146.2191  138.7890  154.5429 H   0  0  0  0  0  0  0  0  0  0  0  0
  148.4060  139.1150  152.4343 H   0  0  0  0  0  0  0  0  0  0  0  0
  146.6421  138.8254  152.1653 H   0  0  0  0  0  0  0  0  0  0  0  0
  146.1092  141.1018  152.7951 H   0  0  0  0  0  0  0  0  0  0  0  0
  147.8336  141.4611  152.4568 H   0  0  0  0  0  0  0  0  0  0  0  0
  1  2  1  0  0  0  0
  1 22  1  0  0  0  0
  1 23  1  0  0  0  0
  1 24  1  0  0  0  0
  2  3  1  0  0  0  0
  2  4  1  0  0  0  0
  2 25  1  0  0  0  0
  3 26  1  0  0  0  0
  3 27  1  0  0  0  0
  3 28  1  0  0  0  0
  4  5  1  0  0  0  0
  4 29  1  0  0  0  0
  4 30  1  0  0  0  0
  5 21  1  0  0  0  0
  5  6  1  0  0  0  0
  5 19  1  0  0  0  0
  6  7  2  0  0  0  0
  6  8  1  0  0  0  0
  8  9  1  0  0  0  0
  8 31  1  0  0  0  0
  9 10  1  0  0  0  0
  9 32  1  0  0  0  0
  9 33  1  0  0  0  0
 10 11  1  0  0  0  0
 10 34  1  0  0  0  0
 10 35  1  0  0  0  0
 11 15  1  0  0  0  0
 11 12  2  0  0  0  0
 12 13  1  0  0  0  0
 13 14  2  0  0  0  0
 14 15  1  0  0  0  0
 14 36  1  0  0  0  0
 15 16  1  0  0  0  0
 16 18  1  0  0  0  0
 16 17  1  0  0  0  0
 16 37  1  0  0  0  0
 17 18  1  0  0  0  0
 17 38  1  0  0  0  0
 17 39  1  0  0  0  0
 18 40  1  0  0  0  0
 18 41  1  0  0  0  0
 19 20  1  0  0  0  0
 19 42  1  0  0  0  0
 19 43  1  0  0  0  0
 20 21  1  0  0  0  0
 20 44  1  0  0  0  0
 20 45  1  0  0  0  0
 21 46  1  0  0  0  0
 21 47  1  0  0  0  0
M  END
> <s_m_source_file>
AV-unprocessed.smi

> <i_m_source_file_index>
868

> <i_lp_mmshare_version>
43012

> <i_f3d_flags>
0

> <s_epik_input>
W0NIM11bQ0hdKFtDSDNdKVtDSDJdQzEoW0NIMl1bQ0gyXVtDSDJdMSlDKD1PKVtOSF1bQ0gyXVtDSDJdYzJubltjSF1uMltDSF0zW0NIMl1bQ0gyXTM=

> <s_epik_cmdline>
J2VwaWtfcHl0aG9uJywgJy1waCcsICc3LjAnLCAnLXRuJywgJzgnLCAnLW1hJywgJzIwMCcsICctbWV0YWxfYmluZGluZycsICctaW1hZScsICc8aW5maWxlLm1hZT4nLCAnLW9tYWUnLCAnPG91dGZpbGUubWFlPic=

> <r_lp_tautomer_probability>
1

> <r_epik_Ionization_Penalty>
0.000232087

> <r_epik_Ionization_Penalty_Charging>
0

> <r_epik_Ionization_Penalty_Neutral>
0.000232087

> <r_epik_State_Penalty>
-0

> <r_epik_Charging_Adjusted_Penalty>
0

> <i_epik_Tot_Q>
0

> <i_epik_Tot_abs_Q>
0

> <r_epik_Metal_State_Penalty>
-0

> <b_epik_Metal_Only>
0

> <s_lp_Force_Field>
OPLS_2005

> <r_lp_Energy>
30.4352

> <b_lp_Chiralities_Consistent>
1

> <s_lp_Variant>
AV-unprocessed.smi:868-1

> <Gold.Version>
5.8.1

> <Gold.Id.Protein>
6NUR|6NUR_protein|mol2

> <Gold.PLP.Fitness>
42.7993

> <Gold.PLP.PLP>
-40.9818

> <Gold.PLP.part.hbond>
-3.0000

> <Gold.PLP.part.metal>
0.0000

> <Gold.PLP.part.buried>
-2.8733

> <Gold.PLP.part.nonpolar>
-35.4311

> <Gold.PLP.part.repulsive>
0.5528

> <Gold.PLP.ligand.clash>
0.0000

> <Gold.PLP.ligand.torsion>
1.7386

> <Gold.PLP.Chemscore.Hbond>
1.4760

> <Gold.PLP.Chemscore.CHOScore>
0.0000

> <Gold.PLP.Chemscore.Metal>
0.0000

> <Gold.Chemscore.Hbonds>
donor molecule, donor type, donor heavy atom, donor atom, acceptor molecule, acceptor atom, score
      P1  H  7989  7998       L1     7  0.13
      P1  H  7997  8008       L1    13  0.64
      P1  H  8011  8017       L1     7  0.62

> <Gold.PLP.Chemscore.Internal.Correction>
0.8666

> <Gold.Rescore>
     Score         DG    S(hbond)    S(metal)    S(lipo)     H(rot)  DE(clash)    DE(int)     intcor
     12.36     -14.06       1.22        0.00      86.04       2.17       0.08       1.62       ----

> <Gold.Chemscore.Fitness>
12.3576

> <Gold.Chemscore.DG>
-14.0615

> <Gold.Chemscore.ZeroCoef>
-5.4800

> <Gold.Chemscore.Hbond>
1.2158

> <Gold.Chemscore.Metal>
0.0000

> <Gold.Chemscore.Lipo>
86.0418

> <Gold.Chemscore.Internal_Hbond>
0.0000

> <Gold.Chemscore.DEClash>
0.0834

> <Gold.Chemscore.DEInternal>
1.6205

> <Gold.Chemscore.Rot>
2.1664

> <Gold.Chemscore.Internal.Correction>
   9.000000E+99

> <Gold.Chemscore.Hbonds>
donor molecule, donor type, donor heavy atom, donor atom, acceptor molecule, acceptor atom, score
      P1  H  7989  7998       L1     7  0.14
      P1  H  7997  8008       L1    13  0.05
      P1  H  8011  8017       L1     7  0.64

> <Gold.Chemscore.Hbond.Weighted>
-4.0607

> <Gold.Chemscore.Metal.Weighted>
-0.0000

> <Gold.Chemscore.Lipo.Weighted>
-10.0669

> <Gold.Chemscore.Internal_Hbond.Weighted>
0.0000

> <Gold.Chemscore.DEClash.Weighted>
0.0834

> <Gold.Chemscore.DEInternal.Weighted>
1.6205

> <Gold.Chemscore.Rot.Weighted>
5.5461

> <Gold.Chemscore.Internal.Correction.Weighted>
   9.000000E+99

> <Gold.Protein.RotatedTorsions>
[ 6907 6896 6895 6894 ] final  -36.17 input  -60.11 | X-H torsion
[ 7974 7965 7964 7962 ] final -149.74 input  175.53 | X-H torsion
[ 8008 7997 7996 7995 ] final -116.84 input   59.86 | X-H torsion
[ 10167 10162 10161 10158 ] final  -83.46 input  -65.29 | X-H torsion
[ 10718 10713 10712 10709 ] final -137.08 input   66.30 | X-H torsion
[ 10763 10752 10751 10750 ] final -157.00 input  -60.55 | X-H torsion
[ 11005 11000 10999 10996 ] final  -27.26 input  -57.11 | X-H torsion

> <Gold.Protein.ActiveResidues>
 VAL166  LYS551  ARG553  GLY616  TRP617  ASP618  TYR619  PRO620  LYS621  CYS622 
 ASP623  PHE694  ASN695  SER759  ASP760  ASP761  ALA762  ILE779  LEU786  VAL792 
 PHE793  MET794  SER795  GLU796  ALA797  LYS798  CYS799  TRP800  GLU811  SER814 

> <Gold.Protein.RotatedAtoms>
  151.0306  134.9536  159.8108 H   0  0  0  0  0  0  0  0  0  0  0  0  # atno 6907 bound_to 6896
  152.5345  134.2785  159.9008 H   0  0  0  0  0  0  0  0  0  0  0  0  # atno 6908 bound_to 6896
  151.2795  133.4174  159.2660 H   0  0  0  0  0  0  0  0  0  0  0  0  # atno 6909 bound_to 6896
  144.7949  140.5025  143.5747 H   0  0  0  0  0  0  0  0  0  0  0  0  # atno 7974 bound_to 7965
  155.0742  140.0393  157.2618 H   0  0  0  0  0  0  0  0  0  0  0  0  # atno 8008 bound_to 7997
  154.6958  140.2663  155.6743 H   0  0  0  0  0  0  0  0  0  0  0  0  # atno 8009 bound_to 7997
  156.2744  140.2750  156.1552 H   0  0  0  0  0  0  0  0  0  0  0  0  # atno 8010 bound_to 7997
  140.4224  143.2579  151.8872 H   0  0  0  0  0  0  0  0  0  0  0  0  # atno 10167 bound_to 10162
  156.2841  130.7337  151.1344 H   0  0  0  0  0  0  0  0  0  0  0  0  # atno 10718 bound_to 10713
  154.7669  135.3134  154.8267 H   0  0  0  0  0  0  0  0  0  0  0  0  # atno 10763 bound_to 10752
  153.9013  135.6815  153.4759 H   0  0  0  0  0  0  0  0  0  0  0  0  # atno 10764 bound_to 10752
  153.1277  135.4794  154.9232 H   0  0  0  0  0  0  0  0  0  0  0  0  # atno 10765 bound_to 10752
  140.9104  133.7465  156.0662 H   0  0  0  0  0  0  0  0  0  0  0  0  # atno 11005 bound_to 11000
  145.5698  139.1483  143.3294 LP  0  0  0  0  0  0  0  0  0  0  0  0  # atno 17320 bound_to 7965
  146.2214  140.5832  142.9015 LP  0  0  0  0  0  0  0  0  0  0  0  0  # atno 17321 bound_to 7965
  139.4783  144.5423  151.8510 LP  0  0  0  0  0  0  0  0  0  0  0  0  # atno 17342 bound_to 10162
  140.4519  144.1843  150.5898 LP  0  0  0  0  0  0  0  0  0  0  0  0  # atno 17343 bound_to 10162
  157.7323  131.0600  150.5633 LP  0  0  0  0  0  0  0  0  0  0  0  0  # atno 17370 bound_to 10713
  156.5742  130.4288  149.6005 LP  0  0  0  0  0  0  0  0  0  0  0  0  # atno 17371 bound_to 10713
  140.8118  134.3391  157.5409 LP  0  0  0  0  0  0  0  0  0  0  0  0  # atno 17394 bound_to 11000
  139.8756  134.9258  156.3384 LP  0  0  0  0  0  0  0  0  0  0  0  0  # atno 17395 bound_to 11000

$$$$
