AV-unprocessed.smi:356|AV-procd|sdf|2410|dock3
  -GOLD-   2262022343D 1   1.00000     0.00000
 Structure written by MMmdl.
 42 44  0  0  0  0  0  0  0  0  2 V2000
  152.2921  138.4057  155.8755 C   0  0  0  0  0  0  0  0  0  0  0  0
  152.1650  139.6028  156.7635 C   0  0  0  0  0  0  0  0  0  0  0  0
  152.8654  139.7279  157.8903 N   0  0  0  0  0  0  0  0  0  0  0  0
  152.4520  140.9557  158.3701 C   0  0  0  0  0  0  0  0  0  0  0  0
  152.8270  141.6599  159.5364 C   0  0  0  0  0  0  0  0  0  0  0  0
  152.2598  142.9189  159.8234 C   0  0  0  0  0  0  0  0  0  0  0  0
  151.3120  143.4909  158.9504 C   0  0  0  0  0  0  0  0  0  0  0  0
  150.9234  142.8059  157.7831 C   0  0  0  0  0  0  0  0  0  0  0  0
  151.4922  141.5489  157.5013 C   0  0  0  0  0  0  0  0  0  0  0  0
  151.3276  140.6282  156.4702 N   0  0  0  0  0  0  0  0  0  0  0  0
  150.4393  140.7604  155.3237 C   0  0  0  0  0  0  0  0  0  0  0  0
  148.9986  141.1452  155.7191 C   0  0  2  0  0  0  0  0  0  0  0  0
  148.4136  140.0233  156.3491 O   0  0  0  0  0  0  0  0  0  0  0  0
  148.1158  141.5577  154.5200 C   0  0  0  0  0  0  0  0  0  0  0  0
  147.0733  142.5490  154.8879 N   0  3  0  0  0  0  0  0  0  0  0  0
  146.1807  142.9227  153.7622 C   0  0  0  0  0  0  0  0  0  0  0  0
  145.1569  143.9776  154.2153 C   0  0  0  0  0  0  0  0  0  0  0  0
  144.4150  143.4814  155.3226 O   0  0  0  0  0  0  0  0  0  0  0  0
  145.2496  143.2015  156.4394 C   0  0  0  0  0  0  0  0  0  0  0  0
  146.2733  142.1187  156.0593 C   0  0  0  0  0  0  0  0  0  0  0  0
  153.0497  137.7229  156.2617 H   0  0  0  0  0  0  0  0  0  0  0  0
  152.5876  138.7076  154.8708 H   0  0  0  0  0  0  0  0  0  0  0  0
  151.3456  137.8689  155.8226 H   0  0  0  0  0  0  0  0  0  0  0  0
  153.5528  141.2309  160.2114 H   0  0  0  0  0  0  0  0  0  0  0  0
  152.5545  143.4489  160.7173 H   0  0  0  0  0  0  0  0  0  0  0  0
  150.8840  144.4565  159.1778 H   0  0  0  0  0  0  0  0  0  0  0  0
  150.1969  143.2424  157.1143 H   0  0  0  0  0  0  0  0  0  0  0  0
  150.8568  141.5109  154.6511 H   0  0  0  0  0  0  0  0  0  0  0  0
  150.4446  139.8232  154.7662 H   0  0  0  0  0  0  0  0  0  0  0  0
  149.0434  141.9514  156.4492 H   0  0  0  0  0  0  0  0  0  0  0  0
  148.3849  139.3098  155.7292 H   0  0  0  0  0  0  0  0  0  0  0  0
  148.7178  141.9735  153.7116 H   0  0  0  0  0  0  0  0  0  0  0  0
  147.6424  140.6609  154.1168 H   0  0  0  0  0  0  0  0  0  0  0  0
  146.7589  143.3201  152.9287 H   0  0  0  0  0  0  0  0  0  0  0  0
  145.6617  142.0354  153.3960 H   0  0  0  0  0  0  0  0  0  0  0  0
  145.6524  144.9122  154.4831 H   0  0  0  0  0  0  0  0  0  0  0  0
  144.4672  144.2047  153.4022 H   0  0  0  0  0  0  0  0  0  0  0  0
  145.7501  144.1119  156.7732 H   0  0  0  0  0  0  0  0  0  0  0  0
  144.6288  142.8575  157.2668 H   0  0  0  0  0  0  0  0  0  0  0  0
  145.7607  141.1832  155.8291 H   0  0  0  0  0  0  0  0  0  0  0  0
  146.9313  141.9243  156.9071 H   0  0  0  0  0  0  0  0  0  0  0  0
  147.5643  143.3855  155.1715 H   0  0  0  0  0  0  0  0  0  0  0  0
  1  2  1  0  0  0  0
  1 21  1  0  0  0  0
  1 22  1  0  0  0  0
  1 23  1  0  0  0  0
  2 10  1  0  0  0  0
  2  3  2  0  0  0  0
  3  4  1  0  0  0  0
  4  9  2  0  0  0  0
  4  5  1  0  0  0  0
  5  6  2  0  0  0  0
  5 24  1  0  0  0  0
  6  7  1  0  0  0  0
  6 25  1  0  0  0  0
  7  8  2  0  0  0  0
  7 26  1  0  0  0  0
  8  9  1  0  0  0  0
  8 27  1  0  0  0  0
  9 10  1  0  0  0  0
 10 11  1  0  0  0  0
 11 12  1  0  0  0  0
 11 28  1  0  0  0  0
 11 29  1  0  0  0  0
 12 13  1  0  0  0  0
 12 14  1  0  0  0  0
 12 30  1  0  0  0  0
 13 31  1  0  0  0  0
 14 15  1  0  0  0  0
 14 32  1  0  0  0  0
 14 33  1  0  0  0  0
 15 20  1  0  0  0  0
 15 16  1  0  0  0  0
 15 42  1  0  0  0  0
 16 17  1  0  0  0  0
 16 34  1  0  0  0  0
 16 35  1  0  0  0  0
 17 18  1  0  0  0  0
 17 36  1  0  0  0  0
 17 37  1  0  0  0  0
 18 19  1  0  0  0  0
 19 20  1  0  0  0  0
 19 38  1  0  0  0  0
 19 39  1  0  0  0  0
 20 40  1  0  0  0  0
 20 41  1  0  0  0  0
M  CHG  1  15   1
M  END
> <s_m_source_file>
AV-unprocessed.smi

> <i_m_source_file_index>
356

> <i_lp_mmshare_version>
43012

> <i_f3d_flags>
0

> <s_epik_input>
W2NIXTFbY0hdW2NIXVtjSF1jKGMxMiluKGMobjIpW0NIM10pW0NIMl1bQ0BIXShbT0hdKVtDSDJdTjNbQ0gyXVtDSDJdT1tDSDJdW0NIMl0z

> <s_epik_cmdline>
J2VwaWtfcHl0aG9uJywgJy1waCcsICc3LjAnLCAnLXRuJywgJzgnLCAnLW1hJywgJzIwMCcsICctbWV0YWxfYmluZGluZycsICctaW1hZScsICc8aW5maWxlLm1hZT4nLCAnLW9tYWUnLCAnPG91dGZpbGUubWFlPic=

> <r_epik_Ionization_Penalty>
0.706388

> <r_epik_Ionization_Penalty_Charging>
0.608065

> <r_epik_Ionization_Penalty_Neutral>
0.0983237

> <r_epik_State_Penalty>
0.742533

> <r_epik_Charging_Adjusted_Penalty>
1.3506

> <i_epik_Tot_Q>
1

> <i_epik_Tot_abs_Q>
1

> <r_epik_Metal_State_Penalty>
0.651809

> <b_epik_Metal_Only>
0

> <s_lp_Force_Field>
OPLS_2005

> <r_lp_Energy>
21.62

> <b_lp_Chiralities_Consistent>
1

> <s_lp_Variant>
AV-unprocessed.smi:356-3

> <Gold.Version>
5.8.1

> <Gold.Id.Protein>
6NUR|6NUR_protein|mol2

> <Gold.PLP.Fitness>
46.7512

> <Gold.PLP.PLP>
-38.8407

> <Gold.PLP.part.hbond>
-2.0000

> <Gold.PLP.part.metal>
0.0000

> <Gold.PLP.part.buried>
-4.9759

> <Gold.PLP.part.nonpolar>
-31.4195

> <Gold.PLP.part.repulsive>
0.2651

> <Gold.PLP.ligand.clash>
0.0000

> <Gold.PLP.ligand.torsion>
0.5558

> <Gold.PLP.Chemscore.Hbond>
3.0000

> <Gold.PLP.Chemscore.CHOScore>
0.0000

> <Gold.PLP.Chemscore.Metal>
0.0000

> <Gold.Chemscore.Hbonds>
donor molecule, donor type, donor heavy atom, donor atom, acceptor molecule, acceptor atom, score
      L1  H    15    42       P1  8028  1.90
      P1  H  7997  8008       L1     3  0.90

> <Gold.PLP.Chemscore.Internal.Correction>
0.0221

> <Gold.Rescore>
     Score         DG    S(hbond)    S(metal)    S(lipo)     H(rot)  DE(clash)    DE(int)     intcor
     14.49     -15.42       0.84        0.00     106.25       2.07       0.26       0.67       ----

> <Gold.Chemscore.Fitness>
14.4875

> <Gold.Chemscore.DG>
-15.4194

> <Gold.Chemscore.ZeroCoef>
-5.4800

> <Gold.Chemscore.Hbond>
0.8371

> <Gold.Chemscore.Metal>
0.0000

> <Gold.Chemscore.Lipo>
106.2499

> <Gold.Chemscore.Internal_Hbond>
0.0000

> <Gold.Chemscore.DEClash>
0.2631

> <Gold.Chemscore.DEInternal>
0.6687

> <Gold.Chemscore.Rot>
2.0656

> <Gold.Chemscore.Internal.Correction>
   9.000000E+99

> <Gold.Chemscore.Hbonds>
donor molecule, donor type, donor heavy atom, donor atom, acceptor molecule, acceptor atom, score
      L1  H    15    42       P1  8028  0.22
      P1  H  7997  8008       L1     3  0.09

> <Gold.Chemscore.Hbond.Weighted>
-2.7960

> <Gold.Chemscore.Metal.Weighted>
-0.0000

> <Gold.Chemscore.Lipo.Weighted>
-12.4312

> <Gold.Chemscore.Internal_Hbond.Weighted>
0.0000

> <Gold.Chemscore.DEClash.Weighted>
0.2631

> <Gold.Chemscore.DEInternal.Weighted>
0.6687

> <Gold.Chemscore.Rot.Weighted>
5.2879

> <Gold.Chemscore.Internal.Correction.Weighted>
   9.000000E+99

> <Gold.Protein.RotatedTorsions>
[ 6907 6896 6895 6894 ] final  -47.50 input  -60.11 | X-H torsion
[ 7974 7965 7964 7962 ] final  133.25 input  175.53 | X-H torsion
[ 8008 7997 7996 7995 ] final  -91.87 input   59.86 | X-H torsion
[ 10167 10162 10161 10158 ] final   98.12 input  -65.29 | X-H torsion
[ 10718 10713 10712 10709 ] final  -67.61 input   66.30 | X-H torsion
[ 10763 10752 10751 10750 ] final  -28.71 input  -60.55 | X-H torsion
[ 11005 11000 10999 10996 ] final   59.77 input  -57.11 | X-H torsion

> <Gold.Protein.ActiveResidues>
 VAL166  LYS551  ARG553  GLY616  TRP617  ASP618  TYR619  PRO620  LYS621  CYS622 
 ASP623  PHE694  ASN695  SER759  ASP760  ASP761  ALA762  ILE779  LEU786  VAL792 
 PHE793  MET794  SER795  GLU796  ALA797  LYS798  CYS799  TRP800  GLU811  SER814 

> <Gold.Protein.RotatedAtoms>
  150.9001  134.8413  159.7354 H   0  0  0  0  0  0  0  0  0  0  0  0  # atno 6907 bound_to 6896
  152.4888  134.4515  159.9586 H   0  0  0  0  0  0  0  0  0  0  0  0  # atno 6908 bound_to 6896
  151.4568  133.3564  159.2838 H   0  0  0  0  0  0  0  0  0  0  0  0  # atno 6909 bound_to 6896
  144.9884  139.4431  143.5351 H   0  0  0  0  0  0  0  0  0  0  0  0  # atno 7974 bound_to 7965
  154.7161  140.0515  157.0595 H   0  0  0  0  0  0  0  0  0  0  0  0  # atno 8008 bound_to 7997
  155.0490  140.3177  155.4679 H   0  0  0  0  0  0  0  0  0  0  0  0  # atno 8009 bound_to 7997
  156.2803  140.2119  156.5615 H   0  0  0  0  0  0  0  0  0  0  0  0  # atno 8010 bound_to 7997
  139.7737  144.6913  151.0119 H   0  0  0  0  0  0  0  0  0  0  0  0  # atno 10167 bound_to 10162
  156.0548  130.4281  150.1880 H   0  0  0  0  0  0  0  0  0  0  0  0  # atno 10718 bound_to 10713
  153.7528  135.6925  153.4942 H   0  0  0  0  0  0  0  0  0  0  0  0  # atno 10763 bound_to 10752
  153.1992  135.4443  155.0244 H   0  0  0  0  0  0  0  0  0  0  0  0  # atno 10764 bound_to 10752
  154.8181  135.3408  154.7047 H   0  0  0  0  0  0  0  0  0  0  0  0  # atno 10765 bound_to 10752
  140.0280  134.6054  155.9546 H   0  0  0  0  0  0  0  0  0  0  0  0  # atno 11005 bound_to 11000
  146.3425  139.9201  142.8768 LP  0  0  0  0  0  0  0  0  0  0  0  0  # atno 17320 bound_to 7965
  145.2320  140.9976  143.3985 LP  0  0  0  0  0  0  0  0  0  0  0  0  # atno 17321 bound_to 7965
  140.7815  143.4559  151.0346 LP  0  0  0  0  0  0  0  0  0  0  0  0  # atno 17342 bound_to 10162
  139.8242  143.7778  152.3178 LP  0  0  0  0  0  0  0  0  0  0  0  0  # atno 17343 bound_to 10162
  156.9958  130.9907  151.3403 LP  0  0  0  0  0  0  0  0  0  0  0  0  # atno 17370 bound_to 10713
  157.5508  130.8181  149.8143 LP  0  0  0  0  0  0  0  0  0  0  0  0  # atno 17371 bound_to 10713
  141.1814  133.6547  156.5036 LP  0  0  0  0  0  0  0  0  0  0  0  0  # atno 17394 bound_to 11000
  140.4274  134.7132  157.4923 LP  0  0  0  0  0  0  0  0  0  0  0  0  # atno 17395 bound_to 11000

$$$$
