AV-unprocessed.smi:109|AV-procd|sdf|1057|dock3
  -GOLD-   2262018123D 1   1.00000     0.00000
 Structure written by MMmdl.
 58 61  0  0  0  0  0  0  0  0  1 V2000
  152.9247  139.4270  155.5537 O   0  0  0  0  0  0  0  0  0  0  0  0
  151.9286  139.7297  156.5069 C   0  0  0  0  0  0  0  0  0  0  0  0
  150.8974  140.6936  155.8960 C   0  0  0  0  0  0  0  0  0  0  0  0
  149.8923  141.2891  156.9140 C   0  0  2  0  0  0  0  0  0  0  0  0
  148.7607  141.8826  156.1969 N   0  0  0  0  0  0  0  0  0  0  0  0
  148.0292  141.1871  155.2964 C   0  0  0  0  0  0  0  0  0  0  0  0
  148.2760  141.2709  153.9633 N   0  0  0  0  0  0  0  0  0  0  0  0
  147.5257  140.5827  153.0980 C   0  0  0  0  0  0  0  0  0  0  0  0
  146.4997  139.7667  153.3489 N   0  0  0  0  0  0  0  0  0  0  0  0
  146.2499  139.6734  154.6871 C   0  0  0  0  0  0  0  0  0  0  0  0
  146.9657  140.3466  155.7164 C   0  0  0  0  0  0  0  0  0  0  0  0
  146.4315  140.0151  156.9546 N   0  0  0  0  0  0  0  0  0  0  0  0
  145.4552  139.1959  156.6685 C   0  0  0  0  0  0  0  0  0  0  0  0
  145.2767  138.9344  155.3280 N   0  0  0  0  0  0  0  0  0  0  0  0
  144.2398  138.0616  154.6993 C   0  0  1  0  0  0  0  0  0  0  0  0
  144.4782  136.7489  155.1123 O   0  0  0  0  0  0  0  0  0  0  0  0
  143.2441  136.0847  155.3587 C   0  0  2  0  0  0  0  0  0  0  0  0
  142.7644  135.4284  154.0460 C   0  0  0  0  0  0  0  0  0  0  0  0
  141.4374  134.9629  154.1754 O   0  0  0  0  0  0  0  0  0  0  0  0
  142.3694  137.2153  155.9178 C   0  0  2  0  0  0  0  0  0  0  0  0
  140.9743  136.9748  155.8682 O   0  0  0  0  0  0  0  0  0  0  0  0
  142.8220  138.4567  155.1503 C   0  0  2  0  0  0  0  0  0  0  0  0
  141.9902  138.7246  154.0364 O   0  0  0  0  0  0  0  0  0  0  0  0
  150.5264  142.3559  157.8536 C   0  0  0  0  0  0  0  0  0  0  0  0
  151.2934  143.4651  157.0890 C   0  0  0  0  0  0  0  0  0  0  0  0
  151.9440  144.4897  158.0332 C   0  0  0  0  0  0  0  0  0  0  0  0
  152.8761  143.8103  159.0432 C   0  0  0  0  0  0  0  0  0  0  0  0
  152.1230  142.7302  159.8284 C   0  0  0  0  0  0  0  0  0  0  0  0
  151.4842  141.7012  158.8825 C   0  0  0  0  0  0  0  0  0  0  0  0
  144.4009  138.1618  153.6248 H   0  0  0  0  0  0  0  0  0  0  0  0
  143.4105  135.3118  156.1102 H   0  0  0  0  0  0  0  0  0  0  0  0
  142.6320  137.3497  156.9672 H   0  0  0  0  0  0  0  0  0  0  0  0
  142.8397  139.3377  155.7936 H   0  0  0  0  0  0  0  0  0  0  0  0
  152.5035  139.2241  154.7325 H   0  0  0  0  0  0  0  0  0  0  0  0
  151.4612  138.7980  156.8251 H   0  0  0  0  0  0  0  0  0  0  0  0
  152.4012  140.1769  157.3817 H   0  0  0  0  0  0  0  0  0  0  0  0
  151.4647  141.4948  155.4258 H   0  0  0  0  0  0  0  0  0  0  0  0
  150.3541  140.1908  155.0948 H   0  0  0  0  0  0  0  0  0  0  0  0
  149.5524  140.4771  157.5568 H   0  0  0  0  0  0  0  0  0  0  0  0
  148.5720  142.8508  156.4141 H   0  0  0  0  0  0  0  0  0  0  0  0
  147.7825  140.7052  152.0561 H   0  0  0  0  0  0  0  0  0  0  0  0
  144.8321  138.7577  157.4348 H   0  0  0  0  0  0  0  0  0  0  0  0
  142.8380  136.1067  153.1966 H   0  0  0  0  0  0  0  0  0  0  0  0
  143.3906  134.5660  153.8165 H   0  0  0  0  0  0  0  0  0  0  0  0
  141.2445  134.8585  155.0948 H   0  0  0  0  0  0  0  0  0  0  0  0
  140.8061  136.1153  156.2242 H   0  0  0  0  0  0  0  0  0  0  0  0
  142.3001  139.5156  153.6215 H   0  0  0  0  0  0  0  0  0  0  0  0
  149.7187  142.8369  158.4081 H   0  0  0  0  0  0  0  0  0  0  0  0
  152.0593  143.0141  156.4568 H   0  0  0  0  0  0  0  0  0  0  0  0
  150.6268  144.0148  156.4269 H   0  0  0  0  0  0  0  0  0  0  0  0
  152.5003  145.2268  157.4535 H   0  0  0  0  0  0  0  0  0  0  0  0
  151.1665  145.0393  158.5655 H   0  0  0  0  0  0  0  0  0  0  0  0
  153.7221  143.3630  158.5199 H   0  0  0  0  0  0  0  0  0  0  0  0
  153.2894  144.5514  159.7277 H   0  0  0  0  0  0  0  0  0  0  0  0
  152.8049  142.2294  160.5161 H   0  0  0  0  0  0  0  0  0  0  0  0
  151.3495  143.1936  160.4422 H   0  0  0  0  0  0  0  0  0  0  0  0
  150.9575  140.9635  159.4878 H   0  0  0  0  0  0  0  0  0  0  0  0
  152.2699  141.1570  158.3564 H   0  0  0  0  0  0  0  0  0  0  0  0
  1  2  1  0  0  0  0
  1 34  1  0  0  0  0
  2  3  1  0  0  0  0
  2 35  1  0  0  0  0
  2 36  1  0  0  0  0
  3  4  1  0  0  0  0
  3 37  1  0  0  0  0
  3 38  1  0  0  0  0
  4  5  1  0  0  0  0
  4 24  1  0  0  0  0
  4 39  1  0  0  0  0
  5  6  1  0  0  0  0
  5 40  1  0  0  0  0
  6 11  1  0  0  0  0
  6  7  2  0  0  0  0
  7  8  1  0  0  0  0
  8  9  2  0  0  0  0
  8 41  1  0  0  0  0
  9 10  1  0  0  0  0
 10 14  1  0  0  0  0
 10 11  2  0  0  0  0
 11 12  1  0  0  0  0
 12 13  2  0  0  0  0
 13 14  1  0  0  0  0
 13 42  1  0  0  0  0
 14 15  1  0  0  0  0
 15 30  1  0  0  0  0
 15 22  1  0  0  0  0
 15 16  1  0  0  0  0
 16 17  1  0  0  0  0
 17 31  1  0  0  0  0
 17 18  1  0  0  0  0
 17 20  1  0  0  0  0
 18 19  1  0  0  0  0
 18 43  1  0  0  0  0
 18 44  1  0  0  0  0
 19 45  1  0  0  0  0
 20 32  1  0  0  0  0
 20 21  1  0  0  0  0
 20 22  1  0  0  0  0
 21 46  1  0  0  0  0
 22 33  1  0  0  0  0
 22 23  1  0  0  0  0
 23 47  1  0  0  0  0
 24 29  1  0  0  0  0
 24 25  1  0  0  0  0
 24 48  1  0  0  0  0
 25 26  1  0  0  0  0
 25 49  1  0  0  0  0
 25 50  1  0  0  0  0
 26 27  1  0  0  0  0
 26 51  1  0  0  0  0
 26 52  1  0  0  0  0
 27 28  1  0  0  0  0
 27 53  1  0  0  0  0
 27 54  1  0  0  0  0
 28 29  1  0  0  0  0
 28 55  1  0  0  0  0
 28 56  1  0  0  0  0
 29 57  1  0  0  0  0
 29 58  1  0  0  0  0
M  END
> <s_m_source_file>
AV-unprocessed.smi

> <i_m_source_file_index>
109

> <i_lp_mmshare_version>
43012

> <i_f3d_flags>
0

> <s_epik_input>
W0NIMl0xW0NIMl1bQ0gyXVtDSDJdW0NIMl1bQ0hdMVtDQEhdKFtDSDJdW0NIMl1bT0hdKVtOSF1jKG5bY0hdbjIpYyhjMjMpbltjSF1uM1tDQEBIXTRPW0NASF0oW0NIMl1bT0hdKVtDQEBIXShbT0hdKVtDQEhdNFtPSF0=

> <s_epik_cmdline>
J2VwaWtfcHl0aG9uJywgJy1waCcsICc3LjAnLCAnLXRuJywgJzgnLCAnLW1hJywgJzIwMCcsICctbWV0YWxfYmluZGluZycsICctaW1hZScsICc8aW5maWxlLm1hZT4nLCAnLW9tYWUnLCAnPG91dGZpbGUubWFlPic=

> <r_lp_tautomer_probability>
1

> <r_epik_Ionization_Penalty>
0.000793976

> <r_epik_Ionization_Penalty_Charging>
0

> <r_epik_Ionization_Penalty_Neutral>
0.000793976

> <r_epik_State_Penalty>
-0

> <r_epik_Charging_Adjusted_Penalty>
0

> <i_epik_Tot_Q>
0

> <i_epik_Tot_abs_Q>
0

> <r_epik_Metal_State_Penalty>
-0

> <b_epik_Metal_Only>
0

> <s_epik_Chemistry_Notes>
This compound contains an acetal/aminal-like group ( X-CH(R)-Y where X, Y are N, S, or O) that may be acid/base labile, releasing an aldehyde.

> <s_lp_Force_Field>
OPLS_2005

> <r_lp_Energy>
58.5181

> <b_lp_Chiralities_Consistent>
1

> <s_lp_Variant>
AV-unprocessed.smi:109-27

> <Gold.Version>
5.8.1

> <Gold.Id.Protein>
6NUR|6NUR_protein|mol2

> <Gold.PLP.Fitness>
53.4003

> <Gold.PLP.PLP>
-38.5810

> <Gold.PLP.part.hbond>
-5.0855

> <Gold.PLP.part.metal>
0.0000

> <Gold.PLP.part.buried>
-4.4169

> <Gold.PLP.part.nonpolar>
-31.4643

> <Gold.PLP.part.repulsive>
1.0035

> <Gold.PLP.ligand.clash>
0.0000

> <Gold.PLP.ligand.torsion>
1.1012

> <Gold.PLP.Chemscore.Hbond>
4.5523

> <Gold.PLP.Chemscore.CHOScore>
0.9243

> <Gold.PLP.Chemscore.Metal>
0.0000

> <Gold.Chemscore.Hbonds>
donor molecule, donor type, donor heavy atom, donor atom, acceptor molecule, acceptor atom, score
      L1  H     5    40       P1  8028  0.81
      L1  H    19    45       P1 11000  1.00
      L1  H    21    46       P1 11000  0.71
      L1  H    23    47       P1 10175  1.00
      P1  H  7997  8009       L1     1  1.00
      L1  C     8    41       P1  7957  0.93

> <Gold.PLP.Chemscore.Internal.Correction>
0.5918

> <Gold.Rescore>
     Score         DG    S(hbond)    S(metal)    S(lipo)     H(rot)  DE(clash)    DE(int)     intcor
     10.84     -13.87       3.44        0.00      93.18       5.47       1.87       1.16       ----

> <Gold.Chemscore.Fitness>
10.8372

> <Gold.Chemscore.DG>
-13.8650

> <Gold.Chemscore.ZeroCoef>
-5.4800

> <Gold.Chemscore.Hbond>
3.4362

> <Gold.Chemscore.Metal>
0.0000

> <Gold.Chemscore.Lipo>
93.1774

> <Gold.Chemscore.Internal_Hbond>
0.0000

> <Gold.Chemscore.DEClash>
1.8669

> <Gold.Chemscore.DEInternal>
1.1610

> <Gold.Chemscore.Rot>
5.4662

> <Gold.Chemscore.Internal.Correction>
   9.000000E+99

> <Gold.Chemscore.Hbonds>
donor molecule, donor type, donor heavy atom, donor atom, acceptor molecule, acceptor atom, score
      L1  H     5    40       P1  8028  0.70
      L1  H    19    45       P1 11000  0.29
      L1  H    21    46       P1 11000  0.08
      L1  H    23    47       P1 10175  0.94
      P1  H  7997  8009       L1     1  0.82

> <Gold.Chemscore.Hbond.Weighted>
-11.4768

> <Gold.Chemscore.Metal.Weighted>
-0.0000

> <Gold.Chemscore.Lipo.Weighted>
-10.9018

> <Gold.Chemscore.Internal_Hbond.Weighted>
0.0000

> <Gold.Chemscore.DEClash.Weighted>
1.8669

> <Gold.Chemscore.DEInternal.Weighted>
1.1610

> <Gold.Chemscore.Rot.Weighted>
13.9935

> <Gold.Chemscore.Internal.Correction.Weighted>
   9.000000E+99

> <Gold.Protein.RotatedTorsions>
[ 6907 6896 6895 6894 ] final -134.37 input  -60.11 | X-H torsion
[ 7974 7965 7964 7962 ] final  144.73 input  175.53 | X-H torsion
[ 8008 7997 7996 7995 ] final -137.09 input   59.86 | X-H torsion
[ 10167 10162 10161 10158 ] final  -41.52 input  -65.29 | X-H torsion
[ 10718 10713 10712 10709 ] final -123.60 input   66.30 | X-H torsion
[ 10763 10752 10751 10750 ] final  179.78 input  -60.55 | X-H torsion
[ 11005 11000 10999 10996 ] final -116.18 input  -57.11 | X-H torsion

> <Gold.Protein.ActiveResidues>
 VAL166  LYS551  ARG553  GLY616  TRP617  ASP618  TYR619  PRO620  LYS621  CYS622 
 ASP623  PHE694  ASN695  SER759  ASP760  ASP761  ALA762  ILE779  LEU786  VAL792 
 PHE793  MET794  SER795  GLU796  ALA797  LYS798  CYS799  TRP800  GLU811  SER814 

> <Gold.Protein.RotatedAtoms>
  150.9851  133.6206  159.2716 H   0  0  0  0  0  0  0  0  0  0  0  0  # atno 6907 bound_to 6896
  151.3447  135.0870  159.9392 H   0  0  0  0  0  0  0  0  0  0  0  0  # atno 6908 bound_to 6896
  152.5228  133.9455  159.7701 H   0  0  0  0  0  0  0  0  0  0  0  0  # atno 6909 bound_to 6896
  144.8811  139.5697  143.5842 H   0  0  0  0  0  0  0  0  0  0  0  0  # atno 7974 bound_to 7965
  155.4060  140.0509  157.3034 H   0  0  0  0  0  0  0  0  0  0  0  0  # atno 8008 bound_to 7997
  154.4968  140.2141  155.9390 H   0  0  0  0  0  0  0  0  0  0  0  0  # atno 8009 bound_to 7997
  156.1416  140.3153  155.8510 H   0  0  0  0  0  0  0  0  0  0  0  0  # atno 8010 bound_to 7997
  140.7000  143.3090  151.3078 H   0  0  0  0  0  0  0  0  0  0  0  0  # atno 10167 bound_to 10162
  156.1516  130.6538  150.9922 H   0  0  0  0  0  0  0  0  0  0  0  0  # atno 10718 bound_to 10713
  154.5251  135.2796  155.1229 H   0  0  0  0  0  0  0  0  0  0  0  0  # atno 10763 bound_to 10752
  154.2771  135.6292  153.5336 H   0  0  0  0  0  0  0  0  0  0  0  0  # atno 10764 bound_to 10752
  152.9945  135.5642  154.5750 H   0  0  0  0  0  0  0  0  0  0  0  0  # atno 10765 bound_to 10752
  141.0439  133.9793  157.2949 H   0  0  0  0  0  0  0  0  0  0  0  0  # atno 11005 bound_to 11000
  146.2995  139.7382  142.9102 LP  0  0  0  0  0  0  0  0  0  0  0  0  # atno 17320 bound_to 7965
  145.3952  141.0378  143.3101 LP  0  0  0  0  0  0  0  0  0  0  0  0  # atno 17321 bound_to 7965
  139.6506  144.0369  152.2623 LP  0  0  0  0  0  0  0  0  0  0  0  0  # atno 17342 bound_to 10162
  139.9904  144.6365  150.7819 LP  0  0  0  0  0  0  0  0  0  0  0  0  # atno 17343 bound_to 10162
  157.6661  131.0871  150.7724 LP  0  0  0  0  0  0  0  0  0  0  0  0  # atno 17370 bound_to 10713
  156.7792  130.4853  149.5404 LP  0  0  0  0  0  0  0  0  0  0  0  0  # atno 17371 bound_to 10713
  139.9297  135.0200  156.8357 LP  0  0  0  0  0  0  0  0  0  0  0  0  # atno 17394 bound_to 11000
  140.6183  134.0018  155.7607 LP  0  0  0  0  0  0  0  0  0  0  0  0  # atno 17395 bound_to 11000

$$$$
