AV-unprocessed.smi:31|AV-procd|sdf|195|dock3
  -GOLD-   2262015463D 1   1.00000     0.00000
 Structure written by MMmdl.
 49 52  0  0  0  0  0  0  0  0  1 V2000
  150.4660  140.6786  154.5792 O   0  0  0  0  0  0  0  0  0  0  0  0
  150.7227  139.5943  155.1045 C   0  0  0  0  0  0  0  0  0  0  0  0
  150.6200  138.2914  154.2952 C   0  0  0  0  0  0  0  0  0  0  0  0
  149.7733  137.2624  154.9379 N   0  0  0  0  0  0  0  0  0  0  0  0
  148.3709  137.4621  154.9809 C   0  0  0  0  0  0  0  0  0  0  0  0
  147.8556  138.4785  154.5128 O   0  0  0  0  0  0  0  0  0  0  0  0
  147.6005  136.3886  155.5986 C   0  0  0  0  0  0  0  0  0  0  0  0
  146.2628  136.4902  155.6788 F   0  0  0  0  0  0  0  0  0  0  0  0
  148.2096  135.2887  156.0869 C   0  0  0  0  0  0  0  0  0  0  0  0
  149.5798  135.1080  156.0393 N   0  0  0  0  0  0  0  0  0  0  0  0
  150.2278  133.8499  156.5734 C   0  0  2  0  0  0  0  0  0  0  0  0
  149.8479  132.6483  155.7009 C   0  0  0  0  0  0  0  0  0  0  0  0
  148.6466  132.0971  156.4370 C   0  0  0  0  0  0  0  0  0  0  0  0
  149.0236  132.3736  157.8879 C   0  0  0  0  0  0  0  0  0  0  0  0
  149.7492  133.6003  157.8642 O   0  0  0  0  0  0  0  0  0  0  0  0
  150.3944  136.0970  155.4470 C   0  0  0  0  0  0  0  0  0  0  0  0
  151.6150  135.9417  155.3650 O   0  0  0  0  0  0  0  0  0  0  0  0
  151.1204  139.4427  156.3809 N   0  0  0  0  0  0  0  0  0  0  0  0
  151.3249  140.4455  157.3668 C   0  0  0  0  0  0  0  0  0  0  0  0
  152.2016  140.1440  158.4256 C   0  0  0  0  0  0  0  0  0  0  0  0
  152.4523  141.0936  159.4321 C   0  0  0  0  0  0  0  0  0  0  0  0
  151.8269  142.3560  159.4070 C   0  0  0  0  0  0  0  0  0  0  0  0
  150.8809  142.6422  158.3793 C   0  0  0  0  0  0  0  0  0  0  0  0
  150.6576  141.6927  157.3614 C   0  0  0  0  0  0  0  0  0  0  0  0
  150.1320  143.7971  158.3134 O   0  0  0  0  0  0  0  0  0  0  0  0
  149.7461  144.3651  159.5563 C   0  0  0  0  0  0  0  0  0  0  0  0
  150.8522  145.2570  160.1239 C   0  0  0  0  0  0  0  0  0  0  0  0
  152.2359  144.6135  160.0133 C   0  0  0  0  0  0  0  0  0  0  0  0
  152.1967  143.2454  160.3920 O   0  0  0  0  0  0  0  0  0  0  0  0
  150.2453  138.5274  153.2978 H   0  0  0  0  0  0  0  0  0  0  0  0
  151.6297  137.9188  154.1159 H   0  0  0  0  0  0  0  0  0  0  0  0
  147.5870  134.5229  156.5250 H   0  0  0  0  0  0  0  0  0  0  0  0
  151.2995  134.0504  156.6116 H   0  0  0  0  0  0  0  0  0  0  0  0
  149.6465  132.9297  154.6664 H   0  0  0  0  0  0  0  0  0  0  0  0
  150.6693  131.9311  155.7192 H   0  0  0  0  0  0  0  0  0  0  0  0
  147.7486  132.6533  156.1654 H   0  0  0  0  0  0  0  0  0  0  0  0
  148.4678  131.0406  156.2362 H   0  0  0  0  0  0  0  0  0  0  0  0
  148.1551  132.4347  158.5437 H   0  0  0  0  0  0  0  0  0  0  0  0
  149.6795  131.5877  158.2649 H   0  0  0  0  0  0  0  0  0  0  0  0
  151.3831  138.5066  156.6531 H   0  0  0  0  0  0  0  0  0  0  0  0
  152.7041  139.1881  158.4606 H   0  0  0  0  0  0  0  0  0  0  0  0
  153.1533  140.8599  160.2199 H   0  0  0  0  0  0  0  0  0  0  0  0
  149.9349  141.9307  156.5963 H   0  0  0  0  0  0  0  0  0  0  0  0
  148.8422  144.9552  159.4039 H   0  0  0  0  0  0  0  0  0  0  0  0
  149.4768  143.5808  160.2668 H   0  0  0  0  0  0  0  0  0  0  0  0
  150.8649  146.2138  159.6014 H   0  0  0  0  0  0  0  0  0  0  0  0
  150.6265  145.4786  161.1672 H   0  0  0  0  0  0  0  0  0  0  0  0
  152.6330  144.7178  159.0016 H   0  0  0  0  0  0  0  0  0  0  0  0
  152.9359  145.1361  160.6654 H   0  0  0  0  0  0  0  0  0  0  0  0
  1  2  2  0  0  0  0
  2  3  1  0  0  0  0
  2 18  1  0  0  0  0
  3  4  1  0  0  0  0
  3 30  1  0  0  0  0
  3 31  1  0  0  0  0
  4 16  1  0  0  0  0
  4  5  1  0  0  0  0
  5  6  2  0  0  0  0
  5  7  1  0  0  0  0
  7  8  1  0  0  0  0
  7  9  2  0  0  0  0
  9 10  1  0  0  0  0
  9 32  1  0  0  0  0
 10 11  1  0  0  0  0
 10 16  1  0  0  0  0
 11 15  1  0  0  0  0
 11 12  1  0  0  0  0
 11 33  1  0  0  0  0
 12 13  1  0  0  0  0
 12 34  1  0  0  0  0
 12 35  1  0  0  0  0
 13 14  1  0  0  0  0
 13 36  1  0  0  0  0
 13 37  1  0  0  0  0
 14 15  1  0  0  0  0
 14 38  1  0  0  0  0
 14 39  1  0  0  0  0
 16 17  2  0  0  0  0
 18 19  1  0  0  0  0
 18 40  1  0  0  0  0
 19 24  1  0  0  0  0
 19 20  2  0  0  0  0
 20 21  1  0  0  0  0
 20 41  1  0  0  0  0
 21 22  2  0  0  0  0
 21 42  1  0  0  0  0
 22 29  1  0  0  0  0
 22 23  1  0  0  0  0
 23 24  2  0  0  0  0
 23 25  1  0  0  0  0
 24 43  1  0  0  0  0
 25 26  1  0  0  0  0
 26 27  1  0  0  0  0
 26 44  1  0  0  0  0
 26 45  1  0  0  0  0
 27 28  1  0  0  0  0
 27 46  1  0  0  0  0
 27 47  1  0  0  0  0
 28 29  1  0  0  0  0
 28 48  1  0  0  0  0
 28 49  1  0  0  0  0
M  END
> <s_m_source_file>
AV-unprocessed.smi

> <i_m_source_file_index>
31

> <i_lp_mmshare_version>
43012

> <i_f3d_flags>
0

> <s_epik_input>
TzFbQ0gyXVtDSDJdW0NIMl1PYyhjMTIpW2NIXWMoW2NIXVtjSF0yKVtOSF1DKD1PKVtDSDJdbjNjKD1PKWMoRilbY0hdbihjMz1PKVtDQEBIXTRbQ0gyXVtDSDJdW0NIMl1PNA==

> <s_epik_cmdline>
J2VwaWtfcHl0aG9uJywgJy1waCcsICc3LjAnLCAnLXRuJywgJzgnLCAnLW1hJywgJzIwMCcsICctbWV0YWxfYmluZGluZycsICctaW1hZScsICc8aW5maWxlLm1hZT4nLCAnLW9tYWUnLCAnPG91dGZpbGUubWFlPic=

> <r_lp_tautomer_probability>
1

> <r_epik_Ionization_Penalty>
1.0483e-05

> <r_epik_Ionization_Penalty_Charging>
3.88729e-08

> <r_epik_Ionization_Penalty_Neutral>
1.04441e-05

> <r_epik_State_Penalty>
-0

> <r_epik_Charging_Adjusted_Penalty>
3.88729e-08

> <i_epik_Tot_Q>
0

> <i_epik_Tot_abs_Q>
0

> <r_epik_Metal_State_Penalty>
-0

> <b_epik_Metal_Only>
0

> <s_epik_Chemistry_Notes>
This compound contains an acetal/aminal-like group ( X-CH(R)-Y where X, Y are N, S, or O) that may be acid/base labile, releasing an aldehyde.

> <s_lp_Force_Field>
OPLS_2005

> <r_lp_Energy>
45.2544

> <b_lp_Chiralities_Consistent>
1

> <s_lp_Variant>
AV-unprocessed.smi:31-1

> <Gold.Version>
5.8.1

> <Gold.Id.Protein>
6NUR|6NUR_protein|mol2

> <Gold.PLP.Fitness>
46.6274

> <Gold.PLP.PLP>
-38.7888

> <Gold.PLP.part.hbond>
-2.9410

> <Gold.PLP.part.metal>
0.0000

> <Gold.PLP.part.buried>
-7.4110

> <Gold.PLP.part.nonpolar>
-30.2769

> <Gold.PLP.part.repulsive>
1.1540

> <Gold.PLP.ligand.clash>
0.0000

> <Gold.PLP.ligand.torsion>
0.4517

> <Gold.PLP.Chemscore.Hbond>
2.8960

> <Gold.PLP.Chemscore.CHOScore>
0.0000

> <Gold.PLP.Chemscore.Metal>
0.0000

> <Gold.Chemscore.Hbonds>
donor molecule, donor type, donor heavy atom, donor atom, acceptor molecule, acceptor atom, score
      P1  H  6896  6907       L1    15  1.00
      P1  H  7989  7998       L1     1  0.90
      P1  H 10752 10765       L1    17  1.00

> <Gold.PLP.Chemscore.Internal.Correction>
0.0541

> <Gold.Rescore>
     Score         DG    S(hbond)    S(metal)    S(lipo)     H(rot)  DE(clash)    DE(int)     intcor
     19.46     -20.95       2.78        0.00      88.84       1.64       0.02       1.47       ----

> <Gold.Chemscore.Fitness>
19.4562

> <Gold.Chemscore.DG>
-20.9466

> <Gold.Chemscore.ZeroCoef>
-5.4800

> <Gold.Chemscore.Hbond>
2.7777

> <Gold.Chemscore.Metal>
0.0000

> <Gold.Chemscore.Lipo>
88.8418

> <Gold.Chemscore.Internal_Hbond>
0.0000

> <Gold.Chemscore.DEClash>
0.0234

> <Gold.Chemscore.DEInternal>
1.4669

> <Gold.Chemscore.Rot>
1.6427

> <Gold.Chemscore.Internal.Correction>
   9.000000E+99

> <Gold.Chemscore.Hbonds>
donor molecule, donor type, donor heavy atom, donor atom, acceptor molecule, acceptor atom, score
      P1  H  6896  6907       L1    15  0.64
      P1  H  7989  7998       L1     1  0.43
      P1  H 10752 10765       L1    17  0.94

> <Gold.Chemscore.Hbond.Weighted>
-9.2774

> <Gold.Chemscore.Metal.Weighted>
-0.0000

> <Gold.Chemscore.Lipo.Weighted>
-10.3945

> <Gold.Chemscore.Internal_Hbond.Weighted>
0.0000

> <Gold.Chemscore.DEClash.Weighted>
0.0234

> <Gold.Chemscore.DEInternal.Weighted>
1.4669

> <Gold.Chemscore.Rot.Weighted>
4.2053

> <Gold.Chemscore.Internal.Correction.Weighted>
   9.000000E+99

> <Gold.Protein.RotatedTorsions>
[ 6907 6896 6895 6894 ] final -134.98 input  -60.11 | X-H torsion
[ 7974 7965 7964 7962 ] final   44.17 input  175.53 | X-H torsion
[ 8008 7997 7996 7995 ] final   98.20 input   59.86 | X-H torsion
[ 10167 10162 10161 10158 ] final -162.26 input  -65.29 | X-H torsion
[ 10718 10713 10712 10709 ] final -176.58 input   66.30 | X-H torsion
[ 10763 10752 10751 10750 ] final -170.46 input  -60.55 | X-H torsion
[ 11005 11000 10999 10996 ] final  169.19 input  -57.11 | X-H torsion

> <Gold.Protein.ActiveResidues>
 VAL166  LYS551  ARG553  GLY616  TRP617  ASP618  TYR619  PRO620  LYS621  CYS622 
 ASP623  PHE694  ASN695  SER759  ASP760  ASP761  ALA762  ILE779  LEU786  VAL792 
 PHE793  MET794  SER795  GLU796  ALA797  LYS798  CYS799  TRP800  GLU811  SER814 

> <Gold.Protein.RotatedAtoms>
  150.9923  133.6137  159.2706 H   0  0  0  0  0  0  0  0  0  0  0  0  # atno 6907 bound_to 6896
  151.3353  135.0850  159.9362 H   0  0  0  0  0  0  0  0  0  0  0  0  # atno 6908 bound_to 6896
  152.5249  133.9545  159.7742 H   0  0  0  0  0  0  0  0  0  0  0  0  # atno 6909 bound_to 6896
  146.0592  139.5104  142.9669 H   0  0  0  0  0  0  0  0  0  0  0  0  # atno 7974 bound_to 7965
  156.0980  140.3247  155.7904 H   0  0  0  0  0  0  0  0  0  0  0  0  # atno 8008 bound_to 7997
  155.4885  140.0559  157.2974 H   0  0  0  0  0  0  0  0  0  0  0  0  # atno 8009 bound_to 7997
  154.4679  140.1997  156.0087 H   0  0  0  0  0  0  0  0  0  0  0  0  # atno 8010 bound_to 7997
  139.6405  144.0269  152.2088 H   0  0  0  0  0  0  0  0  0  0  0  0  # atno 10167 bound_to 10162
  156.8167  130.9605  151.3113 H   0  0  0  0  0  0  0  0  0  0  0  0  # atno 10718 bound_to 10713
  154.6412  135.2899  155.0100 H   0  0  0  0  0  0  0  0  0  0  0  0  # atno 10763 bound_to 10752
  154.1226  135.6546  153.4910 H   0  0  0  0  0  0  0  0  0  0  0  0  # atno 10764 bound_to 10752
  153.0328  135.5291  154.7280 H   0  0  0  0  0  0  0  0  0  0  0  0  # atno 10765 bound_to 10752
  140.2951  134.7641  157.3870 H   0  0  0  0  0  0  0  0  0  0  0  0  # atno 11005 bound_to 11000
  145.6591  141.0245  143.1719 LP  0  0  0  0  0  0  0  0  0  0  0  0  # atno 17320 bound_to 7965
  144.7165  139.8179  143.7397 LP  0  0  0  0  0  0  0  0  0  0  0  0  # atno 17321 bound_to 7965
  139.9957  144.6330  150.7774 LP  0  0  0  0  0  0  0  0  0  0  0  0  # atno 17342 bound_to 10162
  140.7488  143.2928  151.3284 LP  0  0  0  0  0  0  0  0  0  0  0  0  # atno 17343 bound_to 10162
  157.6478  130.8859  149.9572 LP  0  0  0  0  0  0  0  0  0  0  0  0  # atno 17370 bound_to 10713
  156.1012  130.3655  150.0214 LP  0  0  0  0  0  0  0  0  0  0  0  0  # atno 17371 bound_to 10713
  140.1160  134.5283  155.8225 LP  0  0  0  0  0  0  0  0  0  0  0  0  # atno 17394 bound_to 11000
  141.2139  133.6740  156.6777 LP  0  0  0  0  0  0  0  0  0  0  0  0  # atno 17395 bound_to 11000

$$$$
