AV-unprocessed.smi:1216|AV-procd|sdf|5099|dock10
  -GOLD-   22720 4153D 1   1.00000     0.00000
 Structure written by MMmdl.
 43 44  0  0  0  0  0  0  0  0  2 V2000
  146.6658  141.8910  155.5229 C   0  0  0  0  0  0  0  0  0  0  0  0
  148.0147  141.2895  155.1054 C   0  0  1  0  0  0  0  0  0  0  0  0
  148.1021  141.1283  153.5720 C   0  0  0  0  0  0  0  0  0  0  0  0
  147.2541  140.0484  153.0561 N   0  0  0  0  0  0  0  0  0  0  0  0
  146.8638  138.9091  153.7124 C   0  0  0  0  0  0  0  0  0  0  0  0
  146.0766  138.2050  152.8381 C   0  0  0  0  0  0  0  0  0  0  0  0
  146.0253  138.9402  151.6842 N   0  3  0  0  0  0  0  0  0  0  0  0
  146.7453  140.0586  151.8172 C   0  0  0  0  0  0  0  0  0  0  0  0
  149.0874  142.1462  155.6084 N   0  0  0  0  0  0  0  0  0  0  0  0
  150.2968  141.7342  156.0198 C   0  0  0  0  0  0  0  0  0  0  0  0
  150.6598  140.5575  155.9800 O   0  0  0  0  0  0  0  0  0  0  0  0
  151.2412  142.8329  156.5257 C   0  0  0  0  0  0  0  0  0  0  0  0
  151.5318  142.7344  157.9642 N   0  0  0  0  0  0  0  0  0  0  0  0
  151.0050  141.5533  158.6666 C   0  0  0  0  0  0  0  0  0  0  0  0
  152.0978  140.5520  159.1074 C   0  0  0  0  0  0  0  0  0  0  0  0
  153.4763  141.1540  159.4444 C   0  0  0  0  0  0  0  0  0  0  0  0
  153.4498  142.3218  160.4529 C   0  0  0  0  0  0  0  0  0  0  0  0
  152.5204  143.5107  160.1100 C   0  0  0  0  0  0  0  0  0  0  0  0
  152.2464  143.6918  158.6078 C   0  0  0  0  0  0  0  0  0  0  0  0
  152.6824  144.6954  158.0429 O   0  0  0  0  0  0  0  0  0  0  0  0
  145.8373  141.2622  155.1956 H   0  0  0  0  0  0  0  0  0  0  0  0
  146.5210  142.8822  155.0917 H   0  0  0  0  0  0  0  0  0  0  0  0
  146.5957  141.9854  156.6072 H   0  0  0  0  0  0  0  0  0  0  0  0
  148.0830  140.3052  155.5725 H   0  0  0  0  0  0  0  0  0  0  0  0
  147.7896  142.0478  153.0750 H   0  0  0  0  0  0  0  0  0  0  0  0
  149.1295  140.9355  153.2593 H   0  0  0  0  0  0  0  0  0  0  0  0
  147.1622  138.6933  154.7281 H   0  0  0  0  0  0  0  0  0  0  0  0
  145.5631  137.2609  152.9472 H   0  0  0  0  0  0  0  0  0  0  0  0
  146.8812  140.8236  151.0735 H   0  0  0  0  0  0  0  0  0  0  0  0
  148.8831  143.1332  155.6734 H   0  0  0  0  0  0  0  0  0  0  0  0
  152.1655  142.7828  155.9491 H   0  0  0  0  0  0  0  0  0  0  0  0
  150.8142  143.8117  156.2991 H   0  0  0  0  0  0  0  0  0  0  0  0
  150.4300  141.8783  159.5339 H   0  0  0  0  0  0  0  0  0  0  0  0
  150.2727  141.0324  158.0484 H   0  0  0  0  0  0  0  0  0  0  0  0
  151.7291  139.9829  159.9612 H   0  0  0  0  0  0  0  0  0  0  0  0
  152.2417  139.8228  158.3095 H   0  0  0  0  0  0  0  0  0  0  0  0
  154.1177  140.3644  159.8369 H   0  0  0  0  0  0  0  0  0  0  0  0
  153.9634  141.4795  158.5241 H   0  0  0  0  0  0  0  0  0  0  0  0
  153.1697  141.9356  161.4335 H   0  0  0  0  0  0  0  0  0  0  0  0
  154.4679  142.6958  160.5677 H   0  0  0  0  0  0  0  0  0  0  0  0
  151.5695  143.4059  160.6318 H   0  0  0  0  0  0  0  0  0  0  0  0
  152.9541  144.4293  160.5074 H   0  0  0  0  0  0  0  0  0  0  0  0
  145.5152  138.6789  150.8499 H   0  0  0  0  0  0  0  0  0  0  0  0
  1  2  1  0  0  0  0
  1 21  1  0  0  0  0
  1 22  1  0  0  0  0
  1 23  1  0  0  0  0
  2  3  1  0  0  0  0
  2  9  1  0  0  0  0
  2 24  1  0  0  0  0
  3  4  1  0  0  0  0
  3 25  1  0  0  0  0
  3 26  1  0  0  0  0
  4  8  1  0  0  0  0
  4  5  1  0  0  0  0
  5  6  2  0  0  0  0
  5 27  1  0  0  0  0
  6  7  1  0  0  0  0
  6 28  1  0  0  0  0
  7  8  2  0  0  0  0
  7 43  1  0  0  0  0
  8 29  1  0  0  0  0
  9 10  1  0  0  0  0
  9 30  1  0  0  0  0
 10 11  2  0  0  0  0
 10 12  1  0  0  0  0
 12 13  1  0  0  0  0
 12 31  1  0  0  0  0
 12 32  1  0  0  0  0
 13 19  1  0  0  0  0
 13 14  1  0  0  0  0
 14 15  1  0  0  0  0
 14 33  1  0  0  0  0
 14 34  1  0  0  0  0
 15 16  1  0  0  0  0
 15 35  1  0  0  0  0
 15 36  1  0  0  0  0
 16 17  1  0  0  0  0
 16 37  1  0  0  0  0
 16 38  1  0  0  0  0
 17 18  1  0  0  0  0
 17 39  1  0  0  0  0
 17 40  1  0  0  0  0
 18 19  1  0  0  0  0
 18 41  1  0  0  0  0
 18 42  1  0  0  0  0
 19 20  2  0  0  0  0
M  CHG  1   7   1
M  END
> <s_m_source_file>
AV-unprocessed.smi

> <i_m_source_file_index>
1216

> <i_lp_mmshare_version>
43012

> <i_f3d_flags>
0

> <s_epik_input>
W2NIXTFuW2NIXVtjSF1uMVtDSDJdW0NAQEhdKFtDSDNdKVtOSF1DKD1PKVtDSDJdTjJbQ0gyXVtDSDJdW0NIMl1bQ0gyXVtDSDJdQzI9Tw==

> <s_epik_cmdline>
J2VwaWtfcHl0aG9uJywgJy1waCcsICc3LjAnLCAnLXRuJywgJzgnLCAnLW1hJywgJzIwMCcsICctbWV0YWxfYmluZGluZycsICctaW1hZScsICc8aW5maWxlLm1hZT4nLCAnLW9tYWUnLCAnPG91dGZpbGUubWFlPic=

> <r_lp_tautomer_probability>
1

> <r_epik_Ionization_Penalty>
0.254232

> <r_epik_Ionization_Penalty_Charging>
0

> <r_epik_Ionization_Penalty_Neutral>
0.254232

> <r_epik_State_Penalty>
0.245698

> <r_epik_Charging_Adjusted_Penalty>
0.245698

> <i_epik_Tot_Q>
1

> <i_epik_Tot_abs_Q>
1

> <r_epik_Metal_State_Penalty>
0.535799

> <b_epik_Metal_Only>
0

> <s_lp_Force_Field>
OPLS_2005

> <r_lp_Energy>
21.2202

> <b_lp_Chiralities_Consistent>
1

> <s_lp_Variant>
AV-unprocessed.smi:1216-2

> <Gold.Version>
5.8.1

> <Gold.Id.Protein>
6NUR|6NUR_protein|mol2

> <Gold.PLP.Fitness>
45.1530

> <Gold.PLP.PLP>
-40.9555

> <Gold.PLP.part.hbond>
-3.0000

> <Gold.PLP.part.metal>
0.0000

> <Gold.PLP.part.buried>
-0.6173

> <Gold.PLP.part.nonpolar>
-37.4026

> <Gold.PLP.part.repulsive>
0.2500

> <Gold.PLP.ligand.clash>
0.1526

> <Gold.PLP.ligand.torsion>
0.9116

> <Gold.PLP.Chemscore.Hbond>
1.9760

> <Gold.PLP.Chemscore.CHOScore>
0.0737

> <Gold.PLP.Chemscore.Metal>
0.0000

> <Gold.Chemscore.Hbonds>
donor molecule, donor type, donor heavy atom, donor atom, acceptor molecule, acceptor atom, score
      L1  H     7    43       P1 10171  1.00
      L1  H     9    30       P1  8028  1.00
      L1  C     8    29       P1  7957  0.04

> <Gold.PLP.Chemscore.Internal.Correction>
0.0243

> <Gold.Rescore>
     Score         DG    S(hbond)    S(metal)    S(lipo)     H(rot)  DE(clash)    DE(int)     intcor
     12.69     -16.36       1.99        0.00      84.78       2.22       1.60       2.07       ----

> <Gold.Chemscore.Fitness>
12.6916

> <Gold.Chemscore.DG>
-16.3643

> <Gold.Chemscore.ZeroCoef>
-5.4800

> <Gold.Chemscore.Hbond>
1.9876

> <Gold.Chemscore.Metal>
0.0000

> <Gold.Chemscore.Lipo>
84.7779

> <Gold.Chemscore.Internal_Hbond>
0.0000

> <Gold.Chemscore.DEClash>
1.5994

> <Gold.Chemscore.DEInternal>
2.0733

> <Gold.Chemscore.Rot>
2.2161

> <Gold.Chemscore.Internal.Correction>
   9.000000E+99

> <Gold.Chemscore.Hbonds>
donor molecule, donor type, donor heavy atom, donor atom, acceptor molecule, acceptor atom, score
      L1  H     7    43       P1 10171  0.95
      L1  H     9    30       P1  8028  0.98

> <Gold.Chemscore.Hbond.Weighted>
-6.6385

> <Gold.Chemscore.Metal.Weighted>
-0.0000

> <Gold.Chemscore.Lipo.Weighted>
-9.9190

> <Gold.Chemscore.Internal_Hbond.Weighted>
0.0000

> <Gold.Chemscore.DEClash.Weighted>
1.5994

> <Gold.Chemscore.DEInternal.Weighted>
2.0733

> <Gold.Chemscore.Rot.Weighted>
5.6733

> <Gold.Chemscore.Internal.Correction.Weighted>
   9.000000E+99

> <Gold.Protein.RotatedTorsions>
[ 6907 6896 6895 6894 ] final  -53.81 input  -60.11 | X-H torsion
[ 7974 7965 7964 7962 ] final  103.79 input  175.53 | X-H torsion
[ 8008 7997 7996 7995 ] final  -42.88 input   59.86 | X-H torsion
[ 10167 10162 10161 10158 ] final -174.90 input  -65.29 | X-H torsion
[ 10718 10713 10712 10709 ] final  -73.22 input   66.30 | X-H torsion
[ 10763 10752 10751 10750 ] final  -28.19 input  -60.55 | X-H torsion
[ 11005 11000 10999 10996 ] final   71.79 input  -57.11 | X-H torsion

> <Gold.Protein.ActiveResidues>
 VAL166  LYS551  ARG553  GLY616  TRP617  ASP618  TYR619  PRO620  LYS621  CYS622 
 ASP623  PHE694  ASN695  SER759  ASP760  ASP761  ALA762  ILE779  LEU786  VAL792 
 PHE793  MET794  SER795  GLU796  ALA797  LYS798  CYS799  TRP800  GLU811  SER814 

> <Gold.Protein.RotatedAtoms>
  150.8394  134.7680  159.6919 H   0  0  0  0  0  0  0  0  0  0  0  0  # atno 6907 bound_to 6896
  152.4484  134.5442  159.9858 H   0  0  0  0  0  0  0  0  0  0  0  0  # atno 6908 bound_to 6896
  151.5586  133.3369  159.3002 H   0  0  0  0  0  0  0  0  0  0  0  0  # atno 6909 bound_to 6896
  145.3413  139.2461  143.3608 H   0  0  0  0  0  0  0  0  0  0  0  0  # atno 7974 bound_to 7965
  154.3998  140.1462  156.3428 H   0  0  0  0  0  0  0  0  0  0  0  0  # atno 8008 bound_to 7997
  155.8341  140.3464  155.5569 H   0  0  0  0  0  0  0  0  0  0  0  0  # atno 8009 bound_to 7997
  155.8157  140.0890  157.1869 H   0  0  0  0  0  0  0  0  0  0  0  0  # atno 8010 bound_to 7997
  139.5609  144.1872  152.1237 H   0  0  0  0  0  0  0  0  0  0  0  0  # atno 10167 bound_to 10162
  156.0289  130.4389  150.2710 H   0  0  0  0  0  0  0  0  0  0  0  0  # atno 10718 bound_to 10713
  153.7443  135.6930  153.4960 H   0  0  0  0  0  0  0  0  0  0  0  0  # atno 10763 bound_to 10752
  153.2047  135.4424  155.0308 H   0  0  0  0  0  0  0  0  0  0  0  0  # atno 10764 bound_to 10752
  154.8210  135.3422  154.6967 H   0  0  0  0  0  0  0  0  0  0  0  0  # atno 10765 bound_to 10752
  139.9525  134.7202  156.0829 H   0  0  0  0  0  0  0  0  0  0  0  0  # atno 11005 bound_to 11000
  146.3006  140.4011  142.8705 LP  0  0  0  0  0  0  0  0  0  0  0  0  # atno 17320 bound_to 7965
  144.8788  140.7372  143.6000 LP  0  0  0  0  0  0  0  0  0  0  0  0  # atno 17321 bound_to 7965
  140.1385  144.5224  150.6758 LP  0  0  0  0  0  0  0  0  0  0  0  0  # atno 17342 bound_to 10162
  140.6889  143.2365  151.5186 LP  0  0  0  0  0  0  0  0  0  0  0  0  # atno 17343 bound_to 10162
  157.0813  131.0144  151.3155 LP  0  0  0  0  0  0  0  0  0  0  0  0  # atno 17370 bound_to 10713
  157.4925  130.7831  149.7522 LP  0  0  0  0  0  0  0  0  0  0  0  0  # atno 17371 bound_to 10713
  141.1190  133.6618  156.3167 LP  0  0  0  0  0  0  0  0  0  0  0  0  # atno 17394 bound_to 11000
  140.5686  134.5863  157.5452 LP  0  0  0  0  0  0  0  0  0  0  0  0  # atno 17395 bound_to 11000

$$$$
