AV-unprocessed.smi:1798|AV-procd|sdf|7259|dock6
  -GOLD-   22720 8513D 1   1.00000     0.00000
 Structure written by MMmdl.
 40 41  0  0  0  0  0  0  0  0  3 V2000
  143.4170  132.5667  149.8275 C   0  0  0  0  0  0  0  0  0  0  0  0
  144.8109  132.8787  150.3904 C   0  0  2  0  0  0  0  0  0  0  0  0
  145.1952  131.9011  151.5175 C   0  0  0  0  0  0  0  0  0  0  0  0
  146.5889  132.2117  152.0868 C   0  0  0  0  0  0  0  0  0  0  0  0
  146.6846  133.6697  152.5796 C   0  0  1  0  0  0  0  0  0  0  0  0
  148.0347  133.9684  153.0479 N   0  0  0  0  0  0  0  0  0  0  0  0
  148.3906  134.1434  154.3295 C   0  0  0  0  0  0  0  0  0  0  0  0
  147.5986  134.0521  155.2688 O   0  0  0  0  0  0  0  0  0  0  0  0
  149.8753  134.4468  154.5780 C   0  0  0  0  0  0  0  0  0  0  0  0
  150.0930  135.5817  155.4909 N   0  0  0  0  0  0  0  0  0  0  0  0
  150.7284  136.7206  154.9574 C   0  0  0  0  0  0  0  0  0  0  0  0
  150.9833  137.8137  155.7030 C   0  0  0  0  0  0  0  0  0  0  0  0
  151.6418  138.9720  155.1398 N   0  3  0  0  0  0  0  0  0  0  0  0
  150.9653  139.7957  154.5326 O   0  0  0  0  0  0  0  0  0  0  0  0
  152.8543  139.0965  155.2837 O   0  5  0  0  0  0  0  0  0  0  0  0
  150.5783  137.7893  157.0953 C   0  0  0  0  0  0  0  0  0  0  0  0
  149.9733  136.7019  157.6124 C   0  0  0  0  0  0  0  0  0  0  0  0
  149.7001  135.5121  156.7997 C   0  0  0  0  0  0  0  0  0  0  0  0
  149.1518  134.5139  157.2671 O   0  0  0  0  0  0  0  0  0  0  0  0
  146.2995  134.6483  151.4554 C   0  0  0  0  0  0  0  0  0  0  0  0
  144.9056  134.3337  150.8881 C   0  0  0  0  0  0  0  0  0  0  0  0
  142.6468  132.6775  150.5914 H   0  0  0  0  0  0  0  0  0  0  0  0
  143.3661  131.5456  149.4488 H   0  0  0  0  0  0  0  0  0  0  0  0
  143.1677  133.2355  149.0034 H   0  0  0  0  0  0  0  0  0  0  0  0
  145.5283  132.7541  149.5779 H   0  0  0  0  0  0  0  0  0  0  0  0
  144.4569  131.9536  152.3189 H   0  0  0  0  0  0  0  0  0  0  0  0
  145.1738  130.8761  151.1459 H   0  0  0  0  0  0  0  0  0  0  0  0
  146.8102  131.5219  152.9020 H   0  0  0  0  0  0  0  0  0  0  0  0
  147.3416  132.0314  151.3179 H   0  0  0  0  0  0  0  0  0  0  0  0
  145.9831  133.8106  153.4045 H   0  0  0  0  0  0  0  0  0  0  0  0
  148.7516  134.0538  152.3418 H   0  0  0  0  0  0  0  0  0  0  0  0
  150.3443  133.5440  154.9716 H   0  0  0  0  0  0  0  0  0  0  0  0
  150.3721  134.6316  153.6236 H   0  0  0  0  0  0  0  0  0  0  0  0
  150.9973  136.6367  153.9143 H   0  0  0  0  0  0  0  0  0  0  0  0
  150.7575  138.6421  157.7333 H   0  0  0  0  0  0  0  0  0  0  0  0
  149.6811  136.7046  158.6521 H   0  0  0  0  0  0  0  0  0  0  0  0
  146.3198  135.6728  151.8288 H   0  0  0  0  0  0  0  0  0  0  0  0
  147.0354  134.5977  150.6515 H   0  0  0  0  0  0  0  0  0  0  0  0
  144.6805  135.0225  150.0732 H   0  0  0  0  0  0  0  0  0  0  0  0
  144.1526  134.5108  151.6574 H   0  0  0  0  0  0  0  0  0  0  0  0
  1  2  1  0  0  0  0
  1 22  1  0  0  0  0
  1 23  1  0  0  0  0
  1 24  1  0  0  0  0
  2 21  1  0  0  0  0
  2  3  1  0  0  0  0
  2 25  1  0  0  0  0
  3  4  1  0  0  0  0
  3 26  1  0  0  0  0
  3 27  1  0  0  0  0
  4  5  1  0  0  0  0
  4 28  1  0  0  0  0
  4 29  1  0  0  0  0
  5  6  1  0  0  0  0
  5 20  1  0  0  0  0
  5 30  1  0  0  0  0
  6  7  1  0  0  0  0
  6 31  1  0  0  0  0
  7  8  2  0  0  0  0
  7  9  1  0  0  0  0
  9 10  1  0  0  0  0
  9 32  1  0  0  0  0
  9 33  1  0  0  0  0
 10 18  1  0  0  0  0
 10 11  1  0  0  0  0
 11 12  2  0  0  0  0
 11 34  1  0  0  0  0
 12 13  1  0  0  0  0
 12 16  1  0  0  0  0
 13 14  2  0  0  0  0
 13 15  1  0  0  0  0
 16 17  2  0  0  0  0
 16 35  1  0  0  0  0
 17 18  1  0  0  0  0
 17 36  1  0  0  0  0
 18 19  2  0  0  0  0
 20 21  1  0  0  0  0
 20 37  1  0  0  0  0
 20 38  1  0  0  0  0
 21 39  1  0  0  0  0
 21 40  1  0  0  0  0
M  CHG  1  13   1
M  CHG  1  15  -1
M  END
> <s_m_source_file>
AV-unprocessed.smi

> <i_m_source_file_index>
1798

> <i_lp_mmshare_version>
43012

> <i_f3d_flags>
0

> <s_epik_input>
W0NIM11bQ0BASF0xW0NIMl1bQ0gyXVtDQEhdKFtDSDJdW0NIMl0xKVtOSF1DKD1PKVtDSDJdbjJbY0hdYyhbTitdKD1PKVtPLV0pW2NIXVtjSF1jMj1P

> <s_epik_cmdline>
J2VwaWtfcHl0aG9uJywgJy1waCcsICc3LjAnLCAnLXRuJywgJzgnLCAnLW1hJywgJzIwMCcsICctbWV0YWxfYmluZGluZycsICctaW1hZScsICc8aW5maWxlLm1hZT4nLCAnLW9tYWUnLCAnPG91dGZpbGUubWFlPic=

> <r_lp_tautomer_probability>
1

> <r_epik_Ionization_Penalty>
1.91292e-08

> <r_epik_Ionization_Penalty_Charging>
8.23013e-11

> <r_epik_Ionization_Penalty_Neutral>
1.90469e-08

> <r_epik_State_Penalty>
-0

> <r_epik_Charging_Adjusted_Penalty>
8.23013e-11

> <i_epik_Tot_Q>
0

> <i_epik_Tot_abs_Q>
2

> <r_epik_Metal_State_Penalty>
-0

> <b_epik_Metal_Only>
0

> <s_lp_Force_Field>
OPLS_2005

> <r_lp_Energy>
19.9033

> <b_lp_Chiralities_Consistent>
1

> <s_lp_Variant>
AV-unprocessed.smi:1798-1

> <Gold.Version>
5.8.1

> <Gold.Id.Protein>
6NUR|6NUR_protein|mol2

> <Gold.PLP.Fitness>
37.6715

> <Gold.PLP.PLP>
-32.0606

> <Gold.PLP.part.hbond>
-3.0000

> <Gold.PLP.part.metal>
0.0000

> <Gold.PLP.part.buried>
-3.9938

> <Gold.PLP.part.nonpolar>
-24.9261

> <Gold.PLP.part.repulsive>
0.1507

> <Gold.PLP.ligand.clash>
0.0000

> <Gold.PLP.ligand.torsion>
1.7353

> <Gold.PLP.Chemscore.Hbond>
2.0061

> <Gold.PLP.Chemscore.CHOScore>
1.0184

> <Gold.PLP.Chemscore.Metal>
0.0000

> <Gold.Chemscore.Hbonds>
donor molecule, donor type, donor heavy atom, donor atom, acceptor molecule, acceptor atom, score
      L1  H     6    31       P1  7948  0.01
      P1  H  7989  7998       L1    14  1.00
      P1  H  7997  8010       L1    15  1.00
      L1  C    11    34       P1  7948  0.03
      L1  C    11    34       P1  7949  1.00

> <Gold.PLP.Chemscore.Internal.Correction>
0.0083

> <Gold.Rescore>
     Score         DG    S(hbond)    S(metal)    S(lipo)     H(rot)  DE(clash)    DE(int)     intcor
     11.54     -15.85       1.87        0.00      69.22       1.55       0.05       4.27       ----

> <Gold.Chemscore.Fitness>
11.5408

> <Gold.Chemscore.DG>
-15.8535

> <Gold.Chemscore.ZeroCoef>
-5.4800

> <Gold.Chemscore.Hbond>
1.8694

> <Gold.Chemscore.Metal>
0.0000

> <Gold.Chemscore.Lipo>
69.2215

> <Gold.Chemscore.Internal_Hbond>
0.0000

> <Gold.Chemscore.DEClash>
0.0469

> <Gold.Chemscore.DEInternal>
4.2658

> <Gold.Chemscore.Rot>
1.5505

> <Gold.Chemscore.Internal.Correction>
   9.000000E+99

> <Gold.Chemscore.Hbonds>
donor molecule, donor type, donor heavy atom, donor atom, acceptor molecule, acceptor atom, score
      P1  H  7989  7998       L1    14  0.98
      P1  H  7997  8010       L1    15  0.94

> <Gold.Chemscore.Hbond.Weighted>
-6.2438

> <Gold.Chemscore.Metal.Weighted>
-0.0000

> <Gold.Chemscore.Lipo.Weighted>
-8.0989

> <Gold.Chemscore.Internal_Hbond.Weighted>
0.0000

> <Gold.Chemscore.DEClash.Weighted>
0.0469

> <Gold.Chemscore.DEInternal.Weighted>
4.2658

> <Gold.Chemscore.Rot.Weighted>
3.9692

> <Gold.Chemscore.Internal.Correction.Weighted>
   9.000000E+99

> <Gold.Protein.RotatedTorsions>
[ 6907 6896 6895 6894 ] final   40.88 input  -60.11 | X-H torsion
[ 7974 7965 7964 7962 ] final -159.92 input  175.53 | X-H torsion
[ 8008 7997 7996 7995 ] final  101.96 input   59.86 | X-H torsion
[ 10167 10162 10161 10158 ] final   81.57 input  -65.29 | X-H torsion
[ 10718 10713 10712 10709 ] final  108.12 input   66.30 | X-H torsion
[ 10763 10752 10751 10750 ] final  -98.41 input  -60.55 | X-H torsion
[ 11005 11000 10999 10996 ] final   31.29 input  -57.11 | X-H torsion

> <Gold.Protein.ActiveResidues>
 VAL166  LYS551  ARG553  GLY616  TRP617  ASP618  TYR619  PRO620  LYS621  CYS622 
 ASP623  PHE694  ASN695  SER759  ASP760  ASP761  ALA762  ILE779  LEU786  VAL792 
 PHE793  MET794  SER795  GLU796  ALA797  LYS798  CYS799  TRP800  GLU811  SER814 

> <Gold.Protein.RotatedAtoms>
  152.1881  134.8696  160.0519 H   0  0  0  0  0  0  0  0  0  0  0  0  # atno 6907 bound_to 6896
  151.9595  133.3686  159.4038 H   0  0  0  0  0  0  0  0  0  0  0  0  # atno 6908 bound_to 6896
  150.6930  134.4179  159.5235 H   0  0  0  0  0  0  0  0  0  0  0  0  # atno 6909 bound_to 6896
  144.7447  140.3616  143.6095 H   0  0  0  0  0  0  0  0  0  0  0  0  # atno 7974 bound_to 7965
  156.1348  140.3189  155.8404 H   0  0  0  0  0  0  0  0  0  0  0  0  # atno 8008 bound_to 7997
  155.4265  140.0516  157.3039 H   0  0  0  0  0  0  0  0  0  0  0  0  # atno 8009 bound_to 7997
  154.4928  140.2099  155.9524 H   0  0  0  0  0  0  0  0  0  0  0  0  # atno 8010 bound_to 7997
  139.9379  144.6109  150.8280 H   0  0  0  0  0  0  0  0  0  0  0  0  # atno 10167 bound_to 10162
  157.6599  131.0887  150.6258 H   0  0  0  0  0  0  0  0  0  0  0  0  # atno 10718 bound_to 10713
  154.7411  135.5010  153.9125 H   0  0  0  0  0  0  0  0  0  0  0  0  # atno 10763 bound_to 10752
  153.1044  135.6693  153.9621 H   0  0  0  0  0  0  0  0  0  0  0  0  # atno 10764 bound_to 10752
  153.9397  135.3069  155.3422 H   0  0  0  0  0  0  0  0  0  0  0  0  # atno 10765 bound_to 10752
  140.2854  134.2925  155.7789 H   0  0  0  0  0  0  0  0  0  0  0  0  # atno 11005 bound_to 11000
  145.7171  139.1700  143.2506 LP  0  0  0  0  0  0  0  0  0  0  0  0  # atno 17320 bound_to 7965
  146.1304  140.7192  142.9415 LP  0  0  0  0  0  0  0  0  0  0  0  0  # atno 17321 bound_to 7965
  140.7619  143.3186  151.2675 LP  0  0  0  0  0  0  0  0  0  0  0  0  # atno 17342 bound_to 10162
  139.6728  143.9989  152.2763 LP  0  0  0  0  0  0  0  0  0  0  0  0  # atno 17343 bound_to 10162
  156.6562  130.4499  149.5703 LP  0  0  0  0  0  0  0  0  0  0  0  0  # atno 17370 bound_to 10713
  156.2101  130.6673  151.1260 LP  0  0  0  0  0  0  0  0  0  0  0  0  # atno 17371 bound_to 10713
  141.2155  133.7552  156.9545 LP  0  0  0  0  0  0  0  0  0  0  0  0  # atno 17394 bound_to 11000
  140.1244  134.9396  157.2249 LP  0  0  0  0  0  0  0  0  0  0  0  0  # atno 17395 bound_to 11000

$$$$
