AV-unprocessed.smi:64|AV-procd|sdf|610|dock1
  -GOLD-   2262016503D 1   1.00000     0.00000
 Structure written by MMmdl.
 31 32  0  0  0  0  0  0  0  0  2 V2000
  145.0987  132.8601  161.5712 C   0  0  0  0  0  0  0  0  0  0  0  0
  146.5092  133.4162  161.4214 C   0  0  0  0  0  0  0  0  0  0  0  0
  147.4024  132.7607  160.8845 O   0  0  0  0  0  0  0  0  0  0  0  0
  146.6351  134.6518  161.9308 O   0  0  0  0  0  0  0  0  0  0  0  0
  147.7315  135.4624  161.5387 C   0  0  0  0  0  0  0  0  0  0  0  0
  147.5193  135.9581  160.1052 C   0  0  0  0  0  0  0  0  0  0  0  0
  148.3344  137.0970  159.8834 O   0  0  0  0  0  0  0  0  0  0  0  0
  148.1739  137.6339  158.6133 C   0  0  0  0  0  0  0  0  0  0  0  0
  149.4859  137.9991  158.1184 N   0  0  0  0  0  0  0  0  0  0  0  0
  150.6779  137.6620  158.6477 C   0  0  0  0  0  0  0  0  0  0  0  0
  151.7433  138.1313  157.9995 N   0  0  0  0  0  0  0  0  0  0  0  0
  151.1593  138.8351  156.9519 C   0  0  0  0  0  0  0  0  0  0  0  0
  151.7490  139.6149  155.8364 C   0  0  0  0  0  0  0  0  0  0  0  0
  152.9723  139.7057  155.7504 O   0  0  0  0  0  0  0  0  0  0  0  0
  150.8494  140.1821  154.9758 N   0  5  0  0  0  0  0  0  0  0  0  0
  149.4718  140.0100  155.1729 C   0  0  0  0  0  0  0  0  0  0  0  0
  148.7125  140.6442  154.2138 N   0  0  0  0  0  0  0  0  0  0  0  0
  148.8828  139.3391  156.1326 N   0  0  0  0  0  0  0  0  0  0  0  0
  149.7931  138.7679  157.0025 C   0  0  0  0  0  0  0  0  0  0  0  0
  144.4540  133.5656  162.0962 H   0  0  0  0  0  0  0  0  0  0  0  0
  145.1207  131.9281  162.1360 H   0  0  0  0  0  0  0  0  0  0  0  0
  144.6663  132.6599  160.5908 H   0  0  0  0  0  0  0  0  0  0  0  0
  147.8523  136.3057  162.2201 H   0  0  0  0  0  0  0  0  0  0  0  0
  148.6442  134.8670  161.5882 H   0  0  0  0  0  0  0  0  0  0  0  0
  147.8061  135.1702  159.4073 H   0  0  0  0  0  0  0  0  0  0  0  0
  146.4670  136.1860  159.9280 H   0  0  0  0  0  0  0  0  0  0  0  0
  147.7311  136.9037  157.9337 H   0  0  0  0  0  0  0  0  0  0  0  0
  147.5486  138.5274  158.6467 H   0  0  0  0  0  0  0  0  0  0  0  0
  150.7671  137.0545  159.5362 H   0  0  0  0  0  0  0  0  0  0  0  0
  149.1065  141.1753  153.4516 H   0  0  0  0  0  0  0  0  0  0  0  0
  147.7033  140.6245  154.2090 H   0  0  0  0  0  0  0  0  0  0  0  0
  1  2  1  0  0  0  0
  1 20  1  0  0  0  0
  1 21  1  0  0  0  0
  1 22  1  0  0  0  0
  2  3  2  0  0  0  0
  2  4  1  0  0  0  0
  4  5  1  0  0  0  0
  5  6  1  0  0  0  0
  5 23  1  0  0  0  0
  5 24  1  0  0  0  0
  6  7  1  0  0  0  0
  6 25  1  0  0  0  0
  6 26  1  0  0  0  0
  7  8  1  0  0  0  0
  8  9  1  0  0  0  0
  8 27  1  0  0  0  0
  8 28  1  0  0  0  0
  9 19  1  0  0  0  0
  9 10  1  0  0  0  0
 10 11  2  0  0  0  0
 10 29  1  0  0  0  0
 11 12  1  0  0  0  0
 12 19  2  0  0  0  0
 12 13  1  0  0  0  0
 13 14  2  0  0  0  0
 13 15  1  0  0  0  0
 15 16  1  0  0  0  0
 16 17  1  0  0  0  0
 16 18  2  0  0  0  0
 17 30  1  0  0  0  0
 17 31  1  0  0  0  0
 18 19  1  0  0  0  0
M  CHG  1  15  -1
M  END
> <s_m_source_file>
AV-unprocessed.smi

> <i_m_source_file_index>
64

> <i_lp_mmshare_version>
43012

> <i_f3d_flags>
0

> <s_epik_input>
W0NIM11DKD1PKU9bQ0gyXVtDSDJdT1tDSDJdbihbY0hdbjEpYyhjMTIpbmMoW05IMl0pW25IXWMyPU8=

> <s_epik_cmdline>
J2VwaWtfcHl0aG9uJywgJy1waCcsICc3LjAnLCAnLXRuJywgJzgnLCAnLW1hJywgJzIwMCcsICctbWV0YWxfYmluZGluZycsICctaW1hZScsICc8aW5maWxlLm1hZT4nLCAnLW9tYWUnLCAnPG91dGZpbGUubWFlPic=

> <r_lp_tautomer_probability>
1

> <r_epik_Ionization_Penalty>
3.5586

> <r_epik_Ionization_Penalty_Charging>
1.23364e-10

> <r_epik_Ionization_Penalty_Neutral>
3.5586

> <r_epik_State_Penalty>
3.54828

> <r_epik_Charging_Adjusted_Penalty>
3.54828

> <i_epik_Tot_Q>
-1

> <i_epik_Tot_abs_Q>
1

> <r_epik_Metal_State_Penalty>
0.517613

> <b_epik_Metal_Only>
1

> <s_epik_Chemistry_Notes>
This compound has an ester and may undergo hydrolysis at high or low pH. This compound contains an acetal/aminal-like group ( X-CH(R)-Y where X, Y are N, S, or O) that may be acid/base labile, releasing an aldehyde.

> <s_lp_Force_Field>
OPLS_2005

> <r_lp_Energy>
20.1337

> <b_lp_Chiralities_Consistent>
1

> <s_lp_Variant>
AV-unprocessed.smi:64-2

> <Gold.Version>
5.8.1

> <Gold.Id.Protein>
6NUR|6NUR_protein|mol2

> <Gold.PLP.Fitness>
39.3156

> <Gold.PLP.PLP>
-29.4984

> <Gold.PLP.part.hbond>
-5.0000

> <Gold.PLP.part.metal>
0.0000

> <Gold.PLP.part.buried>
-5.9516

> <Gold.PLP.part.nonpolar>
-19.1006

> <Gold.PLP.part.repulsive>
0.1907

> <Gold.PLP.ligand.clash>
0.0000

> <Gold.PLP.ligand.torsion>
0.8123

> <Gold.PLP.Chemscore.Hbond>
3.7766

> <Gold.PLP.Chemscore.CHOScore>
0.0000

> <Gold.PLP.Chemscore.Metal>
0.0000

> <Gold.Chemscore.Hbonds>
donor molecule, donor type, donor heavy atom, donor atom, acceptor molecule, acceptor atom, score
      P1  H  6931  6943       L1     7  0.02
      P1  H  7989  7998       L1    15  1.00
      P1  H  7997  8010       L1    14  0.94

> <Gold.PLP.Chemscore.Internal.Correction>
0.1120

> <Gold.Rescore>
     Score         DG    S(hbond)    S(metal)    S(lipo)     H(rot)  DE(clash)    DE(int)     intcor
      8.37      -9.05       3.11        0.00      27.69       3.93       0.02       0.66       ----

> <Gold.Chemscore.Fitness>
8.3667

> <Gold.Chemscore.DG>
-9.0482

> <Gold.Chemscore.ZeroCoef>
-5.4800

> <Gold.Chemscore.Hbond>
3.1138

> <Gold.Chemscore.Metal>
0.0000

> <Gold.Chemscore.Lipo>
27.6896

> <Gold.Chemscore.Internal_Hbond>
0.0000

> <Gold.Chemscore.DEClash>
0.0222

> <Gold.Chemscore.DEInternal>
0.6593

> <Gold.Chemscore.Rot>
3.9343

> <Gold.Chemscore.Internal.Correction>
   9.000000E+99

> <Gold.Chemscore.Hbonds>
donor molecule, donor type, donor heavy atom, donor atom, acceptor molecule, acceptor atom, score
      P1  H  6931  6943       L1     7  0.05
      P1  H  7989  7998       L1    15  0.85
      P1  H  7997  8010       L1    14  0.90

> <Gold.Chemscore.Hbond.Weighted>
-10.4002

> <Gold.Chemscore.Metal.Weighted>
-0.0000

> <Gold.Chemscore.Lipo.Weighted>
-3.2397

> <Gold.Chemscore.Internal_Hbond.Weighted>
0.0000

> <Gold.Chemscore.DEClash.Weighted>
0.0222

> <Gold.Chemscore.DEInternal.Weighted>
0.6593

> <Gold.Chemscore.Rot.Weighted>
10.0717

> <Gold.Chemscore.Internal.Correction.Weighted>
   9.000000E+99

> <Gold.Protein.RotatedTorsions>
[ 6907 6896 6895 6894 ] final   92.75 input  -60.11 | X-H torsion
[ 7974 7965 7964 7962 ] final -127.65 input  175.53 | X-H torsion
[ 8008 7997 7996 7995 ] final   88.32 input   59.86 | X-H torsion
[ 10167 10162 10161 10158 ] final   -3.82 input  -65.29 | X-H torsion
[ 10718 10713 10712 10709 ] final  -39.78 input   66.30 | X-H torsion
[ 10763 10752 10751 10750 ] final  105.74 input  -60.55 | X-H torsion
[ 11005 11000 10999 10996 ] final  177.09 input  -57.11 | X-H torsion

> <Gold.Protein.ActiveResidues>
 VAL166  LYS551  ARG553  GLY616  TRP617  ASP618  TYR619  PRO620  LYS621  CYS622 
 ASP623  PHE694  ASN695  SER759  ASP760  ASP761  ALA762  ILE779  LEU786  VAL792 
 PHE793  MET794  SER795  GLU796  ALA797  LYS798  CYS799  TRP800  GLU811  SER814 

> <Gold.Protein.RotatedAtoms>
  152.5453  134.1453  159.8495 H   0  0  0  0  0  0  0  0  0  0  0  0  # atno 6907 bound_to 6896
  151.1485  133.4916  159.2603 H   0  0  0  0  0  0  0  0  0  0  0  0  # atno 6908 bound_to 6896
  151.1497  135.0231  159.8717 H   0  0  0  0  0  0  0  0  0  0  0  0  # atno 6909 bound_to 6896
  144.9750  140.7583  143.4647 H   0  0  0  0  0  0  0  0  0  0  0  0  # atno 7974 bound_to 7965
  155.9863  140.3373  155.6710 H   0  0  0  0  0  0  0  0  0  0  0  0  # atno 8008 bound_to 7997
  155.6481  140.0702  157.2614 H   0  0  0  0  0  0  0  0  0  0  0  0  # atno 8009 bound_to 7997
  154.4206  140.1730  156.1633 H   0  0  0  0  0  0  0  0  0  0  0  0  # atno 8010 bound_to 7997
  140.6905  143.6495  150.8363 H   0  0  0  0  0  0  0  0  0  0  0  0  # atno 10167 bound_to 10162
  156.2887  130.4225  149.8261 H   0  0  0  0  0  0  0  0  0  0  0  0  # atno 10718 bound_to 10713
  153.3835  135.3900  155.1873 H   0  0  0  0  0  0  0  0  0  0  0  0  # atno 10763 bound_to 10752
  154.8710  135.3731  154.4828 H   0  0  0  0  0  0  0  0  0  0  0  0  # atno 10764 bound_to 10752
  153.5307  135.7086  153.5746 H   0  0  0  0  0  0  0  0  0  0  0  0  # atno 10765 bound_to 10752
  140.3803  134.6952  157.4447 H   0  0  0  0  0  0  0  0  0  0  0  0  # atno 11005 bound_to 11000
  145.2504  139.2034  143.4945 LP  0  0  0  0  0  0  0  0  0  0  0  0  # atno 17320 bound_to 7965
  146.3393  140.2415  142.8596 LP  0  0  0  0  0  0  0  0  0  0  0  0  # atno 17321 bound_to 7965
  140.0207  143.5545  152.2801 LP  0  0  0  0  0  0  0  0  0  0  0  0  # atno 17342 bound_to 10162
  139.6303  144.7643  151.2551 LP  0  0  0  0  0  0  0  0  0  0  0  0  # atno 17343 bound_to 10162
  156.5682  130.8413  151.3349 LP  0  0  0  0  0  0  0  0  0  0  0  0  # atno 17370 bound_to 10713
  157.7336  130.9733  150.1986 LP  0  0  0  0  0  0  0  0  0  0  0  0  # atno 17371 bound_to 10713
  140.0483  134.6167  155.8893 LP  0  0  0  0  0  0  0  0  0  0  0  0  # atno 17394 bound_to 11000
  141.1925  133.6575  156.5507 LP  0  0  0  0  0  0  0  0  0  0  0  0  # atno 17395 bound_to 11000

$$$$
