AV-unprocessed.smi:1695|AV-procd|sdf|6795|dock4
  -GOLD-   22720 7563D 1   1.00000     0.00000
 Structure written by MMmdl.
 52 54  0  0  0  0  0  0  0  0  3 V2000
  152.4563  142.8140  161.1263 C   0  0  0  0  0  0  0  0  0  0  0  0
  152.2450  142.0954  159.8046 C   0  0  0  0  0  0  0  0  0  0  0  0
  151.3337  142.6460  158.8759 C   0  0  0  0  0  0  0  0  0  0  0  0
  151.1589  141.9643  157.6777 C   0  0  0  0  0  0  0  0  0  0  0  0
  150.3435  142.2442  156.5794 N   0  3  0  0  0  0  0  0  0  0  0  0
  150.5087  141.2798  155.6329 C   0  0  0  0  0  0  0  0  0  0  0  0
  151.4234  140.3902  156.1071 N   0  0  0  0  0  0  0  0  0  0  0  0
  151.9419  139.1649  155.4826 C   0  0  0  0  0  0  0  0  0  0  0  0
  150.8363  138.3016  154.8441 C   0  0  2  0  0  0  0  0  0  0  0  0
  151.4513  137.1469  154.3101 O   0  0  0  0  0  0  0  0  0  0  0  0
  150.0553  139.0149  153.7186 C   0  0  0  0  0  0  0  0  0  0  0  0
  148.7256  138.3979  153.4768 N   0  3  1  0  0  0  0  0  0  0  0  0
  148.0961  137.8511  154.7080 C   0  0  0  0  0  0  0  0  0  0  0  0
  146.8029  137.0900  154.3736 C   0  0  0  0  0  0  0  0  0  0  0  0
  145.8047  137.9899  153.6198 C   0  0  2  0  0  0  0  0  0  0  0  0
  144.5436  137.2060  153.2316 C   0  0  0  0  0  0  0  0  0  0  0  0
  143.6114  137.8560  152.5311 N   0  0  0  0  0  0  0  0  0  0  0  0
  144.4114  136.0285  153.5593 O   0  0  0  0  0  0  0  0  0  0  0  0
  146.4973  138.5790  152.3756 C   0  0  0  0  0  0  0  0  0  0  0  0
  147.7994  139.3053  152.7524 C   0  0  0  0  0  0  0  0  0  0  0  0
  151.8540  140.7744  157.3839 C   0  0  0  0  0  0  0  0  0  0  0  0
  152.7583  140.2203  158.2881 C   0  0  0  0  0  0  0  0  0  0  0  0
  152.9479  140.8975  159.5142 C   0  0  0  0  0  0  0  0  0  0  0  0
  153.9235  140.3126  160.5214 C   0  0  0  0  0  0  0  0  0  0  0  0
  151.8581  143.7237  161.1864 H   0  0  0  0  0  0  0  0  0  0  0  0
  153.5025  143.0954  161.2478 H   0  0  0  0  0  0  0  0  0  0  0  0
  152.1705  142.1725  161.9603 H   0  0  0  0  0  0  0  0  0  0  0  0
  150.7939  143.5570  159.0907 H   0  0  0  0  0  0  0  0  0  0  0  0
  150.0016  141.2285  154.6797 H   0  0  0  0  0  0  0  0  0  0  0  0
  152.7137  139.4215  154.7571 H   0  0  0  0  0  0  0  0  0  0  0  0
  152.4437  138.5994  156.2693 H   0  0  0  0  0  0  0  0  0  0  0  0
  150.1560  137.9807  155.6323 H   0  0  0  0  0  0  0  0  0  0  0  0
  151.1728  137.0391  153.4131 H   0  0  0  0  0  0  0  0  0  0  0  0
  149.9155  140.0727  153.9445 H   0  0  0  0  0  0  0  0  0  0  0  0
  150.6547  138.9766  152.8077 H   0  0  0  0  0  0  0  0  0  0  0  0
  148.7805  137.1749  155.2186 H   0  0  0  0  0  0  0  0  0  0  0  0
  147.8825  138.6652  155.4025 H   0  0  0  0  0  0  0  0  0  0  0  0
  147.0494  136.2119  153.7744 H   0  0  0  0  0  0  0  0  0  0  0  0
  146.3511  136.7179  155.2942 H   0  0  0  0  0  0  0  0  0  0  0  0
  145.5164  138.8131  154.2764 H   0  0  0  0  0  0  0  0  0  0  0  0
  142.7646  137.3830  152.2507 H   0  0  0  0  0  0  0  0  0  0  0  0
  143.7588  138.8236  152.2818 H   0  0  0  0  0  0  0  0  0  0  0  0
  146.7245  137.7883  151.6581 H   0  0  0  0  0  0  0  0  0  0  0  0
  145.8269  139.2730  151.8666 H   0  0  0  0  0  0  0  0  0  0  0  0
  147.5819  140.1776  153.3709 H   0  0  0  0  0  0  0  0  0  0  0  0
  148.2770  139.6713  151.8426 H   0  0  0  0  0  0  0  0  0  0  0  0
  153.2964  139.3092  158.0737 H   0  0  0  0  0  0  0  0  0  0  0  0
  154.3562  139.3783  160.1624 H   0  0  0  0  0  0  0  0  0  0  0  0
  153.4208  140.1036  161.4659 H   0  0  0  0  0  0  0  0  0  0  0  0
  154.7415  141.0080  160.7105 H   0  0  0  0  0  0  0  0  0  0  0  0
  148.8898  137.6160  152.8579 H   0  0  0  0  0  0  0  0  0  0  0  0
  149.7145  143.0315  156.4835 H   0  0  0  0  0  0  0  0  0  0  0  0
  1  2  1  0  0  0  0
  1 25  1  0  0  0  0
  1 26  1  0  0  0  0
  1 27  1  0  0  0  0
  2 23  1  0  0  0  0
  2  3  2  0  0  0  0
  3  4  1  0  0  0  0
  3 28  1  0  0  0  0
  4 21  2  0  0  0  0
  4  5  1  0  0  0  0
  5  6  2  0  0  0  0
  5 52  1  0  0  0  0
  6  7  1  0  0  0  0
  6 29  1  0  0  0  0
  7  8  1  0  0  0  0
  7 21  1  0  0  0  0
  8  9  1  0  0  0  0
  8 30  1  0  0  0  0
  8 31  1  0  0  0  0
  9 10  1  0  0  0  0
  9 11  1  0  0  0  0
  9 32  1  0  0  0  0
 10 33  1  0  0  0  0
 11 12  1  0  0  0  0
 11 34  1  0  0  0  0
 11 35  1  0  0  0  0
 12 20  1  0  0  0  0
 12 13  1  0  0  0  0
 12 51  1  0  0  0  0
 13 14  1  0  0  0  0
 13 36  1  0  0  0  0
 13 37  1  0  0  0  0
 14 15  1  0  0  0  0
 14 38  1  0  0  0  0
 14 39  1  0  0  0  0
 15 16  1  0  0  0  0
 15 19  1  0  0  0  0
 15 40  1  0  0  0  0
 16 17  1  0  0  0  0
 16 18  2  0  0  0  0
 17 41  1  0  0  0  0
 17 42  1  0  0  0  0
 19 20  1  0  0  0  0
 19 43  1  0  0  0  0
 19 44  1  0  0  0  0
 20 45  1  0  0  0  0
 20 46  1  0  0  0  0
 21 22  1  0  0  0  0
 22 23  2  0  0  0  0
 22 47  1  0  0  0  0
 23 24  1  0  0  0  0
 24 48  1  0  0  0  0
 24 49  1  0  0  0  0
 24 50  1  0  0  0  0
M  CHG  1   5   1
M  CHG  1  12   1
M  END
> <s_m_source_file>
AV-unprocessed.smi

> <i_m_source_file_index>
1695

> <i_lp_mmshare_version>
43012

> <i_f3d_flags>
0

> <s_epik_input>
W0NIM11jKFtjSF0xKWMoW0NIM10pW2NIXWMoYzEyKW4oW2NIXW4yKVtDSDJdW0NASF0oW09IXSlbQ0gyXU4zW0NIMl1bQ0gyXVtDSF0oQyg9TylbTkgyXSlbQ0gyXVtDSDJdMw==

> <s_epik_cmdline>
J2VwaWtfcHl0aG9uJywgJy1waCcsICc3LjAnLCAnLXRuJywgJzgnLCAnLW1hJywgJzIwMCcsICctbWV0YWxfYmluZGluZycsICctaW1hZScsICc8aW5maWxlLm1hZT4nLCAnLW9tYWUnLCAnPG91dGZpbGUubWFlPic=

> <r_epik_Ionization_Penalty>
1.20173

> <r_epik_Ionization_Penalty_Charging>
1.20172

> <r_epik_Ionization_Penalty_Neutral>
1.7852e-06

> <r_epik_State_Penalty>
1.28089

> <r_epik_Charging_Adjusted_Penalty>
2.48261

> <i_epik_Tot_Q>
2

> <i_epik_Tot_abs_Q>
2

> <r_epik_Metal_State_Penalty>
1.35652

> <b_epik_Metal_Only>
0

> <s_lp_Force_Field>
OPLS_2005

> <r_lp_Energy>
30.6346

> <b_lp_Chiralities_Consistent>
1

> <s_lp_Variant>
AV-unprocessed.smi:1695-7

> <Gold.Version>
5.8.1

> <Gold.Id.Protein>
6NUR|6NUR_protein|mol2

> <Gold.PLP.Fitness>
61.0644

> <Gold.PLP.PLP>
-43.0969

> <Gold.PLP.part.hbond>
-6.7756

> <Gold.PLP.part.metal>
0.0000

> <Gold.PLP.part.buried>
1.9857

> <Gold.PLP.part.nonpolar>
-37.6450

> <Gold.PLP.part.repulsive>
0.1995

> <Gold.PLP.ligand.clash>
0.0004

> <Gold.PLP.ligand.torsion>
0.6551

> <Gold.PLP.Chemscore.Hbond>
6.4138

> <Gold.PLP.Chemscore.CHOScore>
0.0000

> <Gold.PLP.Chemscore.Metal>
0.0000

> <Gold.Chemscore.Hbonds>
donor molecule, donor type, donor heavy atom, donor atom, acceptor molecule, acceptor atom, score
      L1  H     5    52       P1  8028  1.89
      L1  H    10    33       P1  7949  0.60
      L1  H    12    51       P1  7948  2.00
      L1  H    17    42       P1 10175  1.00
      P1  H 10752 10764       L1    10  0.78

> <Gold.PLP.Chemscore.Internal.Correction>
0.0370

> <Gold.Rescore>
     Score         DG    S(hbond)    S(metal)    S(lipo)     H(rot)  DE(clash)    DE(int)     intcor
     18.72     -21.01       3.01        0.00     110.65       2.91       0.65       1.64       ----

> <Gold.Chemscore.Fitness>
18.7226

> <Gold.Chemscore.DG>
-21.0130

> <Gold.Chemscore.ZeroCoef>
-5.4800

> <Gold.Chemscore.Hbond>
3.0070

> <Gold.Chemscore.Metal>
0.0000

> <Gold.Chemscore.Lipo>
110.6518

> <Gold.Chemscore.Internal_Hbond>
0.0000

> <Gold.Chemscore.DEClash>
0.6538

> <Gold.Chemscore.DEInternal>
1.6366

> <Gold.Chemscore.Rot>
2.9127

> <Gold.Chemscore.Internal.Correction>
   9.000000E+99

> <Gold.Chemscore.Hbonds>
donor molecule, donor type, donor heavy atom, donor atom, acceptor molecule, acceptor atom, score
      L1  H     5    52       P1  8028  0.89
      L1  H    10    33       P1  7949  0.29
      L1  H    12    51       P1  7948  1.00
      L1  H    17    42       P1 10175  0.98
      P1  H 10752 10764       L1    10  0.19

> <Gold.Chemscore.Hbond.Weighted>
-10.0433

> <Gold.Chemscore.Metal.Weighted>
-0.0000

> <Gold.Chemscore.Lipo.Weighted>
-12.9463

> <Gold.Chemscore.Internal_Hbond.Weighted>
0.0000

> <Gold.Chemscore.DEClash.Weighted>
0.6538

> <Gold.Chemscore.DEInternal.Weighted>
1.6366

> <Gold.Chemscore.Rot.Weighted>
7.4565

> <Gold.Chemscore.Internal.Correction.Weighted>
   9.000000E+99

> <Gold.Protein.RotatedTorsions>
[ 6907 6896 6895 6894 ] final   98.62 input  -60.11 | X-H torsion
[ 7974 7965 7964 7962 ] final  -95.80 input  175.53 | X-H torsion
[ 8008 7997 7996 7995 ] final -115.77 input   59.86 | X-H torsion
[ 10167 10162 10161 10158 ] final -163.62 input  -65.29 | X-H torsion
[ 10718 10713 10712 10709 ] final  -91.28 input   66.30 | X-H torsion
[ 10763 10752 10751 10750 ] final  -68.34 input  -60.55 | X-H torsion
[ 11005 11000 10999 10996 ] final   56.67 input  -57.11 | X-H torsion

> <Gold.Protein.ActiveResidues>
 VAL166  LYS551  ARG553  GLY616  TRP617  ASP618  TYR619  PRO620  LYS621  CYS622 
 ASP623  PHE694  ASN695  SER759  ASP760  ASP761  ALA762  ILE779  LEU786  VAL792 
 PHE793  MET794  SER795  GLU796  ALA797  LYS798  CYS799  TRP800  GLU811  SER814 

> <Gold.Protein.RotatedAtoms>
  152.5406  134.0553  159.8127 H   0  0  0  0  0  0  0  0  0  0  0  0  # atno 6907 bound_to 6896
  151.0688  133.5475  159.2636 H   0  0  0  0  0  0  0  0  0  0  0  0  # atno 6908 bound_to 6896
  151.2346  135.0575  159.9055 H   0  0  0  0  0  0  0  0  0  0  0  0  # atno 6909 bound_to 6896
  145.3553  140.9483  143.2531 H   0  0  0  0  0  0  0  0  0  0  0  0  # atno 7974 bound_to 7965
  155.0573  140.0393  157.2565 H   0  0  0  0  0  0  0  0  0  0  0  0  # atno 8008 bound_to 7997
  154.7088  140.2688  155.6625 H   0  0  0  0  0  0  0  0  0  0  0  0  # atno 8009 bound_to 7997
  156.2783  140.2726  156.1723 H   0  0  0  0  0  0  0  0  0  0  0  0  # atno 8010 bound_to 7997
  139.6308  144.0444  152.2014 H   0  0  0  0  0  0  0  0  0  0  0  0  # atno 10167 bound_to 10162
  155.9992  130.4942  150.5450 H   0  0  0  0  0  0  0  0  0  0  0  0  # atno 10718 bound_to 10713
  154.3876  135.6060  153.5825 H   0  0  0  0  0  0  0  0  0  0  0  0  # atno 10763 bound_to 10752
  152.9787  135.5876  154.4336 H   0  0  0  0  0  0  0  0  0  0  0  0  # atno 10764 bound_to 10752
  154.4115  135.2844  155.2012 H   0  0  0  0  0  0  0  0  0  0  0  0  # atno 10765 bound_to 10752
  140.0511  134.5735  155.9262 H   0  0  0  0  0  0  0  0  0  0  0  0  # atno 11005 bound_to 11000
  144.8687  139.5070  143.6778 LP  0  0  0  0  0  0  0  0  0  0  0  0  # atno 17320 bound_to 7965
  146.2950  139.7252  142.9133 LP  0  0  0  0  0  0  0  0  0  0  0  0  # atno 17321 bound_to 7965
  140.0109  144.6225  150.7648 LP  0  0  0  0  0  0  0  0  0  0  0  0  # atno 17342 bound_to 10162
  140.7438  143.2851  151.3487 LP  0  0  0  0  0  0  0  0  0  0  0  0  # atno 17343 bound_to 10162
  157.3381  131.0712  151.1809 LP  0  0  0  0  0  0  0  0  0  0  0  0  # atno 17370 bound_to 10713
  157.2667  130.6684  149.6000 LP  0  0  0  0  0  0  0  0  0  0  0  0  # atno 17371 bound_to 10713
  141.1931  133.6577  156.5531 LP  0  0  0  0  0  0  0  0  0  0  0  0  # atno 17394 bound_to 11000
  140.3915  134.7436  157.4724 LP  0  0  0  0  0  0  0  0  0  0  0  0  # atno 17395 bound_to 11000

$$$$
