AV-unprocessed.smi:2862|AV-procd|sdf|11011|dock3
  -GOLD-   2272015473D 1   1.00000     0.00000
 Structure written by MMmdl.
 52 54  0  0  0  0  0  0  0  0  1 V2000
  153.2143  140.2180  160.4442 C   0  0  0  0  0  0  0  0  0  0  0  0
  152.5784  140.7316  159.1407 C   0  0  1  0  0  0  0  0  0  0  0  0
  151.8357  139.6724  158.4582 N   0  0  0  0  0  0  0  0  0  0  0  0
  152.3370  138.5397  157.9386 C   0  0  0  0  0  0  0  0  0  0  0  0
  153.5384  138.2681  157.9276 O   0  0  0  0  0  0  0  0  0  0  0  0
  151.3135  137.5697  157.3303 C   0  0  0  0  0  0  0  0  0  0  0  0
  149.9272  137.8849  157.7158 N   0  0  0  0  0  0  0  0  0  0  0  0
  149.2977  138.9458  157.0335 C   0  0  0  0  0  0  0  0  0  0  0  0
  148.0311  139.3089  157.2898 C   0  0  0  0  0  0  0  0  0  0  0  0
  147.2922  138.5654  158.2814 C   0  0  0  0  0  0  0  0  0  0  0  0
  147.8780  137.5331  158.9234 C   0  0  0  0  0  0  0  0  0  0  0  0
  147.1436  136.7679  159.9346 C   0  0  0  0  0  0  0  0  0  0  0  0
  146.4920  137.3295  160.8159 O   0  0  0  0  0  0  0  0  0  0  0  0
  147.2170  135.4072  159.8446 N   0  0  0  0  0  0  0  0  0  0  0  0
  147.5827  134.6916  158.6097 C   0  0  0  0  0  0  0  0  0  0  0  0
  146.7915  134.5075  160.9383 C   0  0  1  0  0  0  0  0  0  0  0  0
  147.3002  134.9966  162.3094 C   0  0  0  0  0  0  0  0  0  0  0  0
  145.2981  134.2110  160.9759 C   0  0  0  0  0  0  0  0  0  0  0  0
  144.4282  134.7449  162.0891 C   0  0  0  0  0  0  0  0  0  0  0  0
  144.7151  133.2629  161.9960 C   0  0  0  0  0  0  0  0  0  0  0  0
  149.2972  137.1701  158.6999 C   0  0  0  0  0  0  0  0  0  0  0  0
  149.8962  136.2974  159.3357 O   0  0  0  0  0  0  0  0  0  0  0  0
  151.7893  142.0130  159.3670 C   0  0  0  0  0  0  0  0  0  0  0  0
  151.9792  143.2138  158.4723 C   0  0  0  0  0  0  0  0  0  0  0  0
  152.4587  143.2538  159.9069 C   0  0  0  0  0  0  0  0  0  0  0  0
  153.8783  140.9682  160.8738 H   0  0  0  0  0  0  0  0  0  0  0  0
  153.8067  139.3200  160.2666 H   0  0  0  0  0  0  0  0  0  0  0  0
  152.4622  139.9791  161.1964 H   0  0  0  0  0  0  0  0  0  0  0  0
  153.3991  140.9776  158.4655 H   0  0  0  0  0  0  0  0  0  0  0  0
  150.8353  139.7987  158.4047 H   0  0  0  0  0  0  0  0  0  0  0  0
  151.4021  137.5752  156.2420 H   0  0  0  0  0  0  0  0  0  0  0  0
  151.5865  136.5586  157.6351 H   0  0  0  0  0  0  0  0  0  0  0  0
  149.9072  139.4448  156.2942 H   0  0  0  0  0  0  0  0  0  0  0  0
  147.5709  140.1271  156.7558 H   0  0  0  0  0  0  0  0  0  0  0  0
  146.2632  138.8268  158.4836 H   0  0  0  0  0  0  0  0  0  0  0  0
  147.4338  135.2869  157.7082 H   0  0  0  0  0  0  0  0  0  0  0  0
  146.9752  133.7964  158.4741 H   0  0  0  0  0  0  0  0  0  0  0  0
  148.6271  134.3805  158.6461 H   0  0  0  0  0  0  0  0  0  0  0  0
  147.2902  133.5479  160.7906 H   0  0  0  0  0  0  0  0  0  0  0  0
  147.1357  134.2384  163.0755 H   0  0  0  0  0  0  0  0  0  0  0  0
  146.7944  135.9030  162.6415 H   0  0  0  0  0  0  0  0  0  0  0  0
  148.3708  135.2028  162.2797 H   0  0  0  0  0  0  0  0  0  0  0  0
  144.8250  134.1966  159.9964 H   0  0  0  0  0  0  0  0  0  0  0  0
  144.9117  135.3004  162.8904 H   0  0  0  0  0  0  0  0  0  0  0  0
  143.4276  135.0817  161.8258 H   0  0  0  0  0  0  0  0  0  0  0  0
  143.9072  132.6115  161.6693 H   0  0  0  0  0  0  0  0  0  0  0  0
  145.3879  132.8357  162.7369 H   0  0  0  0  0  0  0  0  0  0  0  0
  150.7739  141.8469  159.7219 H   0  0  0  0  0  0  0  0  0  0  0  0
  152.7343  143.1496  157.6912 H   0  0  0  0  0  0  0  0  0  0  0  0
  151.0939  143.7934  158.2187 H   0  0  0  0  0  0  0  0  0  0  0  0
  151.8939  143.8634  160.6094 H   0  0  0  0  0  0  0  0  0  0  0  0
  153.5328  143.2173  160.0786 H   0  0  0  0  0  0  0  0  0  0  0  0
  1  2  1  0  0  0  0
  1 26  1  0  0  0  0
  1 27  1  0  0  0  0
  1 28  1  0  0  0  0
  2  3  1  0  0  0  0
  2 23  1  0  0  0  0
  2 29  1  0  0  0  0
  3  4  1  0  0  0  0
  3 30  1  0  0  0  0
  4  5  2  0  0  0  0
  4  6  1  0  0  0  0
  6  7  1  0  0  0  0
  6 31  1  0  0  0  0
  6 32  1  0  0  0  0
  7 21  1  0  0  0  0
  7  8  1  0  0  0  0
  8  9  2  0  0  0  0
  8 33  1  0  0  0  0
  9 10  1  0  0  0  0
  9 34  1  0  0  0  0
 10 11  2  0  0  0  0
 10 35  1  0  0  0  0
 11 12  1  0  0  0  0
 11 21  1  0  0  0  0
 12 13  2  0  0  0  0
 12 14  1  0  0  0  0
 14 15  1  0  0  0  0
 14 16  1  0  0  0  0
 15 36  1  0  0  0  0
 15 37  1  0  0  0  0
 15 38  1  0  0  0  0
 16 17  1  0  0  0  0
 16 18  1  0  0  0  0
 16 39  1  0  0  0  0
 17 40  1  0  0  0  0
 17 41  1  0  0  0  0
 17 42  1  0  0  0  0
 18 20  1  0  0  0  0
 18 19  1  0  0  0  0
 18 43  1  0  0  0  0
 19 20  1  0  0  0  0
 19 44  1  0  0  0  0
 19 45  1  0  0  0  0
 20 46  1  0  0  0  0
 20 47  1  0  0  0  0
 21 22  2  0  0  0  0
 23 25  1  0  0  0  0
 23 24  1  0  0  0  0
 23 48  1  0  0  0  0
 24 25  1  0  0  0  0
 24 49  1  0  0  0  0
 24 50  1  0  0  0  0
 25 51  1  0  0  0  0
 25 52  1  0  0  0  0
M  END
> <s_m_source_file>
AV-unprocessed.smi

> <i_m_source_file_index>
2862

> <i_lp_mmshare_version>
43012

> <i_f3d_flags>
0

> <s_epik_input>
W0NIMl0xW0NIMl1bQ0hdMVtDQEhdKFtDSDNdKVtOSF1DKD1PKVtDSDJdbjJbY0hdW2NIXVtjSF1jKGMyPU8pQyg9TylOKFtDSDNdKVtDQEhdKFtDSDNdKVtDSF0zW0NIMl1bQ0gyXTM=

> <s_epik_cmdline>
J2VwaWtfcHl0aG9uJywgJy1waCcsICc3LjAnLCAnLXRuJywgJzgnLCAnLW1hJywgJzIwMCcsICctbWV0YWxfYmluZGluZycsICctaW1hZScsICc8aW5maWxlLm1hZT4nLCAnLW9tYWUnLCAnPG91dGZpbGUubWFlPic=

> <r_lp_tautomer_probability>
1

> <r_epik_Ionization_Penalty>
4.00841e-08

> <r_epik_Ionization_Penalty_Charging>
2.07773e-08

> <r_epik_Ionization_Penalty_Neutral>
1.93069e-08

> <r_epik_State_Penalty>
-0

> <r_epik_Charging_Adjusted_Penalty>
2.07773e-08

> <i_epik_Tot_Q>
0

> <i_epik_Tot_abs_Q>
0

> <r_epik_Metal_State_Penalty>
-0

> <b_epik_Metal_Only>
0

> <s_lp_Force_Field>
OPLS_2005

> <r_lp_Energy>
59.5746

> <b_lp_Chiralities_Consistent>
1

> <s_lp_Variant>
AV-unprocessed.smi:2862-4

> <Gold.Version>
5.8.1

> <Gold.Id.Protein>
6NUR|6NUR_protein|mol2

> <Gold.PLP.Fitness>
47.7182

> <Gold.PLP.PLP>
-40.6433

> <Gold.PLP.part.hbond>
-3.1516

> <Gold.PLP.part.metal>
0.0000

> <Gold.PLP.part.buried>
-3.3509

> <Gold.PLP.part.nonpolar>
-34.6104

> <Gold.PLP.part.repulsive>
0.1105

> <Gold.PLP.ligand.clash>
0.0028

> <Gold.PLP.ligand.torsion>
3.4041

> <Gold.PLP.Chemscore.Hbond>
3.0000

> <Gold.PLP.Chemscore.CHOScore>
0.0000

> <Gold.PLP.Chemscore.Metal>
0.0000

> <Gold.Chemscore.Hbonds>
donor molecule, donor type, donor heavy atom, donor atom, acceptor molecule, acceptor atom, score
      P1  H  6896  6907       L1    22  1.00
      P1  H  6934  6947       L1    13  1.00
      P1  H  7997  8010       L1     5  0.03

> <Gold.PLP.Chemscore.Internal.Correction>
4.8858

> <Gold.Rescore>
     Score         DG    S(hbond)    S(metal)    S(lipo)     H(rot)  DE(clash)    DE(int)     intcor
     16.15     -22.44       2.89        0.00     100.41       1.73       0.00       6.29       ----

> <Gold.Chemscore.Fitness>
16.1544

> <Gold.Chemscore.DG>
-22.4429

> <Gold.Chemscore.ZeroCoef>
-5.4800

> <Gold.Chemscore.Hbond>
2.8912

> <Gold.Chemscore.Metal>
0.0000

> <Gold.Chemscore.Lipo>
100.4063

> <Gold.Chemscore.Internal_Hbond>
0.0000

> <Gold.Chemscore.DEClash>
0.0000

> <Gold.Chemscore.DEInternal>
6.2884

> <Gold.Chemscore.Rot>
1.7348

> <Gold.Chemscore.Internal.Correction>
   9.000000E+99

> <Gold.Chemscore.Hbonds>
donor molecule, donor type, donor heavy atom, donor atom, acceptor molecule, acceptor atom, score
      P1  H  6896  6907       L1    22  1.00
      P1  H  6934  6947       L1    13  0.55
      P1  H  7997  8010       L1     5  0.06

> <Gold.Chemscore.Hbond.Weighted>
-9.6565

> <Gold.Chemscore.Metal.Weighted>
-0.0000

> <Gold.Chemscore.Lipo.Weighted>
-11.7475

> <Gold.Chemscore.Internal_Hbond.Weighted>
0.0000

> <Gold.Chemscore.DEClash.Weighted>
0.0000

> <Gold.Chemscore.DEInternal.Weighted>
6.2884

> <Gold.Chemscore.Rot.Weighted>
4.4412

> <Gold.Chemscore.Internal.Correction.Weighted>
   9.000000E+99

> <Gold.Protein.RotatedTorsions>
[ 6907 6896 6895 6894 ] final  -44.71 input  -60.11 | X-H torsion
[ 7974 7965 7964 7962 ] final -176.61 input  175.53 | X-H torsion
[ 8008 7997 7996 7995 ] final   -1.37 input   59.86 | X-H torsion
[ 10167 10162 10161 10158 ] final  -64.49 input  -65.29 | X-H torsion
[ 10718 10713 10712 10709 ] final -173.28 input   66.30 | X-H torsion
[ 10763 10752 10751 10750 ] final   23.85 input  -60.55 | X-H torsion
[ 11005 11000 10999 10996 ] final   50.24 input  -57.11 | X-H torsion

> <Gold.Protein.ActiveResidues>
 VAL166  LYS551  ARG553  GLY616  TRP617  ASP618  TYR619  PRO620  LYS621  CYS622 
 ASP623  PHE694  ASN695  SER759  ASP760  ASP761  ALA762  ILE779  LEU786  VAL792 
 PHE793  MET794  SER795  GLU796  ALA797  LYS798  CYS799  TRP800  GLU811  SER814 

> <Gold.Protein.RotatedAtoms>
  150.9298  134.8714  159.7543 H   0  0  0  0  0  0  0  0  0  0  0  0  # atno 6907 bound_to 6896
  152.5032  134.4095  159.9454 H   0  0  0  0  0  0  0  0  0  0  0  0  # atno 6908 bound_to 6896
  151.4123  133.3684  159.2780 H   0  0  0  0  0  0  0  0  0  0  0  0  # atno 6909 bound_to 6896
  144.7127  140.1144  143.6409 H   0  0  0  0  0  0  0  0  0  0  0  0  # atno 7974 bound_to 7965
  154.6476  140.2561  155.7250 H   0  0  0  0  0  0  0  0  0  0  0  0  # atno 8008 bound_to 7997
  156.2559  140.2874  156.0817 H   0  0  0  0  0  0  0  0  0  0  0  0  # atno 8009 bound_to 7997
  155.1500  140.0382  157.2809 H   0  0  0  0  0  0  0  0  0  0  0  0  # atno 8010 bound_to 7997
  140.5797  143.2326  151.6368 H   0  0  0  0  0  0  0  0  0  0  0  0  # atno 10167 bound_to 10162
  156.7680  130.9438  151.3119 H   0  0  0  0  0  0  0  0  0  0  0  0  # atno 10718 bound_to 10713
  153.0807  135.6618  154.0051 H   0  0  0  0  0  0  0  0  0  0  0  0  # atno 10763 bound_to 10752
  153.9673  135.2968  155.3431 H   0  0  0  0  0  0  0  0  0  0  0  0  # atno 10764 bound_to 10752
  154.7206  135.5166  153.8877 H   0  0  0  0  0  0  0  0  0  0  0  0  # atno 10765 bound_to 10752
  140.1034  134.5051  155.8742 H   0  0  0  0  0  0  0  0  0  0  0  0  # atno 11005 bound_to 11000
  145.9427  139.2679  143.1259 LP  0  0  0  0  0  0  0  0  0  0  0  0  # atno 17320 bound_to 7965
  145.9407  140.8982  143.0309 LP  0  0  0  0  0  0  0  0  0  0  0  0  # atno 17321 bound_to 7965
  139.5163  144.3352  152.0790 LP  0  0  0  0  0  0  0  0  0  0  0  0  # atno 17342 bound_to 10162
  140.2500  144.4178  150.6225 LP  0  0  0  0  0  0  0  0  0  0  0  0  # atno 17343 bound_to 10162
  157.6704  130.9046  150.0028 LP  0  0  0  0  0  0  0  0  0  0  0  0  # atno 17370 bound_to 10713
  156.1296  130.3643  149.9753 LP  0  0  0  0  0  0  0  0  0  0  0  0  # atno 17371 bound_to 10713
  141.2112  133.6703  156.6563 LP  0  0  0  0  0  0  0  0  0  0  0  0  # atno 17394 bound_to 11000
  140.3189  134.8024  157.4236 LP  0  0  0  0  0  0  0  0  0  0  0  0  # atno 17395 bound_to 11000

$$$$
