AV-unprocessed.smi:3083|AV-procd|sdf|11746|dock2
  -GOLD-   2272017143D 1   1.00000     0.00000
 Structure written by MMmdl.
 28 29  0  0  0  0  0  0  0  0  2 V2000
  148.9678  138.5588  153.2418 N   0  3  0  0  0  0  0  0  0  0  0  0
  149.7642  138.9289  154.4267 C   0  0  2  0  0  0  0  0  0  0  0  0
  149.3051  138.1415  155.6741 C   0  0  0  0  0  0  0  0  0  0  0  0
  150.1025  138.5455  156.9245 C   0  0  0  0  0  0  0  0  0  0  0  0
  150.0602  140.0636  157.1563 C   0  0  0  0  0  0  0  0  0  0  0  0
  150.5821  140.8224  155.9247 C   0  0  0  0  0  0  0  0  0  0  0  0
  149.8068  140.4702  154.6369 C   0  0  2  0  0  0  0  0  0  0  0  0
  148.5092  141.1487  154.5933 N   0  0  0  0  0  0  0  0  0  0  0  0
  147.6842  141.2931  153.4954 C   0  0  0  0  0  0  0  0  0  0  0  0
  146.5984  142.0240  153.8832 C   0  0  0  0  0  0  0  0  0  0  0  0
  146.8556  142.3060  155.2524 C   0  0  0  0  0  0  0  0  0  0  0  0
  147.9985  141.7884  155.6702 N   0  0  0  0  0  0  0  0  0  0  0  0
  149.1955  137.6121  152.9718 H   0  0  0  0  0  0  0  0  0  0  0  0
  149.1816  139.1868  152.4804 H   0  0  0  0  0  0  0  0  0  0  0  0
  150.7844  138.6086  154.2100 H   0  0  0  0  0  0  0  0  0  0  0  0
  148.2419  138.2855  155.8610 H   0  0  0  0  0  0  0  0  0  0  0  0
  149.4298  137.0722  155.4998 H   0  0  0  0  0  0  0  0  0  0  0  0
  149.7104  138.0248  157.7986 H   0  0  0  0  0  0  0  0  0  0  0  0
  151.1393  138.2245  156.8149 H   0  0  0  0  0  0  0  0  0  0  0  0
  149.0417  140.3765  157.3881 H   0  0  0  0  0  0  0  0  0  0  0  0
  150.6627  140.3195  158.0284 H   0  0  0  0  0  0  0  0  0  0  0  0
  150.5462  141.8974  156.1060 H   0  0  0  0  0  0  0  0  0  0  0  0
  151.6357  140.5776  155.7838 H   0  0  0  0  0  0  0  0  0  0  0  0
  150.3766  140.8837  153.8031 H   0  0  0  0  0  0  0  0  0  0  0  0
  147.9360  140.8671  152.5351 H   0  0  0  0  0  0  0  0  0  0  0  0
  145.7540  142.3198  153.2781 H   0  0  0  0  0  0  0  0  0  0  0  0
  146.2526  142.8699  155.9489 H   0  0  0  0  0  0  0  0  0  0  0  0
  147.9841  138.6180  153.4624 H   0  0  0  0  0  0  0  0  0  0  0  0
  1  2  1  0  0  0  0
  1 13  1  0  0  0  0
  1 14  1  0  0  0  0
  1 28  1  0  0  0  0
  2  7  1  0  0  0  0
  2  3  1  0  0  0  0
  2 15  1  0  0  0  0
  3  4  1  0  0  0  0
  3 16  1  0  0  0  0
  3 17  1  0  0  0  0
  4  5  1  0  0  0  0
  4 18  1  0  0  0  0
  4 19  1  0  0  0  0
  5  6  1  0  0  0  0
  5 20  1  0  0  0  0
  5 21  1  0  0  0  0
  6  7  1  0  0  0  0
  6 22  1  0  0  0  0
  6 23  1  0  0  0  0
  7  8  1  0  0  0  0
  7 24  1  0  0  0  0
  8 12  1  0  0  0  0
  8  9  1  0  0  0  0
  9 10  2  0  0  0  0
  9 25  1  0  0  0  0
 10 11  1  0  0  0  0
 10 26  1  0  0  0  0
 11 12  2  0  0  0  0
 11 27  1  0  0  0  0
M  CHG  1   1   1
M  END
> <s_m_source_file>
AV-unprocessed.smi

> <i_m_source_file_index>
3083

> <i_lp_mmshare_version>
43012

> <i_f3d_flags>
0

> <s_epik_input>
W05IMl1bQ0BASF0xW0NIMl1bQ0gyXVtDSDJdW0NIMl1bQ0BIXTFuMltjSF1bY0hdW2NIXW4y

> <s_epik_cmdline>
J2VwaWtfcHl0aG9uJywgJy1waCcsICc3LjAnLCAnLXRuJywgJzgnLCAnLW1hJywgJzIwMCcsICctbWV0YWxfYmluZGluZycsICctaW1hZScsICc8aW5maWxlLm1hZT4nLCAnLW9tYWUnLCAnPG91dGZpbGUubWFlPic=

> <r_lp_tautomer_probability>
1

> <r_epik_Ionization_Penalty>
0.00385053

> <r_epik_Ionization_Penalty_Charging>
0.0038389

> <r_epik_Ionization_Penalty_Neutral>
1.16305e-05

> <r_epik_State_Penalty>
-0

> <r_epik_Charging_Adjusted_Penalty>
0.0038389

> <i_epik_Tot_Q>
1

> <i_epik_Tot_abs_Q>
1

> <r_epik_Metal_State_Penalty>
-0

> <b_epik_Metal_Only>
0

> <s_lp_Force_Field>
OPLS_2005

> <r_lp_Energy>
16.3847

> <b_lp_Chiralities_Consistent>
1

> <s_lp_Variant>
AV-unprocessed.smi:3083-3

> <Gold.Version>
5.8.1

> <Gold.Id.Protein>
6NUR|6NUR_protein|mol2

> <Gold.PLP.Fitness>
33.9876

> <Gold.PLP.PLP>
-22.2807

> <Gold.PLP.part.hbond>
-2.0000

> <Gold.PLP.part.metal>
0.0000

> <Gold.PLP.part.buried>
-2.1294

> <Gold.PLP.part.nonpolar>
-18.4400

> <Gold.PLP.part.repulsive>
0.5472

> <Gold.PLP.ligand.clash>
0.0000

> <Gold.PLP.ligand.torsion>
0.1789

> <Gold.PLP.Chemscore.Hbond>
3.0000

> <Gold.PLP.Chemscore.CHOScore>
1.0000

> <Gold.PLP.Chemscore.Metal>
0.0000

> <Gold.Chemscore.Hbonds>
donor molecule, donor type, donor heavy atom, donor atom, acceptor molecule, acceptor atom, score
      L1  H     1    13       P1  7948  1.98
      L1  H     1    14       P1  7957  1.00
      L1  C     9    25       P1  7957  1.00

> <Gold.PLP.Chemscore.Internal.Correction>
0.0646

> <Gold.Rescore>
     Score         DG    S(hbond)    S(metal)    S(lipo)     H(rot)  DE(clash)    DE(int)     intcor
     13.72     -14.91       1.98        0.00      45.88       1.00       0.02       1.17       ----

> <Gold.Chemscore.Fitness>
13.7244

> <Gold.Chemscore.DG>
-14.9123

> <Gold.Chemscore.ZeroCoef>
-5.4800

> <Gold.Chemscore.Hbond>
1.9832

> <Gold.Chemscore.Metal>
0.0000

> <Gold.Chemscore.Lipo>
45.8847

> <Gold.Chemscore.Internal_Hbond>
0.0000

> <Gold.Chemscore.DEClash>
0.0174

> <Gold.Chemscore.DEInternal>
1.1704

> <Gold.Chemscore.Rot>
1.0000

> <Gold.Chemscore.Internal.Correction>
   9.000000E+99

> <Gold.Chemscore.Hbonds>
donor molecule, donor type, donor heavy atom, donor atom, acceptor molecule, acceptor atom, score
      L1  H     1    13       P1  7948  0.92
      L1  H     1    14       P1  7957  0.99

> <Gold.Chemscore.Hbond.Weighted>
-6.6238

> <Gold.Chemscore.Metal.Weighted>
-0.0000

> <Gold.Chemscore.Lipo.Weighted>
-5.3685

> <Gold.Chemscore.Internal_Hbond.Weighted>
0.0000

> <Gold.Chemscore.DEClash.Weighted>
0.0174

> <Gold.Chemscore.DEInternal.Weighted>
1.1704

> <Gold.Chemscore.Rot.Weighted>
2.5600

> <Gold.Chemscore.Internal.Correction.Weighted>
   9.000000E+99

> <Gold.Protein.RotatedTorsions>
[ 6907 6896 6895 6894 ] final   92.07 input  -60.11 | X-H torsion
[ 7974 7965 7964 7962 ] final   64.67 input  175.53 | X-H torsion
[ 8008 7997 7996 7995 ] final  112.51 input   59.86 | X-H torsion
[ 10167 10162 10161 10158 ] final -178.97 input  -65.29 | X-H torsion
[ 10718 10713 10712 10709 ] final   73.47 input   66.30 | X-H torsion
[ 10763 10752 10751 10750 ] final -120.60 input  -60.55 | X-H torsion
[ 11005 11000 10999 10996 ] final  -18.38 input  -57.11 | X-H torsion

> <Gold.Protein.ActiveResidues>
 VAL166  LYS551  ARG553  GLY616  TRP617  ASP618  TYR619  PRO620  LYS621  CYS622 
 ASP623  PHE694  ASN695  SER759  ASP760  ASP761  ALA762  ILE779  LEU786  VAL792 
 PHE793  MET794  SER795  GLU796  ALA797  LYS798  CYS799  TRP800  GLU811  SER814 

> <Gold.Protein.RotatedAtoms>
  152.5452  134.1559  159.8537 H   0  0  0  0  0  0  0  0  0  0  0  0  # atno 6907 bound_to 6896
  151.1582  133.4855  159.2602 H   0  0  0  0  0  0  0  0  0  0  0  0  # atno 6908 bound_to 6896
  151.1401  135.0186  159.8676 H   0  0  0  0  0  0  0  0  0  0  0  0  # atno 6909 bound_to 6896
  145.8474  139.3233  143.0895 H   0  0  0  0  0  0  0  0  0  0  0  0  # atno 7974 bound_to 7965
  156.2197  140.2998  155.9922 H   0  0  0  0  0  0  0  0  0  0  0  0  # atno 8008 bound_to 7997
  155.2514  140.0426  157.3004 H   0  0  0  0  0  0  0  0  0  0  0  0  # atno 8009 bound_to 7997
  154.5821  140.2378  155.8047 H   0  0  0  0  0  0  0  0  0  0  0  0  # atno 8010 bound_to 7997
  139.5408  144.2369  152.0890 H   0  0  0  0  0  0  0  0  0  0  0  0  # atno 10167 bound_to 10162
  157.6549  130.9630  150.1074 H   0  0  0  0  0  0  0  0  0  0  0  0  # atno 10718 bound_to 10713
  154.8648  135.4197  154.2486 H   0  0  0  0  0  0  0  0  0  0  0  0  # atno 10763 bound_to 10752
  153.3437  135.6995  153.6851 H   0  0  0  0  0  0  0  0  0  0  0  0  # atno 10764 bound_to 10752
  153.5819  135.3571  155.2851 H   0  0  0  0  0  0  0  0  0  0  0  0  # atno 10765 bound_to 10752
  140.8262  133.8031  155.9711 H   0  0  0  0  0  0  0  0  0  0  0  0  # atno 11005 bound_to 11000
  145.9396  140.8989  143.0314 LP  0  0  0  0  0  0  0  0  0  0  0  0  # atno 17320 bound_to 7965
  144.6730  140.1530  143.7428 LP  0  0  0  0  0  0  0  0  0  0  0  0  # atno 17321 bound_to 7965
  140.1847  144.4810  150.6510 LP  0  0  0  0  0  0  0  0  0  0  0  0  # atno 17342 bound_to 10162
  140.6636  143.2260  151.5796 LP  0  0  0  0  0  0  0  0  0  0  0  0  # atno 17343 bound_to 10162
  156.1980  130.3658  149.8824 LP  0  0  0  0  0  0  0  0  0  0  0  0  # atno 17370 bound_to 10713
  156.6736  130.8830  151.3566 LP  0  0  0  0  0  0  0  0  0  0  0  0  # atno 17371 bound_to 10713
  140.9046  134.2335  157.5021 LP  0  0  0  0  0  0  0  0  0  0  0  0  # atno 17394 bound_to 11000
  139.8706  134.9722  156.4766 LP  0  0  0  0  0  0  0  0  0  0  0  0  # atno 17395 bound_to 11000

$$$$
