AV-unprocessed.smi:673|AV-procd|sdf|3298|dock2
  -GOLD-   22720 0263D 1   1.00000     0.00000
 Structure written by MMmdl.
 45 46  0  0  0  0  0  0  0  0  1 V2000
  150.2506  138.2496  154.8833 C   0  0  0  0  0  0  0  0  0  0  0  0
  150.2071  139.7842  154.9567 C   0  0  1  0  0  0  0  0  0  0  0  0
  148.8573  140.3782  154.4881 C   0  0  0  0  0  0  0  0  0  0  0  0
  147.7995  139.3903  154.3560 N   0  0  0  0  0  0  0  0  0  0  0  0
  147.1310  138.9714  153.2800 C   0  0  0  0  0  0  0  0  0  0  0  0
  146.2219  138.0429  153.5421 N   0  0  0  0  0  0  0  0  0  0  0  0
  146.3909  137.9333  154.8934 C   0  0  0  0  0  0  0  0  0  0  0  0
  147.3226  138.7199  155.4315 N   0  0  0  0  0  0  0  0  0  0  0  0
  150.5289  140.2076  156.3172 N   0  0  0  0  0  0  0  0  0  0  0  0
  151.7165  140.0609  156.9305 C   0  0  0  0  0  0  0  0  0  0  0  0
  152.6769  139.5253  156.3739 O   0  0  0  0  0  0  0  0  0  0  0  0
  151.7848  140.6075  158.1736 N   0  0  0  0  0  0  0  0  0  0  0  0
  152.8826  140.3474  159.1274 C   0  0  0  0  0  0  0  0  0  0  0  0
  153.2403  141.5306  160.0489 C   0  0  0  0  0  0  0  0  0  0  0  0
  153.3922  142.8872  159.3274 C   0  0  0  0  0  0  0  0  0  0  0  0
  152.0936  143.7145  159.1219 C   0  0  0  0  0  0  0  0  0  0  0  0
  151.4613  144.1042  160.4774 C   0  0  0  0  0  0  0  0  0  0  0  0
  152.4820  145.0257  158.4083 C   0  0  0  0  0  0  0  0  0  0  0  0
  151.0546  142.9851  158.2321 C   0  0  0  0  0  0  0  0  0  0  0  0
  150.7342  141.5303  158.6276 C   0  0  0  0  0  0  0  0  0  0  0  0
  150.0002  137.8991  153.8816 H   0  0  0  0  0  0  0  0  0  0  0  0
  149.5514  137.7901  155.5828 H   0  0  0  0  0  0  0  0  0  0  0  0
  151.2469  137.8760  155.1225 H   0  0  0  0  0  0  0  0  0  0  0  0
  150.9854  140.1616  154.2915 H   0  0  0  0  0  0  0  0  0  0  0  0
  148.5211  141.1623  155.1682 H   0  0  0  0  0  0  0  0  0  0  0  0
  148.9892  140.8581  153.5177 H   0  0  0  0  0  0  0  0  0  0  0  0
  147.3168  139.3490  152.2852 H   0  0  0  0  0  0  0  0  0  0  0  0
  145.8096  137.2539  155.4990 H   0  0  0  0  0  0  0  0  0  0  0  0
  149.7967  140.6790  156.8281 H   0  0  0  0  0  0  0  0  0  0  0  0
  152.6281  139.4736  159.7283 H   0  0  0  0  0  0  0  0  0  0  0  0
  153.8018  140.0958  158.5964 H   0  0  0  0  0  0  0  0  0  0  0  0
  152.5358  141.5973  160.8756 H   0  0  0  0  0  0  0  0  0  0  0  0
  154.1924  141.2909  160.5238 H   0  0  0  0  0  0  0  0  0  0  0  0
  154.0878  143.4924  159.9105 H   0  0  0  0  0  0  0  0  0  0  0  0
  153.8883  142.7267  158.3691 H   0  0  0  0  0  0  0  0  0  0  0  0
  150.6239  144.7889  160.3382 H   0  0  0  0  0  0  0  0  0  0  0  0
  152.1845  144.6051  161.1219 H   0  0  0  0  0  0  0  0  0  0  0  0
  151.0750  143.2472  161.0264 H   0  0  0  0  0  0  0  0  0  0  0  0
  151.6106  145.6575  158.2315 H   0  0  0  0  0  0  0  0  0  0  0  0
  152.9450  144.8322  157.4399 H   0  0  0  0  0  0  0  0  0  0  0  0
  153.1922  145.6068  158.9977 H   0  0  0  0  0  0  0  0  0  0  0  0
  150.1256  143.5565  158.2427 H   0  0  0  0  0  0  0  0  0  0  0  0
  151.3827  143.0017  157.1917 H   0  0  0  0  0  0  0  0  0  0  0  0
  149.7773  141.2472  158.1855 H   0  0  0  0  0  0  0  0  0  0  0  0
  150.5654  141.4323  159.6992 H   0  0  0  0  0  0  0  0  0  0  0  0
  1  2  1  0  0  0  0
  1 21  1  0  0  0  0
  1 22  1  0  0  0  0
  1 23  1  0  0  0  0
  2  3  1  0  0  0  0
  2  9  1  0  0  0  0
  2 24  1  0  0  0  0
  3  4  1  0  0  0  0
  3 25  1  0  0  0  0
  3 26  1  0  0  0  0
  4  8  1  0  0  0  0
  4  5  1  0  0  0  0
  5  6  2  0  0  0  0
  5 27  1  0  0  0  0
  6  7  1  0  0  0  0
  7  8  2  0  0  0  0
  7 28  1  0  0  0  0
  9 10  1  0  0  0  0
  9 29  1  0  0  0  0
 10 11  2  0  0  0  0
 10 12  1  0  0  0  0
 12 20  1  0  0  0  0
 12 13  1  0  0  0  0
 13 14  1  0  0  0  0
 13 30  1  0  0  0  0
 13 31  1  0  0  0  0
 14 15  1  0  0  0  0
 14 32  1  0  0  0  0
 14 33  1  0  0  0  0
 15 16  1  0  0  0  0
 15 34  1  0  0  0  0
 15 35  1  0  0  0  0
 16 17  1  0  0  0  0
 16 18  1  0  0  0  0
 16 19  1  0  0  0  0
 17 36  1  0  0  0  0
 17 37  1  0  0  0  0
 17 38  1  0  0  0  0
 18 39  1  0  0  0  0
 18 40  1  0  0  0  0
 18 41  1  0  0  0  0
 19 20  1  0  0  0  0
 19 42  1  0  0  0  0
 19 43  1  0  0  0  0
 20 44  1  0  0  0  0
 20 45  1  0  0  0  0
M  END
> <s_m_source_file>
AV-unprocessed.smi

> <i_m_source_file_index>
673

> <i_lp_mmshare_version>
43012

> <i_f3d_flags>
0

> <s_epik_input>
bjFbY0hdbltjSF1uMVtDSDJdW0NAQEhdKFtDSDNdKVtOSF1DKD1PKU4oW0NIMl1bQ0gyXTIpW0NIMl1bQ0gyXVtDSDJdQzIoW0NIM10pW0NIM10=

> <s_epik_cmdline>
J2VwaWtfcHl0aG9uJywgJy1waCcsICc3LjAnLCAnLXRuJywgJzgnLCAnLW1hJywgJzIwMCcsICctbWV0YWxfYmluZGluZycsICctaW1hZScsICc8aW5maWxlLm1hZT4nLCAnLW9tYWUnLCAnPG91dGZpbGUubWFlPic=

> <r_lp_tautomer_probability>
1

> <r_epik_Ionization_Penalty>
0.000118908

> <r_epik_Ionization_Penalty_Charging>
0

> <r_epik_Ionization_Penalty_Neutral>
0.000118908

> <r_epik_State_Penalty>
-0

> <r_epik_Charging_Adjusted_Penalty>
0

> <i_epik_Tot_Q>
0

> <i_epik_Tot_abs_Q>
0

> <r_epik_Metal_State_Penalty>
-0

> <b_epik_Metal_Only>
0

> <s_lp_Force_Field>
OPLS_2005

> <r_lp_Energy>
39.1702

> <b_lp_Chiralities_Consistent>
1

> <s_lp_Variant>
AV-unprocessed.smi:673-2

> <Gold.Version>
5.8.1

> <Gold.Id.Protein>
6NUR|6NUR_protein|mol2

> <Gold.PLP.Fitness>
41.2974

> <Gold.PLP.PLP>
-39.8624

> <Gold.PLP.part.hbond>
-1.0000

> <Gold.PLP.part.metal>
0.0000

> <Gold.PLP.part.buried>
-3.4974

> <Gold.PLP.part.nonpolar>
-35.5279

> <Gold.PLP.part.repulsive>
0.3329

> <Gold.PLP.ligand.clash>
2.8649

> <Gold.PLP.ligand.torsion>
0.8867

> <Gold.PLP.Chemscore.Hbond>
1.0000

> <Gold.PLP.Chemscore.CHOScore>
0.9949

> <Gold.PLP.Chemscore.Metal>
0.0000

> <Gold.Chemscore.Hbonds>
donor molecule, donor type, donor heavy atom, donor atom, acceptor molecule, acceptor atom, score
      P1  H  7997  8010       L1    11  1.00
      L1  C     5    27       P1  7957  0.78

> <Gold.PLP.Chemscore.Internal.Correction>
0.0884

> <Gold.Rescore>
     Score         DG    S(hbond)    S(metal)    S(lipo)     H(rot)  DE(clash)    DE(int)     intcor
     15.91     -16.36       0.99        0.00     105.40       1.86       0.01       0.45       ----

> <Gold.Chemscore.Fitness>
15.9072

> <Gold.Chemscore.DG>
-16.3633

> <Gold.Chemscore.ZeroCoef>
-5.4800

> <Gold.Chemscore.Hbond>
0.9929

> <Gold.Chemscore.Metal>
0.0000

> <Gold.Chemscore.Lipo>
105.4041

> <Gold.Chemscore.Internal_Hbond>
0.0000

> <Gold.Chemscore.DEClash>
0.0089

> <Gold.Chemscore.DEInternal>
0.4472

> <Gold.Chemscore.Rot>
1.8614

> <Gold.Chemscore.Internal.Correction>
   9.000000E+99

> <Gold.Chemscore.Hbonds>
donor molecule, donor type, donor heavy atom, donor atom, acceptor molecule, acceptor atom, score
      P1  H  7997  8010       L1    11  1.00

> <Gold.Chemscore.Hbond.Weighted>
-3.3163

> <Gold.Chemscore.Metal.Weighted>
-0.0000

> <Gold.Chemscore.Lipo.Weighted>
-12.3323

> <Gold.Chemscore.Internal_Hbond.Weighted>
0.0000

> <Gold.Chemscore.DEClash.Weighted>
0.0089

> <Gold.Chemscore.DEInternal.Weighted>
0.4472

> <Gold.Chemscore.Rot.Weighted>
4.7653

> <Gold.Chemscore.Internal.Correction.Weighted>
   9.000000E+99

> <Gold.Protein.RotatedTorsions>
[ 6907 6896 6895 6894 ] final -143.68 input  -60.11 | X-H torsion
[ 7974 7965 7964 7962 ] final  102.55 input  175.53 | X-H torsion
[ 8008 7997 7996 7995 ] final   65.98 input   59.86 | X-H torsion
[ 10167 10162 10161 10158 ] final   95.19 input  -65.29 | X-H torsion
[ 10718 10713 10712 10709 ] final -140.10 input   66.30 | X-H torsion
[ 10763 10752 10751 10750 ] final  176.46 input  -60.55 | X-H torsion
[ 11005 11000 10999 10996 ] final  135.91 input  -57.11 | X-H torsion

> <Gold.Protein.ActiveResidues>
 VAL166  LYS551  ARG553  GLY616  TRP617  ASP618  TYR619  PRO620  LYS621  CYS622 
 ASP623  PHE694  ASN695  SER759  ASP760  ASP761  ALA762  ILE779  LEU786  VAL792 
 PHE793  MET794  SER795  GLU796  ALA797  LYS798  CYS799  TRP800  GLU811  SER814 

> <Gold.Protein.RotatedAtoms>
  151.1037  133.5224  159.2608 H   0  0  0  0  0  0  0  0  0  0  0  0  # atno 6907 bound_to 6896
  151.2045  135.0456  159.8896 H   0  0  0  0  0  0  0  0  0  0  0  0  # atno 6908 bound_to 6896
  152.5445  134.0861  159.8310 H   0  0  0  0  0  0  0  0  0  0  0  0  # atno 6909 bound_to 6896
  145.3576  139.2425  143.3524 H   0  0  0  0  0  0  0  0  0  0  0  0  # atno 7974 bound_to 7965
  155.6703  140.3497  155.4816 H   0  0  0  0  0  0  0  0  0  0  0  0  # atno 8008 bound_to 7997
  155.9694  140.1152  157.0849 H   0  0  0  0  0  0  0  0  0  0  0  0  # atno 8009 bound_to 7997
  154.4162  140.1160  156.5272 H   0  0  0  0  0  0  0  0  0  0  0  0  # atno 8010 bound_to 7997
  139.8012  144.6813  150.9763 H   0  0  0  0  0  0  0  0  0  0  0  0  # atno 10167 bound_to 10162
  156.3184  130.7520  151.1612 H   0  0  0  0  0  0  0  0  0  0  0  0  # atno 10718 bound_to 10713
  154.4814  135.2775  155.1567 H   0  0  0  0  0  0  0  0  0  0  0  0  # atno 10763 bound_to 10752
  154.3276  135.6197  153.5540 H   0  0  0  0  0  0  0  0  0  0  0  0  # atno 10764 bound_to 10752
  152.9876  135.5757  154.5216 H   0  0  0  0  0  0  0  0  0  0  0  0  # atno 10765 bound_to 10752
  140.0011  134.9478  157.0074 H   0  0  0  0  0  0  0  0  0  0  0  0  # atno 11005 bound_to 11000
  146.2941  140.4204  142.8728 LP  0  0  0  0  0  0  0  0  0  0  0  0  # atno 17320 bound_to 7965
  144.8671  140.7220  143.6071 LP  0  0  0  0  0  0  0  0  0  0  0  0  # atno 17321 bound_to 7965
  140.7820  143.4280  151.0738 LP  0  0  0  0  0  0  0  0  0  0  0  0  # atno 17342 bound_to 10162
  139.7952  143.8162  152.3156 LP  0  0  0  0  0  0  0  0  0  0  0  0  # atno 17343 bound_to 10162
  157.7406  131.0514  150.5152 LP  0  0  0  0  0  0  0  0  0  0  0  0  # atno 17370 bound_to 10713
  156.5301  130.4183  149.6206 LP  0  0  0  0  0  0  0  0  0  0  0  0  # atno 17371 bound_to 10713
  140.4726  134.1371  155.7205 LP  0  0  0  0  0  0  0  0  0  0  0  0  # atno 17394 bound_to 11000
  141.1642  133.8734  157.1761 LP  0  0  0  0  0  0  0  0  0  0  0  0  # atno 17395 bound_to 11000

$$$$
