AV-unprocessed.smi:276|AV-procd|sdf|2071|dock10
  -GOLD-   2262021333D 1   1.00000     0.00000
 Structure written by MMmdl.
 57 61  0  0  0  0  0  0  0  0  1 V2000
  147.3523  141.6723  157.6946 C   0  0  0  0  0  0  0  0  0  0  0  0
  148.7671  141.6605  157.7668 O   0  0  0  0  0  0  0  0  0  0  0  0
  149.3868  141.7890  156.4945 C   0  0  1  0  0  0  0  0  0  0  0  0
  150.9193  141.8525  156.5841 C   0  0  0  0  0  0  0  0  0  0  0  0
  150.9673  140.3185  156.4383 C   0  0  1  0  0  0  0  0  0  0  0  0
  151.0374  139.6539  157.7475 N   0  0  0  0  0  0  0  0  0  0  0  0
  152.2984  139.7873  158.4700 C   0  0  0  0  0  0  0  0  0  0  0  0
  150.6225  138.3684  157.7810 C   0  0  0  0  0  0  0  0  0  0  0  0
  150.1506  137.9040  158.9647 N   0  0  0  0  0  0  0  0  0  0  0  0
  149.7074  136.6470  159.0605 C   0  0  0  0  0  0  0  0  0  0  0  0
  149.6539  135.7056  158.1155 N   0  0  0  0  0  0  0  0  0  0  0  0
  150.1450  136.1660  156.9289 C   0  0  0  0  0  0  0  0  0  0  0  0
  150.6531  137.4710  156.6754 C   0  0  0  0  0  0  0  0  0  0  0  0
  151.0701  137.5678  155.3529 N   0  0  0  0  0  0  0  0  0  0  0  0
  150.8081  136.3931  154.8491 C   0  0  0  0  0  0  0  0  0  0  0  0
  150.2482  135.4921  155.7252 N   0  0  0  0  0  0  0  0  0  0  0  0
  149.8507  134.1269  155.4267 C   0  0  0  0  0  0  0  0  0  0  0  0
  149.3756  133.9556  153.9654 C   0  0  2  0  0  0  0  0  0  0  0  0
  148.2684  134.8163  153.7687 O   0  0  0  0  0  0  0  0  0  0  0  0
  148.9092  132.5232  153.6143 C   0  0  2  0  0  0  0  0  0  0  0  0
  147.6527  132.0359  154.3591 C   0  0  0  0  0  0  0  0  0  0  0  0
  148.2132  131.2902  155.5482 C   0  0  0  0  0  0  0  0  0  0  0  0
  149.4413  130.6440  154.9302 C   0  0  0  0  0  0  0  0  0  0  0  0
  149.9435  131.6281  154.0362 O   0  0  0  0  0  0  0  0  0  0  0  0
  149.5532  140.4234  155.8057 C   0  0  0  0  0  0  0  0  0  0  0  0
  149.4074  140.3635  154.2750 C   0  0  0  0  0  0  0  0  0  0  0  0
  147.9900  139.8240  154.4799 C   0  0  0  0  0  0  0  0  0  0  0  0
  148.4454  139.3506  155.8609 C   0  0  0  0  0  0  0  0  0  0  0  0
  146.9351  141.5629  158.6955 H   0  0  0  0  0  0  0  0  0  0  0  0
  146.9837  140.8463  157.0854 H   0  0  0  0  0  0  0  0  0  0  0  0
  146.9800  142.6079  157.2767 H   0  0  0  0  0  0  0  0  0  0  0  0
  148.9320  142.5503  155.8587 H   0  0  0  0  0  0  0  0  0  0  0  0
  151.3598  142.3598  155.7243 H   0  0  0  0  0  0  0  0  0  0  0  0
  151.3084  142.2635  157.5147 H   0  0  0  0  0  0  0  0  0  0  0  0
  151.7368  139.9984  155.7358 H   0  0  0  0  0  0  0  0  0  0  0  0
  152.3839  139.0671  159.2857 H   0  0  0  0  0  0  0  0  0  0  0  0
  152.3833  140.7809  158.9088 H   0  0  0  0  0  0  0  0  0  0  0  0
  153.1439  139.6374  157.7978 H   0  0  0  0  0  0  0  0  0  0  0  0
  149.3400  136.3547  160.0331 H   0  0  0  0  0  0  0  0  0  0  0  0
  151.0132  136.1515  153.8164 H   0  0  0  0  0  0  0  0  0  0  0  0
  150.7083  133.4902  155.6386 H   0  0  0  0  0  0  0  0  0  0  0  0
  149.0627  133.8313  156.1207 H   0  0  0  0  0  0  0  0  0  0  0  0
  150.1752  134.2607  153.2891 H   0  0  0  0  0  0  0  0  0  0  0  0
  148.3184  135.1759  152.8962 H   0  0  0  0  0  0  0  0  0  0  0  0
  148.7521  132.4324  152.5382 H   0  0  0  0  0  0  0  0  0  0  0  0
  146.9503  132.8156  154.6455 H   0  0  0  0  0  0  0  0  0  0  0  0
  147.1077  131.3355  153.7242 H   0  0  0  0  0  0  0  0  0  0  0  0
  148.5045  131.9897  156.3329 H   0  0  0  0  0  0  0  0  0  0  0  0
  147.5157  130.5660  155.9700 H   0  0  0  0  0  0  0  0  0  0  0  0
  150.1873  130.3578  155.6720 H   0  0  0  0  0  0  0  0  0  0  0  0
  149.1635  129.7556  154.3614 H   0  0  0  0  0  0  0  0  0  0  0  0
  149.4608  141.3260  153.7652 H   0  0  0  0  0  0  0  0  0  0  0  0
  150.0737  139.6302  153.8171 H   0  0  0  0  0  0  0  0  0  0  0  0
  147.2383  140.6135  154.5298 H   0  0  0  0  0  0  0  0  0  0  0  0
  147.6999  139.0267  153.7952 H   0  0  0  0  0  0  0  0  0  0  0  0
  148.8140  138.3260  155.8213 H   0  0  0  0  0  0  0  0  0  0  0  0
  147.7097  139.4810  156.6547 H   0  0  0  0  0  0  0  0  0  0  0  0
  1  2  1  0  0  0  0
  1 29  1  0  0  0  0
  1 30  1  0  0  0  0
  1 31  1  0  0  0  0
  2  3  1  0  0  0  0
  3 25  1  0  0  0  0
  3  4  1  0  0  0  0
  3 32  1  0  0  0  0
  4  5  1  0  0  0  0
  4 33  1  0  0  0  0
  4 34  1  0  0  0  0
  5  6  1  0  0  0  0
  5 25  1  0  0  0  0
  5 35  1  0  0  0  0
  6  7  1  0  0  0  0
  6  8  1  0  0  0  0
  7 36  1  0  0  0  0
  7 37  1  0  0  0  0
  7 38  1  0  0  0  0
  8 13  1  0  0  0  0
  8  9  2  0  0  0  0
  9 10  1  0  0  0  0
 10 11  2  0  0  0  0
 10 39  1  0  0  0  0
 11 12  1  0  0  0  0
 12 16  1  0  0  0  0
 12 13  2  0  0  0  0
 13 14  1  0  0  0  0
 14 15  2  0  0  0  0
 15 16  1  0  0  0  0
 15 40  1  0  0  0  0
 16 17  1  0  0  0  0
 17 18  1  0  0  0  0
 17 41  1  0  0  0  0
 17 42  1  0  0  0  0
 18 19  1  0  0  0  0
 18 20  1  0  0  0  0
 18 43  1  0  0  0  0
 19 44  1  0  0  0  0
 20 24  1  0  0  0  0
 20 21  1  0  0  0  0
 20 45  1  0  0  0  0
 21 22  1  0  0  0  0
 21 46  1  0  0  0  0
 21 47  1  0  0  0  0
 22 23  1  0  0  0  0
 22 48  1  0  0  0  0
 22 49  1  0  0  0  0
 23 24  1  0  0  0  0
 23 50  1  0  0  0  0
 23 51  1  0  0  0  0
 25 28  1  0  0  0  0
 25 26  1  0  0  0  0
 26 27  1  0  0  0  0
 26 52  1  0  0  0  0
 26 53  1  0  0  0  0
 27 28  1  0  0  0  0
 27 54  1  0  0  0  0
 27 55  1  0  0  0  0
 28 56  1  0  0  0  0
 28 57  1  0  0  0  0
M  END
> <s_m_source_file>
AV-unprocessed.smi

> <i_m_source_file_index>
276

> <i_lp_mmshare_version>
43012

> <i_f3d_flags>
0

> <s_epik_input>
W0NIMl0xW0NIMl1bQ0gyXUMxMltDQEhdKE9bQ0gzXSlbQ0gyXVtDQEhdMk4oW0NIM10pYyhuW2NIXW4zKWMoYzM0KW5bY0hdbjRbQ0gyXVtDQEhdKFtPSF0pW0NAQEhdNVtDSDJdW0NIMl1bQ0gyXU81

> <s_epik_cmdline>
J2VwaWtfcHl0aG9uJywgJy1waCcsICc3LjAnLCAnLXRuJywgJzgnLCAnLW1hJywgJzIwMCcsICctbWV0YWxfYmluZGluZycsICctaW1hZScsICc8aW5maWxlLm1hZT4nLCAnLW9tYWUnLCAnPG91dGZpbGUubWFlPic=

> <r_lp_tautomer_probability>
1

> <r_epik_Ionization_Penalty>
0.00204117

> <r_epik_Ionization_Penalty_Charging>
0

> <r_epik_Ionization_Penalty_Neutral>
0.00204117

> <r_epik_State_Penalty>
0.00127401

> <r_epik_Charging_Adjusted_Penalty>
0.00127401

> <i_epik_Tot_Q>
0

> <i_epik_Tot_abs_Q>
0

> <r_epik_Metal_State_Penalty>
-0

> <b_epik_Metal_Only>
0

> <s_lp_Force_Field>
OPLS_2005

> <r_lp_Energy>
58.0583

> <b_lp_Chiralities_Consistent>
1

> <s_lp_Variant>
AV-unprocessed.smi:276-2

> <Gold.Version>
5.8.1

> <Gold.Id.Protein>
6NUR|6NUR_protein|mol2

> <Gold.PLP.Fitness>
36.8491

> <Gold.PLP.PLP>
-31.0236

> <Gold.PLP.part.hbond>
-2.5211

> <Gold.PLP.part.metal>
0.0000

> <Gold.PLP.part.buried>
-1.0413

> <Gold.PLP.part.nonpolar>
-26.7956

> <Gold.PLP.part.repulsive>
0.2109

> <Gold.PLP.ligand.clash>
0.0000

> <Gold.PLP.ligand.torsion>
1.2742

> <Gold.PLP.Chemscore.Hbond>
1.5500

> <Gold.PLP.Chemscore.CHOScore>
1.0000

> <Gold.PLP.Chemscore.Metal>
0.0000

> <Gold.Chemscore.Hbonds>
donor molecule, donor type, donor heavy atom, donor atom, acceptor molecule, acceptor atom, score
      L1  H    19    44       P1  7948  1.00
      L1  C    15    40       P1  7949  0.97

> <Gold.PLP.Chemscore.Internal.Correction>
0.7240

> <Gold.Rescore>
     Score         DG    S(hbond)    S(metal)    S(lipo)     H(rot)  DE(clash)    DE(int)     intcor
      8.02     -11.41       1.20        0.00      75.96       2.72       0.80       2.59       ----

> <Gold.Chemscore.Fitness>
8.0180

> <Gold.Chemscore.DG>
-11.4108

> <Gold.Chemscore.ZeroCoef>
-5.4800

> <Gold.Chemscore.Hbond>
1.1974

> <Gold.Chemscore.Metal>
0.0000

> <Gold.Chemscore.Lipo>
75.9607

> <Gold.Chemscore.Internal_Hbond>
0.0000

> <Gold.Chemscore.DEClash>
0.8027

> <Gold.Chemscore.DEInternal>
2.5901

> <Gold.Chemscore.Rot>
2.7172

> <Gold.Chemscore.Internal.Correction>
   9.000000E+99

> <Gold.Chemscore.Hbonds>
donor molecule, donor type, donor heavy atom, donor atom, acceptor molecule, acceptor atom, score
      L1  H    19    44       P1  7948  0.83

> <Gold.Chemscore.Hbond.Weighted>
-3.9994

> <Gold.Chemscore.Metal.Weighted>
-0.0000

> <Gold.Chemscore.Lipo.Weighted>
-8.8874

> <Gold.Chemscore.Internal_Hbond.Weighted>
0.0000

> <Gold.Chemscore.DEClash.Weighted>
0.8027

> <Gold.Chemscore.DEInternal.Weighted>
2.5901

> <Gold.Chemscore.Rot.Weighted>
6.9560

> <Gold.Chemscore.Internal.Correction.Weighted>
   9.000000E+99

> <Gold.Protein.RotatedTorsions>
[ 6907 6896 6895 6894 ] final  -63.50 input  -60.11 | X-H torsion
[ 7974 7965 7964 7962 ] final -169.71 input  175.53 | X-H torsion
[ 8008 7997 7996 7995 ] final  153.52 input   59.86 | X-H torsion
[ 10167 10162 10161 10158 ] final   -9.08 input  -65.29 | X-H torsion
[ 10718 10713 10712 10709 ] final   61.25 input   66.30 | X-H torsion
[ 10763 10752 10751 10750 ] final  -86.16 input  -60.55 | X-H torsion
[ 11005 11000 10999 10996 ] final -173.66 input  -57.11 | X-H torsion

> <Gold.Protein.ActiveResidues>
 VAL166  LYS551  ARG553  GLY616  TRP617  ASP618  TYR619  PRO620  LYS621  CYS622 
 ASP623  PHE694  ASN695  SER759  ASP760  ASP761  ALA762  ILE779  LEU786  VAL792 
 PHE793  MET794  SER795  GLU796  ALA797  LYS798  CYS799  TRP800  GLU811  SER814 

> <Gold.Protein.RotatedAtoms>
  150.7645  134.6426  159.6244 H   0  0  0  0  0  0  0  0  0  0  0  0  # atno 6907 bound_to 6896
  152.3670  134.6787  160.0198 H   0  0  0  0  0  0  0  0  0  0  0  0  # atno 6908 bound_to 6896
  151.7159  133.3277  159.3339 H   0  0  0  0  0  0  0  0  0  0  0  0  # atno 6909 bound_to 6896
  144.7181  140.2180  143.6319 H   0  0  0  0  0  0  0  0  0  0  0  0  # atno 7974 bound_to 7965
  156.2577  140.1991  156.6503 H   0  0  0  0  0  0  0  0  0  0  0  0  # atno 8008 bound_to 7997
  154.6542  140.0568  157.0015 H   0  0  0  0  0  0  0  0  0  0  0  0  # atno 8009 bound_to 7997
  155.1372  140.3239  155.4463 H   0  0  0  0  0  0  0  0  0  0  0  0  # atno 8010 bound_to 7997
  140.7077  143.5898  150.8906 H   0  0  0  0  0  0  0  0  0  0  0  0  # atno 10167 bound_to 10162
  157.5814  130.8984  149.9437 H   0  0  0  0  0  0  0  0  0  0  0  0  # atno 10718 bound_to 10713
  154.6193  135.5459  153.7557 H   0  0  0  0  0  0  0  0  0  0  0  0  # atno 10763 bound_to 10752
  153.0231  135.6408  154.1464 H   0  0  0  0  0  0  0  0  0  0  0  0  # atno 10764 bound_to 10752
  154.1399  135.2909  155.3143 H   0  0  0  0  0  0  0  0  0  0  0  0  # atno 10765 bound_to 10752
  140.4833  134.6055  157.4927 H   0  0  0  0  0  0  0  0  0  0  0  0  # atno 11005 bound_to 11000
  145.8528  139.2184  143.1762 LP  0  0  0  0  0  0  0  0  0  0  0  0  # atno 17320 bound_to 7965
  146.0245  140.8317  142.9907 LP  0  0  0  0  0  0  0  0  0  0  0  0  # atno 17321 bound_to 7965
  139.9623  143.6149  152.2998 LP  0  0  0  0  0  0  0  0  0  0  0  0  # atno 17342 bound_to 10162
  139.6707  144.7661  151.1789 LP  0  0  0  0  0  0  0  0  0  0  0  0  # atno 17343 bound_to 10162
  156.0860  130.3668  150.0487 LP  0  0  0  0  0  0  0  0  0  0  0  0  # atno 17370 bound_to 10713
  156.8626  130.9497  151.3616 LP  0  0  0  0  0  0  0  0  0  0  0  0  # atno 17371 bound_to 10713
  139.9813  134.7132  155.9854 LP  0  0  0  0  0  0  0  0  0  0  0  0  # atno 17394 bound_to 11000
  141.1520  133.6547  156.4044 LP  0  0  0  0  0  0  0  0  0  0  0  0  # atno 17395 bound_to 11000

$$$$
