AV-unprocessed.smi:543|AV-procd|sdf|2875|dock6
  -GOLD-   2262023363D 1   1.00000     0.00000
 Structure written by MMmdl.
 46 48  0  0  0  0  0  0  0  0  1 V2000
  153.6664  137.0404  162.9756 C   0  0  0  0  0  0  0  0  0  0  0  0
  154.3609  136.6436  161.8073 O   0  0  0  0  0  0  0  0  0  0  0  0
  153.7297  137.0914  160.6185 C   0  0  0  0  0  0  0  0  0  0  0  0
  154.3754  138.4050  160.1563 C   0  0  0  0  0  0  0  0  0  0  0  0
  153.4082  139.2857  159.5029 N   0  0  0  0  0  0  0  0  0  0  0  0
  152.9866  140.5312  159.8670 C   0  0  0  0  0  0  0  0  0  0  0  0
  153.4348  141.1723  161.0289 N   0  0  0  0  0  0  0  0  0  0  0  0
  154.3851  140.6250  161.9895 C   0  0  0  0  0  0  0  0  0  0  0  0
  152.8710  142.4199  161.5457 C   0  0  0  0  0  0  0  0  0  0  0  0
  152.4691  143.4412  160.4930 C   0  0  0  0  0  0  0  0  0  0  0  0
  153.2508  143.5953  159.3286 C   0  0  0  0  0  0  0  0  0  0  0  0
  152.8787  144.5307  158.3436 C   0  0  0  0  0  0  0  0  0  0  0  0
  151.7248  145.3183  158.5196 C   0  0  0  0  0  0  0  0  0  0  0  0
  150.9436  145.1709  159.6818 C   0  0  0  0  0  0  0  0  0  0  0  0
  151.3156  144.2361  160.6672 C   0  0  0  0  0  0  0  0  0  0  0  0
  152.1463  141.0999  158.9969 N   0  0  0  0  0  0  0  0  0  0  0  0
  152.0006  140.1393  158.0118 C   0  0  0  0  0  0  0  0  0  0  0  0
  152.7569  139.0484  158.2897 C   0  0  0  0  0  0  0  0  0  0  0  0
  152.8272  137.8918  157.3855 C   0  0  0  0  0  0  0  0  0  0  0  0
  153.5221  136.9013  157.6021 O   0  0  0  0  0  0  0  0  0  0  0  0
  152.0530  138.0308  156.2818 N   0  0  0  0  0  0  0  0  0  0  0  0
  151.2619  139.0963  155.9497 C   0  0  0  0  0  0  0  0  0  0  0  0
  150.6097  139.0772  154.9060 O   0  0  0  0  0  0  0  0  0  0  0  0
  151.2320  140.1608  156.8135 N   0  0  0  0  0  0  0  0  0  0  0  0
  150.4019  141.3284  156.5102 C   0  0  0  0  0  0  0  0  0  0  0  0
  152.0635  137.2619  155.6279 H   0  0  0  0  0  0  0  0  0  0  0  0
  154.1994  136.6826  163.8563 H   0  0  0  0  0  0  0  0  0  0  0  0
  152.6604  136.6199  162.9967 H   0  0  0  0  0  0  0  0  0  0  0  0
  153.5944  138.1267  163.0426 H   0  0  0  0  0  0  0  0  0  0  0  0
  153.8224  136.3353  159.8374 H   0  0  0  0  0  0  0  0  0  0  0  0
  152.6650  137.2455  160.7981 H   0  0  0  0  0  0  0  0  0  0  0  0
  154.8208  138.9270  161.0018 H   0  0  0  0  0  0  0  0  0  0  0  0
  155.2087  138.1911  159.4952 H   0  0  0  0  0  0  0  0  0  0  0  0
  154.5543  139.5642  161.8033 H   0  0  0  0  0  0  0  0  0  0  0  0
  154.0155  140.7156  163.0117 H   0  0  0  0  0  0  0  0  0  0  0  0
  155.3395  141.1480  161.9227 H   0  0  0  0  0  0  0  0  0  0  0  0
  152.0068  142.2311  162.1847 H   0  0  0  0  0  0  0  0  0  0  0  0
  153.6222  142.8665  162.1982 H   0  0  0  0  0  0  0  0  0  0  0  0
  154.1347  142.9920  159.1828 H   0  0  0  0  0  0  0  0  0  0  0  0
  153.4781  144.6426  157.4522 H   0  0  0  0  0  0  0  0  0  0  0  0
  151.4388  146.0346  157.7637 H   0  0  0  0  0  0  0  0  0  0  0  0
  150.0582  145.7741  159.8172 H   0  0  0  0  0  0  0  0  0  0  0  0
  150.7086  144.1271  161.5536 H   0  0  0  0  0  0  0  0  0  0  0  0
  150.6994  141.7745  155.5604 H   0  0  0  0  0  0  0  0  0  0  0  0
  150.4756  142.1053  157.2709 H   0  0  0  0  0  0  0  0  0  0  0  0
  149.3520  141.0423  156.4381 H   0  0  0  0  0  0  0  0  0  0  0  0
  1  2  1  0  0  0  0
  1 27  1  0  0  0  0
  1 28  1  0  0  0  0
  1 29  1  0  0  0  0
  2  3  1  0  0  0  0
  3  4  1  0  0  0  0
  3 30  1  0  0  0  0
  3 31  1  0  0  0  0
  4  5  1  0  0  0  0
  4 32  1  0  0  0  0
  4 33  1  0  0  0  0
  5 18  1  0  0  0  0
  5  6  1  0  0  0  0
  6  7  1  0  0  0  0
  6 16  2  0  0  0  0
  7  8  1  0  0  0  0
  7  9  1  0  0  0  0
  8 34  1  0  0  0  0
  8 35  1  0  0  0  0
  8 36  1  0  0  0  0
  9 10  1  0  0  0  0
  9 37  1  0  0  0  0
  9 38  1  0  0  0  0
 10 15  1  0  0  0  0
 10 11  2  0  0  0  0
 11 12  1  0  0  0  0
 11 39  1  0  0  0  0
 12 13  2  0  0  0  0
 12 40  1  0  0  0  0
 13 14  1  0  0  0  0
 13 41  1  0  0  0  0
 14 15  2  0  0  0  0
 14 42  1  0  0  0  0
 15 43  1  0  0  0  0
 16 17  1  0  0  0  0
 17 24  1  0  0  0  0
 17 18  2  0  0  0  0
 18 19  1  0  0  0  0
 19 20  2  0  0  0  0
 19 21  1  0  0  0  0
 21 26  1  0  0  0  0
 21 22  1  0  0  0  0
 22 23  2  0  0  0  0
 22 24  1  0  0  0  0
 24 25  1  0  0  0  0
 25 44  1  0  0  0  0
 25 45  1  0  0  0  0
 25 46  1  0  0  0  0
M  END
> <s_m_source_file>
AV-unprocessed.smi

> <i_m_source_file_index>
543

> <i_lp_mmshare_version>
43012

> <i_f3d_flags>
0

> <s_epik_input>
W0NIM11uMWMoPU8pW25IXWMoPU8pYyhjMTIpbihbQ0gyXVtDSDJdT1tDSDNdKWMobjIpTihbQ0gzXSlbQ0gyXWMzW2NIXVtjSF1bY0hdW2NIXVtjSF0z

> <s_epik_cmdline>
J2VwaWtfcHl0aG9uJywgJy1waCcsICc3LjAnLCAnLXRuJywgJzgnLCAnLW1hJywgJzIwMCcsICctbWV0YWxfYmluZGluZycsICctaW1hZScsICc8aW5maWxlLm1hZT4nLCAnLW9tYWUnLCAnPG91dGZpbGUubWFlPic=

> <r_lp_tautomer_probability>
1

> <r_epik_Ionization_Penalty>
3.94324e-05

> <r_epik_Ionization_Penalty_Charging>
1.70393e-05

> <r_epik_Ionization_Penalty_Neutral>
2.23931e-05

> <r_epik_State_Penalty>
-0

> <r_epik_Charging_Adjusted_Penalty>
1.70393e-05

> <i_epik_Tot_Q>
0

> <i_epik_Tot_abs_Q>
0

> <r_epik_Metal_State_Penalty>
0.0163311

> <b_epik_Metal_Only>
0

> <s_lp_Force_Field>
OPLS_2005

> <r_lp_Energy>
32.7304

> <b_lp_Chiralities_Consistent>
1

> <s_lp_Variant>
AV-unprocessed.smi:543-1

> <Gold.Version>
5.8.1

> <Gold.Id.Protein>
6NUR|6NUR_protein|mol2

> <Gold.PLP.Fitness>
48.8080

> <Gold.PLP.PLP>
-51.0456

> <Gold.PLP.part.hbond>
0.0000

> <Gold.PLP.part.metal>
0.0000

> <Gold.PLP.part.buried>
-6.3120

> <Gold.PLP.part.nonpolar>
-44.2110

> <Gold.PLP.part.repulsive>
0.1906

> <Gold.PLP.ligand.clash>
3.9861

> <Gold.PLP.ligand.torsion>
1.1752

> <Gold.PLP.Chemscore.Hbond>
0.0000

> <Gold.PLP.Chemscore.CHOScore>
0.0000

> <Gold.PLP.Chemscore.Metal>
0.0000

> <Gold.PLP.Chemscore.Internal.Correction>
4.0988

> <Gold.Rescore>
     Score         DG    S(hbond)    S(metal)    S(lipo)     H(rot)  DE(clash)    DE(int)     intcor
     13.83     -17.56       0.91        0.00     118.05       1.86       0.04       3.70       ----

> <Gold.Chemscore.Fitness>
13.8259

> <Gold.Chemscore.DG>
-17.5647

> <Gold.Chemscore.ZeroCoef>
-5.4800

> <Gold.Chemscore.Hbond>
0.9071

> <Gold.Chemscore.Metal>
0.0000

> <Gold.Chemscore.Lipo>
118.0474

> <Gold.Chemscore.Internal_Hbond>
0.0000

> <Gold.Chemscore.DEClash>
0.0408

> <Gold.Chemscore.DEInternal>
3.6980

> <Gold.Chemscore.Rot>
1.8580

> <Gold.Chemscore.Internal.Correction>
   9.000000E+99

> <Gold.Chemscore.Hbonds>
donor molecule, donor type, donor heavy atom, donor atom, acceptor molecule, acceptor atom, score
      P1  H  7989  7998       L1    23  0.01

> <Gold.Chemscore.Hbond.Weighted>
-3.0296

> <Gold.Chemscore.Metal.Weighted>
-0.0000

> <Gold.Chemscore.Lipo.Weighted>
-13.8115

> <Gold.Chemscore.Internal_Hbond.Weighted>
0.0000

> <Gold.Chemscore.DEClash.Weighted>
0.0408

> <Gold.Chemscore.DEInternal.Weighted>
3.6980

> <Gold.Chemscore.Rot.Weighted>
4.7564

> <Gold.Chemscore.Internal.Correction.Weighted>
   9.000000E+99

> <Gold.Protein.RotatedTorsions>
[ 6907 6896 6895 6894 ] final   97.82 input  -60.11 | X-H torsion
[ 7974 7965 7964 7962 ] final -148.97 input  175.53 | X-H torsion
[ 8008 7997 7996 7995 ] final  -99.75 input   59.86 | X-H torsion
[ 10167 10162 10161 10158 ] final  113.86 input  -65.29 | X-H torsion
[ 10718 10713 10712 10709 ] final -114.46 input   66.30 | X-H torsion
[ 10763 10752 10751 10750 ] final  139.88 input  -60.55 | X-H torsion
[ 11005 11000 10999 10996 ] final  -87.89 input  -57.11 | X-H torsion

> <Gold.Protein.ActiveResidues>
 VAL166  LYS551  ARG553  GLY616  TRP617  ASP618  TYR619  PRO620  LYS621  CYS622 
 ASP623  PHE694  ASN695  SER759  ASP760  ASP761  ALA762  ILE779  LEU786  VAL792 
 PHE793  MET794  SER795  GLU796  ALA797  LYS798  CYS799  TRP800  GLU811  SER814 

> <Gold.Protein.RotatedAtoms>
  152.5418  134.0675  159.8178 H   0  0  0  0  0  0  0  0  0  0  0  0  # atno 6907 bound_to 6896
  151.0794  133.5395  159.2629 H   0  0  0  0  0  0  0  0  0  0  0  0  # atno 6908 bound_to 6896
  151.2228  135.0533  159.9010 H   0  0  0  0  0  0  0  0  0  0  0  0  # atno 6909 bound_to 6896
  144.7996  140.5126  143.5716 H   0  0  0  0  0  0  0  0  0  0  0  0  # atno 7974 bound_to 7965
  154.8191  140.0445  157.1398 H   0  0  0  0  0  0  0  0  0  0  0  0  # atno 8008 bound_to 7997
  154.9280  140.3036  155.5162 H   0  0  0  0  0  0  0  0  0  0  0  0  # atno 8009 bound_to 7997
  156.2978  140.2328  156.4337 H   0  0  0  0  0  0  0  0  0  0  0  0  # atno 8010 bound_to 7997
  139.6431  144.7125  151.2197 H   0  0  0  0  0  0  0  0  0  0  0  0  # atno 10167 bound_to 10162
  156.0832  130.6028  150.8778 H   0  0  0  0  0  0  0  0  0  0  0  0  # atno 10718 bound_to 10713
  153.9135  135.3008  155.3448 H   0  0  0  0  0  0  0  0  0  0  0  0  # atno 10763 bound_to 10752
  154.7611  135.4933  153.9469 H   0  0  0  0  0  0  0  0  0  0  0  0  # atno 10764 bound_to 10752
  153.1180  135.6775  153.9487 H   0  0  0  0  0  0  0  0  0  0  0  0  # atno 10765 bound_to 10752
  141.1610  133.7537  156.9372 H   0  0  0  0  0  0  0  0  0  0  0  0  # atno 11005 bound_to 11000
  145.5587  139.1478  143.3354 LP  0  0  0  0  0  0  0  0  0  0  0  0  # atno 17320 bound_to 7965
  146.2274  140.5723  142.8990 LP  0  0  0  0  0  0  0  0  0  0  0  0  # atno 17321 bound_to 7965
  140.7501  143.6278  150.8452 LP  0  0  0  0  0  0  0  0  0  0  0  0  # atno 17342 bound_to 10162
  139.9917  143.5839  152.2907 LP  0  0  0  0  0  0  0  0  0  0  0  0  # atno 17343 bound_to 10162
  157.5956  131.0943  150.9046 LP  0  0  0  0  0  0  0  0  0  0  0  0  # atno 17370 bound_to 10713
  156.9213  130.5316  149.5279 LP  0  0  0  0  0  0  0  0  0  0  0  0  # atno 17371 bound_to 10713
  140.1346  134.9333  157.2384 LP  0  0  0  0  0  0  0  0  0  0  0  0  # atno 17394 bound_to 11000
  140.2911  134.3240  155.7315 LP  0  0  0  0  0  0  0  0  0  0  0  0  # atno 17395 bound_to 11000

$$$$
