AV-unprocessed.smi:3244|AV-procd|sdf|12401|dock3
  -GOLD-   2272018273D 1   1.00000     0.00000
 Structure written by MMmdl.
 40 41  0  0  0  0  0  0  0  0  1 V2000
  153.8709  141.1092  160.9344 C   0  0  0  0  0  0  0  0  0  0  0  0
  153.7745  142.3202  159.9923 C   0  0  0  0  0  0  0  0  0  0  0  0
  152.5908  142.2549  159.1174 N   0  0  0  0  0  0  0  0  0  0  0  0
  152.4889  141.2807  158.1759 C   0  0  0  0  0  0  0  0  0  0  0  0
  153.2855  140.3432  158.1122 O   0  0  0  0  0  0  0  0  0  0  0  0
  151.3527  141.3150  157.1405 C   0  0  0  0  0  0  0  0  0  0  0  0
  151.5998  140.4321  155.9884 N   0  0  0  0  0  0  0  0  0  0  0  0
  150.5368  140.4463  154.9873 C   0  0  1  0  0  0  0  0  0  0  0  0
  150.7839  139.2688  154.0292 C   0  0  0  0  0  0  0  0  0  0  0  0
  149.1312  140.4150  155.6413 C   0  0  0  0  0  0  0  0  0  0  0  0
  148.0986  141.0737  154.8567 N   0  0  0  0  0  0  0  0  0  0  0  0
  147.8319  140.9441  153.5094 C   0  0  0  0  0  0  0  0  0  0  0  0
  146.7742  141.7587  153.2231 C   0  0  0  0  0  0  0  0  0  0  0  0
  146.4604  142.3574  154.4751 C   0  0  0  0  0  0  0  0  0  0  0  0
  147.2571  141.9484  155.4481 N   0  0  0  0  0  0  0  0  0  0  0  0
  151.7089  143.3908  159.2014 C   0  0  0  0  0  0  0  0  0  0  0  0
  151.4758  144.2751  157.9888 C   0  0  0  0  0  0  0  0  0  0  0  0
  152.2745  144.7980  159.1504 C   0  0  0  0  0  0  0  0  0  0  0  0
  154.7867  141.1518  161.5239 H   0  0  0  0  0  0  0  0  0  0  0  0
  153.8815  140.1746  160.3729 H   0  0  0  0  0  0  0  0  0  0  0  0
  153.0355  141.0726  161.6334 H   0  0  0  0  0  0  0  0  0  0  0  0
  153.7563  143.2428  160.5749 H   0  0  0  0  0  0  0  0  0  0  0  0
  154.6937  142.3700  159.4104 H   0  0  0  0  0  0  0  0  0  0  0  0
  150.4182  141.0521  157.6393 H   0  0  0  0  0  0  0  0  0  0  0  0
  151.2003  142.3321  156.7844 H   0  0  0  0  0  0  0  0  0  0  0  0
  152.4836  140.6458  155.5492 H   0  0  0  0  0  0  0  0  0  0  0  0
  150.6298  141.3622  154.4016 H   0  0  0  0  0  0  0  0  0  0  0  0
  150.0085  139.2197  153.2644 H   0  0  0  0  0  0  0  0  0  0  0  0
  150.7957  138.3122  154.5528 H   0  0  0  0  0  0  0  0  0  0  0  0
  151.7412  139.3735  153.5172 H   0  0  0  0  0  0  0  0  0  0  0  0
  148.8106  139.3954  155.8573 H   0  0  0  0  0  0  0  0  0  0  0  0
  149.1790  140.9181  156.6078 H   0  0  0  0  0  0  0  0  0  0  0  0
  148.4091  140.2878  152.8747 H   0  0  0  0  0  0  0  0  0  0  0  0
  146.2979  141.9055  152.2651 H   0  0  0  0  0  0  0  0  0  0  0  0
  145.6850  143.0732  154.7044 H   0  0  0  0  0  0  0  0  0  0  0  0
  150.8408  143.2496  159.8430 H   0  0  0  0  0  0  0  0  0  0  0  0
  152.0293  144.0748  157.0737 H   0  0  0  0  0  0  0  0  0  0  0  0
  150.4741  144.6758  157.8470 H   0  0  0  0  0  0  0  0  0  0  0  0
  151.8089  145.5473  159.7875 H   0  0  0  0  0  0  0  0  0  0  0  0
  153.3435  144.9228  158.9896 H   0  0  0  0  0  0  0  0  0  0  0  0
  1  2  1  0  0  0  0
  1 19  1  0  0  0  0
  1 20  1  0  0  0  0
  1 21  1  0  0  0  0
  2  3  1  0  0  0  0
  2 22  1  0  0  0  0
  2 23  1  0  0  0  0
  3  4  1  0  0  0  0
  3 16  1  0  0  0  0
  4  5  2  0  0  0  0
  4  6  1  0  0  0  0
  6  7  1  0  0  0  0
  6 24  1  0  0  0  0
  6 25  1  0  0  0  0
  7  8  1  0  0  0  0
  7 26  1  0  0  0  0
  8  9  1  0  0  0  0
  8 10  1  0  0  0  0
  8 27  1  0  0  0  0
  9 28  1  0  0  0  0
  9 29  1  0  0  0  0
  9 30  1  0  0  0  0
 10 11  1  0  0  0  0
 10 31  1  0  0  0  0
 10 32  1  0  0  0  0
 11 15  1  0  0  0  0
 11 12  1  0  0  0  0
 12 13  2  0  0  0  0
 12 33  1  0  0  0  0
 13 14  1  0  0  0  0
 13 34  1  0  0  0  0
 14 15  2  0  0  0  0
 14 35  1  0  0  0  0
 16 18  1  0  0  0  0
 16 17  1  0  0  0  0
 16 36  1  0  0  0  0
 17 18  1  0  0  0  0
 17 37  1  0  0  0  0
 17 38  1  0  0  0  0
 18 39  1  0  0  0  0
 18 40  1  0  0  0  0
M  END
> <s_m_source_file>
AV-unprocessed.smi

> <i_m_source_file_index>
3244

> <i_lp_mmshare_version>
43012

> <i_f3d_flags>
0

> <s_epik_input>
W0NIMl0xW0NIMl1bQ0hdMU4oW0NIMl1bQ0gzXSlDKD1PKVtDSDJdW05IXVtDQEhdKFtDSDNdKVtDSDJdbjJbY0hdW2NIXVtjSF1uMg==

> <s_epik_cmdline>
J2VwaWtfcHl0aG9uJywgJy1waCcsICc3LjAnLCAnLXRuJywgJzgnLCAnLW1hJywgJzIwMCcsICctbWV0YWxfYmluZGluZycsICctaW1hZScsICc8aW5maWxlLm1hZT4nLCAnLW9tYWUnLCAnPG91dGZpbGUubWFlPic=

> <r_lp_tautomer_probability>
1

> <r_epik_Ionization_Penalty>
1.02506

> <r_epik_Ionization_Penalty_Charging>
0

> <r_epik_Ionization_Penalty_Neutral>
1.02506

> <r_epik_State_Penalty>
1.07563

> <r_epik_Charging_Adjusted_Penalty>
1.07563

> <i_epik_Tot_Q>
0

> <i_epik_Tot_abs_Q>
0

> <r_epik_Metal_State_Penalty>
1.07558

> <b_epik_Metal_Only>
0

> <s_lp_Force_Field>
OPLS_2005

> <r_lp_Energy>
38.4793

> <b_lp_Chiralities_Consistent>
1

> <s_lp_Variant>
AV-unprocessed.smi:3244-4

> <Gold.Version>
5.8.1

> <Gold.Id.Protein>
6NUR|6NUR_protein|mol2

> <Gold.PLP.Fitness>
46.8524

> <Gold.PLP.PLP>
-42.5019

> <Gold.PLP.part.hbond>
-1.0000

> <Gold.PLP.part.metal>
0.0000

> <Gold.PLP.part.buried>
-3.9532

> <Gold.PLP.part.nonpolar>
-37.2948

> <Gold.PLP.part.repulsive>
0.5336

> <Gold.PLP.ligand.clash>
0.0000

> <Gold.PLP.ligand.torsion>
0.9526

> <Gold.PLP.Chemscore.Hbond>
0.9440

> <Gold.PLP.Chemscore.CHOScore>
1.0000

> <Gold.PLP.Chemscore.Metal>
0.0000

> <Gold.Chemscore.Hbonds>
donor molecule, donor type, donor heavy atom, donor atom, acceptor molecule, acceptor atom, score
      P1  H  7997  8009       L1     5  0.86
      L1  C    12    33       P1  7957  1.00

> <Gold.PLP.Chemscore.Internal.Correction>
0.4238

> <Gold.Rescore>
     Score         DG    S(hbond)    S(metal)    S(lipo)     H(rot)  DE(clash)    DE(int)     intcor
     13.83     -15.44       0.90        0.00     102.23       1.95       0.08       1.53       ----

> <Gold.Chemscore.Fitness>
13.8343

> <Gold.Chemscore.DG>
-15.4426

> <Gold.Chemscore.ZeroCoef>
-5.4800

> <Gold.Chemscore.Hbond>
0.9001

> <Gold.Chemscore.Metal>
0.0000

> <Gold.Chemscore.Lipo>
102.2320

> <Gold.Chemscore.Internal_Hbond>
0.0000

> <Gold.Chemscore.DEClash>
0.0784

> <Gold.Chemscore.DEInternal>
1.5299

> <Gold.Chemscore.Rot>
1.9550

> <Gold.Chemscore.Internal.Correction>
   9.000000E+99

> <Gold.Chemscore.Hbonds>
donor molecule, donor type, donor heavy atom, donor atom, acceptor molecule, acceptor atom, score
      P1  H  7997  8009       L1     5  0.85

> <Gold.Chemscore.Hbond.Weighted>
-3.0062

> <Gold.Chemscore.Metal.Weighted>
-0.0000

> <Gold.Chemscore.Lipo.Weighted>
-11.9611

> <Gold.Chemscore.Internal_Hbond.Weighted>
0.0000

> <Gold.Chemscore.DEClash.Weighted>
0.0784

> <Gold.Chemscore.DEInternal.Weighted>
1.5299

> <Gold.Chemscore.Rot.Weighted>
5.0047

> <Gold.Chemscore.Internal.Correction.Weighted>
   9.000000E+99

> <Gold.Protein.RotatedTorsions>
[ 6907 6896 6895 6894 ] final -165.61 input  -60.11 | X-H torsion
[ 7974 7965 7964 7962 ] final   67.38 input  175.53 | X-H torsion
[ 8008 7997 7996 7995 ] final  158.32 input   59.86 | X-H torsion
[ 10167 10162 10161 10158 ] final   14.13 input  -65.29 | X-H torsion
[ 10718 10713 10712 10709 ] final -169.03 input   66.30 | X-H torsion
[ 10763 10752 10751 10750 ] final -137.95 input  -60.55 | X-H torsion
[ 11005 11000 10999 10996 ] final  157.20 input  -57.11 | X-H torsion

> <Gold.Protein.ActiveResidues>
 VAL166  LYS551  ARG553  GLY616  TRP617  ASP618  TYR619  PRO620  LYS621  CYS622 
 ASP623  PHE694  ASN695  SER759  ASP760  ASP761  ALA762  ILE779  LEU786  VAL792 
 PHE793  MET794  SER795  GLU796  ALA797  LYS798  CYS799  TRP800  GLU811  SER814 

> <Gold.Protein.RotatedAtoms>
  151.4305  133.3671  159.2767 H   0  0  0  0  0  0  0  0  0  0  0  0  # atno 6907 bound_to 6896
  150.9228  134.8647  159.7511 H   0  0  0  0  0  0  0  0  0  0  0  0  # atno 6908 bound_to 6896
  152.4990  134.4244  159.9543 H   0  0  0  0  0  0  0  0  0  0  0  0  # atno 6909 bound_to 6896
  145.8153  139.3054  143.1075 H   0  0  0  0  0  0  0  0  0  0  0  0  # atno 7974 bound_to 7965
  156.2310  140.1861  156.7242 H   0  0  0  0  0  0  0  0  0  0  0  0  # atno 8008 bound_to 7997
  154.6022  140.0634  156.9412 H   0  0  0  0  0  0  0  0  0  0  0  0  # atno 8009 bound_to 7997
  155.2155  140.3303  155.4325 H   0  0  0  0  0  0  0  0  0  0  0  0  # atno 8010 bound_to 7997
  140.5956  143.8707  150.6915 H   0  0  0  0  0  0  0  0  0  0  0  0  # atno 10167 bound_to 10162
  156.7056  130.9214  151.3084 H   0  0  0  0  0  0  0  0  0  0  0  0  # atno 10718 bound_to 10713
  154.8649  135.3627  154.5306 H   0  0  0  0  0  0  0  0  0  0  0  0  # atno 10763 bound_to 10752
  153.5932  135.7015  153.5419 H   0  0  0  0  0  0  0  0  0  0  0  0  # atno 10764 bound_to 10752
  153.3355  135.4112  155.1492 H   0  0  0  0  0  0  0  0  0  0  0  0  # atno 10765 bound_to 10752
  140.1747  134.8518  157.2732 H   0  0  0  0  0  0  0  0  0  0  0  0  # atno 11005 bound_to 11000
  145.9734  140.8742  143.0151 LP  0  0  0  0  0  0  0  0  0  0  0  0  # atno 17320 bound_to 7965
  144.6753  140.1977  143.7390 LP  0  0  0  0  0  0  0  0  0  0  0  0  # atno 17321 bound_to 7965
  140.2241  143.3786  152.1619 LP  0  0  0  0  0  0  0  0  0  0  0  0  # atno 17342 bound_to 10162
  139.5256  144.7098  151.5242 LP  0  0  0  0  0  0  0  0  0  0  0  0  # atno 17343 bound_to 10162
  157.6956  130.9278  150.0635 LP  0  0  0  0  0  0  0  0  0  0  0  0  # atno 17370 bound_to 10713
  156.1697  130.3646  149.9182 LP  0  0  0  0  0  0  0  0  0  0  0  0  # atno 17371 bound_to 10713
  140.2336  134.3879  155.7511 LP  0  0  0  0  0  0  0  0  0  0  0  0  # atno 17394 bound_to 11000
  141.2219  133.7228  156.8680 LP  0  0  0  0  0  0  0  0  0  0  0  0  # atno 17395 bound_to 11000

$$$$
