AV-unprocessed.smi:72|AV-procd|sdf|735|dock5
  -GOLD-   2262017 63D 1   1.00000     0.00000
 Structure written by MMmdl.
 28 29  0  0  0  0  0  0  0  0  2 V2000
  153.2078  135.3359  158.3201 N   0  0  0  0  0  0  0  0  0  0  0  0
  152.7401  136.2855  157.6350 C   0  0  0  0  0  0  0  0  0  0  0  0
  151.3858  136.7418  157.8616 N   0  0  0  0  0  0  0  0  0  0  0  0
  150.9534  137.7321  157.1429 C   0  0  0  0  0  0  0  0  0  0  0  0
  151.7941  138.3823  156.1472 N   0  0  0  0  0  0  0  0  0  0  0  0
  151.2698  139.5319  155.3100 C   0  0  2  0  0  0  0  0  0  0  0  0
  150.5677  140.4119  156.1319 O   0  0  0  0  0  0  0  0  0  0  0  0
  149.5499  141.0334  155.3627 C   0  0  2  0  0  0  0  0  0  0  0  0
  148.4716  141.6154  156.2898 C   0  0  0  0  0  0  0  0  0  0  0  0
  149.0261  142.6196  157.1128 O   0  0  0  0  0  0  0  0  0  0  0  0
  149.0465  139.8806  154.4876 C   0  0  1  0  0  0  0  0  0  0  0  0
  148.4686  140.3784  153.2977 O   0  0  0  0  0  0  0  0  0  0  0  0
  150.3127  139.0871  154.1800 C   0  0  2  0  0  0  0  0  0  0  0  0
  150.0317  137.6990  154.1561 O   0  0  0  0  0  0  0  0  0  0  0  0
  153.1085  137.8946  155.9240 C   0  0  0  0  0  0  0  0  0  0  0  0
  153.7843  138.4268  155.0431 O   0  0  0  0  0  0  0  0  0  0  0  0
  153.5559  136.8540  156.6811 N   0  5  0  0  0  0  0  0  0  0  0  0
  152.1428  140.0677  154.9341 H   0  0  0  0  0  0  0  0  0  0  0  0
  149.9977  141.8088  154.7370 H   0  0  0  0  0  0  0  0  0  0  0  0
  148.3288  139.2725  155.0411 H   0  0  0  0  0  0  0  0  0  0  0  0
  150.7601  139.3860  153.2308 H   0  0  0  0  0  0  0  0  0  0  0  0
  152.5458  134.9788  158.9934 H   0  0  0  0  0  0  0  0  0  0  0  0
  149.9429  138.1324  157.2327 H   0  0  0  0  0  0  0  0  0  0  0  0
  147.6812  142.0794  155.6992 H   0  0  0  0  0  0  0  0  0  0  0  0
  148.0079  140.8372  156.8969 H   0  0  0  0  0  0  0  0  0  0  0  0
  148.7846  143.4630  156.7615 H   0  0  0  0  0  0  0  0  0  0  0  0
  148.6203  139.7486  152.6095 H   0  0  0  0  0  0  0  0  0  0  0  0
  149.8107  137.4559  153.2695 H   0  0  0  0  0  0  0  0  0  0  0  0
  1  2  2  0  0  0  0
  1 22  1  0  0  0  0
  2 17  1  0  0  0  0
  2  3  1  0  0  0  0
  3  4  2  0  0  0  0
  4  5  1  0  0  0  0
  4 23  1  0  0  0  0
  5  6  1  0  0  0  0
  5 15  1  0  0  0  0
  6 18  1  0  0  0  0
  6 13  1  0  0  0  0
  6  7  1  0  0  0  0
  7  8  1  0  0  0  0
  8 19  1  0  0  0  0
  8  9  1  0  0  0  0
  8 11  1  0  0  0  0
  9 10  1  0  0  0  0
  9 24  1  0  0  0  0
  9 25  1  0  0  0  0
 10 26  1  0  0  0  0
 11 20  1  0  0  0  0
 11 12  1  0  0  0  0
 11 13  1  0  0  0  0
 12 27  1  0  0  0  0
 13 21  1  0  0  0  0
 13 14  1  0  0  0  0
 14 28  1  0  0  0  0
 15 16  2  0  0  0  0
 15 17  1  0  0  0  0
M  CHG  1  17  -1
M  END
> <s_m_source_file>
AV-unprocessed.smi

> <i_m_source_file_index>
72

> <i_lp_mmshare_version>
43012

> <i_f3d_flags>
0

> <s_epik_input>
W05IMl1jMW5bY0hdbihjKD1PKW4xKVtDQEBIXTJPW0NASF0oW0NIMl1bT0hdKVtDQEBIXShbT0hdKVtDQEhdMltPSF0=

> <s_epik_cmdline>
J2VwaWtfcHl0aG9uJywgJy1waCcsICc3LjAnLCAnLXRuJywgJzgnLCAnLW1hJywgJzIwMCcsICctbWV0YWxfYmluZGluZycsICctaW1hZScsICc8aW5maWxlLm1hZT4nLCAnLW9tYWUnLCAnPG91dGZpbGUubWFlPic=

> <r_lp_tautomer_probability>
7.17554e-07

> <r_epik_Ionization_Penalty>
12.8705

> <r_epik_Ionization_Penalty_Charging>
5.64144

> <r_epik_Ionization_Penalty_Neutral>
7.22905

> <r_epik_State_Penalty>
3.30104

> <r_epik_Charging_Adjusted_Penalty>
8.94249

> <i_epik_Tot_Q>
-1

> <i_epik_Tot_abs_Q>
1

> <r_epik_Metal_State_Penalty>
0.529074

> <b_epik_Metal_Only>
1

> <s_epik_Chemistry_Notes>
This compound contains an acetal/aminal-like group ( X-CH(R)-Y where X, Y are N, S, or O) that may be acid/base labile, releasing an aldehyde.

> <s_lp_Force_Field>
OPLS_2005

> <r_lp_Energy>
36.8699

> <b_lp_Chiralities_Consistent>
1

> <s_lp_Variant>
AV-unprocessed.smi:72-73

> <Gold.Version>
5.8.1

> <Gold.Id.Protein>
6NUR|6NUR_protein|mol2

> <Gold.PLP.Fitness>
36.6526

> <Gold.PLP.PLP>
-22.5553

> <Gold.PLP.part.hbond>
-5.8695

> <Gold.PLP.part.metal>
0.0000

> <Gold.PLP.part.buried>
-2.9884

> <Gold.PLP.part.nonpolar>
-14.4450

> <Gold.PLP.part.repulsive>
0.0153

> <Gold.PLP.ligand.clash>
0.0000

> <Gold.PLP.ligand.torsion>
0.4599

> <Gold.PLP.Chemscore.Hbond>
4.8960

> <Gold.PLP.Chemscore.CHOScore>
0.0000

> <Gold.PLP.Chemscore.Metal>
0.0000

> <Gold.Chemscore.Hbonds>
donor molecule, donor type, donor heavy atom, donor atom, acceptor molecule, acceptor atom, score
      L1  H    10    26       P1  8028  1.00
      L1  H    12    27       P1  7957  0.51
      L1  H    14    28       P1  7948  1.00
      P1  H  7997  8010       L1    16  0.72
      P1  H 10752 10763       L1    17  1.63

> <Gold.PLP.Chemscore.Internal.Correction>
0.3291

> <Gold.Rescore>
     Score         DG    S(hbond)    S(metal)    S(lipo)     H(rot)  DE(clash)    DE(int)     intcor
      6.15      -7.29       2.67        0.00      27.57       4.04       0.69       0.45       ----

> <Gold.Chemscore.Fitness>
6.1476

> <Gold.Chemscore.DG>
-7.2853

> <Gold.Chemscore.ZeroCoef>
-5.4800

> <Gold.Chemscore.Hbond>
2.6716

> <Gold.Chemscore.Metal>
0.0000

> <Gold.Chemscore.Lipo>
27.5671

> <Gold.Chemscore.Internal_Hbond>
0.0000

> <Gold.Chemscore.DEClash>
0.6883

> <Gold.Chemscore.DEInternal>
0.4494

> <Gold.Chemscore.Rot>
4.0403

> <Gold.Chemscore.Internal.Correction>
   9.000000E+99

> <Gold.Chemscore.Hbonds>
donor molecule, donor type, donor heavy atom, donor atom, acceptor molecule, acceptor atom, score
      L1  H    10    26       P1  8028  0.64
      L1  H    12    27       P1  7957  0.52
      L1  H    14    28       P1  7948  0.51
      P1  H  7997  8010       L1    16  0.45
      P1  H 10752 10763       L1    17  0.09

> <Gold.Chemscore.Hbond.Weighted>
-8.9230

> <Gold.Chemscore.Metal.Weighted>
-0.0000

> <Gold.Chemscore.Lipo.Weighted>
-3.2254

> <Gold.Chemscore.Internal_Hbond.Weighted>
0.0000

> <Gold.Chemscore.DEClash.Weighted>
0.6883

> <Gold.Chemscore.DEInternal.Weighted>
0.4494

> <Gold.Chemscore.Rot.Weighted>
10.3431

> <Gold.Chemscore.Internal.Correction.Weighted>
   9.000000E+99

> <Gold.Protein.RotatedTorsions>
[ 6907 6896 6895 6894 ] final  135.76 input  -60.11 | X-H torsion
[ 7974 7965 7964 7962 ] final  118.43 input  175.53 | X-H torsion
[ 8008 7997 7996 7995 ] final  111.20 input   59.86 | X-H torsion
[ 10167 10162 10161 10158 ] final   75.75 input  -65.29 | X-H torsion
[ 10718 10713 10712 10709 ] final -141.49 input   66.30 | X-H torsion
[ 10763 10752 10751 10750 ] final  128.67 input  -60.55 | X-H torsion
[ 11005 11000 10999 10996 ] final    7.32 input  -57.11 | X-H torsion

> <Gold.Protein.ActiveResidues>
 VAL166  LYS551  ARG553  GLY616  TRP617  ASP618  TYR619  PRO620  LYS621  CYS622 
 ASP623  PHE694  ASN695  SER759  ASP760  ASP761  ALA762  ILE779  LEU786  VAL792 
 PHE793  MET794  SER795  GLU796  ALA797  LYS798  CYS799  TRP800  GLU811  SER814 

> <Gold.Protein.RotatedAtoms>
  152.2968  133.5616  159.5592 H   0  0  0  0  0  0  0  0  0  0  0  0  # atno 6907 bound_to 6896
  150.7259  134.0349  159.3755 H   0  0  0  0  0  0  0  0  0  0  0  0  # atno 6908 bound_to 6896
  151.8251  135.0639  160.0481 H   0  0  0  0  0  0  0  0  0  0  0  0  # atno 6909 bound_to 6896
  145.1553  139.3186  143.4545 H   0  0  0  0  0  0  0  0  0  0  0  0  # atno 7974 bound_to 7965
  156.2107  140.3024  155.9727 H   0  0  0  0  0  0  0  0  0  0  0  0  # atno 8008 bound_to 7997
  155.2730  140.0434  157.3026 H   0  0  0  0  0  0  0  0  0  0  0  0  # atno 8009 bound_to 7997
  154.5696  140.2344  155.8220 H   0  0  0  0  0  0  0  0  0  0  0  0  # atno 8010 bound_to 7997
  139.9996  144.5696  150.7749 H   0  0  0  0  0  0  0  0  0  0  0  0  # atno 10167 bound_to 10162
  156.3346  130.7604  151.1729 H   0  0  0  0  0  0  0  0  0  0  0  0  # atno 10718 bound_to 10713
  153.7293  135.3241  155.3282 H   0  0  0  0  0  0  0  0  0  0  0  0  # atno 10763 bound_to 10752
  154.8331  135.4518  154.1138 H   0  0  0  0  0  0  0  0  0  0  0  0  # atno 10764 bound_to 10752
  153.2281  135.6956  153.8002 H   0  0  0  0  0  0  0  0  0  0  0  0  # atno 10765 bound_to 10752
  140.5495  134.0296  155.7932 H   0  0  0  0  0  0  0  0  0  0  0  0  # atno 11005 bound_to 11000
  146.3489  140.1642  142.8590 LP  0  0  0  0  0  0  0  0  0  0  0  0  # atno 17320 bound_to 7965
  145.0388  140.8929  143.5065 LP  0  0  0  0  0  0  0  0  0  0  0  0  # atno 17321 bound_to 7965
  140.7424  143.2831  151.3540 LP  0  0  0  0  0  0  0  0  0  0  0  0  # atno 17342 bound_to 10162
  139.6281  144.0774  152.2452 LP  0  0  0  0  0  0  0  0  0  0  0  0  # atno 17343 bound_to 10162
  157.7436  131.0471  150.4930 LP  0  0  0  0  0  0  0  0  0  0  0  0  # atno 17370 bound_to 10713
  156.5101  130.4137  149.6306 LP  0  0  0  0  0  0  0  0  0  0  0  0  # atno 17371 bound_to 10713
  141.1180  133.9509  157.2786 LP  0  0  0  0  0  0  0  0  0  0  0  0  # atno 17394 bound_to 11000
  139.9462  135.0183  156.8859 LP  0  0  0  0  0  0  0  0  0  0  0  0  # atno 17395 bound_to 11000

$$$$
