AV-unprocessed.smi:1095|AV-procd|sdf|4748|dock7
  -GOLD-   22720 3283D 1   1.00000     0.00000
 Structure written by MMmdl.
 50 51  0  0  0  0  0  0  0  0  1 V2000
  151.0593  145.2180  159.8335 C   0  0  0  0  0  0  0  0  0  0  0  0
  152.1681  145.1049  158.7783 C   0  0  0  0  0  0  0  0  0  0  0  0
  152.2969  143.7034  158.1474 C   0  0  2  0  0  0  0  0  0  0  0  0
  151.0843  143.3385  157.2642 C   0  0  0  0  0  0  0  0  0  0  0  0
  151.2117  141.9243  156.6704 C   0  0  0  0  0  0  0  0  0  0  0  0
  151.4228  140.8436  157.7492 C   0  0  2  0  0  0  0  0  0  0  0  0
  150.1293  140.5573  158.5476 C   0  0  0  0  0  0  0  0  0  0  0  0
  149.0111  140.2095  157.6773 N   0  0  0  0  0  0  0  0  0  0  0  0
  147.7723  140.7160  157.7733 C   0  0  0  0  0  0  0  0  0  0  0  0
  147.4330  141.5164  158.6452 O   0  0  0  0  0  0  0  0  0  0  0  0
  146.7639  140.2578  156.7180 C   0  0  0  0  0  0  0  0  0  0  0  0
  146.6078  141.3214  155.6594 C   0  0  0  0  0  0  0  0  0  0  0  0
  147.5777  141.7514  154.7052 C   0  0  0  0  0  0  0  0  0  0  0  0
  148.9880  141.2701  154.5185 C   0  0  0  0  0  0  0  0  0  0  0  0
  147.1193  142.7074  153.9150 N   0  0  0  0  0  0  0  0  0  0  0  0
  145.8554  142.9223  154.3309 N   0  0  0  0  0  0  0  0  0  0  0  0
  145.0505  143.9278  153.6647 C   0  0  0  0  0  0  0  0  0  0  0  0
  145.5160  142.1034  155.3906 C   0  0  0  0  0  0  0  0  0  0  0  0
  144.1707  142.1556  156.0410 C   0  0  0  0  0  0  0  0  0  0  0  0
  152.6298  141.2207  158.6361 C   0  0  0  0  0  0  0  0  0  0  0  0
  152.5001  142.6310  159.2365 C   0  0  0  0  0  0  0  0  0  0  0  0
  150.9681  146.2455  160.1862 H   0  0  0  0  0  0  0  0  0  0  0  0
  151.2633  144.5934  160.7029 H   0  0  0  0  0  0  0  0  0  0  0  0
  150.0931  144.9223  159.4239 H   0  0  0  0  0  0  0  0  0  0  0  0
  151.9581  145.8307  157.9917 H   0  0  0  0  0  0  0  0  0  0  0  0
  153.1211  145.4043  159.2162 H   0  0  0  0  0  0  0  0  0  0  0  0
  153.1872  143.7016  157.5165 H   0  0  0  0  0  0  0  0  0  0  0  0
  150.1648  143.4146  157.8454 H   0  0  0  0  0  0  0  0  0  0  0  0
  150.9851  144.0510  156.4456 H   0  0  0  0  0  0  0  0  0  0  0  0
  150.3316  141.6912  156.0704 H   0  0  0  0  0  0  0  0  0  0  0  0
  152.0570  141.9076  155.9811 H   0  0  0  0  0  0  0  0  0  0  0  0
  151.6799  139.9209  157.2268 H   0  0  0  0  0  0  0  0  0  0  0  0
  150.2781  139.7329  159.2441 H   0  0  0  0  0  0  0  0  0  0  0  0
  149.8654  141.4214  159.1597 H   0  0  0  0  0  0  0  0  0  0  0  0
  149.2001  139.5556  156.9316 H   0  0  0  0  0  0  0  0  0  0  0  0
  147.0862  139.3127  156.2789 H   0  0  0  0  0  0  0  0  0  0  0  0
  145.8185  140.0453  157.2171 H   0  0  0  0  0  0  0  0  0  0  0  0
  149.7003  141.9949  154.9129 H   0  0  0  0  0  0  0  0  0  0  0  0
  149.2178  141.1168  153.4639 H   0  0  0  0  0  0  0  0  0  0  0  0
  149.1591  140.3249  155.0330 H   0  0  0  0  0  0  0  0  0  0  0  0
  144.0725  143.5136  153.4190 H   0  0  0  0  0  0  0  0  0  0  0  0
  145.5322  144.2580  152.7434 H   0  0  0  0  0  0  0  0  0  0  0  0
  144.9197  144.7864  154.3234 H   0  0  0  0  0  0  0  0  0  0  0  0
  144.1909  141.6923  157.0273 H   0  0  0  0  0  0  0  0  0  0  0  0
  143.4302  141.6313  155.4369 H   0  0  0  0  0  0  0  0  0  0  0  0
  143.8361  143.1851  156.1698 H   0  0  0  0  0  0  0  0  0  0  0  0
  152.7699  140.4908  159.4325 H   0  0  0  0  0  0  0  0  0  0  0  0
  153.5382  141.1781  158.0339 H   0  0  0  0  0  0  0  0  0  0  0  0
  153.3967  142.8564  159.8149 H   0  0  0  0  0  0  0  0  0  0  0  0
  151.6704  142.6570  159.9436 H   0  0  0  0  0  0  0  0  0  0  0  0
  1  2  1  0  0  0  0
  1 22  1  0  0  0  0
  1 23  1  0  0  0  0
  1 24  1  0  0  0  0
  2  3  1  0  0  0  0
  2 25  1  0  0  0  0
  2 26  1  0  0  0  0
  3 21  1  0  0  0  0
  3  4  1  0  0  0  0
  3 27  1  0  0  0  0
  4  5  1  0  0  0  0
  4 28  1  0  0  0  0
  4 29  1  0  0  0  0
  5  6  1  0  0  0  0
  5 30  1  0  0  0  0
  5 31  1  0  0  0  0
  6  7  1  0  0  0  0
  6 20  1  0  0  0  0
  6 32  1  0  0  0  0
  7  8  1  0  0  0  0
  7 33  1  0  0  0  0
  7 34  1  0  0  0  0
  8  9  1  0  0  0  0
  8 35  1  0  0  0  0
  9 10  2  0  0  0  0
  9 11  1  0  0  0  0
 11 12  1  0  0  0  0
 11 36  1  0  0  0  0
 11 37  1  0  0  0  0
 12 18  2  0  0  0  0
 12 13  1  0  0  0  0
 13 14  1  0  0  0  0
 13 15  2  0  0  0  0
 14 38  1  0  0  0  0
 14 39  1  0  0  0  0
 14 40  1  0  0  0  0
 15 16  1  0  0  0  0
 16 17  1  0  0  0  0
 16 18  1  0  0  0  0
 17 41  1  0  0  0  0
 17 42  1  0  0  0  0
 17 43  1  0  0  0  0
 18 19  1  0  0  0  0
 19 44  1  0  0  0  0
 19 45  1  0  0  0  0
 19 46  1  0  0  0  0
 20 21  1  0  0  0  0
 20 47  1  0  0  0  0
 20 48  1  0  0  0  0
 21 49  1  0  0  0  0
 21 50  1  0  0  0  0
M  END
> <s_m_source_file>
AV-unprocessed.smi

> <i_m_source_file_index>
1095

> <i_lp_mmshare_version>
43012

> <i_f3d_flags>
0

> <s_epik_input>
W0NIM11bQ0gyXVtDQEBIXTFbQ0gyXVtDSDJdW0NASF0oW0NIMl1bQ0gyXTEpW0NIMl1bTkhdQyg9TylbQ0gyXWMyYyhbQ0gzXSlubihbQ0gzXSljMltDSDNd

> <s_epik_cmdline>
J2VwaWtfcHl0aG9uJywgJy1waCcsICc3LjAnLCAnLXRuJywgJzgnLCAnLW1hJywgJzIwMCcsICctbWV0YWxfYmluZGluZycsICctaW1hZScsICc8aW5maWxlLm1hZT4nLCAnLW9tYWUnLCAnPG91dGZpbGUubWFlPic=

> <r_lp_tautomer_probability>
1

> <r_epik_Ionization_Penalty>
0.00317479

> <r_epik_Ionization_Penalty_Charging>
0

> <r_epik_Ionization_Penalty_Neutral>
0.00317479

> <r_epik_State_Penalty>
0.00223767

> <r_epik_Charging_Adjusted_Penalty>
0.00223767

> <i_epik_Tot_Q>
0

> <i_epik_Tot_abs_Q>
0

> <r_epik_Metal_State_Penalty>
-0

> <b_epik_Metal_Only>
0

> <s_lp_Force_Field>
OPLS_2005

> <r_lp_Energy>
8.21356

> <b_lp_Chiralities_Consistent>
1

> <s_lp_Variant>
AV-unprocessed.smi:1095-2

> <Gold.Version>
5.8.1

> <Gold.Id.Protein>
6NUR|6NUR_protein|mol2

> <Gold.PLP.Fitness>
41.5540

> <Gold.PLP.PLP>
-41.3264

> <Gold.PLP.part.hbond>
-2.4995

> <Gold.PLP.part.metal>
0.0000

> <Gold.PLP.part.buried>
-2.3460

> <Gold.PLP.part.nonpolar>
-38.1977

> <Gold.PLP.part.repulsive>
1.3447

> <Gold.PLP.ligand.clash>
0.0000

> <Gold.PLP.ligand.torsion>
0.4252

> <Gold.PLP.Chemscore.Hbond>
0.3471

> <Gold.PLP.Chemscore.CHOScore>
0.0000

> <Gold.PLP.Chemscore.Metal>
0.0000

> <Gold.Chemscore.Hbonds>
donor molecule, donor type, donor heavy atom, donor atom, acceptor molecule, acceptor atom, score
      P1  H  6934  6946       L1    10  0.16

> <Gold.PLP.Chemscore.Internal.Correction>
0.0368

> <Gold.Rescore>
     Score         DG    S(hbond)    S(metal)    S(lipo)     H(rot)  DE(clash)    DE(int)     intcor
     14.17     -16.55       0.34        0.00     116.18       1.43       1.92       0.46       ----

> <Gold.Chemscore.Fitness>
14.1671

> <Gold.Chemscore.DG>
-16.5528

> <Gold.Chemscore.ZeroCoef>
-5.4800

> <Gold.Chemscore.Hbond>
0.3444

> <Gold.Chemscore.Metal>
0.0000

> <Gold.Chemscore.Lipo>
116.1757

> <Gold.Chemscore.Internal_Hbond>
0.0000

> <Gold.Chemscore.DEClash>
1.9221

> <Gold.Chemscore.DEInternal>
0.4636

> <Gold.Chemscore.Rot>
1.4336

> <Gold.Chemscore.Internal.Correction>
   9.000000E+99

> <Gold.Chemscore.Hbonds>
donor molecule, donor type, donor heavy atom, donor atom, acceptor molecule, acceptor atom, score
      P1  H  6934  6946       L1    10  0.16

> <Gold.Chemscore.Hbond.Weighted>
-1.1502

> <Gold.Chemscore.Metal.Weighted>
-0.0000

> <Gold.Chemscore.Lipo.Weighted>
-13.5926

> <Gold.Chemscore.Internal_Hbond.Weighted>
0.0000

> <Gold.Chemscore.DEClash.Weighted>
1.9221

> <Gold.Chemscore.DEInternal.Weighted>
0.4636

> <Gold.Chemscore.Rot.Weighted>
3.6700

> <Gold.Chemscore.Internal.Correction.Weighted>
   9.000000E+99

> <Gold.Protein.RotatedTorsions>
[ 6907 6896 6895 6894 ] final -109.23 input  -60.11 | X-H torsion
[ 7974 7965 7964 7962 ] final -171.62 input  175.53 | X-H torsion
[ 8008 7997 7996 7995 ] final   11.85 input   59.86 | X-H torsion
[ 10167 10162 10161 10158 ] final -164.15 input  -65.29 | X-H torsion
[ 10718 10713 10712 10709 ] final   55.12 input   66.30 | X-H torsion
[ 10763 10752 10751 10750 ] final   20.19 input  -60.55 | X-H torsion
[ 11005 11000 10999 10996 ] final  -37.68 input  -57.11 | X-H torsion

> <Gold.Protein.ActiveResidues>
 VAL166  LYS551  ARG553  GLY616  TRP617  ASP618  TYR619  PRO620  LYS621  CYS622 
 ASP623  PHE694  ASN695  SER759  ASP760  ASP761  ALA762  ILE779  LEU786  VAL792 
 PHE793  MET794  SER795  GLU796  ALA797  LYS798  CYS799  TRP800  GLU811  SER814 

> <Gold.Protein.RotatedAtoms>
  150.7549  133.9560  159.3500 H   0  0  0  0  0  0  0  0  0  0  0  0  # atno 6907 bound_to 6896
  151.7482  135.0837  160.0336 H   0  0  0  0  0  0  0  0  0  0  0  0  # atno 6908 bound_to 6896
  152.3484  133.6112  159.5963 H   0  0  0  0  0  0  0  0  0  0  0  0  # atno 6909 bound_to 6896
  144.7155  140.1894  143.6350 H   0  0  0  0  0  0  0  0  0  0  0  0  # atno 7974 bound_to 7965
  154.8126  140.2870  155.5843 H   0  0  0  0  0  0  0  0  0  0  0  0  # atno 8008 bound_to 7997
  156.2990  140.2565  156.2947 H   0  0  0  0  0  0  0  0  0  0  0  0  # atno 8009 bound_to 7997
  154.9430  140.0381  157.2096 H   0  0  0  0  0  0  0  0  0  0  0  0  # atno 8010 bound_to 7997
  139.6270  144.0512  152.1983 H   0  0  0  0  0  0  0  0  0  0  0  0  # atno 10167 bound_to 10162
  157.5317  130.8635  149.8697 H   0  0  0  0  0  0  0  0  0  0  0  0  # atno 10718 bound_to 10713
  153.1098  135.6694  153.9520 H   0  0  0  0  0  0  0  0  0  0  0  0  # atno 10763 bound_to 10752
  153.9067  135.3030  155.3450 H   0  0  0  0  0  0  0  0  0  0  0  0  # atno 10764 bound_to 10752
  154.7518  135.5031  153.9380 H   0  0  0  0  0  0  0  0  0  0  0  0  # atno 10765 bound_to 10752
  140.9971  133.6975  156.1954 H   0  0  0  0  0  0  0  0  0  0  0  0  # atno 11005 bound_to 11000
  145.8782  139.2308  143.1621 LP  0  0  0  0  0  0  0  0  0  0  0  0  # atno 17320 bound_to 7965
  146.0020  140.8512  143.0014 LP  0  0  0  0  0  0  0  0  0  0  0  0  # atno 17321 bound_to 7965
  140.0168  144.6183  150.7600 LP  0  0  0  0  0  0  0  0  0  0  0  0  # atno 17342 bound_to 10162
  140.7417  143.2821  151.3567 LP  0  0  0  0  0  0  0  0  0  0  0  0  # atno 17343 bound_to 10162
  156.0427  130.3735  150.1394 LP  0  0  0  0  0  0  0  0  0  0  0  0  # atno 17370 bound_to 10713
  156.9578  130.9795  151.3485 LP  0  0  0  0  0  0  0  0  0  0  0  0  # atno 17371 bound_to 10713
  140.6949  134.4626  157.5588 LP  0  0  0  0  0  0  0  0  0  0  0  0  # atno 17394 bound_to 11000
  139.9020  134.8535  156.1858 LP  0  0  0  0  0  0  0  0  0  0  0  0  # atno 17395 bound_to 11000

$$$$
