AV-unprocessed.smi:1381|AV-procd|sdf|5604|dock7
  -GOLD-   22720 5213D 1   1.00000     0.00000
 Structure written by MMmdl.
 42 43  0  0  0  0  0  0  0  0  1 V2000
  138.0208  137.1449  153.8604 C   0  0  0  0  0  0  0  0  0  0  0  0
  139.5091  137.1602  153.9344 C   0  0  0  0  0  0  0  0  0  0  0  0
  140.4513  138.0619  153.5261 C   0  0  0  0  0  0  0  0  0  0  0  0
  141.6721  137.4417  153.9029 C   0  0  0  0  0  0  0  0  0  0  0  0
  142.9172  138.0687  153.6423 N   0  0  0  0  0  0  0  0  0  0  0  0
  144.1459  137.5815  153.8852 C   0  0  0  0  0  0  0  0  0  0  0  0
  144.3870  136.4899  154.4018 O   0  0  0  0  0  0  0  0  0  0  0  0
  145.0973  138.4413  153.4940 N   0  0  0  0  0  0  0  0  0  0  0  0
  146.5329  138.2241  153.6407 C   0  0  0  0  0  0  0  0  0  0  0  0
  147.3310  139.5341  153.4909 C   0  0  0  0  0  0  0  0  0  0  0  0
  148.4211  139.7181  154.4499 N   0  0  0  0  0  0  0  0  0  0  0  0
  148.8898  141.1008  154.5075 C   0  0  0  0  0  0  0  0  0  0  0  0
  150.0608  141.2925  155.4923 C   0  0  1  0  0  0  0  0  0  0  0  0
  149.6289  141.2449  156.9682 C   0  0  0  0  0  0  0  0  0  0  0  0
  151.1017  140.3547  155.2142 O   0  0  0  0  0  0  0  0  0  0  0  0
  150.6903  138.9903  155.1523 C   0  0  2  0  0  0  0  0  0  0  0  0
  151.9092  138.1433  154.7713 C   0  0  0  0  0  0  0  0  0  0  0  0
  149.5462  138.8482  154.1329 C   0  0  0  0  0  0  0  0  0  0  0  0
  141.4915  136.2684  154.4904 N   0  0  0  0  0  0  0  0  0  0  0  0
  140.1042  136.0822  154.5137 O   0  0  0  0  0  0  0  0  0  0  0  0
  137.6374  138.1106  153.5307 H   0  0  0  0  0  0  0  0  0  0  0  0
  137.5861  136.9236  154.8353 H   0  0  0  0  0  0  0  0  0  0  0  0
  137.6774  136.3868  153.1561 H   0  0  0  0  0  0  0  0  0  0  0  0
  140.2899  139.0103  153.0352 H   0  0  0  0  0  0  0  0  0  0  0  0
  142.8670  138.9833  153.2188 H   0  0  0  0  0  0  0  0  0  0  0  0
  144.8105  139.3174  153.0827 H   0  0  0  0  0  0  0  0  0  0  0  0
  146.7390  137.7774  154.6147 H   0  0  0  0  0  0  0  0  0  0  0  0
  146.8505  137.4865  152.9046 H   0  0  0  0  0  0  0  0  0  0  0  0
  147.7406  139.5599  152.4801 H   0  0  0  0  0  0  0  0  0  0  0  0
  146.6450  140.3803  153.5502 H   0  0  0  0  0  0  0  0  0  0  0  0
  149.2113  141.4150  153.5133 H   0  0  0  0  0  0  0  0  0  0  0  0
  148.0775  141.7686  154.7930 H   0  0  0  0  0  0  0  0  0  0  0  0
  150.4860  142.2813  155.3177 H   0  0  0  0  0  0  0  0  0  0  0  0
  148.9243  142.0461  157.1919 H   0  0  0  0  0  0  0  0  0  0  0  0
  150.4877  141.3672  157.6282 H   0  0  0  0  0  0  0  0  0  0  0  0
  149.1424  140.3039  157.2235 H   0  0  0  0  0  0  0  0  0  0  0  0
  150.3440  138.6709  156.1359 H   0  0  0  0  0  0  0  0  0  0  0  0
  151.6522  137.0849  154.7217 H   0  0  0  0  0  0  0  0  0  0  0  0
  152.7072  138.2573  155.5053 H   0  0  0  0  0  0  0  0  0  0  0  0
  152.3062  138.4381  153.7995 H   0  0  0  0  0  0  0  0  0  0  0  0
  149.2134  137.8097  154.1122 H   0  0  0  0  0  0  0  0  0  0  0  0
  149.9175  139.0758  153.1324 H   0  0  0  0  0  0  0  0  0  0  0  0
  1  2  1  0  0  0  0
  1 21  1  0  0  0  0
  1 22  1  0  0  0  0
  1 23  1  0  0  0  0
  2 20  1  0  0  0  0
  2  3  2  0  0  0  0
  3  4  1  0  0  0  0
  3 24  1  0  0  0  0
  4  5  1  0  0  0  0
  4 19  2  0  0  0  0
  5  6  1  0  0  0  0
  5 25  1  0  0  0  0
  6  7  2  0  0  0  0
  6  8  1  0  0  0  0
  8  9  1  0  0  0  0
  8 26  1  0  0  0  0
  9 10  1  0  0  0  0
  9 27  1  0  0  0  0
  9 28  1  0  0  0  0
 10 11  1  0  0  0  0
 10 29  1  0  0  0  0
 10 30  1  0  0  0  0
 11 18  1  0  0  0  0
 11 12  1  0  0  0  0
 12 13  1  0  0  0  0
 12 31  1  0  0  0  0
 12 32  1  0  0  0  0
 13 14  1  0  0  0  0
 13 15  1  0  0  0  0
 13 33  1  0  0  0  0
 14 34  1  0  0  0  0
 14 35  1  0  0  0  0
 14 36  1  0  0  0  0
 15 16  1  0  0  0  0
 16 17  1  0  0  0  0
 16 18  1  0  0  0  0
 16 37  1  0  0  0  0
 17 38  1  0  0  0  0
 17 39  1  0  0  0  0
 17 40  1  0  0  0  0
 18 41  1  0  0  0  0
 18 42  1  0  0  0  0
 19 20  1  0  0  0  0
M  END
> <s_m_source_file>
AV-unprocessed.smi

> <i_m_source_file_index>
1381

> <i_lp_mmshare_version>
43012

> <i_f3d_flags>
0

> <s_epik_input>
W0NIM11jMVtjSF1jKG5vMSlbTkhdQyg9TylbTkhdW0NIMl1bQ0gyXU4yW0NIMl1bQ0BASF0oW0NIM10pT1tDQEBIXShbQ0gzXSlbQ0gyXTI=

> <s_epik_cmdline>
J2VwaWtfcHl0aG9uJywgJy1waCcsICc3LjAnLCAnLXRuJywgJzgnLCAnLW1hJywgJzIwMCcsICctbWV0YWxfYmluZGluZycsICctaW1hZScsICc8aW5maWxlLm1hZT4nLCAnLW9tYWUnLCAnPG91dGZpbGUubWFlPic=

> <r_epik_Ionization_Penalty>
0.214073

> <r_epik_Ionization_Penalty_Charging>
0

> <r_epik_Ionization_Penalty_Neutral>
0.214073

> <r_epik_State_Penalty>
0.204211

> <r_epik_Charging_Adjusted_Penalty>
0.204211

> <i_epik_Tot_Q>
0

> <i_epik_Tot_abs_Q>
0

> <r_epik_Metal_State_Penalty>
0.217067

> <b_epik_Metal_Only>
0

> <s_lp_Force_Field>
OPLS_2005

> <r_lp_Energy>
24.2919

> <b_lp_Chiralities_Consistent>
1

> <s_lp_Variant>
AV-unprocessed.smi:1381-3

> <Gold.Version>
5.8.1

> <Gold.Id.Protein>
6NUR|6NUR_protein|mol2

> <Gold.PLP.Fitness>
45.6193

> <Gold.PLP.PLP>
-34.6532

> <Gold.PLP.part.hbond>
-4.2690

> <Gold.PLP.part.metal>
0.0000

> <Gold.PLP.part.buried>
-4.6245

> <Gold.PLP.part.nonpolar>
-25.7476

> <Gold.PLP.part.repulsive>
0.2960

> <Gold.PLP.ligand.clash>
0.0000

> <Gold.PLP.ligand.torsion>
0.5210

> <Gold.PLP.Chemscore.Hbond>
4.0000

> <Gold.PLP.Chemscore.CHOScore>
0.0000

> <Gold.PLP.Chemscore.Metal>
0.0000

> <Gold.Chemscore.Hbonds>
donor molecule, donor type, donor heavy atom, donor atom, acceptor molecule, acceptor atom, score
      L1  H     5    25       P1 10175  1.00
      L1  H     8    26       P1 10175  1.00
      P1  H  7989  7998       L1    15  1.00
      P1  H 11000 11005       L1    20  0.98

> <Gold.PLP.Chemscore.Internal.Correction>
0.0080

> <Gold.Rescore>
     Score         DG    S(hbond)    S(metal)    S(lipo)     H(rot)  DE(clash)    DE(int)     intcor
     17.10     -19.25       2.79        0.00      72.38       1.57       0.20       1.95       ----

> <Gold.Chemscore.Fitness>
17.1037

> <Gold.Chemscore.DG>
-19.2506

> <Gold.Chemscore.ZeroCoef>
-5.4800

> <Gold.Chemscore.Hbond>
2.7907

> <Gold.Chemscore.Metal>
0.0000

> <Gold.Chemscore.Lipo>
72.3773

> <Gold.Chemscore.Internal_Hbond>
0.0000

> <Gold.Chemscore.DEClash>
0.1964

> <Gold.Chemscore.DEInternal>
1.9505

> <Gold.Chemscore.Rot>
1.5697

> <Gold.Chemscore.Internal.Correction>
   9.000000E+99

> <Gold.Chemscore.Hbonds>
donor molecule, donor type, donor heavy atom, donor atom, acceptor molecule, acceptor atom, score
      L1  H     5    25       P1 10175  0.97
      L1  H     8    26       P1 10175  0.98
      P1  H  7989  7998       L1    15  0.22
      P1  H 11000 11005       L1    20  0.22

> <Gold.Chemscore.Hbond.Weighted>
-9.3209

> <Gold.Chemscore.Metal.Weighted>
-0.0000

> <Gold.Chemscore.Lipo.Weighted>
-8.4681

> <Gold.Chemscore.Internal_Hbond.Weighted>
0.0000

> <Gold.Chemscore.DEClash.Weighted>
0.1964

> <Gold.Chemscore.DEInternal.Weighted>
1.9505

> <Gold.Chemscore.Rot.Weighted>
4.0185

> <Gold.Chemscore.Internal.Correction.Weighted>
   9.000000E+99

> <Gold.Protein.RotatedTorsions>
[ 6907 6896 6895 6894 ] final    3.05 input  -60.11 | X-H torsion
[ 7974 7965 7964 7962 ] final  113.10 input  175.53 | X-H torsion
[ 8008 7997 7996 7995 ] final  159.45 input   59.86 | X-H torsion
[ 10167 10162 10161 10158 ] final   -8.52 input  -65.29 | X-H torsion
[ 10718 10713 10712 10709 ] final  -12.08 input   66.30 | X-H torsion
[ 10763 10752 10751 10750 ] final   89.37 input  -60.55 | X-H torsion
[ 11005 11000 10999 10996 ] final   76.35 input  -57.11 | X-H torsion

> <Gold.Protein.ActiveResidues>
 VAL166  LYS551  ARG553  GLY616  TRP617  ASP618  TYR619  PRO620  LYS621  CYS622 
 ASP623  PHE694  ASN695  SER759  ASP760  ASP761  ALA762  ILE779  LEU786  VAL792 
 PHE793  MET794  SER795  GLU796  ALA797  LYS798  CYS799  TRP800  GLU811  SER814 

> <Gold.Protein.RotatedAtoms>
  151.6188  135.1034  160.0096 H   0  0  0  0  0  0  0  0  0  0  0  0  # atno 6907 bound_to 6896
  152.4169  133.7048  159.6455 H   0  0  0  0  0  0  0  0  0  0  0  0  # atno 6908 bound_to 6896
  150.8057  133.8441  159.3228 H   0  0  0  0  0  0  0  0  0  0  0  0  # atno 6909 bound_to 6896
  145.2212  139.2861  143.4217 H   0  0  0  0  0  0  0  0  0  0  0  0  # atno 7974 bound_to 7965
  156.2238  140.1831  156.7414 H   0  0  0  0  0  0  0  0  0  0  0  0  # atno 8008 bound_to 7997
  154.5907  140.0651  156.9263 H   0  0  0  0  0  0  0  0  0  0  0  0  # atno 8009 bound_to 7997
  155.2341  140.3317  155.4302 H   0  0  0  0  0  0  0  0  0  0  0  0  # atno 8010 bound_to 7997
  140.7061  143.5960  150.8845 H   0  0  0  0  0  0  0  0  0  0  0  0  # atno 10167 bound_to 10162
  156.6498  130.4951  149.6066 H   0  0  0  0  0  0  0  0  0  0  0  0  # atno 10718 bound_to 10713
  153.1864  135.4473  155.0094 H   0  0  0  0  0  0  0  0  0  0  0  0  # atno 10763 bound_to 10752
  154.8063  135.3276  154.7425 H   0  0  0  0  0  0  0  0  0  0  0  0  # atno 10764 bound_to 10752
  153.7884  135.6972  153.4931 H   0  0  0  0  0  0  0  0  0  0  0  0  # atno 10765 bound_to 10752
  139.9302  134.7593  156.1384 H   0  0  0  0  0  0  0  0  0  0  0  0  # atno 11005 bound_to 11000
  146.3375  140.2519  142.8599 LP  0  0  0  0  0  0  0  0  0  0  0  0  # atno 17320 bound_to 7965
  144.9763  140.8417  143.5424 LP  0  0  0  0  0  0  0  0  0  0  0  0  # atno 17321 bound_to 7965
  139.9685  143.6083  152.2981 LP  0  0  0  0  0  0  0  0  0  0  0  0  # atno 17342 bound_to 10162
  139.6662  144.7662  151.1870 LP  0  0  0  0  0  0  0  0  0  0  0  0  # atno 17343 bound_to 10162
  156.2093  130.6669  151.1252 LP  0  0  0  0  0  0  0  0  0  0  0  0  # atno 17370 bound_to 10713
  157.7144  131.0717  150.6381 LP  0  0  0  0  0  0  0  0  0  0  0  0  # atno 17371 bound_to 10713
  141.0886  133.6723  156.2491 LP  0  0  0  0  0  0  0  0  0  0  0  0  # atno 17394 bound_to 11000
  140.6222  134.5349  157.5549 LP  0  0  0  0  0  0  0  0  0  0  0  0  # atno 17395 bound_to 11000

$$$$
