AV-unprocessed.smi:3303|AV-procd|sdf|12690|dock2
  -GOLD-   2272019 23D 1   1.00000     0.00000
 Structure written by MMmdl.
 44 45  0  0  0  0  0  0  0  0  2 V2000
  145.6874  142.6445  154.8217 C   0  0  0  0  0  0  0  0  0  0  0  0
  146.7583  141.6507  155.3045 C   0  0  1  0  0  0  0  0  0  0  0  0
  146.1808  140.2305  155.4639 C   0  0  0  0  0  0  0  0  0  0  0  0
  145.8920  139.5846  154.1573 N   0  3  2  0  0  0  0  0  0  0  0  0
  145.1810  138.2973  154.3508 C   0  0  0  0  0  0  0  0  0  0  0  0
  147.1131  139.4840  153.3044 C   0  0  1  0  0  0  0  0  0  0  0  0
  146.8346  138.8218  151.9407 C   0  0  0  0  0  0  0  0  0  0  0  0
  147.7339  140.8804  153.0793 C   0  0  0  0  0  0  0  0  0  0  0  0
  148.0019  141.6534  154.3835 C   0  0  2  0  0  0  0  0  0  0  0  0
  149.1833  141.0959  155.0360 N   0  0  0  0  0  0  0  0  0  0  0  0
  149.4195  141.6873  156.3461 C   0  0  0  0  0  0  0  0  0  0  0  0
  150.8676  141.4196  156.7776 C   0  0  0  0  0  0  0  0  0  0  0  0
  151.3148  142.3624  157.8784 C   0  0  0  0  0  0  0  0  0  0  0  0
  151.4035  143.7515  157.6449 C   0  0  0  0  0  0  0  0  0  0  0  0
  151.8365  144.5819  158.6968 C   0  0  0  0  0  0  0  0  0  0  0  0
  152.1643  143.9943  159.9339 C   0  0  0  0  0  0  0  0  0  0  0  0
  152.0444  142.5963  160.0649 C   0  0  0  0  0  0  0  0  0  0  0  0
  151.6299  141.7910  159.0628 N   0  0  0  0  0  0  0  0  0  0  0  0
  145.2996  142.3804  153.8378 H   0  0  0  0  0  0  0  0  0  0  0  0
  146.0926  143.6550  154.7575 H   0  0  0  0  0  0  0  0  0  0  0  0
  144.8429  142.6758  155.5107 H   0  0  0  0  0  0  0  0  0  0  0  0
  147.0443  141.9953  156.2977 H   0  0  0  0  0  0  0  0  0  0  0  0
  146.8820  139.6068  156.0206 H   0  0  0  0  0  0  0  0  0  0  0  0
  145.2704  140.2776  156.0631 H   0  0  0  0  0  0  0  0  0  0  0  0
  145.8458  137.5424  154.7726 H   0  0  0  0  0  0  0  0  0  0  0  0
  144.7744  137.9185  153.4138 H   0  0  0  0  0  0  0  0  0  0  0  0
  144.3354  138.4204  155.0285 H   0  0  0  0  0  0  0  0  0  0  0  0
  147.8401  138.8646  153.8329 H   0  0  0  0  0  0  0  0  0  0  0  0
  147.7207  138.8535  151.3060 H   0  0  0  0  0  0  0  0  0  0  0  0
  146.0302  139.3296  151.4074 H   0  0  0  0  0  0  0  0  0  0  0  0
  146.5647  137.7706  152.0415 H   0  0  0  0  0  0  0  0  0  0  0  0
  148.6562  140.7938  152.5026 H   0  0  0  0  0  0  0  0  0  0  0  0
  147.0577  141.4702  152.4590 H   0  0  0  0  0  0  0  0  0  0  0  0
  148.2431  142.6810  154.1068 H   0  0  0  0  0  0  0  0  0  0  0  0
  149.9939  141.2749  154.4598 H   0  0  0  0  0  0  0  0  0  0  0  0
  149.2395  142.7624  156.3016 H   0  0  0  0  0  0  0  0  0  0  0  0
  148.7363  141.2721  157.0859 H   0  0  0  0  0  0  0  0  0  0  0  0
  150.9723  140.3903  157.1241 H   0  0  0  0  0  0  0  0  0  0  0  0
  151.5410  141.5269  155.9257 H   0  0  0  0  0  0  0  0  0  0  0  0
  151.1496  144.1726  156.6832 H   0  0  0  0  0  0  0  0  0  0  0  0
  151.9171  145.6497  158.5566 H   0  0  0  0  0  0  0  0  0  0  0  0
  152.5009  144.6001  160.7622 H   0  0  0  0  0  0  0  0  0  0  0  0
  152.2884  142.1113  160.9987 H   0  0  0  0  0  0  0  0  0  0  0  0
  145.2488  140.1950  153.6736 H   0  0  0  0  0  0  0  0  0  0  0  0
  1  2  1  0  0  0  0
  1 19  1  0  0  0  0
  1 20  1  0  0  0  0
  1 21  1  0  0  0  0
  2  9  1  0  0  0  0
  2  3  1  0  0  0  0
  2 22  1  0  0  0  0
  3  4  1  0  0  0  0
  3 23  1  0  0  0  0
  3 24  1  0  0  0  0
  4  5  1  0  0  0  0
  4  6  1  0  0  0  0
  4 44  1  0  0  0  0
  5 25  1  0  0  0  0
  5 26  1  0  0  0  0
  5 27  1  0  0  0  0
  6  7  1  0  0  0  0
  6  8  1  0  0  0  0
  6 28  1  0  0  0  0
  7 29  1  0  0  0  0
  7 30  1  0  0  0  0
  7 31  1  0  0  0  0
  8  9  1  0  0  0  0
  8 32  1  0  0  0  0
  8 33  1  0  0  0  0
  9 10  1  0  0  0  0
  9 34  1  0  0  0  0
 10 11  1  0  0  0  0
 10 35  1  0  0  0  0
 11 12  1  0  0  0  0
 11 36  1  0  0  0  0
 11 37  1  0  0  0  0
 12 13  1  0  0  0  0
 12 38  1  0  0  0  0
 12 39  1  0  0  0  0
 13 18  1  0  0  0  0
 13 14  2  0  0  0  0
 14 15  1  0  0  0  0
 14 40  1  0  0  0  0
 15 16  2  0  0  0  0
 15 41  1  0  0  0  0
 16 17  1  0  0  0  0
 16 42  1  0  0  0  0
 17 18  2  0  0  0  0
 17 43  1  0  0  0  0
M  CHG  1   4   1
M  END
> <s_m_source_file>
AV-unprocessed.smi

> <i_m_source_file_index>
3303

> <i_lp_mmshare_version>
43012

> <i_f3d_flags>
0

> <s_epik_input>
W0NIM11bQ0BASF0xW0NIMl1OKFtDSDNdKVtDQEBIXShbQ0gzXSlbQ0gyXVtDQEhdMVtOSF1bQ0gyXVtDSDJdYzJbY0hdW2NIXVtjSF1bY0hdbjI=

> <s_epik_cmdline>
J2VwaWtfcHl0aG9uJywgJy1waCcsICc3LjAnLCAnLXRuJywgJzgnLCAnLW1hJywgJzIwMCcsICctbWV0YWxfYmluZGluZycsICctaW1hZScsICc8aW5maWxlLm1hZT4nLCAnLW9tYWUnLCAnPG91dGZpbGUubWFlPic=

> <r_epik_Ionization_Penalty>
2.31085

> <r_epik_Ionization_Penalty_Charging>
0.000313057

> <r_epik_Ionization_Penalty_Neutral>
2.31054

> <r_epik_State_Penalty>
2.4087

> <r_epik_Charging_Adjusted_Penalty>
2.40902

> <i_epik_Tot_Q>
1

> <i_epik_Tot_abs_Q>
1

> <r_epik_Metal_State_Penalty>
2.30979

> <b_epik_Metal_Only>
0

> <s_lp_Force_Field>
OPLS_2005

> <r_lp_Energy>
25.2606

> <b_lp_Chiralities_Consistent>
1

> <s_lp_Variant>
AV-unprocessed.smi:3303-34

> <Gold.Version>
5.8.1

> <Gold.Id.Protein>
6NUR|6NUR_protein|mol2

> <Gold.PLP.Fitness>
44.1049

> <Gold.PLP.PLP>
-38.4802

> <Gold.PLP.part.hbond>
-1.0000

> <Gold.PLP.part.metal>
0.0000

> <Gold.PLP.part.buried>
-0.1197

> <Gold.PLP.part.nonpolar>
-37.0003

> <Gold.PLP.part.repulsive>
0.0000

> <Gold.PLP.ligand.clash>
0.0000

> <Gold.PLP.ligand.torsion>
0.2081

> <Gold.PLP.Chemscore.Hbond>
2.0000

> <Gold.PLP.Chemscore.CHOScore>
0.0000

> <Gold.PLP.Chemscore.Metal>
0.0000

> <Gold.Chemscore.Hbonds>
donor molecule, donor type, donor heavy atom, donor atom, acceptor molecule, acceptor atom, score
      L1  H     4    44       P1 10175  2.00

> <Gold.PLP.Chemscore.Internal.Correction>
0.0410

> <Gold.Rescore>
     Score         DG    S(hbond)    S(metal)    S(lipo)     H(rot)  DE(clash)    DE(int)     intcor
     17.19     -18.91       0.98        0.00     115.80       1.33       1.46       0.25       ----

> <Gold.Chemscore.Fitness>
17.1941

> <Gold.Chemscore.DG>
-18.9102

> <Gold.Chemscore.ZeroCoef>
-5.4800

> <Gold.Chemscore.Hbond>
0.9817

> <Gold.Chemscore.Metal>
0.0000

> <Gold.Chemscore.Lipo>
115.8035

> <Gold.Chemscore.Internal_Hbond>
0.0000

> <Gold.Chemscore.DEClash>
1.4618

> <Gold.Chemscore.DEInternal>
0.2543

> <Gold.Chemscore.Rot>
1.3272

> <Gold.Chemscore.Internal.Correction>
   9.000000E+99

> <Gold.Chemscore.Hbonds>
donor molecule, donor type, donor heavy atom, donor atom, acceptor molecule, acceptor atom, score
      L1  H     4    44       P1 10175  0.92

> <Gold.Chemscore.Hbond.Weighted>
-3.2788

> <Gold.Chemscore.Metal.Weighted>
-0.0000

> <Gold.Chemscore.Lipo.Weighted>
-13.5490

> <Gold.Chemscore.Internal_Hbond.Weighted>
0.0000

> <Gold.Chemscore.DEClash.Weighted>
1.4618

> <Gold.Chemscore.DEInternal.Weighted>
0.2543

> <Gold.Chemscore.Rot.Weighted>
3.3976

> <Gold.Chemscore.Internal.Correction.Weighted>
   9.000000E+99

> <Gold.Protein.RotatedTorsions>
[ 6907 6896 6895 6894 ] final -166.15 input  -60.11 | X-H torsion
[ 7974 7965 7964 7962 ] final   77.25 input  175.53 | X-H torsion
[ 8008 7997 7996 7995 ] final   72.58 input   59.86 | X-H torsion
[ 10167 10162 10161 10158 ] final  165.00 input  -65.29 | X-H torsion
[ 10718 10713 10712 10709 ] final -173.08 input   66.30 | X-H torsion
[ 10763 10752 10751 10750 ] final  128.44 input  -60.55 | X-H torsion
[ 11005 11000 10999 10996 ] final  -78.15 input  -57.11 | X-H torsion

> <Gold.Protein.ActiveResidues>
 VAL166  LYS551  ARG553  GLY616  TRP617  ASP618  TYR619  PRO620  LYS621  CYS622 
 ASP623  PHE694  ASN695  SER759  ASP760  ASP761  ALA762  ILE779  LEU786  VAL792 
 PHE793  MET794  SER795  GLU796  ALA797  LYS798  CYS799  TRP800  GLU811  SER814 

> <Gold.Protein.RotatedAtoms>
  151.4389  133.3649  159.2778 H   0  0  0  0  0  0  0  0  0  0  0  0  # atno 6907 bound_to 6896
  150.9171  134.8590  159.7475 H   0  0  0  0  0  0  0  0  0  0  0  0  # atno 6908 bound_to 6896
  152.4963  134.4324  159.9568 H   0  0  0  0  0  0  0  0  0  0  0  0  # atno 6909 bound_to 6896
  145.6924  139.2556  143.1752 H   0  0  0  0  0  0  0  0  0  0  0  0  # atno 7974 bound_to 7965
  155.7709  140.3484  155.5246 H   0  0  0  0  0  0  0  0  0  0  0  0  # atno 8008 bound_to 7997
  155.8822  140.1004  157.1498 H   0  0  0  0  0  0  0  0  0  0  0  0  # atno 8009 bound_to 7997
  154.4026  140.1320  156.4198 H   0  0  0  0  0  0  0  0  0  0  0  0  # atno 8010 bound_to 7997
  139.4898  144.4177  151.9223 H   0  0  0  0  0  0  0  0  0  0  0  0  # atno 10167 bound_to 10162
  156.7650  130.9427  151.3119 H   0  0  0  0  0  0  0  0  0  0  0  0  # atno 10718 bound_to 10713
  153.7256  135.3246  155.3275 H   0  0  0  0  0  0  0  0  0  0  0  0  # atno 10763 bound_to 10752
  154.8342  135.4510  154.1173 H   0  0  0  0  0  0  0  0  0  0  0  0  # atno 10764 bound_to 10752
  153.2306  135.6959  153.7975 H   0  0  0  0  0  0  0  0  0  0  0  0  # atno 10765 bound_to 10752
  141.1663  133.7051  156.7928 H   0  0  0  0  0  0  0  0  0  0  0  0  # atno 11005 bound_to 11000
  146.0870  140.7699  142.9614 LP  0  0  0  0  0  0  0  0  0  0  0  0  # atno 17320 bound_to 7965
  144.6992  140.3578  143.7169 LP  0  0  0  0  0  0  0  0  0  0  0  0  # atno 17321 bound_to 7965
  140.3621  144.2960  150.5932 LP  0  0  0  0  0  0  0  0  0  0  0  0  # atno 17342 bound_to 10162
  140.5394  143.2226  151.8110 LP  0  0  0  0  0  0  0  0  0  0  0  0  # atno 17343 bound_to 10162
  157.6717  130.9057  150.0056 LP  0  0  0  0  0  0  0  0  0  0  0  0  # atno 17370 bound_to 10713
  156.1314  130.3643  149.9725 LP  0  0  0  0  0  0  0  0  0  0  0  0  # atno 17371 bound_to 10713
  140.2313  134.8683  157.3479 LP  0  0  0  0  0  0  0  0  0  0  0  0  # atno 17394 bound_to 11000
  140.1888  134.4397  155.7728 LP  0  0  0  0  0  0  0  0  0  0  0  0  # atno 17395 bound_to 11000

$$$$
