AV-unprocessed.smi:2528|AV-procd|sdf|9953|dock3
  -GOLD-   2272013593D 1   1.00000     0.00000
 Structure written by MMmdl.
 44 46  0  0  0  0  0  0  0  0  2 V2000
  144.8018  137.4636  152.2841 O   0  0  0  0  0  0  0  0  0  0  0  0
  145.9953  137.2175  152.1059 C   0  0  0  0  0  0  0  0  0  0  0  0
  146.9672  138.1230  152.2882 N   0  0  0  0  0  0  0  0  0  0  0  0
  146.7536  139.4964  152.7322 C   0  0  0  0  0  0  0  0  0  0  0  0
  147.6287  139.8524  153.9473 C   0  0  1  0  0  0  0  0  0  0  0  0
  147.8686  141.3747  154.0521 C   0  0  0  0  0  0  0  0  0  0  0  0
  148.6159  141.7244  155.2846 N   0  3  2  0  0  0  0  0  0  0  0  0
  150.0734  141.4354  155.1942 C   0  0  0  0  0  0  0  0  0  0  0  0
  150.8110  141.8757  156.4668 C   0  0  0  0  0  0  0  0  0  0  0  0
  150.2061  141.2007  157.7028 C   0  0  0  0  0  0  0  0  0  0  0  0
  148.7058  141.5128  157.7840 C   0  0  0  0  0  0  0  0  0  0  0  0
  147.9545  141.1450  156.4866 C   0  0  2  0  0  0  0  0  0  0  0  0
  147.7256  139.6296  156.3058 C   0  0  0  0  0  0  0  0  0  0  0  0
  146.9624  139.4074  155.1256 O   0  0  0  0  0  0  0  0  0  0  0  0
  146.4969  136.0344  151.7106 N   0  0  0  0  0  0  0  0  0  0  0  0
  145.7922  134.8348  151.4237 C   0  0  0  0  0  0  0  0  0  0  0  0
  146.6055  133.7259  151.0973 C   0  0  0  0  0  0  0  0  0  0  0  0
  146.0025  132.4886  150.7983 C   0  0  0  0  0  0  0  0  0  0  0  0
  144.5999  132.3923  150.8326 C   0  0  0  0  0  0  0  0  0  0  0  0
  143.8640  133.5445  151.1649 C   0  0  0  0  0  0  0  0  0  0  0  0
  144.4397  134.7314  151.4517 N   0  0  0  0  0  0  0  0  0  0  0  0
  147.9216  137.8420  152.1167 H   0  0  0  0  0  0  0  0  0  0  0  0
  146.9573  140.1790  151.9053 H   0  0  0  0  0  0  0  0  0  0  0  0
  145.6988  139.6184  152.9799 H   0  0  0  0  0  0  0  0  0  0  0  0
  148.5851  139.3359  153.8577 H   0  0  0  0  0  0  0  0  0  0  0  0
  148.3992  141.7456  153.1743 H   0  0  0  0  0  0  0  0  0  0  0  0
  146.9097  141.8943  154.0755 H   0  0  0  0  0  0  0  0  0  0  0  0
  150.2455  140.3725  155.0255 H   0  0  0  0  0  0  0  0  0  0  0  0
  150.4913  141.9590  154.3336 H   0  0  0  0  0  0  0  0  0  0  0  0
  151.8699  141.6277  156.3880 H   0  0  0  0  0  0  0  0  0  0  0  0
  150.7526  142.9599  156.5716 H   0  0  0  0  0  0  0  0  0  0  0  0
  150.3650  140.1229  157.6542 H   0  0  0  0  0  0  0  0  0  0  0  0
  150.7106  141.5484  158.6049 H   0  0  0  0  0  0  0  0  0  0  0  0
  148.2610  140.9995  158.6372 H   0  0  0  0  0  0  0  0  0  0  0  0
  148.5801  142.5794  157.9760 H   0  0  0  0  0  0  0  0  0  0  0  0
  146.9674  141.6054  156.5537 H   0  0  0  0  0  0  0  0  0  0  0  0
  148.6648  139.0774  156.2552 H   0  0  0  0  0  0  0  0  0  0  0  0
  147.1709  139.2300  157.1548 H   0  0  0  0  0  0  0  0  0  0  0  0
  147.5001  135.9822  151.6118 H   0  0  0  0  0  0  0  0  0  0  0  0
  147.6819  133.8170  151.0772 H   0  0  0  0  0  0  0  0  0  0  0  0
  146.6067  131.6292  150.5475 H   0  0  0  0  0  0  0  0  0  0  0  0
  144.1010  131.4608  150.6096 H   0  0  0  0  0  0  0  0  0  0  0  0
  142.7849  133.5138  151.2010 H   0  0  0  0  0  0  0  0  0  0  0  0
  148.5499  142.7278  155.3815 H   0  0  0  0  0  0  0  0  0  0  0  0
  1  2  2  0  0  0  0
  2  3  1  0  0  0  0
  2 15  1  0  0  0  0
  3  4  1  0  0  0  0
  3 22  1  0  0  0  0
  4  5  1  0  0  0  0
  4 23  1  0  0  0  0
  4 24  1  0  0  0  0
  5 14  1  0  0  0  0
  5  6  1  0  0  0  0
  5 25  1  0  0  0  0
  6  7  1  0  0  0  0
  6 26  1  0  0  0  0
  6 27  1  0  0  0  0
  7 12  1  0  0  0  0
  7  8  1  0  0  0  0
  7 44  1  0  0  0  0
  8  9  1  0  0  0  0
  8 28  1  0  0  0  0
  8 29  1  0  0  0  0
  9 10  1  0  0  0  0
  9 30  1  0  0  0  0
  9 31  1  0  0  0  0
 10 11  1  0  0  0  0
 10 32  1  0  0  0  0
 10 33  1  0  0  0  0
 11 12  1  0  0  0  0
 11 34  1  0  0  0  0
 11 35  1  0  0  0  0
 12 13  1  0  0  0  0
 12 36  1  0  0  0  0
 13 14  1  0  0  0  0
 13 37  1  0  0  0  0
 13 38  1  0  0  0  0
 15 16  1  0  0  0  0
 15 39  1  0  0  0  0
 16 21  1  0  0  0  0
 16 17  2  0  0  0  0
 17 18  1  0  0  0  0
 17 40  1  0  0  0  0
 18 19  2  0  0  0  0
 18 41  1  0  0  0  0
 19 20  1  0  0  0  0
 19 42  1  0  0  0  0
 20 21  2  0  0  0  0
 20 43  1  0  0  0  0
M  CHG  1   7   1
M  END
> <s_m_source_file>
AV-unprocessed.smi

> <i_m_source_file_index>
2528

> <i_lp_mmshare_version>
43012

> <i_f3d_flags>
0

> <s_epik_input>
bjFbY0hdW2NIXVtjSF1bY0hdYzFbTkhdQyg9TylbTkhdW0NIMl1bQ0BIXShbQ0gyXTIpT1tDSDJdW0NAQEhdKE4yMylbQ0gyXVtDSDJdW0NIMl1bQ0gyXTM=

> <s_epik_cmdline>
J2VwaWtfcHl0aG9uJywgJy1waCcsICc3LjAnLCAnLXRuJywgJzgnLCAnLW1hJywgJzIwMCcsICctbWV0YWxfYmluZGluZycsICctaW1hZScsICc8aW5maWxlLm1hZT4nLCAnLW9tYWUnLCAnPG91dGZpbGUubWFlPic=

> <r_epik_Ionization_Penalty>
0.0932337

> <r_epik_Ionization_Penalty_Charging>
0.0931942

> <r_epik_Ionization_Penalty_Neutral>
3.9565e-05

> <r_epik_State_Penalty>
0.0834605

> <r_epik_Charging_Adjusted_Penalty>
0.176655

> <i_epik_Tot_Q>
1

> <i_epik_Tot_abs_Q>
1

> <r_epik_Metal_State_Penalty>
0.0834607

> <b_epik_Metal_Only>
0

> <s_lp_Force_Field>
OPLS_2005

> <r_lp_Energy>
28.0088

> <b_lp_Chiralities_Consistent>
1

> <s_lp_Variant>
AV-unprocessed.smi:2528-6

> <Gold.Version>
5.8.1

> <Gold.Id.Protein>
6NUR|6NUR_protein|mol2

> <Gold.PLP.Fitness>
46.1951

> <Gold.PLP.PLP>
-32.1881

> <Gold.PLP.part.hbond>
-2.9421

> <Gold.PLP.part.metal>
0.0000

> <Gold.PLP.part.buried>
-5.6530

> <Gold.PLP.part.nonpolar>
-26.4006

> <Gold.PLP.part.repulsive>
2.3065

> <Gold.PLP.ligand.clash>
0.0000

> <Gold.PLP.ligand.torsion>
0.2874

> <Gold.PLP.Chemscore.Hbond>
3.8640

> <Gold.PLP.Chemscore.CHOScore>
0.9959

> <Gold.PLP.Chemscore.Metal>
0.0000

> <Gold.Chemscore.Hbonds>
donor molecule, donor type, donor heavy atom, donor atom, acceptor molecule, acceptor atom, score
      L1  H     3    22       P1  7948  0.82
      L1  H     7    44       P1  8028  2.00
      L1  H    15    39       P1  7948  0.81
      L1  C    20    43       P1 10186  0.87

> <Gold.PLP.Chemscore.Internal.Correction>
0.0023

> <Gold.Rescore>
     Score         DG    S(hbond)    S(metal)    S(lipo)     H(rot)  DE(clash)    DE(int)     intcor
     18.25     -19.96       2.80        0.00      71.99       1.29       0.17       1.53       ----

> <Gold.Chemscore.Fitness>
18.2525

> <Gold.Chemscore.DG>
-19.9588

> <Gold.Chemscore.ZeroCoef>
-5.4800

> <Gold.Chemscore.Hbond>
2.7997

> <Gold.Chemscore.Metal>
0.0000

> <Gold.Chemscore.Lipo>
71.9901

> <Gold.Chemscore.Internal_Hbond>
0.0000

> <Gold.Chemscore.DEClash>
0.1733

> <Gold.Chemscore.DEInternal>
1.5330

> <Gold.Chemscore.Rot>
1.2870

> <Gold.Chemscore.Internal.Correction>
   9.000000E+99

> <Gold.Chemscore.Hbonds>
donor molecule, donor type, donor heavy atom, donor atom, acceptor molecule, acceptor atom, score
      L1  H     3    22       P1  7948  0.79
      L1  H     7    44       P1  8028  0.93
      L1  H    15    39       P1  7948  0.80

> <Gold.Chemscore.Hbond.Weighted>
-9.3508

> <Gold.Chemscore.Metal.Weighted>
-0.0000

> <Gold.Chemscore.Lipo.Weighted>
-8.4228

> <Gold.Chemscore.Internal_Hbond.Weighted>
0.0000

> <Gold.Chemscore.DEClash.Weighted>
0.1733

> <Gold.Chemscore.DEInternal.Weighted>
1.5330

> <Gold.Chemscore.Rot.Weighted>
3.2948

> <Gold.Chemscore.Internal.Correction.Weighted>
   9.000000E+99

> <Gold.Protein.RotatedTorsions>
[ 6907 6896 6895 6894 ] final -105.53 input  -60.11 | X-H torsion
[ 7974 7965 7964 7962 ] final   27.15 input  175.53 | X-H torsion
[ 8008 7997 7996 7995 ] final   15.71 input   59.86 | X-H torsion
[ 10167 10162 10161 10158 ] final  -19.39 input  -65.29 | X-H torsion
[ 10718 10713 10712 10709 ] final -100.39 input   66.30 | X-H torsion
[ 10763 10752 10751 10750 ] final   93.27 input  -60.55 | X-H torsion
[ 11005 11000 10999 10996 ] final -114.78 input  -57.11 | X-H torsion

> <Gold.Protein.ActiveResidues>
 VAL166  LYS551  ARG553  GLY616  TRP617  ASP618  TYR619  PRO620  LYS621  CYS622 
 ASP623  PHE694  ASN695  SER759  ASP760  ASP761  ALA762  ILE779  LEU786  VAL792 
 PHE793  MET794  SER795  GLU796  ALA797  LYS798  CYS799  TRP800  GLU811  SER814 

> <Gold.Protein.RotatedAtoms>
  150.7342  134.0112  159.3670 H   0  0  0  0  0  0  0  0  0  0  0  0  # atno 6907 bound_to 6896
  151.8072  135.0689  160.0417 H   0  0  0  0  0  0  0  0  0  0  0  0  # atno 6908 bound_to 6896
  152.3098  133.5705  159.5710 H   0  0  0  0  0  0  0  0  0  0  0  0  # atno 6909 bound_to 6896
  146.1800  139.7231  142.8907 H   0  0  0  0  0  0  0  0  0  0  0  0  # atno 7974 bound_to 7965
  154.8665  140.2952  155.5507 H   0  0  0  0  0  0  0  0  0  0  0  0  # atno 8008 bound_to 7997
  156.3021  140.2468  156.3581 H   0  0  0  0  0  0  0  0  0  0  0  0  # atno 8009 bound_to 7997
  154.8862  140.0396  157.1801 H   0  0  0  0  0  0  0  0  0  0  0  0  # atno 8010 bound_to 7997
  140.7268  143.4823  151.0101 H   0  0  0  0  0  0  0  0  0  0  0  0  # atno 10167 bound_to 10162
  156.0161  130.5325  150.6810 H   0  0  0  0  0  0  0  0  0  0  0  0  # atno 10718 bound_to 10713
  153.2285  135.4331  155.0568 H   0  0  0  0  0  0  0  0  0  0  0  0  # atno 10763 bound_to 10752
  154.8285  135.3373  154.6823 H   0  0  0  0  0  0  0  0  0  0  0  0  # atno 10764 bound_to 10752
  153.7251  135.7014  153.5059 H   0  0  0  0  0  0  0  0  0  0  0  0  # atno 10765 bound_to 10752
  141.0530  133.9657  157.2803 H   0  0  0  0  0  0  0  0  0  0  0  0  # atno 11005 bound_to 11000
  145.4104  141.0396  143.3020 LP  0  0  0  0  0  0  0  0  0  0  0  0  # atno 17320 bound_to 7965
  144.8299  139.5647  143.6948 LP  0  0  0  0  0  0  0  0  0  0  0  0  # atno 17321 bound_to 7965
  139.8522  143.7423  152.3177 LP  0  0  0  0  0  0  0  0  0  0  0  0  # atno 17342 bound_to 10162
  139.7609  144.7507  151.0365 LP  0  0  0  0  0  0  0  0  0  0  0  0  # atno 17343 bound_to 10162
  157.4512  131.0872  151.0844 LP  0  0  0  0  0  0  0  0  0  0  0  0  # atno 17370 bound_to 10713
  157.1359  130.6122  149.5542 LP  0  0  0  0  0  0  0  0  0  0  0  0  # atno 17371 bound_to 10713
  139.9366  135.0196  156.8576 LP  0  0  0  0  0  0  0  0  0  0  0  0  # atno 17394 bound_to 11000
  140.6018  134.0164  155.7540 LP  0  0  0  0  0  0  0  0  0  0  0  0  # atno 17395 bound_to 11000

$$$$
