AV-unprocessed.smi:3070|AV-procd|sdf|11712|dock2
  -GOLD-   2272017113D 1   1.00000     0.00000
 Structure written by MMmdl.
 21 22  0  0  0  0  0  0  0  0  2 V2000
  152.8524  142.7561  162.1651 C   0  0  0  0  0  0  0  0  0  0  0  0
  152.4312  144.0540  162.2230 N   0  0  0  0  0  0  0  0  0  0  0  0
  152.2021  144.2709  160.9356 C   0  0  0  0  0  0  0  0  0  0  0  0
  152.4528  143.2170  160.1564 N   0  0  0  0  0  0  0  0  0  0  0  0
  152.3232  143.0654  158.7149 C   0  0  1  0  0  0  0  0  0  0  0  0
  151.2621  142.0516  158.2879 C   0  0  0  0  0  0  0  0  0  0  0  0
  150.9901  142.4424  156.8344 C   0  0  0  0  0  0  0  0  0  0  0  0
  151.2279  143.8978  156.7456 N   0  3  0  0  0  0  0  0  0  0  0  0
  151.8858  144.3441  157.9898 C   0  0  0  0  0  0  0  0  0  0  0  0
  152.8835  142.2066  160.9508 N   0  0  0  0  0  0  0  0  0  0  0  0
  153.1441  142.1995  163.0436 H   0  0  0  0  0  0  0  0  0  0  0  0
  151.8434  145.2161  160.5548 H   0  0  0  0  0  0  0  0  0  0  0  0
  153.2883  142.7480  158.3157 H   0  0  0  0  0  0  0  0  0  0  0  0
  151.5954  141.0186  158.3923 H   0  0  0  0  0  0  0  0  0  0  0  0
  150.3494  142.1705  158.8736 H   0  0  0  0  0  0  0  0  0  0  0  0
  151.6959  141.9381  156.1732 H   0  0  0  0  0  0  0  0  0  0  0  0
  149.9820  142.1804  156.5125 H   0  0  0  0  0  0  0  0  0  0  0  0
  151.8208  144.0916  155.9511 H   0  0  0  0  0  0  0  0  0  0  0  0
  151.1509  144.9009  158.5725 H   0  0  0  0  0  0  0  0  0  0  0  0
  152.7224  145.0118  157.7826 H   0  0  0  0  0  0  0  0  0  0  0  0
  150.3501  144.3865  156.6408 H   0  0  0  0  0  0  0  0  0  0  0  0
  1 10  2  0  0  0  0
  1  2  1  0  0  0  0
  1 11  1  0  0  0  0
  2  3  2  0  0  0  0
  3  4  1  0  0  0  0
  3 12  1  0  0  0  0
  4  5  1  0  0  0  0
  4 10  1  0  0  0  0
  5  9  1  0  0  0  0
  5  6  1  0  0  0  0
  5 13  1  0  0  0  0
  6  7  1  0  0  0  0
  6 14  1  0  0  0  0
  6 15  1  0  0  0  0
  7  8  1  0  0  0  0
  7 16  1  0  0  0  0
  7 17  1  0  0  0  0
  8  9  1  0  0  0  0
  8 18  1  0  0  0  0
  8 21  1  0  0  0  0
  9 19  1  0  0  0  0
  9 20  1  0  0  0  0
M  CHG  1   8   1
M  END
> <s_m_source_file>
AV-unprocessed.smi

> <i_m_source_file_index>
3070

> <i_lp_mmshare_version>
43012

> <i_f3d_flags>
0

> <s_epik_input>
bjFbY0hdbltjSF1uMVtDQEBIXTJbQ0gyXVtDSDJdW05IXVtDSDJdMg==

> <s_epik_cmdline>
J2VwaWtfcHl0aG9uJywgJy1waCcsICc3LjAnLCAnLXRuJywgJzgnLCAnLW1hJywgJzIwMCcsICctbWV0YWxfYmluZGluZycsICctaW1hZScsICc8aW5maWxlLm1hZT4nLCAnLW9tYWUnLCAnPG91dGZpbGUubWFlPic=

> <r_lp_tautomer_probability>
1

> <r_epik_Ionization_Penalty>
0.000421274

> <r_epik_Ionization_Penalty_Charging>
0.000420295

> <r_epik_Ionization_Penalty_Neutral>
9.79543e-07

> <r_epik_State_Penalty>
0.000258452

> <r_epik_Charging_Adjusted_Penalty>
0.000678746

> <i_epik_Tot_Q>
1

> <i_epik_Tot_abs_Q>
1

> <r_epik_Metal_State_Penalty>
-0

> <b_epik_Metal_Only>
0

> <s_lp_Force_Field>
OPLS_2005

> <r_lp_Energy>
29.098

> <b_lp_Chiralities_Consistent>
1

> <s_lp_Variant>
AV-unprocessed.smi:3070-2

> <Gold.Version>
5.8.1

> <Gold.Id.Protein>
6NUR|6NUR_protein|mol2

> <Gold.PLP.Fitness>
34.0787

> <Gold.PLP.PLP>
-28.1420

> <Gold.PLP.part.hbond>
-1.0000

> <Gold.PLP.part.metal>
0.0000

> <Gold.PLP.part.buried>
-4.5496

> <Gold.PLP.part.nonpolar>
-22.6748

> <Gold.PLP.part.repulsive>
0.2447

> <Gold.PLP.ligand.clash>
0.0000

> <Gold.PLP.ligand.torsion>
0.0342

> <Gold.PLP.Chemscore.Hbond>
2.0000

> <Gold.PLP.Chemscore.CHOScore>
0.0000

> <Gold.PLP.Chemscore.Metal>
0.0000

> <Gold.Chemscore.Hbonds>
donor molecule, donor type, donor heavy atom, donor atom, acceptor molecule, acceptor atom, score
      L1  H     8    21       P1  8028  1.98

> <Gold.PLP.Chemscore.Internal.Correction>
0.0050

> <Gold.Rescore>
     Score         DG    S(hbond)    S(metal)    S(lipo)     H(rot)  DE(clash)    DE(int)     intcor
     11.06     -11.11       0.99        0.00      41.81       1.00       0.05       0.00       ----

> <Gold.Chemscore.Fitness>
11.0584

> <Gold.Chemscore.DG>
-11.1101

> <Gold.Chemscore.ZeroCoef>
-5.4800

> <Gold.Chemscore.Hbond>
0.9877

> <Gold.Chemscore.Metal>
0.0000

> <Gold.Chemscore.Lipo>
41.8052

> <Gold.Chemscore.Internal_Hbond>
0.0000

> <Gold.Chemscore.DEClash>
0.0491

> <Gold.Chemscore.DEInternal>
0.0025

> <Gold.Chemscore.Rot>
1.0000

> <Gold.Chemscore.Internal.Correction>
   9.000000E+99

> <Gold.Chemscore.Hbonds>
donor molecule, donor type, donor heavy atom, donor atom, acceptor molecule, acceptor atom, score
      L1  H     8    21       P1  8028  0.92

> <Gold.Chemscore.Hbond.Weighted>
-3.2988

> <Gold.Chemscore.Metal.Weighted>
-0.0000

> <Gold.Chemscore.Lipo.Weighted>
-4.8912

> <Gold.Chemscore.Internal_Hbond.Weighted>
0.0000

> <Gold.Chemscore.DEClash.Weighted>
0.0491

> <Gold.Chemscore.DEInternal.Weighted>
0.0025

> <Gold.Chemscore.Rot.Weighted>
2.5600

> <Gold.Chemscore.Internal.Correction.Weighted>
   9.000000E+99

> <Gold.Protein.RotatedTorsions>
[ 6907 6896 6895 6894 ] final    5.84 input  -60.11 | X-H torsion
[ 7974 7965 7964 7962 ] final  145.13 input  175.53 | X-H torsion
[ 8008 7997 7996 7995 ] final   58.02 input   59.86 | X-H torsion
[ 10167 10162 10161 10158 ] final   -8.64 input  -65.29 | X-H torsion
[ 10718 10713 10712 10709 ] final -116.46 input   66.30 | X-H torsion
[ 10763 10752 10751 10750 ] final  -80.78 input  -60.55 | X-H torsion
[ 11005 11000 10999 10996 ] final  134.00 input  -57.11 | X-H torsion

> <Gold.Protein.ActiveResidues>
 VAL166  LYS551  ARG553  GLY616  TRP617  ASP618  TYR619  PRO620  LYS621  CYS622 
 ASP623  PHE694  ASN695  SER759  ASP760  ASP761  ALA762  ILE779  LEU786  VAL792 
 PHE793  MET794  SER795  GLU796  ALA797  LYS798  CYS799  TRP800  GLU811  SER814 

> <Gold.Protein.RotatedAtoms>
  151.6640  135.0985  160.0184 H   0  0  0  0  0  0  0  0  0  0  0  0  # atno 6907 bound_to 6896
  152.3930  133.6702  159.6261 H   0  0  0  0  0  0  0  0  0  0  0  0  # atno 6908 bound_to 6896
  150.7842  133.8839  159.3335 H   0  0  0  0  0  0  0  0  0  0  0  0  # atno 6909 bound_to 6896
  144.8778  139.5745  143.5857 H   0  0  0  0  0  0  0  0  0  0  0  0  # atno 7974 bound_to 7965
  155.5432  140.3485  155.4451 H   0  0  0  0  0  0  0  0  0  0  0  0  # atno 8008 bound_to 7997
  156.0637  140.1346  156.9938 H   0  0  0  0  0  0  0  0  0  0  0  0  # atno 8009 bound_to 7997
  154.4492  140.0980  156.6539 H   0  0  0  0  0  0  0  0  0  0  0  0  # atno 8010 bound_to 7997
  140.7065  143.5946  150.8859 H   0  0  0  0  0  0  0  0  0  0  0  0  # atno 10167 bound_to 10162
  156.0965  130.6136  150.9038 H   0  0  0  0  0  0  0  0  0  0  0  0  # atno 10718 bound_to 10713
  154.5555  135.5649  153.6960 H   0  0  0  0  0  0  0  0  0  0  0  0  # atno 10763 bound_to 10752
  153.0002  135.6261  154.2316 H   0  0  0  0  0  0  0  0  0  0  0  0  # atno 10764 bound_to 10752
  154.2252  135.2868  155.2890 H   0  0  0  0  0  0  0  0  0  0  0  0  # atno 10765 bound_to 10752
  139.9887  134.9523  156.9804 H   0  0  0  0  0  0  0  0  0  0  0  0  # atno 11005 bound_to 11000
  146.2974  139.7321  142.9116 LP  0  0  0  0  0  0  0  0  0  0  0  0  # atno 17320 bound_to 7965
  145.4010  141.0385  143.3071 LP  0  0  0  0  0  0  0  0  0  0  0  0  # atno 17321 bound_to 7965
  139.9671  143.6098  152.2985 LP  0  0  0  0  0  0  0  0  0  0  0  0  # atno 17342 bound_to 10162
  139.6672  144.7662  151.1852 LP  0  0  0  0  0  0  0  0  0  0  0  0  # atno 17343 bound_to 10162
  157.6127  131.0935  150.8766 LP  0  0  0  0  0  0  0  0  0  0  0  0  # atno 17370 bound_to 10713
  156.8903  130.5210  149.5286 LP  0  0  0  0  0  0  0  0  0  0  0  0  # atno 17371 bound_to 10713
  140.4951  134.1153  155.7240 LP  0  0  0  0  0  0  0  0  0  0  0  0  # atno 17394 bound_to 11000
  141.1547  133.8904  157.2008 LP  0  0  0  0  0  0  0  0  0  0  0  0  # atno 17395 bound_to 11000

$$$$
