AV-unprocessed.smi:3241|AV-procd|sdf|12391|dock10
  -GOLD-   2272018263D 1   1.00000     0.00000
 Structure written by MMmdl.
 43 44  0  0  0  0  0  0  0  0  1 V2000
  150.7934  137.9121  154.3440 C   0  0  0  0  0  0  0  0  0  0  0  0
  150.1612  139.3124  154.3393 C   0  0  2  0  0  0  0  0  0  0  0  0
  150.2710  139.9971  155.7170 C   0  0  0  0  0  0  0  0  0  0  0  0
  149.6672  141.4108  155.6961 C   0  0  0  0  0  0  0  0  0  0  0  0
  148.2126  141.3903  155.2035 C   0  0  0  0  0  0  0  0  0  0  0  0
  148.0992  140.7096  153.8300 C   0  0  0  0  0  0  0  0  0  0  0  0
  148.6983  139.2875  153.8427 C   0  0  2  0  0  0  0  0  0  0  0  0
  147.9271  138.4648  154.7151 O   0  0  0  0  0  0  0  0  0  0  0  0
  147.0581  137.5271  154.0883 C   0  0  0  0  0  0  0  0  0  0  0  0
  145.8961  138.2078  153.3479 C   0  0  0  0  0  0  0  0  0  0  0  0
  145.6921  137.6009  152.0385 N   0  0  0  0  0  0  0  0  0  0  0  0
  145.0947  136.2707  152.0888 C   0  0  0  0  0  0  0  0  0  0  0  0
  144.9597  135.6636  150.6837 C   0  0  0  0  0  0  0  0  0  0  0  0
  145.1510  134.2231  150.6932 N   0  0  0  0  0  0  0  0  0  0  0  0
  144.2535  133.2382  150.3375 C   0  0  0  0  0  0  0  0  0  0  0  0
  144.8749  132.0363  150.5204 C   0  0  0  0  0  0  0  0  0  0  0  0
  146.1678  132.3934  150.9956 C   0  0  0  0  0  0  0  0  0  0  0  0
  146.3307  133.7026  151.0965 N   0  0  0  0  0  0  0  0  0  0  0  0
  150.2968  137.2525  155.0563 H   0  0  0  0  0  0  0  0  0  0  0  0
  151.8481  137.9595  154.6164 H   0  0  0  0  0  0  0  0  0  0  0  0
  150.7276  137.4487  153.3592 H   0  0  0  0  0  0  0  0  0  0  0  0
  150.7331  139.9137  153.6309 H   0  0  0  0  0  0  0  0  0  0  0  0
  149.7622  139.3959  156.4716 H   0  0  0  0  0  0  0  0  0  0  0  0
  151.3160  140.0530  156.0233 H   0  0  0  0  0  0  0  0  0  0  0  0
  149.7156  141.8499  156.6930 H   0  0  0  0  0  0  0  0  0  0  0  0
  150.2630  142.0529  155.0464 H   0  0  0  0  0  0  0  0  0  0  0  0
  147.5869  140.8643  155.9259 H   0  0  0  0  0  0  0  0  0  0  0  0
  147.8257  142.4078  155.1460 H   0  0  0  0  0  0  0  0  0  0  0  0
  147.0558  140.6867  153.5176 H   0  0  0  0  0  0  0  0  0  0  0  0
  148.6225  141.3128  153.0873 H   0  0  0  0  0  0  0  0  0  0  0  0
  148.6889  138.8906  152.8259 H   0  0  0  0  0  0  0  0  0  0  0  0
  147.6300  136.8978  153.4050 H   0  0  0  0  0  0  0  0  0  0  0  0
  146.6642  136.8630  154.8581 H   0  0  0  0  0  0  0  0  0  0  0  0
  144.9821  138.1564  153.9396 H   0  0  0  0  0  0  0  0  0  0  0  0
  146.1232  139.2676  153.2278 H   0  0  0  0  0  0  0  0  0  0  0  0
  145.1372  138.2136  151.4494 H   0  0  0  0  0  0  0  0  0  0  0  0
  145.6979  135.6112  152.7139 H   0  0  0  0  0  0  0  0  0  0  0  0
  144.1106  136.3269  152.5551 H   0  0  0  0  0  0  0  0  0  0  0  0
  143.9650  135.8690  150.2867 H   0  0  0  0  0  0  0  0  0  0  0  0
  145.6717  136.1221  149.9951 H   0  0  0  0  0  0  0  0  0  0  0  0
  143.2575  133.4727  149.9919 H   0  0  0  0  0  0  0  0  0  0  0  0
  144.4679  131.0517  150.3443 H   0  0  0  0  0  0  0  0  0  0  0  0
  146.9867  131.7447  151.2698 H   0  0  0  0  0  0  0  0  0  0  0  0
  1  2  1  0  0  0  0
  1 19  1  0  0  0  0
  1 20  1  0  0  0  0
  1 21  1  0  0  0  0
  2  7  1  0  0  0  0
  2  3  1  0  0  0  0
  2 22  1  0  0  0  0
  3  4  1  0  0  0  0
  3 23  1  0  0  0  0
  3 24  1  0  0  0  0
  4  5  1  0  0  0  0
  4 25  1  0  0  0  0
  4 26  1  0  0  0  0
  5  6  1  0  0  0  0
  5 27  1  0  0  0  0
  5 28  1  0  0  0  0
  6  7  1  0  0  0  0
  6 29  1  0  0  0  0
  6 30  1  0  0  0  0
  7  8  1  0  0  0  0
  7 31  1  0  0  0  0
  8  9  1  0  0  0  0
  9 10  1  0  0  0  0
  9 32  1  0  0  0  0
  9 33  1  0  0  0  0
 10 11  1  0  0  0  0
 10 34  1  0  0  0  0
 10 35  1  0  0  0  0
 11 12  1  0  0  0  0
 11 36  1  0  0  0  0
 12 13  1  0  0  0  0
 12 37  1  0  0  0  0
 12 38  1  0  0  0  0
 13 14  1  0  0  0  0
 13 39  1  0  0  0  0
 13 40  1  0  0  0  0
 14 18  1  0  0  0  0
 14 15  1  0  0  0  0
 15 16  2  0  0  0  0
 15 41  1  0  0  0  0
 16 17  1  0  0  0  0
 16 42  1  0  0  0  0
 17 18  2  0  0  0  0
 17 43  1  0  0  0  0
M  END
> <s_m_source_file>
AV-unprocessed.smi

> <i_m_source_file_index>
3241

> <i_lp_mmshare_version>
43012

> <i_f3d_flags>
0

> <s_epik_input>
W0NIM11bQ0BASF0xW0NIMl1bQ0gyXVtDSDJdW0NIMl1bQ0BIXTFPW0NIMl1bQ0gyXVtOSF1bQ0gyXVtDSDJdbjJbY0hdW2NIXVtjSF1uMg==

> <s_epik_cmdline>
J2VwaWtfcHl0aG9uJywgJy1waCcsICc3LjAnLCAnLXRuJywgJzgnLCAnLW1hJywgJzIwMCcsICctbWV0YWxfYmluZGluZycsICctaW1hZScsICc8aW5maWxlLm1hZT4nLCAnLW9tYWUnLCAnPG91dGZpbGUubWFlPic=

> <r_lp_tautomer_probability>
1

> <r_epik_Ionization_Penalty>
2.47055

> <r_epik_Ionization_Penalty_Charging>
0

> <r_epik_Ionization_Penalty_Neutral>
2.47055

> <r_epik_State_Penalty>
2.6322

> <r_epik_Charging_Adjusted_Penalty>
2.6322

> <i_epik_Tot_Q>
0

> <i_epik_Tot_abs_Q>
0

> <r_epik_Metal_State_Penalty>
2.63108

> <b_epik_Metal_Only>
0

> <s_lp_Force_Field>
OPLS_2005

> <r_lp_Energy>
17.4206

> <b_lp_Chiralities_Consistent>
1

> <s_lp_Variant>
AV-unprocessed.smi:3241-7

> <Gold.Version>
5.8.1

> <Gold.Id.Protein>
6NUR|6NUR_protein|mol2

> <Gold.PLP.Fitness>
39.1860

> <Gold.PLP.PLP>
-32.6156

> <Gold.PLP.part.hbond>
-1.0000

> <Gold.PLP.part.metal>
0.0000

> <Gold.PLP.part.buried>
-1.5832

> <Gold.PLP.part.nonpolar>
-31.0946

> <Gold.PLP.part.repulsive>
0.2904

> <Gold.PLP.ligand.clash>
0.0000

> <Gold.PLP.ligand.torsion>
1.2561

> <Gold.PLP.Chemscore.Hbond>
0.9913

> <Gold.PLP.Chemscore.CHOScore>
2.0000

> <Gold.PLP.Chemscore.Metal>
0.0000

> <Gold.Chemscore.Hbonds>
donor molecule, donor type, donor heavy atom, donor atom, acceptor molecule, acceptor atom, score
      L1  H    11    36       P1 10171  0.83
      L1  C    15    41       P1 10186  1.00
      L1  C    17    43       P1 10747  1.00

> <Gold.PLP.Chemscore.Internal.Correction>
0.1088

> <Gold.Rescore>
     Score         DG    S(hbond)    S(metal)    S(lipo)     H(rot)  DE(clash)    DE(int)     intcor
     13.36     -14.96       0.99        0.00      91.93       1.79       0.35       1.25       ----

> <Gold.Chemscore.Fitness>
13.3633

> <Gold.Chemscore.DG>
-14.9621

> <Gold.Chemscore.ZeroCoef>
-5.4800

> <Gold.Chemscore.Hbond>
0.9908

> <Gold.Chemscore.Metal>
0.0000

> <Gold.Chemscore.Lipo>
91.9271

> <Gold.Chemscore.Internal_Hbond>
0.0000

> <Gold.Chemscore.DEClash>
0.3470

> <Gold.Chemscore.DEInternal>
1.2518

> <Gold.Chemscore.Rot>
1.7901

> <Gold.Chemscore.Internal.Correction>
   9.000000E+99

> <Gold.Chemscore.Hbonds>
donor molecule, donor type, donor heavy atom, donor atom, acceptor molecule, acceptor atom, score
      L1  H    11    36       P1 10171  0.78

> <Gold.Chemscore.Hbond.Weighted>
-3.3094

> <Gold.Chemscore.Metal.Weighted>
-0.0000

> <Gold.Chemscore.Lipo.Weighted>
-10.7555

> <Gold.Chemscore.Internal_Hbond.Weighted>
0.0000

> <Gold.Chemscore.DEClash.Weighted>
0.3470

> <Gold.Chemscore.DEInternal.Weighted>
1.2518

> <Gold.Chemscore.Rot.Weighted>
4.5827

> <Gold.Chemscore.Internal.Correction.Weighted>
   9.000000E+99

> <Gold.Protein.RotatedTorsions>
[ 6907 6896 6895 6894 ] final   -0.62 input  -60.11 | X-H torsion
[ 7974 7965 7964 7962 ] final  175.90 input  175.53 | X-H torsion
[ 8008 7997 7996 7995 ] final -172.45 input   59.86 | X-H torsion
[ 10167 10162 10161 10158 ] final  -52.97 input  -65.29 | X-H torsion
[ 10718 10713 10712 10709 ] final   91.02 input   66.30 | X-H torsion
[ 10763 10752 10751 10750 ] final  115.41 input  -60.55 | X-H torsion
[ 11005 11000 10999 10996 ] final  145.58 input  -57.11 | X-H torsion

> <Gold.Protein.ActiveResidues>
 VAL166  LYS551  ARG553  GLY616  TRP617  ASP618  TYR619  PRO620  LYS621  CYS622 
 ASP623  PHE694  ASN695  SER759  ASP760  ASP761  ALA762  ILE779  LEU786  VAL792 
 PHE793  MET794  SER795  GLU796  ALA797  LYS798  CYS799  TRP800  GLU811  SER814 

> <Gold.Protein.RotatedAtoms>
  151.5593  135.1066  159.9968 H   0  0  0  0  0  0  0  0  0  0  0  0  # atno 6907 bound_to 6896
  152.4454  133.7522  159.6711 H   0  0  0  0  0  0  0  0  0  0  0  0  # atno 6908 bound_to 6896
  150.8368  133.7932  159.3100 H   0  0  0  0  0  0  0  0  0  0  0  0  # atno 6909 bound_to 6896
  144.7193  140.0015  143.6440 H   0  0  0  0  0  0  0  0  0  0  0  0  # atno 7974 bound_to 7965
  155.9447  140.1115  157.1026 H   0  0  0  0  0  0  0  0  0  0  0  0  # atno 8008 bound_to 7997
  154.4096  140.1212  156.5039 H   0  0  0  0  0  0  0  0  0  0  0  0  # atno 8009 bound_to 7997
  155.6918  140.3472  155.4899 H   0  0  0  0  0  0  0  0  0  0  0  0  # atno 8010 bound_to 7997
  140.6510  143.2566  151.4724 H   0  0  0  0  0  0  0  0  0  0  0  0  # atno 10167 bound_to 10162
  157.6960  131.0392  150.3667 H   0  0  0  0  0  0  0  0  0  0  0  0  # atno 10718 bound_to 10713
  153.5217  135.3596  155.2635 H   0  0  0  0  0  0  0  0  0  0  0  0  # atno 10763 bound_to 10752
  154.8734  135.4047  154.3252 H   0  0  0  0  0  0  0  0  0  0  0  0  # atno 10764 bound_to 10752
  153.3924  135.7072  153.6552 H   0  0  0  0  0  0  0  0  0  0  0  0  # atno 10765 bound_to 10752
  140.0724  134.9144  157.1367 H   0  0  0  0  0  0  0  0  0  0  0  0  # atno 11005 bound_to 11000
  146.0331  139.3353  143.0743 LP  0  0  0  0  0  0  0  0  0  0  0  0  # atno 17320 bound_to 7965
  145.8428  140.9571  143.0790 LP  0  0  0  0  0  0  0  0  0  0  0  0  # atno 17321 bound_to 7965
  139.5725  144.1896  152.1856 LP  0  0  0  0  0  0  0  0  0  0  0  0  # atno 17342 bound_to 10162
  140.1196  144.5385  150.6871 LP  0  0  0  0  0  0  0  0  0  0  0  0  # atno 17343 bound_to 10162
  156.4096  130.3931  149.6901 LP  0  0  0  0  0  0  0  0  0  0  0  0  # atno 17370 bound_to 10713
  156.4189  130.7759  151.2775 LP  0  0  0  0  0  0  0  0  0  0  0  0  # atno 17371 bound_to 10713
  140.3608  134.2496  155.7187 LP  0  0  0  0  0  0  0  0  0  0  0  0  # atno 17394 bound_to 11000
  141.2017  133.7957  157.0429 LP  0  0  0  0  0  0  0  0  0  0  0  0  # atno 17395 bound_to 11000

$$$$
