AV-unprocessed.smi:2202|AV-procd|sdf|8929|dock2
  -GOLD-   2272012143D 1   1.00000     0.00000
 Structure written by MMmdl.
 42 44  0  0  0  0  0  0  0  0  1 V2000
  151.7078  135.8171  155.7372 O   0  0  0  0  0  0  0  0  0  0  0  0
  151.4140  136.9882  155.9826 C   0  0  0  0  0  0  0  0  0  0  0  0
  151.9720  138.1399  155.1335 C   0  0  0  0  0  0  0  0  0  0  0  0
  151.4114  139.4519  155.4889 N   0  0  0  0  0  0  0  0  0  0  0  0
  152.1106  140.4332  156.0734 C   0  0  0  0  0  0  0  0  0  0  0  0
  153.2942  140.3739  156.4085 O   0  0  0  0  0  0  0  0  0  0  0  0
  151.2565  141.6873  156.2736 C   0  0  2  0  0  0  0  0  0  0  0  0
  151.2448  142.1403  157.7574 C   0  0  0  0  0  0  0  0  0  0  0  0
  150.2393  141.3767  158.5942 C   0  0  0  0  0  0  0  0  0  0  0  0
  149.0559  141.0059  158.0878 C   0  0  0  0  0  0  0  0  0  0  0  0
  148.6767  141.3355  156.6589 C   0  0  0  0  0  0  0  0  0  0  0  0
  149.8827  141.2580  155.6856 C   0  0  2  0  0  0  0  0  0  0  0  0
  150.1498  139.8208  155.2326 C   0  0  0  0  0  0  0  0  0  0  0  0
  149.2910  139.1237  154.6913 O   0  0  0  0  0  0  0  0  0  0  0  0
  150.6066  137.3433  156.9932 N   0  0  0  0  0  0  0  0  0  0  0  0
  149.9785  136.4120  157.9233 C   0  0  0  0  0  0  0  0  0  0  0  0
  149.2930  137.1501  159.0856 C   0  0  0  0  0  0  0  0  0  0  0  0
  148.9912  136.2288  160.2519 C   0  0  0  0  0  0  0  0  0  0  0  0
  149.3266  134.8589  160.1958 C   0  0  0  0  0  0  0  0  0  0  0  0
  149.0300  134.0500  161.3102 C   0  0  0  0  0  0  0  0  0  0  0  0
  148.4144  134.6390  162.4315 C   0  0  0  0  0  0  0  0  0  0  0  0
  148.1216  136.0169  162.3888 C   0  0  0  0  0  0  0  0  0  0  0  0
  148.4024  136.8013  161.3261 N   0  0  0  0  0  0  0  0  0  0  0  0
  153.0586  138.1588  155.2356 H   0  0  0  0  0  0  0  0  0  0  0  0
  151.7795  137.9217  154.0817 H   0  0  0  0  0  0  0  0  0  0  0  0
  151.6931  142.4782  155.6621 H   0  0  0  0  0  0  0  0  0  0  0  0
  152.2326  142.0322  158.2076 H   0  0  0  0  0  0  0  0  0  0  0  0
  150.9992  143.2007  157.8215 H   0  0  0  0  0  0  0  0  0  0  0  0
  150.4825  141.1860  159.6292 H   0  0  0  0  0  0  0  0  0  0  0  0
  148.3213  140.5091  158.7047 H   0  0  0  0  0  0  0  0  0  0  0  0
  147.8755  140.6657  156.3438 H   0  0  0  0  0  0  0  0  0  0  0  0
  148.2519  142.3397  156.6469 H   0  0  0  0  0  0  0  0  0  0  0  0
  149.6595  141.8431  154.7925 H   0  0  0  0  0  0  0  0  0  0  0  0
  150.4140  138.3255  157.1277 H   0  0  0  0  0  0  0  0  0  0  0  0
  149.2440  135.8230  157.3732 H   0  0  0  0  0  0  0  0  0  0  0  0
  150.7211  135.7068  158.3012 H   0  0  0  0  0  0  0  0  0  0  0  0
  149.9240  137.9661  159.4412 H   0  0  0  0  0  0  0  0  0  0  0  0
  148.3657  137.6094  158.7404 H   0  0  0  0  0  0  0  0  0  0  0  0
  149.8001  134.4367  159.3217 H   0  0  0  0  0  0  0  0  0  0  0  0
  149.2705  132.9971  161.3051 H   0  0  0  0  0  0  0  0  0  0  0  0
  148.1722  134.0497  163.3035 H   0  0  0  0  0  0  0  0  0  0  0  0
  147.6499  136.5022  163.2303 H   0  0  0  0  0  0  0  0  0  0  0  0
  1  2  2  0  0  0  0
  2  3  1  0  0  0  0
  2 15  1  0  0  0  0
  3  4  1  0  0  0  0
  3 24  1  0  0  0  0
  3 25  1  0  0  0  0
  4 13  1  0  0  0  0
  4  5  1  0  0  0  0
  5  6  2  0  0  0  0
  5  7  1  0  0  0  0
  7 12  1  0  0  0  0
  7  8  1  0  0  0  0
  7 26  1  0  0  0  0
  8  9  1  0  0  0  0
  8 27  1  0  0  0  0
  8 28  1  0  0  0  0
  9 10  2  0  0  0  0
  9 29  1  0  0  0  0
 10 11  1  0  0  0  0
 10 30  1  0  0  0  0
 11 12  1  0  0  0  0
 11 31  1  0  0  0  0
 11 32  1  0  0  0  0
 12 13  1  0  0  0  0
 12 33  1  0  0  0  0
 13 14  2  0  0  0  0
 15 16  1  0  0  0  0
 15 34  1  0  0  0  0
 16 17  1  0  0  0  0
 16 35  1  0  0  0  0
 16 36  1  0  0  0  0
 17 18  1  0  0  0  0
 17 37  1  0  0  0  0
 17 38  1  0  0  0  0
 18 23  1  0  0  0  0
 18 19  2  0  0  0  0
 19 20  1  0  0  0  0
 19 39  1  0  0  0  0
 20 21  2  0  0  0  0
 20 40  1  0  0  0  0
 21 22  1  0  0  0  0
 21 41  1  0  0  0  0
 22 23  2  0  0  0  0
 22 42  1  0  0  0  0
M  END
> <s_m_source_file>
AV-unprocessed.smi

> <i_m_source_file_index>
2202

> <i_lp_mmshare_version>
43012

> <i_f3d_flags>
0

> <s_epik_input>
W0NIMl0xW0NIXT1bQ0hdW0NIMl1bQ0BIXShbQ0BIXTEyKUMoPU8pTihDMj1PKVtDSDJdQyg9TylbTkhdW0NIMl1bQ0gyXWMzW2NIXVtjSF1bY0hdW2NIXW4z

> <s_epik_cmdline>
J2VwaWtfcHl0aG9uJywgJy1waCcsICc3LjAnLCAnLXRuJywgJzgnLCAnLW1hJywgJzIwMCcsICctbWV0YWxfYmluZGluZycsICctaW1hZScsICc8aW5maWxlLm1hZT4nLCAnLW9tYWUnLCAnPG91dGZpbGUubWFlPic=

> <r_lp_tautomer_probability>
1

> <r_epik_Ionization_Penalty>
0.0244696

> <r_epik_Ionization_Penalty_Charging>
0

> <r_epik_Ionization_Penalty_Neutral>
0.0244696

> <r_epik_State_Penalty>
0.0198648

> <r_epik_Charging_Adjusted_Penalty>
0.0198648

> <i_epik_Tot_Q>
0

> <i_epik_Tot_abs_Q>
0

> <r_epik_Metal_State_Penalty>
0.0190699

> <b_epik_Metal_Only>
0

> <s_lp_Force_Field>
OPLS_2005

> <r_lp_Energy>
13.8656

> <b_lp_Chiralities_Consistent>
1

> <s_lp_Variant>
AV-unprocessed.smi:2202-1

> <Gold.Version>
5.8.1

> <Gold.Id.Protein>
6NUR|6NUR_protein|mol2

> <Gold.PLP.Fitness>
49.1789

> <Gold.PLP.PLP>
-41.1510

> <Gold.PLP.part.hbond>
-3.0000

> <Gold.PLP.part.metal>
0.0000

> <Gold.PLP.part.buried>
-6.1075

> <Gold.PLP.part.nonpolar>
-31.5157

> <Gold.PLP.part.repulsive>
0.2283

> <Gold.PLP.ligand.clash>
0.0000

> <Gold.PLP.ligand.torsion>
0.2263

> <Gold.PLP.Chemscore.Hbond>
2.8080

> <Gold.PLP.Chemscore.CHOScore>
0.0000

> <Gold.PLP.Chemscore.Metal>
0.0000

> <Gold.Chemscore.Hbonds>
donor molecule, donor type, donor heavy atom, donor atom, acceptor molecule, acceptor atom, score
      P1  H  6931  6943       L1    23  1.00
      P1  H  7997  8009       L1     6  0.04
      P1  H 10752 10765       L1     1  0.27

> <Gold.PLP.Chemscore.Internal.Correction>
0.0565

> <Gold.Rescore>
     Score         DG    S(hbond)    S(metal)    S(lipo)     H(rot)  DE(clash)    DE(int)     intcor
     16.93     -17.37       2.06        0.00      83.37       1.85       0.06       0.38       ----

> <Gold.Chemscore.Fitness>
16.9292

> <Gold.Chemscore.DG>
-17.3721

> <Gold.Chemscore.ZeroCoef>
-5.4800

> <Gold.Chemscore.Hbond>
2.0612

> <Gold.Chemscore.Metal>
0.0000

> <Gold.Chemscore.Lipo>
83.3658

> <Gold.Chemscore.Internal_Hbond>
0.0000

> <Gold.Chemscore.DEClash>
0.0580

> <Gold.Chemscore.DEInternal>
0.3849

> <Gold.Chemscore.Rot>
1.8540

> <Gold.Chemscore.Internal.Correction>
   9.000000E+99

> <Gold.Chemscore.Hbonds>
donor molecule, donor type, donor heavy atom, donor atom, acceptor molecule, acceptor atom, score
      P1  H  6931  6943       L1    23  0.62
      P1  H  7997  8009       L1     6  0.07
      P1  H 10752 10765       L1     1  0.21

> <Gold.Chemscore.Hbond.Weighted>
-6.8845

> <Gold.Chemscore.Metal.Weighted>
-0.0000

> <Gold.Chemscore.Lipo.Weighted>
-9.7538

> <Gold.Chemscore.Internal_Hbond.Weighted>
0.0000

> <Gold.Chemscore.DEClash.Weighted>
0.0580

> <Gold.Chemscore.DEInternal.Weighted>
0.3849

> <Gold.Chemscore.Rot.Weighted>
4.7462

> <Gold.Chemscore.Internal.Correction.Weighted>
   9.000000E+99

> <Gold.Protein.RotatedTorsions>
[ 6907 6896 6895 6894 ] final   -6.67 input  -60.11 | X-H torsion
[ 7974 7965 7964 7962 ] final   67.28 input  175.53 | X-H torsion
[ 8008 7997 7996 7995 ] final -143.96 input   59.86 | X-H torsion
[ 10167 10162 10161 10158 ] final  -14.47 input  -65.29 | X-H torsion
[ 10718 10713 10712 10709 ] final  -94.03 input   66.30 | X-H torsion
[ 10763 10752 10751 10750 ] final  151.27 input  -60.55 | X-H torsion
[ 11005 11000 10999 10996 ] final  124.18 input  -57.11 | X-H torsion

> <Gold.Protein.ActiveResidues>
 VAL166  LYS551  ARG553  GLY616  TRP617  ASP618  TYR619  PRO620  LYS621  CYS622 
 ASP623  PHE694  ASN695  SER759  ASP760  ASP761  ALA762  ILE779  LEU786  VAL792 
 PHE793  MET794  SER795  GLU796  ALA797  LYS798  CYS799  TRP800  GLU811  SER814 

> <Gold.Protein.RotatedAtoms>
  151.4619  135.1039  159.9726 H   0  0  0  0  0  0  0  0  0  0  0  0  # atno 6907 bound_to 6896
  152.4849  133.8344  159.7131 H   0  0  0  0  0  0  0  0  0  0  0  0  # atno 6908 bound_to 6896
  150.8951  133.7131  159.2921 H   0  0  0  0  0  0  0  0  0  0  0  0  # atno 6909 bound_to 6896
  145.8165  139.3061  143.1068 H   0  0  0  0  0  0  0  0  0  0  0  0  # atno 7974 bound_to 7965
  155.5191  140.0590  157.2910 H   0  0  0  0  0  0  0  0  0  0  0  0  # atno 8008 bound_to 7997
  154.4524  140.1955  156.0426 H   0  0  0  0  0  0  0  0  0  0  0  0  # atno 8009 bound_to 7997
  156.0731  140.3257  155.7604 H   0  0  0  0  0  0  0  0  0  0  0  0  # atno 8010 bound_to 7997
  140.7202  143.5318  150.9511 H   0  0  0  0  0  0  0  0  0  0  0  0  # atno 10167 bound_to 10162
  156.0021  130.5051  150.5865 H   0  0  0  0  0  0  0  0  0  0  0  0  # atno 10718 bound_to 10713
  154.1010  135.2845  155.3251 H   0  0  0  0  0  0  0  0  0  0  0  0  # atno 10763 bound_to 10752
  154.6555  135.5353  153.7957 H   0  0  0  0  0  0  0  0  0  0  0  0  # atno 10764 bound_to 10752
  153.0379  135.6521  154.1174 H   0  0  0  0  0  0  0  0  0  0  0  0  # atno 10765 bound_to 10752
  139.9347  134.9640  156.8371 H   0  0  0  0  0  0  0  0  0  0  0  0  # atno 11005 bound_to 11000
  145.9721  140.8752  143.0157 LP  0  0  0  0  0  0  0  0  0  0  0  0  # atno 17320 bound_to 7965
  144.6752  140.1960  143.7392 LP  0  0  0  0  0  0  0  0  0  0  0  0  # atno 17321 bound_to 7965
  139.9038  143.6803  152.3127 LP  0  0  0  0  0  0  0  0  0  0  0  0  # atno 17342 bound_to 10162
  139.7162  144.7611  151.1030 LP  0  0  0  0  0  0  0  0  0  0  0  0  # atno 17343 bound_to 10162
  157.3737  131.0769  151.1536 LP  0  0  0  0  0  0  0  0  0  0  0  0  # atno 17370 bound_to 10713
  157.2281  130.6512  149.5838 LP  0  0  0  0  0  0  0  0  0  0  0  0  # atno 17371 bound_to 10713
  140.6108  134.0084  155.7576 LP  0  0  0  0  0  0  0  0  0  0  0  0  # atno 17394 bound_to 11000
  141.0954  133.9851  157.3168 LP  0  0  0  0  0  0  0  0  0  0  0  0  # atno 17395 bound_to 11000

$$$$
