AV-unprocessed.smi:481|AV-procd|sdf|2681|dock1
  -GOLD-   2262023103D 1   1.00000     0.00000
 Structure written by MMmdl.
 43 45  0  0  0  0  0  0  0  0  1 V2000
  151.4130  138.1663  154.7370 C   0  0  0  0  0  0  0  0  0  0  0  0
  151.3884  136.8283  155.2087 O   0  0  0  0  0  0  0  0  0  0  0  0
  151.2601  136.7134  156.6190 C   0  0  0  0  0  0  0  0  0  0  0  0
  150.1631  137.6393  157.1709 C   0  0  0  0  0  0  0  0  0  0  0  0
  150.7093  138.9308  157.5723 N   0  0  0  0  0  0  0  0  0  0  0  0
  150.4241  140.1519  157.0529 C   0  0  0  0  0  0  0  0  0  0  0  0
  149.5024  140.2544  156.0014 N   0  0  0  0  0  0  0  0  0  0  0  0
  149.1713  141.4180  155.4398 N   0  0  0  0  0  0  0  0  0  0  0  0
  148.3243  141.4939  154.4644 C   0  0  0  0  0  0  0  0  0  0  0  0
  147.5003  140.4030  153.8998 C   0  0  0  0  0  0  0  0  0  0  0  0
  147.3558  140.1979  152.5067 C   0  0  0  0  0  0  0  0  0  0  0  0
  146.5584  139.1449  152.0184 C   0  0  0  0  0  0  0  0  0  0  0  0
  145.9076  138.2785  152.9164 C   0  0  0  0  0  0  0  0  0  0  0  0
  146.0609  138.4626  154.3033 C   0  0  0  0  0  0  0  0  0  0  0  0
  146.8577  139.5168  154.7915 C   0  0  0  0  0  0  0  0  0  0  0  0
  151.0854  141.1648  157.6273 N   0  0  0  0  0  0  0  0  0  0  0  0
  151.8561  140.5318  158.5907 C   0  0  0  0  0  0  0  0  0  0  0  0
  151.6394  139.1923  158.5775 C   0  0  0  0  0  0  0  0  0  0  0  0
  152.3148  138.2739  159.5023 C   0  0  0  0  0  0  0  0  0  0  0  0
  152.1199  137.0605  159.5148 O   0  0  0  0  0  0  0  0  0  0  0  0
  153.1722  138.9033  160.3426 N   0  0  0  0  0  0  0  0  0  0  0  0
  153.4412  140.2434  160.4058 C   0  0  0  0  0  0  0  0  0  0  0  0
  154.2508  140.6703  161.2289 O   0  0  0  0  0  0  0  0  0  0  0  0
  152.7813  141.0683  159.5306 N   0  0  0  0  0  0  0  0  0  0  0  0
  153.0276  142.5113  159.5568 C   0  0  0  0  0  0  0  0  0  0  0  0
  153.6669  138.3169  160.9988 H   0  0  0  0  0  0  0  0  0  0  0  0
  151.4577  138.1650  153.6480 H   0  0  0  0  0  0  0  0  0  0  0  0
  152.2838  138.7105  155.1018 H   0  0  0  0  0  0  0  0  0  0  0  0
  150.5129  138.7063  155.0330 H   0  0  0  0  0  0  0  0  0  0  0  0
  151.0854  135.6763  156.9097 H   0  0  0  0  0  0  0  0  0  0  0  0
  152.2187  136.9971  157.0542 H   0  0  0  0  0  0  0  0  0  0  0  0
  149.3854  137.7981  156.4248 H   0  0  0  0  0  0  0  0  0  0  0  0
  149.6592  137.1859  158.0235 H   0  0  0  0  0  0  0  0  0  0  0  0
  148.8497  139.4858  155.9469 H   0  0  0  0  0  0  0  0  0  0  0  0
  148.2071  142.4701  153.9933 H   0  0  0  0  0  0  0  0  0  0  0  0
  147.8566  140.8430  151.8000 H   0  0  0  0  0  0  0  0  0  0  0  0
  146.4486  139.0005  150.9537 H   0  0  0  0  0  0  0  0  0  0  0  0
  145.2963  137.4706  152.5420 H   0  0  0  0  0  0  0  0  0  0  0  0
  145.5668  137.7954  154.9941 H   0  0  0  0  0  0  0  0  0  0  0  0
  146.9627  139.6459  155.8594 H   0  0  0  0  0  0  0  0  0  0  0  0
  152.7646  142.9259  160.5310 H   0  0  0  0  0  0  0  0  0  0  0  0
  152.4487  143.0500  158.8068 H   0  0  0  0  0  0  0  0  0  0  0  0
  154.0810  142.7236  159.3691 H   0  0  0  0  0  0  0  0  0  0  0  0
  1  2  1  0  0  0  0
  1 27  1  0  0  0  0
  1 28  1  0  0  0  0
  1 29  1  0  0  0  0
  2  3  1  0  0  0  0
  3  4  1  0  0  0  0
  3 30  1  0  0  0  0
  3 31  1  0  0  0  0
  4  5  1  0  0  0  0
  4 32  1  0  0  0  0
  4 33  1  0  0  0  0
  5 18  1  0  0  0  0
  5  6  1  0  0  0  0
  6  7  1  0  0  0  0
  6 16  2  0  0  0  0
  7  8  1  0  0  0  0
  7 34  1  0  0  0  0
  8  9  2  0  0  0  0
  9 10  1  0  0  0  0
  9 35  1  0  0  0  0
 10 15  1  0  0  0  0
 10 11  2  0  0  0  0
 11 12  1  0  0  0  0
 11 36  1  0  0  0  0
 12 13  2  0  0  0  0
 12 37  1  0  0  0  0
 13 14  1  0  0  0  0
 13 38  1  0  0  0  0
 14 15  2  0  0  0  0
 14 39  1  0  0  0  0
 15 40  1  0  0  0  0
 16 17  1  0  0  0  0
 17 24  1  0  0  0  0
 17 18  2  0  0  0  0
 18 19  1  0  0  0  0
 19 20  2  0  0  0  0
 19 21  1  0  0  0  0
 21 26  1  0  0  0  0
 21 22  1  0  0  0  0
 22 23  2  0  0  0  0
 22 24  1  0  0  0  0
 24 25  1  0  0  0  0
 25 41  1  0  0  0  0
 25 42  1  0  0  0  0
 25 43  1  0  0  0  0
M  END
> <s_m_source_file>
AV-unprocessed.smi

> <i_m_source_file_index>
481

> <i_lp_mmshare_version>
43012

> <i_f3d_flags>
0

> <s_epik_input>
W0NIM11uMWMoPU8pW25IXWMoPU8pYyhjMTIpbihbQ0gyXVtDSDJdT1tDSDNdKWMobjIpW05IXS9OPVtDSF0vYzNbY0hdW2NIXVtjSF1bY0hdW2NIXTM=

> <s_epik_cmdline>
J2VwaWtfcHl0aG9uJywgJy1waCcsICc3LjAnLCAnLXRuJywgJzgnLCAnLW1hJywgJzIwMCcsICctbWV0YWxfYmluZGluZycsICctaW1hZScsICc8aW5maWxlLm1hZT4nLCAnLW9tYWUnLCAnPG91dGZpbGUubWFlPic=

> <r_epik_Ionization_Penalty>
0.000595515

> <r_epik_Ionization_Penalty_Charging>
0.000305988

> <r_epik_Ionization_Penalty_Neutral>
0.000289528

> <r_epik_State_Penalty>
0.000184189

> <r_epik_Charging_Adjusted_Penalty>
0.000490177

> <i_epik_Tot_Q>
0

> <i_epik_Tot_abs_Q>
0

> <r_epik_Metal_State_Penalty>
0.173754

> <b_epik_Metal_Only>
0

> <s_epik_Chemistry_Notes>
This compound has an imine and may undergo hydrolysis.

> <s_lp_Force_Field>
OPLS_2005

> <r_lp_Energy>
46.456

> <b_lp_Chiralities_Consistent>
1

> <s_lp_Variant>
AV-unprocessed.smi:481-2

> <Gold.Version>
5.8.1

> <Gold.Id.Protein>
6NUR|6NUR_protein|mol2

> <Gold.PLP.Fitness>
39.6499

> <Gold.PLP.PLP>
-34.3884

> <Gold.PLP.part.hbond>
-2.0000

> <Gold.PLP.part.metal>
0.0000

> <Gold.PLP.part.buried>
-1.8893

> <Gold.PLP.part.nonpolar>
-31.6102

> <Gold.PLP.part.repulsive>
0.3246

> <Gold.PLP.ligand.clash>
0.0000

> <Gold.PLP.ligand.torsion>
0.6333

> <Gold.PLP.Chemscore.Hbond>
1.9913

> <Gold.PLP.Chemscore.CHOScore>
0.0000

> <Gold.PLP.Chemscore.Metal>
0.0000

> <Gold.Chemscore.Hbonds>
donor molecule, donor type, donor heavy atom, donor atom, acceptor molecule, acceptor atom, score
      P1  H  6896  6908       L1    20  1.00
      P1  H 10752 10764       L1     2  0.89

> <Gold.PLP.Chemscore.Internal.Correction>
0.5544

> <Gold.Rescore>
     Score         DG    S(hbond)    S(metal)    S(lipo)     H(rot)  DE(clash)    DE(int)     intcor
     12.74     -15.88       1.79        0.00      71.48       1.54       1.64       1.50       ----

> <Gold.Chemscore.Fitness>
12.7399

> <Gold.Chemscore.DG>
-15.8838

> <Gold.Chemscore.ZeroCoef>
-5.4800

> <Gold.Chemscore.Hbond>
1.7917

> <Gold.Chemscore.Metal>
0.0000

> <Gold.Chemscore.Lipo>
71.4842

> <Gold.Chemscore.Internal_Hbond>
0.0000

> <Gold.Chemscore.DEClash>
1.6413

> <Gold.Chemscore.DEInternal>
1.5027

> <Gold.Chemscore.Rot>
1.5406

> <Gold.Chemscore.Internal.Correction>
   9.000000E+99

> <Gold.Chemscore.Hbonds>
donor molecule, donor type, donor heavy atom, donor atom, acceptor molecule, acceptor atom, score
      P1  H  6896  6908       L1    20  0.94
      P1  H 10752 10764       L1     2  0.56

> <Gold.Chemscore.Hbond.Weighted>
-5.9841

> <Gold.Chemscore.Metal.Weighted>
-0.0000

> <Gold.Chemscore.Lipo.Weighted>
-8.3637

> <Gold.Chemscore.Internal_Hbond.Weighted>
0.0000

> <Gold.Chemscore.DEClash.Weighted>
1.6413

> <Gold.Chemscore.DEInternal.Weighted>
1.5027

> <Gold.Chemscore.Rot.Weighted>
3.9440

> <Gold.Chemscore.Internal.Correction.Weighted>
   9.000000E+99

> <Gold.Protein.RotatedTorsions>
[ 6907 6896 6895 6894 ] final -103.41 input  -60.11 | X-H torsion
[ 7974 7965 7964 7962 ] final  140.68 input  175.53 | X-H torsion
[ 8008 7997 7996 7995 ] final  -73.45 input   59.86 | X-H torsion
[ 10167 10162 10161 10158 ] final -109.41 input  -65.29 | X-H torsion
[ 10718 10713 10712 10709 ] final   43.31 input   66.30 | X-H torsion
[ 10763 10752 10751 10750 ] final  -61.05 input  -60.55 | X-H torsion
[ 11005 11000 10999 10996 ] final   67.07 input  -57.11 | X-H torsion

> <Gold.Protein.ActiveResidues>
 VAL166  LYS551  ARG553  GLY616  TRP617  ASP618  TYR619  PRO620  LYS621  CYS622 
 ASP623  PHE694  ASN695  SER759  ASP760  ASP761  ALA762  ILE779  LEU786  VAL792 
 PHE793  MET794  SER795  GLU796  ALA797  LYS798  CYS799  TRP800  GLU811  SER814 

> <Gold.Protein.RotatedAtoms>
  150.7239  134.0433  159.3772 H   0  0  0  0  0  0  0  0  0  0  0  0  # atno 6907 bound_to 6896
  151.8407  135.0589  160.0457 H   0  0  0  0  0  0  0  0  0  0  0  0  # atno 6908 bound_to 6896
  152.2864  133.5483  159.5566 H   0  0  0  0  0  0  0  0  0  0  0  0  # atno 6909 bound_to 6896
  144.9165  139.5224  143.5684 H   0  0  0  0  0  0  0  0  0  0  0  0  # atno 7974 bound_to 7965
  154.5248  140.0779  156.8238 H   0  0  0  0  0  0  0  0  0  0  0  0  # atno 8008 bound_to 7997
  155.3499  140.3412  155.4221 H   0  0  0  0  0  0  0  0  0  0  0  0  # atno 8009 bound_to 7997
  156.1720  140.1623  156.8417 H   0  0  0  0  0  0  0  0  0  0  0  0  # atno 8010 bound_to 7997
  140.1556  143.4162  152.1463 H   0  0  0  0  0  0  0  0  0  0  0  0  # atno 10167 bound_to 10162
  157.4145  130.7933  149.7459 H   0  0  0  0  0  0  0  0  0  0  0  0  # atno 10718 bound_to 10713
  154.2786  135.6276  153.5338 H   0  0  0  0  0  0  0  0  0  0  0  0  # atno 10763 bound_to 10752
  152.9869  135.5627  154.5520 H   0  0  0  0  0  0  0  0  0  0  0  0  # atno 10764 bound_to 10752
  154.5106  135.2877  155.1321 H   0  0  0  0  0  0  0  0  0  0  0  0  # atno 10765 bound_to 10752
  139.9793  134.6771  156.0293 H   0  0  0  0  0  0  0  0  0  0  0  0  # atno 11005 bound_to 11000
  146.3184  139.8011  142.8965 LP  0  0  0  0  0  0  0  0  0  0  0  0  # atno 17320 bound_to 7965
  145.3367  141.0279  143.3415 LP  0  0  0  0  0  0  0  0  0  0  0  0  # atno 17321 bound_to 7965
  139.5405  144.7251  151.4750 LP  0  0  0  0  0  0  0  0  0  0  0  0  # atno 17342 bound_to 10162
  140.6675  143.8366  150.6959 LP  0  0  0  0  0  0  0  0  0  0  0  0  # atno 17343 bound_to 10162
  155.9861  130.3978  150.3230 LP  0  0  0  0  0  0  0  0  0  0  0  0  # atno 17370 bound_to 10713
  157.1372  131.0287  151.2943 LP  0  0  0  0  0  0  0  0  0  0  0  0  # atno 17371 bound_to 10713
  141.1467  133.6555  156.3888 LP  0  0  0  0  0  0  0  0  0  0  0  0  # atno 17394 bound_to 11000
  140.5130  134.6377  157.5291 LP  0  0  0  0  0  0  0  0  0  0  0  0  # atno 17395 bound_to 11000

$$$$
