AV-unprocessed.smi:1240|AV-procd|sdf|5203|dock6
  -GOLD-   22720 4293D 1   1.00000     0.00000
 Structure written by MMmdl.
 48 50  0  0  0  0  0  0  0  0  2 V2000
  144.5018  136.3295  152.6073 O   0  0  0  0  0  0  0  0  0  0  0  0
  145.7005  136.2487  152.3404 C   0  0  0  0  0  0  0  0  0  0  0  0
  146.5854  137.2176  152.6165 N   0  0  0  0  0  0  0  0  0  0  0  0
  146.2657  138.4923  153.2521 C   0  0  0  0  0  0  0  0  0  0  0  0
  146.6760  138.5936  154.7615 C   0  0  2  0  0  0  0  0  0  0  0  0
  145.5108  139.2722  155.5730 C   0  0  2  0  0  0  0  0  0  0  0  0
  145.6635  139.3879  157.0821 C   0  0  0  0  0  0  0  0  0  0  0  0
  144.2565  139.7535  157.5314 C   0  0  0  0  0  0  0  0  0  0  0  0
  143.4051  139.0065  156.6775 O   0  0  0  0  0  0  0  0  0  0  0  0
  144.1325  138.5877  155.5269 C   0  0  0  0  0  0  0  0  0  0  0  0
  147.9737  139.2964  154.9873 N   0  0  0  0  0  0  0  0  0  0  0  0
  148.0469  140.6801  154.5009 C   0  0  0  0  0  0  0  0  0  0  0  0
  149.4035  141.3441  154.7990 C   0  0  0  0  0  0  0  0  0  0  0  0
  150.4538  140.5781  154.2254 O   0  0  0  0  0  0  0  0  0  0  0  0
  150.4601  139.2382  154.6981 C   0  0  0  0  0  0  0  0  0  0  0  0
  149.1066  138.5789  154.3852 C   0  0  0  0  0  0  0  0  0  0  0  0
  146.2926  135.2123  151.7218 N   0  0  0  0  0  0  0  0  0  0  0  0
  145.7063  134.0083  151.2442 C   0  0  0  0  0  0  0  0  0  0  0  0
  144.3245  133.8222  151.4721 C   0  0  0  0  0  0  0  0  0  0  0  0
  143.6929  132.6512  151.0059 C   0  0  0  0  0  0  0  0  0  0  0  0
  144.4090  131.7216  150.3381 N   0  3  0  0  0  0  0  0  0  0  0  0
  145.7279  131.8603  150.0840 C   0  0  0  0  0  0  0  0  0  0  0  0
  146.4137  133.0104  150.5257 C   0  0  0  0  0  0  0  0  0  0  0  0
  147.5506  137.0708  152.3591 H   0  0  0  0  0  0  0  0  0  0  0  0
  146.7721  139.2360  152.6377 H   0  0  0  0  0  0  0  0  0  0  0  0
  145.1970  138.6778  153.1388 H   0  0  0  0  0  0  0  0  0  0  0  0
  146.7881  137.5693  155.1200 H   0  0  0  0  0  0  0  0  0  0  0  0
  145.3886  140.2864  155.1884 H   0  0  0  0  0  0  0  0  0  0  0  0
  145.9371  138.4253  157.5167 H   0  0  0  0  0  0  0  0  0  0  0  0
  146.3911  140.1402  157.3879 H   0  0  0  0  0  0  0  0  0  0  0  0
  144.0760  139.5239  158.5818 H   0  0  0  0  0  0  0  0  0  0  0  0
  144.0697  140.8169  157.3755 H   0  0  0  0  0  0  0  0  0  0  0  0
  143.5686  138.8431  154.6298 H   0  0  0  0  0  0  0  0  0  0  0  0
  144.2352  137.5027  155.5720 H   0  0  0  0  0  0  0  0  0  0  0  0
  147.8566  140.7101  153.4269 H   0  0  0  0  0  0  0  0  0  0  0  0
  147.2870  141.2928  154.9850 H   0  0  0  0  0  0  0  0  0  0  0  0
  149.4315  142.3516  154.3840 H   0  0  0  0  0  0  0  0  0  0  0  0
  149.5587  141.4372  155.8751 H   0  0  0  0  0  0  0  0  0  0  0  0
  151.2684  138.6945  154.2093 H   0  0  0  0  0  0  0  0  0  0  0  0
  150.6622  139.2188  155.7702 H   0  0  0  0  0  0  0  0  0  0  0  0
  149.1619  137.5484  154.7125 H   0  0  0  0  0  0  0  0  0  0  0  0
  148.9759  138.5377  153.3026 H   0  0  0  0  0  0  0  0  0  0  0  0
  147.2729  135.3285  151.5100 H   0  0  0  0  0  0  0  0  0  0  0  0
  143.7501  134.5668  152.0045 H   0  0  0  0  0  0  0  0  0  0  0  0
  142.6440  132.4332  151.1443 H   0  0  0  0  0  0  0  0  0  0  0  0
  146.1917  131.0551  149.5327 H   0  0  0  0  0  0  0  0  0  0  0  0
  147.4629  133.1071  150.2934 H   0  0  0  0  0  0  0  0  0  0  0  0
  143.9332  130.8815  150.0076 H   0  0  0  0  0  0  0  0  0  0  0  0
  1  2  2  0  0  0  0
  2  3  1  0  0  0  0
  2 17  1  0  0  0  0
  3  4  1  0  0  0  0
  3 24  1  0  0  0  0
  4  5  1  0  0  0  0
  4 25  1  0  0  0  0
  4 26  1  0  0  0  0
  5  6  1  0  0  0  0
  5 11  1  0  0  0  0
  5 27  1  0  0  0  0
  6 10  1  0  0  0  0
  6  7  1  0  0  0  0
  6 28  1  0  0  0  0
  7  8  1  0  0  0  0
  7 29  1  0  0  0  0
  7 30  1  0  0  0  0
  8  9  1  0  0  0  0
  8 31  1  0  0  0  0
  8 32  1  0  0  0  0
  9 10  1  0  0  0  0
 10 33  1  0  0  0  0
 10 34  1  0  0  0  0
 11 16  1  0  0  0  0
 11 12  1  0  0  0  0
 12 13  1  0  0  0  0
 12 35  1  0  0  0  0
 12 36  1  0  0  0  0
 13 14  1  0  0  0  0
 13 37  1  0  0  0  0
 13 38  1  0  0  0  0
 14 15  1  0  0  0  0
 15 16  1  0  0  0  0
 15 39  1  0  0  0  0
 15 40  1  0  0  0  0
 16 41  1  0  0  0  0
 16 42  1  0  0  0  0
 17 18  1  0  0  0  0
 17 43  1  0  0  0  0
 18 23  1  0  0  0  0
 18 19  2  0  0  0  0
 19 20  1  0  0  0  0
 19 44  1  0  0  0  0
 20 21  2  0  0  0  0
 20 45  1  0  0  0  0
 21 22  1  0  0  0  0
 21 48  1  0  0  0  0
 22 23  2  0  0  0  0
 22 46  1  0  0  0  0
 23 47  1  0  0  0  0
M  CHG  1  21   1
M  END
> <s_m_source_file>
AV-unprocessed.smi

> <i_m_source_file_index>
1240

> <i_lp_mmshare_version>
43012

> <i_f3d_flags>
0

> <s_epik_input>
W2NIXTFbY0hdbltjSF1bY0hdYzFbTkhdQyg9TylbTkhdW0NIMl1bQ0BIXShbQ0BASF0yW0NIMl1bQ0gyXU9bQ0gyXTIpTjNbQ0gyXVtDSDJdT1tDSDJdW0NIMl0z

> <s_epik_cmdline>
J2VwaWtfcHl0aG9uJywgJy1waCcsICc3LjAnLCAnLXRuJywgJzgnLCAnLW1hJywgJzIwMCcsICctbWV0YWxfYmluZGluZycsICctaW1hZScsICc8aW5maWxlLm1hZT4nLCAnLW9tYWUnLCAnPG91dGZpbGUubWFlPic=

> <r_epik_Ionization_Penalty>
1.15944

> <r_epik_Ionization_Penalty_Charging>
1.0344

> <r_epik_Ionization_Penalty_Neutral>
0.125034

> <r_epik_State_Penalty>
1.2199

> <r_epik_Charging_Adjusted_Penalty>
2.25431

> <i_epik_Tot_Q>
1

> <i_epik_Tot_abs_Q>
1

> <r_epik_Metal_State_Penalty>
1.3155

> <b_epik_Metal_Only>
0

> <s_lp_Force_Field>
OPLS_2005

> <r_lp_Energy>
66.7815

> <b_lp_Chiralities_Consistent>
1

> <s_lp_Variant>
AV-unprocessed.smi:1240-9

> <Gold.Version>
5.8.1

> <Gold.Id.Protein>
6NUR|6NUR_protein|mol2

> <Gold.PLP.Fitness>
38.4771

> <Gold.PLP.PLP>
-30.8362

> <Gold.PLP.part.hbond>
-2.7411

> <Gold.PLP.part.metal>
0.0000

> <Gold.PLP.part.buried>
-6.7709

> <Gold.PLP.part.nonpolar>
-23.8432

> <Gold.PLP.part.repulsive>
0.5851

> <Gold.PLP.ligand.clash>
0.0000

> <Gold.PLP.ligand.torsion>
0.7181

> <Gold.PLP.Chemscore.Hbond>
2.9920

> <Gold.PLP.Chemscore.CHOScore>
0.0000

> <Gold.PLP.Chemscore.Metal>
0.0000

> <Gold.Chemscore.Hbonds>
donor molecule, donor type, donor heavy atom, donor atom, acceptor molecule, acceptor atom, score
      L1  H     3    24       P1  7948  1.00
      L1  H    17    43       P1  7948  1.00
      P1  H  7989  7998       L1    14  0.61

> <Gold.PLP.Chemscore.Internal.Correction>
0.1010

> <Gold.Rescore>
     Score         DG    S(hbond)    S(metal)    S(lipo)     H(rot)  DE(clash)    DE(int)     intcor
     16.98     -19.16       2.79        0.00      74.37       1.69       0.01       2.17       ----

> <Gold.Chemscore.Fitness>
16.9801

> <Gold.Chemscore.DG>
-19.1588

> <Gold.Chemscore.ZeroCoef>
-5.4800

> <Gold.Chemscore.Hbond>
2.7864

> <Gold.Chemscore.Metal>
0.0000

> <Gold.Chemscore.Lipo>
74.3746

> <Gold.Chemscore.Internal_Hbond>
0.0000

> <Gold.Chemscore.DEClash>
0.0112

> <Gold.Chemscore.DEInternal>
2.1675

> <Gold.Chemscore.Rot>
1.6912

> <Gold.Chemscore.Internal.Correction>
   9.000000E+99

> <Gold.Chemscore.Hbonds>
donor molecule, donor type, donor heavy atom, donor atom, acceptor molecule, acceptor atom, score
      L1  H     3    24       P1  7948  0.99
      L1  H    17    43       P1  7948  0.88
      P1  H  7989  7998       L1    14  0.49

> <Gold.Chemscore.Hbond.Weighted>
-9.3065

> <Gold.Chemscore.Metal.Weighted>
-0.0000

> <Gold.Chemscore.Lipo.Weighted>
-8.7018

> <Gold.Chemscore.Internal_Hbond.Weighted>
0.0000

> <Gold.Chemscore.DEClash.Weighted>
0.0112

> <Gold.Chemscore.DEInternal.Weighted>
2.1675

> <Gold.Chemscore.Rot.Weighted>
4.3295

> <Gold.Chemscore.Internal.Correction.Weighted>
   9.000000E+99

> <Gold.Protein.RotatedTorsions>
[ 6907 6896 6895 6894 ] final  -57.52 input  -60.11 | X-H torsion
[ 7974 7965 7964 7962 ] final  171.25 input  175.53 | X-H torsion
[ 8008 7997 7996 7995 ] final    5.33 input   59.86 | X-H torsion
[ 10167 10162 10161 10158 ] final   46.00 input  -65.29 | X-H torsion
[ 10718 10713 10712 10709 ] final   69.45 input   66.30 | X-H torsion
[ 10763 10752 10751 10750 ] final  -51.75 input  -60.55 | X-H torsion
[ 11005 11000 10999 10996 ] final   20.27 input  -57.11 | X-H torsion

> <Gold.Protein.ActiveResidues>
 VAL166  LYS551  ARG553  GLY616  TRP617  ASP618  TYR619  PRO620  LYS621  CYS622 
 ASP623  PHE694  ASN695  SER759  ASP760  ASP761  ALA762  ILE779  LEU786  VAL792 
 PHE793  MET794  SER795  GLU796  ALA797  LYS798  CYS799  TRP800  GLU811  SER814 

> <Gold.Protein.RotatedAtoms>
  150.8080  134.7217  159.6661 H   0  0  0  0  0  0  0  0  0  0  0  0  # atno 6907 bound_to 6896
  152.4199  134.5970  159.9999 H   0  0  0  0  0  0  0  0  0  0  0  0  # atno 6908 bound_to 6896
  151.6188  133.3303  159.3119 H   0  0  0  0  0  0  0  0  0  0  0  0  # atno 6909 bound_to 6896
  144.7300  139.9323  143.6425 H   0  0  0  0  0  0  0  0  0  0  0  0  # atno 7974 bound_to 7965
  154.7270  140.2723  155.6490 H   0  0  0  0  0  0  0  0  0  0  0  0  # atno 8008 bound_to 7997
  156.2839  140.2723  156.1884 H   0  0  0  0  0  0  0  0  0  0  0  0  # atno 8009 bound_to 7997
  155.0431  140.0371  157.2507 H   0  0  0  0  0  0  0  0  0  0  0  0  # atno 8010 bound_to 7997
  140.3184  144.2735  150.6187 H   0  0  0  0  0  0  0  0  0  0  0  0  # atno 10167 bound_to 10162
  157.6346  130.9426  150.0515 H   0  0  0  0  0  0  0  0  0  0  0  0  # atno 10718 bound_to 10713
  154.1316  135.6519  153.4923 H   0  0  0  0  0  0  0  0  0  0  0  0  # atno 10763 bound_to 10752
  153.0193  135.5294  154.6995 H   0  0  0  0  0  0  0  0  0  0  0  0  # atno 10764 bound_to 10752
  154.6231  135.2967  155.0273 H   0  0  0  0  0  0  0  0  0  0  0  0  # atno 10765 bound_to 10752
  140.4045  134.1683  155.7665 H   0  0  0  0  0  0  0  0  0  0  0  0  # atno 11005 bound_to 11000
  146.0848  139.3836  143.0442 LP  0  0  0  0  0  0  0  0  0  0  0  0  # atno 17320 bound_to 7965
  145.7791  140.9864  143.1108 LP  0  0  0  0  0  0  0  0  0  0  0  0  # atno 17321 bound_to 7965
  140.5505  143.2207  151.7934 LP  0  0  0  0  0  0  0  0  0  0  0  0  # atno 17342 bound_to 10162
  139.4879  144.4482  151.9685 LP  0  0  0  0  0  0  0  0  0  0  0  0  # atno 17343 bound_to 10162
  156.1575  130.3643  149.9347 LP  0  0  0  0  0  0  0  0  0  0  0  0  # atno 17370 bound_to 10713
  156.7353  130.9059  151.3628 LP  0  0  0  0  0  0  0  0  0  0  0  0  # atno 17371 bound_to 10713
  141.1844  133.8344  157.1140 LP  0  0  0  0  0  0  0  0  0  0  0  0  # atno 17394 bound_to 11000
  140.0312  134.9900  157.0784 LP  0  0  0  0  0  0  0  0  0  0  0  0  # atno 17395 bound_to 11000

$$$$
