AV-unprocessed.smi:944|AV-procd|sdf|4231|dock9
  -GOLD-   22720 2143D 1   1.00000     0.00000
 Structure written by MMmdl.
 28 28  0  0  0  0  0  0  0  0  1 V2000
  151.6121  143.8285  158.6331 C   0  0  0  0  0  0  0  0  0  0  0  0
  150.3794  143.4165  157.9798 N   0  0  0  0  0  0  0  0  0  0  0  0
  149.7803  142.2334  158.1758 C   0  0  0  0  0  0  0  0  0  0  0  0
  150.2181  141.3775  158.9468 O   0  0  0  0  0  0  0  0  0  0  0  0
  148.4794  141.9923  157.3919 C   0  0  2  0  0  0  0  0  0  0  0  0
  147.3685  141.6627  158.4028 C   0  0  0  0  0  0  0  0  0  0  0  0
  148.6226  140.8489  156.4927 N   0  0  0  0  0  0  0  0  0  0  0  0
  148.8367  140.9224  155.1691 C   0  0  0  0  0  0  0  0  0  0  0  0
  148.9312  141.9843  154.5540 O   0  0  0  0  0  0  0  0  0  0  0  0
  148.9652  139.5929  154.4251 C   0  0  0  0  0  0  0  0  0  0  0  0
  150.2367  138.9547  154.7123 N   0  0  0  0  0  0  0  0  0  0  0  0
  150.5971  137.6714  154.6487 C   0  0  0  0  0  0  0  0  0  0  0  0
  151.8577  137.4516  154.9959 N   0  0  0  0  0  0  0  0  0  0  0  0
  152.2423  138.7314  155.2810 C   0  0  0  0  0  0  0  0  0  0  0  0
  151.3087  139.6705  155.1280 N   0  0  0  0  0  0  0  0  0  0  0  0
  151.8891  144.8308  158.3064 H   0  0  0  0  0  0  0  0  0  0  0  0
  152.4292  143.1503  158.3832 H   0  0  0  0  0  0  0  0  0  0  0  0
  151.4912  143.8442  159.7171 H   0  0  0  0  0  0  0  0  0  0  0  0
  149.9579  144.0677  157.3333 H   0  0  0  0  0  0  0  0  0  0  0  0
  148.2069  142.8843  156.8242 H   0  0  0  0  0  0  0  0  0  0  0  0
  147.2107  142.4856  159.1011 H   0  0  0  0  0  0  0  0  0  0  0  0
  147.6006  140.7704  158.9865 H   0  0  0  0  0  0  0  0  0  0  0  0
  146.4206  141.4848  157.8935 H   0  0  0  0  0  0  0  0  0  0  0  0
  148.5645  139.9318  156.9117 H   0  0  0  0  0  0  0  0  0  0  0  0
  148.1606  138.9189  154.7221 H   0  0  0  0  0  0  0  0  0  0  0  0
  148.8702  139.7543  153.3501 H   0  0  0  0  0  0  0  0  0  0  0  0
  149.9231  136.8835  154.3455 H   0  0  0  0  0  0  0  0  0  0  0  0
  153.2403  138.9783  155.6119 H   0  0  0  0  0  0  0  0  0  0  0  0
  1  2  1  0  0  0  0
  1 16  1  0  0  0  0
  1 17  1  0  0  0  0
  1 18  1  0  0  0  0
  2  3  1  0  0  0  0
  2 19  1  0  0  0  0
  3  4  2  0  0  0  0
  3  5  1  0  0  0  0
  5  6  1  0  0  0  0
  5  7  1  0  0  0  0
  5 20  1  0  0  0  0
  6 21  1  0  0  0  0
  6 22  1  0  0  0  0
  6 23  1  0  0  0  0
  7  8  1  0  0  0  0
  7 24  1  0  0  0  0
  8  9  2  0  0  0  0
  8 10  1  0  0  0  0
 10 11  1  0  0  0  0
 10 25  1  0  0  0  0
 10 26  1  0  0  0  0
 11 15  1  0  0  0  0
 11 12  1  0  0  0  0
 12 13  2  0  0  0  0
 12 27  1  0  0  0  0
 13 14  1  0  0  0  0
 14 15  2  0  0  0  0
 14 28  1  0  0  0  0
M  END
> <s_m_source_file>
AV-unprocessed.smi

> <i_m_source_file_index>
944

> <i_lp_mmshare_version>
43012

> <i_f3d_flags>
0

> <s_epik_input>
W0NIM11bTkhdQyg9TylbQ0BIXShbQ0gzXSlbTkhdQyg9TylbQ0gyXW4xW2NIXW5bY0hdbjE=

> <s_epik_cmdline>
J2VwaWtfcHl0aG9uJywgJy1waCcsICc3LjAnLCAnLXRuJywgJzgnLCAnLW1hJywgJzIwMCcsICctbWV0YWxfYmluZGluZycsICctaW1hZScsICc8aW5maWxlLm1hZT4nLCAnLW9tYWUnLCAnPG91dGZpbGUubWFlPic=

> <r_lp_tautomer_probability>
1

> <r_epik_Ionization_Penalty>
7.54354e-06

> <r_epik_Ionization_Penalty_Charging>
0

> <r_epik_Ionization_Penalty_Neutral>
7.54354e-06

> <r_epik_State_Penalty>
-0

> <r_epik_Charging_Adjusted_Penalty>
0

> <i_epik_Tot_Q>
0

> <i_epik_Tot_abs_Q>
0

> <r_epik_Metal_State_Penalty>
-0

> <b_epik_Metal_Only>
0

> <s_lp_Force_Field>
OPLS_2005

> <r_lp_Energy>
4.44665

> <b_lp_Chiralities_Consistent>
1

> <s_lp_Variant>
AV-unprocessed.smi:944-1

> <Gold.Version>
5.8.1

> <Gold.Id.Protein>
6NUR|6NUR_protein|mol2

> <Gold.PLP.Fitness>
37.8588

> <Gold.PLP.PLP>
-26.3072

> <Gold.PLP.part.hbond>
-4.4906

> <Gold.PLP.part.metal>
0.0000

> <Gold.PLP.part.buried>
-2.6045

> <Gold.PLP.part.nonpolar>
-20.4459

> <Gold.PLP.part.repulsive>
0.4107

> <Gold.PLP.ligand.clash>
0.0000

> <Gold.PLP.ligand.torsion>
0.7815

> <Gold.PLP.Chemscore.Hbond>
3.4080

> <Gold.PLP.Chemscore.CHOScore>
0.9600

> <Gold.PLP.Chemscore.Metal>
0.0000

> <Gold.Chemscore.Hbonds>
donor molecule, donor type, donor heavy atom, donor atom, acceptor molecule, acceptor atom, score
      L1  H     2    19       P1  8028  0.91
      P1  H  7989  7998       L1    15  0.96
      P1  H  8011  8017       L1     9  0.02
      P1  H 10752 10763       L1    13  0.58
      L1  C    12    27       P1  7948  0.54

> <Gold.PLP.Chemscore.Internal.Correction>
0.0105

> <Gold.Rescore>
     Score         DG    S(hbond)    S(metal)    S(lipo)     H(rot)  DE(clash)    DE(int)     intcor
     12.51     -13.13       3.56        0.00      23.70       2.74       0.07       0.54       ----

> <Gold.Chemscore.Fitness>
12.5101

> <Gold.Chemscore.DG>
-13.1254

> <Gold.Chemscore.ZeroCoef>
-5.4800

> <Gold.Chemscore.Hbond>
3.5610

> <Gold.Chemscore.Metal>
0.0000

> <Gold.Chemscore.Lipo>
23.6967

> <Gold.Chemscore.Internal_Hbond>
0.0000

> <Gold.Chemscore.DEClash>
0.0728

> <Gold.Chemscore.DEInternal>
0.5425

> <Gold.Chemscore.Rot>
2.7426

> <Gold.Chemscore.Internal.Correction>
   9.000000E+99

> <Gold.Chemscore.Hbonds>
donor molecule, donor type, donor heavy atom, donor atom, acceptor molecule, acceptor atom, score
      L1  H     2    19       P1  8028  0.61
      P1  H  7989  7998       L1    15  0.23
      P1  H  8011  8017       L1     9  0.04
      P1  H 10752 10763       L1    13  0.55

> <Gold.Chemscore.Hbond.Weighted>
-11.8938

> <Gold.Chemscore.Metal.Weighted>
-0.0000

> <Gold.Chemscore.Lipo.Weighted>
-2.7725

> <Gold.Chemscore.Internal_Hbond.Weighted>
0.0000

> <Gold.Chemscore.DEClash.Weighted>
0.0728

> <Gold.Chemscore.DEInternal.Weighted>
0.5425

> <Gold.Chemscore.Rot.Weighted>
7.0210

> <Gold.Chemscore.Internal.Correction.Weighted>
   9.000000E+99

> <Gold.Protein.RotatedTorsions>
[ 6907 6896 6895 6894 ] final -106.69 input  -60.11 | X-H torsion
[ 7974 7965 7964 7962 ] final  114.17 input  175.53 | X-H torsion
[ 8008 7997 7996 7995 ] final  -91.75 input   59.86 | X-H torsion
[ 10167 10162 10161 10158 ] final -138.89 input  -65.29 | X-H torsion
[ 10718 10713 10712 10709 ] final  120.63 input   66.30 | X-H torsion
[ 10763 10752 10751 10750 ] final   51.91 input  -60.55 | X-H torsion
[ 11005 11000 10999 10996 ] final  -85.49 input  -57.11 | X-H torsion

> <Gold.Protein.ActiveResidues>
 VAL166  LYS551  ARG553  GLY616  TRP617  ASP618  TYR619  PRO620  LYS621  CYS622 
 ASP623  PHE694  ASN695  SER759  ASP760  ASP761  ALA762  ILE779  LEU786  VAL792 
 PHE793  MET794  SER795  GLU796  ALA797  LYS798  CYS799  TRP800  GLU811  SER814 

> <Gold.Protein.RotatedAtoms>
  150.7403  133.9939  159.3615 H   0  0  0  0  0  0  0  0  0  0  0  0  # atno 6907 bound_to 6896
  151.7888  135.0739  160.0393 H   0  0  0  0  0  0  0  0  0  0  0  0  # atno 6908 bound_to 6896
  152.3222  133.5830  159.5788 H   0  0  0  0  0  0  0  0  0  0  0  0  # atno 6909 bound_to 6896
  145.2077  139.2921  143.4285 H   0  0  0  0  0  0  0  0  0  0  0  0  # atno 7974 bound_to 7965
  154.7146  140.0516  157.0582 H   0  0  0  0  0  0  0  0  0  0  0  0  # atno 8008 bound_to 7997
  155.0509  140.3179  155.4673 H   0  0  0  0  0  0  0  0  0  0  0  0  # atno 8009 bound_to 7997
  156.2799  140.2116  156.5634 H   0  0  0  0  0  0  0  0  0  0  0  0  # atno 8010 bound_to 7997
  139.8433  143.7293  152.2662 H   0  0  0  0  0  0  0  0  0  0  0  0  # atno 10167 bound_to 10162
  157.5877  131.1068  150.8062 H   0  0  0  0  0  0  0  0  0  0  0  0  # atno 10718 bound_to 10713
  152.9787  135.5830  154.4492 H   0  0  0  0  0  0  0  0  0  0  0  0  # atno 10763 bound_to 10752
  154.4084  135.2769  155.2055 H   0  0  0  0  0  0  0  0  0  0  0  0  # atno 10764 bound_to 10752
  154.3855  135.6137  153.5868 H   0  0  0  0  0  0  0  0  0  0  0  0  # atno 10765 bound_to 10752
  141.1640  133.7402  156.9022 H   0  0  0  0  0  0  0  0  0  0  0  0  # atno 11005 bound_to 11000
  146.3404  140.2343  142.8594 LP  0  0  0  0  0  0  0  0  0  0  0  0  # atno 17320 bound_to 7965
  144.9886  140.8526  143.5353 LP  0  0  0  0  0  0  0  0  0  0  0  0  # atno 17321 bound_to 7965
  139.7537  144.7527  151.0467 LP  0  0  0  0  0  0  0  0  0  0  0  0  # atno 17342 bound_to 10162
  140.7796  143.4830  150.9993 LP  0  0  0  0  0  0  0  0  0  0  0  0  # atno 17343 bound_to 10162
  156.8492  130.5074  149.5313 LP  0  0  0  0  0  0  0  0  0  0  0  0  # atno 17370 bound_to 10713
  156.0928  130.5909  150.9761 LP  0  0  0  0  0  0  0  0  0  0  0  0  # atno 17371 bound_to 10713
  140.1575  134.9188  157.2672 LP  0  0  0  0  0  0  0  0  0  0  0  0  # atno 17394 bound_to 11000
  140.2650  134.3526  155.7393 LP  0  0  0  0  0  0  0  0  0  0  0  0  # atno 17395 bound_to 11000

$$$$
