AV-unprocessed.smi:271|AV-procd|sdf|2049|dock6
  -GOLD-   2262021283D 1   1.00000     0.00000
 Structure written by MMmdl.
 58 60  0  0  0  0  0  0  0  0  1 V2000
  152.8520  142.5071  161.5096 C   0  0  0  0  0  0  0  0  0  0  0  0
  153.1475  141.2264  160.7140 C   0  0  0  0  0  0  0  0  0  0  0  0
  154.6140  140.8030  160.9047 C   0  0  0  0  0  0  0  0  0  0  0  0
  152.7804  141.4107  159.2285 C   0  0  0  0  0  0  0  0  0  0  0  0
  151.2609  141.3863  158.9580 C   0  0  0  0  0  0  0  0  0  0  0  0
  150.8525  142.2038  157.8154 N   0  0  0  0  0  0  0  0  0  0  0  0
  151.0084  143.6442  158.0077 C   0  0  0  0  0  0  0  0  0  0  0  0
  150.6590  144.1120  159.4297 C   0  0  0  0  0  0  0  0  0  0  0  0
  151.3682  145.3448  159.8015 C   0  0  0  0  0  0  0  0  0  0  0  0
  151.9265  146.3151  160.0938 N   0  0  0  0  0  0  0  0  0  0  0  0
  149.6416  141.8680  157.3150 C   0  0  0  0  0  0  0  0  0  0  0  0
  148.5545  142.1825  158.0614 N   0  0  0  0  0  0  0  0  0  0  0  0
  147.3311  141.8844  157.6148 C   0  0  0  0  0  0  0  0  0  0  0  0
  146.9819  141.2884  156.4729 N   0  0  0  0  0  0  0  0  0  0  0  0
  148.0735  140.9736  155.7186 C   0  0  0  0  0  0  0  0  0  0  0  0
  149.4316  141.2187  156.0659 C   0  0  0  0  0  0  0  0  0  0  0  0
  150.2706  140.7481  155.0639 N   0  0  0  0  0  0  0  0  0  0  0  0
  149.4545  140.2553  154.1733 C   0  0  0  0  0  0  0  0  0  0  0  0
  148.1148  140.3677  154.4737 N   0  0  0  0  0  0  0  0  0  0  0  0
  147.0014  139.9157  153.6512 C   0  0  0  0  0  0  0  0  0  0  0  0
  147.0034  138.3903  153.3524 C   0  0  2  0  0  0  0  0  0  0  0  0
  145.9693  137.9981  152.2696 C   0  0  0  0  0  0  0  0  0  0  0  0
  146.5233  138.1051  150.9746 O   0  0  0  0  0  0  0  0  0  0  0  0
  146.8207  137.5416  154.6381 C   0  0  2  0  0  0  0  0  0  0  0  0
  147.9815  137.6163  155.6169 C   0  0  0  0  0  0  0  0  0  0  0  0
  147.7336  136.4008  156.5026 C   0  0  0  0  0  0  0  0  0  0  0  0
  147.1368  135.4270  155.6539 O   0  0  0  0  0  0  0  0  0  0  0  0
  146.7644  136.0258  154.4166 C   0  0  0  0  0  0  0  0  0  0  0  0
  153.4489  143.3452  161.1479 H   0  0  0  0  0  0  0  0  0  0  0  0
  153.0742  142.3733  162.5687 H   0  0  0  0  0  0  0  0  0  0  0  0
  151.8014  142.7878  161.4296 H   0  0  0  0  0  0  0  0  0  0  0  0
  152.5149  140.4380  161.1240 H   0  0  0  0  0  0  0  0  0  0  0  0
  155.2977  141.5359  160.4753 H   0  0  0  0  0  0  0  0  0  0  0  0
  154.8204  139.8406  160.4373 H   0  0  0  0  0  0  0  0  0  0  0  0
  154.8573  140.7032  161.9628 H   0  0  0  0  0  0  0  0  0  0  0  0
  153.1741  142.3669  158.8805 H   0  0  0  0  0  0  0  0  0  0  0  0
  153.2868  140.6432  158.6416 H   0  0  0  0  0  0  0  0  0  0  0  0
  150.9170  140.3634  158.8067 H   0  0  0  0  0  0  0  0  0  0  0  0
  150.7404  141.7539  159.8430 H   0  0  0  0  0  0  0  0  0  0  0  0
  152.0279  143.9405  157.7582 H   0  0  0  0  0  0  0  0  0  0  0  0
  150.3584  144.1581  157.2987 H   0  0  0  0  0  0  0  0  0  0  0  0
  149.5893  144.3033  159.5167 H   0  0  0  0  0  0  0  0  0  0  0  0
  150.9173  143.3549  160.1705 H   0  0  0  0  0  0  0  0  0  0  0  0
  146.5146  142.1652  158.2637 H   0  0  0  0  0  0  0  0  0  0  0  0
  149.8103  139.8024  153.2595 H   0  0  0  0  0  0  0  0  0  0  0  0
  146.0783  140.1897  154.1630 H   0  0  0  0  0  0  0  0  0  0  0  0
  146.9979  140.4916  152.7259 H   0  0  0  0  0  0  0  0  0  0  0  0
  147.9888  138.1497  152.9500 H   0  0  0  0  0  0  0  0  0  0  0  0
  145.6512  136.9631  152.3922 H   0  0  0  0  0  0  0  0  0  0  0  0
  145.0698  138.6100  152.3355 H   0  0  0  0  0  0  0  0  0  0  0  0
  145.8259  138.2896  150.3638 H   0  0  0  0  0  0  0  0  0  0  0  0
  145.9049  137.8402  155.1503 H   0  0  0  0  0  0  0  0  0  0  0  0
  148.9308  137.5055  155.0911 H   0  0  0  0  0  0  0  0  0  0  0  0
  148.0209  138.5425  156.1882 H   0  0  0  0  0  0  0  0  0  0  0  0
  148.6479  136.0253  156.9627 H   0  0  0  0  0  0  0  0  0  0  0  0
  147.0293  136.6478  157.2980 H   0  0  0  0  0  0  0  0  0  0  0  0
  145.7775  135.6850  154.1027 H   0  0  0  0  0  0  0  0  0  0  0  0
  147.4854  135.7185  153.6577 H   0  0  0  0  0  0  0  0  0  0  0  0
  1  2  1  0  0  0  0
  1 29  1  0  0  0  0
  1 30  1  0  0  0  0
  1 31  1  0  0  0  0
  2  3  1  0  0  0  0
  2  4  1  0  0  0  0
  2 32  1  0  0  0  0
  3 33  1  0  0  0  0
  3 34  1  0  0  0  0
  3 35  1  0  0  0  0
  4  5  1  0  0  0  0
  4 36  1  0  0  0  0
  4 37  1  0  0  0  0
  5  6  1  0  0  0  0
  5 38  1  0  0  0  0
  5 39  1  0  0  0  0
  6  7  1  0  0  0  0
  6 11  1  0  0  0  0
  7  8  1  0  0  0  0
  7 40  1  0  0  0  0
  7 41  1  0  0  0  0
  8  9  1  0  0  0  0
  8 42  1  0  0  0  0
  8 43  1  0  0  0  0
  9 10  3  0  0  0  0
 11 16  1  0  0  0  0
 11 12  2  0  0  0  0
 12 13  1  0  0  0  0
 13 14  2  0  0  0  0
 13 44  1  0  0  0  0
 14 15  1  0  0  0  0
 15 19  1  0  0  0  0
 15 16  2  0  0  0  0
 16 17  1  0  0  0  0
 17 18  2  0  0  0  0
 18 19  1  0  0  0  0
 18 45  1  0  0  0  0
 19 20  1  0  0  0  0
 20 21  1  0  0  0  0
 20 46  1  0  0  0  0
 20 47  1  0  0  0  0
 21 22  1  0  0  0  0
 21 24  1  0  0  0  0
 21 48  1  0  0  0  0
 22 23  1  0  0  0  0
 22 49  1  0  0  0  0
 22 50  1  0  0  0  0
 23 51  1  0  0  0  0
 24 28  1  0  0  0  0
 24 25  1  0  0  0  0
 24 52  1  0  0  0  0
 25 26  1  0  0  0  0
 25 53  1  0  0  0  0
 25 54  1  0  0  0  0
 26 27  1  0  0  0  0
 26 55  1  0  0  0  0
 26 56  1  0  0  0  0
 27 28  1  0  0  0  0
 28 57  1  0  0  0  0
 28 58  1  0  0  0  0
M  END
> <s_m_source_file>
AV-unprocessed.smi

> <i_m_source_file_index>
271

> <i_lp_mmshare_version>
43012

> <i_f3d_flags>
0

> <s_epik_input>
W0NIM11bQ0hdKFtDSDNdKVtDSDJdW0NIMl1OKFtDSDJdW0NIMl1DI04pYyhuW2NIXW4xKWMoYzEyKW5bY0hdbjJbQ0gyXVtDQEhdKFtDSDJdW09IXSlbQ0BASF0zW0NIMl1bQ0gyXU9bQ0gyXTM=

> <s_epik_cmdline>
J2VwaWtfcHl0aG9uJywgJy1waCcsICc3LjAnLCAnLXRuJywgJzgnLCAnLW1hJywgJzIwMCcsICctbWV0YWxfYmluZGluZycsICctaW1hZScsICc8aW5maWxlLm1hZT4nLCAnLW9tYWUnLCAnPG91dGZpbGUubWFlPic=

> <r_lp_tautomer_probability>
1

> <r_epik_Ionization_Penalty>
0.000825874

> <r_epik_Ionization_Penalty_Charging>
0

> <r_epik_Ionization_Penalty_Neutral>
0.000825874

> <r_epik_State_Penalty>
0.000396768

> <r_epik_Charging_Adjusted_Penalty>
0.000396768

> <i_epik_Tot_Q>
0

> <i_epik_Tot_abs_Q>
0

> <r_epik_Metal_State_Penalty>
-0

> <b_epik_Metal_Only>
0

> <s_lp_Force_Field>
OPLS_2005

> <r_lp_Energy>
34.7872

> <b_lp_Chiralities_Consistent>
1

> <s_lp_Variant>
AV-unprocessed.smi:271-1

> <Gold.Version>
5.8.1

> <Gold.Id.Protein>
6NUR|6NUR_protein|mol2

> <Gold.PLP.Fitness>
50.8699

> <Gold.PLP.PLP>
-43.6639

> <Gold.PLP.part.hbond>
-5.3614

> <Gold.PLP.part.metal>
0.0000

> <Gold.PLP.part.buried>
-4.2749

> <Gold.PLP.part.nonpolar>
-36.6960

> <Gold.PLP.part.repulsive>
0.6481

> <Gold.PLP.ligand.clash>
0.0000

> <Gold.PLP.ligand.torsion>
1.5486

> <Gold.PLP.Chemscore.Hbond>
2.2448

> <Gold.PLP.Chemscore.CHOScore>
1.0000

> <Gold.PLP.Chemscore.Metal>
0.0000

> <Gold.Chemscore.Hbonds>
donor molecule, donor type, donor heavy atom, donor atom, acceptor molecule, acceptor atom, score
      L1  H    23    51       P1 10171  0.99
      P1  H  7954  7966       L1    23  1.00
      P1  H  7989  7998       L1    17  0.19
      L1  C    18    45       P1  7957  1.00

> <Gold.PLP.Chemscore.Internal.Correction>
0.5689

> <Gold.Rescore>
     Score         DG    S(hbond)    S(metal)    S(lipo)     H(rot)  DE(clash)    DE(int)     intcor
     10.57     -12.82       1.78        0.00      94.27       3.77       0.60       1.65       ----

> <Gold.Chemscore.Fitness>
10.5719

> <Gold.Chemscore.DG>
-12.8242

> <Gold.Chemscore.ZeroCoef>
-5.4800

> <Gold.Chemscore.Hbond>
1.7847

> <Gold.Chemscore.Metal>
0.0000

> <Gold.Chemscore.Lipo>
94.2729

> <Gold.Chemscore.Internal_Hbond>
0.0000

> <Gold.Chemscore.DEClash>
0.5997

> <Gold.Chemscore.DEInternal>
1.6526

> <Gold.Chemscore.Rot>
3.7683

> <Gold.Chemscore.Internal.Correction>
   9.000000E+99

> <Gold.Chemscore.Hbonds>
donor molecule, donor type, donor heavy atom, donor atom, acceptor molecule, acceptor atom, score
      L1  H    23    51       P1 10171  0.91
      P1  H  7954  7966       L1    23  0.53

> <Gold.Chemscore.Hbond.Weighted>
-5.9610

> <Gold.Chemscore.Metal.Weighted>
-0.0000

> <Gold.Chemscore.Lipo.Weighted>
-11.0299

> <Gold.Chemscore.Internal_Hbond.Weighted>
0.0000

> <Gold.Chemscore.DEClash.Weighted>
0.5997

> <Gold.Chemscore.DEInternal.Weighted>
1.6526

> <Gold.Chemscore.Rot.Weighted>
9.6468

> <Gold.Chemscore.Internal.Correction.Weighted>
   9.000000E+99

> <Gold.Protein.RotatedTorsions>
[ 6907 6896 6895 6894 ] final  -37.07 input  -60.11 | X-H torsion
[ 7974 7965 7964 7962 ] final -173.79 input  175.53 | X-H torsion
[ 8008 7997 7996 7995 ] final  -21.54 input   59.86 | X-H torsion
[ 10167 10162 10161 10158 ] final  122.20 input  -65.29 | X-H torsion
[ 10718 10713 10712 10709 ] final -162.50 input   66.30 | X-H torsion
[ 10763 10752 10751 10750 ] final   72.96 input  -60.55 | X-H torsion
[ 11005 11000 10999 10996 ] final -147.37 input  -57.11 | X-H torsion

> <Gold.Protein.ActiveResidues>
 VAL166  LYS551  ARG553  GLY616  TRP617  ASP618  TYR619  PRO620  LYS621  CYS622 
 ASP623  PHE694  ASN695  SER759  ASP760  ASP761  ALA762  ILE779  LEU786  VAL792 
 PHE793  MET794  SER795  GLU796  ALA797  LYS798  CYS799  TRP800  GLU811  SER814 

> <Gold.Protein.RotatedAtoms>
  151.0192  134.9456  159.8050 H   0  0  0  0  0  0  0  0  0  0  0  0  # atno 6907 bound_to 6896
  152.5321  134.2925  159.9058 H   0  0  0  0  0  0  0  0  0  0  0  0  # atno 6908 bound_to 6896
  151.2932  133.4113  159.2668 H   0  0  0  0  0  0  0  0  0  0  0  0  # atno 6909 bound_to 6896
  144.7135  140.1568  143.6379 H   0  0  0  0  0  0  0  0  0  0  0  0  # atno 7974 bound_to 7965
  154.4699  140.2032  156.0022 H   0  0  0  0  0  0  0  0  0  0  0  0  # atno 8008 bound_to 7997
  156.0992  140.3246  155.7890 H   0  0  0  0  0  0  0  0  0  0  0  0  # atno 8009 bound_to 7997
  155.4826  140.0540  157.2956 H   0  0  0  0  0  0  0  0  0  0  0  0  # atno 8010 bound_to 7997
  139.5873  144.7011  151.3378 H   0  0  0  0  0  0  0  0  0  0  0  0  # atno 10167 bound_to 10162
  156.6113  130.8852  151.2937 H   0  0  0  0  0  0  0  0  0  0  0  0  # atno 10718 bound_to 10713
  153.0491  135.5081  154.7821 H   0  0  0  0  0  0  0  0  0  0  0  0  # atno 10763 bound_to 10752
  154.6698  135.2951  154.9759 H   0  0  0  0  0  0  0  0  0  0  0  0  # atno 10764 bound_to 10752
  154.0582  135.6694  153.4861 H   0  0  0  0  0  0  0  0  0  0  0  0  # atno 10765 bound_to 10752
  140.7723  134.3175  157.5071 H   0  0  0  0  0  0  0  0  0  0  0  0  # atno 11005 bound_to 11000
  145.9066  139.2462  143.1462 LP  0  0  0  0  0  0  0  0  0  0  0  0  # atno 17320 bound_to 7965
  145.9758  140.8723  143.0139 LP  0  0  0  0  0  0  0  0  0  0  0  0  # atno 17321 bound_to 7965
  140.7142  143.7310  150.7624 LP  0  0  0  0  0  0  0  0  0  0  0  0  # atno 17342 bound_to 10162
  140.0857  143.4926  152.2506 LP  0  0  0  0  0  0  0  0  0  0  0  0  # atno 17343 bound_to 10162
  157.7253  130.9614  150.1610 LP  0  0  0  0  0  0  0  0  0  0  0  0  # atno 17370 bound_to 10713
  156.2387  130.3689  149.8361 LP  0  0  0  0  0  0  0  0  0  0  0  0  # atno 17371 bound_to 10713
  139.8754  134.9268  156.3410 LP  0  0  0  0  0  0  0  0  0  0  0  0  # atno 17394 bound_to 11000
  140.9562  133.7418  156.0338 LP  0  0  0  0  0  0  0  0  0  0  0  0  # atno 17395 bound_to 11000

$$$$
