AV-unprocessed.smi:1041|AV-procd|sdf|4535|dock10
  -GOLD-   22720 2563D 1   1.00000     0.00000
 Structure written by MMmdl.
 51 52  0  0  0  0  0  0  0  0  2 V2000
  152.0051  145.4379  159.1000 C   0  0  0  0  0  0  0  0  0  0  0  0
  150.9793  144.5018  158.8208 O   0  0  0  0  0  0  0  0  0  0  0  0
  151.3246  143.6134  157.7701 C   0  0  0  0  0  0  0  0  0  0  0  0
  150.1804  142.6177  157.5144 C   0  0  0  0  0  0  0  0  0  0  0  0
  150.3972  141.6674  156.4217 N   0  0  0  0  0  0  0  0  0  0  0  0
  149.2679  140.7526  156.2363 C   0  0  0  0  0  0  0  0  0  0  0  0
  149.4792  139.7788  155.0642 C   0  0  0  0  0  0  0  0  0  0  0  0
  150.7719  138.9641  155.2481 C   0  0  0  0  0  0  0  0  0  0  0  0
  151.0180  138.0207  154.0563 C   0  0  0  0  0  0  0  0  0  0  0  0
  150.1770  136.8350  154.1427 N   0  0  0  0  0  0  0  0  0  0  0  0
  150.1022  136.0263  155.2087 C   0  0  0  0  0  0  0  0  0  0  0  0
  150.7672  136.1908  156.2311 O   0  0  0  0  0  0  0  0  0  0  0  0
  149.1170  134.8606  155.1071 C   0  0  0  0  0  0  0  0  0  0  0  0
  149.7468  133.4683  155.0903 C   0  0  0  0  0  0  0  0  0  0  0  0
  149.6328  132.6108  154.0351 C   0  0  0  0  0  0  0  0  0  0  0  0
  148.8573  132.9485  152.7727 C   0  0  0  0  0  0  0  0  0  0  0  0
  150.2384  131.3430  154.0597 N   0  0  0  0  0  0  0  0  0  0  0  0
  150.9115  130.9865  155.0867 C   0  0  0  0  0  0  0  0  0  0  0  0
  151.5648  129.6212  155.1057 C   0  0  0  0  0  0  0  0  0  0  0  0
  151.0902  131.7762  156.1999 N   0  5  0  0  0  0  0  0  0  0  0  0
  150.5256  133.0160  156.2577 C   0  0  0  0  0  0  0  0  0  0  0  0
  150.6495  133.7429  157.2426 O   0  0  0  0  0  0  0  0  0  0  0  0
  151.9442  139.9362  155.4944 C   0  0  0  0  0  0  0  0  0  0  0  0
  151.6206  140.8981  156.6496 C   0  0  0  0  0  0  0  0  0  0  0  0
  151.6968  146.0855  159.9206 H   0  0  0  0  0  0  0  0  0  0  0  0
  152.2091  146.0679  158.2333 H   0  0  0  0  0  0  0  0  0  0  0  0
  152.9280  144.9371  159.3946 H   0  0  0  0  0  0  0  0  0  0  0  0
  151.5657  144.1599  156.8566 H   0  0  0  0  0  0  0  0  0  0  0  0
  152.2198  143.0622  158.0618 H   0  0  0  0  0  0  0  0  0  0  0  0
  150.0510  142.0474  158.4352 H   0  0  0  0  0  0  0  0  0  0  0  0
  149.2438  143.1583  157.3687 H   0  0  0  0  0  0  0  0  0  0  0  0
  149.0917  140.1896  157.1542 H   0  0  0  0  0  0  0  0  0  0  0  0
  148.3580  141.3166  156.0372 H   0  0  0  0  0  0  0  0  0  0  0  0
  148.6217  139.1103  154.9826 H   0  0  0  0  0  0  0  0  0  0  0  0
  149.5243  140.3407  154.1303 H   0  0  0  0  0  0  0  0  0  0  0  0
  150.6509  138.3491  156.1417 H   0  0  0  0  0  0  0  0  0  0  0  0
  150.8044  138.5381  153.1197 H   0  0  0  0  0  0  0  0  0  0  0  0
  152.0669  137.7204  154.0240 H   0  0  0  0  0  0  0  0  0  0  0  0
  149.5943  136.6266  153.3451 H   0  0  0  0  0  0  0  0  0  0  0  0
  148.4178  134.9066  155.9429 H   0  0  0  0  0  0  0  0  0  0  0  0
  148.4952  135.0203  154.2260 H   0  0  0  0  0  0  0  0  0  0  0  0
  147.8042  133.1109  153.0014 H   0  0  0  0  0  0  0  0  0  0  0  0
  148.9172  132.1383  152.0453 H   0  0  0  0  0  0  0  0  0  0  0  0
  149.2549  133.8477  152.3027 H   0  0  0  0  0  0  0  0  0  0  0  0
  151.3876  129.1256  156.0608 H   0  0  0  0  0  0  0  0  0  0  0  0
  152.6411  129.7178  154.9602 H   0  0  0  0  0  0  0  0  0  0  0  0
  151.1664  128.9850  154.3145 H   0  0  0  0  0  0  0  0  0  0  0  0
  152.8568  139.3869  155.7270 H   0  0  0  0  0  0  0  0  0  0  0  0
  152.1498  140.5091  154.5889 H   0  0  0  0  0  0  0  0  0  0  0  0
  152.4626  141.5786  156.7819 H   0  0  0  0  0  0  0  0  0  0  0  0
  151.5340  140.3329  157.5791 H   0  0  0  0  0  0  0  0  0  0  0  0
  1  2  1  0  0  0  0
  1 25  1  0  0  0  0
  1 26  1  0  0  0  0
  1 27  1  0  0  0  0
  2  3  1  0  0  0  0
  3  4  1  0  0  0  0
  3 28  1  0  0  0  0
  3 29  1  0  0  0  0
  4  5  1  0  0  0  0
  4 30  1  0  0  0  0
  4 31  1  0  0  0  0
  5 24  1  0  0  0  0
  5  6  1  0  0  0  0
  6  7  1  0  0  0  0
  6 32  1  0  0  0  0
  6 33  1  0  0  0  0
  7  8  1  0  0  0  0
  7 34  1  0  0  0  0
  7 35  1  0  0  0  0
  8  9  1  0  0  0  0
  8 23  1  0  0  0  0
  8 36  1  0  0  0  0
  9 10  1  0  0  0  0
  9 37  1  0  0  0  0
  9 38  1  0  0  0  0
 10 11  1  0  0  0  0
 10 39  1  0  0  0  0
 11 12  2  0  0  0  0
 11 13  1  0  0  0  0
 13 14  1  0  0  0  0
 13 40  1  0  0  0  0
 13 41  1  0  0  0  0
 14 21  1  0  0  0  0
 14 15  2  0  0  0  0
 15 16  1  0  0  0  0
 15 17  1  0  0  0  0
 16 42  1  0  0  0  0
 16 43  1  0  0  0  0
 16 44  1  0  0  0  0
 17 18  2  0  0  0  0
 18 19  1  0  0  0  0
 18 20  1  0  0  0  0
 19 45  1  0  0  0  0
 19 46  1  0  0  0  0
 19 47  1  0  0  0  0
 20 21  1  0  0  0  0
 21 22  2  0  0  0  0
 23 24  1  0  0  0  0
 23 48  1  0  0  0  0
 23 49  1  0  0  0  0
 24 50  1  0  0  0  0
 24 51  1  0  0  0  0
M  CHG  1  20  -1
M  END
> <s_m_source_file>
AV-unprocessed.smi

> <i_m_source_file_index>
1041

> <i_lp_mmshare_version>
43012

> <i_f3d_flags>
0

> <s_epik_input>
W0NIM11PW0NIMl1bQ0gyXU4xW0NIMl1bQ0gyXVtDSF0oW0NIMl1bQ0gyXTEpW0NIMl1bTkhdQyg9TylbQ0gyXWMyYyhbQ0gzXSluYyhbQ0gzXSlbbkhdYzI9Tw==

> <s_epik_cmdline>
J2VwaWtfcHl0aG9uJywgJy1waCcsICc3LjAnLCAnLXRuJywgJzgnLCAnLW1hJywgJzIwMCcsICctbWV0YWxfYmluZGluZycsICctaW1hZScsICc8aW5maWxlLm1hZT4nLCAnLW9tYWUnLCAnPG91dGZpbGUubWFlPic=

> <r_lp_tautomer_probability>
0.839158

> <r_epik_Ionization_Penalty>
9.04559

> <r_epik_Ionization_Penalty_Charging>
6.70107e-08

> <r_epik_Ionization_Penalty_Neutral>
9.04559

> <r_epik_State_Penalty>
7.10582

> <r_epik_Charging_Adjusted_Penalty>
7.10582

> <i_epik_Tot_Q>
-1

> <i_epik_Tot_abs_Q>
1

> <r_epik_Metal_State_Penalty>
3.46994

> <b_epik_Metal_Only>
1

> <s_lp_Force_Field>
OPLS_2005

> <r_lp_Energy>
32.0623

> <b_lp_Chiralities_Consistent>
1

> <s_lp_Variant>
AV-unprocessed.smi:1041-8

> <Gold.Version>
5.8.1

> <Gold.Id.Protein>
6NUR|6NUR_protein|mol2

> <Gold.PLP.Fitness>
46.0015

> <Gold.PLP.PLP>
-40.9272

> <Gold.PLP.part.hbond>
-3.0000

> <Gold.PLP.part.metal>
0.0000

> <Gold.PLP.part.buried>
-3.2652

> <Gold.PLP.part.nonpolar>
-34.9217

> <Gold.PLP.part.repulsive>
0.3170

> <Gold.PLP.ligand.clash>
0.0000

> <Gold.PLP.ligand.torsion>
0.2524

> <Gold.PLP.Chemscore.Hbond>
1.8406

> <Gold.PLP.Chemscore.CHOScore>
0.0000

> <Gold.PLP.Chemscore.Metal>
0.0000

> <Gold.Chemscore.Hbonds>
donor molecule, donor type, donor heavy atom, donor atom, acceptor molecule, acceptor atom, score
      L1  H    10    39       P1  7948  1.00
      P1  H  6896  6908       L1    22  0.56

> <Gold.PLP.Chemscore.Internal.Correction>
0.0573

> <Gold.Rescore>
     Score         DG    S(hbond)    S(metal)    S(lipo)     H(rot)  DE(clash)    DE(int)     intcor
     14.11     -17.10       1.89        0.00      95.22       2.28       0.19       2.80       ----

> <Gold.Chemscore.Fitness>
14.1140

> <Gold.Chemscore.DG>
-17.1030

> <Gold.Chemscore.ZeroCoef>
-5.4800

> <Gold.Chemscore.Hbond>
1.8932

> <Gold.Chemscore.Metal>
0.0000

> <Gold.Chemscore.Lipo>
95.2193

> <Gold.Chemscore.Internal_Hbond>
0.0000

> <Gold.Chemscore.DEClash>
0.1933

> <Gold.Chemscore.DEInternal>
2.7957

> <Gold.Chemscore.Rot>
2.2816

> <Gold.Chemscore.Internal.Correction>
   9.000000E+99

> <Gold.Chemscore.Hbonds>
donor molecule, donor type, donor heavy atom, donor atom, acceptor molecule, acceptor atom, score
      L1  H    10    39       P1  7948  0.60
      P1  H  6896  6908       L1    22  0.55

> <Gold.Chemscore.Hbond.Weighted>
-6.3232

> <Gold.Chemscore.Metal.Weighted>
-0.0000

> <Gold.Chemscore.Lipo.Weighted>
-11.1407

> <Gold.Chemscore.Internal_Hbond.Weighted>
0.0000

> <Gold.Chemscore.DEClash.Weighted>
0.1933

> <Gold.Chemscore.DEInternal.Weighted>
2.7957

> <Gold.Chemscore.Rot.Weighted>
5.8409

> <Gold.Chemscore.Internal.Correction.Weighted>
   9.000000E+99

> <Gold.Protein.RotatedTorsions>
[ 6907 6896 6895 6894 ] final  131.35 input  -60.11 | X-H torsion
[ 7974 7965 7964 7962 ] final  -85.64 input  175.53 | X-H torsion
[ 8008 7997 7996 7995 ] final  -49.49 input   59.86 | X-H torsion
[ 10167 10162 10161 10158 ] final  124.73 input  -65.29 | X-H torsion
[ 10718 10713 10712 10709 ] final   51.22 input   66.30 | X-H torsion
[ 10763 10752 10751 10750 ] final  -23.11 input  -60.55 | X-H torsion
[ 11005 11000 10999 10996 ] final   66.87 input  -57.11 | X-H torsion

> <Gold.Protein.ActiveResidues>
 VAL166  LYS551  ARG553  GLY616  TRP617  ASP618  TYR619  PRO620  LYS621  CYS622 
 ASP623  PHE694  ASN695  SER759  ASP760  ASP761  ALA762  ILE779  LEU786  VAL792 
 PHE793  MET794  SER795  GLU796  ALA797  LYS798  CYS799  TRP800  GLU811  SER814 

> <Gold.Protein.RotatedAtoms>
  152.3435  133.6094  159.5892 H   0  0  0  0  0  0  0  0  0  0  0  0  # atno 6907 bound_to 6896
  150.7493  133.9686  159.3547 H   0  0  0  0  0  0  0  0  0  0  0  0  # atno 6908 bound_to 6896
  151.7547  135.0825  160.0387 H   0  0  0  0  0  0  0  0  0  0  0  0  # atno 6909 bound_to 6896
  145.4905  140.9553  143.1814 H   0  0  0  0  0  0  0  0  0  0  0  0  # atno 7974 bound_to 7965
  154.4045  140.1295  156.4511 H   0  0  0  0  0  0  0  0  0  0  0  0  # atno 8008 bound_to 7997
  155.7365  140.3490  155.5064 H   0  0  0  0  0  0  0  0  0  0  0  0  # atno 8009 bound_to 7997
  155.9079  140.1030  157.1291 H   0  0  0  0  0  0  0  0  0  0  0  0  # atno 8010 bound_to 7997
  139.5725  144.6946  151.3740 H   0  0  0  0  0  0  0  0  0  0  0  0  # atno 10167 bound_to 10162
  157.4960  130.8407  149.8259 H   0  0  0  0  0  0  0  0  0  0  0  0  # atno 10718 bound_to 10713
  153.6626  135.6975  153.5172 H   0  0  0  0  0  0  0  0  0  0  0  0  # atno 10763 bound_to 10752
  153.2619  135.4242  155.0902 H   0  0  0  0  0  0  0  0  0  0  0  0  # atno 10764 bound_to 10752
  154.8448  135.3557  154.6171 H   0  0  0  0  0  0  0  0  0  0  0  0  # atno 10765 bound_to 10752
  139.9805  134.6752  156.0272 H   0  0  0  0  0  0  0  0  0  0  0  0  # atno 11005 bound_to 11000
  144.7836  139.6473  143.7143 LP  0  0  0  0  0  0  0  0  0  0  0  0  # atno 17320 bound_to 7965
  146.2287  139.5771  142.9570 LP  0  0  0  0  0  0  0  0  0  0  0  0  # atno 17321 bound_to 7965
  140.7009  143.7634  150.7402 LP  0  0  0  0  0  0  0  0  0  0  0  0  # atno 17342 bound_to 10162
  140.1144  143.4669  152.2351 LP  0  0  0  0  0  0  0  0  0  0  0  0  # atno 17343 bound_to 10162
  156.0201  130.3799  150.1989 LP  0  0  0  0  0  0  0  0  0  0  0  0  # atno 17370 bound_to 10713
  157.0178  130.9970  151.3348 LP  0  0  0  0  0  0  0  0  0  0  0  0  # atno 17371 bound_to 10713
  141.1477  133.6553  156.3919 LP  0  0  0  0  0  0  0  0  0  0  0  0  # atno 17394 bound_to 11000
  140.5106  134.6398  157.5283 LP  0  0  0  0  0  0  0  0  0  0  0  0  # atno 17395 bound_to 11000

$$$$
