AV-unprocessed.smi:20|AV-procd|sdf|120|dock2
  -GOLD-   2262015293D 1   1.00000     0.00000
 Structure written by MMmdl.
 57 61  0  0  0  0  0  0  0  0  1 V2000
  145.1235  134.6350  157.3331 O   0  0  0  0  0  0  0  0  0  0  0  0
  146.2966  134.6303  157.6988 C   0  0  0  0  0  0  0  0  0  0  0  0
  147.4046  135.3902  156.9906 C   0  0  0  0  0  0  0  0  0  0  0  0
  148.6964  134.7722  157.5785 C   0  0  1  0  0  0  0  0  0  0  0  0
  149.2412  133.6240  156.6867 C   0  0  0  0  0  0  0  0  0  0  0  0
  149.8786  134.1489  155.3878 C   0  0  0  0  0  0  0  0  0  0  0  0
  150.9357  135.2213  155.6847 C   0  0  0  0  0  0  0  0  0  0  0  0
  150.3765  136.2767  156.5259 N   0  0  0  0  0  0  0  0  0  0  0  0
  151.0805  137.4361  156.5265 C   0  0  0  0  0  0  0  0  0  0  0  0
  151.2547  138.1265  155.3676 N   0  0  0  0  0  0  0  0  0  0  0  0
  151.9454  139.2704  155.3606 C   0  0  0  0  0  0  0  0  0  0  0  0
  152.5412  139.8914  156.3802 N   0  0  0  0  0  0  0  0  0  0  0  0
  152.3734  139.2016  157.5443 C   0  0  0  0  0  0  0  0  0  0  0  0
  151.6637  137.9785  157.7059 C   0  0  0  0  0  0  0  0  0  0  0  0
  151.7206  137.5708  159.0338 N   0  0  0  0  0  0  0  0  0  0  0  0
  152.4190  138.5018  159.6244 C   0  0  0  0  0  0  0  0  0  0  0  0
  152.8588  139.5138  158.8019 N   0  0  0  0  0  0  0  0  0  0  0  0
  153.6606  140.6597  159.1922 C   0  0  0  0  0  0  0  0  0  0  0  0
  152.9743  141.5819  160.2347 C   0  0  1  0  0  0  0  0  0  0  0  0
  153.7334  141.6173  161.5863 C   0  0  0  0  0  0  0  0  0  0  0  0
  154.4121  140.4056  161.8455 O   0  0  0  0  0  0  0  0  0  0  0  0
  152.8038  143.0129  159.6613 C   0  0  1  0  0  0  0  0  0  0  0  0
  151.9387  143.1092  158.4154 C   0  0  0  0  0  0  0  0  0  0  0  0
  151.5828  144.5897  158.3867 C   0  0  0  0  0  0  0  0  0  0  0  0
  151.4443  144.9641  159.7506 O   0  0  0  0  0  0  0  0  0  0  0  0
  152.0706  143.9953  160.5864 C   0  0  0  0  0  0  0  0  0  0  0  0
  149.8097  135.8216  157.7964 C   0  0  0  0  0  0  0  0  0  0  0  0
  148.2082  134.1953  158.9287 C   0  0  0  0  0  0  0  0  0  0  0  0
  146.7861  133.9770  158.7496 N   0  0  0  0  0  0  0  0  0  0  0  0
  147.3227  135.2925  155.9087 H   0  0  0  0  0  0  0  0  0  0  0  0
  147.3125  136.4475  157.2419 H   0  0  0  0  0  0  0  0  0  0  0  0
  150.0002  133.0670  157.2376 H   0  0  0  0  0  0  0  0  0  0  0  0
  148.4527  132.9081  156.4508 H   0  0  0  0  0  0  0  0  0  0  0  0
  150.3333  133.3247  154.8377 H   0  0  0  0  0  0  0  0  0  0  0  0
  149.1142  134.5649  154.7316 H   0  0  0  0  0  0  0  0  0  0  0  0
  151.7822  134.7727  156.2063 H   0  0  0  0  0  0  0  0  0  0  0  0
  151.3225  135.6172  154.7461 H   0  0  0  0  0  0  0  0  0  0  0  0
  152.0341  139.7570  154.4005 H   0  0  0  0  0  0  0  0  0  0  0  0
  152.6438  138.4713  160.6808 H   0  0  0  0  0  0  0  0  0  0  0  0
  154.6142  140.3002  159.5810 H   0  0  0  0  0  0  0  0  0  0  0  0
  153.8913  141.2135  158.2821 H   0  0  0  0  0  0  0  0  0  0  0  0
  151.9732  141.1899  160.4225 H   0  0  0  0  0  0  0  0  0  0  0  0
  154.4400  142.4475  161.6130 H   0  0  0  0  0  0  0  0  0  0  0  0
  153.0497  141.7642  162.4209 H   0  0  0  0  0  0  0  0  0  0  0  0
  154.3875  139.8753  161.0637 H   0  0  0  0  0  0  0  0  0  0  0  0
  153.7861  143.4263  159.4259 H   0  0  0  0  0  0  0  0  0  0  0  0
  152.4518  142.7920  157.5072 H   0  0  0  0  0  0  0  0  0  0  0  0
  151.0347  142.5088  158.5277 H   0  0  0  0  0  0  0  0  0  0  0  0
  152.3963  145.1675  157.9460 H   0  0  0  0  0  0  0  0  0  0  0  0
  150.6741  144.7934  157.8201 H   0  0  0  0  0  0  0  0  0  0  0  0
  151.2925  143.4868  161.1569 H   0  0  0  0  0  0  0  0  0  0  0  0
  152.7438  144.4793  161.2940 H   0  0  0  0  0  0  0  0  0  0  0  0
  149.4103  136.6697  158.3550 H   0  0  0  0  0  0  0  0  0  0  0  0
  150.6095  135.3924  158.4020 H   0  0  0  0  0  0  0  0  0  0  0  0
  148.7175  133.2728  159.2099 H   0  0  0  0  0  0  0  0  0  0  0  0
  148.3438  134.9101  159.7418 H   0  0  0  0  0  0  0  0  0  0  0  0
  146.2357  133.4027  159.3719 H   0  0  0  0  0  0  0  0  0  0  0  0
  1  2  2  0  0  0  0
  2 29  1  0  0  0  0
  2  3  1  0  0  0  0
  3  4  1  0  0  0  0
  3 30  1  0  0  0  0
  3 31  1  0  0  0  0
  4 27  1  0  0  0  0
  4  5  1  0  0  0  0
  4 28  1  0  0  0  0
  5  6  1  0  0  0  0
  5 32  1  0  0  0  0
  5 33  1  0  0  0  0
  6  7  1  0  0  0  0
  6 34  1  0  0  0  0
  6 35  1  0  0  0  0
  7  8  1  0  0  0  0
  7 36  1  0  0  0  0
  7 37  1  0  0  0  0
  8  9  1  0  0  0  0
  8 27  1  0  0  0  0
  9 14  1  0  0  0  0
  9 10  2  0  0  0  0
 10 11  1  0  0  0  0
 11 12  2  0  0  0  0
 11 38  1  0  0  0  0
 12 13  1  0  0  0  0
 13 17  1  0  0  0  0
 13 14  2  0  0  0  0
 14 15  1  0  0  0  0
 15 16  2  0  0  0  0
 16 17  1  0  0  0  0
 16 39  1  0  0  0  0
 17 18  1  0  0  0  0
 18 19  1  0  0  0  0
 18 40  1  0  0  0  0
 18 41  1  0  0  0  0
 19 20  1  0  0  0  0
 19 22  1  0  0  0  0
 19 42  1  0  0  0  0
 20 21  1  0  0  0  0
 20 43  1  0  0  0  0
 20 44  1  0  0  0  0
 21 45  1  0  0  0  0
 22 26  1  0  0  0  0
 22 23  1  0  0  0  0
 22 46  1  0  0  0  0
 23 24  1  0  0  0  0
 23 47  1  0  0  0  0
 23 48  1  0  0  0  0
 24 25  1  0  0  0  0
 24 49  1  0  0  0  0
 24 50  1  0  0  0  0
 25 26  1  0  0  0  0
 26 51  1  0  0  0  0
 26 52  1  0  0  0  0
 27 53  1  0  0  0  0
 27 54  1  0  0  0  0
 28 29  1  0  0  0  0
 28 55  1  0  0  0  0
 28 56  1  0  0  0  0
 29 57  1  0  0  0  0
M  END
> <s_m_source_file>
AV-unprocessed.smi

> <i_m_source_file_index>
20

> <i_lp_mmshare_version>
43012

> <i_f3d_flags>
0

> <s_epik_input>
W0NIMl0xW05IXUMoPU8pW0NIMl1bQ0BAXTEyW0NIMl1bQ0gyXVtDSDJdTihbQ0gyXTIpYyhuW2NIXW4zKWMoYzM0KW5bY0hdbjRbQ0gyXVtDQEhdKFtDSDJdW09IXSlbQ0BASF01W0NIMl1bQ0gyXU9bQ0gyXTU=

> <s_epik_cmdline>
J2VwaWtfcHl0aG9uJywgJy1waCcsICc3LjAnLCAnLXRuJywgJzgnLCAnLW1hJywgJzIwMCcsICctbWV0YWxfYmluZGluZycsICctaW1hZScsICc8aW5maWxlLm1hZT4nLCAnLW9tYWUnLCAnPG91dGZpbGUubWFlPic=

> <r_lp_tautomer_probability>
1

> <r_epik_Ionization_Penalty>
0.0019697

> <r_epik_Ionization_Penalty_Charging>
0

> <r_epik_Ionization_Penalty_Neutral>
0.0019697

> <r_epik_State_Penalty>
0.00113613

> <r_epik_Charging_Adjusted_Penalty>
0.00113613

> <i_epik_Tot_Q>
0

> <i_epik_Tot_abs_Q>
0

> <r_epik_Metal_State_Penalty>
-0

> <b_epik_Metal_Only>
0

> <s_lp_Force_Field>
OPLS_2005

> <r_lp_Energy>
57.3449

> <b_lp_Chiralities_Consistent>
1

> <s_lp_Variant>
AV-unprocessed.smi:20-8

> <Gold.Version>
5.8.1

> <Gold.Id.Protein>
6NUR|6NUR_protein|mol2

> <Gold.PLP.Fitness>
41.1386

> <Gold.PLP.PLP>
-40.4618

> <Gold.PLP.part.hbond>
-1.0000

> <Gold.PLP.part.metal>
0.0000

> <Gold.PLP.part.buried>
-5.8832

> <Gold.PLP.part.nonpolar>
-33.2981

> <Gold.PLP.part.repulsive>
0.1764

> <Gold.PLP.ligand.clash>
0.0000

> <Gold.PLP.ligand.torsion>
1.4042

> <Gold.PLP.Chemscore.Hbond>
1.0000

> <Gold.PLP.Chemscore.CHOScore>
0.0000

> <Gold.PLP.Chemscore.Metal>
0.0000

> <Gold.Chemscore.Hbonds>
donor molecule, donor type, donor heavy atom, donor atom, acceptor molecule, acceptor atom, score
      P1  H  7997  8009       L1    12  1.00

> <Gold.PLP.Chemscore.Internal.Correction>
0.4853

> <Gold.Rescore>
     Score         DG    S(hbond)    S(metal)    S(lipo)     H(rot)  DE(clash)    DE(int)     intcor
     10.56     -13.19       0.93        0.00      99.35       2.74       0.00       2.63       ----

> <Gold.Chemscore.Fitness>
10.5609

> <Gold.Chemscore.DG>
-13.1860

> <Gold.Chemscore.ZeroCoef>
-5.4800

> <Gold.Chemscore.Hbond>
0.9283

> <Gold.Chemscore.Metal>
0.0000

> <Gold.Chemscore.Lipo>
99.3468

> <Gold.Chemscore.Internal_Hbond>
0.0000

> <Gold.Chemscore.DEClash>
0.0000

> <Gold.Chemscore.DEInternal>
2.6251

> <Gold.Chemscore.Rot>
2.7415

> <Gold.Chemscore.Internal.Correction>
   9.000000E+99

> <Gold.Chemscore.Hbonds>
donor molecule, donor type, donor heavy atom, donor atom, acceptor molecule, acceptor atom, score
      P1  H  7997  8009       L1    12  0.34

> <Gold.Chemscore.Hbond.Weighted>
-3.1006

> <Gold.Chemscore.Metal.Weighted>
-0.0000

> <Gold.Chemscore.Lipo.Weighted>
-11.6236

> <Gold.Chemscore.Internal_Hbond.Weighted>
0.0000

> <Gold.Chemscore.DEClash.Weighted>
0.0000

> <Gold.Chemscore.DEInternal.Weighted>
2.6251

> <Gold.Chemscore.Rot.Weighted>
7.0182

> <Gold.Chemscore.Internal.Correction.Weighted>
   9.000000E+99

> <Gold.Protein.RotatedTorsions>
[ 6907 6896 6895 6894 ] final  -53.89 input  -60.11 | X-H torsion
[ 7974 7965 7964 7962 ] final   21.34 input  175.53 | X-H torsion
[ 8008 7997 7996 7995 ] final -163.20 input   59.86 | X-H torsion
[ 10167 10162 10161 10158 ] final  -24.95 input  -65.29 | X-H torsion
[ 10718 10713 10712 10709 ] final -172.97 input   66.30 | X-H torsion
[ 10763 10752 10751 10750 ] final -138.57 input  -60.55 | X-H torsion
[ 11005 11000 10999 10996 ] final  -41.91 input  -57.11 | X-H torsion

> <Gold.Protein.ActiveResidues>
 VAL166  LYS551  ARG553  GLY616  TRP617  ASP618  TYR619  PRO620  LYS621  CYS622 
 ASP623  PHE694  ASN695  SER759  ASP760  ASP761  ALA762  ILE779  LEU786  VAL792 
 PHE793  MET794  SER795  GLU796  ALA797  LYS798  CYS799  TRP800  GLU811  SER814 

> <Gold.Protein.RotatedAtoms>
  150.8386  134.7670  159.6913 H   0  0  0  0  0  0  0  0  0  0  0  0  # atno 6907 bound_to 6896
  152.4478  134.5454  159.9861 H   0  0  0  0  0  0  0  0  0  0  0  0  # atno 6908 bound_to 6896
  151.5599  133.3367  159.3005 H   0  0  0  0  0  0  0  0  0  0  0  0  # atno 6909 bound_to 6896
  146.2075  139.8041  142.8714 H   0  0  0  0  0  0  0  0  0  0  0  0  # atno 7974 bound_to 7965
  155.8178  140.0915  157.1866 H   0  0  0  0  0  0  0  0  0  0  0  0  # atno 8008 bound_to 7997
  154.3979  140.1442  156.3524 H   0  0  0  0  0  0  0  0  0  0  0  0  # atno 8009 bound_to 7997
  155.8297  140.3443  155.5567 H   0  0  0  0  0  0  0  0  0  0  0  0  # atno 8010 bound_to 7997
  140.7287  143.4308  151.0805 H   0  0  0  0  0  0  0  0  0  0  0  0  # atno 10167 bound_to 10162
  156.7634  130.9422  151.3118 H   0  0  0  0  0  0  0  0  0  0  0  0  # atno 10718 bound_to 10713
  154.8633  135.3608  154.5407 H   0  0  0  0  0  0  0  0  0  0  0  0  # atno 10763 bound_to 10752
  153.6029  135.7012  153.5382 H   0  0  0  0  0  0  0  0  0  0  0  0  # atno 10764 bound_to 10752
  153.3275  135.4133  155.1429 H   0  0  0  0  0  0  0  0  0  0  0  0  # atno 10765 bound_to 10752
  141.0279  133.6833  156.2523 H   0  0  0  0  0  0  0  0  0  0  0  0  # atno 11005 bound_to 11000
  145.3265  141.0256  143.3471 LP  0  0  0  0  0  0  0  0  0  0  0  0  # atno 17320 bound_to 7965
  144.8829  139.4879  143.6714 LP  0  0  0  0  0  0  0  0  0  0  0  0  # atno 17321 bound_to 7965
  139.7965  143.8145  152.3158 LP  0  0  0  0  0  0  0  0  0  0  0  0  # atno 17342 bound_to 10162
  139.8146  144.7321  150.9651 LP  0  0  0  0  0  0  0  0  0  0  0  0  # atno 17343 bound_to 10162
  157.6724  130.9063  150.0071 LP  0  0  0  0  0  0  0  0  0  0  0  0  # atno 17370 bound_to 10713
  156.1324  130.3643  149.9710 LP  0  0  0  0  0  0  0  0  0  0  0  0  # atno 17371 bound_to 10713
  140.6458  134.5118  157.5573 LP  0  0  0  0  0  0  0  0  0  0  0  0  # atno 17394 bound_to 11000
  139.9188  134.8191  156.1278 LP  0  0  0  0  0  0  0  0  0  0  0  0  # atno 17395 bound_to 11000

$$$$
