AV-unprocessed.smi:2594|AV-procd|sdf|10166|dock5
  -GOLD-   2272014183D 1   1.00000     0.00000
 Structure written by MMmdl.
 29 30  0  0  0  0  0  0  0  0  1 V2000
  150.4264  140.5613  154.3647 O   0  0  0  0  0  0  0  0  0  0  0  0
  149.6070  141.3505  154.8378 C   0  0  0  0  0  0  0  0  0  0  0  0
  148.2698  141.6104  154.1316 C   0  0  0  0  0  0  0  0  0  0  0  0
  147.1145  141.4075  155.0067 N   0  0  0  0  0  0  0  0  0  0  0  0
  147.2585  140.5894  156.0840 N   0  0  0  0  0  0  0  0  0  0  0  0
  146.1665  140.4908  156.7471 C   0  0  0  0  0  0  0  0  0  0  0  0
  144.7904  141.4122  156.1266 S   0  0  0  0  0  0  0  0  0  0  0  0
  145.8609  141.9830  154.8173 C   0  0  0  0  0  0  0  0  0  0  0  0
  145.4964  142.7505  153.9281 O   0  0  0  0  0  0  0  0  0  0  0  0
  149.8069  142.0142  155.9863 N   0  0  0  0  0  0  0  0  0  0  0  0
  151.0149  141.9326  156.7992 C   0  0  0  0  0  0  0  0  0  0  0  0
  150.8930  142.7824  158.0752 C   0  0  2  0  0  0  0  0  0  0  0  0
  151.2075  144.2608  157.8635 C   0  0  0  0  0  0  0  0  0  0  0  0
  151.5628  144.6951  159.2673 C   0  0  0  0  0  0  0  0  0  0  0  0
  152.3139  143.4761  159.7987 C   0  0  0  0  0  0  0  0  0  0  0  0
  151.8357  142.3570  159.0554 O   0  0  0  0  0  0  0  0  0  0  0  0
  148.2752  142.6301  153.7433 H   0  0  0  0  0  0  0  0  0  0  0  0
  148.1783  140.9515  153.2664 H   0  0  0  0  0  0  0  0  0  0  0  0
  146.0124  139.8974  157.6482 H   0  0  0  0  0  0  0  0  0  0  0  0
  149.0827  142.6403  156.3072 H   0  0  0  0  0  0  0  0  0  0  0  0
  151.1874  140.8879  157.0589 H   0  0  0  0  0  0  0  0  0  0  0  0
  151.8775  142.2525  156.2125 H   0  0  0  0  0  0  0  0  0  0  0  0
  149.8934  142.6931  158.5043 H   0  0  0  0  0  0  0  0  0  0  0  0
  152.0684  144.3826  157.2044 H   0  0  0  0  0  0  0  0  0  0  0  0
  150.3700  144.8175  157.4420 H   0  0  0  0  0  0  0  0  0  0  0  0
  152.1560  145.6094  159.2978 H   0  0  0  0  0  0  0  0  0  0  0  0
  150.6533  144.8576  159.8477 H   0  0  0  0  0  0  0  0  0  0  0  0
  153.3850  143.5765  159.6202 H   0  0  0  0  0  0  0  0  0  0  0  0
  152.1611  143.3345  160.8686 H   0  0  0  0  0  0  0  0  0  0  0  0
  1  2  2  0  0  0  0
  2  3  1  0  0  0  0
  2 10  1  0  0  0  0
  3  4  1  0  0  0  0
  3 17  1  0  0  0  0
  3 18  1  0  0  0  0
  4  8  1  0  0  0  0
  4  5  1  0  0  0  0
  5  6  2  0  0  0  0
  6  7  1  0  0  0  0
  6 19  1  0  0  0  0
  7  8  1  0  0  0  0
  8  9  2  0  0  0  0
 10 11  1  0  0  0  0
 10 20  1  0  0  0  0
 11 12  1  0  0  0  0
 11 21  1  0  0  0  0
 11 22  1  0  0  0  0
 12 16  1  0  0  0  0
 12 13  1  0  0  0  0
 12 23  1  0  0  0  0
 13 14  1  0  0  0  0
 13 24  1  0  0  0  0
 13 25  1  0  0  0  0
 14 15  1  0  0  0  0
 14 26  1  0  0  0  0
 14 27  1  0  0  0  0
 15 16  1  0  0  0  0
 15 28  1  0  0  0  0
 15 29  1  0  0  0  0
M  END
> <s_m_source_file>
AV-unprocessed.smi

> <i_m_source_file_index>
2594

> <i_lp_mmshare_version>
43012

> <i_f3d_flags>
0

> <s_epik_input>
TzFbQ0gyXVtDSDJdW0NIMl1bQ0BIXTFbQ0gyXVtOSF1DKD1PKVtDSDJdbjJuW2NIXXNjMj1P

> <s_epik_cmdline>
J2VwaWtfcHl0aG9uJywgJy1waCcsICc3LjAnLCAnLXRuJywgJzgnLCAnLW1hJywgJzIwMCcsICctbWV0YWxfYmluZGluZycsICctaW1hZScsICc8aW5maWxlLm1hZT4nLCAnLW9tYWUnLCAnPG91dGZpbGUubWFlPic=

> <r_lp_tautomer_probability>
1

> <r_epik_Ionization_Penalty>
2.49222e-07

> <r_epik_Ionization_Penalty_Charging>
1.4085e-08

> <r_epik_Ionization_Penalty_Neutral>
2.35137e-07

> <r_epik_State_Penalty>
-0

> <r_epik_Charging_Adjusted_Penalty>
1.4085e-08

> <i_epik_Tot_Q>
0

> <i_epik_Tot_abs_Q>
0

> <r_epik_Metal_State_Penalty>
-0

> <b_epik_Metal_Only>
0

> <s_lp_Force_Field>
OPLS_2005

> <r_lp_Energy>
18.2258

> <b_lp_Chiralities_Consistent>
1

> <s_lp_Variant>
AV-unprocessed.smi:2594-1

> <Gold.Version>
5.8.1

> <Gold.Id.Protein>
6NUR|6NUR_protein|mol2

> <Gold.PLP.Fitness>
41.0878

> <Gold.PLP.PLP>
-36.2456

> <Gold.PLP.part.hbond>
-2.1720

> <Gold.PLP.part.metal>
0.0000

> <Gold.PLP.part.buried>
-4.3734

> <Gold.PLP.part.nonpolar>
-30.1217

> <Gold.PLP.part.repulsive>
0.5114

> <Gold.PLP.ligand.clash>
0.0000

> <Gold.PLP.ligand.torsion>
0.5877

> <Gold.PLP.Chemscore.Hbond>
2.0000

> <Gold.PLP.Chemscore.CHOScore>
0.0000

> <Gold.PLP.Chemscore.Metal>
0.0000

> <Gold.Chemscore.Hbonds>
donor molecule, donor type, donor heavy atom, donor atom, acceptor molecule, acceptor atom, score
      L1  H    10    20       P1  8028  0.31
      P1  H  7989  7998       L1     1  0.87

> <Gold.PLP.Chemscore.Internal.Correction>
0.0177

> <Gold.Rescore>
     Score         DG    S(hbond)    S(metal)    S(lipo)     H(rot)  DE(clash)    DE(int)     intcor
     13.50     -13.88       1.62        0.00      69.05       2.00       0.03       0.35       ----

> <Gold.Chemscore.Fitness>
13.5033

> <Gold.Chemscore.DG>
-13.8759

> <Gold.Chemscore.ZeroCoef>
-5.4800

> <Gold.Chemscore.Hbond>
1.6240

> <Gold.Chemscore.Metal>
0.0000

> <Gold.Chemscore.Lipo>
69.0546

> <Gold.Chemscore.Internal_Hbond>
0.0000

> <Gold.Chemscore.DEClash>
0.0250

> <Gold.Chemscore.DEInternal>
0.3476

> <Gold.Chemscore.Rot>
1.9952

> <Gold.Chemscore.Internal.Correction>
   9.000000E+99

> <Gold.Chemscore.Hbonds>
donor molecule, donor type, donor heavy atom, donor atom, acceptor molecule, acceptor atom, score
      L1  H    10    20       P1  8028  0.29
      P1  H  7989  7998       L1     1  0.80

> <Gold.Chemscore.Hbond.Weighted>
-5.4243

> <Gold.Chemscore.Metal.Weighted>
-0.0000

> <Gold.Chemscore.Lipo.Weighted>
-8.0794

> <Gold.Chemscore.Internal_Hbond.Weighted>
0.0000

> <Gold.Chemscore.DEClash.Weighted>
0.0250

> <Gold.Chemscore.DEInternal.Weighted>
0.3476

> <Gold.Chemscore.Rot.Weighted>
5.1077

> <Gold.Chemscore.Internal.Correction.Weighted>
   9.000000E+99

> <Gold.Protein.RotatedTorsions>
[ 6907 6896 6895 6894 ] final  -57.15 input  -60.11 | X-H torsion
[ 7974 7965 7964 7962 ] final  147.11 input  175.53 | X-H torsion
[ 8008 7997 7996 7995 ] final -126.25 input   59.86 | X-H torsion
[ 10167 10162 10161 10158 ] final   13.94 input  -65.29 | X-H torsion
[ 10718 10713 10712 10709 ] final  -22.36 input   66.30 | X-H torsion
[ 10763 10752 10751 10750 ] final  -31.89 input  -60.55 | X-H torsion
[ 11005 11000 10999 10996 ] final -169.07 input  -57.11 | X-H torsion

> <Gold.Protein.ActiveResidues>
 VAL166  LYS551  ARG553  GLY616  TRP617  ASP618  TYR619  PRO620  LYS621  CYS622 
 ASP623  PHE694  ASN695  SER759  ASP760  ASP761  ALA762  ILE779  LEU786  VAL792 
 PHE793  MET794  SER795  GLU796  ALA797  LYS798  CYS799  TRP800  GLU811  SER814 

> <Gold.Protein.RotatedAtoms>
  150.8110  134.7264  159.6687 H   0  0  0  0  0  0  0  0  0  0  0  0  # atno 6907 bound_to 6896
  152.4229  134.5918  159.9986 H   0  0  0  0  0  0  0  0  0  0  0  0  # atno 6908 bound_to 6896
  151.6128  133.3308  159.3107 H   0  0  0  0  0  0  0  0  0  0  0  0  # atno 6909 bound_to 6896
  144.8617  139.5988  143.5927 H   0  0  0  0  0  0  0  0  0  0  0  0  # atno 7974 bound_to 7965
  155.2266  140.0424  157.2956 H   0  0  0  0  0  0  0  0  0  0  0  0  # atno 8008 bound_to 7997
  154.5915  140.2428  155.7884 H   0  0  0  0  0  0  0  0  0  0  0  0  # atno 8009 bound_to 7997
  156.2262  140.2953  156.0082 H   0  0  0  0  0  0  0  0  0  0  0  0  # atno 8010 bound_to 7997
  140.5969  143.8683  150.6927 H   0  0  0  0  0  0  0  0  0  0  0  0  # atno 10167 bound_to 10162
  156.5056  130.4598  149.6677 H   0  0  0  0  0  0  0  0  0  0  0  0  # atno 10718 bound_to 10713
  153.8047  135.6887  153.4850 H   0  0  0  0  0  0  0  0  0  0  0  0  # atno 10763 bound_to 10752
  153.1666  135.4559  154.9844 H   0  0  0  0  0  0  0  0  0  0  0  0  # atno 10764 bound_to 10752
  154.7992  135.3331  154.7533 H   0  0  0  0  0  0  0  0  0  0  0  0  # atno 10765 bound_to 10752
  140.5349  134.5580  157.5084 H   0  0  0  0  0  0  0  0  0  0  0  0  # atno 11005 bound_to 11000
  146.2865  139.7020  142.9191 LP  0  0  0  0  0  0  0  0  0  0  0  0  # atno 17320 bound_to 7965
  145.4299  141.0414  143.2916 LP  0  0  0  0  0  0  0  0  0  0  0  0  # atno 17321 bound_to 7965
  140.2220  143.3802  152.1635 LP  0  0  0  0  0  0  0  0  0  0  0  0  # atno 17342 bound_to 10162
  139.5264  144.7107  151.5213 LP  0  0  0  0  0  0  0  0  0  0  0  0  # atno 17343 bound_to 10162
  156.3290  130.7321  151.2247 LP  0  0  0  0  0  0  0  0  0  0  0  0  # atno 17370 bound_to 10713
  157.7457  131.0435  150.4746 LP  0  0  0  0  0  0  0  0  0  0  0  0  # atno 17371 bound_to 10713
  139.9535  134.7576  156.0395 LP  0  0  0  0  0  0  0  0  0  0  0  0  # atno 17394 bound_to 11000
  141.1260  133.6599  156.3339 LP  0  0  0  0  0  0  0  0  0  0  0  0  # atno 17395 bound_to 11000

$$$$
