AV-unprocessed.smi:1385|AV-procd|sdf|5635|dock3
  -GOLD-   22720 5253D 1   1.00000     0.00000
 Structure written by MMmdl.
 38 39  0  0  0  0  0  0  0  0  3 V2000
  151.8588  145.2738  159.4915 C   0  0  0  0  0  0  0  0  0  0  0  0
  151.7327  143.8068  159.2602 C   0  0  0  0  0  0  0  0  0  0  0  0
  151.7200  142.9142  160.2578 N   0  0  0  0  0  0  0  0  0  0  0  0
  151.5944  141.6113  159.7964 N   0  0  0  0  0  0  0  0  0  0  0  0
  151.5136  141.5604  158.4598 C   0  0  0  0  0  0  0  0  0  0  0  0
  151.3836  140.3543  157.7220 N   0  0  0  0  0  0  0  0  0  0  0  0
  151.2797  140.1992  156.3904 C   0  0  0  0  0  0  0  0  0  0  0  0
  151.2942  141.1105  155.5626 O   0  0  0  0  0  0  0  0  0  0  0  0
  151.1530  138.9051  156.0619 N   0  0  0  0  0  0  0  0  0  0  0  0
  151.0184  138.3872  154.7006 C   0  0  2  0  0  0  0  0  0  0  0  0
  149.7469  138.9177  154.0101 C   0  0  0  0  0  0  0  0  0  0  0  0
  148.4671  138.3168  154.6182 C   0  0  0  0  0  0  0  0  0  0  0  0
  148.5014  136.8293  154.5848 N   0  3  2  0  0  0  0  0  0  0  0  0
  147.2381  136.2054  155.0517 C   0  0  0  0  0  0  0  0  0  0  0  0
  146.0720  136.6179  154.1468 C   0  0  0  0  0  0  0  0  0  0  0  0
  146.2372  136.2060  152.8755 N   0  5  0  0  0  0  0  0  0  0  0  0
  145.1255  137.2422  154.6222 O   0  0  0  0  0  0  0  0  0  0  0  0
  149.6881  136.2922  155.2982 C   0  0  0  0  0  0  0  0  0  0  0  0
  150.9975  136.8494  154.7098 C   0  0  0  0  0  0  0  0  0  0  0  0
  151.5820  143.1158  157.6492 S   0  0  0  0  0  0  0  0  0  0  0  0
  152.3196  145.4709  160.4600 H   0  0  0  0  0  0  0  0  0  0  0  0
  150.8733  145.7392  159.4706 H   0  0  0  0  0  0  0  0  0  0  0  0
  152.4766  145.7242  158.7143 H   0  0  0  0  0  0  0  0  0  0  0  0
  151.3581  139.5108  158.2756 H   0  0  0  0  0  0  0  0  0  0  0  0
  151.1543  138.2260  156.8088 H   0  0  0  0  0  0  0  0  0  0  0  0
  151.8906  138.7094  154.1287 H   0  0  0  0  0  0  0  0  0  0  0  0
  149.7080  140.0066  154.0583 H   0  0  0  0  0  0  0  0  0  0  0  0
  149.7862  138.6661  152.9494 H   0  0  0  0  0  0  0  0  0  0  0  0
  148.3414  138.6574  155.6470 H   0  0  0  0  0  0  0  0  0  0  0  0
  147.6063  138.6864  154.0605 H   0  0  0  0  0  0  0  0  0  0  0  0
  147.3140  135.1191  154.9893 H   0  0  0  0  0  0  0  0  0  0  0  0
  147.0626  136.4433  156.1033 H   0  0  0  0  0  0  0  0  0  0  0  0
  147.1632  136.3030  152.4419 H   0  0  0  0  0  0  0  0  0  0  0  0
  149.6142  136.5332  156.3599 H   0  0  0  0  0  0  0  0  0  0  0  0
  149.7001  135.2043  155.2223 H   0  0  0  0  0  0  0  0  0  0  0  0
  151.1103  136.4850  153.6879 H   0  0  0  0  0  0  0  0  0  0  0  0
  151.8531  136.4624  155.2647 H   0  0  0  0  0  0  0  0  0  0  0  0
  148.6013  136.5584  153.6167 H   0  0  0  0  0  0  0  0  0  0  0  0
  1  2  1  0  0  0  0
  1 21  1  0  0  0  0
  1 22  1  0  0  0  0
  1 23  1  0  0  0  0
  2 20  1  0  0  0  0
  2  3  2  0  0  0  0
  3  4  1  0  0  0  0
  4  5  2  0  0  0  0
  5  6  1  0  0  0  0
  5 20  1  0  0  0  0
  6  7  1  0  0  0  0
  6 24  1  0  0  0  0
  7  8  2  0  0  0  0
  7  9  1  0  0  0  0
  9 10  1  0  0  0  0
  9 25  1  0  0  0  0
 10 19  1  0  0  0  0
 10 11  1  0  0  0  0
 10 26  1  0  0  0  0
 11 12  1  0  0  0  0
 11 27  1  0  0  0  0
 11 28  1  0  0  0  0
 12 13  1  0  0  0  0
 12 29  1  0  0  0  0
 12 30  1  0  0  0  0
 13 14  1  0  0  0  0
 13 18  1  0  0  0  0
 13 38  1  0  0  0  0
 14 15  1  0  0  0  0
 14 31  1  0  0  0  0
 14 32  1  0  0  0  0
 15 16  1  0  0  0  0
 15 17  2  0  0  0  0
 16 33  1  0  0  0  0
 18 19  1  0  0  0  0
 18 34  1  0  0  0  0
 18 35  1  0  0  0  0
 19 36  1  0  0  0  0
 19 37  1  0  0  0  0
M  CHG  1  13   1
M  CHG  1  16  -1
M  END
> <s_m_source_file>
AV-unprocessed.smi

> <i_m_source_file_index>
1385

> <i_lp_mmshare_version>
43012

> <i_f3d_flags>
0

> <s_epik_input>
W0NIM11jMW5uYyhzMSlbTkhdQyg9TylbTkhdW0NIXTJbQ0gyXVtDSDJdTihbQ0gyXVtDSDJdMilbQ0gyXUMoPU8pW05IMl0=

> <s_epik_cmdline>
J2VwaWtfcHl0aG9uJywgJy1waCcsICc3LjAnLCAnLXRuJywgJzgnLCAnLW1hJywgJzIwMCcsICctbWV0YWxfYmluZGluZycsICctaW1hZScsICc8aW5maWxlLm1hZT4nLCAnLW9tYWUnLCAnPG91dGZpbGUubWFlPic=

> <r_lp_tautomer_probability>
1

> <r_epik_Ionization_Penalty>
5.73549

> <r_epik_Ionization_Penalty_Charging>
5.73152

> <r_epik_Ionization_Penalty_Neutral>
0.00396448

> <r_epik_State_Penalty>
6.57436

> <r_epik_Charging_Adjusted_Penalty>
12.3059

> <i_epik_Tot_Q>
0

> <i_epik_Tot_abs_Q>
2

> <r_epik_Metal_State_Penalty>
2.87628

> <b_epik_Metal_Only>
1

> <s_lp_Force_Field>
OPLS_2005

> <r_lp_Energy>
6.46457

> <b_lp_Chiralities_Consistent>
1

> <s_lp_Variant>
AV-unprocessed.smi:1385-8

> <Gold.Version>
5.8.1

> <Gold.Id.Protein>
6NUR|6NUR_protein|mol2

> <Gold.PLP.Fitness>
40.1072

> <Gold.PLP.PLP>
-29.6608

> <Gold.PLP.part.hbond>
-3.9005

> <Gold.PLP.part.metal>
0.0000

> <Gold.PLP.part.buried>
-2.1130

> <Gold.PLP.part.nonpolar>
-22.7051

> <Gold.PLP.part.repulsive>
0.2566

> <Gold.PLP.ligand.clash>
0.0000

> <Gold.PLP.ligand.torsion>
0.0330

> <Gold.PLP.Chemscore.Hbond>
3.4961

> <Gold.PLP.Chemscore.CHOScore>
0.0000

> <Gold.PLP.Chemscore.Metal>
0.0000

> <Gold.Chemscore.Hbonds>
donor molecule, donor type, donor heavy atom, donor atom, acceptor molecule, acceptor atom, score
      L1  H    13    38       P1  7948  2.00
      L1  H    16    33       P1  7948  1.00
      P1  H  7989  7998       L1     8  0.50

> <Gold.PLP.Chemscore.Internal.Correction>
0.0242

> <Gold.Rescore>
     Score         DG    S(hbond)    S(metal)    S(lipo)     H(rot)  DE(clash)    DE(int)     intcor
     14.94     -16.52       2.56        0.00      65.85       2.04       0.30       1.27       ----

> <Gold.Chemscore.Fitness>
14.9440

> <Gold.Chemscore.DG>
-16.5172

> <Gold.Chemscore.ZeroCoef>
-5.4800

> <Gold.Chemscore.Hbond>
2.5591

> <Gold.Chemscore.Metal>
0.0000

> <Gold.Chemscore.Lipo>
65.8467

> <Gold.Chemscore.Internal_Hbond>
0.0000

> <Gold.Chemscore.DEClash>
0.3045

> <Gold.Chemscore.DEInternal>
1.2687

> <Gold.Chemscore.Rot>
2.0369

> <Gold.Chemscore.Internal.Correction>
   9.000000E+99

> <Gold.Chemscore.Hbonds>
donor molecule, donor type, donor heavy atom, donor atom, acceptor molecule, acceptor atom, score
      L1  H    13    38       P1  7948  1.00
      L1  H    16    33       P1  7948  1.00
      P1  H  7989  7998       L1     8  0.49

> <Gold.Chemscore.Hbond.Weighted>
-8.5475

> <Gold.Chemscore.Metal.Weighted>
-0.0000

> <Gold.Chemscore.Lipo.Weighted>
-7.7041

> <Gold.Chemscore.Internal_Hbond.Weighted>
0.0000

> <Gold.Chemscore.DEClash.Weighted>
0.3045

> <Gold.Chemscore.DEInternal.Weighted>
1.2687

> <Gold.Chemscore.Rot.Weighted>
5.2144

> <Gold.Chemscore.Internal.Correction.Weighted>
   9.000000E+99

> <Gold.Protein.RotatedTorsions>
[ 6907 6896 6895 6894 ] final  -51.25 input  -60.11 | X-H torsion
[ 7974 7965 7964 7962 ] final  112.38 input  175.53 | X-H torsion
[ 8008 7997 7996 7995 ] final   99.28 input   59.86 | X-H torsion
[ 10167 10162 10161 10158 ] final  176.87 input  -65.29 | X-H torsion
[ 10718 10713 10712 10709 ] final   22.69 input   66.30 | X-H torsion
[ 10763 10752 10751 10750 ] final  137.54 input  -60.55 | X-H torsion
[ 11005 11000 10999 10996 ] final -107.05 input  -57.11 | X-H torsion

> <Gold.Protein.ActiveResidues>
 VAL166  LYS551  ARG553  GLY616  TRP617  ASP618  TYR619  PRO620  LYS621  CYS622 
 ASP623  PHE694  ASN695  SER759  ASP760  ASP761  ALA762  ILE779  LEU786  VAL792 
 PHE793  MET794  SER795  GLU796  ALA797  LYS798  CYS799  TRP800  GLU811  SER814 

> <Gold.Protein.RotatedAtoms>
  150.8629  134.7985  159.7096 H   0  0  0  0  0  0  0  0  0  0  0  0  # atno 6907 bound_to 6896
  152.4660  134.5071  159.9752 H   0  0  0  0  0  0  0  0  0  0  0  0  # atno 6908 bound_to 6896
  151.5172  133.3435  159.2930 H   0  0  0  0  0  0  0  0  0  0  0  0  # atno 6909 bound_to 6896
  145.2303  139.2822  143.4172 H   0  0  0  0  0  0  0  0  0  0  0  0  # atno 7974 bound_to 7965
  156.1089  140.3231  155.8045 H   0  0  0  0  0  0  0  0  0  0  0  0  # atno 8008 bound_to 7997
  155.4707  140.0546  157.2997 H   0  0  0  0  0  0  0  0  0  0  0  0  # atno 8009 bound_to 7997
  154.4746  140.2027  155.9923 H   0  0  0  0  0  0  0  0  0  0  0  0  # atno 8010 bound_to 7997
  139.5231  144.2865  152.0501 H   0  0  0  0  0  0  0  0  0  0  0  0  # atno 10167 bound_to 10162
  157.1558  130.6694  149.6027 H   0  0  0  0  0  0  0  0  0  0  0  0  # atno 10718 bound_to 10713
  153.8747  135.3051  155.3443 H   0  0  0  0  0  0  0  0  0  0  0  0  # atno 10763 bound_to 10752
  154.7789  135.4846  153.9806 H   0  0  0  0  0  0  0  0  0  0  0  0  # atno 10764 bound_to 10752
  153.1386  135.6819  153.9160 H   0  0  0  0  0  0  0  0  0  0  0  0  # atno 10765 bound_to 10752
  141.0974  133.8947  157.1929 H   0  0  0  0  0  0  0  0  0  0  0  0  # atno 11005 bound_to 11000
  146.3354  140.2636  142.8603 LP  0  0  0  0  0  0  0  0  0  0  0  0  # atno 17320 bound_to 7965
  144.9683  140.8343  143.5471 LP  0  0  0  0  0  0  0  0  0  0  0  0  # atno 17321 bound_to 7965
  140.2318  144.4361  150.6297 LP  0  0  0  0  0  0  0  0  0  0  0  0  # atno 17342 bound_to 10162
  140.6350  143.2193  151.6414 LP  0  0  0  0  0  0  0  0  0  0  0  0  # atno 17343 bound_to 10162
  155.9762  130.4729  150.6514 LP  0  0  0  0  0  0  0  0  0  0  0  0  # atno 17370 bound_to 10713
  157.4179  131.0832  151.1159 LP  0  0  0  0  0  0  0  0  0  0  0  0  # atno 17371 bound_to 10713
  139.9814  135.0097  156.9759 LP  0  0  0  0  0  0  0  0  0  0  0  0  # atno 17394 bound_to 11000
  140.5107  134.1005  155.7270 LP  0  0  0  0  0  0  0  0  0  0  0  0  # atno 17395 bound_to 11000

$$$$
