AV-unprocessed.smi:1884|AV-procd|sdf|7649|dock10
  -GOLD-   22720 9383D 1   1.00000     0.00000
 Structure written by MMmdl.
 41 43  0  0  0  0  0  0  0  0  2 V2000
  149.5407  141.1608  154.9556 C   0  0  0  0  0  0  0  0  0  0  0  0
  150.3077  141.6592  156.1342 C   0  0  0  0  0  0  0  0  0  0  0  0
  150.2339  142.9106  156.6688 N   0  3  0  0  0  0  0  0  0  0  0  0
  151.0944  143.0080  157.7632 C   0  0  0  0  0  0  0  0  0  0  0  0
  151.3618  144.0717  158.6195 C   0  0  0  0  0  0  0  0  0  0  0  0
  152.3068  143.8400  159.6405 C   0  0  0  0  0  0  0  0  0  0  0  0
  152.9445  142.5902  159.7810 C   0  0  0  0  0  0  0  0  0  0  0  0
  152.6618  141.5179  158.9093 C   0  0  0  0  0  0  0  0  0  0  0  0
  151.7259  141.7548  157.9026 C   0  0  0  0  0  0  0  0  0  0  0  0
  151.2070  140.9537  156.8778 N   0  0  0  0  0  0  0  0  0  0  0  0
  151.6545  139.5583  156.7444 C   0  0  0  0  0  0  0  0  0  0  0  0
  151.9307  139.1554  155.2818 C   0  0  1  0  0  0  0  0  0  0  0  0
  153.3122  139.1728  154.9840 O   0  0  0  0  0  0  0  0  0  0  0  0
  151.3468  137.7853  154.9007 C   0  0  0  0  0  0  0  0  0  0  0  0
  151.8549  136.7794  155.7691 O   0  0  0  0  0  0  0  0  0  0  0  0
  151.4387  135.4795  155.5781 C   0  0  0  0  0  0  0  0  0  0  0  0
  151.9597  134.5054  156.4546 C   0  0  0  0  0  0  0  0  0  0  0  0
  151.5889  133.1522  156.3333 C   0  0  0  0  0  0  0  0  0  0  0  0
  150.6859  132.7564  155.3271 C   0  0  0  0  0  0  0  0  0  0  0  0
  150.3005  131.3611  155.1987 C   0  0  0  0  0  0  0  0  0  0  0  0
  149.9940  130.2500  155.0964 N   0  0  0  0  0  0  0  0  0  0  0  0
  150.1578  133.7201  154.4455 C   0  0  0  0  0  0  0  0  0  0  0  0
  150.5301  135.0732  154.5682 C   0  0  0  0  0  0  0  0  0  0  0  0
  148.9167  141.9529  154.5411 H   0  0  0  0  0  0  0  0  0  0  0  0
  148.8983  140.3303  155.2488 H   0  0  0  0  0  0  0  0  0  0  0  0
  150.2239  140.8159  154.1795 H   0  0  0  0  0  0  0  0  0  0  0  0
  150.8754  145.0303  158.5130 H   0  0  0  0  0  0  0  0  0  0  0  0
  152.5487  144.6372  160.3284 H   0  0  0  0  0  0  0  0  0  0  0  0
  153.6658  142.4504  160.5732 H   0  0  0  0  0  0  0  0  0  0  0  0
  153.1594  140.5661  159.0242 H   0  0  0  0  0  0  0  0  0  0  0  0
  152.5292  139.4028  157.3760 H   0  0  0  0  0  0  0  0  0  0  0  0
  150.8686  138.9259  157.1585 H   0  0  0  0  0  0  0  0  0  0  0  0
  151.4753  139.8998  154.6277 H   0  0  0  0  0  0  0  0  0  0  0  0
  153.5122  138.4221  154.4464 H   0  0  0  0  0  0  0  0  0  0  0  0
  150.2616  137.8287  155.0049 H   0  0  0  0  0  0  0  0  0  0  0  0
  151.5714  137.5546  153.8577 H   0  0  0  0  0  0  0  0  0  0  0  0
  152.6527  134.7990  157.2292 H   0  0  0  0  0  0  0  0  0  0  0  0
  152.0015  132.4231  157.0160 H   0  0  0  0  0  0  0  0  0  0  0  0
  149.4641  133.4283  153.6698 H   0  0  0  0  0  0  0  0  0  0  0  0
  150.1027  135.7805  153.8740 H   0  0  0  0  0  0  0  0  0  0  0  0
  149.6363  143.6438  156.3094 H   0  0  0  0  0  0  0  0  0  0  0  0
  1  2  1  0  0  0  0
  1 24  1  0  0  0  0
  1 25  1  0  0  0  0
  1 26  1  0  0  0  0
  2 10  1  0  0  0  0
  2  3  2  0  0  0  0
  3  4  1  0  0  0  0
  3 41  1  0  0  0  0
  4  9  2  0  0  0  0
  4  5  1  0  0  0  0
  5  6  2  0  0  0  0
  5 27  1  0  0  0  0
  6  7  1  0  0  0  0
  6 28  1  0  0  0  0
  7  8  2  0  0  0  0
  7 29  1  0  0  0  0
  8  9  1  0  0  0  0
  8 30  1  0  0  0  0
  9 10  1  0  0  0  0
 10 11  1  0  0  0  0
 11 12  1  0  0  0  0
 11 31  1  0  0  0  0
 11 32  1  0  0  0  0
 12 13  1  0  0  0  0
 12 14  1  0  0  0  0
 12 33  1  0  0  0  0
 13 34  1  0  0  0  0
 14 15  1  0  0  0  0
 14 35  1  0  0  0  0
 14 36  1  0  0  0  0
 15 16  1  0  0  0  0
 16 23  1  0  0  0  0
 16 17  2  0  0  0  0
 17 18  1  0  0  0  0
 17 37  1  0  0  0  0
 18 19  2  0  0  0  0
 18 38  1  0  0  0  0
 19 20  1  0  0  0  0
 19 22  1  0  0  0  0
 20 21  3  0  0  0  0
 22 23  2  0  0  0  0
 22 39  1  0  0  0  0
 23 40  1  0  0  0  0
M  CHG  1   3   1
M  END
> <s_m_source_file>
AV-unprocessed.smi

> <i_m_source_file_index>
1884

> <i_lp_mmshare_version>
43012

> <i_f3d_flags>
0

> <s_epik_input>
W2NIXTFbY0hdW2NIXVtjSF1jKGMxMiluKGMobjIpW0NIM10pW0NIMl1bQ0BIXShbT0hdKVtDSDJdT2MzW2NIXVtjSF1jKEMjTilbY0hdW2NIXTM=

> <s_epik_cmdline>
J2VwaWtfcHl0aG9uJywgJy1waCcsICc3LjAnLCAnLXRuJywgJzgnLCAnLW1hJywgJzIwMCcsICctbWV0YWxfYmluZGluZycsICctaW1hZScsICc8aW5maWxlLm1hZT4nLCAnLW9tYWUnLCAnPG91dGZpbGUubWFlPic=

> <r_epik_Ionization_Penalty>
1.04791

> <r_epik_Ionization_Penalty_Charging>
1.04791

> <r_epik_Ionization_Penalty_Neutral>
2.3993e-06

> <r_epik_State_Penalty>
1.10051

> <r_epik_Charging_Adjusted_Penalty>
2.14841

> <i_epik_Tot_Q>
1

> <i_epik_Tot_abs_Q>
1

> <r_epik_Metal_State_Penalty>
5.09283

> <b_epik_Metal_Only>
0

> <s_lp_Force_Field>
OPLS_2005

> <r_lp_Energy>
19.6719

> <b_lp_Chiralities_Consistent>
1

> <s_lp_Variant>
AV-unprocessed.smi:1884-4

> <Gold.Version>
5.8.1

> <Gold.Id.Protein>
6NUR|6NUR_protein|mol2

> <Gold.PLP.Fitness>
55.5992

> <Gold.PLP.PLP>
-48.2801

> <Gold.PLP.part.hbond>
-2.5845

> <Gold.PLP.part.metal>
0.0000

> <Gold.PLP.part.buried>
-3.3307

> <Gold.PLP.part.nonpolar>
-42.0981

> <Gold.PLP.part.repulsive>
0.0928

> <Gold.PLP.ligand.clash>
0.0000

> <Gold.PLP.ligand.torsion>
0.8508

> <Gold.PLP.Chemscore.Hbond>
3.0000

> <Gold.PLP.Chemscore.CHOScore>
0.0000

> <Gold.PLP.Chemscore.Metal>
0.0000

> <Gold.Chemscore.Hbonds>
donor molecule, donor type, donor heavy atom, donor atom, acceptor molecule, acceptor atom, score
      L1  H     3    41       P1  8028  1.66
      P1  H  7997  8010       L1    13  1.00

> <Gold.PLP.Chemscore.Internal.Correction>
0.0207

> <Gold.Rescore>
     Score         DG    S(hbond)    S(metal)    S(lipo)     H(rot)  DE(clash)    DE(int)     intcor
     19.62     -20.45       1.96        0.00     124.29       2.39       0.01       0.82       ----

> <Gold.Chemscore.Fitness>
19.6171

> <Gold.Chemscore.DG>
-20.4479

> <Gold.Chemscore.ZeroCoef>
-5.4800

> <Gold.Chemscore.Hbond>
1.9607

> <Gold.Chemscore.Metal>
0.0000

> <Gold.Chemscore.Lipo>
124.2910

> <Gold.Chemscore.Internal_Hbond>
0.0000

> <Gold.Chemscore.DEClash>
0.0110

> <Gold.Chemscore.DEInternal>
0.8199

> <Gold.Chemscore.Rot>
2.3917

> <Gold.Chemscore.Internal.Correction>
   9.000000E+99

> <Gold.Chemscore.Hbonds>
donor molecule, donor type, donor heavy atom, donor atom, acceptor molecule, acceptor atom, score
      L1  H     3    41       P1  8028  0.80
      P1  H  7997  8010       L1    13  0.99

> <Gold.Chemscore.Hbond.Weighted>
-6.5487

> <Gold.Chemscore.Metal.Weighted>
-0.0000

> <Gold.Chemscore.Lipo.Weighted>
-14.5420

> <Gold.Chemscore.Internal_Hbond.Weighted>
0.0000

> <Gold.Chemscore.DEClash.Weighted>
0.0110

> <Gold.Chemscore.DEInternal.Weighted>
0.8199

> <Gold.Chemscore.Rot.Weighted>
6.1229

> <Gold.Chemscore.Internal.Correction.Weighted>
   9.000000E+99

> <Gold.Protein.RotatedTorsions>
[ 6907 6896 6895 6894 ] final   69.85 input  -60.11 | X-H torsion
[ 7974 7965 7964 7962 ] final -124.97 input  175.53 | X-H torsion
[ 8008 7997 7996 7995 ] final  106.17 input   59.86 | X-H torsion
[ 10167 10162 10161 10158 ] final  -27.38 input  -65.29 | X-H torsion
[ 10718 10713 10712 10709 ] final  -48.92 input   66.30 | X-H torsion
[ 10763 10752 10751 10750 ] final   61.67 input  -60.55 | X-H torsion
[ 11005 11000 10999 10996 ] final  -64.75 input  -57.11 | X-H torsion

> <Gold.Protein.ActiveResidues>
 VAL166  LYS551  ARG553  GLY616  TRP617  ASP618  TYR619  PRO620  LYS621  CYS622 
 ASP623  PHE694  ASN695  SER759  ASP760  ASP761  ALA762  ILE779  LEU786  VAL792 
 PHE793  MET794  SER795  GLU796  ALA797  LYS798  CYS799  TRP800  GLU811  SER814 

> <Gold.Protein.RotatedAtoms>
  152.4713  134.4954  159.9708 H   0  0  0  0  0  0  0  0  0  0  0  0  # atno 6907 bound_to 6896
  151.4980  133.3504  159.2872 H   0  0  0  0  0  0  0  0  0  0  0  0  # atno 6908 bound_to 6896
  150.8724  134.8128  159.7226 H   0  0  0  0  0  0  0  0  0  0  0  0  # atno 6909 bound_to 6896
  145.0025  140.7833  143.4487 H   0  0  0  0  0  0  0  0  0  0  0  0  # atno 7974 bound_to 7965
  156.1720  140.3117  155.8992 H   0  0  0  0  0  0  0  0  0  0  0  0  # atno 8008 bound_to 7997
  155.3566  140.0474  157.3063 H   0  0  0  0  0  0  0  0  0  0  0  0  # atno 8009 bound_to 7997
  154.5251  140.2211  155.8915 H   0  0  0  0  0  0  0  0  0  0  0  0  # atno 8010 bound_to 7997
  140.7277  143.4098  151.1124 H   0  0  0  0  0  0  0  0  0  0  0  0  # atno 10167 bound_to 10162
  156.1942  130.4154  149.9329 H   0  0  0  0  0  0  0  0  0  0  0  0  # atno 10718 bound_to 10713
  152.9958  135.5492  154.6070 H   0  0  0  0  0  0  0  0  0  0  0  0  # atno 10763 bound_to 10752
  154.5399  135.2819  155.1107 H   0  0  0  0  0  0  0  0  0  0  0  0  # atno 10764 bound_to 10752
  154.2389  135.6420  153.5253 H   0  0  0  0  0  0  0  0  0  0  0  0  # atno 10765 bound_to 10752
  141.1434  133.6670  156.5881 H   0  0  0  0  0  0  0  0  0  0  0  0  # atno 11005 bound_to 11000
  145.2134  139.2194  143.5131 LP  0  0  0  0  0  0  0  0  0  0  0  0  # atno 17320 bound_to 7965
  146.3455  140.1976  142.8589 LP  0  0  0  0  0  0  0  0  0  0  0  0  # atno 17321 bound_to 7965
  139.7730  143.8466  152.3124 LP  0  0  0  0  0  0  0  0  0  0  0  0  # atno 17342 bound_to 10162
  139.8391  144.7218  150.9353 LP  0  0  0  0  0  0  0  0  0  0  0  0  # atno 17343 bound_to 10162
  156.7059  130.8951  151.3604 LP  0  0  0  0  0  0  0  0  0  0  0  0  # atno 17370 bound_to 10713
  157.6948  130.9270  150.0613 LP  0  0  0  0  0  0  0  0  0  0  0  0  # atno 17371 bound_to 10713
  140.3785  134.7544  157.4645 LP  0  0  0  0  0  0  0  0  0  0  0  0  # atno 17394 bound_to 11000
  140.0656  134.5934  155.8699 LP  0  0  0  0  0  0  0  0  0  0  0  0  # atno 17395 bound_to 11000

$$$$
