AV-unprocessed.smi:1412|AV-procd|sdf|5746|dock9
  -GOLD-   22720 5383D 1   1.00000     0.00000
 Structure written by MMmdl.
 41 42  0  0  0  0  0  0  0  0  3 V2000
  148.8854  132.8973  154.1299 C   0  0  0  0  0  0  0  0  0  0  0  0
  149.7349  134.1804  154.1462 C   0  0  0  0  0  0  0  0  0  0  0  0
  149.2584  135.3128  155.1063 C   0  0  1  0  0  0  0  0  0  0  0  0
  147.7103  135.2759  155.2152 C   0  0  0  0  0  0  0  0  0  0  0  0
  149.8200  135.0786  156.5415 C   0  0  0  0  0  0  0  0  0  0  0  0
  149.0746  135.8256  157.5566 N   0  0  0  0  0  0  0  0  0  0  0  0
  148.5632  135.3391  158.6963 C   0  0  0  0  0  0  0  0  0  0  0  0
  148.5939  134.1280  158.9224 O   0  0  0  0  0  0  0  0  0  0  0  0
  148.0771  136.2926  159.5203 N   0  5  0  0  0  0  0  0  0  0  0  0
  147.8569  136.0074  160.8141 C   0  0  0  0  0  0  0  0  0  0  0  0
  147.9092  136.9461  161.7732 N   0  0  0  0  0  0  0  0  0  0  0  0
  147.6550  136.4440  163.0419 N   0  0  0  0  0  0  0  0  0  0  0  0
  147.4076  135.1349  163.0057 C   0  0  0  0  0  0  0  0  0  0  0  0
  147.4631  134.3966  161.4187 S   0  0  0  0  0  0  0  0  0  0  0  0
  149.7233  136.6630  154.6155 N   0  3  0  0  0  0  0  0  0  0  0  0
  149.0089  137.8368  155.1892 C   0  0  0  0  0  0  0  0  0  0  0  0
  149.3604  139.1041  154.3973 C   0  0  0  0  0  0  0  0  0  0  0  0
  150.7635  139.3189  154.4736 O   0  0  0  0  0  0  0  0  0  0  0  0
  151.4943  138.2463  153.8933 C   0  0  0  0  0  0  0  0  0  0  0  0
  151.1886  136.9289  154.6302 C   0  0  0  0  0  0  0  0  0  0  0  0
  149.3253  132.1616  153.4564 H   0  0  0  0  0  0  0  0  0  0  0  0
  147.8709  133.0834  153.7789 H   0  0  0  0  0  0  0  0  0  0  0  0
  148.8262  132.4353  155.1149 H   0  0  0  0  0  0  0  0  0  0  0  0
  150.7519  133.8813  154.4003 H   0  0  0  0  0  0  0  0  0  0  0  0
  149.7823  134.5645  153.1268 H   0  0  0  0  0  0  0  0  0  0  0  0
  147.3645  134.3987  155.7623 H   0  0  0  0  0  0  0  0  0  0  0  0
  147.2325  135.2393  154.2355 H   0  0  0  0  0  0  0  0  0  0  0  0
  147.3205  136.1455  155.7457 H   0  0  0  0  0  0  0  0  0  0  0  0
  149.7469  134.0252  156.8109 H   0  0  0  0  0  0  0  0  0  0  0  0
  150.8845  135.3081  156.5937 H   0  0  0  0  0  0  0  0  0  0  0  0
  149.0005  136.8228  157.4152 H   0  0  0  0  0  0  0  0  0  0  0  0
  147.1900  134.6011  163.9186 H   0  0  0  0  0  0  0  0  0  0  0  0
  147.9303  137.6938  155.1759 H   0  0  0  0  0  0  0  0  0  0  0  0
  149.2948  137.9802  156.2319 H   0  0  0  0  0  0  0  0  0  0  0  0
  149.0408  139.0205  153.3569 H   0  0  0  0  0  0  0  0  0  0  0  0
  148.8478  139.9673  154.8216 H   0  0  0  0  0  0  0  0  0  0  0  0
  151.2498  138.1610  152.8330 H   0  0  0  0  0  0  0  0  0  0  0  0
  152.5589  138.4723  153.9553 H   0  0  0  0  0  0  0  0  0  0  0  0
  151.5485  136.9769  155.6585 H   0  0  0  0  0  0  0  0  0  0  0  0
  151.7520  136.1459  154.1263 H   0  0  0  0  0  0  0  0  0  0  0  0
  149.4775  136.6575  153.6348 H   0  0  0  0  0  0  0  0  0  0  0  0
  1  2  1  0  0  0  0
  1 21  1  0  0  0  0
  1 22  1  0  0  0  0
  1 23  1  0  0  0  0
  2  3  1  0  0  0  0
  2 24  1  0  0  0  0
  2 25  1  0  0  0  0
  3  4  1  0  0  0  0
  3  5  1  0  0  0  0
  3 15  1  0  0  0  0
  4 26  1  0  0  0  0
  4 27  1  0  0  0  0
  4 28  1  0  0  0  0
  5  6  1  0  0  0  0
  5 29  1  0  0  0  0
  5 30  1  0  0  0  0
  6  7  1  0  0  0  0
  6 31  1  0  0  0  0
  7  8  2  0  0  0  0
  7  9  1  0  0  0  0
  9 10  1  0  0  0  0
 10 14  1  0  0  0  0
 10 11  2  0  0  0  0
 11 12  1  0  0  0  0
 12 13  2  0  0  0  0
 13 14  1  0  0  0  0
 13 32  1  0  0  0  0
 15 20  1  0  0  0  0
 15 16  1  0  0  0  0
 15 41  1  0  0  0  0
 16 17  1  0  0  0  0
 16 33  1  0  0  0  0
 16 34  1  0  0  0  0
 17 18  1  0  0  0  0
 17 35  1  0  0  0  0
 17 36  1  0  0  0  0
 18 19  1  0  0  0  0
 19 20  1  0  0  0  0
 19 37  1  0  0  0  0
 19 38  1  0  0  0  0
 20 39  1  0  0  0  0
 20 40  1  0  0  0  0
M  CHG  1   9  -1
M  CHG  1  15   1
M  END
> <s_m_source_file>
AV-unprocessed.smi

> <i_m_source_file_index>
1412

> <i_lp_mmshare_version>
43012

> <i_f3d_flags>
0

> <s_epik_input>
W0NIMl0xW0NIMl1PW0NIMl1bQ0gyXU4xW0NAQF0oW0NIM10pKFtDSDJdW0NIM10pW0NIMl1bTkhdQyg9TylbTkhdYzJubltjSF1zMg==

> <s_epik_cmdline>
J2VwaWtfcHl0aG9uJywgJy1waCcsICc3LjAnLCAnLXRuJywgJzgnLCAnLW1hJywgJzIwMCcsICctbWV0YWxfYmluZGluZycsICctaW1hZScsICc8aW5maWxlLm1hZT4nLCAnLW9tYWUnLCAnPG91dGZpbGUubWFlPic=

> <r_lp_tautomer_probability>
1

> <r_epik_Ionization_Penalty>
4.35651

> <r_epik_Ionization_Penalty_Charging>
4.3235

> <r_epik_Ionization_Penalty_Neutral>
0.0330098

> <r_epik_State_Penalty>
4.4846

> <r_epik_Charging_Adjusted_Penalty>
8.8081

> <i_epik_Tot_Q>
0

> <i_epik_Tot_abs_Q>
2

> <r_epik_Metal_State_Penalty>
1.11611

> <b_epik_Metal_Only>
1

> <s_lp_Force_Field>
OPLS_2005

> <r_lp_Energy>
23.2339

> <b_lp_Chiralities_Consistent>
1

> <s_lp_Variant>
AV-unprocessed.smi:1412-7

> <Gold.Version>
5.8.1

> <Gold.Id.Protein>
6NUR|6NUR_protein|mol2

> <Gold.PLP.Fitness>
44.0493

> <Gold.PLP.PLP>
-29.9236

> <Gold.PLP.part.hbond>
-5.4326

> <Gold.PLP.part.metal>
0.0000

> <Gold.PLP.part.buried>
-4.2937

> <Gold.PLP.part.nonpolar>
-20.8380

> <Gold.PLP.part.repulsive>
0.2473

> <Gold.PLP.ligand.clash>
0.0000

> <Gold.PLP.ligand.torsion>
1.2121

> <Gold.PLP.Chemscore.Hbond>
5.4584

> <Gold.PLP.Chemscore.CHOScore>
0.0000

> <Gold.PLP.Chemscore.Metal>
0.0000

> <Gold.Chemscore.Hbonds>
donor molecule, donor type, donor heavy atom, donor atom, acceptor molecule, acceptor atom, score
      L1  H    15    41       P1  7948  2.00
      P1  H  6896  6909       L1     8  0.46
      P1  H  6931  6943       L1    11  1.00
      P1  H  6934  6947       L1    11  0.14
      P1  H  7989  7998       L1    18  0.95

> <Gold.PLP.Chemscore.Internal.Correction>
0.1747

> <Gold.Rescore>
     Score         DG    S(hbond)    S(metal)    S(lipo)     H(rot)  DE(clash)    DE(int)     intcor
     11.66     -18.83       3.06        0.00      67.89       1.88       3.75       3.41       ----

> <Gold.Chemscore.Fitness>
11.6633

> <Gold.Chemscore.DG>
-18.8284

> <Gold.Chemscore.ZeroCoef>
-5.4800

> <Gold.Chemscore.Hbond>
3.0577

> <Gold.Chemscore.Metal>
0.0000

> <Gold.Chemscore.Lipo>
67.8885

> <Gold.Chemscore.Internal_Hbond>
0.0000

> <Gold.Chemscore.DEClash>
3.7532

> <Gold.Chemscore.DEInternal>
3.4118

> <Gold.Chemscore.Rot>
1.8779

> <Gold.Chemscore.Internal.Correction>
   9.000000E+99

> <Gold.Chemscore.Hbonds>
donor molecule, donor type, donor heavy atom, donor atom, acceptor molecule, acceptor atom, score
      L1  H    15    41       P1  7948  0.82
      P1  H  6896  6909       L1     8  0.03
      P1  H  6931  6943       L1    11  0.65
      P1  H  6934  6947       L1    11  0.11
      P1  H  7989  7998       L1    18  0.20

> <Gold.Chemscore.Hbond.Weighted>
-10.2128

> <Gold.Chemscore.Metal.Weighted>
-0.0000

> <Gold.Chemscore.Lipo.Weighted>
-7.9430

> <Gold.Chemscore.Internal_Hbond.Weighted>
0.0000

> <Gold.Chemscore.DEClash.Weighted>
3.7532

> <Gold.Chemscore.DEInternal.Weighted>
3.4118

> <Gold.Chemscore.Rot.Weighted>
4.8074

> <Gold.Chemscore.Internal.Correction.Weighted>
   9.000000E+99

> <Gold.Protein.RotatedTorsions>
[ 6907 6896 6895 6894 ] final   28.21 input  -60.11 | X-H torsion
[ 7974 7965 7964 7962 ] final -172.13 input  175.53 | X-H torsion
[ 8008 7997 7996 7995 ] final  -71.06 input   59.86 | X-H torsion
[ 10167 10162 10161 10158 ] final  -13.41 input  -65.29 | X-H torsion
[ 10718 10713 10712 10709 ] final  162.94 input   66.30 | X-H torsion
[ 10763 10752 10751 10750 ] final  177.91 input  -60.55 | X-H torsion
[ 11005 11000 10999 10996 ] final  -60.54 input  -57.11 | X-H torsion

> <Gold.Protein.ActiveResidues>
 VAL166  LYS551  ARG553  GLY616  TRP617  ASP618  TYR619  PRO620  LYS621  CYS622 
 ASP623  PHE694  ASN695  SER759  ASP760  ASP761  ALA762  ILE779  LEU786  VAL792 
 PHE793  MET794  SER795  GLU796  ALA797  LYS798  CYS799  TRP800  GLU811  SER814 

> <Gold.Protein.RotatedAtoms>
  152.0137  134.9862  160.0568 H   0  0  0  0  0  0  0  0  0  0  0  0  # atno 6907 bound_to 6896
  152.1404  133.4456  159.4772 H   0  0  0  0  0  0  0  0  0  0  0  0  # atno 6908 bound_to 6896
  150.6864  134.2230  159.4447 H   0  0  0  0  0  0  0  0  0  0  0  0  # atno 6909 bound_to 6896
  144.7149  140.1818  143.6357 H   0  0  0  0  0  0  0  0  0  0  0  0  # atno 7974 bound_to 7965
  154.5059  140.0822  156.7893 H   0  0  0  0  0  0  0  0  0  0  0  0  # atno 8008 bound_to 7997
  155.3895  140.3432  155.4232 H   0  0  0  0  0  0  0  0  0  0  0  0  # atno 8009 bound_to 7997
  156.1515  140.1560  156.8750 H   0  0  0  0  0  0  0  0  0  0  0  0  # atno 8010 bound_to 7997
  140.7181  143.5429  150.9388 H   0  0  0  0  0  0  0  0  0  0  0  0  # atno 10167 bound_to 10162
  157.1154  131.0478  151.2439 H   0  0  0  0  0  0  0  0  0  0  0  0  # atno 10718 bound_to 10713
  154.5007  135.2783  155.1423 H   0  0  0  0  0  0  0  0  0  0  0  0  # atno 10763 bound_to 10752
  154.3058  135.6239  153.5448 H   0  0  0  0  0  0  0  0  0  0  0  0  # atno 10764 bound_to 10752
  152.9902  135.5708  154.5449 H   0  0  0  0  0  0  0  0  0  0  0  0  # atno 10765 bound_to 10752
  141.1291  133.6623  156.5239 H   0  0  0  0  0  0  0  0  0  0  0  0  # atno 11005 bound_to 11000
  145.8849  139.2343  143.1583 LP  0  0  0  0  0  0  0  0  0  0  0  0  # atno 17320 bound_to 7965
  145.9959  140.8562  143.0043 LP  0  0  0  0  0  0  0  0  0  0  0  0  # atno 17321 bound_to 7965
  139.9152  143.6671  152.3107 LP  0  0  0  0  0  0  0  0  0  0  0  0  # atno 17342 bound_to 10162
  139.7069  144.7626  151.1178 LP  0  0  0  0  0  0  0  0  0  0  0  0  # atno 17343 bound_to 10162
  157.4523  130.7605  149.7162 LP  0  0  0  0  0  0  0  0  0  0  0  0  # atno 17370 bound_to 10713
  155.9840  130.3995  150.3331 LP  0  0  0  0  0  0  0  0  0  0  0  0  # atno 17371 bound_to 10713
  140.4270  134.7136  157.4921 LP  0  0  0  0  0  0  0  0  0  0  0  0  # atno 17394 bound_to 11000
  140.0320  134.6392  155.9094 LP  0  0  0  0  0  0  0  0  0  0  0  0  # atno 17395 bound_to 11000

$$$$
