AV-unprocessed.smi:81|AV-procd|sdf|790|dock5
  -GOLD-   2262017163D 1   1.00000     0.00000
 Structure written by MMmdl.
 64 67  0  0  0  0  0  0  0  0  2 V2000
  151.2800  137.0204  155.7279 C   0  0  0  0  0  0  0  0  0  0  0  0
  151.8170  138.2692  155.0096 C   0  0  0  0  0  0  0  0  0  0  0  0
  152.3395  139.2922  156.0278 C   0  0  0  0  0  0  0  0  0  0  0  0
  150.7453  138.9146  154.1000 C   0  0  0  0  0  0  0  0  0  0  0  0
  149.5896  139.4659  154.8164 N   0  0  0  0  0  0  0  0  0  0  0  0
  148.4836  138.6828  154.8406 C   0  0  0  0  0  0  0  0  0  0  0  0
  148.2309  138.0003  155.9855 N   0  0  0  0  0  0  0  0  0  0  0  0
  147.1756  137.1849  156.0622 C   0  0  0  0  0  0  0  0  0  0  0  0
  146.2667  136.9073  155.1258 N   0  0  0  0  0  0  0  0  0  0  0  0
  146.5266  137.5765  153.9661 C   0  0  0  0  0  0  0  0  0  0  0  0
  147.6056  138.4756  153.7379 C   0  0  0  0  0  0  0  0  0  0  0  0
  147.5425  138.9649  152.4392 N   0  0  0  0  0  0  0  0  0  0  0  0
  146.4909  138.3855  151.9287 C   0  0  0  0  0  0  0  0  0  0  0  0
  145.8228  137.5284  152.7744 N   0  0  0  0  0  0  0  0  0  0  0  0
  144.6333  136.7367  152.4845 C   0  0  0  0  0  0  0  0  0  0  0  0
  144.8862  135.5557  151.5089 C   0  0  1  0  0  0  0  0  0  0  0  0
  145.2680  136.0973  150.2541 O   0  0  0  0  0  0  0  0  0  0  0  0
  145.9780  134.6080  151.9748 C   0  0  0  0  0  0  0  0  0  0  0  0
  145.7091  133.3471  151.1565 C   0  0  0  0  0  0  0  0  0  0  0  0
  144.3229  133.3753  150.8230 O   0  0  0  0  0  0  0  0  0  0  0  0
  143.7093  134.5868  151.2634 C   0  0  1  0  0  0  0  0  0  0  0  0
  142.8959  134.1912  152.5112 C   0  0  0  0  0  0  0  0  0  0  0  0
  149.4168  140.9285  154.7750 C   0  0  2  0  0  0  0  0  0  0  0  0
  150.3486  141.7433  155.7042 C   0  0  0  0  0  0  0  0  0  0  0  0
  149.7874  141.9673  157.1221 C   0  0  0  0  0  0  0  0  0  0  0  0
  148.4188  142.5322  157.0735 N   0  3  2  0  0  0  0  0  0  0  0  0
  147.9136  142.8938  158.4154 C   0  0  0  0  0  0  0  0  0  0  0  0
  147.4859  141.6433  156.3427 C   0  0  0  0  0  0  0  0  0  0  0  0
  147.9528  141.4148  154.8935 C   0  0  0  0  0  0  0  0  0  0  0  0
  150.4216  137.2632  156.3551 H   0  0  0  0  0  0  0  0  0  0  0  0
  152.0441  136.5764  156.3667 H   0  0  0  0  0  0  0  0  0  0  0  0
  150.9670  136.2549  155.0178 H   0  0  0  0  0  0  0  0  0  0  0  0
  152.6733  137.9676  154.4055 H   0  0  0  0  0  0  0  0  0  0  0  0
  151.5428  139.6396  156.6865 H   0  0  0  0  0  0  0  0  0  0  0  0
  152.7617  140.1638  155.5267 H   0  0  0  0  0  0  0  0  0  0  0  0
  153.1234  138.8612  156.6513 H   0  0  0  0  0  0  0  0  0  0  0  0
  151.2125  139.7129  153.5223 H   0  0  0  0  0  0  0  0  0  0  0  0
  150.4010  138.1867  153.3662 H   0  0  0  0  0  0  0  0  0  0  0  0
  147.0415  136.6810  157.0081 H   0  0  0  0  0  0  0  0  0  0  0  0
  146.1829  138.5749  150.9127 H   0  0  0  0  0  0  0  0  0  0  0  0
  144.2626  136.3417  153.4311 H   0  0  0  0  0  0  0  0  0  0  0  0
  143.8480  137.3991  152.1217 H   0  0  0  0  0  0  0  0  0  0  0  0
  144.7026  136.8294  150.0604 H   0  0  0  0  0  0  0  0  0  0  0  0
  146.9862  135.0002  151.8343 H   0  0  0  0  0  0  0  0  0  0  0  0
  145.8555  134.3886  153.0361 H   0  0  0  0  0  0  0  0  0  0  0  0
  146.2872  133.3587  150.2321 H   0  0  0  0  0  0  0  0  0  0  0  0
  145.9662  132.4399  151.7033 H   0  0  0  0  0  0  0  0  0  0  0  0
  143.0280  134.9660  150.5003 H   0  0  0  0  0  0  0  0  0  0  0  0
  142.3551  135.0312  152.9398 H   0  0  0  0  0  0  0  0  0  0  0  0
  143.5326  133.7762  153.2925 H   0  0  0  0  0  0  0  0  0  0  0  0
  142.1558  133.4318  152.2585 H   0  0  0  0  0  0  0  0  0  0  0  0
  149.7352  141.1846  153.7635 H   0  0  0  0  0  0  0  0  0  0  0  0
  151.3413  141.2941  155.7473 H   0  0  0  0  0  0  0  0  0  0  0  0
  150.4956  142.7251  155.2522 H   0  0  0  0  0  0  0  0  0  0  0  0
  149.7731  141.0426  157.6973 H   0  0  0  0  0  0  0  0  0  0  0  0
  150.4432  142.6529  157.6601 H   0  0  0  0  0  0  0  0  0  0  0  0
  147.8268  142.0119  159.0516 H   0  0  0  0  0  0  0  0  0  0  0  0
  146.9314  143.3623  158.3443 H   0  0  0  0  0  0  0  0  0  0  0  0
  148.5847  143.6026  158.9015 H   0  0  0  0  0  0  0  0  0  0  0  0
  147.3903  140.7028  156.8813 H   0  0  0  0  0  0  0  0  0  0  0  0
  146.4923  142.0929  156.3292 H   0  0  0  0  0  0  0  0  0  0  0  0
  147.8728  142.3671  154.3675 H   0  0  0  0  0  0  0  0  0  0  0  0
  147.2686  140.7408  154.3780 H   0  0  0  0  0  0  0  0  0  0  0  0
  148.4762  143.3917  156.5462 H   0  0  0  0  0  0  0  0  0  0  0  0
  1  2  1  0  0  0  0
  1 30  1  0  0  0  0
  1 31  1  0  0  0  0
  1 32  1  0  0  0  0
  2  3  1  0  0  0  0
  2  4  1  0  0  0  0
  2 33  1  0  0  0  0
  3 34  1  0  0  0  0
  3 35  1  0  0  0  0
  3 36  1  0  0  0  0
  4  5  1  0  0  0  0
  4 37  1  0  0  0  0
  4 38  1  0  0  0  0
  5  6  1  0  0  0  0
  5 23  1  0  0  0  0
  6 11  1  0  0  0  0
  6  7  2  0  0  0  0
  7  8  1  0  0  0  0
  8  9  2  0  0  0  0
  8 39  1  0  0  0  0
  9 10  1  0  0  0  0
 10 14  1  0  0  0  0
 10 11  2  0  0  0  0
 11 12  1  0  0  0  0
 12 13  2  0  0  0  0
 13 14  1  0  0  0  0
 13 40  1  0  0  0  0
 14 15  1  0  0  0  0
 15 16  1  0  0  0  0
 15 41  1  0  0  0  0
 15 42  1  0  0  0  0
 16 21  1  0  0  0  0
 16 17  1  0  0  0  0
 16 18  1  0  0  0  0
 17 43  1  0  0  0  0
 18 19  1  0  0  0  0
 18 44  1  0  0  0  0
 18 45  1  0  0  0  0
 19 20  1  0  0  0  0
 19 46  1  0  0  0  0
 19 47  1  0  0  0  0
 20 21  1  0  0  0  0
 21 22  1  0  0  0  0
 21 48  1  0  0  0  0
 22 49  1  0  0  0  0
 22 50  1  0  0  0  0
 22 51  1  0  0  0  0
 23 29  1  0  0  0  0
 23 24  1  0  0  0  0
 23 52  1  0  0  0  0
 24 25  1  0  0  0  0
 24 53  1  0  0  0  0
 24 54  1  0  0  0  0
 25 26  1  0  0  0  0
 25 55  1  0  0  0  0
 25 56  1  0  0  0  0
 26 27  1  0  0  0  0
 26 28  1  0  0  0  0
 26 64  1  0  0  0  0
 27 57  1  0  0  0  0
 27 58  1  0  0  0  0
 27 59  1  0  0  0  0
 28 29  1  0  0  0  0
 28 60  1  0  0  0  0
 28 61  1  0  0  0  0
 29 62  1  0  0  0  0
 29 63  1  0  0  0  0
M  CHG  1  26   1
M  END
> <s_m_source_file>
AV-unprocessed.smi

> <i_m_source_file_index>
81

> <i_lp_mmshare_version>
43012

> <i_f3d_flags>
0

> <s_epik_input>
W0NIMl0xW0NIMl1OKFtDSDNdKVtDSDJdW0NIMl1bQ0hdMU4oW0NIMl1bQ0hdKFtDSDNdKVtDSDNdKWMobltjSF1uMiljKGMyMyluW2NIXW4zW0NIMl1bQ0BAXTQoW09IXSlbQ0gyXVtDSDJdT1tDQEhdNFtDSDNd

> <s_epik_cmdline>
J2VwaWtfcHl0aG9uJywgJy1waCcsICc3LjAnLCAnLXRuJywgJzgnLCAnLW1hJywgJzIwMCcsICctbWV0YWxfYmluZGluZycsICctaW1hZScsICc8aW5maWxlLm1hZT4nLCAnLW9tYWUnLCAnPG91dGZpbGUubWFlPic=

> <r_lp_tautomer_probability>
1

> <r_epik_Ionization_Penalty>
0.00272708

> <r_epik_Ionization_Penalty_Charging>
0.00158983

> <r_epik_Ionization_Penalty_Neutral>
0.00113725

> <r_epik_State_Penalty>
-0

> <r_epik_Charging_Adjusted_Penalty>
0.00158983

> <i_epik_Tot_Q>
1

> <i_epik_Tot_abs_Q>
1

> <r_epik_Metal_State_Penalty>
-0

> <b_epik_Metal_Only>
0

> <s_lp_Force_Field>
OPLS_2005

> <r_lp_Energy>
53.2372

> <b_lp_Chiralities_Consistent>
1

> <s_lp_Variant>
AV-unprocessed.smi:81-5

> <Gold.Version>
5.8.1

> <Gold.Id.Protein>
6NUR|6NUR_protein|mol2

> <Gold.PLP.Fitness>
51.3830

> <Gold.PLP.PLP>
-42.2307

> <Gold.PLP.part.hbond>
-3.0000

> <Gold.PLP.part.metal>
0.0000

> <Gold.PLP.part.buried>
-5.3927

> <Gold.PLP.part.nonpolar>
-38.4835

> <Gold.PLP.part.repulsive>
3.7859

> <Gold.PLP.ligand.clash>
0.0000

> <Gold.PLP.ligand.torsion>
2.0949

> <Gold.PLP.Chemscore.Hbond>
3.0000

> <Gold.PLP.Chemscore.CHOScore>
0.9967

> <Gold.PLP.Chemscore.Metal>
0.0000

> <Gold.Chemscore.Hbonds>
donor molecule, donor type, donor heavy atom, donor atom, acceptor molecule, acceptor atom, score
      L1  H    17    43       P1 10171  1.00
      L1  H    26    64       P1  8028  2.00
      L1  C    13    40       P1 10171  0.97

> <Gold.PLP.Chemscore.Internal.Correction>
1.3520

> <Gold.Rescore>
     Score         DG    S(hbond)    S(metal)    S(lipo)     H(rot)  DE(clash)    DE(int)     intcor
     13.30     -17.02       1.96        0.00      93.46       2.32       1.58       2.15       ----

> <Gold.Chemscore.Fitness>
13.2973

> <Gold.Chemscore.DG>
-17.0228

> <Gold.Chemscore.ZeroCoef>
-5.4800

> <Gold.Chemscore.Hbond>
1.9574

> <Gold.Chemscore.Metal>
0.0000

> <Gold.Chemscore.Lipo>
93.4612

> <Gold.Chemscore.Internal_Hbond>
0.0000

> <Gold.Chemscore.DEClash>
1.5759

> <Gold.Chemscore.DEInternal>
2.1496

> <Gold.Chemscore.Rot>
2.3163

> <Gold.Chemscore.Internal.Correction>
   9.000000E+99

> <Gold.Chemscore.Hbonds>
donor molecule, donor type, donor heavy atom, donor atom, acceptor molecule, acceptor atom, score
      L1  H    17    43       P1 10171  0.99
      L1  H    26    64       P1  8028  0.50

> <Gold.Chemscore.Hbond.Weighted>
-6.5376

> <Gold.Chemscore.Metal.Weighted>
-0.0000

> <Gold.Chemscore.Lipo.Weighted>
-10.9350

> <Gold.Chemscore.Internal_Hbond.Weighted>
0.0000

> <Gold.Chemscore.DEClash.Weighted>
1.5759

> <Gold.Chemscore.DEInternal.Weighted>
2.1496

> <Gold.Chemscore.Rot.Weighted>
5.9297

> <Gold.Chemscore.Internal.Correction.Weighted>
   9.000000E+99

> <Gold.Protein.RotatedTorsions>
[ 6907 6896 6895 6894 ] final -137.87 input  -60.11 | X-H torsion
[ 7974 7965 7964 7962 ] final  110.48 input  175.53 | X-H torsion
[ 8008 7997 7996 7995 ] final  -74.64 input   59.86 | X-H torsion
[ 10167 10162 10161 10158 ] final   21.12 input  -65.29 | X-H torsion
[ 10718 10713 10712 10709 ] final  102.26 input   66.30 | X-H torsion
[ 10763 10752 10751 10750 ] final -119.79 input  -60.55 | X-H torsion
[ 11005 11000 10999 10996 ] final  -44.43 input  -57.11 | X-H torsion

> <Gold.Protein.ActiveResidues>
 VAL166  LYS551  ARG553  GLY616  TRP617  ASP618  TYR619  PRO620  LYS621  CYS622 
 ASP623  PHE694  ASN695  SER759  ASP760  ASP761  ALA762  ILE779  LEU786  VAL792 
 PHE793  MET794  SER795  GLU796  ALA797  LYS798  CYS799  TRP800  GLU811  SER814 

> <Gold.Protein.RotatedAtoms>
  151.0279  133.5817  159.2663 H   0  0  0  0  0  0  0  0  0  0  0  0  # atno 6907 bound_to 6896
  151.2910  135.0741  159.9214 H   0  0  0  0  0  0  0  0  0  0  0  0  # atno 6908 bound_to 6896
  152.5338  133.9977  159.7934 H   0  0  0  0  0  0  0  0  0  0  0  0  # atno 6909 bound_to 6896
  145.2545  139.2727  143.4050 H   0  0  0  0  0  0  0  0  0  0  0  0  # atno 7974 bound_to 7965
  154.5348  140.0758  156.8407 H   0  0  0  0  0  0  0  0  0  0  0  0  # atno 8008 bound_to 7997
  155.3301  140.3401  155.4221 H   0  0  0  0  0  0  0  0  0  0  0  0  # atno 8009 bound_to 7997
  156.1817  140.1654  156.8249 H   0  0  0  0  0  0  0  0  0  0  0  0  # atno 8010 bound_to 7997
  140.5451  143.9609  150.6543 H   0  0  0  0  0  0  0  0  0  0  0  0  # atno 10167 bound_to 10162
  157.6807  131.0748  150.5377 H   0  0  0  0  0  0  0  0  0  0  0  0  # atno 10718 bound_to 10713
  154.8627  135.4226  154.2356 H   0  0  0  0  0  0  0  0  0  0  0  0  # atno 10763 bound_to 10752
  153.3332  135.6989  153.6936 H   0  0  0  0  0  0  0  0  0  0  0  0  # atno 10764 bound_to 10752
  153.5944  135.3548  155.2896 H   0  0  0  0  0  0  0  0  0  0  0  0  # atno 10765 bound_to 10752
  141.0450  133.6765  156.2872 H   0  0  0  0  0  0  0  0  0  0  0  0  # atno 11005 bound_to 11000
  146.3293  140.2944  142.8617 LP  0  0  0  0  0  0  0  0  0  0  0  0  # atno 17320 bound_to 7965
  144.9474  140.8142  143.5593 LP  0  0  0  0  0  0  0  0  0  0  0  0  # atno 17321 bound_to 7965
  140.3020  143.3254  152.0963 LP  0  0  0  0  0  0  0  0  0  0  0  0  # atno 17342 bound_to 10162
  139.5004  144.6691  151.6286 LP  0  0  0  0  0  0  0  0  0  0  0  0  # atno 17343 bound_to 10162
  156.5685  130.4274  149.6030 LP  0  0  0  0  0  0  0  0  0  0  0  0  # atno 17370 bound_to 10713
  156.2761  130.7044  151.1855 LP  0  0  0  0  0  0  0  0  0  0  0  0  # atno 17371 bound_to 10713
  140.6164  134.5406  157.5541 LP  0  0  0  0  0  0  0  0  0  0  0  0  # atno 17394 bound_to 11000
  139.9305  134.7973  156.0945 LP  0  0  0  0  0  0  0  0  0  0  0  0  # atno 17395 bound_to 11000

$$$$
