AV-unprocessed.smi:1209|AV-procd|sdf|5071|dock1
  -GOLD-   22720 4113D 1   1.00000     0.00000
 Structure written by MMmdl.
 49 51  0  0  0  0  0  0  0  0  2 V2000
  146.6150  131.7145  152.3084 C   0  0  0  0  0  0  0  0  0  0  0  0
  147.7542  132.2750  153.0888 C   0  0  0  0  0  0  0  0  0  0  0  0
  148.1039  133.5467  153.4429 C   0  0  0  0  0  0  0  0  0  0  0  0
  149.3037  133.3712  154.1865 C   0  0  0  0  0  0  0  0  0  0  0  0
  150.1625  134.4209  154.8420 C   0  0  0  0  0  0  0  0  0  0  0  0
  149.6444  135.7822  154.6879 N   0  0  0  0  0  0  0  0  0  0  0  0
  148.4327  135.9739  155.4856 C   0  0  0  0  0  0  0  0  0  0  0  0
  150.6799  136.7611  155.0309 C   0  0  0  0  0  0  0  0  0  0  0  0
  150.2684  138.2432  154.9176 C   0  0  2  0  0  0  0  0  0  0  0  0
  149.8660  138.4920  153.5851 O   0  0  0  0  0  0  0  0  0  0  0  0
  151.4372  139.1775  155.2881 C   0  0  0  0  0  0  0  0  0  0  0  0
  150.9953  140.4694  155.8335 N   0  0  0  0  0  0  0  0  0  0  0  0
  150.1147  141.3719  155.3226 C   0  0  0  0  0  0  0  0  0  0  0  0
  150.0289  142.4069  156.2035 N   0  3  0  0  0  0  0  0  0  0  0  0
  150.8693  142.1635  157.2918 C   0  0  0  0  0  0  0  0  0  0  0  0
  151.1225  142.9169  158.4319 C   0  0  0  0  0  0  0  0  0  0  0  0
  152.0456  142.3884  159.3622 C   0  0  0  0  0  0  0  0  0  0  0  0
  152.3464  143.1870  160.6193 C   0  0  0  0  0  0  0  0  0  0  0  0
  152.6820  141.1413  159.1311 C   0  0  0  0  0  0  0  0  0  0  0  0
  153.6782  140.5851  160.1341 C   0  0  0  0  0  0  0  0  0  0  0  0
  152.4084  140.3893  157.9663 C   0  0  0  0  0  0  0  0  0  0  0  0
  151.4948  140.9231  157.0605 C   0  0  0  0  0  0  0  0  0  0  0  0
  149.6475  132.0961  154.2679 N   0  0  0  0  0  0  0  0  0  0  0  0
  148.6632  131.3880  153.5694 O   0  0  0  0  0  0  0  0  0  0  0  0
  145.7781  132.4124  152.2873 H   0  0  0  0  0  0  0  0  0  0  0  0
  146.2641  130.7804  152.7477 H   0  0  0  0  0  0  0  0  0  0  0  0
  146.9145  131.5142  151.2795 H   0  0  0  0  0  0  0  0  0  0  0  0
  147.5820  134.4630  153.2099 H   0  0  0  0  0  0  0  0  0  0  0  0
  150.2956  134.1965  155.9018 H   0  0  0  0  0  0  0  0  0  0  0  0
  151.1580  134.3621  154.4008 H   0  0  0  0  0  0  0  0  0  0  0  0
  147.9887  136.9525  155.3101 H   0  0  0  0  0  0  0  0  0  0  0  0
  148.6443  135.8803  156.5516 H   0  0  0  0  0  0  0  0  0  0  0  0
  147.6700  135.2384  155.2294 H   0  0  0  0  0  0  0  0  0  0  0  0
  151.0324  136.5636  156.0446 H   0  0  0  0  0  0  0  0  0  0  0  0
  151.5467  136.6106  154.3853 H   0  0  0  0  0  0  0  0  0  0  0  0
  149.4311  138.4666  155.5774 H   0  0  0  0  0  0  0  0  0  0  0  0
  149.5831  137.6741  153.2041 H   0  0  0  0  0  0  0  0  0  0  0  0
  152.0561  138.7060  156.0525 H   0  0  0  0  0  0  0  0  0  0  0  0
  152.0924  139.3532  154.4343 H   0  0  0  0  0  0  0  0  0  0  0  0
  149.5776  141.2821  154.3894 H   0  0  0  0  0  0  0  0  0  0  0  0
  150.6358  143.8667  158.5996 H   0  0  0  0  0  0  0  0  0  0  0  0
  152.1042  142.6061  161.5099 H   0  0  0  0  0  0  0  0  0  0  0  0
  151.7651  144.1087  160.6561 H   0  0  0  0  0  0  0  0  0  0  0  0
  153.4022  143.4564  160.6574 H   0  0  0  0  0  0  0  0  0  0  0  0
  154.0646  139.6159  159.8167 H   0  0  0  0  0  0  0  0  0  0  0  0
  153.2084  140.4528  161.1087 H   0  0  0  0  0  0  0  0  0  0  0  0
  154.5262  141.2612  160.2456 H   0  0  0  0  0  0  0  0  0  0  0  0
  152.8982  139.4434  157.7878 H   0  0  0  0  0  0  0  0  0  0  0  0
  149.4393  143.2182  156.0694 H   0  0  0  0  0  0  0  0  0  0  0  0
  1  2  1  0  0  0  0
  1 25  1  0  0  0  0
  1 26  1  0  0  0  0
  1 27  1  0  0  0  0
  2 24  1  0  0  0  0
  2  3  2  0  0  0  0
  3  4  1  0  0  0  0
  3 28  1  0  0  0  0
  4  5  1  0  0  0  0
  4 23  2  0  0  0  0
  5  6  1  0  0  0  0
  5 29  1  0  0  0  0
  5 30  1  0  0  0  0
  6  7  1  0  0  0  0
  6  8  1  0  0  0  0
  7 31  1  0  0  0  0
  7 32  1  0  0  0  0
  7 33  1  0  0  0  0
  8  9  1  0  0  0  0
  8 34  1  0  0  0  0
  8 35  1  0  0  0  0
  9 10  1  0  0  0  0
  9 11  1  0  0  0  0
  9 36  1  0  0  0  0
 10 37  1  0  0  0  0
 11 12  1  0  0  0  0
 11 38  1  0  0  0  0
 11 39  1  0  0  0  0
 12 22  1  0  0  0  0
 12 13  1  0  0  0  0
 13 14  2  0  0  0  0
 13 40  1  0  0  0  0
 14 15  1  0  0  0  0
 14 49  1  0  0  0  0
 15 22  2  0  0  0  0
 15 16  1  0  0  0  0
 16 17  2  0  0  0  0
 16 41  1  0  0  0  0
 17 18  1  0  0  0  0
 17 19  1  0  0  0  0
 18 42  1  0  0  0  0
 18 43  1  0  0  0  0
 18 44  1  0  0  0  0
 19 20  1  0  0  0  0
 19 21  2  0  0  0  0
 20 45  1  0  0  0  0
 20 46  1  0  0  0  0
 20 47  1  0  0  0  0
 21 22  1  0  0  0  0
 21 48  1  0  0  0  0
 23 24  1  0  0  0  0
M  CHG  1  14   1
M  END
> <s_m_source_file>
AV-unprocessed.smi

> <i_m_source_file_index>
1209

> <i_lp_mmshare_version>
43012

> <i_f3d_flags>
0

> <s_epik_input>
W0NIM11jMVtjSF1jKG5vMSlbQ0gyXU4oW0NIM10pW0NIMl1bQ0BIXShbT0hdKVtDSDJdbihbY0hdbjIpYyhjMjMpW2NIXWMoW0NIM10pYyhbY0hdMylbQ0gzXQ==

> <s_epik_cmdline>
J2VwaWtfcHl0aG9uJywgJy1waCcsICc3LjAnLCAnLXRuJywgJzgnLCAnLW1hJywgJzIwMCcsICctbWV0YWxfYmluZGluZycsICctaW1hZScsICc8aW5maWxlLm1hZT4nLCAnLW9tYWUnLCAnPG91dGZpbGUubWFlPic=

> <r_epik_Ionization_Penalty>
1.23608

> <r_epik_Ionization_Penalty_Charging>
1.21624

> <r_epik_Ionization_Penalty_Neutral>
0.0198409

> <r_epik_State_Penalty>
1.27749

> <r_epik_Charging_Adjusted_Penalty>
2.49372

> <i_epik_Tot_Q>
1

> <i_epik_Tot_abs_Q>
1

> <r_epik_Metal_State_Penalty>
1.34809

> <b_epik_Metal_Only>
0

> <s_lp_Force_Field>
OPLS_2005

> <r_lp_Energy>
23.9348

> <b_lp_Chiralities_Consistent>
1

> <s_lp_Variant>
AV-unprocessed.smi:1209-3

> <Gold.Version>
5.8.1

> <Gold.Id.Protein>
6NUR|6NUR_protein|mol2

> <Gold.PLP.Fitness>
54.8753

> <Gold.PLP.PLP>
-46.6635

> <Gold.PLP.part.hbond>
-3.0000

> <Gold.PLP.part.metal>
0.0000

> <Gold.PLP.part.buried>
-5.5320

> <Gold.PLP.part.nonpolar>
-39.0351

> <Gold.PLP.part.repulsive>
1.3636

> <Gold.PLP.ligand.clash>
0.0000

> <Gold.PLP.ligand.torsion>
0.4797

> <Gold.PLP.Chemscore.Hbond>
3.0000

> <Gold.PLP.Chemscore.CHOScore>
0.0000

> <Gold.PLP.Chemscore.Metal>
0.0000

> <Gold.Chemscore.Hbonds>
donor molecule, donor type, donor heavy atom, donor atom, acceptor molecule, acceptor atom, score
      L1  H    10    37       P1  7948  0.99
      L1  H    14    49       P1  8028  2.00

> <Gold.PLP.Chemscore.Internal.Correction>
0.1711

> <Gold.Rescore>
     Score         DG    S(hbond)    S(metal)    S(lipo)     H(rot)  DE(clash)    DE(int)     intcor
     18.08     -18.79       1.80        0.00     117.70       2.53       0.24       0.46       ----

> <Gold.Chemscore.Fitness>
18.0844

> <Gold.Chemscore.DG>
-18.7938

> <Gold.Chemscore.ZeroCoef>
-5.4800

> <Gold.Chemscore.Hbond>
1.7996

> <Gold.Chemscore.Metal>
0.0000

> <Gold.Chemscore.Lipo>
117.6988

> <Gold.Chemscore.Internal_Hbond>
0.0000

> <Gold.Chemscore.DEClash>
0.2450

> <Gold.Chemscore.DEInternal>
0.4644

> <Gold.Chemscore.Rot>
2.5265

> <Gold.Chemscore.Internal.Correction>
   9.000000E+99

> <Gold.Chemscore.Hbonds>
donor molecule, donor type, donor heavy atom, donor atom, acceptor molecule, acceptor atom, score
      L1  H    10    37       P1  7948  0.76
      L1  H    14    49       P1  8028  1.00

> <Gold.Chemscore.Hbond.Weighted>
-6.0108

> <Gold.Chemscore.Metal.Weighted>
-0.0000

> <Gold.Chemscore.Lipo.Weighted>
-13.7708

> <Gold.Chemscore.Internal_Hbond.Weighted>
0.0000

> <Gold.Chemscore.DEClash.Weighted>
0.2450

> <Gold.Chemscore.DEInternal.Weighted>
0.4644

> <Gold.Chemscore.Rot.Weighted>
6.4677

> <Gold.Chemscore.Internal.Correction.Weighted>
   9.000000E+99

> <Gold.Protein.RotatedTorsions>
[ 6907 6896 6895 6894 ] final  -47.45 input  -60.11 | X-H torsion
[ 7974 7965 7964 7962 ] final   79.34 input  175.53 | X-H torsion
[ 8008 7997 7996 7995 ] final   68.55 input   59.86 | X-H torsion
[ 10167 10162 10161 10158 ] final   68.68 input  -65.29 | X-H torsion
[ 10718 10713 10712 10709 ] final  -21.21 input   66.30 | X-H torsion
[ 10763 10752 10751 10750 ] final -152.37 input  -60.55 | X-H torsion
[ 11005 11000 10999 10996 ] final -173.11 input  -57.11 | X-H torsion

> <Gold.Protein.ActiveResidues>
 VAL166  LYS551  ARG553  GLY616  TRP617  ASP618  TYR619  PRO620  LYS621  CYS622 
 ASP623  PHE694  ASN695  SER759  ASP760  ASP761  ALA762  ILE779  LEU786  VAL792 
 PHE793  MET794  SER795  GLU796  ALA797  LYS798  CYS799  TRP800  GLU811  SER814 

> <Gold.Protein.RotatedAtoms>
  150.9007  134.8419  159.7357 H   0  0  0  0  0  0  0  0  0  0  0  0  # atno 6907 bound_to 6896
  152.4890  134.4507  159.9583 H   0  0  0  0  0  0  0  0  0  0  0  0  # atno 6908 bound_to 6896
  151.4559  133.3566  159.2837 H   0  0  0  0  0  0  0  0  0  0  0  0  # atno 6909 bound_to 6896
  145.6655  139.2482  143.1898 H   0  0  0  0  0  0  0  0  0  0  0  0  # atno 7974 bound_to 7965
  155.7101  140.3494  155.4970 H   0  0  0  0  0  0  0  0  0  0  0  0  # atno 8008 bound_to 7997
  155.9363  140.1093  157.1113 H   0  0  0  0  0  0  0  0  0  0  0  0  # atno 8009 bound_to 7997
  154.4094  140.1221  156.4855 H   0  0  0  0  0  0  0  0  0  0  0  0  # atno 8010 bound_to 7997
  140.0760  144.5112  150.7194 H   0  0  0  0  0  0  0  0  0  0  0  0  # atno 10167 bound_to 10162
  156.5212  130.4633  149.6596 H   0  0  0  0  0  0  0  0  0  0  0  0  # atno 10718 bound_to 10713
  154.7999  135.3238  154.7577 H   0  0  0  0  0  0  0  0  0  0  0  0  # atno 10763 bound_to 10752
  153.8247  135.6884  153.4827 H   0  0  0  0  0  0  0  0  0  0  0  0  # atno 10764 bound_to 10752
  153.1709  135.4623  154.9844 H   0  0  0  0  0  0  0  0  0  0  0  0  # atno 10765 bound_to 10752
  140.4895  134.5999  157.4949 H   0  0  0  0  0  0  0  0  0  0  0  0  # atno 11005 bound_to 11000
  146.1090  140.7452  142.9512 LP  0  0  0  0  0  0  0  0  0  0  0  0  # atno 17320 bound_to 7965
  144.7074  140.3908  143.7107 LP  0  0  0  0  0  0  0  0  0  0  0  0  # atno 17321 bound_to 7965
  140.7102  143.2499  151.4605 LP  0  0  0  0  0  0  0  0  0  0  0  0  # atno 17342 bound_to 10162
  139.5808  144.1715  152.1965 LP  0  0  0  0  0  0  0  0  0  0  0  0  # atno 17343 bound_to 10162
  156.3147  130.7248  151.2148 LP  0  0  0  0  0  0  0  0  0  0  0  0  # atno 17370 bound_to 10713
  157.7436  131.0472  150.4930 LP  0  0  0  0  0  0  0  0  0  0  0  0  # atno 17371 bound_to 10713
  139.9778  134.7187  155.9917 LP  0  0  0  0  0  0  0  0  0  0  0  0  # atno 17394 bound_to 11000
  141.1491  133.6551  156.3959 LP  0  0  0  0  0  0  0  0  0  0  0  0  # atno 17395 bound_to 11000

$$$$
