AV-unprocessed.smi:556|AV-procd|sdf|2912|dock4
  -GOLD-   2262023403D 1   1.00000     0.00000
 Structure written by MMmdl.
 38 39  0  0  0  0  0  0  0  0  1 V2000
  147.0936  140.7897  157.0808 C   0  0  0  0  0  0  0  0  0  0  0  0
  147.6998  141.7313  156.0265 C   0  0  2  0  0  0  0  0  0  0  0  0
  146.6700  142.2403  154.9954 C   0  0  0  0  0  0  0  0  0  0  0  0
  146.3265  141.2256  154.0640 O   0  0  0  0  0  0  0  0  0  0  0  0
  147.4575  140.7853  153.3289 C   0  0  0  0  0  0  0  0  0  0  0  0
  148.4662  140.1489  154.2946 C   0  0  0  0  0  0  0  0  0  0  0  0
  148.8559  141.0994  155.3498 N   0  0  0  0  0  0  0  0  0  0  0  0
  150.1639  141.3269  155.6407 C   0  0  0  0  0  0  0  0  0  0  0  0
  151.0690  140.5407  155.3567 O   0  0  0  0  0  0  0  0  0  0  0  0
  150.4029  142.4634  156.3158 N   0  0  0  0  0  0  0  0  0  0  0  0
  151.7177  142.9062  156.7576 C   0  0  0  0  0  0  0  0  0  0  0  0
  151.5909  143.8599  157.9526 C   0  0  0  0  0  0  0  0  0  0  0  0
  152.1389  143.2452  159.2099 C   0  0  0  0  0  0  0  0  0  0  0  0
  152.7404  141.9636  159.3647 C   0  0  0  0  0  0  0  0  0  0  0  0
  153.1202  141.7195  160.6084 N   0  0  0  0  0  0  0  0  0  0  0  0
  152.7770  142.8326  161.2884 N   0  0  0  0  0  0  0  0  0  0  0  0
  153.0525  142.9146  162.7066 C   0  0  0  0  0  0  0  0  0  0  0  0
  152.1821  143.7697  160.4710 C   0  0  0  0  0  0  0  0  0  0  0  0
  146.2877  141.2821  157.6257 H   0  0  0  0  0  0  0  0  0  0  0  0
  147.8426  140.4813  157.8106 H   0  0  0  0  0  0  0  0  0  0  0  0
  146.6789  139.8894  156.6268 H   0  0  0  0  0  0  0  0  0  0  0  0
  148.0074  142.6296  156.5627 H   0  0  0  0  0  0  0  0  0  0  0  0
  145.7648  142.5819  155.4981 H   0  0  0  0  0  0  0  0  0  0  0  0
  147.0677  143.1027  154.4577 H   0  0  0  0  0  0  0  0  0  0  0  0
  147.1334  140.0529  152.5894 H   0  0  0  0  0  0  0  0  0  0  0  0
  147.9065  141.6153  152.7807 H   0  0  0  0  0  0  0  0  0  0  0  0
  148.0256  139.2675  154.7612 H   0  0  0  0  0  0  0  0  0  0  0  0
  149.3149  139.7830  153.7156 H   0  0  0  0  0  0  0  0  0  0  0  0
  149.6187  143.0591  156.5379 H   0  0  0  0  0  0  0  0  0  0  0  0
  152.3208  142.0394  157.0327 H   0  0  0  0  0  0  0  0  0  0  0  0
  152.2243  143.4048  155.9296 H   0  0  0  0  0  0  0  0  0  0  0  0
  152.1126  144.7911  157.7278 H   0  0  0  0  0  0  0  0  0  0  0  0
  150.5430  144.1324  158.0856 H   0  0  0  0  0  0  0  0  0  0  0  0
  152.9102  141.2071  158.6127 H   0  0  0  0  0  0  0  0  0  0  0  0
  152.7816  143.9010  163.0842 H   0  0  0  0  0  0  0  0  0  0  0  0
  154.1147  142.7461  162.8875 H   0  0  0  0  0  0  0  0  0  0  0  0
  152.4737  142.1592  163.2388 H   0  0  0  0  0  0  0  0  0  0  0  0
  151.8421  144.7224  160.8497 H   0  0  0  0  0  0  0  0  0  0  0  0
  1  2  1  0  0  0  0
  1 19  1  0  0  0  0
  1 20  1  0  0  0  0
  1 21  1  0  0  0  0
  2  7  1  0  0  0  0
  2  3  1  0  0  0  0
  2 22  1  0  0  0  0
  3  4  1  0  0  0  0
  3 23  1  0  0  0  0
  3 24  1  0  0  0  0
  4  5  1  0  0  0  0
  5  6  1  0  0  0  0
  5 25  1  0  0  0  0
  5 26  1  0  0  0  0
  6  7  1  0  0  0  0
  6 27  1  0  0  0  0
  6 28  1  0  0  0  0
  7  8  1  0  0  0  0
  8  9  2  0  0  0  0
  8 10  1  0  0  0  0
 10 11  1  0  0  0  0
 10 29  1  0  0  0  0
 11 12  1  0  0  0  0
 11 30  1  0  0  0  0
 11 31  1  0  0  0  0
 12 13  1  0  0  0  0
 12 32  1  0  0  0  0
 12 33  1  0  0  0  0
 13 18  2  0  0  0  0
 13 14  1  0  0  0  0
 14 15  2  0  0  0  0
 14 34  1  0  0  0  0
 15 16  1  0  0  0  0
 16 17  1  0  0  0  0
 16 18  1  0  0  0  0
 17 35  1  0  0  0  0
 17 36  1  0  0  0  0
 17 37  1  0  0  0  0
 18 38  1  0  0  0  0
M  END
> <s_m_source_file>
AV-unprocessed.smi

> <i_m_source_file_index>
556

> <i_lp_mmshare_version>
43012

> <i_f3d_flags>
0

> <s_epik_input>
W0NIM11bQ0BASF0xW0NIMl1PW0NIMl1bQ0gyXU4xQyg9TylbTkhdW0NIMl1bQ0gyXWMyW2NIXW5uKFtDSDNdKVtjSF0y

> <s_epik_cmdline>
J2VwaWtfcHl0aG9uJywgJy1waCcsICc3LjAnLCAnLXRuJywgJzgnLCAnLW1hJywgJzIwMCcsICctbWV0YWxfYmluZGluZycsICctaW1hZScsICc8aW5maWxlLm1hZT4nLCAnLW9tYWUnLCAnPG91dGZpbGUubWFlPic=

> <r_lp_tautomer_probability>
1

> <r_epik_Ionization_Penalty>
0.000536334

> <r_epik_Ionization_Penalty_Charging>
0

> <r_epik_Ionization_Penalty_Neutral>
0.000536334

> <r_epik_State_Penalty>
-0

> <r_epik_Charging_Adjusted_Penalty>
0

> <i_epik_Tot_Q>
0

> <i_epik_Tot_abs_Q>
0

> <r_epik_Metal_State_Penalty>
-0

> <b_epik_Metal_Only>
0

> <s_lp_Force_Field>
OPLS_2005

> <r_lp_Energy>
29.3296

> <b_lp_Chiralities_Consistent>
1

> <s_lp_Variant>
AV-unprocessed.smi:556-1

> <Gold.Version>
5.8.1

> <Gold.Id.Protein>
6NUR|6NUR_protein|mol2

> <Gold.PLP.Fitness>
42.3998

> <Gold.PLP.PLP>
-39.3900

> <Gold.PLP.part.hbond>
-2.0000

> <Gold.PLP.part.metal>
0.0000

> <Gold.PLP.part.buried>
-5.6513

> <Gold.PLP.part.nonpolar>
-32.1841

> <Gold.PLP.part.repulsive>
0.3103

> <Gold.PLP.ligand.clash>
0.0000

> <Gold.PLP.ligand.torsion>
0.7100

> <Gold.PLP.Chemscore.Hbond>
1.4720

> <Gold.PLP.Chemscore.CHOScore>
0.0000

> <Gold.PLP.Chemscore.Metal>
0.0000

> <Gold.Chemscore.Hbonds>
donor molecule, donor type, donor heavy atom, donor atom, acceptor molecule, acceptor atom, score
      L1  H    10    29       P1  8028  0.66
      P1  H  7989  7998       L1     9  0.93

> <Gold.PLP.Chemscore.Internal.Correction>
0.0137

> <Gold.Rescore>
     Score         DG    S(hbond)    S(metal)    S(lipo)     H(rot)  DE(clash)    DE(int)     intcor
     15.17     -17.16       1.34        0.00      92.28       1.40       1.41       0.58       ----

> <Gold.Chemscore.Fitness>
15.1719

> <Gold.Chemscore.DG>
-17.1625

> <Gold.Chemscore.ZeroCoef>
-5.4800

> <Gold.Chemscore.Hbond>
1.3384

> <Gold.Chemscore.Metal>
0.0000

> <Gold.Chemscore.Lipo>
92.2763

> <Gold.Chemscore.Internal_Hbond>
0.0000

> <Gold.Chemscore.DEClash>
1.4119

> <Gold.Chemscore.DEInternal>
0.5788

> <Gold.Chemscore.Rot>
1.4001

> <Gold.Chemscore.Internal.Correction>
   9.000000E+99

> <Gold.Chemscore.Hbonds>
donor molecule, donor type, donor heavy atom, donor atom, acceptor molecule, acceptor atom, score
      L1  H    10    29       P1  8028  0.60
      P1  H  7989  7998       L1     9  0.62

> <Gold.Chemscore.Hbond.Weighted>
-4.4704

> <Gold.Chemscore.Metal.Weighted>
-0.0000

> <Gold.Chemscore.Lipo.Weighted>
-10.7963

> <Gold.Chemscore.Internal_Hbond.Weighted>
0.0000

> <Gold.Chemscore.DEClash.Weighted>
1.4119

> <Gold.Chemscore.DEInternal.Weighted>
0.5788

> <Gold.Chemscore.Rot.Weighted>
3.5842

> <Gold.Chemscore.Internal.Correction.Weighted>
   9.000000E+99

> <Gold.Protein.RotatedTorsions>
[ 6907 6896 6895 6894 ] final    1.19 input  -60.11 | X-H torsion
[ 7974 7965 7964 7962 ] final  -21.43 input  175.53 | X-H torsion
[ 8008 7997 7996 7995 ] final  151.76 input   59.86 | X-H torsion
[ 10167 10162 10161 10158 ] final   23.58 input  -65.29 | X-H torsion
[ 10718 10713 10712 10709 ] final -138.53 input   66.30 | X-H torsion
[ 10763 10752 10751 10750 ] final   17.93 input  -60.55 | X-H torsion
[ 11005 11000 10999 10996 ] final  147.87 input  -57.11 | X-H torsion

> <Gold.Protein.ActiveResidues>
 VAL166  LYS551  ARG553  GLY616  TRP617  ASP618  TYR619  PRO620  LYS621  CYS622 
 ASP623  PHE694  ASN695  SER759  ASP760  ASP761  ALA762  ILE779  LEU786  VAL792 
 PHE793  MET794  SER795  GLU796  ALA797  LYS798  CYS799  TRP800  GLU811  SER814 

> <Gold.Protein.RotatedAtoms>
  151.5886  135.1054  160.0033 H   0  0  0  0  0  0  0  0  0  0  0  0  # atno 6907 bound_to 6896
  152.4318  133.7287  159.6585 H   0  0  0  0  0  0  0  0  0  0  0  0  # atno 6908 bound_to 6896
  150.8211  133.8180  159.3161 H   0  0  0  0  0  0  0  0  0  0  0  0  # atno 6909 bound_to 6896
  146.1733  140.4340  142.8523 H   0  0  0  0  0  0  0  0  0  0  0  0  # atno 7974 bound_to 7965
  156.2659  140.2039  156.6226 H   0  0  0  0  0  0  0  0  0  0  0  0  # atno 8008 bound_to 7997
  154.6745  140.0546  157.0225 H   0  0  0  0  0  0  0  0  0  0  0  0  # atno 8009 bound_to 7997
  155.1089  140.3213  155.4529 H   0  0  0  0  0  0  0  0  0  0  0  0  # atno 8010 bound_to 7997
  140.5258  143.9926  150.6439 H   0  0  0  0  0  0  0  0  0  0  0  0  # atno 10167 bound_to 10162
  156.3004  130.7425  151.1475 H   0  0  0  0  0  0  0  0  0  0  0  0  # atno 10718 bound_to 10713
  153.1295  135.6737  153.9202 H   0  0  0  0  0  0  0  0  0  0  0  0  # atno 10763 bound_to 10752
  153.8693  135.3071  155.3442 H   0  0  0  0  0  0  0  0  0  0  0  0  # atno 10764 bound_to 10752
  154.7694  135.4947  153.9700 H   0  0  0  0  0  0  0  0  0  0  0  0  # atno 10765 bound_to 10752
  140.0912  134.9040  157.1653 H   0  0  0  0  0  0  0  0  0  0  0  0  # atno 11005 bound_to 11000
  144.8197  140.6528  143.6361 LP  0  0  0  0  0  0  0  0  0  0  0  0  # atno 17320 bound_to 7965
  145.4281  139.1553  143.4037 LP  0  0  0  0  0  0  0  0  0  0  0  0  # atno 17321 bound_to 7965
  140.3287  143.3091  152.0709 LP  0  0  0  0  0  0  0  0  0  0  0  0  # atno 17342 bound_to 10162
  139.4938  144.6524  151.6647 LP  0  0  0  0  0  0  0  0  0  0  0  0  # atno 17343 bound_to 10162
  157.7366  131.0560  150.5403 LP  0  0  0  0  0  0  0  0  0  0  0  0  # atno 17370 bound_to 10713
  156.5529  130.4236  149.6099 LP  0  0  0  0  0  0  0  0  0  0  0  0  # atno 17371 bound_to 10713
  140.3350  134.2767  155.7221 LP  0  0  0  0  0  0  0  0  0  0  0  0  # atno 17394 bound_to 11000
  141.2078  133.7795  157.0096 LP  0  0  0  0  0  0  0  0  0  0  0  0  # atno 17395 bound_to 11000

$$$$
