AV-unprocessed.smi:239|AV-procd|sdf|1821|dock2
  -GOLD-   2262020413D 1   1.00000     0.00000
 Structure written by MMmdl.
 54 58  0  0  0  0  0  0  0  0  1 V2000
  154.1066  140.1967  161.0991 C   0  0  0  0  0  0  0  0  0  0  0  0
  153.6673  140.8399  159.7796 C   0  0  1  0  0  0  0  0  0  0  0  0
  152.6152  139.9899  159.0448 C   0  0  0  0  0  0  0  0  0  0  0  0
  152.1429  140.6903  157.8532 N   0  0  0  0  0  0  0  0  0  0  0  0
  151.4009  139.9930  156.9548 C   0  0  0  0  0  0  0  0  0  0  0  0
  151.3148  140.4230  155.6671 N   0  0  0  0  0  0  0  0  0  0  0  0
  150.5943  139.7407  154.7724 C   0  0  0  0  0  0  0  0  0  0  0  0
  149.8870  138.6235  154.9482 N   0  0  0  0  0  0  0  0  0  0  0  0
  149.9581  138.1917  156.2395 C   0  0  0  0  0  0  0  0  0  0  0  0
  150.6875  138.8083  157.2959 C   0  0  0  0  0  0  0  0  0  0  0  0
  150.5163  138.0845  158.4706 N   0  0  0  0  0  0  0  0  0  0  0  0
  149.7423  137.0921  158.1255 C   0  0  0  0  0  0  0  0  0  0  0  0
  149.3497  137.0851  156.8061 N   0  0  0  0  0  0  0  0  0  0  0  0
  148.4875  136.1082  156.1574 C   0  0  0  0  0  0  0  0  0  0  0  0
  149.2432  135.0918  155.2648 C   0  0  0  0  0  0  0  0  0  0  0  0
  150.0668  135.8246  154.3747 O   0  0  0  0  0  0  0  0  0  0  0  0
  150.1456  134.1870  156.1281 C   0  0  0  0  0  0  0  0  0  0  0  0
  150.7849  133.0517  155.3086 C   0  0  0  0  0  0  0  0  0  0  0  0
  149.7731  132.2970  154.6532 O   0  0  0  0  0  0  0  0  0  0  0  0
  149.0346  133.0677  153.7134 C   0  0  0  0  0  0  0  0  0  0  0  0
  148.2900  134.2081  154.4306 C   0  0  0  0  0  0  0  0  0  0  0  0
  151.6646  142.0396  158.1360 C   0  0  0  0  0  0  0  0  0  0  0  0
  152.7402  142.8390  158.8941 C   0  0  1  0  0  0  0  0  0  0  0  0
  152.2488  144.2313  159.2535 C   0  0  0  0  0  0  0  0  0  0  0  0
  150.8170  144.4737  159.6815 C   0  0  0  0  0  0  0  0  0  0  0  0
  151.2991  144.9875  158.3492 C   0  0  0  0  0  0  0  0  0  0  0  0
  153.1109  142.1190  160.0694 O   0  0  0  0  0  0  0  0  0  0  0  0
  154.5491  139.2151  160.9288 H   0  0  0  0  0  0  0  0  0  0  0  0
  153.2617  140.0698  161.7768 H   0  0  0  0  0  0  0  0  0  0  0  0
  154.8499  140.8135  161.6050 H   0  0  0  0  0  0  0  0  0  0  0  0
  154.5460  140.9672  159.1448 H   0  0  0  0  0  0  0  0  0  0  0  0
  153.0503  139.0290  158.7661 H   0  0  0  0  0  0  0  0  0  0  0  0
  151.7699  139.7874  159.7044 H   0  0  0  0  0  0  0  0  0  0  0  0
  150.5833  140.1483  153.7723 H   0  0  0  0  0  0  0  0  0  0  0  0
  149.4256  136.3380  158.8312 H   0  0  0  0  0  0  0  0  0  0  0  0
  147.9214  135.5852  156.9296 H   0  0  0  0  0  0  0  0  0  0  0  0
  147.7532  136.6530  155.5626 H   0  0  0  0  0  0  0  0  0  0  0  0
  149.5902  135.9660  153.5712 H   0  0  0  0  0  0  0  0  0  0  0  0
  150.9211  134.7758  156.6197 H   0  0  0  0  0  0  0  0  0  0  0  0
  149.5507  133.7409  156.9262 H   0  0  0  0  0  0  0  0  0  0  0  0
  151.4950  133.4423  154.5783 H   0  0  0  0  0  0  0  0  0  0  0  0
  151.3450  132.3880  155.9672 H   0  0  0  0  0  0  0  0  0  0  0  0
  149.7004  133.4572  152.9417 H   0  0  0  0  0  0  0  0  0  0  0  0
  148.3199  132.4158  153.2109 H   0  0  0  0  0  0  0  0  0  0  0  0
  147.5383  133.7706  155.0887 H   0  0  0  0  0  0  0  0  0  0  0  0
  147.7468  134.8044  153.6969 H   0  0  0  0  0  0  0  0  0  0  0  0
  151.3983  142.5682  157.2216 H   0  0  0  0  0  0  0  0  0  0  0  0
  150.7563  141.9719  158.7366 H   0  0  0  0  0  0  0  0  0  0  0  0
  153.6207  142.9588  158.2604 H   0  0  0  0  0  0  0  0  0  0  0  0
  152.9985  144.8362  159.7604 H   0  0  0  0  0  0  0  0  0  0  0  0
  150.1287  143.6308  159.6747 H   0  0  0  0  0  0  0  0  0  0  0  0
  150.6477  145.2038  160.4703 H   0  0  0  0  0  0  0  0  0  0  0  0
  151.4522  146.0600  158.2488 H   0  0  0  0  0  0  0  0  0  0  0  0
  150.9347  144.4855  157.4552 H   0  0  0  0  0  0  0  0  0  0  0  0
  1  2  1  0  0  0  0
  1 28  1  0  0  0  0
  1 29  1  0  0  0  0
  1 30  1  0  0  0  0
  2 27  1  0  0  0  0
  2  3  1  0  0  0  0
  2 31  1  0  0  0  0
  3  4  1  0  0  0  0
  3 32  1  0  0  0  0
  3 33  1  0  0  0  0
  4  5  1  0  0  0  0
  4 22  1  0  0  0  0
  5 10  1  0  0  0  0
  5  6  2  0  0  0  0
  6  7  1  0  0  0  0
  7  8  2  0  0  0  0
  7 34  1  0  0  0  0
  8  9  1  0  0  0  0
  9 13  1  0  0  0  0
  9 10  2  0  0  0  0
 10 11  1  0  0  0  0
 11 12  2  0  0  0  0
 12 13  1  0  0  0  0
 12 35  1  0  0  0  0
 13 14  1  0  0  0  0
 14 15  1  0  0  0  0
 14 36  1  0  0  0  0
 14 37  1  0  0  0  0
 15 21  1  0  0  0  0
 15 16  1  0  0  0  0
 15 17  1  0  0  0  0
 16 38  1  0  0  0  0
 17 18  1  0  0  0  0
 17 39  1  0  0  0  0
 17 40  1  0  0  0  0
 18 19  1  0  0  0  0
 18 41  1  0  0  0  0
 18 42  1  0  0  0  0
 19 20  1  0  0  0  0
 20 21  1  0  0  0  0
 20 43  1  0  0  0  0
 20 44  1  0  0  0  0
 21 45  1  0  0  0  0
 21 46  1  0  0  0  0
 22 23  1  0  0  0  0
 22 47  1  0  0  0  0
 22 48  1  0  0  0  0
 23 24  1  0  0  0  0
 23 27  1  0  0  0  0
 23 49  1  0  0  0  0
 24 26  1  0  0  0  0
 24 25  1  0  0  0  0
 24 50  1  0  0  0  0
 25 26  1  0  0  0  0
 25 51  1  0  0  0  0
 25 52  1  0  0  0  0
 26 53  1  0  0  0  0
 26 54  1  0  0  0  0
M  END
> <s_m_source_file>
AV-unprocessed.smi

> <i_m_source_file_index>
239

> <i_lp_mmshare_version>
43012

> <i_f3d_flags>
0

> <s_epik_input>
W0NIMl0xW0NIMl1bQ0hdMVtDQEBIXShPMilbQ0gyXU4oW0NIMl1bQ0BIXTJbQ0gzXSljKG5bY0hdbjMpYyhjMzQpbltjSF1uNFtDSDJdQzUoW09IXSlbQ0gyXVtDSDJdT1tDSDJdW0NIMl01

> <s_epik_cmdline>
J2VwaWtfcHl0aG9uJywgJy1waCcsICc3LjAnLCAnLXRuJywgJzgnLCAnLW1hJywgJzIwMCcsICctbWV0YWxfYmluZGluZycsICctaW1hZScsICc8aW5maWxlLm1hZT4nLCAnLW9tYWUnLCAnPG91dGZpbGUubWFlPic=

> <r_lp_tautomer_probability>
1

> <r_epik_Ionization_Penalty>
9.13091e-05

> <r_epik_Ionization_Penalty_Charging>
0

> <r_epik_Ionization_Penalty_Neutral>
9.13091e-05

> <r_epik_State_Penalty>
-0

> <r_epik_Charging_Adjusted_Penalty>
0

> <i_epik_Tot_Q>
0

> <i_epik_Tot_abs_Q>
0

> <r_epik_Metal_State_Penalty>
-0

> <b_epik_Metal_Only>
0

> <s_lp_Force_Field>
OPLS_2005

> <r_lp_Energy>
35.8814

> <b_lp_Chiralities_Consistent>
1

> <s_lp_Variant>
AV-unprocessed.smi:239-2

> <Gold.Version>
5.8.1

> <Gold.Id.Protein>
6NUR|6NUR_protein|mol2

> <Gold.PLP.Fitness>
45.4949

> <Gold.PLP.PLP>
-42.2163

> <Gold.PLP.part.hbond>
-2.4563

> <Gold.PLP.part.metal>
0.0000

> <Gold.PLP.part.buried>
-6.3778

> <Gold.PLP.part.nonpolar>
-32.3708

> <Gold.PLP.part.repulsive>
0.1474

> <Gold.PLP.ligand.clash>
0.0000

> <Gold.PLP.ligand.torsion>
1.1184

> <Gold.PLP.Chemscore.Hbond>
1.0000

> <Gold.PLP.Chemscore.CHOScore>
0.3765

> <Gold.PLP.Chemscore.Metal>
0.0000

> <Gold.Chemscore.Hbonds>
donor molecule, donor type, donor heavy atom, donor atom, acceptor molecule, acceptor atom, score
      L1  H    16    38       P1  7948  1.00
      L1  C     7    34       P1  7957  0.38

> <Gold.PLP.Chemscore.Internal.Correction>
1.3858

> <Gold.Rescore>
     Score         DG    S(hbond)    S(metal)    S(lipo)     H(rot)  DE(clash)    DE(int)     intcor
     12.77     -15.30       0.90        0.00     107.30       2.24       0.15       2.38       ----

> <Gold.Chemscore.Fitness>
12.7673

> <Gold.Chemscore.DG>
-15.3031

> <Gold.Chemscore.ZeroCoef>
-5.4800

> <Gold.Chemscore.Hbond>
0.8983

> <Gold.Chemscore.Metal>
0.0000

> <Gold.Chemscore.Lipo>
107.2990

> <Gold.Chemscore.Internal_Hbond>
0.0000

> <Gold.Chemscore.DEClash>
0.1536

> <Gold.Chemscore.DEInternal>
2.3822

> <Gold.Chemscore.Rot>
2.2387

> <Gold.Chemscore.Internal.Correction>
   9.000000E+99

> <Gold.Chemscore.Hbonds>
donor molecule, donor type, donor heavy atom, donor atom, acceptor molecule, acceptor atom, score
      L1  H    16    38       P1  7948  0.30

> <Gold.Chemscore.Hbond.Weighted>
-3.0003

> <Gold.Chemscore.Metal.Weighted>
-0.0000

> <Gold.Chemscore.Lipo.Weighted>
-12.5540

> <Gold.Chemscore.Internal_Hbond.Weighted>
0.0000

> <Gold.Chemscore.DEClash.Weighted>
0.1536

> <Gold.Chemscore.DEInternal.Weighted>
2.3822

> <Gold.Chemscore.Rot.Weighted>
5.7311

> <Gold.Chemscore.Internal.Correction.Weighted>
   9.000000E+99

> <Gold.Protein.RotatedTorsions>
[ 6907 6896 6895 6894 ] final  -32.36 input  -60.11 | X-H torsion
[ 7974 7965 7964 7962 ] final  -48.12 input  175.53 | X-H torsion
[ 8008 7997 7996 7995 ] final  153.06 input   59.86 | X-H torsion
[ 10167 10162 10161 10158 ] final  175.58 input  -65.29 | X-H torsion
[ 10718 10713 10712 10709 ] final  152.48 input   66.30 | X-H torsion
[ 10763 10752 10751 10750 ] final -112.01 input  -60.55 | X-H torsion
[ 11005 11000 10999 10996 ] final -121.80 input  -57.11 | X-H torsion

> <Gold.Protein.ActiveResidues>
 VAL166  LYS551  ARG553  GLY616  TRP617  ASP618  TYR619  PRO620  LYS621  CYS622 
 ASP623  PHE694  ASN695  SER759  ASP760  ASP761  ALA762  ILE779  LEU786  VAL792 
 PHE793  MET794  SER795  GLU796  ALA797  LYS798  CYS799  TRP800  GLU811  SER814 

> <Gold.Protein.RotatedAtoms>
  151.0797  134.9850  159.8349 H   0  0  0  0  0  0  0  0  0  0  0  0  # atno 6907 bound_to 6896
  152.5418  134.2196  159.8792 H   0  0  0  0  0  0  0  0  0  0  0  0  # atno 6908 bound_to 6896
  151.2226  133.4450  159.2634 H   0  0  0  0  0  0  0  0  0  0  0  0  # atno 6909 bound_to 6896
  145.9545  140.7540  142.9488 H   0  0  0  0  0  0  0  0  0  0  0  0  # atno 7974 bound_to 7965
  156.2599  140.2004  156.6432 H   0  0  0  0  0  0  0  0  0  0  0  0  # atno 8008 bound_to 7997
  154.6593  140.0562  157.0069 H   0  0  0  0  0  0  0  0  0  0  0  0  # atno 8009 bound_to 7997
  155.1299  140.3233  155.4479 H   0  0  0  0  0  0  0  0  0  0  0  0  # atno 8010 bound_to 7997
  139.5182  144.3015  152.0374 H   0  0  0  0  0  0  0  0  0  0  0  0  # atno 10167 bound_to 10162
  157.2572  131.0791  151.1690 H   0  0  0  0  0  0  0  0  0  0  0  0  # atno 10718 bound_to 10713
  154.8329  135.4506  154.1128 H   0  0  0  0  0  0  0  0  0  0  0  0  # atno 10763 bound_to 10752
  153.2386  135.6914  153.7815 H   0  0  0  0  0  0  0  0  0  0  0  0  # atno 10764 bound_to 10752
  153.7171  135.3347  155.3235 H   0  0  0  0  0  0  0  0  0  0  0  0  # atno 10765 bound_to 10752
  141.0043  134.0358  157.3497 H   0  0  0  0  0  0  0  0  0  0  0  0  # atno 11005 bound_to 11000
  144.6802  140.2489  143.7334 LP  0  0  0  0  0  0  0  0  0  0  0  0  # atno 17320 bound_to 7965
  145.8125  139.2009  143.1985 LP  0  0  0  0  0  0  0  0  0  0  0  0  # atno 17321 bound_to 7965
  140.2463  144.4216  150.6240 LP  0  0  0  0  0  0  0  0  0  0  0  0  # atno 17342 bound_to 10162
  140.6256  143.2181  151.6604 LP  0  0  0  0  0  0  0  0  0  0  0  0  # atno 17343 bound_to 10162
  157.3215  130.6939  149.6272 LP  0  0  0  0  0  0  0  0  0  0  0  0  # atno 17370 bound_to 10713
  155.9664  130.4334  150.5005 LP  0  0  0  0  0  0  0  0  0  0  0  0  # atno 17371 bound_to 10713
  139.9055  135.0178  156.7465 LP  0  0  0  0  0  0  0  0  0  0  0  0  # atno 17394 bound_to 11000
  140.6838  133.9450  155.7926 LP  0  0  0  0  0  0  0  0  0  0  0  0  # atno 17395 bound_to 11000

$$$$
