AV-unprocessed.smi:2424|AV-procd|sdf|9568|dock5
  -GOLD-   2272013203D 1   1.00000     0.00000
 Structure written by MMmdl.
 49 50  0  0  0  0  0  0  0  0  2 V2000
  150.5936  141.2332  156.9792 C   0  0  0  0  0  0  0  0  0  0  0  0
  149.6071  140.1221  156.5869 C   0  0  0  0  0  0  0  0  0  0  0  0
  149.5376  139.8000  155.0763 C   0  0  0  0  0  0  0  0  0  0  0  0
  150.9727  139.5301  154.5512 C   0  0  0  0  0  0  0  0  0  0  0  0
  151.7113  138.3634  155.2278 C   0  0  0  0  0  0  0  0  0  0  0  0
  148.4483  138.7652  154.6830 C   0  0  2  0  0  0  0  0  0  0  0  0
  148.9631  137.4372  154.3586 N   0  0  0  0  0  0  0  0  0  0  0  0
  149.3238  136.5075  155.2528 C   0  0  0  0  0  0  0  0  0  0  0  0
  149.2340  136.6678  156.4695 O   0  0  0  0  0  0  0  0  0  0  0  0
  149.7853  135.4063  154.6342 N   0  0  0  0  0  0  0  0  0  0  0  0
  150.2974  134.2333  155.2026 C   0  0  0  0  0  0  0  0  0  0  0  0
  150.7631  134.2350  156.5018 C   0  0  0  0  0  0  0  0  0  0  0  0
  151.2860  133.2151  157.2162 N   0  5  0  0  0  0  0  0  0  0  0  0
  151.3863  131.9948  156.6152 C   0  0  0  0  0  0  0  0  0  0  0  0
  151.8556  131.0206  157.2023 O   0  0  0  0  0  0  0  0  0  0  0  0
  150.9157  131.8457  155.2232 C   0  0  0  0  0  0  0  0  0  0  0  0
  151.0202  130.4829  154.5600 C   0  0  0  0  0  0  0  0  0  0  0  0
  150.4020  132.9184  154.5704 C   0  0  0  0  0  0  0  0  0  0  0  0
  148.1361  139.5876  153.4297 C   0  0  1  0  0  0  0  0  0  0  0  0
  146.7137  139.6344  152.8861 C   0  0  0  0  0  0  0  0  0  0  0  0
  148.7131  140.7878  154.1970 C   0  0  1  0  0  0  0  0  0  0  0  0
  147.6821  141.4732  154.8990 O   0  0  0  0  0  0  0  0  0  0  0  0
  146.9667  142.3839  154.0813 C   0  0  0  0  0  0  0  0  0  0  0  0
  150.6478  141.3267  158.0639 H   0  0  0  0  0  0  0  0  0  0  0  0
  150.2939  142.2051  156.5889 H   0  0  0  0  0  0  0  0  0  0  0  0
  151.5998  141.0189  156.6220 H   0  0  0  0  0  0  0  0  0  0  0  0
  149.9093  139.2298  157.1354 H   0  0  0  0  0  0  0  0  0  0  0  0
  148.6210  140.3658  156.9799 H   0  0  0  0  0  0  0  0  0  0  0  0
  150.9682  139.3695  153.4735 H   0  0  0  0  0  0  0  0  0  0  0  0
  151.5903  140.4176  154.6883 H   0  0  0  0  0  0  0  0  0  0  0  0
  152.7464  138.3210  154.8886 H   0  0  0  0  0  0  0  0  0  0  0  0
  151.2586  137.4018  154.9877 H   0  0  0  0  0  0  0  0  0  0  0  0
  151.7264  138.4691  156.3123 H   0  0  0  0  0  0  0  0  0  0  0  0
  147.6039  138.7679  155.3767 H   0  0  0  0  0  0  0  0  0  0  0  0
  149.0664  137.2165  153.3792 H   0  0  0  0  0  0  0  0  0  0  0  0
  149.7706  135.4164  153.6249 H   0  0  0  0  0  0  0  0  0  0  0  0
  150.7117  135.2019  157.0476 H   0  0  0  0  0  0  0  0  0  0  0  0
  150.6334  130.5048  153.5408 H   0  0  0  0  0  0  0  0  0  0  0  0
  150.4504  129.7412  155.1204 H   0  0  0  0  0  0  0  0  0  0  0  0
  152.0606  130.1590  154.5185 H   0  0  0  0  0  0  0  0  0  0  0  0
  150.0612  132.7698  153.5589 H   0  0  0  0  0  0  0  0  0  0  0  0
  148.8288  139.3251  152.6277 H   0  0  0  0  0  0  0  0  0  0  0  0
  145.9886  139.8415  153.6735 H   0  0  0  0  0  0  0  0  0  0  0  0
  146.4374  138.6832  152.4310 H   0  0  0  0  0  0  0  0  0  0  0  0
  146.6078  140.4083  152.1258 H   0  0  0  0  0  0  0  0  0  0  0  0
  149.3018  141.4392  153.5488 H   0  0  0  0  0  0  0  0  0  0  0  0
  146.2256  142.9105  154.6823 H   0  0  0  0  0  0  0  0  0  0  0  0
  146.4404  141.8593  153.2831 H   0  0  0  0  0  0  0  0  0  0  0  0
  147.6257  143.1266  153.6319 H   0  0  0  0  0  0  0  0  0  0  0  0
  1  2  1  0  0  0  0
  1 24  1  0  0  0  0
  1 25  1  0  0  0  0
  1 26  1  0  0  0  0
  2  3  1  0  0  0  0
  2 27  1  0  0  0  0
  2 28  1  0  0  0  0
  3 21  1  0  0  0  0
  3  4  1  0  0  0  0
  3  6  1  0  0  0  0
  4  5  1  0  0  0  0
  4 29  1  0  0  0  0
  4 30  1  0  0  0  0
  5 31  1  0  0  0  0
  5 32  1  0  0  0  0
  5 33  1  0  0  0  0
  6  7  1  0  0  0  0
  6 19  1  0  0  0  0
  6 34  1  0  0  0  0
  7  8  1  0  0  0  0
  7 35  1  0  0  0  0
  8  9  2  0  0  0  0
  8 10  1  0  0  0  0
 10 11  1  0  0  0  0
 10 36  1  0  0  0  0
 11 18  1  0  0  0  0
 11 12  2  0  0  0  0
 12 13  1  0  0  0  0
 12 37  1  0  0  0  0
 13 14  1  0  0  0  0
 14 15  2  0  0  0  0
 14 16  1  0  0  0  0
 16 17  1  0  0  0  0
 16 18  2  0  0  0  0
 17 38  1  0  0  0  0
 17 39  1  0  0  0  0
 17 40  1  0  0  0  0
 18 41  1  0  0  0  0
 19 20  1  0  0  0  0
 19 21  1  0  0  0  0
 19 42  1  0  0  0  0
 20 43  1  0  0  0  0
 20 44  1  0  0  0  0
 20 45  1  0  0  0  0
 21 22  1  0  0  0  0
 21 46  1  0  0  0  0
 22 23  1  0  0  0  0
 23 47  1  0  0  0  0
 23 48  1  0  0  0  0
 23 49  1  0  0  0  0
M  CHG  1  13  -1
M  END
> <s_m_source_file>
AV-unprocessed.smi

> <i_m_source_file_index>
2424

> <i_lp_mmshare_version>
43012

> <i_f3d_flags>
0

> <s_epik_input>
W0NIM11PW0NAQEhdMVtDQEhdKFtDSDNdKVtDQEBIXShDMShbQ0gyXVtDSDNdKVtDSDJdW0NIM10pW05IXUMoPU8pW05IXWMyW2NIXVtuSF1jKD1PKWMoW0NIM10pW2NIXTI=

> <s_epik_cmdline>
J2VwaWtfcHl0aG9uJywgJy1waCcsICc3LjAnLCAnLXRuJywgJzgnLCAnLW1hJywgJzIwMCcsICctbWV0YWxfYmluZGluZycsICctaW1hZScsICc8aW5maWxlLm1hZT4nLCAnLW9tYWUnLCAnPG91dGZpbGUubWFlPic=

> <r_lp_tautomer_probability>
1

> <r_epik_Ionization_Penalty>
7.6122

> <r_epik_Ionization_Penalty_Charging>
1.53843

> <r_epik_Ionization_Penalty_Neutral>
6.07377

> <r_epik_State_Penalty>
6.07371

> <r_epik_Charging_Adjusted_Penalty>
7.61214

> <i_epik_Tot_Q>
-1

> <i_epik_Tot_abs_Q>
1

> <r_epik_Metal_State_Penalty>
2.02136

> <b_epik_Metal_Only>
1

> <s_lp_Force_Field>
OPLS_2005

> <r_lp_Energy>
41.6495

> <b_lp_Chiralities_Consistent>
1

> <s_lp_Variant>
AV-unprocessed.smi:2424-10

> <Gold.Version>
5.8.1

> <Gold.Id.Protein>
6NUR|6NUR_protein|mol2

> <Gold.PLP.Fitness>
44.4409

> <Gold.PLP.PLP>
-32.7564

> <Gold.PLP.part.hbond>
-3.0000

> <Gold.PLP.part.metal>
0.0000

> <Gold.PLP.part.buried>
0.0055

> <Gold.PLP.part.nonpolar>
-31.3266

> <Gold.PLP.part.repulsive>
0.1571

> <Gold.PLP.ligand.clash>
0.0000

> <Gold.PLP.ligand.torsion>
0.5129

> <Gold.PLP.Chemscore.Hbond>
4.0000

> <Gold.PLP.Chemscore.CHOScore>
0.0000

> <Gold.PLP.Chemscore.Metal>
0.0000

> <Gold.Chemscore.Hbonds>
donor molecule, donor type, donor heavy atom, donor atom, acceptor molecule, acceptor atom, score
      L1  H     7    35       P1  7948  1.00
      L1  H    10    36       P1  7948  0.51
      P1  H  6896  6907       L1    13  1.54

> <Gold.PLP.Chemscore.Internal.Correction>
0.7103

> <Gold.Rescore>
     Score         DG    S(hbond)    S(metal)    S(lipo)     H(rot)  DE(clash)    DE(int)     intcor
     15.30     -19.06       2.25        0.00      85.15       1.52       1.73       2.03       ----

> <Gold.Chemscore.Fitness>
15.2964

> <Gold.Chemscore.DG>
-19.0552

> <Gold.Chemscore.ZeroCoef>
-5.4800

> <Gold.Chemscore.Hbond>
2.2470

> <Gold.Chemscore.Metal>
0.0000

> <Gold.Chemscore.Lipo>
85.1482

> <Gold.Chemscore.Internal_Hbond>
0.0000

> <Gold.Chemscore.DEClash>
1.7293

> <Gold.Chemscore.DEInternal>
2.0295

> <Gold.Chemscore.Rot>
1.5204

> <Gold.Chemscore.Internal.Correction>
   9.000000E+99

> <Gold.Chemscore.Hbonds>
donor molecule, donor type, donor heavy atom, donor atom, acceptor molecule, acceptor atom, score
      L1  H     7    35       P1  7948  0.99
      L1  H    10    36       P1  7948  0.03
      P1  H  6896  6907       L1    13  0.62

> <Gold.Chemscore.Hbond.Weighted>
-7.5051

> <Gold.Chemscore.Metal.Weighted>
-0.0000

> <Gold.Chemscore.Lipo.Weighted>
-9.9623

> <Gold.Chemscore.Internal_Hbond.Weighted>
0.0000

> <Gold.Chemscore.DEClash.Weighted>
1.7293

> <Gold.Chemscore.DEInternal.Weighted>
2.0295

> <Gold.Chemscore.Rot.Weighted>
3.8922

> <Gold.Chemscore.Internal.Correction.Weighted>
   9.000000E+99

> <Gold.Protein.RotatedTorsions>
[ 6907 6896 6895 6894 ] final -147.29 input  -60.11 | X-H torsion
[ 7974 7965 7964 7962 ] final   15.59 input  175.53 | X-H torsion
[ 8008 7997 7996 7995 ] final   60.31 input   59.86 | X-H torsion
[ 10167 10162 10161 10158 ] final  -51.68 input  -65.29 | X-H torsion
[ 10718 10713 10712 10709 ] final   17.34 input   66.30 | X-H torsion
[ 10763 10752 10751 10750 ] final   69.84 input  -60.55 | X-H torsion
[ 11005 11000 10999 10996 ] final   82.75 input  -57.11 | X-H torsion

> <Gold.Protein.ActiveResidues>
 VAL166  LYS551  ARG553  GLY616  TRP617  ASP618  TYR619  PRO620  LYS621  CYS622 
 ASP623  PHE694  ASN695  SER759  ASP760  ASP761  ALA762  ILE779  LEU786  VAL792 
 PHE793  MET794  SER795  GLU796  ALA797  LYS798  CYS799  TRP800  GLU811  SER814 

> <Gold.Protein.RotatedAtoms>
  151.1536  133.4891  159.2594 H   0  0  0  0  0  0  0  0  0  0  0  0  # atno 6907 bound_to 6896
  151.1527  135.0235  159.8685 H   0  0  0  0  0  0  0  0  0  0  0  0  # atno 6908 bound_to 6896
  152.5463  134.1419  159.8535 H   0  0  0  0  0  0  0  0  0  0  0  0  # atno 6909 bound_to 6896
  146.2274  139.8871  142.8561 H   0  0  0  0  0  0  0  0  0  0  0  0  # atno 7974 bound_to 7965
  155.5803  140.3491  155.4538 H   0  0  0  0  0  0  0  0  0  0  0  0  # atno 8008 bound_to 7997
  156.0378  140.1289  157.0214 H   0  0  0  0  0  0  0  0  0  0  0  0  # atno 8009 bound_to 7997
  154.4379  140.1030  156.6178 H   0  0  0  0  0  0  0  0  0  0  0  0  # atno 8010 bound_to 7997
  140.6576  143.2611  151.4539 H   0  0  0  0  0  0  0  0  0  0  0  0  # atno 10167 bound_to 10162
  157.0807  130.6387  149.5826 H   0  0  0  0  0  0  0  0  0  0  0  0  # atno 10718 bound_to 10713
  153.0309  135.5196  154.7350 H   0  0  0  0  0  0  0  0  0  0  0  0  # atno 10763 bound_to 10752
  154.6366  135.2907  155.0155 H   0  0  0  0  0  0  0  0  0  0  0  0  # atno 10764 bound_to 10752
  154.1088  135.6625  153.4934 H   0  0  0  0  0  0  0  0  0  0  0  0  # atno 10765 bound_to 10752
  139.9053  134.8095  156.2217 H   0  0  0  0  0  0  0  0  0  0  0  0  # atno 11005 bound_to 11000
  145.2454  141.0025  143.3911 LP  0  0  0  0  0  0  0  0  0  0  0  0  # atno 17320 bound_to 7965
  144.9417  139.4181  143.6445 LP  0  0  0  0  0  0  0  0  0  0  0  0  # atno 17321 bound_to 7965
  139.5802  144.1728  152.1957 LP  0  0  0  0  0  0  0  0  0  0  0  0  # atno 17342 bound_to 10162
  140.1050  144.5506  150.6963 LP  0  0  0  0  0  0  0  0  0  0  0  0  # atno 17343 bound_to 10162
  155.9924  130.4982  150.7340 LP  0  0  0  0  0  0  0  0  0  0  0  0  # atno 17370 bound_to 10713
  157.4802  131.0901  151.0544 LP  0  0  0  0  0  0  0  0  0  0  0  0  # atno 17371 bound_to 10713
  141.0401  133.6942  156.1583 LP  0  0  0  0  0  0  0  0  0  0  0  0  # atno 17394 bound_to 11000
  140.6968  134.4607  157.5587 LP  0  0  0  0  0  0  0  0  0  0  0  0  # atno 17395 bound_to 11000

$$$$
