AV-unprocessed.smi:275|AV-procd|sdf|2069|dock1
  -GOLD-   2262021323D 1   1.00000     0.00000
 Structure written by MMmdl.
 65 69  0  0  0  0  0  0  0  0  1 V2000
  147.5606  133.1788  162.1867 C   0  0  0  0  0  0  0  0  0  0  0  0
  147.7159  134.6754  161.8693 C   0  0  0  0  0  0  0  0  0  0  0  0
  147.4564  135.4666  163.1660 C   0  0  0  0  0  0  0  0  0  0  0  0
  146.8061  135.1613  160.7103 C   0  0  1  0  0  0  0  0  0  0  0  0
  146.9382  134.1945  159.6166 N   0  0  0  0  0  0  0  0  0  0  0  0
  147.1604  134.7177  158.3004 C   0  0  0  0  0  0  0  0  0  0  0  0
  146.2478  134.4569  157.3249 N   0  0  0  0  0  0  0  0  0  0  0  0
  146.4066  134.9081  156.0782 C   0  0  0  0  0  0  0  0  0  0  0  0
  147.4086  135.6275  155.5759 N   0  0  0  0  0  0  0  0  0  0  0  0
  148.3501  135.8771  156.5276 C   0  0  0  0  0  0  0  0  0  0  0  0
  148.3092  135.4610  157.8908 C   0  0  0  0  0  0  0  0  0  0  0  0
  149.4608  135.8953  158.5384 N   0  0  0  0  0  0  0  0  0  0  0  0
  150.1317  136.5370  157.6226 C   0  0  0  0  0  0  0  0  0  0  0  0
  149.5326  136.5807  156.3861 N   0  0  0  0  0  0  0  0  0  0  0  0
  150.0501  137.2235  155.1909 C   0  0  0  0  0  0  0  0  0  0  0  0
  151.1608  138.2633  155.4839 C   0  0  1  0  0  0  0  0  0  0  0  0
  152.1512  138.4344  154.3061 C   0  0  0  0  0  0  0  0  0  0  0  0
  152.4331  137.1975  153.6838 O   0  0  0  0  0  0  0  0  0  0  0  0
  150.5641  139.6149  155.9509 C   0  0  1  0  0  0  0  0  0  0  0  0
  151.5907  140.6745  156.3108 C   0  0  0  0  0  0  0  0  0  0  0  0
  150.7624  141.9537  156.2613 C   0  0  0  0  0  0  0  0  0  0  0  0
  149.7883  141.7399  155.2466 O   0  0  0  0  0  0  0  0  0  0  0  0
  149.7546  140.3625  154.8858 C   0  0  0  0  0  0  0  0  0  0  0  0
  145.6259  133.6219  159.8912 C   0  0  0  0  0  0  0  0  0  0  0  0
  145.2656  134.9192  160.6294 C   0  0  0  0  0  0  0  0  0  0  0  0
  144.4591  135.9226  159.7690 C   0  0  0  0  0  0  0  0  0  0  0  0
  144.1530  137.2476  160.4816 C   0  0  0  0  0  0  0  0  0  0  0  0
  143.3507  136.9977  161.7602 C   0  0  0  0  0  0  0  0  0  0  0  0
  144.0958  136.0173  162.6679 C   0  0  0  0  0  0  0  0  0  0  0  0
  144.4554  134.7126  161.9259 C   0  0  0  0  0  0  0  0  0  0  0  0
  146.5109  132.8901  162.2462 H   0  0  0  0  0  0  0  0  0  0  0  0
  148.0234  132.9283  163.1418 H   0  0  0  0  0  0  0  0  0  0  0  0
  148.0534  132.5514  161.4487 H   0  0  0  0  0  0  0  0  0  0  0  0
  148.7621  134.8340  161.6025 H   0  0  0  0  0  0  0  0  0  0  0  0
  146.4407  135.3077  163.5284 H   0  0  0  0  0  0  0  0  0  0  0  0
  147.5972  136.5384  163.0258 H   0  0  0  0  0  0  0  0  0  0  0  0
  148.1391  135.1589  163.9584 H   0  0  0  0  0  0  0  0  0  0  0  0
  147.0296  136.1859  160.4169 H   0  0  0  0  0  0  0  0  0  0  0  0
  145.6184  134.6541  155.3850 H   0  0  0  0  0  0  0  0  0  0  0  0
  151.0848  137.0032  157.8268 H   0  0  0  0  0  0  0  0  0  0  0  0
  150.4274  136.4498  154.5207 H   0  0  0  0  0  0  0  0  0  0  0  0
  149.2100  137.6925  154.6781 H   0  0  0  0  0  0  0  0  0  0  0  0
  151.7475  137.8698  156.3152 H   0  0  0  0  0  0  0  0  0  0  0  0
  151.7509  139.1181  153.5578 H   0  0  0  0  0  0  0  0  0  0  0  0
  153.0880  138.8789  154.6426 H   0  0  0  0  0  0  0  0  0  0  0  0
  151.7678  137.0302  153.0337 H   0  0  0  0  0  0  0  0  0  0  0  0
  149.9254  139.4515  156.8206 H   0  0  0  0  0  0  0  0  0  0  0  0
  152.0515  140.5154  157.2862 H   0  0  0  0  0  0  0  0  0  0  0  0
  152.3819  140.7112  155.5603 H   0  0  0  0  0  0  0  0  0  0  0  0
  150.2466  142.1102  157.2096 H   0  0  0  0  0  0  0  0  0  0  0  0
  151.3682  142.8364  156.0540 H   0  0  0  0  0  0  0  0  0  0  0  0
  150.2157  140.2570  153.9027 H   0  0  0  0  0  0  0  0  0  0  0  0
  148.7277  140.0031  154.8162 H   0  0  0  0  0  0  0  0  0  0  0  0
  144.9863  133.3986  159.0374 H   0  0  0  0  0  0  0  0  0  0  0  0
  145.7063  132.7604  160.5556 H   0  0  0  0  0  0  0  0  0  0  0  0
  144.9839  136.1545  158.8432 H   0  0  0  0  0  0  0  0  0  0  0  0
  143.5194  135.4657  159.4552 H   0  0  0  0  0  0  0  0  0  0  0  0
  145.0841  137.7625  160.7210 H   0  0  0  0  0  0  0  0  0  0  0  0
  143.5943  137.9071  159.8172 H   0  0  0  0  0  0  0  0  0  0  0  0
  143.1743  137.9373  162.2846 H   0  0  0  0  0  0  0  0  0  0  0  0
  142.3705  136.5923  161.5063 H   0  0  0  0  0  0  0  0  0  0  0  0
  144.9921  136.5124  163.0346 H   0  0  0  0  0  0  0  0  0  0  0  0
  143.4902  135.7901  163.5456 H   0  0  0  0  0  0  0  0  0  0  0  0
  143.5269  134.1925  161.6867 H   0  0  0  0  0  0  0  0  0  0  0  0
  144.9800  134.0385  162.6019 H   0  0  0  0  0  0  0  0  0  0  0  0
  1  2  1  0  0  0  0
  1 31  1  0  0  0  0
  1 32  1  0  0  0  0
  1 33  1  0  0  0  0
  2  3  1  0  0  0  0
  2  4  1  0  0  0  0
  2 34  1  0  0  0  0
  3 35  1  0  0  0  0
  3 36  1  0  0  0  0
  3 37  1  0  0  0  0
  4 25  1  0  0  0  0
  4  5  1  0  0  0  0
  4 38  1  0  0  0  0
  5  6  1  0  0  0  0
  5 24  1  0  0  0  0
  6 11  1  0  0  0  0
  6  7  2  0  0  0  0
  7  8  1  0  0  0  0
  8  9  2  0  0  0  0
  8 39  1  0  0  0  0
  9 10  1  0  0  0  0
 10 14  1  0  0  0  0
 10 11  2  0  0  0  0
 11 12  1  0  0  0  0
 12 13  2  0  0  0  0
 13 14  1  0  0  0  0
 13 40  1  0  0  0  0
 14 15  1  0  0  0  0
 15 16  1  0  0  0  0
 15 41  1  0  0  0  0
 15 42  1  0  0  0  0
 16 17  1  0  0  0  0
 16 19  1  0  0  0  0
 16 43  1  0  0  0  0
 17 18  1  0  0  0  0
 17 44  1  0  0  0  0
 17 45  1  0  0  0  0
 18 46  1  0  0  0  0
 19 23  1  0  0  0  0
 19 20  1  0  0  0  0
 19 47  1  0  0  0  0
 20 21  1  0  0  0  0
 20 48  1  0  0  0  0
 20 49  1  0  0  0  0
 21 22  1  0  0  0  0
 21 50  1  0  0  0  0
 21 51  1  0  0  0  0
 22 23  1  0  0  0  0
 23 52  1  0  0  0  0
 23 53  1  0  0  0  0
 24 25  1  0  0  0  0
 24 54  1  0  0  0  0
 24 55  1  0  0  0  0
 25 30  1  0  0  0  0
 25 26  1  0  0  0  0
 26 27  1  0  0  0  0
 26 56  1  0  0  0  0
 26 57  1  0  0  0  0
 27 28  1  0  0  0  0
 27 58  1  0  0  0  0
 27 59  1  0  0  0  0
 28 29  1  0  0  0  0
 28 60  1  0  0  0  0
 28 61  1  0  0  0  0
 29 30  1  0  0  0  0
 29 62  1  0  0  0  0
 29 63  1  0  0  0  0
 30 64  1  0  0  0  0
 30 65  1  0  0  0  0
M  END
> <s_m_source_file>
AV-unprocessed.smi

> <i_m_source_file_index>
275

> <i_lp_mmshare_version>
43012

> <i_f3d_flags>
0

> <s_epik_input>
W0NIMl0xW0NIMl1bQ0gyXVtDSDJdW0NIMl1DMTJbQ0BIXShbQ0hdKFtDSDNdKVtDSDNdKU4oW0NIMl0yKWMobltjSF1uMyljKGMzNCluW2NIXW40W0NIMl1bQ0BIXShbQ0gyXVtPSF0pW0NAQEhdNVtDSDJdW0NIMl1PW0NIMl01

> <s_epik_cmdline>
J2VwaWtfcHl0aG9uJywgJy1waCcsICc3LjAnLCAnLXRuJywgJzgnLCAnLW1hJywgJzIwMCcsICctbWV0YWxfYmluZGluZycsICctaW1hZScsICc8aW5maWxlLm1hZT4nLCAnLW9tYWUnLCAnPG91dGZpbGUubWFlPic=

> <r_lp_tautomer_probability>
1

> <r_epik_Ionization_Penalty>
0.00375122

> <r_epik_Ionization_Penalty_Charging>
0

> <r_epik_Ionization_Penalty_Neutral>
0.00375122

> <r_epik_State_Penalty>
0.00260593

> <r_epik_Charging_Adjusted_Penalty>
0.00260593

> <i_epik_Tot_Q>
0

> <i_epik_Tot_abs_Q>
0

> <r_epik_Metal_State_Penalty>
-0

> <b_epik_Metal_Only>
0

> <s_lp_Force_Field>
OPLS_2005

> <r_lp_Energy>
68.7999

> <b_lp_Chiralities_Consistent>
1

> <s_lp_Variant>
AV-unprocessed.smi:275-8

> <Gold.Version>
5.8.1

> <Gold.Id.Protein>
6NUR|6NUR_protein|mol2

> <Gold.PLP.Fitness>
44.4255

> <Gold.PLP.PLP>
-36.4773

> <Gold.PLP.part.hbond>
-3.0290

> <Gold.PLP.part.metal>
0.0000

> <Gold.PLP.part.buried>
-6.4381

> <Gold.PLP.part.nonpolar>
-27.3458

> <Gold.PLP.part.repulsive>
0.1881

> <Gold.PLP.ligand.clash>
0.0000

> <Gold.PLP.ligand.torsion>
0.8903

> <Gold.PLP.Chemscore.Hbond>
2.9033

> <Gold.PLP.Chemscore.CHOScore>
0.0000

> <Gold.PLP.Chemscore.Metal>
0.0000

> <Gold.Chemscore.Hbonds>
donor molecule, donor type, donor heavy atom, donor atom, acceptor molecule, acceptor atom, score
      L1  H    18    46       P1  7949  0.96
      P1  H  6896  6909       L1    12  0.98
      P1  H 10752 10764       L1    18  0.91

> <Gold.PLP.Chemscore.Internal.Correction>
1.0191

> <Gold.Rescore>
     Score         DG    S(hbond)    S(metal)    S(lipo)     H(rot)  DE(clash)    DE(int)     intcor
     17.50     -19.64       2.56        0.00     103.42       2.54       0.38       1.77       ----

> <Gold.Chemscore.Fitness>
17.5010

> <Gold.Chemscore.DG>
-19.6430

> <Gold.Chemscore.ZeroCoef>
-5.4800

> <Gold.Chemscore.Hbond>
2.5629

> <Gold.Chemscore.Metal>
0.0000

> <Gold.Chemscore.Lipo>
103.4155

> <Gold.Chemscore.Internal_Hbond>
0.0000

> <Gold.Chemscore.DEClash>
0.3754

> <Gold.Chemscore.DEInternal>
1.7666

> <Gold.Chemscore.Rot>
2.5377

> <Gold.Chemscore.Internal.Correction>
   9.000000E+99

> <Gold.Chemscore.Hbonds>
donor molecule, donor type, donor heavy atom, donor atom, acceptor molecule, acceptor atom, score
      L1  H    18    46       P1  7949  0.91
      P1  H  6896  6909       L1    12  0.68
      P1  H 10752 10764       L1    18  0.35

> <Gold.Chemscore.Hbond.Weighted>
-8.5600

> <Gold.Chemscore.Metal.Weighted>
-0.0000

> <Gold.Chemscore.Lipo.Weighted>
-12.0996

> <Gold.Chemscore.Internal_Hbond.Weighted>
0.0000

> <Gold.Chemscore.DEClash.Weighted>
0.3754

> <Gold.Chemscore.DEInternal.Weighted>
1.7666

> <Gold.Chemscore.Rot.Weighted>
6.4966

> <Gold.Chemscore.Internal.Correction.Weighted>
   9.000000E+99

> <Gold.Protein.RotatedTorsions>
[ 6907 6896 6895 6894 ] final   55.13 input  -60.11 | X-H torsion
[ 7974 7965 7964 7962 ] final -131.40 input  175.53 | X-H torsion
[ 8008 7997 7996 7995 ] final   75.10 input   59.86 | X-H torsion
[ 10167 10162 10161 10158 ] final  -81.16 input  -65.29 | X-H torsion
[ 10718 10713 10712 10709 ] final  -22.08 input   66.30 | X-H torsion
[ 10763 10752 10751 10750 ] final  -99.48 input  -60.55 | X-H torsion
[ 11005 11000 10999 10996 ] final  -34.30 input  -57.11 | X-H torsion

> <Gold.Protein.ActiveResidues>
 VAL166  LYS551  ARG553  GLY616  TRP617  ASP618  TYR619  PRO620  LYS621  CYS622 
 ASP623  PHE694  ASN695  SER759  ASP760  ASP761  ALA762  ILE779  LEU786  VAL792 
 PHE793  MET794  SER795  GLU796  ALA797  LYS798  CYS799  TRP800  GLU811  SER814 

> <Gold.Protein.RotatedAtoms>
  152.3508  134.7008  160.0236 H   0  0  0  0  0  0  0  0  0  0  0  0  # atno 6907 bound_to 6896
  151.7362  133.3314  159.3361 H   0  0  0  0  0  0  0  0  0  0  0  0  # atno 6908 bound_to 6896
  150.7539  134.6252  159.6202 H   0  0  0  0  0  0  0  0  0  0  0  0  # atno 6909 bound_to 6896
  144.9383  140.7209  143.4862 H   0  0  0  0  0  0  0  0  0  0  0  0  # atno 7974 bound_to 7965
  155.8080  140.3474  155.5441 H   0  0  0  0  0  0  0  0  0  0  0  0  # atno 8008 bound_to 7997
  155.8470  140.0950  157.1719 H   0  0  0  0  0  0  0  0  0  0  0  0  # atno 8009 bound_to 7997
  154.4006  140.1383  156.3785 H   0  0  0  0  0  0  0  0  0  0  0  0  # atno 8010 bound_to 7997
  140.4437  143.2506  151.8589 H   0  0  0  0  0  0  0  0  0  0  0  0  # atno 10167 bound_to 10162
  156.5094  130.4606  149.6656 H   0  0  0  0  0  0  0  0  0  0  0  0  # atno 10718 bound_to 10713
  154.7501  135.4970  153.9274 H   0  0  0  0  0  0  0  0  0  0  0  0  # atno 10763 bound_to 10752
  153.1134  135.6715  153.9467 H   0  0  0  0  0  0  0  0  0  0  0  0  # atno 10764 bound_to 10752
  153.9220  135.3087  155.3426 H   0  0  0  0  0  0  0  0  0  0  0  0  # atno 10765 bound_to 10752
  140.9705  133.7112  156.1516 H   0  0  0  0  0  0  0  0  0  0  0  0  # atno 11005 bound_to 11000
  145.3031  139.1843  143.4679 LP  0  0  0  0  0  0  0  0  0  0  0  0  # atno 17320 bound_to 7965
  146.3275  140.3025  142.8621 LP  0  0  0  0  0  0  0  0  0  0  0  0  # atno 17321 bound_to 7965
  139.4791  144.5200  151.8815 LP  0  0  0  0  0  0  0  0  0  0  0  0  # atno 17342 bound_to 10162
  140.4288  144.2143  150.5887 LP  0  0  0  0  0  0  0  0  0  0  0  0  # atno 17343 bound_to 10162
  156.3255  130.7303  151.2223 LP  0  0  0  0  0  0  0  0  0  0  0  0  # atno 17370 bound_to 10713
  157.7452  131.0444  150.4791 LP  0  0  0  0  0  0  0  0  0  0  0  0  # atno 17371 bound_to 10713
  140.7336  134.4228  157.5563 LP  0  0  0  0  0  0  0  0  0  0  0  0  # atno 17394 bound_to 11000
  139.8910  134.8789  156.2339 LP  0  0  0  0  0  0  0  0  0  0  0  0  # atno 17395 bound_to 11000

$$$$
