AV-unprocessed.smi:1372|AV-procd|sdf|5583|dock5
  -GOLD-   22720 5183D 1   1.00000     0.00000
 Structure written by MMmdl.
 41 43  0  0  0  0  0  0  0  0  1 V2000
  151.1927  137.2944  154.5625 C   0  0  0  0  0  0  0  0  0  0  0  0
  152.0390  137.7760  156.1225 S   0  0  0  0  0  0  0  0  0  0  0  0
  151.1247  137.5044  157.2424 O   0  0  0  0  0  0  0  0  0  0  0  0
  153.3845  137.1819  156.1227 O   0  0  0  0  0  0  0  0  0  0  0  0
  152.1978  139.6050  155.9136 C   0  0  0  0  0  0  0  0  0  0  0  0
  150.8708  140.2242  155.5736 C   0  0  0  0  0  0  0  0  0  0  0  0
  150.3174  140.0760  154.3683 N   0  0  0  0  0  0  0  0  0  0  0  0
  149.1317  140.7723  154.4828 C   0  0  0  0  0  0  0  0  0  0  0  0
  148.0933  140.9794  153.5467 C   0  0  0  0  0  0  0  0  0  0  0  0
  146.9584  141.7400  153.8967 C   0  0  0  0  0  0  0  0  0  0  0  0
  146.8464  142.3032  155.1844 C   0  0  0  0  0  0  0  0  0  0  0  0
  147.8710  142.1101  156.1310 C   0  0  0  0  0  0  0  0  0  0  0  0
  149.0017  141.3498  155.7762 C   0  0  0  0  0  0  0  0  0  0  0  0
  150.1612  140.9821  156.4523 N   0  0  0  0  0  0  0  0  0  0  0  0
  150.4929  141.3650  157.8194 C   0  0  0  0  0  0  0  0  0  0  0  0
  151.5503  142.4849  157.8877 C   0  0  1  0  0  0  0  0  0  0  0  0
  151.0529  143.6642  157.2873 O   0  0  0  0  0  0  0  0  0  0  0  0
  152.0091  142.7203  159.3179 C   0  0  0  0  0  0  0  0  0  0  0  0
  152.7362  141.7199  159.9983 C   0  0  0  0  0  0  0  0  0  0  0  0
  153.1556  141.9267  161.3269 C   0  0  0  0  0  0  0  0  0  0  0  0
  152.8485  143.1338  161.9836 C   0  0  0  0  0  0  0  0  0  0  0  0
  152.1207  144.1343  161.3112 C   0  0  0  0  0  0  0  0  0  0  0  0
  151.7007  143.9280  159.9826 C   0  0  0  0  0  0  0  0  0  0  0  0
  151.0354  136.2161  154.5548 H   0  0  0  0  0  0  0  0  0  0  0  0
  151.8113  137.5756  153.7103 H   0  0  0  0  0  0  0  0  0  0  0  0
  150.2299  137.8010  154.4977 H   0  0  0  0  0  0  0  0  0  0  0  0
  152.6057  140.0028  156.8398 H   0  0  0  0  0  0  0  0  0  0  0  0
  152.9126  139.8059  155.1159 H   0  0  0  0  0  0  0  0  0  0  0  0
  148.1707  140.5515  152.5583 H   0  0  0  0  0  0  0  0  0  0  0  0
  146.1702  141.8917  153.1737 H   0  0  0  0  0  0  0  0  0  0  0  0
  145.9737  142.8841  155.4448 H   0  0  0  0  0  0  0  0  0  0  0  0
  147.7880  142.5407  157.1179 H   0  0  0  0  0  0  0  0  0  0  0  0
  149.5872  141.6377  158.3597 H   0  0  0  0  0  0  0  0  0  0  0  0
  150.8745  140.4782  158.3273 H   0  0  0  0  0  0  0  0  0  0  0  0
  152.4168  142.1805  157.2988 H   0  0  0  0  0  0  0  0  0  0  0  0
  150.1877  143.4872  156.9508 H   0  0  0  0  0  0  0  0  0  0  0  0
  152.9737  140.7889  159.5046 H   0  0  0  0  0  0  0  0  0  0  0  0
  153.7121  141.1582  161.8429 H   0  0  0  0  0  0  0  0  0  0  0  0
  153.1697  143.2920  163.0026 H   0  0  0  0  0  0  0  0  0  0  0  0
  151.8836  145.0596  161.8151 H   0  0  0  0  0  0  0  0  0  0  0  0
  151.1391  144.6992  159.4757 H   0  0  0  0  0  0  0  0  0  0  0  0
  1  2  1  0  0  0  0
  1 24  1  0  0  0  0
  1 25  1  0  0  0  0
  1 26  1  0  0  0  0
  2  3  2  0  0  0  0
  2  4  2  0  0  0  0
  2  5  1  0  0  0  0
  5  6  1  0  0  0  0
  5 27  1  0  0  0  0
  5 28  1  0  0  0  0
  6 14  1  0  0  0  0
  6  7  2  0  0  0  0
  7  8  1  0  0  0  0
  8 13  2  0  0  0  0
  8  9  1  0  0  0  0
  9 10  2  0  0  0  0
  9 29  1  0  0  0  0
 10 11  1  0  0  0  0
 10 30  1  0  0  0  0
 11 12  2  0  0  0  0
 11 31  1  0  0  0  0
 12 13  1  0  0  0  0
 12 32  1  0  0  0  0
 13 14  1  0  0  0  0
 14 15  1  0  0  0  0
 15 16  1  0  0  0  0
 15 33  1  0  0  0  0
 15 34  1  0  0  0  0
 16 17  1  0  0  0  0
 16 18  1  0  0  0  0
 16 35  1  0  0  0  0
 17 36  1  0  0  0  0
 18 23  1  0  0  0  0
 18 19  2  0  0  0  0
 19 20  1  0  0  0  0
 19 37  1  0  0  0  0
 20 21  2  0  0  0  0
 20 38  1  0  0  0  0
 21 22  1  0  0  0  0
 21 39  1  0  0  0  0
 22 23  2  0  0  0  0
 22 40  1  0  0  0  0
 23 41  1  0  0  0  0
M  END
> <s_m_source_file>
AV-unprocessed.smi

> <i_m_source_file_index>
1372

> <i_lp_mmshare_version>
43012

> <i_f3d_flags>
0

> <s_epik_input>
W2NIXTFbY0hdW2NIXVtjSF1jKGMxMiluKGMobjIpW0NIMl1TKD1PKSg9TylbQ0gzXSlbQ0gyXVtDQEhdKFtPSF0pYzNbY0hdW2NIXVtjSF1bY0hdW2NIXTM=

> <s_epik_cmdline>
J2VwaWtfcHl0aG9uJywgJy1waCcsICc3LjAnLCAnLXRuJywgJzgnLCAnLW1hJywgJzIwMCcsICctbWV0YWxfYmluZGluZycsICctaW1hZScsICc8aW5maWxlLm1hZT4nLCAnLW9tYWUnLCAnPG91dGZpbGUubWFlPic=

> <r_epik_Ionization_Penalty>
0.0151431

> <r_epik_Ionization_Penalty_Charging>
0

> <r_epik_Ionization_Penalty_Neutral>
0.0151431

> <r_epik_State_Penalty>
0.0118835

> <r_epik_Charging_Adjusted_Penalty>
0.0118835

> <i_epik_Tot_Q>
0

> <i_epik_Tot_abs_Q>
0

> <r_epik_Metal_State_Penalty>
1.20034e-05

> <b_epik_Metal_Only>
0

> <s_lp_Force_Field>
OPLS_2005

> <r_lp_Energy>
10.2865

> <b_lp_Chiralities_Consistent>
1

> <s_lp_Variant>
AV-unprocessed.smi:1372-2

> <Gold.Version>
5.8.1

> <Gold.Id.Protein>
6NUR|6NUR_protein|mol2

> <Gold.PLP.Fitness>
55.5420

> <Gold.PLP.PLP>
-51.9134

> <Gold.PLP.part.hbond>
-3.0000

> <Gold.PLP.part.metal>
0.0000

> <Gold.PLP.part.buried>
-0.9290

> <Gold.PLP.part.nonpolar>
-47.4822

> <Gold.PLP.part.repulsive>
0.1176

> <Gold.PLP.ligand.clash>
0.0000

> <Gold.PLP.ligand.torsion>
0.6407

> <Gold.PLP.Chemscore.Hbond>
1.5755

> <Gold.PLP.Chemscore.CHOScore>
0.0000

> <Gold.PLP.Chemscore.Metal>
0.0000

> <Gold.Chemscore.Hbonds>
donor molecule, donor type, donor heavy atom, donor atom, acceptor molecule, acceptor atom, score
      L1  H    17    36       P1  8028  0.35
      P1  H  7989  7998       L1     7  0.80
      P1  H 10752 10764       L1     4  0.53

> <Gold.PLP.Chemscore.Internal.Correction>
0.1834

> <Gold.Rescore>
     Score         DG    S(hbond)    S(metal)    S(lipo)     H(rot)  DE(clash)    DE(int)     intcor
     15.56     -17.63       0.83        0.00     131.06       2.33       1.21       0.86       ----

> <Gold.Chemscore.Fitness>
15.5635

> <Gold.Chemscore.DG>
-17.6309

> <Gold.Chemscore.ZeroCoef>
-5.4800

> <Gold.Chemscore.Hbond>
0.8334

> <Gold.Chemscore.Metal>
0.0000

> <Gold.Chemscore.Lipo>
131.0590

> <Gold.Chemscore.Internal_Hbond>
0.0000

> <Gold.Chemscore.DEClash>
1.2118

> <Gold.Chemscore.DEInternal>
0.8556

> <Gold.Chemscore.Rot>
2.3306

> <Gold.Chemscore.Internal.Correction>
   9.000000E+99

> <Gold.Chemscore.Hbonds>
donor molecule, donor type, donor heavy atom, donor atom, acceptor molecule, acceptor atom, score
      L1  H    17    36       P1  8028  0.34
      P1  H  7989  7998       L1     7  0.11
      P1  H 10752 10764       L1     4  0.47

> <Gold.Chemscore.Hbond.Weighted>
-2.7834

> <Gold.Chemscore.Metal.Weighted>
-0.0000

> <Gold.Chemscore.Lipo.Weighted>
-15.3339

> <Gold.Chemscore.Internal_Hbond.Weighted>
0.0000

> <Gold.Chemscore.DEClash.Weighted>
1.2118

> <Gold.Chemscore.DEInternal.Weighted>
0.8556

> <Gold.Chemscore.Rot.Weighted>
5.9664

> <Gold.Chemscore.Internal.Correction.Weighted>
   9.000000E+99

> <Gold.Protein.RotatedTorsions>
[ 6907 6896 6895 6894 ] final  -53.24 input  -60.11 | X-H torsion
[ 7974 7965 7964 7962 ] final -145.91 input  175.53 | X-H torsion
[ 8008 7997 7996 7995 ] final  160.09 input   59.86 | X-H torsion
[ 10167 10162 10161 10158 ] final  119.61 input  -65.29 | X-H torsion
[ 10718 10713 10712 10709 ] final   70.63 input   66.30 | X-H torsion
[ 10763 10752 10751 10750 ] final   -4.69 input  -60.55 | X-H torsion
[ 11005 11000 10999 10996 ] final   46.36 input  -57.11 | X-H torsion

> <Gold.Protein.ActiveResidues>
 VAL166  LYS551  ARG553  GLY616  TRP617  ASP618  TYR619  PRO620  LYS621  CYS622 
 ASP623  PHE694  ASN695  SER759  ASP760  ASP761  ALA762  ILE779  LEU786  VAL792 
 PHE793  MET794  SER795  GLU796  ALA797  LYS798  CYS799  TRP800  GLU811  SER814 

> <Gold.Protein.RotatedAtoms>
  150.8444  134.7748  159.6958 H   0  0  0  0  0  0  0  0  0  0  0  0  # atno 6907 bound_to 6896
  152.4524  134.5361  159.9835 H   0  0  0  0  0  0  0  0  0  0  0  0  # atno 6908 bound_to 6896
  151.5494  133.3382  159.2986 H   0  0  0  0  0  0  0  0  0  0  0  0  # atno 6909 bound_to 6896
  144.8195  140.5523  143.5588 H   0  0  0  0  0  0  0  0  0  0  0  0  # atno 7974 bound_to 7965
  156.2196  140.1813  156.7509 H   0  0  0  0  0  0  0  0  0  0  0  0  # atno 8008 bound_to 7997
  154.5844  140.0661  156.9179 H   0  0  0  0  0  0  0  0  0  0  0  0  # atno 8009 bound_to 7997
  155.2446  140.3324  155.4291 H   0  0  0  0  0  0  0  0  0  0  0  0  # atno 8010 bound_to 7997
  139.6035  144.7063  151.3008 H   0  0  0  0  0  0  0  0  0  0  0  0  # atno 10167 bound_to 10162
  157.6410  130.9487  150.0678 H   0  0  0  0  0  0  0  0  0  0  0  0  # atno 10718 bound_to 10713
  153.3883  135.7001  153.6513 H   0  0  0  0  0  0  0  0  0  0  0  0  # atno 10763 bound_to 10752
  153.5096  135.3634  155.2581 H   0  0  0  0  0  0  0  0  0  0  0  0  # atno 10764 bound_to 10752
  154.8700  135.4132  154.3195 H   0  0  0  0  0  0  0  0  0  0  0  0  # atno 10765 bound_to 10752
  140.1375  134.4625  155.8474 H   0  0  0  0  0  0  0  0  0  0  0  0  # atno 11005 bound_to 11000
  145.5138  139.1478  143.3590 LP  0  0  0  0  0  0  0  0  0  0  0  0  # atno 17320 bound_to 7965
  146.2500  140.5279  142.8897 LP  0  0  0  0  0  0  0  0  0  0  0  0  # atno 17321 bound_to 7965
  140.7267  143.6983  150.7866 LP  0  0  0  0  0  0  0  0  0  0  0  0  # atno 17342 bound_to 10162
  140.0564  143.5198  152.2649 LP  0  0  0  0  0  0  0  0  0  0  0  0  # atno 17343 bound_to 10162
  156.1691  130.3646  149.9190 LP  0  0  0  0  0  0  0  0  0  0  0  0  # atno 17370 bound_to 10713
  156.7170  130.8992  151.3615 LP  0  0  0  0  0  0  0  0  0  0  0  0  # atno 17371 bound_to 10713
  141.2181  133.6820  156.7186 LP  0  0  0  0  0  0  0  0  0  0  0  0  # atno 17394 bound_to 11000
  140.2763  134.8352  157.3893 LP  0  0  0  0  0  0  0  0  0  0  0  0  # atno 17395 bound_to 11000

$$$$
