AV-unprocessed.smi:276|AV-procd|sdf|2082|dock8
  -GOLD-   2262021353D 1   1.00000     0.00000
 Structure written by MMmdl.
 57 61  0  0  0  0  0  0  0  0  1 V2000
  151.1177  144.8590  160.9130 C   0  0  0  0  0  0  0  0  0  0  0  0
  152.2037  143.9714  161.1124 O   0  0  0  0  0  0  0  0  0  0  0  0
  152.0416  142.7490  160.4110 C   0  0  2  0  0  0  0  0  0  0  0  0
  153.2628  141.8225  160.4563 C   0  0  0  0  0  0  0  0  0  0  0  0
  153.0227  141.5050  158.9669 C   0  0  1  0  0  0  0  0  0  0  0  0
  152.1886  140.3064  158.8017 N   0  0  0  0  0  0  0  0  0  0  0  0
  152.6079  139.1175  159.5391 C   0  0  0  0  0  0  0  0  0  0  0  0
  151.8334  139.9801  157.5385 C   0  0  0  0  0  0  0  0  0  0  0  0
  152.8328  139.6186  156.6959 N   0  0  0  0  0  0  0  0  0  0  0  0
  152.5541  139.2751  155.4355 C   0  0  0  0  0  0  0  0  0  0  0  0
  151.3685  139.2343  154.8244 N   0  0  0  0  0  0  0  0  0  0  0  0
  150.3631  139.6167  155.6626 C   0  0  0  0  0  0  0  0  0  0  0  0
  150.5042  140.0040  157.0253 C   0  0  0  0  0  0  0  0  0  0  0  0
  149.2595  140.3215  157.5560 N   0  0  0  0  0  0  0  0  0  0  0  0
  148.4300  140.1205  156.5694 C   0  0  0  0  0  0  0  0  0  0  0  0
  149.0102  139.7188  155.3875 N   0  0  0  0  0  0  0  0  0  0  0  0
  148.3236  139.4258  154.1409 C   0  0  0  0  0  0  0  0  0  0  0  0
  147.8319  140.6768  153.3743 C   0  0  1  0  0  0  0  0  0  0  0  0
  146.9225  140.1930  152.4066 O   0  0  0  0  0  0  0  0  0  0  0  0
  147.0796  141.7318  154.2187 C   0  0  1  0  0  0  0  0  0  0  0  0
  146.3536  142.8317  153.4391 C   0  0  0  0  0  0  0  0  0  0  0  0
  145.2433  143.2757  154.3764 C   0  0  0  0  0  0  0  0  0  0  0  0
  145.1375  142.1329  155.3859 C   0  0  0  0  0  0  0  0  0  0  0  0
  145.9807  141.1123  154.8723 O   0  0  0  0  0  0  0  0  0  0  0  0
  152.2708  142.8621  158.8931 C   0  0  0  0  0  0  0  0  0  0  0  0
  152.9933  144.0926  158.3149 C   0  0  0  0  0  0  0  0  0  0  0  0
  151.6226  144.6418  157.9103 C   0  0  0  0  0  0  0  0  0  0  0  0
  151.1080  143.2007  157.9403 C   0  0  0  0  0  0  0  0  0  0  0  0
  151.2892  145.7787  161.4721 H   0  0  0  0  0  0  0  0  0  0  0  0
  150.1797  144.4239  161.2600 H   0  0  0  0  0  0  0  0  0  0  0  0
  151.0134  145.1205  159.8591 H   0  0  0  0  0  0  0  0  0  0  0  0
  151.1069  142.2330  160.6414 H   0  0  0  0  0  0  0  0  0  0  0  0
  154.1950  142.3664  160.6185 H   0  0  0  0  0  0  0  0  0  0  0  0
  153.1694  140.9903  161.1542 H   0  0  0  0  0  0  0  0  0  0  0  0
  153.9520  141.4845  158.3979 H   0  0  0  0  0  0  0  0  0  0  0  0
  152.3410  138.1878  159.0329 H   0  0  0  0  0  0  0  0  0  0  0  0
  152.1309  139.1034  160.5189 H   0  0  0  0  0  0  0  0  0  0  0  0
  153.6882  139.1171  159.6877 H   0  0  0  0  0  0  0  0  0  0  0  0
  153.4023  138.9921  154.8299 H   0  0  0  0  0  0  0  0  0  0  0  0
  147.3661  140.2754  156.6747 H   0  0  0  0  0  0  0  0  0  0  0  0
  149.0207  138.8613  153.5197 H   0  0  0  0  0  0  0  0  0  0  0  0
  147.4863  138.7580  154.3491 H   0  0  0  0  0  0  0  0  0  0  0  0
  148.6635  141.1460  152.8487 H   0  0  0  0  0  0  0  0  0  0  0  0
  147.1782  140.5256  151.5601 H   0  0  0  0  0  0  0  0  0  0  0  0
  147.7419  142.1825  154.9607 H   0  0  0  0  0  0  0  0  0  0  0  0
  147.0086  143.6566  153.1608 H   0  0  0  0  0  0  0  0  0  0  0  0
  145.9136  142.4219  152.5290 H   0  0  0  0  0  0  0  0  0  0  0  0
  145.4974  144.2085  154.8806 H   0  0  0  0  0  0  0  0  0  0  0  0
  144.3100  143.4291  153.8338 H   0  0  0  0  0  0  0  0  0  0  0  0
  145.5054  142.4475  156.3633 H   0  0  0  0  0  0  0  0  0  0  0  0
  144.1158  141.7720  155.5049 H   0  0  0  0  0  0  0  0  0  0  0  0
  153.5381  144.7025  159.0357 H   0  0  0  0  0  0  0  0  0  0  0  0
  153.6151  143.8454  157.4527 H   0  0  0  0  0  0  0  0  0  0  0  0
  151.1732  145.2684  158.6826 H   0  0  0  0  0  0  0  0  0  0  0  0
  151.5922  145.1189  156.9304 H   0  0  0  0  0  0  0  0  0  0  0  0
  151.1835  142.7375  156.9572 H   0  0  0  0  0  0  0  0  0  0  0  0
  150.1123  143.0793  158.3673 H   0  0  0  0  0  0  0  0  0  0  0  0
  1  2  1  0  0  0  0
  1 29  1  0  0  0  0
  1 30  1  0  0  0  0
  1 31  1  0  0  0  0
  2  3  1  0  0  0  0
  3 25  1  0  0  0  0
  3  4  1  0  0  0  0
  3 32  1  0  0  0  0
  4  5  1  0  0  0  0
  4 33  1  0  0  0  0
  4 34  1  0  0  0  0
  5  6  1  0  0  0  0
  5 25  1  0  0  0  0
  5 35  1  0  0  0  0
  6  7  1  0  0  0  0
  6  8  1  0  0  0  0
  7 36  1  0  0  0  0
  7 37  1  0  0  0  0
  7 38  1  0  0  0  0
  8 13  1  0  0  0  0
  8  9  2  0  0  0  0
  9 10  1  0  0  0  0
 10 11  2  0  0  0  0
 10 39  1  0  0  0  0
 11 12  1  0  0  0  0
 12 16  1  0  0  0  0
 12 13  2  0  0  0  0
 13 14  1  0  0  0  0
 14 15  2  0  0  0  0
 15 16  1  0  0  0  0
 15 40  1  0  0  0  0
 16 17  1  0  0  0  0
 17 18  1  0  0  0  0
 17 41  1  0  0  0  0
 17 42  1  0  0  0  0
 18 19  1  0  0  0  0
 18 20  1  0  0  0  0
 18 43  1  0  0  0  0
 19 44  1  0  0  0  0
 20 24  1  0  0  0  0
 20 21  1  0  0  0  0
 20 45  1  0  0  0  0
 21 22  1  0  0  0  0
 21 46  1  0  0  0  0
 21 47  1  0  0  0  0
 22 23  1  0  0  0  0
 22 48  1  0  0  0  0
 22 49  1  0  0  0  0
 23 24  1  0  0  0  0
 23 50  1  0  0  0  0
 23 51  1  0  0  0  0
 25 28  1  0  0  0  0
 25 26  1  0  0  0  0
 26 27  1  0  0  0  0
 26 52  1  0  0  0  0
 26 53  1  0  0  0  0
 27 28  1  0  0  0  0
 27 54  1  0  0  0  0
 27 55  1  0  0  0  0
 28 56  1  0  0  0  0
 28 57  1  0  0  0  0
M  END
> <s_m_source_file>
AV-unprocessed.smi

> <i_m_source_file_index>
276

> <i_lp_mmshare_version>
43012

> <i_f3d_flags>
0

> <s_epik_input>
W0NIMl0xW0NIMl1bQ0gyXUMxMltDQEhdKE9bQ0gzXSlbQ0gyXVtDQEhdMk4oW0NIM10pYyhuW2NIXW4zKWMoYzM0KW5bY0hdbjRbQ0gyXVtDQEhdKFtPSF0pW0NAQEhdNVtDSDJdW0NIMl1bQ0gyXU81

> <s_epik_cmdline>
J2VwaWtfcHl0aG9uJywgJy1waCcsICc3LjAnLCAnLXRuJywgJzgnLCAnLW1hJywgJzIwMCcsICctbWV0YWxfYmluZGluZycsICctaW1hZScsICc8aW5maWxlLm1hZT4nLCAnLW9tYWUnLCAnPG91dGZpbGUubWFlPic=

> <r_lp_tautomer_probability>
1

> <r_epik_Ionization_Penalty>
0.00204117

> <r_epik_Ionization_Penalty_Charging>
0

> <r_epik_Ionization_Penalty_Neutral>
0.00204117

> <r_epik_State_Penalty>
0.00127401

> <r_epik_Charging_Adjusted_Penalty>
0.00127401

> <i_epik_Tot_Q>
0

> <i_epik_Tot_abs_Q>
0

> <r_epik_Metal_State_Penalty>
-0

> <b_epik_Metal_Only>
0

> <s_lp_Force_Field>
OPLS_2005

> <r_lp_Energy>
59.2093

> <b_lp_Chiralities_Consistent>
1

> <s_lp_Variant>
AV-unprocessed.smi:276-13

> <Gold.Version>
5.8.1

> <Gold.Id.Protein>
6NUR|6NUR_protein|mol2

> <Gold.PLP.Fitness>
57.6443

> <Gold.PLP.PLP>
-53.0919

> <Gold.PLP.part.hbond>
-3.3414

> <Gold.PLP.part.metal>
0.0000

> <Gold.PLP.part.buried>
-4.3391

> <Gold.PLP.part.nonpolar>
-44.6631

> <Gold.PLP.part.repulsive>
0.3183

> <Gold.PLP.ligand.clash>
0.0000

> <Gold.PLP.ligand.torsion>
0.8293

> <Gold.PLP.Chemscore.Hbond>
1.8000

> <Gold.PLP.Chemscore.CHOScore>
0.0000

> <Gold.PLP.Chemscore.Metal>
0.0000

> <Gold.Chemscore.Hbonds>
donor molecule, donor type, donor heavy atom, donor atom, acceptor molecule, acceptor atom, score
      P1  H  7989  7998       L1    11  0.72
      P1  H  7997  8010       L1     9  0.75

> <Gold.PLP.Chemscore.Internal.Correction>
0.8110

> <Gold.Rescore>
     Score         DG    S(hbond)    S(metal)    S(lipo)     H(rot)  DE(clash)    DE(int)     intcor
     14.81     -16.62       0.92        0.00     128.39       2.72       0.96       0.85       ----

> <Gold.Chemscore.Fitness>
14.8077

> <Gold.Chemscore.DG>
-16.6177

> <Gold.Chemscore.ZeroCoef>
-5.4800

> <Gold.Chemscore.Hbond>
0.9198

> <Gold.Chemscore.Metal>
0.0000

> <Gold.Chemscore.Lipo>
128.3903

> <Gold.Chemscore.Internal_Hbond>
0.0000

> <Gold.Chemscore.DEClash>
0.9645

> <Gold.Chemscore.DEInternal>
0.8454

> <Gold.Chemscore.Rot>
2.7172

> <Gold.Chemscore.Internal.Correction>
   9.000000E+99

> <Gold.Chemscore.Hbonds>
donor molecule, donor type, donor heavy atom, donor atom, acceptor molecule, acceptor atom, score
      L1  H    19    44       P1  7957  0.01
      P1  H  7989  7998       L1    11  0.08
      P1  H  7997  8010       L1     9  0.09

> <Gold.Chemscore.Hbond.Weighted>
-3.0721

> <Gold.Chemscore.Metal.Weighted>
-0.0000

> <Gold.Chemscore.Lipo.Weighted>
-15.0217

> <Gold.Chemscore.Internal_Hbond.Weighted>
0.0000

> <Gold.Chemscore.DEClash.Weighted>
0.9645

> <Gold.Chemscore.DEInternal.Weighted>
0.8454

> <Gold.Chemscore.Rot.Weighted>
6.9560

> <Gold.Chemscore.Internal.Correction.Weighted>
   9.000000E+99

> <Gold.Protein.RotatedTorsions>
[ 6907 6896 6895 6894 ] final  -76.45 input  -60.11 | X-H torsion
[ 7974 7965 7964 7962 ] final -105.23 input  175.53 | X-H torsion
[ 8008 7997 7996 7995 ] final   75.49 input   59.86 | X-H torsion
[ 10167 10162 10161 10158 ] final  122.95 input  -65.29 | X-H torsion
[ 10718 10713 10712 10709 ] final   61.55 input   66.30 | X-H torsion
[ 10763 10752 10751 10750 ] final  -24.45 input  -60.55 | X-H torsion
[ 11005 11000 10999 10996 ] final  126.21 input  -57.11 | X-H torsion

> <Gold.Protein.ActiveResidues>
 VAL166  LYS551  ARG553  GLY616  TRP617  ASP618  TYR619  PRO620  LYS621  CYS622 
 ASP623  PHE694  ASN695  SER759  ASP760  ASP761  ALA762  ILE779  LEU786  VAL792 
 PHE793  MET794  SER795  GLU796  ALA797  LYS798  CYS799  TRP800  GLU811  SER814 

> <Gold.Protein.RotatedAtoms>
  150.7027  134.4571  159.5362 H   0  0  0  0  0  0  0  0  0  0  0  0  # atno 6907 bound_to 6896
  152.2252  134.8372  160.0490 H   0  0  0  0  0  0  0  0  0  0  0  0  # atno 6908 bound_to 6896
  151.9207  133.3550  159.3933 H   0  0  0  0  0  0  0  0  0  0  0  0  # atno 6909 bound_to 6896
  145.2331  140.9178  143.3193 H   0  0  0  0  0  0  0  0  0  0  0  0  # atno 7974 bound_to 7965
  155.8136  140.3472  155.5472 H   0  0  0  0  0  0  0  0  0  0  0  0  # atno 8008 bound_to 7997
  155.8415  140.0942  157.1751 H   0  0  0  0  0  0  0  0  0  0  0  0  # atno 8009 bound_to 7997
  154.4005  140.1393  156.3722 H   0  0  0  0  0  0  0  0  0  0  0  0  # atno 8010 bound_to 7997
  139.5828  144.6993  151.3485 H   0  0  0  0  0  0  0  0  0  0  0  0  # atno 10167 bound_to 10162
  157.5836  130.9001  149.9475 H   0  0  0  0  0  0  0  0  0  0  0  0  # atno 10718 bound_to 10713
  153.6840  135.6965  153.5109 H   0  0  0  0  0  0  0  0  0  0  0  0  # atno 10763 bound_to 10752
  153.2463  135.4289  155.0750 H   0  0  0  0  0  0  0  0  0  0  0  0  # atno 10764 bound_to 10752
  154.8392  135.3520  154.6383 H   0  0  0  0  0  0  0  0  0  0  0  0  # atno 10765 bound_to 10752
  139.9445  134.9631  156.8673 H   0  0  0  0  0  0  0  0  0  0  0  0  # atno 11005 bound_to 11000
  144.9658  139.3932  143.6333 LP  0  0  0  0  0  0  0  0  0  0  0  0  # atno 17320 bound_to 7965
  146.3348  139.8732  142.8836 LP  0  0  0  0  0  0  0  0  0  0  0  0  # atno 17321 bound_to 7965
  140.7104  143.7405  150.7556 LP  0  0  0  0  0  0  0  0  0  0  0  0  # atno 17342 bound_to 10162
  140.0942  143.4849  152.2461 LP  0  0  0  0  0  0  0  0  0  0  0  0  # atno 17343 bound_to 10162
  156.0884  130.3666  150.0443 LP  0  0  0  0  0  0  0  0  0  0  0  0  # atno 17370 bound_to 10713
  156.8578  130.9481  151.3620 LP  0  0  0  0  0  0  0  0  0  0  0  0  # atno 17371 bound_to 10713
  140.5870  134.0298  155.7485 LP  0  0  0  0  0  0  0  0  0  0  0  0  # atno 17394 bound_to 11000
  141.1090  133.9647  157.2944 LP  0  0  0  0  0  0  0  0  0  0  0  0  # atno 17395 bound_to 11000

$$$$
