AV-unprocessed.smi:1881|AV-procd|sdf|7640|dock8
  -GOLD-   22720 9373D 1   1.00000     0.00000
 Structure written by MMmdl.
 51 52  0  0  0  0  0  0  0  0  2 V2000
  149.8412  141.8423  158.2669 C   0  0  0  0  0  0  0  0  0  0  0  0
  151.3243  141.8146  157.8183 C   0  0  0  0  0  0  0  0  0  0  0  0
  151.5752  143.1741  157.1111 C   0  0  0  0  0  0  0  0  0  0  0  0
  152.3056  141.7719  159.0125 C   0  0  0  0  0  0  0  0  0  0  0  0
  151.6163  140.6540  156.8114 C   0  0  0  0  0  0  0  0  0  0  0  0
  152.4606  139.8168  157.1394 O   0  0  0  0  0  0  0  0  0  0  0  0
  150.9863  140.5414  155.6074 N   0  0  0  0  0  0  0  0  0  0  0  0
  151.1524  139.5048  154.5794 C   0  0  0  0  0  0  0  0  0  0  0  0
  149.8940  138.6180  154.5505 C   0  0  0  0  0  0  0  0  0  0  0  0
  148.6269  139.4626  154.2817 C   0  0  0  0  0  0  0  0  0  0  0  0
  147.3630  138.6030  154.4057 C   0  0  0  0  0  0  0  0  0  0  0  0
  146.5638  138.8027  155.3213 O   0  0  0  0  0  0  0  0  0  0  0  0
  147.2066  137.6319  153.4916 N   0  0  0  0  0  0  0  0  0  0  0  0
  146.0945  136.6858  153.4397 C   0  0  0  0  0  0  0  0  0  0  0  0
  145.5997  136.4165  152.0038 C   0  0  0  0  0  0  0  0  0  0  0  0
  145.5681  134.9448  151.6269 C   0  0  0  0  0  0  0  0  0  0  0  0
  144.3966  134.3233  151.1436 C   0  0  0  0  0  0  0  0  0  0  0  0
  144.4201  132.9451  150.8456 C   0  0  0  0  0  0  0  0  0  0  0  0
  145.6127  132.2173  151.0372 C   0  0  0  0  0  0  0  0  0  0  0  0
  146.7540  132.8877  151.5219 C   0  0  0  0  0  0  0  0  0  0  0  0
  146.6919  134.2094  151.7944 N   0  3  0  0  0  0  0  0  0  0  0  0
  148.5698  140.6840  155.2280 C   0  0  0  0  0  0  0  0  0  0  0  0
  149.9012  141.4565  155.2135 C   0  0  0  0  0  0  0  0  0  0  0  0
  149.5461  142.8385  158.5981 H   0  0  0  0  0  0  0  0  0  0  0  0
  149.6286  141.1881  159.1087 H   0  0  0  0  0  0  0  0  0  0  0  0
  149.1694  141.5705  157.4515 H   0  0  0  0  0  0  0  0  0  0  0  0
  150.9230  143.3075  156.2463 H   0  0  0  0  0  0  0  0  0  0  0  0
  152.6065  143.2738  156.7682 H   0  0  0  0  0  0  0  0  0  0  0  0
  151.3897  144.0143  157.7816 H   0  0  0  0  0  0  0  0  0  0  0  0
  152.1884  142.6536  159.6434 H   0  0  0  0  0  0  0  0  0  0  0  0
  153.3412  141.7582  158.6699 H   0  0  0  0  0  0  0  0  0  0  0  0
  152.1751  140.9100  159.6612 H   0  0  0  0  0  0  0  0  0  0  0  0
  151.2837  139.9840  153.6082 H   0  0  0  0  0  0  0  0  0  0  0  0
  152.0363  138.8922  154.6951 H   0  0  0  0  0  0  0  0  0  0  0  0
  150.0029  137.8534  153.7803 H   0  0  0  0  0  0  0  0  0  0  0  0
  149.8035  138.0872  155.4994 H   0  0  0  0  0  0  0  0  0  0  0  0
  148.6908  139.8404  153.2595 H   0  0  0  0  0  0  0  0  0  0  0  0
  147.9101  137.5454  152.7721 H   0  0  0  0  0  0  0  0  0  0  0  0
  146.3670  135.7471  153.9252 H   0  0  0  0  0  0  0  0  0  0  0  0
  145.2775  137.1023  154.0293 H   0  0  0  0  0  0  0  0  0  0  0  0
  144.5964  136.8267  151.8839 H   0  0  0  0  0  0  0  0  0  0  0  0
  146.2293  136.9521  151.2918 H   0  0  0  0  0  0  0  0  0  0  0  0
  143.4877  134.8921  151.0118 H   0  0  0  0  0  0  0  0  0  0  0  0
  143.5325  132.4510  150.4785 H   0  0  0  0  0  0  0  0  0  0  0  0
  145.6498  131.1603  150.8178 H   0  0  0  0  0  0  0  0  0  0  0  0
  147.7057  132.4097  151.7021 H   0  0  0  0  0  0  0  0  0  0  0  0
  147.7566  141.3481  154.9326 H   0  0  0  0  0  0  0  0  0  0  0  0
  148.3542  140.3672  156.2501 H   0  0  0  0  0  0  0  0  0  0  0  0
  149.8175  142.3366  155.8518 H   0  0  0  0  0  0  0  0  0  0  0  0
  150.0961  141.8489  154.2142 H   0  0  0  0  0  0  0  0  0  0  0  0
  147.5276  134.6727  152.1517 H   0  0  0  0  0  0  0  0  0  0  0  0
  1  2  1  0  0  0  0
  1 24  1  0  0  0  0
  1 25  1  0  0  0  0
  1 26  1  0  0  0  0
  2  3  1  0  0  0  0
  2  4  1  0  0  0  0
  2  5  1  0  0  0  0
  3 27  1  0  0  0  0
  3 28  1  0  0  0  0
  3 29  1  0  0  0  0
  4 30  1  0  0  0  0
  4 31  1  0  0  0  0
  4 32  1  0  0  0  0
  5  6  2  0  0  0  0
  5  7  1  0  0  0  0
  7 23  1  0  0  0  0
  7  8  1  0  0  0  0
  8  9  1  0  0  0  0
  8 33  1  0  0  0  0
  8 34  1  0  0  0  0
  9 10  1  0  0  0  0
  9 35  1  0  0  0  0
  9 36  1  0  0  0  0
 10 11  1  0  0  0  0
 10 22  1  0  0  0  0
 10 37  1  0  0  0  0
 11 12  2  0  0  0  0
 11 13  1  0  0  0  0
 13 14  1  0  0  0  0
 13 38  1  0  0  0  0
 14 15  1  0  0  0  0
 14 39  1  0  0  0  0
 14 40  1  0  0  0  0
 15 16  1  0  0  0  0
 15 41  1  0  0  0  0
 15 42  1  0  0  0  0
 16 21  1  0  0  0  0
 16 17  2  0  0  0  0
 17 18  1  0  0  0  0
 17 43  1  0  0  0  0
 18 19  2  0  0  0  0
 18 44  1  0  0  0  0
 19 20  1  0  0  0  0
 19 45  1  0  0  0  0
 20 21  2  0  0  0  0
 20 46  1  0  0  0  0
 21 51  1  0  0  0  0
 22 23  1  0  0  0  0
 22 47  1  0  0  0  0
 22 48  1  0  0  0  0
 23 49  1  0  0  0  0
 23 50  1  0  0  0  0
M  CHG  1  21   1
M  END
> <s_m_source_file>
AV-unprocessed.smi

> <i_m_source_file_index>
1881

> <i_lp_mmshare_version>
43012

> <i_f3d_flags>
0

> <s_epik_input>
W0NIM11DKFtDSDNdKShbQ0gzXSlDKD1PKU4xW0NIMl1bQ0gyXVtDSF0oW0NIMl1bQ0gyXTEpQyg9TylbTkhdW0NIMl1bQ0gyXWMyW2NIXVtjSF1bY0hdW2NIXW4y

> <s_epik_cmdline>
J2VwaWtfcHl0aG9uJywgJy1waCcsICc3LjAnLCAnLXRuJywgJzgnLCAnLW1hJywgJzIwMCcsICctbWV0YWxfYmluZGluZycsICctaW1hZScsICc8aW5maWxlLm1hZT4nLCAnLW9tYWUnLCAnPG91dGZpbGUubWFlPic=

> <r_epik_Ionization_Penalty>
1.84673

> <r_epik_Ionization_Penalty_Charging>
1.84673

> <r_epik_Ionization_Penalty_Neutral>
1.24553e-07

> <r_epik_State_Penalty>
1.9639

> <r_epik_Charging_Adjusted_Penalty>
3.81063

> <i_epik_Tot_Q>
1

> <i_epik_Tot_abs_Q>
1

> <r_epik_Metal_State_Penalty>
1.98977

> <b_epik_Metal_Only>
0

> <s_lp_Force_Field>
OPLS_2005

> <r_lp_Energy>
43.8057

> <b_lp_Chiralities_Consistent>
1

> <s_lp_Variant>
AV-unprocessed.smi:1881-2

> <Gold.Version>
5.8.1

> <Gold.Id.Protein>
6NUR|6NUR_protein|mol2

> <Gold.PLP.Fitness>
49.4682

> <Gold.PLP.PLP>
-39.6484

> <Gold.PLP.part.hbond>
-3.0000

> <Gold.PLP.part.metal>
0.0000

> <Gold.PLP.part.buried>
-1.5763

> <Gold.PLP.part.nonpolar>
-34.7841

> <Gold.PLP.part.repulsive>
0.1188

> <Gold.PLP.ligand.clash>
0.0000

> <Gold.PLP.ligand.torsion>
0.7441

> <Gold.PLP.Chemscore.Hbond>
3.7360

> <Gold.PLP.Chemscore.CHOScore>
0.0000

> <Gold.PLP.Chemscore.Metal>
0.0000

> <Gold.Chemscore.Hbonds>
donor molecule, donor type, donor heavy atom, donor atom, acceptor molecule, acceptor atom, score
      L1  H    13    38       P1  7948  0.85
      L1  H    21    51       P1  7948  1.57
      P1  H  7997  8008       L1     6  1.00

> <Gold.PLP.Chemscore.Internal.Correction>
0.0999

> <Gold.Rescore>
     Score         DG    S(hbond)    S(metal)    S(lipo)     H(rot)  DE(clash)    DE(int)     intcor
     17.39     -20.52       2.10        0.00     104.94       1.65       1.39       1.74       ----

> <Gold.Chemscore.Fitness>
17.3930

> <Gold.Chemscore.DG>
-20.5246

> <Gold.Chemscore.ZeroCoef>
-5.4800

> <Gold.Chemscore.Hbond>
2.0961

> <Gold.Chemscore.Metal>
0.0000

> <Gold.Chemscore.Lipo>
104.9379

> <Gold.Chemscore.Internal_Hbond>
0.0000

> <Gold.Chemscore.DEClash>
1.3875

> <Gold.Chemscore.DEInternal>
1.7440

> <Gold.Chemscore.Rot>
1.6540

> <Gold.Chemscore.Internal.Correction>
   9.000000E+99

> <Gold.Chemscore.Hbonds>
donor molecule, donor type, donor heavy atom, donor atom, acceptor molecule, acceptor atom, score
      L1  H    13    38       P1  7948  0.83
      L1  H    21    51       P1  7948  0.56
      P1  H  7997  8008       L1     6  0.93

> <Gold.Chemscore.Hbond.Weighted>
-7.0010

> <Gold.Chemscore.Metal.Weighted>
-0.0000

> <Gold.Chemscore.Lipo.Weighted>
-12.2777

> <Gold.Chemscore.Internal_Hbond.Weighted>
0.0000

> <Gold.Chemscore.DEClash.Weighted>
1.3875

> <Gold.Chemscore.DEInternal.Weighted>
1.7440

> <Gold.Chemscore.Rot.Weighted>
4.2342

> <Gold.Chemscore.Internal.Correction.Weighted>
   9.000000E+99

> <Gold.Protein.RotatedTorsions>
[ 6907 6896 6895 6894 ] final -171.55 input  -60.11 | X-H torsion
[ 7974 7965 7964 7962 ] final  156.71 input  175.53 | X-H torsion
[ 8008 7997 7996 7995 ] final  -56.17 input   59.86 | X-H torsion
[ 10167 10162 10161 10158 ] final -111.64 input  -65.29 | X-H torsion
[ 10718 10713 10712 10709 ] final -153.08 input   66.30 | X-H torsion
[ 10763 10752 10751 10750 ] final  -26.99 input  -60.55 | X-H torsion
[ 11005 11000 10999 10996 ] final  133.61 input  -57.11 | X-H torsion

> <Gold.Protein.ActiveResidues>
 VAL166  LYS551  ARG553  GLY616  TRP617  ASP618  TYR619  PRO620  LYS621  CYS622 
 ASP623  PHE694  ASN695  SER759  ASP760  ASP761  ALA762  ILE779  LEU786  VAL792 
 PHE793  MET794  SER795  GLU796  ALA797  LYS798  CYS799  TRP800  GLU811  SER814 

> <Gold.Protein.RotatedAtoms>
  151.5257  133.3458  159.2908 H   0  0  0  0  0  0  0  0  0  0  0  0  # atno 6907 bound_to 6896
  150.8625  134.7982  159.7104 H   0  0  0  0  0  0  0  0  0  0  0  0  # atno 6908 bound_to 6896
  152.4640  134.5128  159.9810 H   0  0  0  0  0  0  0  0  0  0  0  0  # atno 6909 bound_to 6896
  144.7947  139.7241  143.6207 H   0  0  0  0  0  0  0  0  0  0  0  0  # atno 7974 bound_to 7965
  154.4220  140.1136  156.5594 H   0  0  0  0  0  0  0  0  0  0  0  0  # atno 8008 bound_to 7997
  155.6327  140.3496  155.4669 H   0  0  0  0  0  0  0  0  0  0  0  0  # atno 8009 bound_to 7997
  155.9935  140.1184  157.0605 H   0  0  0  0  0  0  0  0  0  0  0  0  # atno 8010 bound_to 7997
  140.1314  143.4357  152.1625 H   0  0  0  0  0  0  0  0  0  0  0  0  # atno 10167 bound_to 10162
  156.4810  130.8303  151.2530 H   0  0  0  0  0  0  0  0  0  0  0  0  # atno 10718 bound_to 10713
  153.7248  135.6942  153.5004 H   0  0  0  0  0  0  0  0  0  0  0  0  # atno 10763 bound_to 10752
  153.2178  135.4380  155.0453 H   0  0  0  0  0  0  0  0  0  0  0  0  # atno 10764 bound_to 10752
  154.8272  135.3453  154.6780 H   0  0  0  0  0  0  0  0  0  0  0  0  # atno 10765 bound_to 10752
  139.9863  134.9531  156.9749 H   0  0  0  0  0  0  0  0  0  0  0  0  # atno 11005 bound_to 11000
  146.2211  139.5637  142.9618 LP  0  0  0  0  0  0  0  0  0  0  0  0  # atno 17320 bound_to 7965
  145.5705  141.0394  143.2177 LP  0  0  0  0  0  0  0  0  0  0  0  0  # atno 17321 bound_to 7965
  139.5518  144.7343  151.4413 LP  0  0  0  0  0  0  0  0  0  0  0  0  # atno 17342 bound_to 10162
  140.6815  143.8072  150.7127 LP  0  0  0  0  0  0  0  0  0  0  0  0  # atno 17343 bound_to 10162
  157.7483  131.0045  150.3077 LP  0  0  0  0  0  0  0  0  0  0  0  0  # atno 17370 bound_to 10713
  156.3522  130.3833  149.7320 LP  0  0  0  0  0  0  0  0  0  0  0  0  # atno 17371 bound_to 10713
  140.4997  134.1110  155.7248 LP  0  0  0  0  0  0  0  0  0  0  0  0  # atno 17394 bound_to 11000
  141.1527  133.8939  157.2057 LP  0  0  0  0  0  0  0  0  0  0  0  0  # atno 17395 bound_to 11000

$$$$
