AV-unprocessed.smi:2047|AV-procd|sdf|8318|dock9
  -GOLD-   2272010583D 1   1.00000     0.00000
 Structure written by MMmdl.
 43 45  0  0  0  0  0  0  0  0  2 V2000
  154.2715  141.0311  160.3588 O   0  0  0  0  0  0  0  0  0  0  0  0
  153.3118  140.4102  159.9032 C   0  0  0  0  0  0  0  0  0  0  0  0
  152.2313  140.9644  159.3278 N   0  0  0  0  0  0  0  0  0  0  0  0
  151.9576  142.3430  159.0920 C   0  0  0  0  0  0  0  0  0  0  0  0
  152.5940  143.3894  159.8087 C   0  0  0  0  0  0  0  0  0  0  0  0
  152.2884  144.7310  159.5057 C   0  0  0  0  0  0  0  0  0  0  0  0
  151.3611  145.0089  158.4849 C   0  0  0  0  0  0  0  0  0  0  0  0
  150.7841  143.9925  157.8106 N   0  3  0  0  0  0  0  0  0  0  0  0
  151.0424  142.6858  158.0634 C   0  0  0  0  0  0  0  0  0  0  0  0
  150.3830  141.7029  157.3049 N   0  0  0  0  0  0  0  0  0  0  0  0
  150.7211  141.6601  155.8919 C   0  0  0  0  0  0  0  0  0  0  0  0
  149.6261  140.8141  155.2374 C   0  0  0  0  0  0  0  0  0  0  0  0
  148.4405  140.8843  156.2080 C   0  0  0  0  0  0  0  0  0  0  0  0
  148.9321  141.7509  157.3705 C   0  0  0  0  0  0  0  0  0  0  0  0
  153.2126  139.0739  159.9366 N   0  0  0  0  0  0  0  0  0  0  0  0
  154.2202  138.1737  160.4902 C   0  0  1  0  0  0  0  0  0  0  0  0
  153.6793  137.4233  161.7213 C   0  0  0  0  0  0  0  0  0  0  0  0
  154.6208  136.2548  162.0370 C   0  0  0  0  0  0  0  0  0  0  0  0
  155.3125  135.7105  160.4290 S   0  0  0  0  0  0  0  0  0  0  0  0
  156.7800  135.7809  160.4930 O   0  0  0  0  0  0  0  0  0  0  0  0
  154.6314  134.4833  159.9894 O   0  0  0  0  0  0  0  0  0  0  0  0
  154.6736  137.1278  159.4588 C   0  0  0  0  0  0  0  0  0  0  0  0
  151.4868  140.3284  159.0817 H   0  0  0  0  0  0  0  0  0  0  0  0
  153.3243  143.1912  160.5778 H   0  0  0  0  0  0  0  0  0  0  0  0
  152.7643  145.5359  160.0470 H   0  0  0  0  0  0  0  0  0  0  0  0
  151.0696  146.0051  158.1851 H   0  0  0  0  0  0  0  0  0  0  0  0
  150.7237  142.6634  155.4641 H   0  0  0  0  0  0  0  0  0  0  0  0
  151.7092  141.2251  155.7385 H   0  0  0  0  0  0  0  0  0  0  0  0
  149.3728  141.1844  154.2436 H   0  0  0  0  0  0  0  0  0  0  0  0
  149.9578  139.7804  155.1319 H   0  0  0  0  0  0  0  0  0  0  0  0
  147.5492  141.3069  155.7434 H   0  0  0  0  0  0  0  0  0  0  0  0
  148.1877  139.8833  156.5599 H   0  0  0  0  0  0  0  0  0  0  0  0
  148.5694  141.3796  158.3296 H   0  0  0  0  0  0  0  0  0  0  0  0
  148.5781  142.7758  157.2502 H   0  0  0  0  0  0  0  0  0  0  0  0
  152.3852  138.6450  159.5479 H   0  0  0  0  0  0  0  0  0  0  0  0
  155.0913  138.7497  160.8089 H   0  0  0  0  0  0  0  0  0  0  0  0
  153.5618  138.0843  162.5808 H   0  0  0  0  0  0  0  0  0  0  0  0
  152.6915  137.0209  161.4919 H   0  0  0  0  0  0  0  0  0  0  0  0
  155.4494  136.5849  162.6640 H   0  0  0  0  0  0  0  0  0  0  0  0
  154.1187  135.4241  162.5331 H   0  0  0  0  0  0  0  0  0  0  0  0
  153.8336  136.7692  158.8628 H   0  0  0  0  0  0  0  0  0  0  0  0
  155.4453  137.4997  158.7841 H   0  0  0  0  0  0  0  0  0  0  0  0
  150.1185  144.2210  157.0721 H   0  0  0  0  0  0  0  0  0  0  0  0
  1  2  2  0  0  0  0
  2  3  1  0  0  0  0
  2 15  1  0  0  0  0
  3  4  1  0  0  0  0
  3 23  1  0  0  0  0
  4  9  1  0  0  0  0
  4  5  2  0  0  0  0
  5  6  1  0  0  0  0
  5 24  1  0  0  0  0
  6  7  2  0  0  0  0
  6 25  1  0  0  0  0
  7  8  1  0  0  0  0
  7 26  1  0  0  0  0
  8  9  2  0  0  0  0
  8 43  1  0  0  0  0
  9 10  1  0  0  0  0
 10 14  1  0  0  0  0
 10 11  1  0  0  0  0
 11 12  1  0  0  0  0
 11 27  1  0  0  0  0
 11 28  1  0  0  0  0
 12 13  1  0  0  0  0
 12 29  1  0  0  0  0
 12 30  1  0  0  0  0
 13 14  1  0  0  0  0
 13 31  1  0  0  0  0
 13 32  1  0  0  0  0
 14 33  1  0  0  0  0
 14 34  1  0  0  0  0
 15 16  1  0  0  0  0
 15 35  1  0  0  0  0
 16 22  1  0  0  0  0
 16 17  1  0  0  0  0
 16 36  1  0  0  0  0
 17 18  1  0  0  0  0
 17 37  1  0  0  0  0
 17 38  1  0  0  0  0
 18 19  1  0  0  0  0
 18 39  1  0  0  0  0
 18 40  1  0  0  0  0
 19 20  2  0  0  0  0
 19 21  2  0  0  0  0
 19 22  1  0  0  0  0
 22 41  1  0  0  0  0
 22 42  1  0  0  0  0
M  CHG  1   8   1
M  END
> <s_m_source_file>
AV-unprocessed.smi

> <i_m_source_file_index>
2047

> <i_lp_mmshare_version>
43012

> <i_f3d_flags>
0

> <s_epik_input>
Tz1TMSg9TylbQ0gyXVtDSDJdW0NASF0oW0NIMl0xKVtOSF1DKD1PKVtOSF1jMltjSF1bY0hdW2NIXW5jMk4zW0NIMl1bQ0gyXVtDSDJdW0NIMl0z

> <s_epik_cmdline>
J2VwaWtfcHl0aG9uJywgJy1waCcsICc3LjAnLCAnLXRuJywgJzgnLCAnLW1hJywgJzIwMCcsICctbWV0YWxfYmluZGluZycsICctaW1hZScsICc8aW5maWxlLm1hZT4nLCAnLW9tYWUnLCAnPG91dGZpbGUubWFlPic=

> <r_lp_tautomer_probability>
0.999994

> <r_epik_Ionization_Penalty>
1.20225

> <r_epik_Ionization_Penalty_Charging>
1.20223

> <r_epik_Ionization_Penalty_Neutral>
2.10783e-05

> <r_epik_State_Penalty>
1.26794

> <r_epik_Charging_Adjusted_Penalty>
2.47017

> <i_epik_Tot_Q>
1

> <i_epik_Tot_abs_Q>
1

> <r_epik_Metal_State_Penalty>
1.34322

> <b_epik_Metal_Only>
0

> <s_lp_Force_Field>
OPLS_2005

> <r_lp_Energy>
42.594

> <b_lp_Chiralities_Consistent>
1

> <s_lp_Variant>
AV-unprocessed.smi:2047-4

> <Gold.Version>
5.8.1

> <Gold.Id.Protein>
6NUR|6NUR_protein|mol2

> <Gold.PLP.Fitness>
45.6848

> <Gold.PLP.PLP>
-36.9874

> <Gold.PLP.part.hbond>
-2.0000

> <Gold.PLP.part.metal>
0.0000

> <Gold.PLP.part.buried>
-7.0923

> <Gold.PLP.part.nonpolar>
-27.9946

> <Gold.PLP.part.repulsive>
0.3028

> <Gold.PLP.ligand.clash>
0.0000

> <Gold.PLP.ligand.torsion>
0.1619

> <Gold.PLP.Chemscore.Hbond>
3.0000

> <Gold.PLP.Chemscore.CHOScore>
0.0000

> <Gold.PLP.Chemscore.Metal>
0.0000

> <Gold.Chemscore.Hbonds>
donor molecule, donor type, donor heavy atom, donor atom, acceptor molecule, acceptor atom, score
      L1  H     8    43       P1  8028  2.00
      P1  H  6896  6908       L1    21  0.94

> <Gold.PLP.Chemscore.Internal.Correction>
0.0211

> <Gold.Rescore>
     Score         DG    S(hbond)    S(metal)    S(lipo)     H(rot)  DE(clash)    DE(int)     intcor
     18.24     -19.86       1.98        0.00      94.05       1.26       0.27       1.35       ----

> <Gold.Chemscore.Fitness>
18.2422

> <Gold.Chemscore.DG>
-19.8585

> <Gold.Chemscore.ZeroCoef>
-5.4800

> <Gold.Chemscore.Hbond>
1.9753

> <Gold.Chemscore.Metal>
0.0000

> <Gold.Chemscore.Lipo>
94.0516

> <Gold.Chemscore.Internal_Hbond>
0.0000

> <Gold.Chemscore.DEClash>
0.2672

> <Gold.Chemscore.DEInternal>
1.3491

> <Gold.Chemscore.Rot>
1.2590

> <Gold.Chemscore.Internal.Correction>
   9.000000E+99

> <Gold.Chemscore.Hbonds>
donor molecule, donor type, donor heavy atom, donor atom, acceptor molecule, acceptor atom, score
      L1  H     8    43       P1  8028  0.82
      P1  H  6896  6908       L1    21  0.89

> <Gold.Chemscore.Hbond.Weighted>
-6.5976

> <Gold.Chemscore.Metal.Weighted>
-0.0000

> <Gold.Chemscore.Lipo.Weighted>
-11.0040

> <Gold.Chemscore.Internal_Hbond.Weighted>
0.0000

> <Gold.Chemscore.DEClash.Weighted>
0.2672

> <Gold.Chemscore.DEInternal.Weighted>
1.3491

> <Gold.Chemscore.Rot.Weighted>
3.2231

> <Gold.Chemscore.Internal.Correction.Weighted>
   9.000000E+99

> <Gold.Protein.RotatedTorsions>
[ 6907 6896 6895 6894 ] final  -42.10 input  -60.11 | X-H torsion
[ 7974 7965 7964 7962 ] final -150.82 input  175.53 | X-H torsion
[ 8008 7997 7996 7995 ] final  148.02 input   59.86 | X-H torsion
[ 10167 10162 10161 10158 ] final   -7.54 input  -65.29 | X-H torsion
[ 10718 10713 10712 10709 ] final -165.14 input   66.30 | X-H torsion
[ 10763 10752 10751 10750 ] final  121.37 input  -60.55 | X-H torsion
[ 11005 11000 10999 10996 ] final  116.55 input  -57.11 | X-H torsion

> <Gold.Protein.ActiveResidues>
 VAL166  LYS551  ARG553  GLY616  TRP617  ASP618  TYR619  PRO620  LYS621  CYS622 
 ASP623  PHE694  ASN695  SER759  ASP760  ASP761  ALA762  ILE779  LEU786  VAL792 
 PHE793  MET794  SER795  GLU796  ALA797  LYS798  CYS799  TRP800  GLU811  SER814 

> <Gold.Protein.RotatedAtoms>
  150.9591  134.8981  159.7719 H   0  0  0  0  0  0  0  0  0  0  0  0  # atno 6907 bound_to 6896
  152.5149  134.3698  159.9324 H   0  0  0  0  0  0  0  0  0  0  0  0  # atno 6908 bound_to 6896
  151.3711  133.3814  159.2734 H   0  0  0  0  0  0  0  0  0  0  0  0  # atno 6909 bound_to 6896
  144.7885  140.4880  143.5789 H   0  0  0  0  0  0  0  0  0  0  0  0  # atno 7974 bound_to 7965
  156.2805  140.2140  156.5631 H   0  0  0  0  0  0  0  0  0  0  0  0  # atno 8008 bound_to 7997
  154.7197  140.0504  157.0650 H   0  0  0  0  0  0  0  0  0  0  0  0  # atno 8009 bound_to 7997
  155.0495  140.3154  155.4700 H   0  0  0  0  0  0  0  0  0  0  0  0  # atno 8010 bound_to 7997
  140.7032  143.6070  150.8742 H   0  0  0  0  0  0  0  0  0  0  0  0  # atno 10167 bound_to 10162
  156.6491  130.9000  151.3010 H   0  0  0  0  0  0  0  0  0  0  0  0  # atno 10718 bound_to 10713
  153.6130  135.3427  155.2985 H   0  0  0  0  0  0  0  0  0  0  0  0  # atno 10763 bound_to 10752
  154.8615  135.4255  154.2289 H   0  0  0  0  0  0  0  0  0  0  0  0  # atno 10764 bound_to 10752
  153.3144  135.7034  153.7159 H   0  0  0  0  0  0  0  0  0  0  0  0  # atno 10765 bound_to 10752
  139.9045  134.9599  156.7216 H   0  0  0  0  0  0  0  0  0  0  0  0  # atno 11005 bound_to 11000
  145.5857  139.1492  143.3210 LP  0  0  0  0  0  0  0  0  0  0  0  0  # atno 17320 bound_to 7965
  146.2127  140.5985  142.9052 LP  0  0  0  0  0  0  0  0  0  0  0  0  # atno 17321 bound_to 7965
  139.9793  143.5969  152.2948 LP  0  0  0  0  0  0  0  0  0  0  0  0  # atno 17342 bound_to 10162
  139.6584  144.7662  151.2010 LP  0  0  0  0  0  0  0  0  0  0  0  0  # atno 17343 bound_to 10162
  157.7147  130.9482  150.1211 LP  0  0  0  0  0  0  0  0  0  0  0  0  # atno 17370 bound_to 10713
  156.2099  130.3666  149.8683 LP  0  0  0  0  0  0  0  0  0  0  0  0  # atno 17371 bound_to 10713
  140.6996  133.9318  155.8016 LP  0  0  0  0  0  0  0  0  0  0  0  0  # atno 17394 bound_to 11000
  141.0381  134.0660  157.3934 LP  0  0  0  0  0  0  0  0  0  0  0  0  # atno 17395 bound_to 11000

$$$$
