AV-unprocessed.smi:48|AV-procd|sdf|457|dock3
  -GOLD-   2262016323D 1   1.00000     0.00000
 Structure written by MMmdl.
 30 32  0  0  0  0  0  0  0  0  1 V2000
  151.5621  136.8516  154.0578 O   0  0  0  0  0  0  0  0  0  0  0  0
  151.9619  138.2041  153.9993 C   0  0  0  0  0  0  0  0  0  0  0  0
  151.3495  138.9823  155.1763 C   0  0  1  0  0  0  0  0  0  0  0  0
  151.9484  140.2657  155.3152 O   0  0  0  0  0  0  0  0  0  0  0  0
  151.1143  141.0995  156.0630 C   0  0  2  0  0  0  0  0  0  0  0  0
  151.6629  141.1959  157.4551 N   0  0  0  0  0  0  0  0  0  0  0  0
  152.3799  140.2941  158.1600 C   0  0  0  0  0  0  0  0  0  0  0  0
  152.7465  140.6339  159.3955 N   0  0  0  0  0  0  0  0  0  0  0  0
  152.2121  141.9073  159.5026 C   0  0  0  0  0  0  0  0  0  0  0  0
  152.2140  142.8677  160.5431 C   0  0  0  0  0  0  0  0  0  0  0  0
  152.9940  142.5459  162.0484 Cl  0  0  0  0  0  0  0  0  0  0  0  0
  151.5877  144.0501  160.3304 N   0  0  0  0  0  0  0  0  0  0  0  0
  150.9902  144.2737  159.1529 C   0  0  0  0  0  0  0  0  0  0  0  0
  150.9058  143.4700  158.0863 N   0  0  0  0  0  0  0  0  0  0  0  0
  151.5381  142.2795  158.3056 C   0  0  0  0  0  0  0  0  0  0  0  0
  149.6941  140.4832  156.0228 C   0  0  2  0  0  0  0  0  0  0  0  0
  149.2401  139.9920  157.2731 O   0  0  0  0  0  0  0  0  0  0  0  0
  149.8609  139.3270  155.0434 C   0  0  1  0  0  0  0  0  0  0  0  0
  149.5497  139.7442  153.7263 O   0  0  0  0  0  0  0  0  0  0  0  0
  151.4852  138.4225  156.1037 H   0  0  0  0  0  0  0  0  0  0  0  0
  151.1605  142.1191  155.6784 H   0  0  0  0  0  0  0  0  0  0  0  0
  148.9804  141.2272  155.6662 H   0  0  0  0  0  0  0  0  0  0  0  0
  149.2231  138.4753  155.2846 H   0  0  0  0  0  0  0  0  0  0  0  0
  151.2654  136.5883  153.2001 H   0  0  0  0  0  0  0  0  0  0  0  0
  153.0501  138.2768  153.9959 H   0  0  0  0  0  0  0  0  0  0  0  0
  151.6038  138.6094  153.0525 H   0  0  0  0  0  0  0  0  0  0  0  0
  152.6496  139.3327  157.7484 H   0  0  0  0  0  0  0  0  0  0  0  0
  150.5108  145.2359  159.0497 H   0  0  0  0  0  0  0  0  0  0  0  0
  148.4126  139.5553  157.1409 H   0  0  0  0  0  0  0  0  0  0  0  0
  150.1815  139.3675  153.1332 H   0  0  0  0  0  0  0  0  0  0  0  0
  1  2  1  0  0  0  0
  1 24  1  0  0  0  0
  2  3  1  0  0  0  0
  2 25  1  0  0  0  0
  2 26  1  0  0  0  0
  3 20  1  0  0  0  0
  3 18  1  0  0  0  0
  3  4  1  0  0  0  0
  4  5  1  0  0  0  0
  5 21  1  0  0  0  0
  5  6  1  0  0  0  0
  5 16  1  0  0  0  0
  6 15  1  0  0  0  0
  6  7  1  0  0  0  0
  7  8  2  0  0  0  0
  7 27  1  0  0  0  0
  8  9  1  0  0  0  0
  9 15  2  0  0  0  0
  9 10  1  0  0  0  0
 10 11  1  0  0  0  0
 10 12  2  0  0  0  0
 12 13  1  0  0  0  0
 13 14  2  0  0  0  0
 13 28  1  0  0  0  0
 14 15  1  0  0  0  0
 16 22  1  0  0  0  0
 16 17  1  0  0  0  0
 16 18  1  0  0  0  0
 17 29  1  0  0  0  0
 18 23  1  0  0  0  0
 18 19  1  0  0  0  0
 19 30  1  0  0  0  0
M  END
> <s_m_source_file>
AV-unprocessed.smi

> <i_m_source_file_index>
48

> <i_lp_mmshare_version>
43012

> <i_f3d_flags>
0

> <s_epik_input>
W09IXVtDSDJdW0NASF0xT1tDQEhdKFtDQEhdKFtPSF0pW0NAQEhdMVtPSF0pbihbY0hdbjIpYyhjMjMpbltjSF1uYzNDbA==

> <s_epik_cmdline>
J2VwaWtfcHl0aG9uJywgJy1waCcsICc3LjAnLCAnLXRuJywgJzgnLCAnLW1hJywgJzIwMCcsICctbWV0YWxfYmluZGluZycsICctaW1hZScsICc8aW5maWxlLm1hZT4nLCAnLW9tYWUnLCAnPG91dGZpbGUubWFlPic=

> <r_lp_tautomer_probability>
1

> <r_epik_Ionization_Penalty>
3.45505e-06

> <r_epik_Ionization_Penalty_Charging>
0

> <r_epik_Ionization_Penalty_Neutral>
3.45505e-06

> <r_epik_State_Penalty>
-0

> <r_epik_Charging_Adjusted_Penalty>
0

> <i_epik_Tot_Q>
0

> <i_epik_Tot_abs_Q>
0

> <r_epik_Metal_State_Penalty>
-0

> <b_epik_Metal_Only>
0

> <s_epik_Chemistry_Notes>
This compound contains an acetal/aminal-like group ( X-CH(R)-Y where X, Y are N, S, or O) that may be acid/base labile, releasing an aldehyde.

> <s_lp_Force_Field>
OPLS_2005

> <r_lp_Energy>
36.8105

> <b_lp_Chiralities_Consistent>
1

> <s_lp_Variant>
AV-unprocessed.smi:48-11

> <Gold.Version>
5.8.1

> <Gold.Id.Protein>
6NUR|6NUR_protein|mol2

> <Gold.PLP.Fitness>
45.3570

> <Gold.PLP.PLP>
-38.5764

> <Gold.PLP.part.hbond>
-4.7537

> <Gold.PLP.part.metal>
0.0000

> <Gold.PLP.part.buried>
-8.4272

> <Gold.PLP.part.nonpolar>
-26.0930

> <Gold.PLP.part.repulsive>
0.2057

> <Gold.PLP.ligand.clash>
0.0000

> <Gold.PLP.ligand.torsion>
0.8481

> <Gold.PLP.Chemscore.Hbond>
2.8056

> <Gold.PLP.Chemscore.CHOScore>
0.0000

> <Gold.PLP.Chemscore.Metal>
0.0000

> <Gold.Chemscore.Hbonds>
donor molecule, donor type, donor heavy atom, donor atom, acceptor molecule, acceptor atom, score
      L1  H     1    24       P1  7949  1.00
      L1  H    19    30       P1  7957  0.09
      P1  H  7989  7998       L1     4  0.69
      P1  H 10752 10764       L1     1  1.00

> <Gold.PLP.Chemscore.Internal.Correction>
0.0599

> <Gold.Rescore>
     Score         DG    S(hbond)    S(metal)    S(lipo)     H(rot)  DE(clash)    DE(int)     intcor
      6.81      -8.07       1.62        0.00      59.20       3.80       0.62       0.64       ----

> <Gold.Chemscore.Fitness>
6.8087

> <Gold.Chemscore.DG>
-8.0719

> <Gold.Chemscore.ZeroCoef>
-5.4800

> <Gold.Chemscore.Hbond>
1.6163

> <Gold.Chemscore.Metal>
0.0000

> <Gold.Chemscore.Lipo>
59.1961

> <Gold.Chemscore.Internal_Hbond>
0.0000

> <Gold.Chemscore.DEClash>
0.6208

> <Gold.Chemscore.DEInternal>
0.6425

> <Gold.Chemscore.Rot>
3.8017

> <Gold.Chemscore.Internal.Correction>
   9.000000E+99

> <Gold.Chemscore.Hbonds>
donor molecule, donor type, donor heavy atom, donor atom, acceptor molecule, acceptor atom, score
      L1  H     1    24       P1  7949  0.65
      L1  H    19    30       P1  7957  0.10
      P1  H  7989  7998       L1     4  0.05
      P1  H 10752 10764       L1     1  0.39

> <Gold.Chemscore.Hbond.Weighted>
-5.3984

> <Gold.Chemscore.Metal.Weighted>
-0.0000

> <Gold.Chemscore.Lipo.Weighted>
-6.9259

> <Gold.Chemscore.Internal_Hbond.Weighted>
0.0000

> <Gold.Chemscore.DEClash.Weighted>
0.6208

> <Gold.Chemscore.DEInternal.Weighted>
0.6425

> <Gold.Chemscore.Rot.Weighted>
9.7324

> <Gold.Chemscore.Internal.Correction.Weighted>
   9.000000E+99

> <Gold.Protein.RotatedTorsions>
[ 6907 6896 6895 6894 ] final   61.47 input  -60.11 | X-H torsion
[ 7974 7965 7964 7962 ] final   18.93 input  175.53 | X-H torsion
[ 8008 7997 7996 7995 ] final   34.54 input   59.86 | X-H torsion
[ 10167 10162 10161 10158 ] final   48.47 input  -65.29 | X-H torsion
[ 10718 10713 10712 10709 ] final -156.74 input   66.30 | X-H torsion
[ 10763 10752 10751 10750 ] final  -64.55 input  -60.55 | X-H torsion
[ 11005 11000 10999 10996 ] final  146.68 input  -57.11 | X-H torsion

> <Gold.Protein.ActiveResidues>
 VAL166  LYS551  ARG553  GLY616  TRP617  ASP618  TYR619  PRO620  LYS621  CYS622 
 ASP623  PHE694  ASN695  SER759  ASP760  ASP761  ALA762  ILE779  LEU786  VAL792 
 PHE793  MET794  SER795  GLU796  ALA797  LYS798  CYS799  TRP800  GLU811  SER814 

> <Gold.Protein.RotatedAtoms>
  152.4092  134.6155  160.0036 H   0  0  0  0  0  0  0  0  0  0  0  0  # atno 6907 bound_to 6896
  151.6337  133.3325  159.3122 H   0  0  0  0  0  0  0  0  0  0  0  0  # atno 6908 bound_to 6896
  150.7984  134.7101  159.6643 H   0  0  0  0  0  0  0  0  0  0  0  0  # atno 6909 bound_to 6896
  146.2167  139.8386  142.8645 H   0  0  0  0  0  0  0  0  0  0  0  0  # atno 7974 bound_to 7965
  155.1566  140.3279  155.4420 H   0  0  0  0  0  0  0  0  0  0  0  0  # atno 8008 bound_to 7997
  156.2557  140.1967  156.6625 H   0  0  0  0  0  0  0  0  0  0  0  0  # atno 8009 bound_to 7997
  154.6435  140.0567  156.9860 H   0  0  0  0  0  0  0  0  0  0  0  0  # atno 8010 bound_to 7997
  140.2930  144.3024  150.6236 H   0  0  0  0  0  0  0  0  0  0  0  0  # atno 10167 bound_to 10162
  156.5307  130.8519  151.2715 H   0  0  0  0  0  0  0  0  0  0  0  0  # atno 10718 bound_to 10713
  154.3318  135.6175  153.5555 H   0  0  0  0  0  0  0  0  0  0  0  0  # atno 10763 bound_to 10752
  152.9811  135.5748  154.4952 H   0  0  0  0  0  0  0  0  0  0  0  0  # atno 10764 bound_to 10752
  154.4640  135.2857  155.1668 H   0  0  0  0  0  0  0  0  0  0  0  0  # atno 10765 bound_to 10752
  140.0813  134.9095  157.1504 H   0  0  0  0  0  0  0  0  0  0  0  0  # atno 11005 bound_to 11000
  145.2923  141.0170  143.3656 LP  0  0  0  0  0  0  0  0  0  0  0  0  # atno 17320 bound_to 7965
  144.9068  139.4579  143.6606 LP  0  0  0  0  0  0  0  0  0  0  0  0  # atno 17321 bound_to 7965
  140.5716  143.2180  151.7589 LP  0  0  0  0  0  0  0  0  0  0  0  0  # atno 17342 bound_to 10162
  139.4933  144.4208  151.9979 LP  0  0  0  0  0  0  0  0  0  0  0  0  # atno 17343 bound_to 10162
  157.7422  130.9886  150.2501 LP  0  0  0  0  0  0  0  0  0  0  0  0  # atno 17370 bound_to 10713
  156.3063  130.3765  149.7703 LP  0  0  0  0  0  0  0  0  0  0  0  0  # atno 17371 bound_to 10713
  140.3484  134.2626  155.7202 LP  0  0  0  0  0  0  0  0  0  0  0  0  # atno 17394 bound_to 11000
  141.2047  133.7878  157.0270 LP  0  0  0  0  0  0  0  0  0  0  0  0  # atno 17395 bound_to 11000

$$$$
