AV-unprocessed.smi:633|AV-procd|sdf|3132|dock3
  -GOLD-   22720 0 53D 1   1.00000     0.00000
 Structure written by MMmdl.
 53 56  0  0  0  0  0  0  0  0  1 V2000
  152.5246  144.6708  157.7128 C   0  0  0  0  0  0  0  0  0  0  0  0
  151.5774  143.8757  158.6292 C   0  0  1  0  0  0  0  0  0  0  0  0
  150.6434  142.9174  157.8638 C   0  0  0  0  0  0  0  0  0  0  0  0
  151.3677  141.7354  157.4012 N   0  0  0  0  0  0  0  0  0  0  0  0
  150.7321  140.8934  156.4636 C   0  0  0  0  0  0  0  0  0  0  0  0
  151.4791  139.9140  155.7681 C   0  0  0  0  0  0  0  0  0  0  0  0
  150.8284  139.0824  154.8367 C   0  0  0  0  0  0  0  0  0  0  0  0
  149.4424  139.2553  154.6154 C   0  0  0  0  0  0  0  0  0  0  0  0
  148.6683  138.4665  153.7220 N   0  0  0  0  0  0  0  0  0  0  0  0
  147.3364  138.4697  153.5416 C   0  0  0  0  0  0  0  0  0  0  0  0
  146.5360  139.1539  154.1786 O   0  0  0  0  0  0  0  0  0  0  0  0
  146.9790  137.6052  152.5793 N   0  0  0  0  0  0  0  0  0  0  0  0
  145.6215  137.3271  152.1123 C   0  0  0  0  0  0  0  0  0  0  0  0
  144.6716  136.8778  153.2132 C   0  0  0  0  0  0  0  0  0  0  0  0
  143.2009  137.2185  153.1664 C   0  0  0  0  0  0  0  0  0  0  0  0
  144.0962  137.8659  154.1991 C   0  0  0  0  0  0  0  0  0  0  0  0
  145.5630  136.3787  150.9239 C   0  0  0  0  0  0  0  0  0  0  0  0
  144.3880  135.4527  150.7211 C   0  0  0  0  0  0  0  0  0  0  0  0
  145.7390  134.8891  151.1014 C   0  0  0  0  0  0  0  0  0  0  0  0
  148.7819  140.2510  155.3615 C   0  0  0  0  0  0  0  0  0  0  0  0
  149.4024  141.0520  156.2527 N   0  0  0  0  0  0  0  0  0  0  0  0
  152.0983  141.0564  158.4663 C   0  0  0  0  0  0  0  0  0  0  0  0
  153.0328  142.0430  159.1893 C   0  0  2  0  0  0  0  0  0  0  0  0
  153.7143  141.3991  160.4014 C   0  0  0  0  0  0  0  0  0  0  0  0
  152.2823  143.1661  159.6505 O   0  0  0  0  0  0  0  0  0  0  0  0
  151.9583  145.3054  157.0305 H   0  0  0  0  0  0  0  0  0  0  0  0
  153.1522  144.0219  157.1022 H   0  0  0  0  0  0  0  0  0  0  0  0
  153.1790  145.3178  158.2973 H   0  0  0  0  0  0  0  0  0  0  0  0
  150.9519  144.6059  159.1435 H   0  0  0  0  0  0  0  0  0  0  0  0
  149.8320  142.5965  158.5186 H   0  0  0  0  0  0  0  0  0  0  0  0
  150.1894  143.4425  157.0222 H   0  0  0  0  0  0  0  0  0  0  0  0
  152.5404  139.7981  155.9300 H   0  0  0  0  0  0  0  0  0  0  0  0
  151.4022  138.3263  154.3240 H   0  0  0  0  0  0  0  0  0  0  0  0
  149.1873  137.7850  153.1877 H   0  0  0  0  0  0  0  0  0  0  0  0
  147.7169  137.0888  152.1236 H   0  0  0  0  0  0  0  0  0  0  0  0
  145.2554  138.2924  151.7595 H   0  0  0  0  0  0  0  0  0  0  0  0
  144.9034  135.8932  153.6156 H   0  0  0  0  0  0  0  0  0  0  0  0
  142.8470  137.8446  152.3499 H   0  0  0  0  0  0  0  0  0  0  0  0
  142.4998  136.4614  153.5109 H   0  0  0  0  0  0  0  0  0  0  0  0
  143.9917  137.5401  155.2320 H   0  0  0  0  0  0  0  0  0  0  0  0
  144.3382  138.9181  154.0637 H   0  0  0  0  0  0  0  0  0  0  0  0
  145.9990  136.7901  150.0153 H   0  0  0  0  0  0  0  0  0  0  0  0
  143.6095  135.4472  151.4815 H   0  0  0  0  0  0  0  0  0  0  0  0
  144.0448  135.2942  149.7008 H   0  0  0  0  0  0  0  0  0  0  0  0
  146.2959  134.3549  150.3342 H   0  0  0  0  0  0  0  0  0  0  0  0
  145.8523  134.5043  152.1130 H   0  0  0  0  0  0  0  0  0  0  0  0
  147.7215  140.4161  155.2377 H   0  0  0  0  0  0  0  0  0  0  0  0
  151.3777  140.6378  159.1700 H   0  0  0  0  0  0  0  0  0  0  0  0
  152.6862  140.2229  158.0845 H   0  0  0  0  0  0  0  0  0  0  0  0
  153.8119  142.3777  158.5039 H   0  0  0  0  0  0  0  0  0  0  0  0
  154.3133  140.5382  160.1036 H   0  0  0  0  0  0  0  0  0  0  0  0
  152.9798  141.0592  161.1324 H   0  0  0  0  0  0  0  0  0  0  0  0
  154.3759  142.1087  160.8988 H   0  0  0  0  0  0  0  0  0  0  0  0
  1  2  1  0  0  0  0
  1 26  1  0  0  0  0
  1 27  1  0  0  0  0
  1 28  1  0  0  0  0
  2 25  1  0  0  0  0
  2  3  1  0  0  0  0
  2 29  1  0  0  0  0
  3  4  1  0  0  0  0
  3 30  1  0  0  0  0
  3 31  1  0  0  0  0
  4  5  1  0  0  0  0
  4 22  1  0  0  0  0
  5 21  1  0  0  0  0
  5  6  2  0  0  0  0
  6  7  1  0  0  0  0
  6 32  1  0  0  0  0
  7  8  2  0  0  0  0
  7 33  1  0  0  0  0
  8  9  1  0  0  0  0
  8 20  1  0  0  0  0
  9 10  1  0  0  0  0
  9 34  1  0  0  0  0
 10 11  2  0  0  0  0
 10 12  1  0  0  0  0
 12 13  1  0  0  0  0
 12 35  1  0  0  0  0
 13 14  1  0  0  0  0
 13 17  1  0  0  0  0
 13 36  1  0  0  0  0
 14 16  1  0  0  0  0
 14 15  1  0  0  0  0
 14 37  1  0  0  0  0
 15 16  1  0  0  0  0
 15 38  1  0  0  0  0
 15 39  1  0  0  0  0
 16 40  1  0  0  0  0
 16 41  1  0  0  0  0
 17 19  1  0  0  0  0
 17 18  1  0  0  0  0
 17 42  1  0  0  0  0
 18 19  1  0  0  0  0
 18 43  1  0  0  0  0
 18 44  1  0  0  0  0
 19 45  1  0  0  0  0
 19 46  1  0  0  0  0
 20 21  2  0  0  0  0
 20 47  1  0  0  0  0
 22 23  1  0  0  0  0
 22 48  1  0  0  0  0
 22 49  1  0  0  0  0
 23 24  1  0  0  0  0
 23 25  1  0  0  0  0
 23 50  1  0  0  0  0
 24 51  1  0  0  0  0
 24 52  1  0  0  0  0
 24 53  1  0  0  0  0
M  END
> <s_m_source_file>
AV-unprocessed.smi

> <i_m_source_file_index>
633

> <i_lp_mmshare_version>
43012

> <i_f3d_flags>
0

> <s_epik_input>
W0NIM11bQ0BASF0xW0NIMl1OKFtDSDJdW0NASF0oTzEpW0NIM10pYzJbY0hdW2NIXWMoW2NIXW4yKVtOSF1DKD1PKVtOSF1bQ0hdKFtDSF0zW0NIMl1bQ0gyXTMpW0NIXTRbQ0gyXVtDSDJdNA==

> <s_epik_cmdline>
J2VwaWtfcHl0aG9uJywgJy1waCcsICc3LjAnLCAnLXRuJywgJzgnLCAnLW1hJywgJzIwMCcsICctbWV0YWxfYmluZGluZycsICctaW1hZScsICc8aW5maWxlLm1hZT4nLCAnLW9tYWUnLCAnPG91dGZpbGUubWFlPic=

> <r_lp_tautomer_probability>
1

> <r_epik_Ionization_Penalty>
0.00291159

> <r_epik_Ionization_Penalty_Charging>
0

> <r_epik_Ionization_Penalty_Neutral>
0.00291159

> <r_epik_State_Penalty>
0.00200877

> <r_epik_Charging_Adjusted_Penalty>
0.00200877

> <i_epik_Tot_Q>
0

> <i_epik_Tot_abs_Q>
0

> <r_epik_Metal_State_Penalty>
-0

> <b_epik_Metal_Only>
0

> <s_lp_Force_Field>
OPLS_2005

> <r_lp_Energy>
43.3159

> <b_lp_Chiralities_Consistent>
1

> <s_lp_Variant>
AV-unprocessed.smi:633-3

> <Gold.Version>
5.8.1

> <Gold.Id.Protein>
6NUR|6NUR_protein|mol2

> <Gold.PLP.Fitness>
50.9075

> <Gold.PLP.PLP>
-45.5028

> <Gold.PLP.part.hbond>
-2.5094

> <Gold.PLP.part.metal>
0.0000

> <Gold.PLP.part.buried>
-5.2004

> <Gold.PLP.part.nonpolar>
-40.0380

> <Gold.PLP.part.repulsive>
0.3184

> <Gold.PLP.ligand.clash>
0.0000

> <Gold.PLP.ligand.torsion>
1.3191

> <Gold.PLP.Chemscore.Hbond>
1.8473

> <Gold.PLP.Chemscore.CHOScore>
0.0000

> <Gold.PLP.Chemscore.Metal>
0.0000

> <Gold.Chemscore.Hbonds>
donor molecule, donor type, donor heavy atom, donor atom, acceptor molecule, acceptor atom, score
      L1  H     9    34       P1  7948  0.88
      L1  H    12    35       P1  7948  0.94

> <Gold.PLP.Chemscore.Internal.Correction>
2.5010

> <Gold.Rescore>
     Score         DG    S(hbond)    S(metal)    S(lipo)     H(rot)  DE(clash)    DE(int)     intcor
     17.69     -22.30       1.93        0.00     119.25       1.40       0.46       4.15       ----

> <Gold.Chemscore.Fitness>
17.6925

> <Gold.Chemscore.DG>
-22.2966

> <Gold.Chemscore.ZeroCoef>
-5.4800

> <Gold.Chemscore.Hbond>
1.9324

> <Gold.Chemscore.Metal>
0.0000

> <Gold.Chemscore.Lipo>
119.2493

> <Gold.Chemscore.Internal_Hbond>
0.0000

> <Gold.Chemscore.DEClash>
0.4577

> <Gold.Chemscore.DEInternal>
4.1464

> <Gold.Chemscore.Rot>
1.4022

> <Gold.Chemscore.Internal.Correction>
   9.000000E+99

> <Gold.Chemscore.Hbonds>
donor molecule, donor type, donor heavy atom, donor atom, acceptor molecule, acceptor atom, score
      L1  H     9    34       P1  7948  0.80
      L1  H    12    35       P1  7948  0.90

> <Gold.Chemscore.Hbond.Weighted>
-6.4541

> <Gold.Chemscore.Metal.Weighted>
-0.0000

> <Gold.Chemscore.Lipo.Weighted>
-13.9522

> <Gold.Chemscore.Internal_Hbond.Weighted>
0.0000

> <Gold.Chemscore.DEClash.Weighted>
0.4577

> <Gold.Chemscore.DEInternal.Weighted>
4.1464

> <Gold.Chemscore.Rot.Weighted>
3.5897

> <Gold.Chemscore.Internal.Correction.Weighted>
   9.000000E+99

> <Gold.Protein.RotatedTorsions>
[ 6907 6896 6895 6894 ] final   90.31 input  -60.11 | X-H torsion
[ 7974 7965 7964 7962 ] final  177.60 input  175.53 | X-H torsion
[ 8008 7997 7996 7995 ] final  -77.32 input   59.86 | X-H torsion
[ 10167 10162 10161 10158 ] final   46.97 input  -65.29 | X-H torsion
[ 10718 10713 10712 10709 ] final  102.83 input   66.30 | X-H torsion
[ 10763 10752 10751 10750 ] final   -6.46 input  -60.55 | X-H torsion
[ 11005 11000 10999 10996 ] final  163.53 input  -57.11 | X-H torsion

> <Gold.Protein.ActiveResidues>
 VAL166  LYS551  ARG553  GLY616  TRP617  ASP618  TYR619  PRO620  LYS621  CYS622 
 ASP623  PHE694  ASN695  SER759  ASP760  ASP761  ALA762  ILE779  LEU786  VAL792 
 PHE793  MET794  SER795  GLU796  ALA797  LYS798  CYS799  TRP800  GLU811  SER814 

> <Gold.Protein.RotatedAtoms>
  152.5443  134.1831  159.8643 H   0  0  0  0  0  0  0  0  0  0  0  0  # atno 6907 bound_to 6896
  151.1831  133.4705  159.2602 H   0  0  0  0  0  0  0  0  0  0  0  0  # atno 6908 bound_to 6896
  151.1158  135.0064  159.8570 H   0  0  0  0  0  0  0  0  0  0  0  0  # atno 6909 bound_to 6896
  144.7167  140.0272  143.6439 H   0  0  0  0  0  0  0  0  0  0  0  0  # atno 7974 bound_to 7965
  154.5585  140.0712  156.8781 H   0  0  0  0  0  0  0  0  0  0  0  0  # atno 8008 bound_to 7997
  155.2856  140.3374  155.4237 H   0  0  0  0  0  0  0  0  0  0  0  0  # atno 8009 bound_to 7997
  156.2022  140.1726  156.7861 H   0  0  0  0  0  0  0  0  0  0  0  0  # atno 8010 bound_to 7997
  140.3084  144.2850  150.6204 H   0  0  0  0  0  0  0  0  0  0  0  0  # atno 10167 bound_to 10162
  157.6790  131.0763  150.5464 H   0  0  0  0  0  0  0  0  0  0  0  0  # atno 10718 bound_to 10713
  153.4126  135.7008  153.6348 H   0  0  0  0  0  0  0  0  0  0  0  0  # atno 10763 bound_to 10752
  153.4836  135.3688  155.2455 H   0  0  0  0  0  0  0  0  0  0  0  0  # atno 10764 bound_to 10752
  154.8718  135.4072  154.3481 H   0  0  0  0  0  0  0  0  0  0  0  0  # atno 10765 bound_to 10752
  140.2367  134.8082  157.3370 H   0  0  0  0  0  0  0  0  0  0  0  0  # atno 11005 bound_to 11000
  146.0132  139.3188  143.0857 LP  0  0  0  0  0  0  0  0  0  0  0  0  # atno 17320 bound_to 7965
  145.8656  140.9450  143.0677 LP  0  0  0  0  0  0  0  0  0  0  0  0  # atno 17321 bound_to 7965
  140.5589  143.2195  151.7799 LP  0  0  0  0  0  0  0  0  0  0  0  0  # atno 17342 bound_to 10162
  139.4899  144.4375  151.9802 LP  0  0  0  0  0  0  0  0  0  0  0  0  # atno 17343 bound_to 10162
  156.5769  130.4294  149.5994 LP  0  0  0  0  0  0  0  0  0  0  0  0  # atno 17370 bound_to 10713
  156.2693  130.7008  151.1800 LP  0  0  0  0  0  0  0  0  0  0  0  0  # atno 17371 bound_to 10713
  140.1695  134.4626  155.7841 LP  0  0  0  0  0  0  0  0  0  0  0  0  # atno 17394 bound_to 11000
  141.2214  133.6935  156.7683 LP  0  0  0  0  0  0  0  0  0  0  0  0  # atno 17395 bound_to 11000

$$$$
