AV-unprocessed.smi:176|AV-procd|sdf|1433|dock3
  -GOLD-   2262019213D 1   1.00000     0.00000
 Structure written by MMmdl.
 57 61  0  0  0  0  0  0  0  0  1 V2000
  147.5101  135.2061  152.7612 O   0  0  0  0  0  0  0  0  0  0  0  0
  148.0227  133.8938  152.8663 C   0  0  0  0  0  0  0  0  0  0  0  0
  148.8901  133.7157  154.1248 C   0  0  0  0  0  0  0  0  0  0  0  0
  149.3013  132.2334  154.2540 C   0  0  0  0  0  0  0  0  0  0  0  0
  148.1841  131.3708  154.3168 O   0  0  0  0  0  0  0  0  0  0  0  0
  150.0739  134.7037  154.2324 C   0  0  0  0  0  0  0  0  0  0  0  0
  149.8073  134.8463  155.7327 C   0  0  0  0  0  0  0  0  0  0  0  0
  150.0799  136.0778  156.4132 N   0  0  0  0  0  0  0  0  0  0  0  0
  149.6336  136.4551  157.6602 C   0  0  0  0  0  0  0  0  0  0  0  0
  150.0588  137.6171  158.0750 N   0  0  0  0  0  0  0  0  0  0  0  0
  150.8849  138.0625  157.0497 C   0  0  0  0  0  0  0  0  0  0  0  0
  151.6783  139.2276  156.8516 C   0  0  0  0  0  0  0  0  0  0  0  0
  151.7303  140.2396  157.7543 N   0  0  0  0  0  0  0  0  0  0  0  0
  152.3368  139.9592  159.0569 C   0  0  0  0  0  0  0  0  0  0  0  0
  151.9984  141.0634  160.0770 C   0  0  0  0  0  0  0  0  0  0  0  0
  152.3534  142.4687  159.5462 C   0  0  2  0  0  0  0  0  0  0  0  0
  153.7656  142.5366  159.4301 O   0  0  0  0  0  0  0  0  0  0  0  0
  151.9123  143.5791  160.5257 C   0  0  0  0  0  0  0  0  0  0  0  0
  152.1644  144.9909  159.9617 C   0  0  0  0  0  0  0  0  0  0  0  0
  151.5190  145.1736  158.5785 C   0  0  0  0  0  0  0  0  0  0  0  0
  151.9694  144.0803  157.5953 C   0  0  0  0  0  0  0  0  0  0  0  0
  151.6839  142.6763  158.1622 C   0  0  1  0  0  0  0  0  0  0  0  0
  152.0534  141.5465  157.1823 C   0  0  0  0  0  0  0  0  0  0  0  0
  152.4034  139.3025  155.7032 N   0  0  0  0  0  0  0  0  0  0  0  0
  152.3502  138.3139  154.8057 C   0  0  0  0  0  0  0  0  0  0  0  0
  151.6490  137.1797  154.8536 N   0  0  0  0  0  0  0  0  0  0  0  0
  150.9234  137.0960  156.0053 C   0  0  0  0  0  0  0  0  0  0  0  0
  148.3779  134.4061  155.4101 C   0  0  0  0  0  0  0  0  0  0  0  0
  148.0082  135.6727  152.1078 H   0  0  0  0  0  0  0  0  0  0  0  0
  147.1928  133.1866  152.8514 H   0  0  0  0  0  0  0  0  0  0  0  0
  148.6045  133.7004  151.9647 H   0  0  0  0  0  0  0  0  0  0  0  0
  149.9317  131.9262  153.4192 H   0  0  0  0  0  0  0  0  0  0  0  0
  149.8933  132.0663  155.1540 H   0  0  0  0  0  0  0  0  0  0  0  0
  148.1788  130.8285  153.5430 H   0  0  0  0  0  0  0  0  0  0  0  0
  151.0497  134.2835  153.9860 H   0  0  0  0  0  0  0  0  0  0  0  0
  149.9077  135.6383  153.6932 H   0  0  0  0  0  0  0  0  0  0  0  0
  150.3307  134.0707  156.2945 H   0  0  0  0  0  0  0  0  0  0  0  0
  148.9745  135.8417  158.2573 H   0  0  0  0  0  0  0  0  0  0  0  0
  151.9810  138.9997  159.4345 H   0  0  0  0  0  0  0  0  0  0  0  0
  153.4183  139.8760  158.9401 H   0  0  0  0  0  0  0  0  0  0  0  0
  150.9311  141.0193  160.2990 H   0  0  0  0  0  0  0  0  0  0  0  0
  152.5130  140.8685  161.0187 H   0  0  0  0  0  0  0  0  0  0  0  0
  154.0212  142.0929  158.6360 H   0  0  0  0  0  0  0  0  0  0  0  0
  150.8476  143.4719  160.7380 H   0  0  0  0  0  0  0  0  0  0  0  0
  152.4237  143.4665  161.4828 H   0  0  0  0  0  0  0  0  0  0  0  0
  151.7740  145.7386  160.6525 H   0  0  0  0  0  0  0  0  0  0  0  0
  153.2370  145.1739  159.8903 H   0  0  0  0  0  0  0  0  0  0  0  0
  150.4332  145.1462  158.6784 H   0  0  0  0  0  0  0  0  0  0  0  0
  151.7667  146.1577  158.1799 H   0  0  0  0  0  0  0  0  0  0  0  0
  151.4500  144.2098  156.6452 H   0  0  0  0  0  0  0  0  0  0  0  0
  153.0329  144.1909  157.3797 H   0  0  0  0  0  0  0  0  0  0  0  0
  150.6040  142.6145  158.3103 H   0  0  0  0  0  0  0  0  0  0  0  0
  153.1191  141.5766  156.9516 H   0  0  0  0  0  0  0  0  0  0  0  0
  151.5292  141.7027  156.2402 H   0  0  0  0  0  0  0  0  0  0  0  0
  152.9561  138.4523  153.9226 H   0  0  0  0  0  0  0  0  0  0  0  0
  147.7157  135.2480  155.1985 H   0  0  0  0  0  0  0  0  0  0  0  0
  147.9344  133.7388  156.1497 H   0  0  0  0  0  0  0  0  0  0  0  0
  1  2  1  0  0  0  0
  1 29  1  0  0  0  0
  2  3  1  0  0  0  0
  2 30  1  0  0  0  0
  2 31  1  0  0  0  0
  3 28  1  0  0  0  0
  3  4  1  0  0  0  0
  3  6  1  0  0  0  0
  4  5  1  0  0  0  0
  4 32  1  0  0  0  0
  4 33  1  0  0  0  0
  5 34  1  0  0  0  0
  6  7  1  0  0  0  0
  6 35  1  0  0  0  0
  6 36  1  0  0  0  0
  7  8  1  0  0  0  0
  7 28  1  0  0  0  0
  7 37  1  0  0  0  0
  8 27  1  0  0  0  0
  8  9  1  0  0  0  0
  9 10  2  0  0  0  0
  9 38  1  0  0  0  0
 10 11  1  0  0  0  0
 11 27  2  0  0  0  0
 11 12  1  0  0  0  0
 12 13  1  0  0  0  0
 12 24  2  0  0  0  0
 13 23  1  0  0  0  0
 13 14  1  0  0  0  0
 14 15  1  0  0  0  0
 14 39  1  0  0  0  0
 14 40  1  0  0  0  0
 15 16  1  0  0  0  0
 15 41  1  0  0  0  0
 15 42  1  0  0  0  0
 16 22  1  0  0  0  0
 16 17  1  0  0  0  0
 16 18  1  0  0  0  0
 17 43  1  0  0  0  0
 18 19  1  0  0  0  0
 18 44  1  0  0  0  0
 18 45  1  0  0  0  0
 19 20  1  0  0  0  0
 19 46  1  0  0  0  0
 19 47  1  0  0  0  0
 20 21  1  0  0  0  0
 20 48  1  0  0  0  0
 20 49  1  0  0  0  0
 21 22  1  0  0  0  0
 21 50  1  0  0  0  0
 21 51  1  0  0  0  0
 22 23  1  0  0  0  0
 22 52  1  0  0  0  0
 23 53  1  0  0  0  0
 23 54  1  0  0  0  0
 24 25  1  0  0  0  0
 25 26  2  0  0  0  0
 25 55  1  0  0  0  0
 26 27  1  0  0  0  0
 28 56  1  0  0  0  0
 28 57  1  0  0  0  0
M  END
> <s_m_source_file>
AV-unprocessed.smi

> <i_m_source_file_index>
176

> <i_lp_mmshare_version>
43012

> <i_f3d_flags>
0

> <s_epik_input>
W09IXVtDSDJdQzEoW0NIMl1bT0hdKVtDSDJdW0NIXShbQ0gyXTEpbihbY0hdbjIpYyhjMjMpbltjSF1uYzNOKFtDSDJdW0NIMl00KVtDSDJdW0NAQEhdKFtDQF00NVtPSF0pW0NIMl1bQ0gyXVtDSDJdW0NIMl01

> <s_epik_cmdline>
J2VwaWtfcHl0aG9uJywgJy1waCcsICc3LjAnLCAnLXRuJywgJzgnLCAnLW1hJywgJzIwMCcsICctbWV0YWxfYmluZGluZycsICctaW1hZScsICc8aW5maWxlLm1hZT4nLCAnLW9tYWUnLCAnPG91dGZpbGUubWFlPic=

> <r_lp_tautomer_probability>
1

> <r_epik_Ionization_Penalty>
0.00642876

> <r_epik_Ionization_Penalty_Charging>
0

> <r_epik_Ionization_Penalty_Neutral>
0.00642876

> <r_epik_State_Penalty>
0.00467813

> <r_epik_Charging_Adjusted_Penalty>
0.00467813

> <i_epik_Tot_Q>
0

> <i_epik_Tot_abs_Q>
0

> <r_epik_Metal_State_Penalty>
-0

> <b_epik_Metal_Only>
0

> <s_lp_Force_Field>
OPLS_2005

> <r_lp_Energy>
51.6301

> <b_lp_Chiralities_Consistent>
1

> <s_lp_Variant>
AV-unprocessed.smi:176-1

> <Gold.Version>
5.8.1

> <Gold.Id.Protein>
6NUR|6NUR_protein|mol2

> <Gold.PLP.Fitness>
48.7451

> <Gold.PLP.PLP>
-43.5708

> <Gold.PLP.part.hbond>
-1.8695

> <Gold.PLP.part.metal>
0.0000

> <Gold.PLP.part.buried>
-5.5607

> <Gold.PLP.part.nonpolar>
-35.9628

> <Gold.PLP.part.repulsive>
0.1194

> <Gold.PLP.ligand.clash>
0.0000

> <Gold.PLP.ligand.torsion>
0.8463

> <Gold.PLP.Chemscore.Hbond>
1.9913

> <Gold.PLP.Chemscore.CHOScore>
0.0000

> <Gold.PLP.Chemscore.Metal>
0.0000

> <Gold.Chemscore.Hbonds>
donor molecule, donor type, donor heavy atom, donor atom, acceptor molecule, acceptor atom, score
      P1  H 10752 10765       L1    26  0.96

> <Gold.PLP.Chemscore.Internal.Correction>
0.8932

> <Gold.Rescore>
     Score         DG    S(hbond)    S(metal)    S(lipo)     H(rot)  DE(clash)    DE(int)     intcor
     12.57     -14.35       1.27        0.00     120.78       3.71       0.03       1.76       ----

> <Gold.Chemscore.Fitness>
12.5686

> <Gold.Chemscore.DG>
-14.3545

> <Gold.Chemscore.ZeroCoef>
-5.4800

> <Gold.Chemscore.Hbond>
1.2704

> <Gold.Chemscore.Metal>
0.0000

> <Gold.Chemscore.Lipo>
120.7820

> <Gold.Chemscore.Internal_Hbond>
0.0000

> <Gold.Chemscore.DEClash>
0.0301

> <Gold.Chemscore.DEInternal>
1.7558

> <Gold.Chemscore.Rot>
3.7109

> <Gold.Chemscore.Internal.Correction>
   9.000000E+99

> <Gold.Chemscore.Hbonds>
donor molecule, donor type, donor heavy atom, donor atom, acceptor molecule, acceptor atom, score
      L1  H     1    29       P1  7948  0.04
      P1  H 10752 10765       L1    26  0.51

> <Gold.Chemscore.Hbond.Weighted>
-4.2430

> <Gold.Chemscore.Metal.Weighted>
-0.0000

> <Gold.Chemscore.Lipo.Weighted>
-14.1315

> <Gold.Chemscore.Internal_Hbond.Weighted>
0.0000

> <Gold.Chemscore.DEClash.Weighted>
0.0301

> <Gold.Chemscore.DEInternal.Weighted>
1.7558

> <Gold.Chemscore.Rot.Weighted>
9.5000

> <Gold.Chemscore.Internal.Correction.Weighted>
   9.000000E+99

> <Gold.Protein.RotatedTorsions>
[ 6907 6896 6895 6894 ] final  -76.42 input  -60.11 | X-H torsion
[ 7974 7965 7964 7962 ] final  124.43 input  175.53 | X-H torsion
[ 8008 7997 7996 7995 ] final  -72.61 input   59.86 | X-H torsion
[ 10167 10162 10161 10158 ] final -168.34 input  -65.29 | X-H torsion
[ 10718 10713 10712 10709 ] final -138.52 input   66.30 | X-H torsion
[ 10763 10752 10751 10750 ] final  169.00 input  -60.55 | X-H torsion
[ 11005 11000 10999 10996 ] final -163.39 input  -57.11 | X-H torsion

> <Gold.Protein.ActiveResidues>
 VAL166  LYS551  ARG553  GLY616  TRP617  ASP618  TYR619  PRO620  LYS621  CYS622 
 ASP623  PHE694  ASN695  SER759  ASP760  ASP761  ALA762  ILE779  LEU786  VAL792 
 PHE793  MET794  SER795  GLU796  ALA797  LYS798  CYS799  TRP800  GLU811  SER814 

> <Gold.Protein.RotatedAtoms>
  150.7028  134.4574  159.5364 H   0  0  0  0  0  0  0  0  0  0  0  0  # atno 6907 bound_to 6896
  152.2255  134.8369  160.0489 H   0  0  0  0  0  0  0  0  0  0  0  0  # atno 6908 bound_to 6896
  151.9204  133.3549  159.3932 H   0  0  0  0  0  0  0  0  0  0  0  0  # atno 6909 bound_to 6896
  145.0845  139.3632  143.4892 H   0  0  0  0  0  0  0  0  0  0  0  0  # atno 7974 bound_to 7965
  154.5180  140.0794  156.8119 H   0  0  0  0  0  0  0  0  0  0  0  0  # atno 8008 bound_to 7997
  155.3637  140.3419  155.4223 H   0  0  0  0  0  0  0  0  0  0  0  0  # atno 8009 bound_to 7997
  156.1650  140.1601  156.8534 H   0  0  0  0  0  0  0  0  0  0  0  0  # atno 8010 bound_to 7997
  139.5992  144.1048  152.1723 H   0  0  0  0  0  0  0  0  0  0  0  0  # atno 10167 bound_to 10162
  156.3002  130.7424  151.1474 H   0  0  0  0  0  0  0  0  0  0  0  0  # atno 10718 bound_to 10713
  154.3767  135.2753  155.2235 H   0  0  0  0  0  0  0  0  0  0  0  0  # atno 10763 bound_to 10752
  154.4359  135.5966  153.6102 H   0  0  0  0  0  0  0  0  0  0  0  0  # atno 10764 bound_to 10752
  152.9836  135.6007  154.4005 H   0  0  0  0  0  0  0  0  0  0  0  0  # atno 10765 bound_to 10752
  140.5986  134.4970  157.5202 H   0  0  0  0  0  0  0  0  0  0  0  0  # atno 11005 bound_to 11000
  146.3531  140.0651  142.8627 LP  0  0  0  0  0  0  0  0  0  0  0  0  # atno 17320 bound_to 7965
  145.1138  140.9421  143.4640 LP  0  0  0  0  0  0  0  0  0  0  0  0  # atno 17321 bound_to 7965
  140.0640  144.5834  150.7242 LP  0  0  0  0  0  0  0  0  0  0  0  0  # atno 17342 bound_to 10162
  140.7236  143.2613  151.4196 LP  0  0  0  0  0  0  0  0  0  0  0  0  # atno 17343 bound_to 10162
  157.7366  131.0561  150.5404 LP  0  0  0  0  0  0  0  0  0  0  0  0  # atno 17370 bound_to 10713
  156.5531  130.4236  149.6098 LP  0  0  0  0  0  0  0  0  0  0  0  0  # atno 17371 bound_to 10713
  139.9242  134.8088  156.1118 LP  0  0  0  0  0  0  0  0  0  0  0  0  # atno 17394 bound_to 11000
  141.0887  133.6723  156.2493 LP  0  0  0  0  0  0  0  0  0  0  0  0  # atno 17395 bound_to 11000

$$$$
