AV-unprocessed.smi:64|AV-procd|sdf|609|dock2
  -GOLD-   2262016503D 1   1.00000     0.00000
 Structure written by MMmdl.
 32 33  0  0  0  0  0  0  0  0  1 V2000
  152.5671  142.9376  161.8811 C   0  0  0  0  0  0  0  0  0  0  0  0
  152.7394  143.2038  160.3909 C   0  0  0  0  0  0  0  0  0  0  0  0
  153.3930  142.4444  159.6756 O   0  0  0  0  0  0  0  0  0  0  0  0
  152.1138  144.3207  159.9905 O   0  0  0  0  0  0  0  0  0  0  0  0
  152.3662  144.8412  158.6955 C   0  0  0  0  0  0  0  0  0  0  0  0
  151.2909  144.3344  157.7310 C   0  0  0  0  0  0  0  0  0  0  0  0
  151.0919  142.9492  157.9612 O   0  0  0  0  0  0  0  0  0  0  0  0
  150.8435  142.2302  156.8001 C   0  0  0  0  0  0  0  0  0  0  0  0
  151.3251  140.8799  157.0137 N   0  0  0  0  0  0  0  0  0  0  0  0
  152.0865  140.3915  158.0460 C   0  0  0  0  0  0  0  0  0  0  0  0
  152.3525  139.1182  157.9509 N   0  0  0  0  0  0  0  0  0  0  0  0
  151.7202  138.7244  156.7746 C   0  0  0  0  0  0  0  0  0  0  0  0
  151.6534  137.4358  156.1450 C   0  0  0  0  0  0  0  0  0  0  0  0
  152.1569  136.3784  156.5182 O   0  0  0  0  0  0  0  0  0  0  0  0
  150.9038  137.4650  154.9617 N   0  0  0  0  0  0  0  0  0  0  0  0
  150.2942  138.6083  154.4498 C   0  0  0  0  0  0  0  0  0  0  0  0
  149.6125  138.4676  153.3053 N   0  0  0  0  0  0  0  0  0  0  0  0
  150.3583  139.7943  155.0287 N   0  0  0  0  0  0  0  0  0  0  0  0
  151.0833  139.8020  156.1902 C   0  0  0  0  0  0  0  0  0  0  0  0
  150.8092  136.5941  154.4605 H   0  0  0  0  0  0  0  0  0  0  0  0
  152.0369  143.7577  162.3662 H   0  0  0  0  0  0  0  0  0  0  0  0
  153.5412  142.8287  162.3580 H   0  0  0  0  0  0  0  0  0  0  0  0
  152.0010  142.0193  162.0371 H   0  0  0  0  0  0  0  0  0  0  0  0
  152.3804  145.9320  158.7126 H   0  0  0  0  0  0  0  0  0  0  0  0
  153.3491  144.5043  158.3633 H   0  0  0  0  0  0  0  0  0  0  0  0
  150.3572  144.8679  157.9144 H   0  0  0  0  0  0  0  0  0  0  0  0
  151.5823  144.5264  156.6971 H   0  0  0  0  0  0  0  0  0  0  0  0
  149.7759  142.1982  156.5747 H   0  0  0  0  0  0  0  0  0  0  0  0
  151.3789  142.6652  155.9544 H   0  0  0  0  0  0  0  0  0  0  0  0
  152.4343  141.0028  158.8661 H   0  0  0  0  0  0  0  0  0  0  0  0
  149.5622  137.5624  152.8602 H   0  0  0  0  0  0  0  0  0  0  0  0
  149.1485  139.2614  152.8879 H   0  0  0  0  0  0  0  0  0  0  0  0
  1  2  1  0  0  0  0
  1 21  1  0  0  0  0
  1 22  1  0  0  0  0
  1 23  1  0  0  0  0
  2  3  2  0  0  0  0
  2  4  1  0  0  0  0
  4  5  1  0  0  0  0
  5  6  1  0  0  0  0
  5 24  1  0  0  0  0
  5 25  1  0  0  0  0
  6  7  1  0  0  0  0
  6 26  1  0  0  0  0
  6 27  1  0  0  0  0
  7  8  1  0  0  0  0
  8  9  1  0  0  0  0
  8 28  1  0  0  0  0
  8 29  1  0  0  0  0
  9 19  1  0  0  0  0
  9 10  1  0  0  0  0
 10 11  2  0  0  0  0
 10 30  1  0  0  0  0
 11 12  1  0  0  0  0
 12 19  2  0  0  0  0
 12 13  1  0  0  0  0
 13 14  2  0  0  0  0
 13 15  1  0  0  0  0
 15 20  1  0  0  0  0
 15 16  1  0  0  0  0
 16 17  1  0  0  0  0
 16 18  2  0  0  0  0
 17 31  1  0  0  0  0
 17 32  1  0  0  0  0
 18 19  1  0  0  0  0
M  END
> <s_m_source_file>
AV-unprocessed.smi

> <i_m_source_file_index>
64

> <i_lp_mmshare_version>
43012

> <i_f3d_flags>
0

> <s_epik_input>
W0NIM11DKD1PKU9bQ0gyXVtDSDJdT1tDSDJdbihbY0hdbjEpYyhjMTIpbmMoW05IMl0pW25IXWMyPU8=

> <s_epik_cmdline>
J2VwaWtfcHl0aG9uJywgJy1waCcsICc3LjAnLCAnLXRuJywgJzgnLCAnLW1hJywgJzIwMCcsICctbWV0YWxfYmluZGluZycsICctaW1hZScsICc8aW5maWxlLm1hZT4nLCAnLW9tYWUnLCAnPG91dGZpbGUubWFlPic=

> <r_lp_tautomer_probability>
1

> <r_epik_Ionization_Penalty>
0.00155449

> <r_epik_Ionization_Penalty_Charging>
0.00148332

> <r_epik_Ionization_Penalty_Neutral>
7.1171e-05

> <r_epik_State_Penalty>
-0

> <r_epik_Charging_Adjusted_Penalty>
0.00148332

> <i_epik_Tot_Q>
0

> <i_epik_Tot_abs_Q>
0

> <r_epik_Metal_State_Penalty>
0.320128

> <b_epik_Metal_Only>
0

> <s_epik_Chemistry_Notes>
This compound has an ester and may undergo hydrolysis at high or low pH. This compound contains an acetal/aminal-like group ( X-CH(R)-Y where X, Y are N, S, or O) that may be acid/base labile, releasing an aldehyde.

> <s_lp_Force_Field>
OPLS_2005

> <r_lp_Energy>
2.66723

> <b_lp_Chiralities_Consistent>
1

> <s_lp_Variant>
AV-unprocessed.smi:64-1

> <Gold.Version>
5.8.1

> <Gold.Id.Protein>
6NUR|6NUR_protein|mol2

> <Gold.PLP.Fitness>
46.2385

> <Gold.PLP.PLP>
-37.3227

> <Gold.PLP.part.hbond>
-4.0180

> <Gold.PLP.part.metal>
0.0000

> <Gold.PLP.part.buried>
-5.9733

> <Gold.PLP.part.nonpolar>
-27.7996

> <Gold.PLP.part.repulsive>
0.3841

> <Gold.PLP.ligand.clash>
0.0000

> <Gold.PLP.ligand.torsion>
0.9374

> <Gold.PLP.Chemscore.Hbond>
3.5663

> <Gold.PLP.Chemscore.CHOScore>
0.0000

> <Gold.PLP.Chemscore.Metal>
0.0000

> <Gold.Chemscore.Hbonds>
donor molecule, donor type, donor heavy atom, donor atom, acceptor molecule, acceptor atom, score
      L1  H    17    31       P1  7948  1.00
      L1  H    17    32       P1  7957  0.48
      P1  H  7989  7998       L1    18  0.40
      P1  H 10752 10764       L1    14  1.00

> <Gold.PLP.Chemscore.Internal.Correction>
0.0917

> <Gold.Rescore>
     Score         DG    S(hbond)    S(metal)    S(lipo)     H(rot)  DE(clash)    DE(int)     intcor
      7.84      -8.83       2.43        0.00      45.80       3.95       0.02       0.97       ----

> <Gold.Chemscore.Fitness>
7.8382

> <Gold.Chemscore.DG>
-8.8270

> <Gold.Chemscore.ZeroCoef>
-5.4800

> <Gold.Chemscore.Hbond>
2.4268

> <Gold.Chemscore.Metal>
0.0000

> <Gold.Chemscore.Lipo>
45.7963

> <Gold.Chemscore.Internal_Hbond>
0.0000

> <Gold.Chemscore.DEClash>
0.0233

> <Gold.Chemscore.DEInternal>
0.9655

> <Gold.Chemscore.Rot>
3.9518

> <Gold.Chemscore.Internal.Correction>
   9.000000E+99

> <Gold.Chemscore.Hbonds>
donor molecule, donor type, donor heavy atom, donor atom, acceptor molecule, acceptor atom, score
      L1  H    17    31       P1  7948  0.70
      L1  H    17    32       P1  7957  0.48
      P1  H  7989  7998       L1    18  0.05
      P1  H 10752 10764       L1    14  0.91

> <Gold.Chemscore.Hbond.Weighted>
-8.1054

> <Gold.Chemscore.Metal.Weighted>
-0.0000

> <Gold.Chemscore.Lipo.Weighted>
-5.3582

> <Gold.Chemscore.Internal_Hbond.Weighted>
0.0000

> <Gold.Chemscore.DEClash.Weighted>
0.0233

> <Gold.Chemscore.DEInternal.Weighted>
0.9655

> <Gold.Chemscore.Rot.Weighted>
10.1165

> <Gold.Chemscore.Internal.Correction.Weighted>
   9.000000E+99

> <Gold.Protein.RotatedTorsions>
[ 6907 6896 6895 6894 ] final  -51.56 input  -60.11 | X-H torsion
[ 7974 7965 7964 7962 ] final  -57.68 input  175.53 | X-H torsion
[ 8008 7997 7996 7995 ] final  107.38 input   59.86 | X-H torsion
[ 10167 10162 10161 10158 ] final  141.37 input  -65.29 | X-H torsion
[ 10718 10713 10712 10709 ] final   -0.77 input   66.30 | X-H torsion
[ 10763 10752 10751 10750 ] final  -11.43 input  -60.55 | X-H torsion
[ 11005 11000 10999 10996 ] final  136.09 input  -57.11 | X-H torsion

> <Gold.Protein.ActiveResidues>
 VAL166  LYS551  ARG553  GLY616  TRP617  ASP618  TYR619  PRO620  LYS621  CYS622 
 ASP623  PHE694  ASN695  SER759  ASP760  ASP761  ALA762  ILE779  LEU786  VAL792 
 PHE793  MET794  SER795  GLU796  ALA797  LYS798  CYS799  TRP800  GLU811  SER814 

> <Gold.Protein.RotatedAtoms>
  150.8600  134.7949  159.7074 H   0  0  0  0  0  0  0  0  0  0  0  0  # atno 6907 bound_to 6896
  152.4640  134.5116  159.9765 H   0  0  0  0  0  0  0  0  0  0  0  0  # atno 6908 bound_to 6896
  151.5221  133.3426  159.2939 H   0  0  0  0  0  0  0  0  0  0  0  0  # atno 6909 bound_to 6896
  145.8482  140.8370  142.9999 H   0  0  0  0  0  0  0  0  0  0  0  0  # atno 7974 bound_to 7965
  156.1819  140.3096  155.9165 H   0  0  0  0  0  0  0  0  0  0  0  0  # atno 8008 bound_to 7997
  155.3365  140.0463  157.3061 H   0  0  0  0  0  0  0  0  0  0  0  0  # atno 8009 bound_to 7997
  154.5352  140.2244  155.8744 H   0  0  0  0  0  0  0  0  0  0  0  0  # atno 8010 bound_to 7997
  139.5022  144.6176  151.6128 H   0  0  0  0  0  0  0  0  0  0  0  0  # atno 10167 bound_to 10162
  156.8154  130.5438  149.5703 H   0  0  0  0  0  0  0  0  0  0  0  0  # atno 10718 bound_to 10713
  153.4837  135.7017  153.5924 H   0  0  0  0  0  0  0  0  0  0  0  0  # atno 10763 bound_to 10752
  153.4126  135.3845  155.2060 H   0  0  0  0  0  0  0  0  0  0  0  0  # atno 10764 bound_to 10752
  154.8720  135.3908  154.4289 H   0  0  0  0  0  0  0  0  0  0  0  0  # atno 10765 bound_to 10752
  140.0023  134.9473  157.0098 H   0  0  0  0  0  0  0  0  0  0  0  0  # atno 11005 bound_to 11000
  144.6730  140.0914  143.7465 LP  0  0  0  0  0  0  0  0  0  0  0  0  # atno 17320 bound_to 7965
  145.9388  139.2655  143.1281 LP  0  0  0  0  0  0  0  0  0  0  0  0  # atno 17321 bound_to 7965
  140.5868  143.9850  150.6300 LP  0  0  0  0  0  0  0  0  0  0  0  0  # atno 17342 bound_to 10162
  140.3017  143.3256  152.0965 LP  0  0  0  0  0  0  0  0  0  0  0  0  # atno 17343 bound_to 10162
  156.1019  130.5976  150.9909 LP  0  0  0  0  0  0  0  0  0  0  0  0  # atno 17370 bound_to 10713
  157.6484  131.0900  150.8104 LP  0  0  0  0  0  0  0  0  0  0  0  0  # atno 17371 bound_to 10713
  140.4706  134.1391  155.7202 LP  0  0  0  0  0  0  0  0  0  0  0  0  # atno 17394 bound_to 11000
  141.1651  133.8719  157.1738 LP  0  0  0  0  0  0  0  0  0  0  0  0  # atno 17395 bound_to 11000

$$$$
