AV-unprocessed.smi:2973|AV-procd|sdf|11348|dock3
  -GOLD-   2272016263D 1   1.00000     0.00000
 Structure written by MMmdl.
 48 50  0  0  0  0  0  0  0  0  2 V2000
  149.0256  140.3609  154.2605 C   0  0  0  0  0  0  0  0  0  0  0  0
  149.9618  140.8803  155.3741 C   0  0  1  0  0  0  0  0  0  0  0  0
  149.1253  141.4664  156.5333 C   0  0  0  0  0  0  0  0  0  0  0  0
  150.0110  142.0684  157.6337 C   0  0  0  0  0  0  0  0  0  0  0  0
  151.0059  141.0336  158.1734 C   0  0  0  0  0  0  0  0  0  0  0  0
  151.8598  140.4451  157.0368 C   0  0  0  0  0  0  0  0  0  0  0  0
  151.0189  139.8413  155.8794 C   0  0  2  0  0  0  0  0  0  0  0  0
  151.9201  139.4729  154.8012 N   0  5  0  0  0  0  0  0  0  0  0  0
  151.8601  138.1352  154.6090 C   0  0  0  0  0  0  0  0  0  0  0  0
  152.4978  137.4816  153.7839 O   0  0  0  0  0  0  0  0  0  0  0  0
  150.9834  137.5644  155.4559 N   0  0  0  0  0  0  0  0  0  0  0  0
  150.6944  136.1259  155.5195 C   0  0  0  0  0  0  0  0  0  0  0  0
  149.1991  135.8176  155.6771 C   0  0  0  0  0  0  0  0  0  0  0  0
  148.7019  135.6376  156.7896 O   0  0  0  0  0  0  0  0  0  0  0  0
  148.4867  135.7811  154.5412 N   0  0  0  0  0  0  0  0  0  0  0  0
  147.0573  135.5077  154.4577 C   0  0  0  0  0  0  0  0  0  0  0  0
  146.7773  134.1407  153.8112 C   0  0  0  0  0  0  0  0  0  0  0  0
  145.9090  134.2608  152.5736 C   0  0  0  0  0  0  0  0  0  0  0  0
  145.4587  133.1079  151.8952 C   0  0  0  0  0  0  0  0  0  0  0  0
  144.6471  133.2737  150.7562 C   0  0  0  0  0  0  0  0  0  0  0  0
  144.3171  134.5790  150.3427 C   0  0  0  0  0  0  0  0  0  0  0  0
  144.8159  135.6649  151.0897 C   0  0  0  0  0  0  0  0  0  0  0  0
  145.5946  135.5168  152.1833 N   0  0  0  0  0  0  0  0  0  0  0  0
  150.4320  138.4824  156.2574 C   0  0  0  0  0  0  0  0  0  0  0  0
  149.5981  138.2909  157.1437 O   0  0  0  0  0  0  0  0  0  0  0  0
  148.3872  139.5500  154.6116 H   0  0  0  0  0  0  0  0  0  0  0  0
  149.5866  139.9956  153.4003 H   0  0  0  0  0  0  0  0  0  0  0  0
  148.3723  141.1563  153.9016 H   0  0  0  0  0  0  0  0  0  0  0  0
  150.5179  141.7135  154.9405 H   0  0  0  0  0  0  0  0  0  0  0  0
  148.4583  142.2399  156.1513 H   0  0  0  0  0  0  0  0  0  0  0  0
  148.4806  140.6986  156.9614 H   0  0  0  0  0  0  0  0  0  0  0  0
  150.5555  142.9256  157.2359 H   0  0  0  0  0  0  0  0  0  0  0  0
  149.3899  142.4461  158.4463 H   0  0  0  0  0  0  0  0  0  0  0  0
  151.6544  141.4990  158.9160 H   0  0  0  0  0  0  0  0  0  0  0  0
  150.4693  140.2412  158.6950 H   0  0  0  0  0  0  0  0  0  0  0  0
  152.5026  141.2347  156.6440 H   0  0  0  0  0  0  0  0  0  0  0  0
  152.5351  139.6935  157.4500 H   0  0  0  0  0  0  0  0  0  0  0  0
  151.0547  135.6259  154.6192 H   0  0  0  0  0  0  0  0  0  0  0  0
  151.2483  135.6784  156.3468 H   0  0  0  0  0  0  0  0  0  0  0  0
  148.9740  135.9428  153.6719 H   0  0  0  0  0  0  0  0  0  0  0  0
  146.6519  135.5281  155.4697 H   0  0  0  0  0  0  0  0  0  0  0  0
  146.5560  136.3047  153.9057 H   0  0  0  0  0  0  0  0  0  0  0  0
  147.7136  133.6525  153.5365 H   0  0  0  0  0  0  0  0  0  0  0  0
  146.2887  133.4812  154.5296 H   0  0  0  0  0  0  0  0  0  0  0  0
  145.7264  132.1193  152.2393 H   0  0  0  0  0  0  0  0  0  0  0  0
  144.2836  132.4155  150.2105 H   0  0  0  0  0  0  0  0  0  0  0  0
  143.6966  134.7446  149.4744 H   0  0  0  0  0  0  0  0  0  0  0  0
  144.5828  136.6794  150.8013 H   0  0  0  0  0  0  0  0  0  0  0  0
  1  2  1  0  0  0  0
  1 26  1  0  0  0  0
  1 27  1  0  0  0  0
  1 28  1  0  0  0  0
  2  7  1  0  0  0  0
  2  3  1  0  0  0  0
  2 29  1  0  0  0  0
  3  4  1  0  0  0  0
  3 30  1  0  0  0  0
  3 31  1  0  0  0  0
  4  5  1  0  0  0  0
  4 32  1  0  0  0  0
  4 33  1  0  0  0  0
  5  6  1  0  0  0  0
  5 34  1  0  0  0  0
  5 35  1  0  0  0  0
  6  7  1  0  0  0  0
  6 36  1  0  0  0  0
  6 37  1  0  0  0  0
  7 24  1  0  0  0  0
  7  8  1  0  0  0  0
  8  9  1  0  0  0  0
  9 10  2  0  0  0  0
  9 11  1  0  0  0  0
 11 12  1  0  0  0  0
 11 24  1  0  0  0  0
 12 13  1  0  0  0  0
 12 38  1  0  0  0  0
 12 39  1  0  0  0  0
 13 14  2  0  0  0  0
 13 15  1  0  0  0  0
 15 16  1  0  0  0  0
 15 40  1  0  0  0  0
 16 17  1  0  0  0  0
 16 41  1  0  0  0  0
 16 42  1  0  0  0  0
 17 18  1  0  0  0  0
 17 43  1  0  0  0  0
 17 44  1  0  0  0  0
 18 23  1  0  0  0  0
 18 19  2  0  0  0  0
 19 20  1  0  0  0  0
 19 45  1  0  0  0  0
 20 21  2  0  0  0  0
 20 46  1  0  0  0  0
 21 22  1  0  0  0  0
 21 47  1  0  0  0  0
 22 23  2  0  0  0  0
 22 48  1  0  0  0  0
 24 25  2  0  0  0  0
M  CHG  1   8  -1
M  END
> <s_m_source_file>
AV-unprocessed.smi

> <i_m_source_file_index>
2973

> <i_lp_mmshare_version>
43012

> <i_f3d_flags>
0

> <s_epik_input>
W0NIMl0xW0NIMl1bQ0gyXVtDSDJdW0NAQEhdKFtDSDNdKVtDQF0xMltOSF1DKD1PKU4oQzI9TylbQ0gyXUMoPU8pW05IXVtDSDJdW0NIMl1jM1tjSF1bY0hdW2NIXVtjSF1uMw==

> <s_epik_cmdline>
J2VwaWtfcHl0aG9uJywgJy1waCcsICc3LjAnLCAnLXRuJywgJzgnLCAnLW1hJywgJzIwMCcsICctbWV0YWxfYmluZGluZycsICctaW1hZScsICc8aW5maWxlLm1hZT4nLCAnLW9tYWUnLCAnPG91dGZpbGUubWFlPic=

> <r_lp_tautomer_probability>
1

> <r_epik_Ionization_Penalty>
6.04175

> <r_epik_Ionization_Penalty_Charging>
6.01728

> <r_epik_Ionization_Penalty_Neutral>
0.0244696

> <r_epik_State_Penalty>
6.03712

> <r_epik_Charging_Adjusted_Penalty>
12.0544

> <i_epik_Tot_Q>
-1

> <i_epik_Tot_abs_Q>
1

> <r_epik_Metal_State_Penalty>
2.01153

> <b_epik_Metal_Only>
1

> <s_lp_Force_Field>
OPLS_2005

> <r_lp_Energy>
9.40787

> <b_lp_Chiralities_Consistent>
1

> <s_lp_Variant>
AV-unprocessed.smi:2973-12

> <Gold.Version>
5.8.1

> <Gold.Id.Protein>
6NUR|6NUR_protein|mol2

> <Gold.PLP.Fitness>
45.4332

> <Gold.PLP.PLP>
-36.2402

> <Gold.PLP.part.hbond>
-3.0000

> <Gold.PLP.part.metal>
0.0000

> <Gold.PLP.part.buried>
-2.5426

> <Gold.PLP.part.nonpolar>
-30.5088

> <Gold.PLP.part.repulsive>
0.6888

> <Gold.PLP.ligand.clash>
0.0000

> <Gold.PLP.ligand.torsion>
1.0152

> <Gold.PLP.Chemscore.Hbond>
2.7200

> <Gold.PLP.Chemscore.CHOScore>
1.0000

> <Gold.PLP.Chemscore.Metal>
0.0000

> <Gold.Chemscore.Hbonds>
donor molecule, donor type, donor heavy atom, donor atom, acceptor molecule, acceptor atom, score
      L1  H    15    40       P1  7948  1.00
      P1  H  7989  7998       L1     8  0.98
      P1  H 10752 10765       L1    10  0.78
      L1  C    22    48       P1 10171  1.00

> <Gold.PLP.Chemscore.Internal.Correction>
0.0634

> <Gold.Rescore>
     Score         DG    S(hbond)    S(metal)    S(lipo)     H(rot)  DE(clash)    DE(int)     intcor
     13.72     -17.49       2.31        0.00      76.25       1.81       0.05       3.71       ----

> <Gold.Chemscore.Fitness>
13.7236

> <Gold.Chemscore.DG>
-17.4871

> <Gold.Chemscore.ZeroCoef>
-5.4800

> <Gold.Chemscore.Hbond>
2.3103

> <Gold.Chemscore.Metal>
0.0000

> <Gold.Chemscore.Lipo>
76.2542

> <Gold.Chemscore.Internal_Hbond>
0.0000

> <Gold.Chemscore.DEClash>
0.0498

> <Gold.Chemscore.DEInternal>
3.7137

> <Gold.Chemscore.Rot>
1.8090

> <Gold.Chemscore.Internal.Correction>
   9.000000E+99

> <Gold.Chemscore.Hbonds>
donor molecule, donor type, donor heavy atom, donor atom, acceptor molecule, acceptor atom, score
      L1  H    15    40       P1  7948  0.92
      P1  H  7989  7998       L1     8  0.42
      P1  H 10752 10765       L1    10  0.79

> <Gold.Chemscore.Hbond.Weighted>
-7.7164

> <Gold.Chemscore.Metal.Weighted>
-0.0000

> <Gold.Chemscore.Lipo.Weighted>
-8.9217

> <Gold.Chemscore.Internal_Hbond.Weighted>
0.0000

> <Gold.Chemscore.DEClash.Weighted>
0.0498

> <Gold.Chemscore.DEInternal.Weighted>
3.7137

> <Gold.Chemscore.Rot.Weighted>
4.6310

> <Gold.Chemscore.Internal.Correction.Weighted>
   9.000000E+99

> <Gold.Protein.RotatedTorsions>
[ 6907 6896 6895 6894 ] final  -51.96 input  -60.11 | X-H torsion
[ 7974 7965 7964 7962 ] final -123.76 input  175.53 | X-H torsion
[ 8008 7997 7996 7995 ] final -169.54 input   59.86 | X-H torsion
[ 10167 10162 10161 10158 ] final -110.30 input  -65.29 | X-H torsion
[ 10718 10713 10712 10709 ] final  119.33 input   66.30 | X-H torsion
[ 10763 10752 10751 10750 ] final  140.37 input  -60.55 | X-H torsion
[ 11005 11000 10999 10996 ] final   20.58 input  -57.11 | X-H torsion

> <Gold.Protein.ActiveResidues>
 VAL166  LYS551  ARG553  GLY616  TRP617  ASP618  TYR619  PRO620  LYS621  CYS622 
 ASP623  PHE694  ASN695  SER759  ASP760  ASP761  ALA762  ILE779  LEU786  VAL792 
 PHE793  MET794  SER795  GLU796  ALA797  LYS798  CYS799  TRP800  GLU811  SER814 

> <Gold.Protein.RotatedAtoms>
  150.8562  134.7901  159.7046 H   0  0  0  0  0  0  0  0  0  0  0  0  # atno 6907 bound_to 6896
  152.4613  134.5175  159.9782 H   0  0  0  0  0  0  0  0  0  0  0  0  # atno 6908 bound_to 6896
  151.5287  133.3415  159.2950 H   0  0  0  0  0  0  0  0  0  0  0  0  # atno 6909 bound_to 6896
  145.0152  140.7940  143.4414 H   0  0  0  0  0  0  0  0  0  0  0  0  # atno 7974 bound_to 7965
  155.9063  140.1049  157.1313 H   0  0  0  0  0  0  0  0  0  0  0  0  # atno 8008 bound_to 7997
  154.4033  140.1283  156.4565 H   0  0  0  0  0  0  0  0  0  0  0  0  # atno 8009 bound_to 7997
  155.7363  140.3467  155.5085 H   0  0  0  0  0  0  0  0  0  0  0  0  # atno 8010 bound_to 7997
  140.1460  143.4239  152.1529 H   0  0  0  0  0  0  0  0  0  0  0  0  # atno 10167 bound_to 10162
  157.5969  131.1056  150.7881 H   0  0  0  0  0  0  0  0  0  0  0  0  # atno 10718 bound_to 10713
  153.9216  135.3000  155.3447 H   0  0  0  0  0  0  0  0  0  0  0  0  # atno 10763 bound_to 10752
  154.7573  135.4951  153.9401 H   0  0  0  0  0  0  0  0  0  0  0  0  # atno 10764 bound_to 10752
  153.1139  135.6766  153.9555 H   0  0  0  0  0  0  0  0  0  0  0  0  # atno 10765 bound_to 10752
  140.4011  134.1718  155.7664 H   0  0  0  0  0  0  0  0  0  0  0  0  # atno 11005 bound_to 11000
  145.1969  139.2272  143.5213 LP  0  0  0  0  0  0  0  0  0  0  0  0  # atno 17320 bound_to 7965
  146.3476  140.1778  142.8589 LP  0  0  0  0  0  0  0  0  0  0  0  0  # atno 17321 bound_to 7965
  139.5449  144.7289  151.4616 LP  0  0  0  0  0  0  0  0  0  0  0  0  # atno 17342 bound_to 10162
  140.6732  143.8248  150.7025 LP  0  0  0  0  0  0  0  0  0  0  0  0  # atno 17343 bound_to 10162
  156.8289  130.5009  149.5334 LP  0  0  0  0  0  0  0  0  0  0  0  0  # atno 17370 bound_to 10713
  156.1034  130.5986  150.9930 LP  0  0  0  0  0  0  0  0  0  0  0  0  # atno 17371 bound_to 10713
  141.1856  133.8319  157.1097 LP  0  0  0  0  0  0  0  0  0  0  0  0  # atno 17394 bound_to 11000
  140.0336  134.9889  157.0828 LP  0  0  0  0  0  0  0  0  0  0  0  0  # atno 17395 bound_to 11000

$$$$
