AV-unprocessed.smi:2855|AV-procd|sdf|10985|dock6
  -GOLD-   2272015443D 1   1.00000     0.00000
 Structure written by MMmdl.
 46 47  0  0  0  0  0  0  0  0  2 V2000
  151.3851  144.6871  158.8606 C   0  0  0  0  0  0  0  0  0  0  0  0
  150.9676  143.3302  158.2763 C   0  0  2  0  0  0  0  0  0  0  0  0
  151.4974  142.1629  159.1236 C   0  0  0  0  0  0  0  0  0  0  0  0
  151.0813  140.8030  158.5412 C   0  0  0  0  0  0  0  0  0  0  0  0
  151.5458  140.6192  157.0739 C   0  0  1  0  0  0  0  0  0  0  0  0
  151.1573  139.2223  156.4959 C   0  0  0  0  0  0  0  0  0  0  0  0
  151.6268  138.0612  157.3935 C   0  0  0  0  0  0  0  0  0  0  0  0
  151.6952  138.9949  155.0694 C   0  0  0  0  0  0  0  0  0  0  0  0
  151.0488  141.8136  156.2106 C   0  0  1  0  0  0  0  0  0  0  0  0
  149.6050  141.7356  155.9899 N   0  0  0  0  0  0  0  0  0  0  0  0
  149.0079  141.3532  154.8523 C   0  0  0  0  0  0  0  0  0  0  0  0
  149.6240  141.0758  153.8227 O   0  0  0  0  0  0  0  0  0  0  0  0
  147.4760  141.2965  154.8821 C   0  0  0  0  0  0  0  0  0  0  0  0
  146.9518  140.0715  154.2588 N   0  0  0  0  0  0  0  0  0  0  0  0
  147.3162  139.8055  152.9272 C   0  0  0  0  0  0  0  0  0  0  0  0
  146.8906  138.7033  152.2813 C   0  0  0  0  0  0  0  0  0  0  0  0
  146.0288  137.7722  152.9989 C   0  0  0  0  0  0  0  0  0  0  0  0
  145.6266  136.7629  152.4234 O   0  0  0  0  0  0  0  0  0  0  0  0
  145.7068  138.0724  154.2913 N   0  5  0  0  0  0  0  0  0  0  0  0
  146.1489  139.1961  154.9365 C   0  0  0  0  0  0  0  0  0  0  0  0
  145.8488  139.4467  156.1048 O   0  0  0  0  0  0  0  0  0  0  0  0
  151.4411  143.1758  156.8204 C   0  0  0  0  0  0  0  0  0  0  0  0
  152.4698  144.7981  158.8706 H   0  0  0  0  0  0  0  0  0  0  0  0
  151.0288  144.8003  159.8847 H   0  0  0  0  0  0  0  0  0  0  0  0
  150.9716  145.5093  158.2759 H   0  0  0  0  0  0  0  0  0  0  0  0
  149.8775  143.2911  158.2893 H   0  0  0  0  0  0  0  0  0  0  0  0
  152.5856  142.2135  159.1846 H   0  0  0  0  0  0  0  0  0  0  0  0
  151.1281  142.2483  160.1462 H   0  0  0  0  0  0  0  0  0  0  0  0
  151.5027  140.0281  159.1797 H   0  0  0  0  0  0  0  0  0  0  0  0
  149.9976  140.6952  158.6043 H   0  0  0  0  0  0  0  0  0  0  0  0
  152.6358  140.6697  157.0780 H   0  0  0  0  0  0  0  0  0  0  0  0
  150.0696  139.1605  156.4405 H   0  0  0  0  0  0  0  0  0  0  0  0
  152.6999  138.1120  157.5796 H   0  0  0  0  0  0  0  0  0  0  0  0
  151.4186  137.0966  156.9296 H   0  0  0  0  0  0  0  0  0  0  0  0
  151.1163  138.0552  158.3555 H   0  0  0  0  0  0  0  0  0  0  0  0
  152.7762  139.1306  155.0259 H   0  0  0  0  0  0  0  0  0  0  0  0
  151.2398  139.6742  154.3490 H   0  0  0  0  0  0  0  0  0  0  0  0
  151.4738  137.9858  154.7210 H   0  0  0  0  0  0  0  0  0  0  0  0
  151.5455  141.7573  155.2411 H   0  0  0  0  0  0  0  0  0  0  0  0
  149.0142  141.9492  156.7802 H   0  0  0  0  0  0  0  0  0  0  0  0
  147.1153  141.3758  155.9097 H   0  0  0  0  0  0  0  0  0  0  0  0
  147.0927  142.1825  154.3745 H   0  0  0  0  0  0  0  0  0  0  0  0
  147.9617  140.5414  152.4708 H   0  0  0  0  0  0  0  0  0  0  0  0
  147.1828  138.5119  151.2594 H   0  0  0  0  0  0  0  0  0  0  0  0
  151.0437  143.9870  156.2090 H   0  0  0  0  0  0  0  0  0  0  0  0
  152.5264  143.2785  156.7835 H   0  0  0  0  0  0  0  0  0  0  0  0
  1  2  1  0  0  0  0
  1 23  1  0  0  0  0
  1 24  1  0  0  0  0
  1 25  1  0  0  0  0
  2 22  1  0  0  0  0
  2  3  1  0  0  0  0
  2 26  1  0  0  0  0
  3  4  1  0  0  0  0
  3 27  1  0  0  0  0
  3 28  1  0  0  0  0
  4  5  1  0  0  0  0
  4 29  1  0  0  0  0
  4 30  1  0  0  0  0
  5  6  1  0  0  0  0
  5  9  1  0  0  0  0
  5 31  1  0  0  0  0
  6  7  1  0  0  0  0
  6  8  1  0  0  0  0
  6 32  1  0  0  0  0
  7 33  1  0  0  0  0
  7 34  1  0  0  0  0
  7 35  1  0  0  0  0
  8 36  1  0  0  0  0
  8 37  1  0  0  0  0
  8 38  1  0  0  0  0
  9 10  1  0  0  0  0
  9 22  1  0  0  0  0
  9 39  1  0  0  0  0
 10 11  1  0  0  0  0
 10 40  1  0  0  0  0
 11 12  2  0  0  0  0
 11 13  1  0  0  0  0
 13 14  1  0  0  0  0
 13 41  1  0  0  0  0
 13 42  1  0  0  0  0
 14 20  1  0  0  0  0
 14 15  1  0  0  0  0
 15 16  2  0  0  0  0
 15 43  1  0  0  0  0
 16 17  1  0  0  0  0
 16 44  1  0  0  0  0
 17 18  2  0  0  0  0
 17 19  1  0  0  0  0
 19 20  1  0  0  0  0
 20 21  2  0  0  0  0
 22 45  1  0  0  0  0
 22 46  1  0  0  0  0
M  CHG  1  19  -1
M  END
> <s_m_source_file>
AV-unprocessed.smi

> <i_m_source_file_index>
2855

> <i_lp_mmshare_version>
43012

> <i_f3d_flags>
0

> <s_epik_input>
W0NIM11bQ0BASF0xW0NIMl1bQ0gyXVtDQEBIXShbQ0hdKFtDSDNdKVtDSDNdKVtDQEhdKFtDSDJdMSlbTkhdQyg9TylbQ0gyXW4yW2NIXVtjSF1jKD1PKVtuSF1jMj1P

> <s_epik_cmdline>
J2VwaWtfcHl0aG9uJywgJy1waCcsICc3LjAnLCAnLXRuJywgJzgnLCAnLW1hJywgJzIwMCcsICctbWV0YWxfYmluZGluZycsICctaW1hZScsICc8aW5maWxlLm1hZT4nLCAnLW9tYWUnLCAnPG91dGZpbGUubWFlPic=

> <r_lp_tautomer_probability>
0.999537

> <r_epik_Ionization_Penalty>
3.12102

> <r_epik_Ionization_Penalty_Charging>
2.9581e-08

> <r_epik_Ionization_Penalty_Neutral>
3.12102

> <r_epik_State_Penalty>
3.12011

> <r_epik_Charging_Adjusted_Penalty>
3.12011

> <i_epik_Tot_Q>
-1

> <i_epik_Tot_abs_Q>
1

> <r_epik_Metal_State_Penalty>
0.463583

> <b_epik_Metal_Only>
1

> <s_lp_Force_Field>
OPLS_2005

> <r_lp_Energy>
22.0986

> <b_lp_Chiralities_Consistent>
1

> <s_lp_Variant>
AV-unprocessed.smi:2855-9

> <Gold.Version>
5.8.1

> <Gold.Id.Protein>
6NUR|6NUR_protein|mol2

> <Gold.PLP.Fitness>
39.4366

> <Gold.PLP.PLP>
-34.1211

> <Gold.PLP.part.hbond>
-2.9759

> <Gold.PLP.part.metal>
0.0000

> <Gold.PLP.part.buried>
-3.5359

> <Gold.PLP.part.nonpolar>
-29.9725

> <Gold.PLP.part.repulsive>
2.2683

> <Gold.PLP.ligand.clash>
0.0000

> <Gold.PLP.ligand.torsion>
0.3592

> <Gold.PLP.Chemscore.Hbond>
1.1560

> <Gold.PLP.Chemscore.CHOScore>
0.8419

> <Gold.PLP.Chemscore.Metal>
0.0000

> <Gold.Chemscore.Hbonds>
donor molecule, donor type, donor heavy atom, donor atom, acceptor molecule, acceptor atom, score
      P1  H  7989  7998       L1    12  0.35
      P1  H  8011  8017       L1    12  0.91
      L1  C    15    43       P1  7957  0.88

> <Gold.PLP.Chemscore.Internal.Correction>
0.0403

> <Gold.Rescore>
     Score         DG    S(hbond)    S(metal)    S(lipo)     H(rot)  DE(clash)    DE(int)     intcor
     13.28     -15.96       1.06        0.00      98.89       1.81       0.82       1.86       ----

> <Gold.Chemscore.Fitness>
13.2803

> <Gold.Chemscore.DG>
-15.9614

> <Gold.Chemscore.ZeroCoef>
-5.4800

> <Gold.Chemscore.Hbond>
1.0612

> <Gold.Chemscore.Metal>
0.0000

> <Gold.Chemscore.Lipo>
98.8924

> <Gold.Chemscore.Internal_Hbond>
0.0000

> <Gold.Chemscore.DEClash>
0.8234

> <Gold.Chemscore.DEInternal>
1.8577

> <Gold.Chemscore.Rot>
1.8100

> <Gold.Chemscore.Internal.Correction>
   9.000000E+99

> <Gold.Chemscore.Hbonds>
donor molecule, donor type, donor heavy atom, donor atom, acceptor molecule, acceptor atom, score
      P1  H  7989  7998       L1    12  0.32
      P1  H  8011  8017       L1    12  0.83

> <Gold.Chemscore.Hbond.Weighted>
-3.5445

> <Gold.Chemscore.Metal.Weighted>
-0.0000

> <Gold.Chemscore.Lipo.Weighted>
-11.5704

> <Gold.Chemscore.Internal_Hbond.Weighted>
0.0000

> <Gold.Chemscore.DEClash.Weighted>
0.8234

> <Gold.Chemscore.DEInternal.Weighted>
1.8577

> <Gold.Chemscore.Rot.Weighted>
4.6335

> <Gold.Chemscore.Internal.Correction.Weighted>
   9.000000E+99

> <Gold.Protein.RotatedTorsions>
[ 6907 6896 6895 6894 ] final   35.24 input  -60.11 | X-H torsion
[ 7974 7965 7964 7962 ] final  -36.47 input  175.53 | X-H torsion
[ 8008 7997 7996 7995 ] final  102.62 input   59.86 | X-H torsion
[ 10167 10162 10161 10158 ] final   48.81 input  -65.29 | X-H torsion
[ 10718 10713 10712 10709 ] final -166.82 input   66.30 | X-H torsion
[ 10763 10752 10751 10750 ] final   46.84 input  -60.55 | X-H torsion
[ 11005 11000 10999 10996 ] final -120.50 input  -57.11 | X-H torsion

> <Gold.Protein.ActiveResidues>
 VAL166  LYS551  ARG553  GLY616  TRP617  ASP618  TYR619  PRO620  LYS621  CYS622 
 ASP623  PHE694  ASN695  SER759  ASP760  ASP761  ALA762  ILE779  LEU786  VAL792 
 PHE793  MET794  SER795  GLU796  ALA797  LYS798  CYS799  TRP800  GLU811  SER814 

> <Gold.Protein.RotatedAtoms>
  152.1135  134.9257  160.0565 H   0  0  0  0  0  0  0  0  0  0  0  0  # atno 6907 bound_to 6896
  152.0426  133.3979  159.4351 H   0  0  0  0  0  0  0  0  0  0  0  0  # atno 6908 bound_to 6896
  150.6845  134.3318  159.4874 H   0  0  0  0  0  0  0  0  0  0  0  0  # atno 6909 bound_to 6896
  146.0658  140.6282  142.8975 H   0  0  0  0  0  0  0  0  0  0  0  0  # atno 7974 bound_to 7965
  156.1409  140.3178  155.8494 H   0  0  0  0  0  0  0  0  0  0  0  0  # atno 8008 bound_to 7997
  155.4155  140.0509  157.3046 H   0  0  0  0  0  0  0  0  0  0  0  0  # atno 8009 bound_to 7997
  154.4976  140.2116  155.9427 H   0  0  0  0  0  0  0  0  0  0  0  0  # atno 8010 bound_to 7997
  140.2895  144.3063  150.6244 H   0  0  0  0  0  0  0  0  0  0  0  0  # atno 10167 bound_to 10162
  156.6734  130.9093  151.3047 H   0  0  0  0  0  0  0  0  0  0  0  0  # atno 10718 bound_to 10713
  152.9806  135.5995  154.3665 H   0  0  0  0  0  0  0  0  0  0  0  0  # atno 10763 bound_to 10752
  154.3342  135.2768  155.2458 H   0  0  0  0  0  0  0  0  0  0  0  0  # atno 10764 bound_to 10752
  154.4568  135.5976  153.6284 H   0  0  0  0  0  0  0  0  0  0  0  0  # atno 10765 bound_to 10752
  141.0139  134.0224  157.3377 H   0  0  0  0  0  0  0  0  0  0  0  0  # atno 11005 bound_to 11000
  144.7202  140.4347  143.7014 LP  0  0  0  0  0  0  0  0  0  0  0  0  # atno 17320 bound_to 7965
  145.6479  139.1560  143.2879 LP  0  0  0  0  0  0  0  0  0  0  0  0  # atno 17321 bound_to 7965
  140.5744  143.2178  151.7541 LP  0  0  0  0  0  0  0  0  0  0  0  0  # atno 17342 bound_to 10162
  139.4942  144.4170  152.0019 LP  0  0  0  0  0  0  0  0  0  0  0  0  # atno 17343 bound_to 10162
  157.7069  130.9395  150.0960 LP  0  0  0  0  0  0  0  0  0  0  0  0  # atno 17370 bound_to 10713
  156.1921  130.3655  149.8896 LP  0  0  0  0  0  0  0  0  0  0  0  0  # atno 17371 bound_to 10713
  139.9105  135.0189  156.7672 LP  0  0  0  0  0  0  0  0  0  0  0  0  # atno 17394 bound_to 11000
  140.6688  133.9578  155.7845 LP  0  0  0  0  0  0  0  0  0  0  0  0  # atno 17395 bound_to 11000

$$$$
