AV-unprocessed.smi:2304|AV-procd|sdf|9244|dock1
  -GOLD-   2272012463D 1   1.00000     0.00000
 Structure written by MMmdl.
 37 38  0  0  0  0  0  0  0  0  1 V2000
  145.4114  148.3562  158.3041 C   0  0  0  0  0  0  0  0  0  0  0  0
  145.2369  147.7558  159.5751 O   0  0  0  0  0  0  0  0  0  0  0  0
  144.8528  146.3931  159.4873 C   0  0  0  0  0  0  0  0  0  0  0  0
  145.7629  145.5184  160.3674 C   0  0  2  0  0  0  0  0  0  0  0  0
  147.0685  145.4153  159.7221 N   0  0  0  0  0  0  0  0  0  0  0  0
  148.1524  144.8236  160.2449 C   0  0  0  0  0  0  0  0  0  0  0  0
  148.1706  144.2982  161.3584 O   0  0  0  0  0  0  0  0  0  0  0  0
  149.1940  144.8844  159.3966 N   0  0  0  0  0  0  0  0  0  0  0  0
  150.5066  144.3733  159.5798 C   0  0  0  0  0  0  0  0  0  0  0  0
  151.3923  144.5959  158.5013 C   0  0  0  0  0  0  0  0  0  0  0  0
  152.7180  144.1281  158.5857 C   0  0  0  0  0  0  0  0  0  0  0  0
  153.1257  143.4491  159.7477 C   0  0  0  0  0  0  0  0  0  0  0  0
  152.1811  143.2687  160.7769 C   0  0  0  0  0  0  0  0  0  0  0  0
  152.5498  142.5455  162.0552 C   0  0  0  0  0  0  0  0  0  0  0  0
  150.9097  143.7165  160.6961 N   0  0  0  0  0  0  0  0  0  0  0  0
  145.1324  144.1664  160.6681 C   0  0  0  0  0  0  0  0  0  0  0  0
  144.1882  143.9749  161.8324 C   0  0  0  0  0  0  0  0  0  0  0  0
  145.5623  143.3474  161.8629 C   0  0  0  0  0  0  0  0  0  0  0  0
  145.7043  149.3985  158.4300 H   0  0  0  0  0  0  0  0  0  0  0  0
  144.4864  148.3337  157.7264 H   0  0  0  0  0  0  0  0  0  0  0  0
  146.1936  147.8531  157.7340 H   0  0  0  0  0  0  0  0  0  0  0  0
  143.8150  146.2897  159.8094 H   0  0  0  0  0  0  0  0  0  0  0  0
  144.9059  146.0593  158.4495 H   0  0  0  0  0  0  0  0  0  0  0  0
  145.8846  146.0432  161.3174 H   0  0  0  0  0  0  0  0  0  0  0  0
  147.1487  145.8211  158.8013 H   0  0  0  0  0  0  0  0  0  0  0  0
  149.0285  145.3487  158.5161 H   0  0  0  0  0  0  0  0  0  0  0  0
  151.0633  145.1198  157.6154 H   0  0  0  0  0  0  0  0  0  0  0  0
  153.4096  144.2880  157.7718 H   0  0  0  0  0  0  0  0  0  0  0  0
  154.1356  143.0780  159.8433 H   0  0  0  0  0  0  0  0  0  0  0  0
  153.6164  142.3215  162.0898 H   0  0  0  0  0  0  0  0  0  0  0  0
  152.0012  141.6061  162.1296 H   0  0  0  0  0  0  0  0  0  0  0  0
  152.3036  143.1574  162.9234 H   0  0  0  0  0  0  0  0  0  0  0  0
  144.8883  143.5980  159.7725 H   0  0  0  0  0  0  0  0  0  0  0  0
  144.0115  144.8244  162.4893 H   0  0  0  0  0  0  0  0  0  0  0  0
  143.3357  143.3154  161.6832 H   0  0  0  0  0  0  0  0  0  0  0  0
  145.6279  142.2691  161.7336 H   0  0  0  0  0  0  0  0  0  0  0  0
  146.2922  143.7806  162.5439 H   0  0  0  0  0  0  0  0  0  0  0  0
  1  2  1  0  0  0  0
  1 19  1  0  0  0  0
  1 20  1  0  0  0  0
  1 21  1  0  0  0  0
  2  3  1  0  0  0  0
  3  4  1  0  0  0  0
  3 22  1  0  0  0  0
  3 23  1  0  0  0  0
  4  5  1  0  0  0  0
  4 16  1  0  0  0  0
  4 24  1  0  0  0  0
  5  6  1  0  0  0  0
  5 25  1  0  0  0  0
  6  7  2  0  0  0  0
  6  8  1  0  0  0  0
  8  9  1  0  0  0  0
  8 26  1  0  0  0  0
  9 15  1  0  0  0  0
  9 10  2  0  0  0  0
 10 11  1  0  0  0  0
 10 27  1  0  0  0  0
 11 12  2  0  0  0  0
 11 28  1  0  0  0  0
 12 13  1  0  0  0  0
 12 29  1  0  0  0  0
 13 14  1  0  0  0  0
 13 15  2  0  0  0  0
 14 30  1  0  0  0  0
 14 31  1  0  0  0  0
 14 32  1  0  0  0  0
 16 18  1  0  0  0  0
 16 17  1  0  0  0  0
 16 33  1  0  0  0  0
 17 18  1  0  0  0  0
 17 34  1  0  0  0  0
 17 35  1  0  0  0  0
 18 36  1  0  0  0  0
 18 37  1  0  0  0  0
M  END
> <s_m_source_file>
AV-unprocessed.smi

> <i_m_source_file_index>
2304

> <i_lp_mmshare_version>
43012

> <i_f3d_flags>
0

> <s_epik_input>
W0NIM11PW0NIMl1bQ0BASF0oW0NIXTFbQ0gyXVtDSDJdMSlbTkhdQyg9TylbTkhdYzJbY0hdW2NIXVtjSF1jKG4yKVtDSDNd

> <s_epik_cmdline>
J2VwaWtfcHl0aG9uJywgJy1waCcsICc3LjAnLCAnLXRuJywgJzgnLCAnLW1hJywgJzIwMCcsICctbWV0YWxfYmluZGluZycsICctaW1hZScsICc8aW5maWxlLm1hZT4nLCAnLW9tYWUnLCAnPG91dGZpbGUubWFlPic=

> <r_lp_tautomer_probability>
1

> <r_epik_Ionization_Penalty>
8.58396e-05

> <r_epik_Ionization_Penalty_Charging>
0

> <r_epik_Ionization_Penalty_Neutral>
8.58396e-05

> <r_epik_State_Penalty>
-0

> <r_epik_Charging_Adjusted_Penalty>
0

> <i_epik_Tot_Q>
0

> <i_epik_Tot_abs_Q>
0

> <r_epik_Metal_State_Penalty>
-0

> <b_epik_Metal_Only>
0

> <s_lp_Force_Field>
OPLS_2005

> <r_lp_Energy>
16.2574

> <b_lp_Chiralities_Consistent>
1

> <s_lp_Variant>
AV-unprocessed.smi:2304-1

> <Gold.Version>
5.8.1

> <Gold.Id.Protein>
6NUR|6NUR_protein|mol2

> <Gold.PLP.Fitness>
52.5801

> <Gold.PLP.PLP>
-44.6499

> <Gold.PLP.part.hbond>
-3.9452

> <Gold.PLP.part.metal>
0.0000

> <Gold.PLP.part.buried>
-8.3049

> <Gold.PLP.part.nonpolar>
-33.8333

> <Gold.PLP.part.repulsive>
0.7635

> <Gold.PLP.ligand.clash>
0.0000

> <Gold.PLP.ligand.torsion>
1.0228

> <Gold.PLP.Chemscore.Hbond>
2.9600

> <Gold.PLP.Chemscore.CHOScore>
0.0000

> <Gold.PLP.Chemscore.Metal>
0.0000

> <Gold.Chemscore.Hbonds>
donor molecule, donor type, donor heavy atom, donor atom, acceptor molecule, acceptor atom, score
      L1  H     5    25       P1  8029  1.00
      L1  H     8    26       P1  8029  1.00
      P1  H  6933  6944       L1     7  1.00

> <Gold.PLP.Chemscore.Internal.Correction>
1.0959

> <Gold.Rescore>
     Score         DG    S(hbond)    S(metal)    S(lipo)     H(rot)  DE(clash)    DE(int)     intcor
     20.26     -22.65       2.87        0.00     100.04       1.61       0.01       2.38       ----

> <Gold.Chemscore.Fitness>
20.2583

> <Gold.Chemscore.DG>
-22.6462

> <Gold.Chemscore.ZeroCoef>
-5.4800

> <Gold.Chemscore.Hbond>
2.8725

> <Gold.Chemscore.Metal>
0.0000

> <Gold.Chemscore.Lipo>
100.0365

> <Gold.Chemscore.Internal_Hbond>
0.0000

> <Gold.Chemscore.DEClash>
0.0080

> <Gold.Chemscore.DEInternal>
2.3798

> <Gold.Chemscore.Rot>
1.6142

> <Gold.Chemscore.Internal.Correction>
   9.000000E+99

> <Gold.Chemscore.Hbonds>
donor molecule, donor type, donor heavy atom, donor atom, acceptor molecule, acceptor atom, score
      L1  H     5    25       P1  8029  0.97
      L1  H     8    26       P1  8029  0.92
      P1  H  6933  6944       L1     7  0.90

> <Gold.Chemscore.Hbond.Weighted>
-9.5942

> <Gold.Chemscore.Metal.Weighted>
-0.0000

> <Gold.Chemscore.Lipo.Weighted>
-11.7043

> <Gold.Chemscore.Internal_Hbond.Weighted>
0.0000

> <Gold.Chemscore.DEClash.Weighted>
0.0080

> <Gold.Chemscore.DEInternal.Weighted>
2.3798

> <Gold.Chemscore.Rot.Weighted>
4.1323

> <Gold.Chemscore.Internal.Correction.Weighted>
   9.000000E+99

> <Gold.Protein.RotatedTorsions>
[ 6907 6896 6895 6894 ] final   28.81 input  -60.11 | X-H torsion
[ 7974 7965 7964 7962 ] final -154.45 input  175.53 | X-H torsion
[ 8008 7997 7996 7995 ] final  -23.57 input   59.86 | X-H torsion
[ 10167 10162 10161 10158 ] final -106.12 input  -65.29 | X-H torsion
[ 10718 10713 10712 10709 ] final   87.10 input   66.30 | X-H torsion
[ 10763 10752 10751 10750 ] final   72.97 input  -60.55 | X-H torsion
[ 11005 11000 10999 10996 ] final  141.09 input  -57.11 | X-H torsion

> <Gold.Protein.ActiveResidues>
 VAL166  LYS551  ARG553  GLY616  TRP617  ASP618  TYR619  PRO620  LYS621  CYS622 
 ASP623  PHE694  ASN695  SER759  ASP760  ASP761  ALA762  ILE779  LEU786  VAL792 
 PHE793  MET794  SER795  GLU796  ALA797  LYS798  CYS799  TRP800  GLU811  SER814 

> <Gold.Protein.RotatedAtoms>
  152.0224  134.9815  160.0570 H   0  0  0  0  0  0  0  0  0  0  0  0  # atno 6907 bound_to 6896
  152.1324  133.4411  159.4735 H   0  0  0  0  0  0  0  0  0  0  0  0  # atno 6908 bound_to 6896
  150.6857  134.2323  159.4482 H   0  0  0  0  0  0  0  0  0  0  0  0  # atno 6909 bound_to 6896
  144.7689  140.4386  143.5922 H   0  0  0  0  0  0  0  0  0  0  0  0  # atno 7974 bound_to 7965
  154.4578  140.1977  156.0330 H   0  0  0  0  0  0  0  0  0  0  0  0  # atno 8008 bound_to 7997
  156.0780  140.3275  155.7630 H   0  0  0  0  0  0  0  0  0  0  0  0  # atno 8009 bound_to 7997
  155.5156  140.0565  157.2906 H   0  0  0  0  0  0  0  0  0  0  0  0  # atno 8010 bound_to 7997
  140.1912  143.3891  152.1205 H   0  0  0  0  0  0  0  0  0  0  0  0  # atno 10167 bound_to 10162
  157.6936  131.0242  150.3073 H   0  0  0  0  0  0  0  0  0  0  0  0  # atno 10718 bound_to 10713
  153.0492  135.5080  154.7824 H   0  0  0  0  0  0  0  0  0  0  0  0  # atno 10763 bound_to 10752
  154.6700  135.2951  154.9757 H   0  0  0  0  0  0  0  0  0  0  0  0  # atno 10764 bound_to 10752
  154.0579  135.6695  153.4861 H   0  0  0  0  0  0  0  0  0  0  0  0  # atno 10765 bound_to 10752
  140.0376  134.9321  157.0782 H   0  0  0  0  0  0  0  0  0  0  0  0  # atno 11005 bound_to 11000
  145.6385  139.1546  143.2929 LP  0  0  0  0  0  0  0  0  0  0  0  0  # atno 17320 bound_to 7965
  146.1819  140.6484  142.9185 LP  0  0  0  0  0  0  0  0  0  0  0  0  # atno 17321 bound_to 7965
  139.5255  144.7097  151.5245 LP  0  0  0  0  0  0  0  0  0  0  0  0  # atno 17342 bound_to 10162
  140.6454  143.8804  150.6732 LP  0  0  0  0  0  0  0  0  0  0  0  0  # atno 17343 bound_to 10162
  156.3580  130.3842  149.7274 LP  0  0  0  0  0  0  0  0  0  0  0  0  # atno 17370 bound_to 10713
  156.4730  130.8005  151.3023 LP  0  0  0  0  0  0  0  0  0  0  0  0  # atno 17371 bound_to 10713
  140.4122  134.1969  155.7163 LP  0  0  0  0  0  0  0  0  0  0  0  0  # atno 17394 bound_to 11000
  141.1865  133.8300  157.1064 LP  0  0  0  0  0  0  0  0  0  0  0  0  # atno 17395 bound_to 11000

$$$$
