AV-unprocessed.smi:2027|AV-procd|sdf|8212|dock3
  -GOLD-   2272010473D 1   1.00000     0.00000
 Structure written by MMmdl.
 50 52  0  0  0  0  0  0  0  0  2 V2000
  152.8600  141.3232  159.2093 C   0  0  0  0  0  0  0  0  0  0  0  0
  151.8518  141.2255  158.0776 C   0  0  0  0  0  0  0  0  0  0  0  0
  151.9685  140.1723  157.1427 C   0  0  0  0  0  0  0  0  0  0  0  0
  151.0498  140.0436  156.0786 C   0  0  0  0  0  0  0  0  0  0  0  0
  150.9741  139.1046  155.0643 N   0  0  0  0  0  0  0  0  0  0  0  0
  149.9032  139.5189  154.3939 C   0  0  0  0  0  0  0  0  0  0  0  0
  149.2790  140.6221  154.8502 N   0  0  0  0  0  0  0  0  0  0  0  0
  148.1003  141.2584  154.2900 C   0  0  0  0  0  0  0  0  0  0  0  0
  146.9916  140.2464  153.9439 C   0  0  1  0  0  0  0  0  0  0  0  0
  145.7277  140.8566  154.1224 O   0  0  0  0  0  0  0  0  0  0  0  0
  147.1008  139.7573  152.4861 C   0  0  0  0  0  0  0  0  0  0  0  0
  146.1480  138.6568  152.1892 N   0  3  1  0  0  0  0  0  0  0  0  0
  146.3177  138.1309  150.8137 C   0  0  0  0  0  0  0  0  0  0  0  0
  146.1579  137.5850  153.2185 C   0  0  0  0  0  0  0  0  0  0  0  0
  144.7665  137.0937  153.5119 C   0  0  0  0  0  0  0  0  0  0  0  0
  144.3737  136.1141  154.4682 C   0  0  0  0  0  0  0  0  0  0  0  0
  143.0671  135.9099  154.4876 N   0  0  0  0  0  0  0  0  0  0  0  0
  142.5821  136.7411  153.5427 N   0  0  0  0  0  0  0  0  0  0  0  0
  141.1575  136.7821  153.2903 C   0  0  0  0  0  0  0  0  0  0  0  0
  143.5844  137.4659  152.9352 C   0  0  0  0  0  0  0  0  0  0  0  0
  150.0030  141.0058  155.9738 C   0  0  0  0  0  0  0  0  0  0  0  0
  149.8765  142.0587  156.8968 C   0  0  0  0  0  0  0  0  0  0  0  0
  150.8031  142.1722  157.9545 C   0  0  0  0  0  0  0  0  0  0  0  0
  150.6584  143.3120  158.9473 C   0  0  0  0  0  0  0  0  0  0  0  0
  153.5942  140.5186  159.1595 H   0  0  0  0  0  0  0  0  0  0  0  0
  152.3580  141.2574  160.1748 H   0  0  0  0  0  0  0  0  0  0  0  0
  153.3982  142.2701  159.1619 H   0  0  0  0  0  0  0  0  0  0  0  0
  152.7667  139.4505  157.2367 H   0  0  0  0  0  0  0  0  0  0  0  0
  149.5543  138.9918  153.5176 H   0  0  0  0  0  0  0  0  0  0  0  0
  147.7328  142.0008  155.0001 H   0  0  0  0  0  0  0  0  0  0  0  0
  148.4039  141.8050  153.3963 H   0  0  0  0  0  0  0  0  0  0  0  0
  147.0592  139.4056  154.6338 H   0  0  0  0  0  0  0  0  0  0  0  0
  145.1244  140.4881  153.4940 H   0  0  0  0  0  0  0  0  0  0  0  0
  146.9133  140.6050  151.8245 H   0  0  0  0  0  0  0  0  0  0  0  0
  148.1157  139.4225  152.2653 H   0  0  0  0  0  0  0  0  0  0  0  0
  147.2931  137.6575  150.6942 H   0  0  0  0  0  0  0  0  0  0  0  0
  146.2353  138.9334  150.0799 H   0  0  0  0  0  0  0  0  0  0  0  0
  145.5494  137.3968  150.5711 H   0  0  0  0  0  0  0  0  0  0  0  0
  146.8055  136.7727  152.8850 H   0  0  0  0  0  0  0  0  0  0  0  0
  146.6093  137.9570  154.1376 H   0  0  0  0  0  0  0  0  0  0  0  0
  144.9969  135.5530  155.1490 H   0  0  0  0  0  0  0  0  0  0  0  0
  140.9542  137.3584  152.3873 H   0  0  0  0  0  0  0  0  0  0  0  0
  140.6487  137.2511  154.1332 H   0  0  0  0  0  0  0  0  0  0  0  0
  140.7735  135.7700  153.1574 H   0  0  0  0  0  0  0  0  0  0  0  0
  143.3756  138.1824  152.1543 H   0  0  0  0  0  0  0  0  0  0  0  0
  149.0724  142.7720  156.7926 H   0  0  0  0  0  0  0  0  0  0  0  0
  149.8010  143.9418  158.7083 H   0  0  0  0  0  0  0  0  0  0  0  0
  151.5485  143.9416  158.9389 H   0  0  0  0  0  0  0  0  0  0  0  0
  150.5174  142.9245  159.9565 H   0  0  0  0  0  0  0  0  0  0  0  0
  145.2310  139.0802  152.2159 H   0  0  0  0  0  0  0  0  0  0  0  0
  1  2  1  0  0  0  0
  1 25  1  0  0  0  0
  1 26  1  0  0  0  0
  1 27  1  0  0  0  0
  2 23  1  0  0  0  0
  2  3  2  0  0  0  0
  3  4  1  0  0  0  0
  3 28  1  0  0  0  0
  4 21  2  0  0  0  0
  4  5  1  0  0  0  0
  5  6  2  0  0  0  0
  6  7  1  0  0  0  0
  6 29  1  0  0  0  0
  7  8  1  0  0  0  0
  7 21  1  0  0  0  0
  8  9  1  0  0  0  0
  8 30  1  0  0  0  0
  8 31  1  0  0  0  0
  9 10  1  0  0  0  0
  9 11  1  0  0  0  0
  9 32  1  0  0  0  0
 10 33  1  0  0  0  0
 11 12  1  0  0  0  0
 11 34  1  0  0  0  0
 11 35  1  0  0  0  0
 12 13  1  0  0  0  0
 12 14  1  0  0  0  0
 12 50  1  0  0  0  0
 13 36  1  0  0  0  0
 13 37  1  0  0  0  0
 13 38  1  0  0  0  0
 14 15  1  0  0  0  0
 14 39  1  0  0  0  0
 14 40  1  0  0  0  0
 15 20  2  0  0  0  0
 15 16  1  0  0  0  0
 16 17  2  0  0  0  0
 16 41  1  0  0  0  0
 17 18  1  0  0  0  0
 18 19  1  0  0  0  0
 18 20  1  0  0  0  0
 19 42  1  0  0  0  0
 19 43  1  0  0  0  0
 19 44  1  0  0  0  0
 20 45  1  0  0  0  0
 21 22  1  0  0  0  0
 22 23  2  0  0  0  0
 22 46  1  0  0  0  0
 23 24  1  0  0  0  0
 24 47  1  0  0  0  0
 24 48  1  0  0  0  0
 24 49  1  0  0  0  0
M  CHG  1  12   1
M  END
> <s_m_source_file>
AV-unprocessed.smi

> <i_m_source_file_index>
2027

> <i_lp_mmshare_version>
43012

> <i_f3d_flags>
0

> <s_epik_input>
W0NIM11jKFtjSF0xKWMoW0NIM10pW2NIXWMoYzEyKW4oW2NIXW4yKVtDSDJdW0NASF0oW09IXSlbQ0gyXU4oW0NIM10pW0NIMl1jM1tjSF1ubihbQ0gzXSlbY0hdMw==

> <s_epik_cmdline>
J2VwaWtfcHl0aG9uJywgJy1waCcsICc3LjAnLCAnLXRuJywgJzgnLCAnLW1hJywgJzIwMCcsICctbWV0YWxfYmluZGluZycsICctaW1hZScsICc8aW5maWxlLm1hZT4nLCAnLW9tYWUnLCAnPG91dGZpbGUubWFlPic=

> <r_lp_tautomer_probability>
1

> <r_epik_Ionization_Penalty>
0.646578

> <r_epik_Ionization_Penalty_Charging>
0.559419

> <r_epik_Ionization_Penalty_Neutral>
0.087159

> <r_epik_State_Penalty>
0.661677

> <r_epik_Charging_Adjusted_Penalty>
1.2211

> <i_epik_Tot_Q>
1

> <i_epik_Tot_abs_Q>
1

> <r_epik_Metal_State_Penalty>
0.649174

> <b_epik_Metal_Only>
0

> <s_lp_Force_Field>
OPLS_2005

> <r_lp_Energy>
9.42611

> <b_lp_Chiralities_Consistent>
1

> <s_lp_Variant>
AV-unprocessed.smi:2027-4

> <Gold.Version>
5.8.1

> <Gold.Id.Protein>
6NUR|6NUR_protein|mol2

> <Gold.PLP.Fitness>
51.4232

> <Gold.PLP.PLP>
-36.0965

> <Gold.PLP.part.hbond>
-2.2781

> <Gold.PLP.part.metal>
0.0000

> <Gold.PLP.part.buried>
4.4142

> <Gold.PLP.part.nonpolar>
-37.6390

> <Gold.PLP.part.repulsive>
0.1673

> <Gold.PLP.ligand.clash>
0.0000

> <Gold.PLP.ligand.torsion>
1.1389

> <Gold.PLP.Chemscore.Hbond>
3.0000

> <Gold.PLP.Chemscore.CHOScore>
2.7719

> <Gold.PLP.Chemscore.Metal>
0.0000

> <Gold.Chemscore.Hbonds>
donor molecule, donor type, donor heavy atom, donor atom, acceptor molecule, acceptor atom, score
      L1  H    10    33       P1 10175  1.00
      L1  H    12    50       P1 10175  1.72
      L1  C     6    29       P1  7957  0.76
      L1  C    20    45       P1 10171  1.00
      L1  C    20    45       P1 10175  0.86

> <Gold.PLP.Chemscore.Internal.Correction>
0.2890

> <Gold.Rescore>
     Score         DG    S(hbond)    S(metal)    S(lipo)     H(rot)  DE(clash)    DE(int)     intcor
     14.48     -18.24       1.97        0.00     107.62       2.50       2.70       1.06       ----

> <Gold.Chemscore.Fitness>
14.4810

> <Gold.Chemscore.DG>
-18.2362

> <Gold.Chemscore.ZeroCoef>
-5.4800

> <Gold.Chemscore.Hbond>
1.9692

> <Gold.Chemscore.Metal>
0.0000

> <Gold.Chemscore.Lipo>
107.6171

> <Gold.Chemscore.Internal_Hbond>
0.0000

> <Gold.Chemscore.DEClash>
2.6984

> <Gold.Chemscore.DEInternal>
1.0568

> <Gold.Chemscore.Rot>
2.5047

> <Gold.Chemscore.Internal.Correction>
   9.000000E+99

> <Gold.Chemscore.Hbonds>
donor molecule, donor type, donor heavy atom, donor atom, acceptor molecule, acceptor atom, score
      L1  H    10    33       P1 10175  0.96
      L1  H    12    50       P1 10175  0.84

> <Gold.Chemscore.Hbond.Weighted>
-6.5771

> <Gold.Chemscore.Metal.Weighted>
-0.0000

> <Gold.Chemscore.Lipo.Weighted>
-12.5912

> <Gold.Chemscore.Internal_Hbond.Weighted>
0.0000

> <Gold.Chemscore.DEClash.Weighted>
2.6984

> <Gold.Chemscore.DEInternal.Weighted>
1.0568

> <Gold.Chemscore.Rot.Weighted>
6.4120

> <Gold.Chemscore.Internal.Correction.Weighted>
   9.000000E+99

> <Gold.Protein.RotatedTorsions>
[ 6907 6896 6895 6894 ] final  116.38 input  -60.11 | X-H torsion
[ 7974 7965 7964 7962 ] final   18.29 input  175.53 | X-H torsion
[ 8008 7997 7996 7995 ] final    2.24 input   59.86 | X-H torsion
[ 10167 10162 10161 10158 ] final  169.71 input  -65.29 | X-H torsion
[ 10718 10713 10712 10709 ] final   38.40 input   66.30 | X-H torsion
[ 10763 10752 10751 10750 ] final -150.24 input  -60.55 | X-H torsion
[ 11005 11000 10999 10996 ] final -173.03 input  -57.11 | X-H torsion

> <Gold.Protein.ActiveResidues>
 VAL166  LYS551  ARG553  GLY616  TRP617  ASP618  TYR619  PRO620  LYS621  CYS622 
 ASP623  PHE694  ASN695  SER759  ASP760  ASP761  ALA762  ILE779  LEU786  VAL792 
 PHE793  MET794  SER795  GLU796  ALA797  LYS798  CYS799  TRP800  GLU811  SER814 

> <Gold.Protein.RotatedAtoms>
  152.4682  133.7969  159.6931 H   0  0  0  0  0  0  0  0  0  0  0  0  # atno 6907 bound_to 6896
  150.8657  133.7569  159.2984 H   0  0  0  0  0  0  0  0  0  0  0  0  # atno 6908 bound_to 6896
  151.5120  135.1068  159.9908 H   0  0  0  0  0  0  0  0  0  0  0  0  # atno 6909 bound_to 6896
  146.2190  139.8479  142.8628 H   0  0  0  0  0  0  0  0  0  0  0  0  # atno 7974 bound_to 7965
  154.6892  140.2649  155.6830 H   0  0  0  0  0  0  0  0  0  0  0  0  # atno 8008 bound_to 7997
  156.2726  140.2794  156.1387 H   0  0  0  0  0  0  0  0  0  0  0  0  # atno 8009 bound_to 7997
  155.0921  140.0373  157.2662 H   0  0  0  0  0  0  0  0  0  0  0  0  # atno 8010 bound_to 7997
  139.4999  144.3677  151.9758 H   0  0  0  0  0  0  0  0  0  0  0  0  # atno 10167 bound_to 10162
  157.3583  130.7636  149.7029 H   0  0  0  0  0  0  0  0  0  0  0  0  # atno 10718 bound_to 10713
  154.8130  135.3289  154.7252 H   0  0  0  0  0  0  0  0  0  0  0  0  # atno 10763 bound_to 10752
  153.7898  135.6912  153.4878 H   0  0  0  0  0  0  0  0  0  0  0  0  # atno 10764 bound_to 10752
  153.1924  135.4546  155.0112 H   0  0  0  0  0  0  0  0  0  0  0  0  # atno 10765 bound_to 10752
  140.4903  134.5991  157.4952 H   0  0  0  0  0  0  0  0  0  0  0  0  # atno 11005 bound_to 11000
  145.2832  141.0145  143.3705 LP  0  0  0  0  0  0  0  0  0  0  0  0  # atno 17320 bound_to 7965
  144.9134  139.4500  143.6576 LP  0  0  0  0  0  0  0  0  0  0  0  0  # atno 17321 bound_to 7965
  140.3113  144.3535  150.6033 LP  0  0  0  0  0  0  0  0  0  0  0  0  # atno 17342 bound_to 10162
  140.5797  143.2173  151.7451 LP  0  0  0  0  0  0  0  0  0  0  0  0  # atno 17343 bound_to 10162
  155.9733  130.4121  150.4014 LP  0  0  0  0  0  0  0  0  0  0  0  0  # atno 17370 bound_to 10713
  157.2087  131.0455  151.2611 LP  0  0  0  0  0  0  0  0  0  0  0  0  # atno 17371 bound_to 10713
  139.9773  134.7194  155.9925 LP  0  0  0  0  0  0  0  0  0  0  0  0  # atno 17394 bound_to 11000
  141.1487  133.6552  156.3947 LP  0  0  0  0  0  0  0  0  0  0  0  0  # atno 17395 bound_to 11000

$$$$
