AV-unprocessed.smi:3221|AV-procd|sdf|12302|dock7
  -GOLD-   2272018143D 1   1.00000     0.00000
 Structure written by MMmdl.
 27 28  0  0  0  0  0  0  0  0  2 V2000
  150.5286  139.5008  154.5154 F   0  0  0  0  0  0  0  0  0  0  0  0
  151.3261  138.6677  155.1840 C   0  0  0  0  0  0  0  0  0  0  0  0
  150.6651  137.5219  155.3464 F   0  0  0  0  0  0  0  0  0  0  0  0
  152.3849  138.4198  154.4134 F   0  0  0  0  0  0  0  0  0  0  0  0
  151.7441  139.2438  156.5061 C   0  0  0  0  0  0  0  0  0  0  0  0
  152.5645  138.6649  157.4435 C   0  0  0  0  0  0  0  0  0  0  0  0
  152.7792  139.6820  158.8416 S   0  0  0  0  0  0  0  0  0  0  0  0
  151.7286  140.8794  158.0940 C   0  0  0  0  0  0  0  0  0  0  0  0
  151.3776  142.1811  158.7420 C   0  0  1  0  0  0  0  0  0  0  0  0
  152.6056  143.0875  158.9487 C   0  0  0  0  0  0  0  0  0  0  0  0
  152.1915  144.4084  159.6154 C   0  0  0  0  0  0  0  0  0  0  0  0
  151.0638  145.0933  158.8253 C   0  0  0  0  0  0  0  0  0  0  0  0
  149.9033  144.1878  158.6795 N   0  3  0  0  0  0  0  0  0  0  0  0
  150.2418  142.9167  158.0021 C   0  0  0  0  0  0  0  0  0  0  0  0
  151.2803  140.5062  156.8919 N   0  0  0  0  0  0  0  0  0  0  0  0
  153.0533  137.7029  157.3965 H   0  0  0  0  0  0  0  0  0  0  0  0
  150.9985  141.9332  159.7346 H   0  0  0  0  0  0  0  0  0  0  0  0
  153.3531  142.5803  159.5599 H   0  0  0  0  0  0  0  0  0  0  0  0
  153.0783  143.2987  157.9886 H   0  0  0  0  0  0  0  0  0  0  0  0
  151.8596  144.2160  160.6367 H   0  0  0  0  0  0  0  0  0  0  0  0
  153.0521  145.0737  159.6908 H   0  0  0  0  0  0  0  0  0  0  0  0
  150.7436  146.0031  159.3335 H   0  0  0  0  0  0  0  0  0  0  0  0
  151.4173  145.3873  157.8360 H   0  0  0  0  0  0  0  0  0  0  0  0
  149.5442  143.9757  159.5995 H   0  0  0  0  0  0  0  0  0  0  0  0
  150.5329  143.1335  156.9730 H   0  0  0  0  0  0  0  0  0  0  0  0
  149.3489  142.2925  157.9563 H   0  0  0  0  0  0  0  0  0  0  0  0
  149.1836  144.6590  158.1500 H   0  0  0  0  0  0  0  0  0  0  0  0
  1  2  1  0  0  0  0
  2  3  1  0  0  0  0
  2  4  1  0  0  0  0
  2  5  1  0  0  0  0
  5 15  1  0  0  0  0
  5  6  2  0  0  0  0
  6  7  1  0  0  0  0
  6 16  1  0  0  0  0
  7  8  1  0  0  0  0
  8  9  1  0  0  0  0
  8 15  2  0  0  0  0
  9 14  1  0  0  0  0
  9 10  1  0  0  0  0
  9 17  1  0  0  0  0
 10 11  1  0  0  0  0
 10 18  1  0  0  0  0
 10 19  1  0  0  0  0
 11 12  1  0  0  0  0
 11 20  1  0  0  0  0
 11 21  1  0  0  0  0
 12 13  1  0  0  0  0
 12 22  1  0  0  0  0
 12 23  1  0  0  0  0
 13 14  1  0  0  0  0
 13 24  1  0  0  0  0
 13 27  1  0  0  0  0
 14 25  1  0  0  0  0
 14 26  1  0  0  0  0
M  CHG  1  13   1
M  END
> <s_m_source_file>
AV-unprocessed.smi

> <i_m_source_file_index>
3221

> <i_lp_mmshare_version>
43012

> <i_f3d_flags>
0

> <s_epik_input>
RkMoRikoRiljMVtjSF1zYyhuMSlbQ0BASF0yW0NIMl1bQ0gyXVtDSDJdW05IXVtDSDJdMg==

> <s_epik_cmdline>
J2VwaWtfcHl0aG9uJywgJy1waCcsICc3LjAnLCAnLXRuJywgJzgnLCAnLW1hJywgJzIwMCcsICctbWV0YWxfYmluZGluZycsICctaW1hZScsICc8aW5maWxlLm1hZT4nLCAnLW9tYWUnLCAnPG91dGZpbGUubWFlPic=

> <r_epik_Ionization_Penalty>
0.000426856

> <r_epik_Ionization_Penalty_Charging>
0.000426856

> <r_epik_Ionization_Penalty_Neutral>
2.38238e-11

> <r_epik_State_Penalty>
0.00026276

> <r_epik_Charging_Adjusted_Penalty>
0.000689616

> <i_epik_Tot_Q>
1

> <i_epik_Tot_abs_Q>
1

> <r_epik_Metal_State_Penalty>
-0

> <b_epik_Metal_Only>
0

> <s_lp_Force_Field>
OPLS_2005

> <r_lp_Energy>
6.82196

> <b_lp_Chiralities_Consistent>
1

> <s_lp_Variant>
AV-unprocessed.smi:3221-2

> <Gold.Version>
5.8.1

> <Gold.Id.Protein>
6NUR|6NUR_protein|mol2

> <Gold.PLP.Fitness>
38.1891

> <Gold.PLP.PLP>
-32.3883

> <Gold.PLP.part.hbond>
-1.4511

> <Gold.PLP.part.metal>
0.0000

> <Gold.PLP.part.buried>
-3.2265

> <Gold.PLP.part.nonpolar>
-28.3042

> <Gold.PLP.part.repulsive>
0.1108

> <Gold.PLP.ligand.clash>
0.0000

> <Gold.PLP.ligand.torsion>
0.1260

> <Gold.PLP.Chemscore.Hbond>
2.0000

> <Gold.PLP.Chemscore.CHOScore>
0.0000

> <Gold.PLP.Chemscore.Metal>
0.0000

> <Gold.Chemscore.Hbonds>
donor molecule, donor type, donor heavy atom, donor atom, acceptor molecule, acceptor atom, score
      L1  H    13    27       P1  8029  2.00

> <Gold.PLP.Chemscore.Internal.Correction>
0.0528

> <Gold.Rescore>
     Score         DG    S(hbond)    S(metal)    S(lipo)     H(rot)  DE(clash)    DE(int)     intcor
     15.43     -15.48       0.90        0.00      81.70       1.00       0.00       0.05       ----

> <Gold.Chemscore.Fitness>
15.4255

> <Gold.Chemscore.DG>
-15.4806

> <Gold.Chemscore.ZeroCoef>
-5.4800

> <Gold.Chemscore.Hbond>
0.8987

> <Gold.Chemscore.Metal>
0.0000

> <Gold.Chemscore.Lipo>
81.7003

> <Gold.Chemscore.Internal_Hbond>
0.0000

> <Gold.Chemscore.DEClash>
0.0048

> <Gold.Chemscore.DEInternal>
0.0502

> <Gold.Chemscore.Rot>
1.0000

> <Gold.Chemscore.Internal.Correction>
   9.000000E+99

> <Gold.Chemscore.Hbonds>
donor molecule, donor type, donor heavy atom, donor atom, acceptor molecule, acceptor atom, score
      L1  H    13    27       P1  8029  0.24

> <Gold.Chemscore.Hbond.Weighted>
-3.0016

> <Gold.Chemscore.Metal.Weighted>
-0.0000

> <Gold.Chemscore.Lipo.Weighted>
-9.5589

> <Gold.Chemscore.Internal_Hbond.Weighted>
0.0000

> <Gold.Chemscore.DEClash.Weighted>
0.0048

> <Gold.Chemscore.DEInternal.Weighted>
0.0502

> <Gold.Chemscore.Rot.Weighted>
2.5600

> <Gold.Chemscore.Internal.Correction.Weighted>
   9.000000E+99

> <Gold.Protein.RotatedTorsions>
[ 6907 6896 6895 6894 ] final  -78.65 input  -60.11 | X-H torsion
[ 7974 7965 7964 7962 ] final   34.63 input  175.53 | X-H torsion
[ 8008 7997 7996 7995 ] final -107.41 input   59.86 | X-H torsion
[ 10167 10162 10161 10158 ] final -178.88 input  -65.29 | X-H torsion
[ 10718 10713 10712 10709 ] final -120.68 input   66.30 | X-H torsion
[ 10763 10752 10751 10750 ] final -150.47 input  -60.55 | X-H torsion
[ 11005 11000 10999 10996 ] final -170.53 input  -57.11 | X-H torsion

> <Gold.Protein.ActiveResidues>
 VAL166  LYS551  ARG553  GLY616  TRP617  ASP618  TYR619  PRO620  LYS621  CYS622 
 ASP623  PHE694  ASN695  SER759  ASP760  ASP761  ALA762  ILE779  LEU786  VAL792 
 PHE793  MET794  SER795  GLU796  ALA797  LYS798  CYS799  TRP800  GLU811  SER814 

> <Gold.Protein.RotatedAtoms>
  150.6968  134.4240  159.5217 H   0  0  0  0  0  0  0  0  0  0  0  0  # atno 6907 bound_to 6896
  152.1978  134.8612  160.0520 H   0  0  0  0  0  0  0  0  0  0  0  0  # atno 6908 bound_to 6896
  151.9543  133.3640  159.4048 H   0  0  0  0  0  0  0  0  0  0  0  0  # atno 6909 bound_to 6896
  146.1339  139.6244  142.9208 H   0  0  0  0  0  0  0  0  0  0  0  0  # atno 7974 bound_to 7965
  154.9290  140.0405  157.2038 H   0  0  0  0  0  0  0  0  0  0  0  0  # atno 8008 bound_to 7997
  154.8179  140.2879  155.5785 H   0  0  0  0  0  0  0  0  0  0  0  0  # atno 8009 bound_to 7997
  156.2977  140.2524  156.3081 H   0  0  0  0  0  0  0  0  0  0  0  0  # atno 8010 bound_to 7997
  139.5411  144.2359  152.0898 H   0  0  0  0  0  0  0  0  0  0  0  0  # atno 10167 bound_to 10162
  156.1277  130.6371  150.9569 H   0  0  0  0  0  0  0  0  0  0  0  0  # atno 10718 bound_to 10713
  154.8117  135.3283  154.7287 H   0  0  0  0  0  0  0  0  0  0  0  0  # atno 10763 bound_to 10752
  153.7935  135.6909  153.4872 H   0  0  0  0  0  0  0  0  0  0  0  0  # atno 10764 bound_to 10752
  153.1901  135.4554  155.0085 H   0  0  0  0  0  0  0  0  0  0  0  0  # atno 10765 bound_to 10752
  140.5185  134.5733  157.5040 H   0  0  0  0  0  0  0  0  0  0  0  0  # atno 11005 bound_to 11000
  145.5199  141.0432  143.2441 LP  0  0  0  0  0  0  0  0  0  0  0  0  # atno 17320 bound_to 7965
  144.7719  139.6715  143.7191 LP  0  0  0  0  0  0  0  0  0  0  0  0  # atno 17321 bound_to 7965
  140.1838  144.4818  150.6514 LP  0  0  0  0  0  0  0  0  0  0  0  0  # atno 17342 bound_to 10162
  140.6642  143.2262  151.5784 LP  0  0  0  0  0  0  0  0  0  0  0  0  # atno 17343 bound_to 10162
  157.6457  131.0904  150.8158 LP  0  0  0  0  0  0  0  0  0  0  0  0  # atno 17370 bound_to 10713
  156.8246  130.4995  149.5339 LP  0  0  0  0  0  0  0  0  0  0  0  0  # atno 17371 bound_to 10713
  139.9619  134.7438  156.0219 LP  0  0  0  0  0  0  0  0  0  0  0  0  # atno 17394 bound_to 11000
  141.1347  133.6578  156.3561 LP  0  0  0  0  0  0  0  0  0  0  0  0  # atno 17395 bound_to 11000

$$$$
