AV-unprocessed.smi:173|AV-procd|sdf|1423|dock10
  -GOLD-   2262019193D 1   1.00000     0.00000
 Structure written by MMmdl.
 60 64  0  0  0  0  0  0  0  0  1 V2000
  146.7056  137.1055  160.3001 O   0  0  0  0  0  0  0  0  0  0  0  0
  147.7641  136.1763  160.4574 C   0  0  0  0  0  0  0  0  0  0  0  0
  148.6883  136.2898  159.2187 C   0  0  0  0  0  0  0  0  0  0  0  0
  148.3103  135.4145  158.1204 N   0  0  0  0  0  0  0  0  0  0  0  0
  147.0389  135.1978  157.6369 C   0  0  0  0  0  0  0  0  0  0  0  0
  146.9592  134.3773  156.6247 N   0  0  0  0  0  0  0  0  0  0  0  0
  148.2749  133.9919  156.4036 C   0  0  0  0  0  0  0  0  0  0  0  0
  148.9075  133.1427  155.4598 C   0  0  0  0  0  0  0  0  0  0  0  0
  148.2103  132.5053  154.4924 N   0  0  0  0  0  0  0  0  0  0  0  0
  148.1269  133.2204  153.2152 C   0  0  0  0  0  0  0  0  0  0  0  0
  146.8096  132.9471  152.4639 C   0  0  2  0  0  0  0  0  0  0  0  0
  146.7590  133.5750  151.0741 C   0  0  0  0  0  0  0  0  0  0  0  0
  145.2691  133.6659  150.7868 C   0  0  0  0  0  0  0  0  0  0  0  0
  144.6201  133.5746  152.1712 C   0  0  0  0  0  0  0  0  0  0  0  0
  145.7015  133.5734  153.0926 O   0  0  0  0  0  0  0  0  0  0  0  0
  148.4065  131.0532  154.5280 C   0  0  0  0  0  0  0  0  0  0  0  0
  149.8043  130.5747  154.1188 C   0  0  0  0  0  0  0  0  0  0  0  0
  149.6216  129.0892  153.7785 C   0  0  0  0  0  0  0  0  0  0  0  0
  148.1154  128.8707  153.5515 C   0  0  0  0  0  0  0  0  0  0  0  0
  147.4649  130.2554  153.6228 C   0  0  0  0  0  0  0  0  0  0  0  0
  150.2550  132.9870  155.5426 N   0  0  0  0  0  0  0  0  0  0  0  0
  150.9428  133.6351  156.4875 C   0  0  0  0  0  0  0  0  0  0  0  0
  150.4897  134.4696  157.4264 N   0  0  0  0  0  0  0  0  0  0  0  0
  149.1365  134.6225  157.3428 C   0  0  0  0  0  0  0  0  0  0  0  0
  148.5393  136.5348  161.7411 C   0  0  0  0  0  0  0  0  0  0  0  0
  147.7128  136.2684  163.0119 C   0  0  0  0  0  0  0  0  0  0  0  0
  147.2779  134.9145  163.0334 O   0  0  0  0  0  0  0  0  0  0  0  0
  146.4097  134.6012  161.9512 C   0  0  0  0  0  0  0  0  0  0  0  0
  147.1502  134.7674  160.6123 C   0  0  0  0  0  0  0  0  0  0  0  0
  145.8885  136.6647  160.4772 H   0  0  0  0  0  0  0  0  0  0  0  0
  148.7044  137.3161  158.8488 H   0  0  0  0  0  0  0  0  0  0  0  0
  149.7161  136.0529  159.4976 H   0  0  0  0  0  0  0  0  0  0  0  0
  146.1676  135.6821  158.0534 H   0  0  0  0  0  0  0  0  0  0  0  0
  148.2591  134.2923  153.3678 H   0  0  0  0  0  0  0  0  0  0  0  0
  148.9528  132.9061  152.5800 H   0  0  0  0  0  0  0  0  0  0  0  0
  146.6282  131.8729  152.3876 H   0  0  0  0  0  0  0  0  0  0  0  0
  147.1875  134.5779  151.1011 H   0  0  0  0  0  0  0  0  0  0  0  0
  147.3024  132.9960  150.3272 H   0  0  0  0  0  0  0  0  0  0  0  0
  145.0198  134.5966  150.2761 H   0  0  0  0  0  0  0  0  0  0  0  0
  144.9391  132.8382  150.1581 H   0  0  0  0  0  0  0  0  0  0  0  0
  143.9434  134.4056  152.3717 H   0  0  0  0  0  0  0  0  0  0  0  0
  144.0581  132.6451  152.2732 H   0  0  0  0  0  0  0  0  0  0  0  0
  148.2268  130.7077  155.5485 H   0  0  0  0  0  0  0  0  0  0  0  0
  150.1475  131.1024  153.2284 H   0  0  0  0  0  0  0  0  0  0  0  0
  150.5458  130.7345  154.9022 H   0  0  0  0  0  0  0  0  0  0  0  0
  150.2034  128.8189  152.8967 H   0  0  0  0  0  0  0  0  0  0  0  0
  149.9688  128.4627  154.6009 H   0  0  0  0  0  0  0  0  0  0  0  0
  147.9092  128.3759  152.6020 H   0  0  0  0  0  0  0  0  0  0  0  0
  147.7160  128.2353  154.3429 H   0  0  0  0  0  0  0  0  0  0  0  0
  146.4460  130.2191  154.0097 H   0  0  0  0  0  0  0  0  0  0  0  0
  147.4225  130.6766  152.6192 H   0  0  0  0  0  0  0  0  0  0  0  0
  152.0091  133.4643  156.4887 H   0  0  0  0  0  0  0  0  0  0  0  0
  149.4495  135.9358  161.7917 H   0  0  0  0  0  0  0  0  0  0  0  0
  148.8612  137.5768  161.7161 H   0  0  0  0  0  0  0  0  0  0  0  0
  148.3213  136.4542  163.8971 H   0  0  0  0  0  0  0  0  0  0  0  0
  146.8552  136.9399  163.0728 H   0  0  0  0  0  0  0  0  0  0  0  0
  146.0701  133.5714  162.0622 H   0  0  0  0  0  0  0  0  0  0  0  0
  145.5196  135.2313  161.9890 H   0  0  0  0  0  0  0  0  0  0  0  0
  146.4675  134.5471  159.7907 H   0  0  0  0  0  0  0  0  0  0  0  0
  147.9446  134.0219  160.5601 H   0  0  0  0  0  0  0  0  0  0  0  0
  1  2  1  0  0  0  0
  1 30  1  0  0  0  0
  2 29  1  0  0  0  0
  2  3  1  0  0  0  0
  2 25  1  0  0  0  0
  3  4  1  0  0  0  0
  3 31  1  0  0  0  0
  3 32  1  0  0  0  0
  4 24  1  0  0  0  0
  4  5  1  0  0  0  0
  5  6  2  0  0  0  0
  5 33  1  0  0  0  0
  6  7  1  0  0  0  0
  7 24  2  0  0  0  0
  7  8  1  0  0  0  0
  8  9  1  0  0  0  0
  8 21  2  0  0  0  0
  9 10  1  0  0  0  0
  9 16  1  0  0  0  0
 10 11  1  0  0  0  0
 10 34  1  0  0  0  0
 10 35  1  0  0  0  0
 11 15  1  0  0  0  0
 11 12  1  0  0  0  0
 11 36  1  0  0  0  0
 12 13  1  0  0  0  0
 12 37  1  0  0  0  0
 12 38  1  0  0  0  0
 13 14  1  0  0  0  0
 13 39  1  0  0  0  0
 13 40  1  0  0  0  0
 14 15  1  0  0  0  0
 14 41  1  0  0  0  0
 14 42  1  0  0  0  0
 16 20  1  0  0  0  0
 16 17  1  0  0  0  0
 16 43  1  0  0  0  0
 17 18  1  0  0  0  0
 17 44  1  0  0  0  0
 17 45  1  0  0  0  0
 18 19  1  0  0  0  0
 18 46  1  0  0  0  0
 18 47  1  0  0  0  0
 19 20  1  0  0  0  0
 19 48  1  0  0  0  0
 19 49  1  0  0  0  0
 20 50  1  0  0  0  0
 20 51  1  0  0  0  0
 21 22  1  0  0  0  0
 22 23  2  0  0  0  0
 22 52  1  0  0  0  0
 23 24  1  0  0  0  0
 25 26  1  0  0  0  0
 25 53  1  0  0  0  0
 25 54  1  0  0  0  0
 26 27  1  0  0  0  0
 26 55  1  0  0  0  0
 26 56  1  0  0  0  0
 27 28  1  0  0  0  0
 28 29  1  0  0  0  0
 28 57  1  0  0  0  0
 28 58  1  0  0  0  0
 29 59  1  0  0  0  0
 29 60  1  0  0  0  0
M  END
> <s_m_source_file>
AV-unprocessed.smi

> <i_m_source_file_index>
173

> <i_lp_mmshare_version>
43012

> <i_f3d_flags>
0

> <s_epik_input>
W0NIMl0xW0NIMl1PW0NIMl1bQ0gyXUMxKFtPSF0pW0NIMl1uKFtjSF1uMiljKGMyMyluW2NIXW5jM04oW0NIMl1bQ0BASF00W0NIMl1bQ0gyXVtDSDJdTzQpW0NIXTVbQ0gyXVtDSDJdW0NIMl1bQ0gyXTU=

> <s_epik_cmdline>
J2VwaWtfcHl0aG9uJywgJy1waCcsICc3LjAnLCAnLXRuJywgJzgnLCAnLW1hJywgJzIwMCcsICctbWV0YWxfYmluZGluZycsICctaW1hZScsICc8aW5maWxlLm1hZT4nLCAnLW9tYWUnLCAnPG91dGZpbGUubWFlPic=

> <r_lp_tautomer_probability>
1

> <r_epik_Ionization_Penalty>
0.0053129

> <r_epik_Ionization_Penalty_Charging>
0

> <r_epik_Ionization_Penalty_Neutral>
0.0053129

> <r_epik_State_Penalty>
0.00367355

> <r_epik_Charging_Adjusted_Penalty>
0.00367355

> <i_epik_Tot_Q>
0

> <i_epik_Tot_abs_Q>
0

> <r_epik_Metal_State_Penalty>
-0

> <b_epik_Metal_Only>
0

> <s_lp_Force_Field>
OPLS_2005

> <r_lp_Energy>
56.2303

> <b_lp_Chiralities_Consistent>
1

> <s_lp_Variant>
AV-unprocessed.smi:173-1

> <Gold.Version>
5.8.1

> <Gold.Id.Protein>
6NUR|6NUR_protein|mol2

> <Gold.PLP.Fitness>
41.8613

> <Gold.PLP.PLP>
-39.0651

> <Gold.PLP.part.hbond>
-1.9924

> <Gold.PLP.part.metal>
0.0000

> <Gold.PLP.part.buried>
-4.6107

> <Gold.PLP.part.nonpolar>
-31.6680

> <Gold.PLP.part.repulsive>
0.1287

> <Gold.PLP.ligand.clash>
0.0000

> <Gold.PLP.ligand.torsion>
1.5029

> <Gold.PLP.Chemscore.Hbond>
1.5993

> <Gold.PLP.Chemscore.CHOScore>
0.0000

> <Gold.PLP.Chemscore.Metal>
0.0000

> <Gold.Chemscore.Hbonds>
donor molecule, donor type, donor heavy atom, donor atom, acceptor molecule, acceptor atom, score
      P1  H  6896  6909       L1    23  0.61
      P1  H  6934  6947       L1     1  0.91

> <Gold.PLP.Chemscore.Internal.Correction>
1.0043

> <Gold.Rescore>
     Score         DG    S(hbond)    S(metal)    S(lipo)     H(rot)  DE(clash)    DE(int)     intcor
      9.39     -14.43       1.42        0.00      92.62       2.59       0.85       4.19       ----

> <Gold.Chemscore.Fitness>
9.3885

> <Gold.Chemscore.DG>
-14.4262

> <Gold.Chemscore.ZeroCoef>
-5.4800

> <Gold.Chemscore.Hbond>
1.4205

> <Gold.Chemscore.Metal>
0.0000

> <Gold.Chemscore.Lipo>
92.6177

> <Gold.Chemscore.Internal_Hbond>
0.0000

> <Gold.Chemscore.DEClash>
0.8471

> <Gold.Chemscore.DEInternal>
4.1906

> <Gold.Chemscore.Rot>
2.5916

> <Gold.Chemscore.Internal.Correction>
   9.000000E+99

> <Gold.Chemscore.Hbonds>
donor molecule, donor type, donor heavy atom, donor atom, acceptor molecule, acceptor atom, score
      P1  H  6896  6909       L1    23  0.22
      P1  H  6934  6947       L1     1  0.77

> <Gold.Chemscore.Hbond.Weighted>
-4.7445

> <Gold.Chemscore.Metal.Weighted>
-0.0000

> <Gold.Chemscore.Lipo.Weighted>
-10.8363

> <Gold.Chemscore.Internal_Hbond.Weighted>
0.0000

> <Gold.Chemscore.DEClash.Weighted>
0.8471

> <Gold.Chemscore.DEInternal.Weighted>
4.1906

> <Gold.Chemscore.Rot.Weighted>
6.6346

> <Gold.Chemscore.Internal.Correction.Weighted>
   9.000000E+99

> <Gold.Protein.RotatedTorsions>
[ 6907 6896 6895 6894 ] final    8.38 input  -60.11 | X-H torsion
[ 7974 7965 7964 7962 ] final  -78.68 input  175.53 | X-H torsion
[ 8008 7997 7996 7995 ] final  -50.85 input   59.86 | X-H torsion
[ 10167 10162 10161 10158 ] final   71.01 input  -65.29 | X-H torsion
[ 10718 10713 10712 10709 ] final -149.08 input   66.30 | X-H torsion
[ 10763 10752 10751 10750 ] final   33.16 input  -60.55 | X-H torsion
[ 11005 11000 10999 10996 ] final -120.43 input  -57.11 | X-H torsion

> <Gold.Protein.ActiveResidues>
 VAL166  LYS551  ARG553  GLY616  TRP617  ASP618  TYR619  PRO620  LYS621  CYS622 
 ASP623  PHE694  ASN695  SER759  ASP760  ASP761  ALA762  ILE779  LEU786  VAL792 
 PHE793  MET794  SER795  GLU796  ALA797  LYS798  CYS799  TRP800  GLU811  SER814 

> <Gold.Protein.RotatedAtoms>
  151.7051  135.0923  160.0257 H   0  0  0  0  0  0  0  0  0  0  0  0  # atno 6907 bound_to 6896
  152.3696  133.6398  159.6085 H   0  0  0  0  0  0  0  0  0  0  0  0  # atno 6908 bound_to 6896
  150.7663  133.9208  159.3439 H   0  0  0  0  0  0  0  0  0  0  0  0  # atno 6909 bound_to 6896
  145.5832  140.9444  143.1332 H   0  0  0  0  0  0  0  0  0  0  0  0  # atno 7974 bound_to 7965
  154.4070  140.1262  156.4733 H   0  0  0  0  0  0  0  0  0  0  0  0  # atno 8008 bound_to 7997
  155.7158  140.3493  155.4974 H   0  0  0  0  0  0  0  0  0  0  0  0  # atno 8009 bound_to 7997
  155.9259  140.1061  157.1160 H   0  0  0  0  0  0  0  0  0  0  0  0  # atno 8010 bound_to 7997
  140.0508  144.5314  150.7365 H   0  0  0  0  0  0  0  0  0  0  0  0  # atno 10167 bound_to 10162
  156.4286  130.8064  151.2290 H   0  0  0  0  0  0  0  0  0  0  0  0  # atno 10718 bound_to 10713
  153.0226  135.6394  154.1468 H   0  0  0  0  0  0  0  0  0  0  0  0  # atno 10763 bound_to 10752
  154.1201  135.2847  155.3212 H   0  0  0  0  0  0  0  0  0  0  0  0  # atno 10764 bound_to 10752
  154.6270  135.5505  153.7700 H   0  0  0  0  0  0  0  0  0  0  0  0  # atno 10765 bound_to 10752
  141.0144  134.0217  157.3369 H   0  0  0  0  0  0  0  0  0  0  0  0  # atno 11005 bound_to 11000
  144.7384  139.7518  143.7320 LP  0  0  0  0  0  0  0  0  0  0  0  0  # atno 17320 bound_to 7965
  146.1701  139.4848  142.9933 LP  0  0  0  0  0  0  0  0  0  0  0  0  # atno 17321 bound_to 7965
  140.7218  143.2596  151.4254 LP  0  0  0  0  0  0  0  0  0  0  0  0  # atno 17342 bound_to 10162
  139.5954  144.1408  152.2138 LP  0  0  0  0  0  0  0  0  0  0  0  0  # atno 17343 bound_to 10162
  157.7508  131.0205  150.3713 LP  0  0  0  0  0  0  0  0  0  0  0  0  # atno 17370 bound_to 10713
  156.4046  130.3922  149.6935 LP  0  0  0  0  0  0  0  0  0  0  0  0  # atno 17371 bound_to 10713
  139.9108  135.0189  156.7685 LP  0  0  0  0  0  0  0  0  0  0  0  0  # atno 17394 bound_to 11000
  140.6679  133.9586  155.7840 LP  0  0  0  0  0  0  0  0  0  0  0  0  # atno 17395 bound_to 11000

$$$$
