AV-unprocessed.smi:2451|AV-procd|sdf|9674|dock9
  -GOLD-   2272013313D 1   1.00000     0.00000
 Structure written by MMmdl.
 38 39  0  0  0  0  0  0  0  0  1 V2000
  151.5919  145.7380  160.0777 C   0  0  0  0  0  0  0  0  0  0  0  0
  152.3199  144.3936  159.8949 C   0  0  1  0  0  0  0  0  0  0  0  0
  152.3423  143.6330  161.2359 C   0  0  0  0  0  0  0  0  0  0  0  0
  153.0900  142.3004  161.1207 C   0  0  0  0  0  0  0  0  0  0  0  0
  152.4493  141.4194  160.0454 C   0  0  0  0  0  0  0  0  0  0  0  0
  152.4073  142.1371  158.6852 C   0  0  1  0  0  0  0  0  0  0  0  0
  151.7124  141.2716  157.7268 N   0  0  0  0  0  0  0  0  0  0  0  0
  151.8987  139.5628  157.8624 S   0  0  0  0  0  0  0  0  0  0  0  0
  153.3251  139.2536  157.6765 O   0  0  0  0  0  0  0  0  0  0  0  0
  151.2092  139.1370  159.0899 O   0  0  0  0  0  0  0  0  0  0  0  0
  150.9686  138.9464  156.3973 C   0  0  0  0  0  0  0  0  0  0  0  0
  150.0973  140.0426  155.8557 C   0  0  0  0  0  0  0  0  0  0  0  0
  149.0288  140.7223  156.5036 C   0  0  0  0  0  0  0  0  0  0  0  0
  148.5952  141.6074  155.5592 C   0  0  0  0  0  0  0  0  0  0  0  0
  149.3268  141.4859  154.4229 O   0  0  0  0  0  0  0  0  0  0  0  0
  150.2823  140.4826  154.6210 N   0  0  0  0  0  0  0  0  0  0  0  0
  151.7103  143.5216  158.7600 C   0  0  2  0  0  0  0  0  0  0  0  0
  151.7804  144.2387  157.3938 C   0  0  0  0  0  0  0  0  0  0  0  0
  150.5259  145.5909  160.2537 H   0  0  0  0  0  0  0  0  0  0  0  0
  151.7038  146.3838  159.2075 H   0  0  0  0  0  0  0  0  0  0  0  0
  151.9941  146.2883  160.9288 H   0  0  0  0  0  0  0  0  0  0  0  0
  153.3547  144.6160  159.6300 H   0  0  0  0  0  0  0  0  0  0  0  0
  152.8164  144.2449  162.0043 H   0  0  0  0  0  0  0  0  0  0  0  0
  151.3215  143.4504  161.5750 H   0  0  0  0  0  0  0  0  0  0  0  0
  154.1371  142.4825  160.8753 H   0  0  0  0  0  0  0  0  0  0  0  0
  153.0801  141.7832  162.0806 H   0  0  0  0  0  0  0  0  0  0  0  0
  153.0037  140.4840  159.9592 H   0  0  0  0  0  0  0  0  0  0  0  0
  151.4381  141.1523  160.3556 H   0  0  0  0  0  0  0  0  0  0  0  0
  153.4341  142.2882  158.3485 H   0  0  0  0  0  0  0  0  0  0  0  0
  150.7307  141.5326  157.6368 H   0  0  0  0  0  0  0  0  0  0  0  0
  151.6845  138.5949  155.6538 H   0  0  0  0  0  0  0  0  0  0  0  0
  150.3669  138.0932  156.7098 H   0  0  0  0  0  0  0  0  0  0  0  0
  148.6452  140.5849  157.5035 H   0  0  0  0  0  0  0  0  0  0  0  0
  147.8142  142.3532  155.5439 H   0  0  0  0  0  0  0  0  0  0  0  0
  150.6580  143.3547  158.9964 H   0  0  0  0  0  0  0  0  0  0  0  0
  152.8094  144.4830  157.1280 H   0  0  0  0  0  0  0  0  0  0  0  0
  151.2035  145.1624  157.3890 H   0  0  0  0  0  0  0  0  0  0  0  0
  151.3737  143.6228  156.5918 H   0  0  0  0  0  0  0  0  0  0  0  0
  1  2  1  0  0  0  0
  1 19  1  0  0  0  0
  1 20  1  0  0  0  0
  1 21  1  0  0  0  0
  2 17  1  0  0  0  0
  2  3  1  0  0  0  0
  2 22  1  0  0  0  0
  3  4  1  0  0  0  0
  3 23  1  0  0  0  0
  3 24  1  0  0  0  0
  4  5  1  0  0  0  0
  4 25  1  0  0  0  0
  4 26  1  0  0  0  0
  5  6  1  0  0  0  0
  5 27  1  0  0  0  0
  5 28  1  0  0  0  0
  6  7  1  0  0  0  0
  6 17  1  0  0  0  0
  6 29  1  0  0  0  0
  7  8  1  0  0  0  0
  7 30  1  0  0  0  0
  8  9  2  0  0  0  0
  8 10  2  0  0  0  0
  8 11  1  0  0  0  0
 11 12  1  0  0  0  0
 11 31  1  0  0  0  0
 11 32  1  0  0  0  0
 12 16  2  0  0  0  0
 12 13  1  0  0  0  0
 13 14  2  0  0  0  0
 13 33  1  0  0  0  0
 14 15  1  0  0  0  0
 14 34  1  0  0  0  0
 15 16  1  0  0  0  0
 17 18  1  0  0  0  0
 17 35  1  0  0  0  0
 18 36  1  0  0  0  0
 18 37  1  0  0  0  0
 18 38  1  0  0  0  0
M  END
> <s_m_source_file>
AV-unprocessed.smi

> <i_m_source_file_index>
2451

> <i_lp_mmshare_version>
43012

> <i_f3d_flags>
0

> <s_epik_input>
W0NIM11bQ0BASF0xW0NIMl1bQ0gyXVtDSDJdW0NASF0oW0NASF0xW0NIM10pW05IXVMoPU8pKD1PKVtDSDJdYzJbY0hdW2NIXW9uMg==

> <s_epik_cmdline>
J2VwaWtfcHl0aG9uJywgJy1waCcsICc3LjAnLCAnLXRuJywgJzgnLCAnLW1hJywgJzIwMCcsICctbWV0YWxfYmluZGluZycsICctaW1hZScsICc8aW5maWxlLm1hZT4nLCAnLW9tYWUnLCAnPG91dGZpbGUubWFlPic=

> <r_lp_tautomer_probability>
1

> <r_epik_Ionization_Penalty>
8.73668e-05

> <r_epik_Ionization_Penalty_Charging>
0

> <r_epik_Ionization_Penalty_Neutral>
8.73668e-05

> <r_epik_State_Penalty>
-0

> <r_epik_Charging_Adjusted_Penalty>
0

> <i_epik_Tot_Q>
0

> <i_epik_Tot_abs_Q>
0

> <r_epik_Metal_State_Penalty>
0.0716439

> <b_epik_Metal_Only>
0

> <s_lp_Force_Field>
OPLS_2005

> <r_lp_Energy>
6.58047

> <b_lp_Chiralities_Consistent>
1

> <s_lp_Variant>
AV-unprocessed.smi:2451-6

> <Gold.Version>
5.8.1

> <Gold.Id.Protein>
6NUR|6NUR_protein|mol2

> <Gold.PLP.Fitness>
46.6065

> <Gold.PLP.PLP>
-38.4791

> <Gold.PLP.part.hbond>
-3.9347

> <Gold.PLP.part.metal>
0.0000

> <Gold.PLP.part.buried>
-2.4588

> <Gold.PLP.part.nonpolar>
-31.8815

> <Gold.PLP.part.repulsive>
0.2952

> <Gold.PLP.ligand.clash>
0.0024

> <Gold.PLP.ligand.torsion>
0.6001

> <Gold.PLP.Chemscore.Hbond>
2.3848

> <Gold.PLP.Chemscore.CHOScore>
0.6783

> <Gold.PLP.Chemscore.Metal>
0.0000

> <Gold.Chemscore.Hbonds>
donor molecule, donor type, donor heavy atom, donor atom, acceptor molecule, acceptor atom, score
      P1  H  7989  7998       L1    16  0.96
      P1  H  7997  8010       L1     9  1.00
      P1  H  8011  8017       L1    15  0.14
      L1  C    14    34       P1  8028  0.53

> <Gold.PLP.Chemscore.Internal.Correction>
0.1406

> <Gold.Rescore>
     Score         DG    S(hbond)    S(metal)    S(lipo)     H(rot)  DE(clash)    DE(int)     intcor
     17.35     -20.39       1.92        0.00     109.10       1.66       0.10       2.95       ----

> <Gold.Chemscore.Fitness>
17.3454

> <Gold.Chemscore.DG>
-20.3942

> <Gold.Chemscore.ZeroCoef>
-5.4800

> <Gold.Chemscore.Hbond>
1.9150

> <Gold.Chemscore.Metal>
0.0000

> <Gold.Chemscore.Lipo>
109.0986

> <Gold.Chemscore.Internal_Hbond>
0.0000

> <Gold.Chemscore.DEClash>
0.1037

> <Gold.Chemscore.DEInternal>
2.9451

> <Gold.Chemscore.Rot>
1.6588

> <Gold.Chemscore.Internal.Correction>
   9.000000E+99

> <Gold.Chemscore.Hbonds>
donor molecule, donor type, donor heavy atom, donor atom, acceptor molecule, acceptor atom, score
      P1  H  7989  7998       L1    16  0.46
      P1  H  7997  8010       L1     9  0.99
      P1  H  8011  8017       L1    15  0.08

> <Gold.Chemscore.Hbond.Weighted>
-6.3962

> <Gold.Chemscore.Metal.Weighted>
-0.0000

> <Gold.Chemscore.Lipo.Weighted>
-12.7645

> <Gold.Chemscore.Internal_Hbond.Weighted>
0.0000

> <Gold.Chemscore.DEClash.Weighted>
0.1037

> <Gold.Chemscore.DEInternal.Weighted>
2.9451

> <Gold.Chemscore.Rot.Weighted>
4.2466

> <Gold.Chemscore.Internal.Correction.Weighted>
   9.000000E+99

> <Gold.Protein.RotatedTorsions>
[ 6907 6896 6895 6894 ] final   56.03 input  -60.11 | X-H torsion
[ 7974 7965 7964 7962 ] final   51.95 input  175.53 | X-H torsion
[ 8008 7997 7996 7995 ] final   28.72 input   59.86 | X-H torsion
[ 10167 10162 10161 10158 ] final  123.21 input  -65.29 | X-H torsion
[ 10718 10713 10712 10709 ] final  -32.05 input   66.30 | X-H torsion
[ 10763 10752 10751 10750 ] final  -35.90 input  -60.55 | X-H torsion
[ 11005 11000 10999 10996 ] final  101.22 input  -57.11 | X-H torsion

> <Gold.Protein.ActiveResidues>
 VAL166  LYS551  ARG553  GLY616  TRP617  ASP618  TYR619  PRO620  LYS621  CYS622 
 ASP623  PHE694  ASN695  SER759  ASP760  ASP761  ALA762  ILE779  LEU786  VAL792 
 PHE793  MET794  SER795  GLU796  ALA797  LYS798  CYS799  TRP800  GLU811  SER814 

> <Gold.Protein.RotatedAtoms>
  152.3596  134.6891  160.0211 H   0  0  0  0  0  0  0  0  0  0  0  0  # atno 6907 bound_to 6896
  151.7218  133.3309  159.3325 H   0  0  0  0  0  0  0  0  0  0  0  0  # atno 6908 bound_to 6896
  150.7595  134.6375  159.6264 H   0  0  0  0  0  0  0  0  0  0  0  0  # atno 6909 bound_to 6896
  145.9862  139.4292  143.0102 H   0  0  0  0  0  0  0  0  0  0  0  0  # atno 7974 bound_to 7965
  155.0632  140.3192  155.4654 H   0  0  0  0  0  0  0  0  0  0  0  0  # atno 8008 bound_to 7997
  156.2808  140.2125  156.5703 H   0  0  0  0  0  0  0  0  0  0  0  0  # atno 8009 bound_to 7997
  154.7115  140.0497  157.0542 H   0  0  0  0  0  0  0  0  0  0  0  0  # atno 8010 bound_to 7997
  139.5813  144.6987  151.3522 H   0  0  0  0  0  0  0  0  0  0  0  0  # atno 10167 bound_to 10162
  156.3797  130.4354  149.7478 H   0  0  0  0  0  0  0  0  0  0  0  0  # atno 10718 bound_to 10713
  153.8709  135.6831  153.4774 H   0  0  0  0  0  0  0  0  0  0  0  0  # atno 10763 bound_to 10752
  153.1288  135.4707  154.9313 H   0  0  0  0  0  0  0  0  0  0  0  0  # atno 10764 bound_to 10752
  154.7714  135.3240  154.8131 H   0  0  0  0  0  0  0  0  0  0  0  0  # atno 10765 bound_to 10752
  139.8773  134.9174  156.4874 H   0  0  0  0  0  0  0  0  0  0  0  0  # atno 11005 bound_to 11000
  145.7698  140.9901  143.1156 LP  0  0  0  0  0  0  0  0  0  0  0  0  # atno 17320 bound_to 7965
  144.6875  139.9432  143.7476 LP  0  0  0  0  0  0  0  0  0  0  0  0  # atno 17321 bound_to 7965
  140.7090  143.7438  150.7534 LP  0  0  0  0  0  0  0  0  0  0  0  0  # atno 17342 bound_to 10162
  140.0971  143.4822  152.2446 LP  0  0  0  0  0  0  0  0  0  0  0  0  # atno 17343 bound_to 10162
  156.4574  130.7935  151.2956 LP  0  0  0  0  0  0  0  0  0  0  0  0  # atno 17370 bound_to 10713
  157.7491  131.0076  150.3198 LP  0  0  0  0  0  0  0  0  0  0  0  0  # atno 17371 bound_to 10713
  140.8683  133.8007  155.9337 LP  0  0  0  0  0  0  0  0  0  0  0  0  # atno 17394 bound_to 11000
  140.8979  134.2415  157.5058 LP  0  0  0  0  0  0  0  0  0  0  0  0  # atno 17395 bound_to 11000

$$$$
