AV-unprocessed.smi:1591|AV-procd|sdf|6399|dock7
  -GOLD-   22720 7 33D 1   1.00000     0.00000
 Structure written by MMmdl.
 51 54  0  0  0  0  0  0  0  0  2 V2000
  149.0693  142.2264  155.8312 C   0  0  0  0  0  0  0  0  0  0  0  0
  149.6372  141.3039  156.9208 C   0  0  0  0  0  0  0  0  0  0  0  0
  149.5381  141.8897  158.3516 C   0  0  2  0  0  0  0  0  0  0  0  0
  148.2599  142.5919  158.4887 N   0  0  0  0  0  0  0  0  0  0  0  0
  147.0559  142.0263  158.6680 C   0  0  0  0  0  0  0  0  0  0  0  0
  146.8629  140.8110  158.6553 O   0  0  0  0  0  0  0  0  0  0  0  0
  145.8942  142.9924  158.9148 C   0  0  0  0  0  0  0  0  0  0  0  0
  145.1761  142.6382  160.1484 N   0  0  0  0  0  0  0  0  0  0  0  0
  143.7728  142.5757  160.0774 C   0  0  0  0  0  0  0  0  0  0  0  0
  143.0172  142.2950  161.1556 C   0  0  0  0  0  0  0  0  0  0  0  0
  143.6910  142.0521  162.4249 C   0  0  0  0  0  0  0  0  0  0  0  0
  143.0172  141.7955  163.4207 O   0  0  0  0  0  0  0  0  0  0  0  0
  145.0542  142.1233  162.4435 N   0  5  0  0  0  0  0  0  0  0  0  0
  145.8100  142.4126  161.3387 C   0  0  0  0  0  0  0  0  0  0  0  0
  147.0387  142.4766  161.3811 O   0  0  0  0  0  0  0  0  0  0  0  0
  150.7234  142.8209  158.7821 C   0  0  0  0  0  0  0  0  0  0  0  0
  150.3201  143.7936  159.9289 C   0  0  0  0  0  0  0  0  0  0  0  0
  151.5172  144.6786  160.3405 C   0  0  1  0  0  0  0  0  0  0  0  0
  152.6738  143.7893  160.8407 C   0  0  0  0  0  0  0  0  0  0  0  0
  153.1122  142.8442  159.7039 C   0  0  2  0  0  0  0  0  0  0  0  0
  153.5908  143.6672  158.4926 C   0  0  0  0  0  0  0  0  0  0  0  0
  152.4312  144.5545  158.0008 C   0  0  2  0  0  0  0  0  0  0  0  0
  151.9910  145.5093  159.1300 C   0  0  0  0  0  0  0  0  0  0  0  0
  151.2378  143.6691  157.5824 C   0  0  0  0  0  0  0  0  0  0  0  0
  151.9208  141.9582  159.2883 C   0  0  0  0  0  0  0  0  0  0  0  0
  149.0976  141.7357  154.8580 H   0  0  0  0  0  0  0  0  0  0  0  0
  149.6396  143.1517  155.7469 H   0  0  0  0  0  0  0  0  0  0  0  0
  148.0317  142.4884  156.0403 H   0  0  0  0  0  0  0  0  0  0  0  0
  149.0895  140.3652  156.8604 H   0  0  0  0  0  0  0  0  0  0  0  0
  150.6733  141.0710  156.6756 H   0  0  0  0  0  0  0  0  0  0  0  0
  149.5477  141.0334  159.0283 H   0  0  0  0  0  0  0  0  0  0  0  0
  148.3045  143.6001  158.5098 H   0  0  0  0  0  0  0  0  0  0  0  0
  146.2658  144.0168  158.9771 H   0  0  0  0  0  0  0  0  0  0  0  0
  145.2311  142.9829  158.0486 H   0  0  0  0  0  0  0  0  0  0  0  0
  143.3534  142.7766  159.1023 H   0  0  0  0  0  0  0  0  0  0  0  0
  141.9405  142.2544  161.0838 H   0  0  0  0  0  0  0  0  0  0  0  0
  149.4941  144.4333  159.6178 H   0  0  0  0  0  0  0  0  0  0  0  0
  149.9664  143.2403  160.7996 H   0  0  0  0  0  0  0  0  0  0  0  0
  151.2084  145.3516  161.1410 H   0  0  0  0  0  0  0  0  0  0  0  0
  153.5130  144.4057  161.1651 H   0  0  0  0  0  0  0  0  0  0  0  0
  152.3590  143.2125  161.7115 H   0  0  0  0  0  0  0  0  0  0  0  0
  153.9278  142.2111  160.0553 H   0  0  0  0  0  0  0  0  0  0  0  0
  154.4494  144.2815  158.7669 H   0  0  0  0  0  0  0  0  0  0  0  0
  153.9265  143.0053  157.6935 H   0  0  0  0  0  0  0  0  0  0  0  0
  152.7645  145.1397  157.1432 H   0  0  0  0  0  0  0  0  0  0  0  0
  151.1905  146.1635  158.7825 H   0  0  0  0  0  0  0  0  0  0  0  0
  152.8177  146.1599  159.4183 H   0  0  0  0  0  0  0  0  0  0  0  0
  151.5285  143.0186  156.7563 H   0  0  0  0  0  0  0  0  0  0  0  0
  150.4540  144.3215  157.1994 H   0  0  0  0  0  0  0  0  0  0  0  0
  151.6332  141.3510  160.1467 H   0  0  0  0  0  0  0  0  0  0  0  0
  152.2339  141.2561  158.5141 H   0  0  0  0  0  0  0  0  0  0  0  0
  1  2  1  0  0  0  0
  1 26  1  0  0  0  0
  1 27  1  0  0  0  0
  1 28  1  0  0  0  0
  2  3  1  0  0  0  0
  2 29  1  0  0  0  0
  2 30  1  0  0  0  0
  3  4  1  0  0  0  0
  3 16  1  0  0  0  0
  3 31  1  0  0  0  0
  4  5  1  0  0  0  0
  4 32  1  0  0  0  0
  5  6  2  0  0  0  0
  5  7  1  0  0  0  0
  7  8  1  0  0  0  0
  7 33  1  0  0  0  0
  7 34  1  0  0  0  0
  8 14  1  0  0  0  0
  8  9  1  0  0  0  0
  9 10  2  0  0  0  0
  9 35  1  0  0  0  0
 10 11  1  0  0  0  0
 10 36  1  0  0  0  0
 11 12  2  0  0  0  0
 11 13  1  0  0  0  0
 13 14  1  0  0  0  0
 14 15  2  0  0  0  0
 16 24  1  0  0  0  0
 16 25  1  0  0  0  0
 16 17  1  0  0  0  0
 17 18  1  0  0  0  0
 17 37  1  0  0  0  0
 17 38  1  0  0  0  0
 18 23  1  0  0  0  0
 18 19  1  0  0  0  0
 18 39  1  0  0  0  0
 19 20  1  0  0  0  0
 19 40  1  0  0  0  0
 19 41  1  0  0  0  0
 20 21  1  0  0  0  0
 20 25  1  0  0  0  0
 20 42  1  0  0  0  0
 21 22  1  0  0  0  0
 21 43  1  0  0  0  0
 21 44  1  0  0  0  0
 22 23  1  0  0  0  0
 22 24  1  0  0  0  0
 22 45  1  0  0  0  0
 23 46  1  0  0  0  0
 23 47  1  0  0  0  0
 24 48  1  0  0  0  0
 24 49  1  0  0  0  0
 25 50  1  0  0  0  0
 25 51  1  0  0  0  0
M  CHG  1  13  -1
M  END
> <s_m_source_file>
AV-unprocessed.smi

> <i_m_source_file_index>
1591

> <i_lp_mmshare_version>
43012

> <i_f3d_flags>
0

> <s_epik_input>
W0NIMl0xW0NASF0oW0NIMl0yKVtDSDJdW0NASF0oW0NIMl0zKVtDSDJdW0NAQEhdMVtDSDJdQzIzW0NASF0oW0NIMl1bQ0gzXSlbTkhdQyg9TylbQ0gyXW40W2NIXVtjSF1jKD1PKVtuSF1jND1P

> <s_epik_cmdline>
J2VwaWtfcHl0aG9uJywgJy1waCcsICc3LjAnLCAnLXRuJywgJzgnLCAnLW1hJywgJzIwMCcsICctbWV0YWxfYmluZGluZycsICctaW1hZScsICc8aW5maWxlLm1hZT4nLCAnLW9tYWUnLCAnPG91dGZpbGUubWFlPic=

> <r_lp_tautomer_probability>
0.999537

> <r_epik_Ionization_Penalty>
3.13902

> <r_epik_Ionization_Penalty_Charging>
2.97334e-08

> <r_epik_Ionization_Penalty_Neutral>
3.13902

> <r_epik_State_Penalty>
3.13814

> <r_epik_Charging_Adjusted_Penalty>
3.13814

> <i_epik_Tot_Q>
-1

> <i_epik_Tot_abs_Q>
1

> <r_epik_Metal_State_Penalty>
0.465244

> <b_epik_Metal_Only>
1

> <s_lp_Force_Field>
OPLS_2005

> <r_lp_Energy>
48.864

> <b_lp_Chiralities_Consistent>
1

> <s_lp_Variant>
AV-unprocessed.smi:1591-3

> <Gold.Version>
5.8.1

> <Gold.Id.Protein>
6NUR|6NUR_protein|mol2

> <Gold.PLP.Fitness>
44.2208

> <Gold.PLP.PLP>
-41.7625

> <Gold.PLP.part.hbond>
-5.3660

> <Gold.PLP.part.metal>
0.0000

> <Gold.PLP.part.buried>
-2.5076

> <Gold.PLP.part.nonpolar>
-36.0700

> <Gold.PLP.part.repulsive>
0.1485

> <Gold.PLP.ligand.clash>
0.0000

> <Gold.PLP.ligand.torsion>
1.5546

> <Gold.PLP.Chemscore.Hbond>
1.8263

> <Gold.PLP.Chemscore.CHOScore>
0.0000

> <Gold.PLP.Chemscore.Metal>
0.0000

> <Gold.Chemscore.Hbonds>
donor molecule, donor type, donor heavy atom, donor atom, acceptor molecule, acceptor atom, score
      P1  H  6933  6944       L1    15  0.49
      P1  H  6934  6946       L1     6  0.09

> <Gold.PLP.Chemscore.Internal.Correction>
0.0884

> <Gold.Rescore>
     Score         DG    S(hbond)    S(metal)    S(lipo)     H(rot)  DE(clash)    DE(int)     intcor
     15.73     -19.47       1.18        0.00     129.28       1.99       0.51       3.24       ----

> <Gold.Chemscore.Fitness>
15.7262

> <Gold.Chemscore.DG>
-19.4744

> <Gold.Chemscore.ZeroCoef>
-5.4800

> <Gold.Chemscore.Hbond>
1.1833

> <Gold.Chemscore.Metal>
0.0000

> <Gold.Chemscore.Lipo>
129.2797

> <Gold.Chemscore.Internal_Hbond>
0.0000

> <Gold.Chemscore.DEClash>
0.5111

> <Gold.Chemscore.DEInternal>
3.2370

> <Gold.Chemscore.Rot>
1.9858

> <Gold.Chemscore.Internal.Correction>
   9.000000E+99

> <Gold.Chemscore.Hbonds>
donor molecule, donor type, donor heavy atom, donor atom, acceptor molecule, acceptor atom, score
      P1  H  6933  6944       L1    15  0.48

> <Gold.Chemscore.Hbond.Weighted>
-3.9523

> <Gold.Chemscore.Metal.Weighted>
-0.0000

> <Gold.Chemscore.Lipo.Weighted>
-15.1257

> <Gold.Chemscore.Internal_Hbond.Weighted>
0.0000

> <Gold.Chemscore.DEClash.Weighted>
0.5111

> <Gold.Chemscore.DEInternal.Weighted>
3.2370

> <Gold.Chemscore.Rot.Weighted>
5.0836

> <Gold.Chemscore.Internal.Correction.Weighted>
   9.000000E+99

> <Gold.Protein.RotatedTorsions>
[ 6907 6896 6895 6894 ] final   19.99 input  -60.11 | X-H torsion
[ 7974 7965 7964 7962 ] final -110.24 input  175.53 | X-H torsion
[ 8008 7997 7996 7995 ] final  174.88 input   59.86 | X-H torsion
[ 10167 10162 10161 10158 ] final  -20.95 input  -65.29 | X-H torsion
[ 10718 10713 10712 10709 ] final   53.79 input   66.30 | X-H torsion
[ 10763 10752 10751 10750 ] final   63.48 input  -60.55 | X-H torsion
[ 11005 11000 10999 10996 ] final  107.32 input  -57.11 | X-H torsion

> <Gold.Protein.ActiveResidues>
 VAL166  LYS551  ARG553  GLY616  TRP617  ASP618  TYR619  PRO620  LYS621  CYS622 
 ASP623  PHE694  ASN695  SER759  ASP760  ASP761  ALA762  ILE779  LEU786  VAL792 
 PHE793  MET794  SER795  GLU796  ALA797  LYS798  CYS799  TRP800  GLU811  SER814 

> <Gold.Protein.RotatedAtoms>
  151.8895  135.0422  160.0496 H   0  0  0  0  0  0  0  0  0  0  0  0  # atno 6907 bound_to 6896
  152.2448  133.5160  159.5299 H   0  0  0  0  0  0  0  0  0  0  0  0  # atno 6908 bound_to 6896
  150.7064  134.0957  159.3990 H   0  0  0  0  0  0  0  0  0  0  0  0  # atno 6909 bound_to 6896
  145.1706  140.8924  143.3537 H   0  0  0  0  0  0  0  0  0  0  0  0  # atno 7974 bound_to 7965
  156.0929  140.1423  156.9569 H   0  0  0  0  0  0  0  0  0  0  0  0  # atno 8008 bound_to 7997
  154.4653  140.0928  156.7050 H   0  0  0  0  0  0  0  0  0  0  0  0  # atno 8009 bound_to 7997
  155.4890  140.3447  155.4354 H   0  0  0  0  0  0  0  0  0  0  0  0  # atno 8010 bound_to 7997
  140.7279  143.4673  151.0295 H   0  0  0  0  0  0  0  0  0  0  0  0  # atno 10167 bound_to 10162
  157.5198  130.8557  149.8544 H   0  0  0  0  0  0  0  0  0  0  0  0  # atno 10718 bound_to 10713
  153.0019  135.5428  154.6358 H   0  0  0  0  0  0  0  0  0  0  0  0  # atno 10763 bound_to 10752
  154.5625  135.2835  155.0908 H   0  0  0  0  0  0  0  0  0  0  0  0  # atno 10764 bound_to 10752
  154.2105  135.6468  153.5166 H   0  0  0  0  0  0  0  0  0  0  0  0  # atno 10765 bound_to 10752
  139.8826  134.9397  156.5801 H   0  0  0  0  0  0  0  0  0  0  0  0  # atno 11005 bound_to 11000
  145.0237  139.3402  143.6060 LP  0  0  0  0  0  0  0  0  0  0  0  0  # atno 17320 bound_to 7965
  146.3469  139.9547  142.8724 LP  0  0  0  0  0  0  0  0  0  0  0  0  # atno 17321 bound_to 7965
  139.8363  143.7624  152.3180 LP  0  0  0  0  0  0  0  0  0  0  0  0  # atno 17342 bound_to 10162
  139.7757  144.7462  151.0160 LP  0  0  0  0  0  0  0  0  0  0  0  0  # atno 17343 bound_to 10162
  156.0346  130.3755  150.1596 LP  0  0  0  0  0  0  0  0  0  0  0  0  # atno 17370 bound_to 10713
  156.9784  130.9856  151.3443 LP  0  0  0  0  0  0  0  0  0  0  0  0  # atno 17371 bound_to 10713
  140.8034  133.8487  155.8746 LP  0  0  0  0  0  0  0  0  0  0  0  0  # atno 17394 bound_to 11000
  140.9572  134.1702  157.4682 LP  0  0  0  0  0  0  0  0  0  0  0  0  # atno 17395 bound_to 11000

$$$$
