AV-unprocessed.smi:2671|AV-procd|sdf|10349|dock10
  -GOLD-   2272014373D 1   1.00000     0.00000
 Structure written by MMmdl.
 29 30  0  0  0  0  0  0  0  0  1 V2000
  147.8431  141.2492  153.8482 O   0  0  0  0  0  0  0  0  0  0  0  0
  148.8801  140.9577  154.4396 C   0  0  0  0  0  0  0  0  0  0  0  0
  149.5058  139.6369  154.3945 C   0  0  0  0  0  0  0  0  0  0  0  0
  150.6513  139.3948  155.0771 C   0  0  0  0  0  0  0  0  0  0  0  0
  151.3162  138.0281  155.0413 C   0  0  0  0  0  0  0  0  0  0  0  0
  151.6119  137.6930  153.7858 F   0  0  0  0  0  0  0  0  0  0  0  0
  152.4493  138.0480  155.7430 F   0  0  0  0  0  0  0  0  0  0  0  0
  150.5255  137.0824  155.5512 F   0  0  0  0  0  0  0  0  0  0  0  0
  151.2581  140.4064  155.8369 N   0  0  0  0  0  0  0  0  0  0  0  0
  150.7218  141.5855  155.8928 C   0  0  0  0  0  0  0  0  0  0  0  0
  151.2849  143.0608  156.7891 S   0  0  0  0  0  0  0  0  0  0  0  0
  151.7057  142.3535  158.4078 C   0  0  0  0  0  0  0  0  0  0  0  0
  152.1784  143.4284  159.3962 C   0  0  1  0  0  0  0  0  0  0  0  0
  152.1134  144.8609  158.8620 C   0  0  0  0  0  0  0  0  0  0  0  0
  151.8977  145.7072  160.1089 C   0  0  0  0  0  0  0  0  0  0  0  0
  151.6017  144.6866  161.2105 C   0  0  0  0  0  0  0  0  0  0  0  0
  151.3137  143.4805  160.5190 O   0  0  0  0  0  0  0  0  0  0  0  0
  149.5389  141.8629  155.1989 N   0  0  0  0  0  0  0  0  0  0  0  0
  149.1488  142.7919  155.2638 H   0  0  0  0  0  0  0  0  0  0  0  0
  149.0482  138.8508  153.8115 H   0  0  0  0  0  0  0  0  0  0  0  0
  152.4943  141.6138  158.2667 H   0  0  0  0  0  0  0  0  0  0  0  0
  150.8400  141.8245  158.8081 H   0  0  0  0  0  0  0  0  0  0  0  0
  153.1873  143.2028  159.7470 H   0  0  0  0  0  0  0  0  0  0  0  0
  153.0125  145.1399  158.3121 H   0  0  0  0  0  0  0  0  0  0  0  0
  151.2613  144.9792  158.1912 H   0  0  0  0  0  0  0  0  0  0  0  0
  152.7775  146.3029  160.3548 H   0  0  0  0  0  0  0  0  0  0  0  0
  151.0595  146.3900  159.9658 H   0  0  0  0  0  0  0  0  0  0  0  0
  152.4796  144.5369  161.8407 H   0  0  0  0  0  0  0  0  0  0  0  0
  150.7708  144.9857  161.8498 H   0  0  0  0  0  0  0  0  0  0  0  0
  1  2  2  0  0  0  0
  2 18  1  0  0  0  0
  2  3  1  0  0  0  0
  3 20  1  0  0  0  0
  3  4  2  0  0  0  0
  4  5  1  0  0  0  0
  4  9  1  0  0  0  0
  5  6  1  0  0  0  0
  5  7  1  0  0  0  0
  5  8  1  0  0  0  0
  9 10  2  0  0  0  0
 10 11  1  0  0  0  0
 10 18  1  0  0  0  0
 11 12  1  0  0  0  0
 12 13  1  0  0  0  0
 12 21  1  0  0  0  0
 12 22  1  0  0  0  0
 13 17  1  0  0  0  0
 13 14  1  0  0  0  0
 13 23  1  0  0  0  0
 14 15  1  0  0  0  0
 14 24  1  0  0  0  0
 14 25  1  0  0  0  0
 15 16  1  0  0  0  0
 15 26  1  0  0  0  0
 15 27  1  0  0  0  0
 16 17  1  0  0  0  0
 16 28  1  0  0  0  0
 16 29  1  0  0  0  0
 18 19  1  0  0  0  0
M  END
> <s_m_source_file>
AV-unprocessed.smi

> <i_m_source_file_index>
2671

> <i_lp_mmshare_version>
43012

> <i_f3d_flags>
0

> <s_epik_input>
W09IXWMxW2NIXWMoQyhGKShGKUYpbmMobjEpU1tDSDJdW0NAQEhdMltDSDJdW0NIMl1bQ0gyXU8y

> <s_epik_cmdline>
J2VwaWtfcHl0aG9uJywgJy1waCcsICc3LjAnLCAnLXRuJywgJzgnLCAnLW1hJywgJzIwMCcsICctbWV0YWxfYmluZGluZycsICctaW1hZScsICc8aW5maWxlLm1hZT4nLCAnLW9tYWUnLCAnPG91dGZpbGUubWFlPic=

> <r_lp_tautomer_probability>
0.660323

> <r_epik_Ionization_Penalty>
0.14469

> <r_epik_Ionization_Penalty_Charging>
0.14469

> <r_epik_Ionization_Penalty_Neutral>
3.1007e-10

> <r_epik_State_Penalty>
0.804349

> <r_epik_Charging_Adjusted_Penalty>
0.949039

> <i_epik_Tot_Q>
0

> <i_epik_Tot_abs_Q>
0

> <r_epik_Metal_State_Penalty>
1.52783

> <b_epik_Metal_Only>
0

> <s_lp_Force_Field>
OPLS_2005

> <r_lp_Energy>
21.2292

> <b_lp_Chiralities_Consistent>
1

> <s_lp_Variant>
AV-unprocessed.smi:2671-4

> <Gold.Version>
5.8.1

> <Gold.Id.Protein>
6NUR|6NUR_protein|mol2

> <Gold.PLP.Fitness>
39.3725

> <Gold.PLP.PLP>
-38.2406

> <Gold.PLP.part.hbond>
-1.8134

> <Gold.PLP.part.metal>
0.0000

> <Gold.PLP.part.buried>
-1.6633

> <Gold.PLP.part.nonpolar>
-35.2337

> <Gold.PLP.part.repulsive>
0.4436

> <Gold.PLP.ligand.clash>
0.0000

> <Gold.PLP.ligand.torsion>
0.9424

> <Gold.PLP.Chemscore.Hbond>
1.0000

> <Gold.PLP.Chemscore.CHOScore>
0.0000

> <Gold.PLP.Chemscore.Metal>
0.0000

> <Gold.Chemscore.Hbonds>
donor molecule, donor type, donor heavy atom, donor atom, acceptor molecule, acceptor atom, score
      L1  H    18    19       P1  8028  1.00

> <Gold.PLP.Chemscore.Internal.Correction>
0.0168

> <Gold.Rescore>
     Score         DG    S(hbond)    S(metal)    S(lipo)     H(rot)  DE(clash)    DE(int)     intcor
     12.87     -14.74       0.99        0.00      87.92       1.69       0.88       0.99       ----

> <Gold.Chemscore.Fitness>
12.8662

> <Gold.Chemscore.DG>
-14.7400

> <Gold.Chemscore.ZeroCoef>
-5.4800

> <Gold.Chemscore.Hbond>
0.9896

> <Gold.Chemscore.Metal>
0.0000

> <Gold.Chemscore.Lipo>
87.9244

> <Gold.Chemscore.Internal_Hbond>
0.0000

> <Gold.Chemscore.DEClash>
0.8823

> <Gold.Chemscore.DEInternal>
0.9916

> <Gold.Chemscore.Rot>
1.6924

> <Gold.Chemscore.Internal.Correction>
   9.000000E+99

> <Gold.Chemscore.Hbonds>
donor molecule, donor type, donor heavy atom, donor atom, acceptor molecule, acceptor atom, score
      L1  H    18    19       P1  8028  0.98

> <Gold.Chemscore.Hbond.Weighted>
-3.3053

> <Gold.Chemscore.Metal.Weighted>
-0.0000

> <Gold.Chemscore.Lipo.Weighted>
-10.2872

> <Gold.Chemscore.Internal_Hbond.Weighted>
0.0000

> <Gold.Chemscore.DEClash.Weighted>
0.8823

> <Gold.Chemscore.DEInternal.Weighted>
0.9916

> <Gold.Chemscore.Rot.Weighted>
4.3324

> <Gold.Chemscore.Internal.Correction.Weighted>
   9.000000E+99

> <Gold.Protein.RotatedTorsions>
[ 6907 6896 6895 6894 ] final  -24.06 input  -60.11 | X-H torsion
[ 7974 7965 7964 7962 ] final  171.38 input  175.53 | X-H torsion
[ 8008 7997 7996 7995 ] final  151.55 input   59.86 | X-H torsion
[ 10167 10162 10161 10158 ] final   40.35 input  -65.29 | X-H torsion
[ 10718 10713 10712 10709 ] final  129.39 input   66.30 | X-H torsion
[ 10763 10752 10751 10750 ] final    6.84 input  -60.55 | X-H torsion
[ 11005 11000 10999 10996 ] final   42.15 input  -57.11 | X-H torsion

> <Gold.Protein.ActiveResidues>
 VAL166  LYS551  ARG553  GLY616  TRP617  ASP618  TYR619  PRO620  LYS621  CYS622 
 ASP623  PHE694  ASN695  SER759  ASP760  ASP761  ALA762  ILE779  LEU786  VAL792 
 PHE793  MET794  SER795  GLU796  ALA797  LYS798  CYS799  TRP800  GLU811  SER814 

> <Gold.Protein.RotatedAtoms>
  151.1950  135.0419  159.8848 H   0  0  0  0  0  0  0  0  0  0  0  0  # atno 6907 bound_to 6896
  152.5437  134.0913  159.8288 H   0  0  0  0  0  0  0  0  0  0  0  0  # atno 6908 bound_to 6896
  151.1046  133.5170  159.2640 H   0  0  0  0  0  0  0  0  0  0  0  0  # atno 6909 bound_to 6896
  144.7296  139.9342  143.6426 H   0  0  0  0  0  0  0  0  0  0  0  0  # atno 7974 bound_to 7965
  156.2669  140.2045  156.6193 H   0  0  0  0  0  0  0  0  0  0  0  0  # atno 8008 bound_to 7997
  154.6769  140.0544  157.0249 H   0  0  0  0  0  0  0  0  0  0  0  0  # atno 8009 bound_to 7997
  155.1056  140.3210  155.4538 H   0  0  0  0  0  0  0  0  0  0  0  0  # atno 8010 bound_to 7997
  140.3750  144.2054  150.6132 H   0  0  0  0  0  0  0  0  0  0  0  0  # atno 10167 bound_to 10162
  157.5159  131.1097  150.9226 H   0  0  0  0  0  0  0  0  0  0  0  0  # atno 10718 bound_to 10713
  153.2432  135.6905  153.7760 H   0  0  0  0  0  0  0  0  0  0  0  0  # atno 10763 bound_to 10752
  153.6882  135.3317  155.3196 H   0  0  0  0  0  0  0  0  0  0  0  0  # atno 10764 bound_to 10752
  154.8364  135.4539  154.1361 H   0  0  0  0  0  0  0  0  0  0  0  0  # atno 10765 bound_to 10752
  140.1766  134.4156  155.8225 H   0  0  0  0  0  0  0  0  0  0  0  0  # atno 11005 bound_to 11000
  146.0834  139.3822  143.0450 LP  0  0  0  0  0  0  0  0  0  0  0  0  # atno 17320 bound_to 7965
  145.7810  140.9856  143.1099 LP  0  0  0  0  0  0  0  0  0  0  0  0  # atno 17321 bound_to 7965
  140.4995  143.2322  151.8700 LP  0  0  0  0  0  0  0  0  0  0  0  0  # atno 17342 bound_to 10162
  139.4800  144.5076  151.8976 LP  0  0  0  0  0  0  0  0  0  0  0  0  # atno 17343 bound_to 10162
  156.9852  130.5542  149.5299 LP  0  0  0  0  0  0  0  0  0  0  0  0  # atno 17370 bound_to 10713
  156.0320  130.5410  150.8557 LP  0  0  0  0  0  0  0  0  0  0  0  0  # atno 17371 bound_to 10713
  141.2221  133.6981  156.7857 LP  0  0  0  0  0  0  0  0  0  0  0  0  # atno 17394 bound_to 11000
  140.2315  134.8682  157.3482 LP  0  0  0  0  0  0  0  0  0  0  0  0  # atno 17395 bound_to 11000

$$$$
