AV-unprocessed.smi:25|AV-procd|sdf|179|dock2
  -GOLD-   2262015443D 1   1.00000     0.00000
 Structure written by MMmdl.
 47 50  0  0  0  0  0  0  0  0  1 V2000
  150.4172  139.5853  156.1497 C   0  0  0  0  0  0  0  0  0  0  0  0
  150.2204  140.0025  157.6210 C   0  0  2  0  0  0  0  0  0  0  0  0
  150.7120  141.4464  157.8689 C   0  0  0  0  0  0  0  0  0  0  0  0
  151.8620  141.2589  158.8094 C   0  0  0  0  0  0  0  0  0  0  0  0
  152.7220  142.2690  159.2737 C   0  0  0  0  0  0  0  0  0  0  0  0
  153.7761  141.9061  160.1359 C   0  0  0  0  0  0  0  0  0  0  0  0
  153.9553  140.5553  160.5060 C   0  0  0  0  0  0  0  0  0  0  0  0
  153.0815  139.5538  160.0289 C   0  0  0  0  0  0  0  0  0  0  0  0
  152.0112  139.9229  159.1783 C   0  0  0  0  0  0  0  0  0  0  0  0
  150.9920  139.1441  158.5497 N   0  0  0  0  0  0  0  0  0  0  0  0
  150.5892  137.8687  158.8066 C   0  0  0  0  0  0  0  0  0  0  0  0
  151.2061  137.1577  159.6039 O   0  0  0  0  0  0  0  0  0  0  0  0
  149.3685  137.2555  158.0932 C   0  0  0  0  0  0  0  0  0  0  0  0
  148.8364  136.0409  158.7545 N   0  0  0  0  0  0  0  0  0  0  0  0
  148.9302  134.8002  158.0748 C   0  0  0  0  0  0  0  0  0  0  0  0
  149.4328  134.7230  156.9526 O   0  0  0  0  0  0  0  0  0  0  0  0
  148.4081  133.6448  158.7959 C   0  0  0  0  0  0  0  0  0  0  0  0
  148.4629  132.4267  158.2311 F   0  0  0  0  0  0  0  0  0  0  0  0
  147.8731  133.7782  160.0268 C   0  0  0  0  0  0  0  0  0  0  0  0
  147.7831  134.9953  160.6759 N   0  0  0  0  0  0  0  0  0  0  0  0
  147.1914  135.0979  162.0631 C   0  0  2  0  0  0  0  0  0  0  0  0
  146.7644  133.7123  162.5625 C   0  0  0  0  0  0  0  0  0  0  0  0
  145.2797  133.7129  162.2676 C   0  0  0  0  0  0  0  0  0  0  0  0
  144.9242  135.1775  162.4913 C   0  0  0  0  0  0  0  0  0  0  0  0
  146.0496  135.9044  162.0097 O   0  0  0  0  0  0  0  0  0  0  0  0
  148.2855  136.1585  160.0538 C   0  0  0  0  0  0  0  0  0  0  0  0
  148.2559  137.2456  160.6347 O   0  0  0  0  0  0  0  0  0  0  0  0
  149.8892  140.2644  155.4799 H   0  0  0  0  0  0  0  0  0  0  0  0
  150.0377  138.5826  155.9541 H   0  0  0  0  0  0  0  0  0  0  0  0
  151.4721  139.6008  155.8734 H   0  0  0  0  0  0  0  0  0  0  0  0
  149.1576  139.9524  157.8659 H   0  0  0  0  0  0  0  0  0  0  0  0
  151.0375  141.9487  156.9571 H   0  0  0  0  0  0  0  0  0  0  0  0
  149.9425  142.0551  158.3447 H   0  0  0  0  0  0  0  0  0  0  0  0
  152.5828  143.2973  158.9737 H   0  0  0  0  0  0  0  0  0  0  0  0
  154.4537  142.6609  160.5067 H   0  0  0  0  0  0  0  0  0  0  0  0
  154.7731  140.2845  161.1574 H   0  0  0  0  0  0  0  0  0  0  0  0
  153.2823  138.5417  160.3296 H   0  0  0  0  0  0  0  0  0  0  0  0
  148.5876  138.0135  158.0369 H   0  0  0  0  0  0  0  0  0  0  0  0
  149.6375  137.0259  157.0619 H   0  0  0  0  0  0  0  0  0  0  0  0
  147.5080  132.8884  160.5177 H   0  0  0  0  0  0  0  0  0  0  0  0
  147.9443  135.5790  162.6892 H   0  0  0  0  0  0  0  0  0  0  0  0
  147.3144  132.9057  162.0757 H   0  0  0  0  0  0  0  0  0  0  0  0
  146.9401  133.6612  163.6376 H   0  0  0  0  0  0  0  0  0  0  0  0
  145.1000  133.4338  161.2288 H   0  0  0  0  0  0  0  0  0  0  0  0
  144.7152  133.0340  162.9071 H   0  0  0  0  0  0  0  0  0  0  0  0
  144.0075  135.4725  161.9807 H   0  0  0  0  0  0  0  0  0  0  0  0
  144.8030  135.3809  163.5560 H   0  0  0  0  0  0  0  0  0  0  0  0
  1  2  1  0  0  0  0
  1 28  1  0  0  0  0
  1 29  1  0  0  0  0
  1 30  1  0  0  0  0
  2 10  1  0  0  0  0
  2  3  1  0  0  0  0
  2 31  1  0  0  0  0
  3  4  1  0  0  0  0
  3 32  1  0  0  0  0
  3 33  1  0  0  0  0
  4  9  2  0  0  0  0
  4  5  1  0  0  0  0
  5  6  2  0  0  0  0
  5 34  1  0  0  0  0
  6  7  1  0  0  0  0
  6 35  1  0  0  0  0
  7  8  2  0  0  0  0
  7 36  1  0  0  0  0
  8  9  1  0  0  0  0
  8 37  1  0  0  0  0
  9 10  1  0  0  0  0
 10 11  1  0  0  0  0
 11 12  2  0  0  0  0
 11 13  1  0  0  0  0
 13 14  1  0  0  0  0
 13 38  1  0  0  0  0
 13 39  1  0  0  0  0
 14 26  1  0  0  0  0
 14 15  1  0  0  0  0
 15 16  2  0  0  0  0
 15 17  1  0  0  0  0
 17 18  1  0  0  0  0
 17 19  2  0  0  0  0
 19 20  1  0  0  0  0
 19 40  1  0  0  0  0
 20 21  1  0  0  0  0
 20 26  1  0  0  0  0
 21 25  1  0  0  0  0
 21 22  1  0  0  0  0
 21 41  1  0  0  0  0
 22 23  1  0  0  0  0
 22 42  1  0  0  0  0
 22 43  1  0  0  0  0
 23 24  1  0  0  0  0
 23 44  1  0  0  0  0
 23 45  1  0  0  0  0
 24 25  1  0  0  0  0
 24 46  1  0  0  0  0
 24 47  1  0  0  0  0
 26 27  2  0  0  0  0
M  END
> <s_m_source_file>
AV-unprocessed.smi

> <i_m_source_file_index>
25

> <i_lp_mmshare_version>
43012

> <i_f3d_flags>
0

> <s_epik_input>
W2NIXTFbY0hdW2NIXVtjSF1jKGMxMilOKFtDQEhdKFtDSDNdKVtDSDJdMilDKD1PKVtDSDJdbjNjKD1PKWMoRilbY0hdbihjMz1PKVtDQEBIXTRbQ0gyXVtDSDJdW0NIMl1PNA==

> <s_epik_cmdline>
J2VwaWtfcHl0aG9uJywgJy1waCcsICc3LjAnLCAnLXRuJywgJzgnLCAnLW1hJywgJzIwMCcsICctbWV0YWxfYmluZGluZycsICctaW1hZScsICc8aW5maWxlLm1hZT4nLCAnLW9tYWUnLCAnPG91dGZpbGUubWFlPic=

> <r_lp_tautomer_probability>
1

> <r_epik_Ionization_Penalty>
1.67943e-06

> <r_epik_Ionization_Penalty_Charging>
3.79603e-09

> <r_epik_Ionization_Penalty_Neutral>
1.67563e-06

> <r_epik_State_Penalty>
-0

> <r_epik_Charging_Adjusted_Penalty>
3.79603e-09

> <i_epik_Tot_Q>
0

> <i_epik_Tot_abs_Q>
0

> <r_epik_Metal_State_Penalty>
-0

> <b_epik_Metal_Only>
0

> <s_epik_Chemistry_Notes>
This compound contains an acetal/aminal-like group ( X-CH(R)-Y where X, Y are N, S, or O) that may be acid/base labile, releasing an aldehyde.

> <s_lp_Force_Field>
OPLS_2005

> <r_lp_Energy>
56.1974

> <b_lp_Chiralities_Consistent>
1

> <s_lp_Variant>
AV-unprocessed.smi:25-1

> <Gold.Version>
5.8.1

> <Gold.Id.Protein>
6NUR|6NUR_protein|mol2

> <Gold.PLP.Fitness>
52.2051

> <Gold.PLP.PLP>
-46.0009

> <Gold.PLP.part.hbond>
-3.0000

> <Gold.PLP.part.metal>
0.0000

> <Gold.PLP.part.buried>
-6.1350

> <Gold.PLP.part.nonpolar>
-37.7535

> <Gold.PLP.part.repulsive>
0.0000

> <Gold.PLP.ligand.clash>
0.0000

> <Gold.PLP.ligand.torsion>
0.2926

> <Gold.PLP.Chemscore.Hbond>
2.2521

> <Gold.PLP.Chemscore.CHOScore>
0.0000

> <Gold.PLP.Chemscore.Metal>
0.0000

> <Gold.Chemscore.Hbonds>
donor molecule, donor type, donor heavy atom, donor atom, acceptor molecule, acceptor atom, score
      P1  H  6896  6907       L1    12  0.91
      P1  H  6931  6943       L1    27  0.78
      P1  H  6934  6947       L1    27  0.54

> <Gold.PLP.Chemscore.Internal.Correction>
0.0329

> <Gold.Rescore>
     Score         DG    S(hbond)    S(metal)    S(lipo)     H(rot)  DE(clash)    DE(int)     intcor
     19.53     -20.88       2.52        0.00      93.68       1.55       0.04       1.31       ----

> <Gold.Chemscore.Fitness>
19.5332

> <Gold.Chemscore.DG>
-20.8762

> <Gold.Chemscore.ZeroCoef>
-5.4800

> <Gold.Chemscore.Hbond>
2.5154

> <Gold.Chemscore.Metal>
0.0000

> <Gold.Chemscore.Lipo>
93.6759

> <Gold.Chemscore.Internal_Hbond>
0.0000

> <Gold.Chemscore.DEClash>
0.0359

> <Gold.Chemscore.DEInternal>
1.3072

> <Gold.Chemscore.Rot>
1.5489

> <Gold.Chemscore.Internal.Correction>
   9.000000E+99

> <Gold.Chemscore.Hbonds>
donor molecule, donor type, donor heavy atom, donor atom, acceptor molecule, acceptor atom, score
      P1  H  6896  6907       L1    12  0.87
      P1  H  6931  6943       L1    27  0.78
      P1  H  6934  6947       L1    27  0.52

> <Gold.Chemscore.Hbond.Weighted>
-8.4013

> <Gold.Chemscore.Metal.Weighted>
-0.0000

> <Gold.Chemscore.Lipo.Weighted>
-10.9601

> <Gold.Chemscore.Internal_Hbond.Weighted>
0.0000

> <Gold.Chemscore.DEClash.Weighted>
0.0359

> <Gold.Chemscore.DEInternal.Weighted>
1.3072

> <Gold.Chemscore.Rot.Weighted>
3.9651

> <Gold.Chemscore.Internal.Correction.Weighted>
   9.000000E+99

> <Gold.Protein.RotatedTorsions>
[ 6907 6896 6895 6894 ] final  -24.33 input  -60.11 | X-H torsion
[ 7974 7965 7964 7962 ] final   -1.07 input  175.53 | X-H torsion
[ 8008 7997 7996 7995 ] final   25.88 input   59.86 | X-H torsion
[ 10167 10162 10161 10158 ] final   16.58 input  -65.29 | X-H torsion
[ 10718 10713 10712 10709 ] final    4.26 input   66.30 | X-H torsion
[ 10763 10752 10751 10750 ] final  149.53 input  -60.55 | X-H torsion
[ 11005 11000 10999 10996 ] final  -97.66 input  -57.11 | X-H torsion

> <Gold.Protein.ActiveResidues>
 VAL166  LYS551  ARG553  GLY616  TRP617  ASP618  TYR619  PRO620  LYS621  CYS622 
 ASP623  PHE694  ASN695  SER759  ASP760  ASP761  ALA762  ILE779  LEU786  VAL792 
 PHE793  MET794  SER795  GLU796  ALA797  LYS798  CYS799  TRP800  GLU811  SER814 

> <Gold.Protein.RotatedAtoms>
  151.1911  135.0402  159.8832 H   0  0  0  0  0  0  0  0  0  0  0  0  # atno 6907 bound_to 6896
  152.5439  134.0955  159.8305 H   0  0  0  0  0  0  0  0  0  0  0  0  # atno 6908 bound_to 6896
  151.1084  133.5144  159.2639 H   0  0  0  0  0  0  0  0  0  0  0  0  # atno 6909 bound_to 6896
  146.2421  140.1366  142.8336 H   0  0  0  0  0  0  0  0  0  0  0  0  # atno 7974 bound_to 7965
  155.0186  140.3145  155.4802 H   0  0  0  0  0  0  0  0  0  0  0  0  # atno 8008 bound_to 7997
  156.2896  140.2201  156.5245 H   0  0  0  0  0  0  0  0  0  0  0  0  # atno 8009 bound_to 7997
  154.7472  140.0469  157.0850 H   0  0  0  0  0  0  0  0  0  0  0  0  # atno 8010 bound_to 7997
  140.5787  143.9022  150.6771 H   0  0  0  0  0  0  0  0  0  0  0  0  # atno 10167 bound_to 10162
  156.8900  130.5684  149.5650 H   0  0  0  0  0  0  0  0  0  0  0  0  # atno 10718 bound_to 10713
  154.0726  135.2865  155.3305 H   0  0  0  0  0  0  0  0  0  0  0  0  # atno 10763 bound_to 10752
  154.6737  135.5290  153.8174 H   0  0  0  0  0  0  0  0  0  0  0  0  # atno 10764 bound_to 10752
  153.0479  135.6564  154.0906 H   0  0  0  0  0  0  0  0  0  0  0  0  # atno 10765 bound_to 10752
  141.1371  133.8187  157.0735 H   0  0  0  0  0  0  0  0  0  0  0  0  # atno 11005 bound_to 11000
  145.0282  140.8849  143.5125 LP  0  0  0  0  0  0  0  0  0  0  0  0  # atno 17320 bound_to 7965
  145.1425  139.2563  143.5483 LP  0  0  0  0  0  0  0  0  0  0  0  0  # atno 17321 bound_to 7965
  140.2516  143.3589  152.1400 LP  0  0  0  0  0  0  0  0  0  0  0  0  # atno 17342 bound_to 10162
  139.5157  144.6967  151.5610 LP  0  0  0  0  0  0  0  0  0  0  0  0  # atno 17343 bound_to 10162
  156.0634  130.5682  150.9238 LP  0  0  0  0  0  0  0  0  0  0  0  0  # atno 17370 bound_to 10713
  157.6089  131.0937  150.8830 LP  0  0  0  0  0  0  0  0  0  0  0  0  # atno 17371 bound_to 10713
  140.0496  134.9812  157.1112 LP  0  0  0  0  0  0  0  0  0  0  0  0  # atno 17394 bound_to 11000
  140.4010  134.2082  155.7163 LP  0  0  0  0  0  0  0  0  0  0  0  0  # atno 17395 bound_to 11000

$$$$
