AV-unprocessed.smi:1111|AV-procd|sdf|4795|dock3
  -GOLD-   22720 3343D 1   1.00000     0.00000
 Structure written by MMmdl.
 33 34  0  0  0  0  0  0  0  0  2 V2000
  152.6525  137.6072  158.8125 C   0  0  0  0  0  0  0  0  0  0  0  0
  152.5058  138.5740  157.6181 C   0  0  2  0  0  0  0  0  0  0  0  0
  152.8825  139.9397  158.0089 N   0  0  0  0  0  0  0  0  0  0  0  0
  152.3435  140.7104  158.9701 C   0  0  0  0  0  0  0  0  0  0  0  0
  151.3948  140.3705  159.6756 O   0  0  0  0  0  0  0  0  0  0  0  0
  152.9762  142.0881  159.1667 C   0  0  0  0  0  0  0  0  0  0  0  0
  151.9783  143.1549  159.0473 N   0  0  0  0  0  0  0  0  0  0  0  0
  151.7372  144.1720  159.9354 C   0  0  0  0  0  0  0  0  0  0  0  0
  150.7191  144.9216  159.4042 C   0  0  0  0  0  0  0  0  0  0  0  0
  150.3832  144.3322  158.2147 N   0  3  0  0  0  0  0  0  0  0  0  0
  151.1490  143.2575  157.9998 C   0  0  0  0  0  0  0  0  0  0  0  0
  151.0295  138.6208  157.1562 C   0  0  0  0  0  0  0  0  0  0  0  0
  150.9410  139.2547  155.7619 C   0  0  0  0  0  0  0  0  0  0  0  0
  152.4972  138.8027  154.9115 S   0  0  0  0  0  0  0  0  0  0  0  0
  152.2394  137.7226  153.9474 O   0  0  0  0  0  0  0  0  0  0  0  0
  153.1894  140.0348  154.5040 O   0  0  0  0  0  0  0  0  0  0  0  0
  153.3218  138.1029  156.3921 C   0  0  0  0  0  0  0  0  0  0  0  0
  152.2787  136.6134  158.5644 H   0  0  0  0  0  0  0  0  0  0  0  0
  152.0911  137.9599  159.6783 H   0  0  0  0  0  0  0  0  0  0  0  0
  153.6918  137.4866  159.1172 H   0  0  0  0  0  0  0  0  0  0  0  0
  153.6592  140.3340  157.4981 H   0  0  0  0  0  0  0  0  0  0  0  0
  153.4394  142.1557  160.1525 H   0  0  0  0  0  0  0  0  0  0  0  0
  153.7591  142.2602  158.4262 H   0  0  0  0  0  0  0  0  0  0  0  0
  152.2921  144.2841  160.8556 H   0  0  0  0  0  0  0  0  0  0  0  0
  150.2221  145.8068  159.7738 H   0  0  0  0  0  0  0  0  0  0  0  0
  151.1080  142.6028  157.1471 H   0  0  0  0  0  0  0  0  0  0  0  0
  150.6476  137.6013  157.0850 H   0  0  0  0  0  0  0  0  0  0  0  0
  150.3888  139.1392  157.8709 H   0  0  0  0  0  0  0  0  0  0  0  0
  150.0826  138.9031  155.1893 H   0  0  0  0  0  0  0  0  0  0  0  0
  150.8947  140.3420  155.8272 H   0  0  0  0  0  0  0  0  0  0  0  0
  154.3732  138.3885  156.4046 H   0  0  0  0  0  0  0  0  0  0  0  0
  153.2779  137.0173  156.2988 H   0  0  0  0  0  0  0  0  0  0  0  0
  149.6602  144.6601  157.5862 H   0  0  0  0  0  0  0  0  0  0  0  0
  1  2  1  0  0  0  0
  1 18  1  0  0  0  0
  1 19  1  0  0  0  0
  1 20  1  0  0  0  0
  2 17  1  0  0  0  0
  2  3  1  0  0  0  0
  2 12  1  0  0  0  0
  3  4  1  0  0  0  0
  3 21  1  0  0  0  0
  4  5  2  0  0  0  0
  4  6  1  0  0  0  0
  6  7  1  0  0  0  0
  6 22  1  0  0  0  0
  6 23  1  0  0  0  0
  7 11  1  0  0  0  0
  7  8  1  0  0  0  0
  8  9  2  0  0  0  0
  8 24  1  0  0  0  0
  9 10  1  0  0  0  0
  9 25  1  0  0  0  0
 10 11  2  0  0  0  0
 10 33  1  0  0  0  0
 11 26  1  0  0  0  0
 12 13  1  0  0  0  0
 12 27  1  0  0  0  0
 12 28  1  0  0  0  0
 13 14  1  0  0  0  0
 13 29  1  0  0  0  0
 13 30  1  0  0  0  0
 14 15  2  0  0  0  0
 14 16  2  0  0  0  0
 14 17  1  0  0  0  0
 17 31  1  0  0  0  0
 17 32  1  0  0  0  0
M  CHG  1  10   1
M  END
> <s_m_source_file>
AV-unprocessed.smi

> <i_m_source_file_index>
1111

> <i_lp_mmshare_version>
43012

> <i_f3d_flags>
0

> <s_epik_input>
Tz1TKD1PKShbQ0gyXTEpW0NIMl1bQ0gyXVtDQEBdMShbQ0gzXSlbTkhdQyg9TylbQ0gyXW4yW2NIXVtjSF1uW2NIXTI=

> <s_epik_cmdline>
J2VwaWtfcHl0aG9uJywgJy1waCcsICc3LjAnLCAnLXRuJywgJzgnLCAnLW1hJywgJzIwMCcsICctbWV0YWxfYmluZGluZycsICctaW1hZScsICc8aW5maWxlLm1hZT4nLCAnLW9tYWUnLCAnPG91dGZpbGUubWFlPic=

> <r_lp_tautomer_probability>
1

> <r_epik_Ionization_Penalty>
0.638881

> <r_epik_Ionization_Penalty_Charging>
0

> <r_epik_Ionization_Penalty_Neutral>
0.638881

> <r_epik_State_Penalty>
0.656385

> <r_epik_Charging_Adjusted_Penalty>
0.656385

> <i_epik_Tot_Q>
1

> <i_epik_Tot_abs_Q>
1

> <r_epik_Metal_State_Penalty>
0.832701

> <b_epik_Metal_Only>
0

> <s_lp_Force_Field>
OPLS_2005

> <r_lp_Energy>
7.98032

> <b_lp_Chiralities_Consistent>
1

> <s_lp_Variant>
AV-unprocessed.smi:1111-4

> <Gold.Version>
5.8.1

> <Gold.Id.Protein>
6NUR|6NUR_protein|mol2

> <Gold.PLP.Fitness>
44.5812

> <Gold.PLP.PLP>
-32.5871

> <Gold.PLP.part.hbond>
-5.2604

> <Gold.PLP.part.metal>
0.0000

> <Gold.PLP.part.buried>
-3.0153

> <Gold.PLP.part.nonpolar>
-25.0572

> <Gold.PLP.part.repulsive>
0.3846

> <Gold.PLP.ligand.clash>
0.0000

> <Gold.PLP.ligand.torsion>
0.0913

> <Gold.PLP.Chemscore.Hbond>
4.0536

> <Gold.PLP.Chemscore.CHOScore>
0.0000

> <Gold.PLP.Chemscore.Metal>
0.0000

> <Gold.Chemscore.Hbonds>
donor molecule, donor type, donor heavy atom, donor atom, acceptor molecule, acceptor atom, score
      L1  H    10    33       P1  8028  0.98
      P1  H  7989  7998       L1    16  0.14
      P1  H  7997  8008       L1    16  1.00
      P1  H 10752 10764       L1    15  0.46

> <Gold.PLP.Chemscore.Internal.Correction>
0.0158

> <Gold.Rescore>
     Score         DG    S(hbond)    S(metal)    S(lipo)     H(rot)  DE(clash)    DE(int)     intcor
     15.46     -17.84       2.85        0.00      63.22       1.78       1.55       0.84       ----

> <Gold.Chemscore.Fitness>
15.4563

> <Gold.Chemscore.DG>
-17.8429

> <Gold.Chemscore.ZeroCoef>
-5.4800

> <Gold.Chemscore.Hbond>
2.8501

> <Gold.Chemscore.Metal>
0.0000

> <Gold.Chemscore.Lipo>
63.2228

> <Gold.Chemscore.Internal_Hbond>
0.0000

> <Gold.Chemscore.DEClash>
1.5455

> <Gold.Chemscore.DEInternal>
0.8411

> <Gold.Chemscore.Rot>
1.7787

> <Gold.Chemscore.Internal.Correction>
   9.000000E+99

> <Gold.Chemscore.Hbonds>
donor molecule, donor type, donor heavy atom, donor atom, acceptor molecule, acceptor atom, score
      L1  H    10    33       P1  8028  0.02
      P1  H  7989  7998       L1    16  0.04
      P1  H  7997  8008       L1    16  0.60
      P1  H 10752 10764       L1    15  0.46

> <Gold.Chemscore.Hbond.Weighted>
-9.5194

> <Gold.Chemscore.Metal.Weighted>
-0.0000

> <Gold.Chemscore.Lipo.Weighted>
-7.3971

> <Gold.Chemscore.Internal_Hbond.Weighted>
0.0000

> <Gold.Chemscore.DEClash.Weighted>
1.5455

> <Gold.Chemscore.DEInternal.Weighted>
0.8411

> <Gold.Chemscore.Rot.Weighted>
4.5536

> <Gold.Chemscore.Internal.Correction.Weighted>
   9.000000E+99

> <Gold.Protein.RotatedTorsions>
[ 6907 6896 6895 6894 ] final -120.31 input  -60.11 | X-H torsion
[ 7974 7965 7964 7962 ] final -113.98 input  175.53 | X-H torsion
[ 8008 7997 7996 7995 ] final    0.71 input   59.86 | X-H torsion
[ 10167 10162 10161 10158 ] final   -8.02 input  -65.29 | X-H torsion
[ 10718 10713 10712 10709 ] final -140.38 input   66.30 | X-H torsion
[ 10763 10752 10751 10750 ] final  -80.15 input  -60.55 | X-H torsion
[ 11005 11000 10999 10996 ] final   -1.20 input  -57.11 | X-H torsion

> <Gold.Protein.ActiveResidues>
 VAL166  LYS551  ARG553  GLY616  TRP617  ASP618  TYR619  PRO620  LYS621  CYS622 
 ASP623  PHE694  ASN695  SER759  ASP760  ASP761  ALA762  ILE779  LEU786  VAL792 
 PHE793  MET794  SER795  GLU796  ALA797  LYS798  CYS799  TRP800  GLU811  SER814 

> <Gold.Protein.RotatedAtoms>
  150.8381  133.7980  159.3071 H   0  0  0  0  0  0  0  0  0  0  0  0  # atno 6907 bound_to 6896
  151.5689  135.1061  160.0000 H   0  0  0  0  0  0  0  0  0  0  0  0  # atno 6908 bound_to 6896
  152.4450  133.7477  159.6733 H   0  0  0  0  0  0  0  0  0  0  0  0  # atno 6909 bound_to 6896
  145.1256  140.8695  143.3788 H   0  0  0  0  0  0  0  0  0  0  0  0  # atno 7974 bound_to 7965
  154.6712  140.2612  155.7005 H   0  0  0  0  0  0  0  0  0  0  0  0  # atno 8008 bound_to 7997
  156.2659  140.2829  156.1144 H   0  0  0  0  0  0  0  0  0  0  0  0  # atno 8009 bound_to 7997
  155.1166  140.0376  157.2728 H   0  0  0  0  0  0  0  0  0  0  0  0  # atno 8010 bound_to 7997
  140.7046  143.6016  150.8792 H   0  0  0  0  0  0  0  0  0  0  0  0  # atno 10167 bound_to 10162
  156.3216  130.7537  151.1636 H   0  0  0  0  0  0  0  0  0  0  0  0  # atno 10718 bound_to 10713
  154.5476  135.5671  153.6894 H   0  0  0  0  0  0  0  0  0  0  0  0  # atno 10763 bound_to 10752
  152.9980  135.6243  154.2417 H   0  0  0  0  0  0  0  0  0  0  0  0  # atno 10764 bound_to 10752
  154.2351  135.2864  155.2855 H   0  0  0  0  0  0  0  0  0  0  0  0  # atno 10765 bound_to 10752
  140.6448  133.9457  155.8346 H   0  0  0  0  0  0  0  0  0  0  0  0  # atno 11005 bound_to 11000
  145.0692  139.3045  143.5841 LP  0  0  0  0  0  0  0  0  0  0  0  0  # atno 17320 bound_to 7965
  146.3518  140.0160  142.8663 LP  0  0  0  0  0  0  0  0  0  0  0  0  # atno 17321 bound_to 7965
  139.9740  143.6025  152.2964 LP  0  0  0  0  0  0  0  0  0  0  0  0  # atno 17342 bound_to 10162
  139.6622  144.7662  151.1941 LP  0  0  0  0  0  0  0  0  0  0  0  0  # atno 17343 bound_to 10162
  157.7413  131.0506  150.5108 LP  0  0  0  0  0  0  0  0  0  0  0  0  # atno 17370 bound_to 10713
  156.5261  130.4173  149.6225 LP  0  0  0  0  0  0  0  0  0  0  0  0  # atno 17371 bound_to 10713
  141.0580  134.0387  157.3696 LP  0  0  0  0  0  0  0  0  0  0  0  0  # atno 17394 bound_to 11000
  139.9067  135.0181  156.7516 LP  0  0  0  0  0  0  0  0  0  0  0  0  # atno 17395 bound_to 11000

$$$$
