AV-unprocessed.smi:3061|AV-procd|sdf|11681|dock9
  -GOLD-   2272017 83D 1   1.00000     0.00000
 Structure written by MMmdl.
 35 36  0  0  0  0  0  0  0  0  1 V2000
  150.9354  141.4743  158.3384 C   0  0  0  0  0  0  0  0  0  0  0  0
  151.0396  141.8869  156.8641 C   0  0  2  0  0  0  0  0  0  0  0  0
  151.1566  143.4189  156.7152 C   0  0  0  0  0  0  0  0  0  0  0  0
  151.2480  144.1009  157.9945 N   0  0  0  0  0  0  0  0  0  0  0  0
  152.2517  144.7879  158.5424 C   0  0  0  0  0  0  0  0  0  0  0  0
  151.9663  145.2933  159.7344 N   0  0  0  0  0  0  0  0  0  0  0  0
  150.6821  144.8471  159.8701 C   0  0  0  0  0  0  0  0  0  0  0  0
  150.2047  144.1240  158.8571 N   0  0  0  0  0  0  0  0  0  0  0  0
  149.8708  141.3824  156.1442 N   0  0  0  0  0  0  0  0  0  0  0  0
  149.8994  140.5291  155.1079 C   0  0  0  0  0  0  0  0  0  0  0  0
  150.9367  140.0300  154.6698 O   0  0  0  0  0  0  0  0  0  0  0  0
  148.5500  140.2068  154.4490 C   0  0  1  0  0  0  0  0  0  0  0  0
  147.5008  139.7970  155.5029 C   0  0  0  0  0  0  0  0  0  0  0  0
  146.4956  140.9363  155.4834 C   0  0  0  0  0  0  0  0  0  0  0  0
  145.5556  141.0118  156.2733 O   0  0  0  0  0  0  0  0  0  0  0  0
  146.7860  141.8134  154.5185 N   0  0  0  0  0  0  0  0  0  0  0  0
  146.0446  143.0318  154.2239 C   0  0  0  0  0  0  0  0  0  0  0  0
  147.9388  141.4259  153.7240 C   0  0  0  0  0  0  0  0  0  0  0  0
  151.8061  141.8107  158.9020 H   0  0  0  0  0  0  0  0  0  0  0  0
  150.8780  140.3900  158.4393 H   0  0  0  0  0  0  0  0  0  0  0  0
  150.0492  141.9009  158.8097 H   0  0  0  0  0  0  0  0  0  0  0  0
  151.9472  141.4289  156.4665 H   0  0  0  0  0  0  0  0  0  0  0  0
  152.0253  143.6797  156.1080 H   0  0  0  0  0  0  0  0  0  0  0  0
  150.2834  143.8107  156.1924 H   0  0  0  0  0  0  0  0  0  0  0  0
  153.2057  144.9290  158.0559 H   0  0  0  0  0  0  0  0  0  0  0  0
  150.0814  145.0603  160.7420 H   0  0  0  0  0  0  0  0  0  0  0  0
  148.9720  141.7415  156.4325 H   0  0  0  0  0  0  0  0  0  0  0  0
  148.6888  139.3940  153.7340 H   0  0  0  0  0  0  0  0  0  0  0  0
  147.0035  138.8682  155.2223 H   0  0  0  0  0  0  0  0  0  0  0  0
  147.9118  139.6683  156.5058 H   0  0  0  0  0  0  0  0  0  0  0  0
  144.9900  142.8099  154.0573 H   0  0  0  0  0  0  0  0  0  0  0  0
  146.4319  143.5205  153.3296 H   0  0  0  0  0  0  0  0  0  0  0  0
  146.1220  143.7342  155.0547 H   0  0  0  0  0  0  0  0  0  0  0  0
  148.6350  142.2611  153.6277 H   0  0  0  0  0  0  0  0  0  0  0  0
  147.6107  141.1543  152.7199 H   0  0  0  0  0  0  0  0  0  0  0  0
  1  2  1  0  0  0  0
  1 19  1  0  0  0  0
  1 20  1  0  0  0  0
  1 21  1  0  0  0  0
  2  3  1  0  0  0  0
  2  9  1  0  0  0  0
  2 22  1  0  0  0  0
  3  4  1  0  0  0  0
  3 23  1  0  0  0  0
  3 24  1  0  0  0  0
  4  8  1  0  0  0  0
  4  5  1  0  0  0  0
  5  6  2  0  0  0  0
  5 25  1  0  0  0  0
  6  7  1  0  0  0  0
  7  8  2  0  0  0  0
  7 26  1  0  0  0  0
  9 10  1  0  0  0  0
  9 27  1  0  0  0  0
 10 11  2  0  0  0  0
 10 12  1  0  0  0  0
 12 18  1  0  0  0  0
 12 13  1  0  0  0  0
 12 28  1  0  0  0  0
 13 14  1  0  0  0  0
 13 29  1  0  0  0  0
 13 30  1  0  0  0  0
 14 15  2  0  0  0  0
 14 16  1  0  0  0  0
 16 17  1  0  0  0  0
 16 18  1  0  0  0  0
 17 31  1  0  0  0  0
 17 32  1  0  0  0  0
 17 33  1  0  0  0  0
 18 34  1  0  0  0  0
 18 35  1  0  0  0  0
M  END
> <s_m_source_file>
AV-unprocessed.smi

> <i_m_source_file_index>
3061

> <i_lp_mmshare_version>
43012

> <i_f3d_flags>
0

> <s_epik_input>
bjFbY0hdbltjSF1uMVtDSDJdW0NAQEhdKFtDSDNdKVtOSF1DKD1PKVtDQEBIXTJbQ0gyXUMoPU8pTihbQ0gzXSlbQ0gyXTI=

> <s_epik_cmdline>
J2VwaWtfcHl0aG9uJywgJy1waCcsICc3LjAnLCAnLXRuJywgJzgnLCAnLW1hJywgJzIwMCcsICctbWV0YWxfYmluZGluZycsICctaW1hZScsICc8aW5maWxlLm1hZT4nLCAnLW9tYWUnLCAnPG91dGZpbGUubWFlPic=

> <r_lp_tautomer_probability>
1

> <r_epik_Ionization_Penalty>
4.97611e-05

> <r_epik_Ionization_Penalty_Charging>
0

> <r_epik_Ionization_Penalty_Neutral>
4.97611e-05

> <r_epik_State_Penalty>
-0

> <r_epik_Charging_Adjusted_Penalty>
0

> <i_epik_Tot_Q>
0

> <i_epik_Tot_abs_Q>
0

> <r_epik_Metal_State_Penalty>
-0

> <b_epik_Metal_Only>
0

> <s_lp_Force_Field>
OPLS_2005

> <r_lp_Energy>
12.1986

> <b_lp_Chiralities_Consistent>
1

> <s_lp_Variant>
AV-unprocessed.smi:3061-3

> <Gold.Version>
5.8.1

> <Gold.Id.Protein>
6NUR|6NUR_protein|mol2

> <Gold.PLP.Fitness>
35.4644

> <Gold.PLP.PLP>
-34.3310

> <Gold.PLP.part.hbond>
-1.0000

> <Gold.PLP.part.metal>
0.0000

> <Gold.PLP.part.buried>
-3.2161

> <Gold.PLP.part.nonpolar>
-30.0697

> <Gold.PLP.part.repulsive>
0.4603

> <Gold.PLP.ligand.clash>
0.0000

> <Gold.PLP.ligand.torsion>
0.9454

> <Gold.PLP.Chemscore.Hbond>
1.0000

> <Gold.PLP.Chemscore.CHOScore>
0.0000

> <Gold.PLP.Chemscore.Metal>
0.0000

> <Gold.Chemscore.Hbonds>
donor molecule, donor type, donor heavy atom, donor atom, acceptor molecule, acceptor atom, score
      P1  H  7989  7998       L1    11  1.00

> <Gold.PLP.Chemscore.Internal.Correction>
0.0242

> <Gold.Rescore>
     Score         DG    S(hbond)    S(metal)    S(lipo)     H(rot)  DE(clash)    DE(int)     intcor
      4.43      -8.09       0.95        0.00      48.04       2.42       1.10       2.57       ----

> <Gold.Chemscore.Fitness>
4.4269

> <Gold.Chemscore.DG>
-8.0890

> <Gold.Chemscore.ZeroCoef>
-5.4800

> <Gold.Chemscore.Hbond>
0.9530

> <Gold.Chemscore.Metal>
0.0000

> <Gold.Chemscore.Lipo>
48.0375

> <Gold.Chemscore.Internal_Hbond>
0.0000

> <Gold.Chemscore.DEClash>
1.0962

> <Gold.Chemscore.DEInternal>
2.5659

> <Gold.Chemscore.Rot>
2.4197

> <Gold.Chemscore.Internal.Correction>
   9.000000E+99

> <Gold.Chemscore.Hbonds>
donor molecule, donor type, donor heavy atom, donor atom, acceptor molecule, acceptor atom, score
      P1  H  7989  7998       L1    11  0.89

> <Gold.Chemscore.Hbond.Weighted>
-3.1831

> <Gold.Chemscore.Metal.Weighted>
-0.0000

> <Gold.Chemscore.Lipo.Weighted>
-5.6204

> <Gold.Chemscore.Internal_Hbond.Weighted>
0.0000

> <Gold.Chemscore.DEClash.Weighted>
1.0962

> <Gold.Chemscore.DEInternal.Weighted>
2.5659

> <Gold.Chemscore.Rot.Weighted>
6.1945

> <Gold.Chemscore.Internal.Correction.Weighted>
   9.000000E+99

> <Gold.Protein.RotatedTorsions>
[ 6907 6896 6895 6894 ] final  153.07 input  -60.11 | X-H torsion
[ 7974 7965 7964 7962 ] final -141.28 input  175.53 | X-H torsion
[ 8008 7997 7996 7995 ] final  -15.39 input   59.86 | X-H torsion
[ 10167 10162 10161 10158 ] final  -98.75 input  -65.29 | X-H torsion
[ 10718 10713 10712 10709 ] final  -73.78 input   66.30 | X-H torsion
[ 10763 10752 10751 10750 ] final -162.17 input  -60.55 | X-H torsion
[ 11005 11000 10999 10996 ] final  -79.63 input  -57.11 | X-H torsion

> <Gold.Protein.ActiveResidues>
 VAL166  LYS551  ARG553  GLY616  TRP617  ASP618  TYR619  PRO620  LYS621  CYS622 
 ASP623  PHE694  ASN695  SER759  ASP760  ASP761  ALA762  ILE779  LEU786  VAL792 
 PHE793  MET794  SER795  GLU796  ALA797  LYS798  CYS799  TRP800  GLU811  SER814 

> <Gold.Protein.RotatedAtoms>
  152.0779  133.4138  159.4487 H   0  0  0  0  0  0  0  0  0  0  0  0  # atno 6907 bound_to 6896
  150.6862  134.3016  159.4718 H   0  0  0  0  0  0  0  0  0  0  0  0  # atno 6908 bound_to 6896
  152.0854  134.9442  160.0623 H   0  0  0  0  0  0  0  0  0  0  0  0  # atno 6909 bound_to 6896
  144.8531  140.6098  143.5377 H   0  0  0  0  0  0  0  0  0  0  0  0  # atno 7974 bound_to 7965
  154.5134  140.2197  155.9112 H   0  0  0  0  0  0  0  0  0  0  0  0  # atno 8008 bound_to 7997
  156.1579  140.3148  155.8723 H   0  0  0  0  0  0  0  0  0  0  0  0  # atno 8009 bound_to 7997
  155.3810  140.0472  157.3034 H   0  0  0  0  0  0  0  0  0  0  0  0  # atno 8010 bound_to 7997
  140.2697  143.3352  152.0547 H   0  0  0  0  0  0  0  0  0  0  0  0  # atno 10167 bound_to 10162
  156.0267  130.4402  150.2793 H   0  0  0  0  0  0  0  0  0  0  0  0  # atno 10718 bound_to 10713
  154.7238  135.3031  154.9004 H   0  0  0  0  0  0  0  0  0  0  0  0  # atno 10763 bound_to 10752
  153.9867  135.6723  153.4756 H   0  0  0  0  0  0  0  0  0  0  0  0  # atno 10764 bound_to 10752
  153.0857  135.4985  154.8510 H   0  0  0  0  0  0  0  0  0  0  0  0  # atno 10765 bound_to 10752
  141.1667  133.7114  156.8151 H   0  0  0  0  0  0  0  0  0  0  0  0  # atno 11005 bound_to 11000
  145.4460  139.1529  143.3944 LP  0  0  0  0  0  0  0  0  0  0  0  0  # atno 17320 bound_to 7965
  146.2801  140.4583  142.8780 LP  0  0  0  0  0  0  0  0  0  0  0  0  # atno 17321 bound_to 7965
  139.4992  144.6664  151.6345 LP  0  0  0  0  0  0  0  0  0  0  0  0  # atno 17342 bound_to 10162
  140.5900  143.9797  150.6318 LP  0  0  0  0  0  0  0  0  0  0  0  0  # atno 17343 bound_to 10162
  157.0897  131.0166  151.3126 LP  0  0  0  0  0  0  0  0  0  0  0  0  # atno 17370 bound_to 10713
  157.4864  130.7795  149.7464 LP  0  0  0  0  0  0  0  0  0  0  0  0  # atno 17371 bound_to 10713
  140.2159  134.8793  157.3325 LP  0  0  0  0  0  0  0  0  0  0  0  0  # atno 17394 bound_to 11000
  140.2038  134.4222  155.7648 LP  0  0  0  0  0  0  0  0  0  0  0  0  # atno 17395 bound_to 11000

$$$$
