AV-unprocessed.smi:109|AV-procd|sdf|1041|dock8
  -GOLD-   2262018 73D 1   1.00000     0.00000
 Structure written by MMmdl.
 58 61  0  0  0  0  0  0  0  0  1 V2000
  149.7672  141.1734  153.4517 O   0  0  0  0  0  0  0  0  0  0  0  0
  148.7373  140.8920  154.3748 C   0  0  0  0  0  0  0  0  0  0  0  0
  149.0604  141.5406  155.7318 C   0  0  0  0  0  0  0  0  0  0  0  0
  150.4676  141.2016  156.2837 C   0  0  2  0  0  0  0  0  0  0  0  0
  150.4892  139.8120  156.7472 N   0  0  0  0  0  0  0  0  0  0  0  0
  150.7922  138.7813  155.9263 C   0  0  0  0  0  0  0  0  0  0  0  0
  151.4054  138.9811  154.7311 N   0  0  0  0  0  0  0  0  0  0  0  0
  151.6850  137.9416  153.9403 C   0  0  0  0  0  0  0  0  0  0  0  0
  151.4424  136.6465  154.1501 N   0  0  0  0  0  0  0  0  0  0  0  0
  150.8275  136.4367  155.3498 C   0  0  0  0  0  0  0  0  0  0  0  0
  150.4726  137.4468  156.2874 C   0  0  0  0  0  0  0  0  0  0  0  0
  149.8665  136.8697  157.3953 N   0  0  0  0  0  0  0  0  0  0  0  0
  149.8667  135.5923  157.1245 C   0  0  0  0  0  0  0  0  0  0  0  0
  150.4275  135.2415  155.9162 N   0  0  0  0  0  0  0  0  0  0  0  0
  150.5635  133.8594  155.3501 C   0  0  1  0  0  0  0  0  0  0  0  0
  150.0281  132.9330  156.2489 O   0  0  0  0  0  0  0  0  0  0  0  0
  148.9775  132.1914  155.6339 C   0  0  2  0  0  0  0  0  0  0  0  0
  148.8749  130.7806  156.2400 C   0  0  0  0  0  0  0  0  0  0  0  0
  147.8459  130.0470  155.6103 O   0  0  0  0  0  0  0  0  0  0  0  0
  149.2599  132.2862  154.1272 C   0  0  2  0  0  0  0  0  0  0  0  0
  150.1961  131.3089  153.7115 O   0  0  0  0  0  0  0  0  0  0  0  0
  149.8530  133.6795  153.9923 C   0  0  1  0  0  0  0  0  0  0  0  0
  148.8360  134.6339  153.7424 O   0  0  0  0  0  0  0  0  0  0  0  0
  150.9190  142.1398  157.4403 C   0  0  0  0  0  0  0  0  0  0  0  0
  151.1522  143.6020  156.9824 C   0  0  0  0  0  0  0  0  0  0  0  0
  151.6302  144.5088  158.1287 C   0  0  0  0  0  0  0  0  0  0  0  0
  152.8993  143.9581  158.7898 C   0  0  0  0  0  0  0  0  0  0  0  0
  152.6750  142.5206  159.2728 C   0  0  0  0  0  0  0  0  0  0  0  0
  152.2100  141.6156  158.1216 C   0  0  0  0  0  0  0  0  0  0  0  0
  151.6395  133.6944  155.2831 H   0  0  0  0  0  0  0  0  0  0  0  0
  148.0489  132.7257  155.8381 H   0  0  0  0  0  0  0  0  0  0  0  0
  148.3539  132.1575  153.5334 H   0  0  0  0  0  0  0  0  0  0  0  0
  150.5828  133.7479  153.1845 H   0  0  0  0  0  0  0  0  0  0  0  0
  149.7320  140.5324  152.7583 H   0  0  0  0  0  0  0  0  0  0  0  0
  147.7982  141.2681  153.9690 H   0  0  0  0  0  0  0  0  0  0  0  0
  148.6415  139.8108  154.4784 H   0  0  0  0  0  0  0  0  0  0  0  0
  148.9669  142.6160  155.5931 H   0  0  0  0  0  0  0  0  0  0  0  0
  148.3024  141.2579  156.4636 H   0  0  0  0  0  0  0  0  0  0  0  0
  151.1841  141.3448  155.4751 H   0  0  0  0  0  0  0  0  0  0  0  0
  150.3144  139.6843  157.7336 H   0  0  0  0  0  0  0  0  0  0  0  0
  152.1725  138.1812  153.0070 H   0  0  0  0  0  0  0  0  0  0  0  0
  149.4550  134.8629  157.8071 H   0  0  0  0  0  0  0  0  0  0  0  0
  149.8173  130.2386  156.1576 H   0  0  0  0  0  0  0  0  0  0  0  0
  148.6432  130.8516  157.3031 H   0  0  0  0  0  0  0  0  0  0  0  0
  147.6410  129.2960  156.1464 H   0  0  0  0  0  0  0  0  0  0  0  0
  150.4526  130.8033  154.4678 H   0  0  0  0  0  0  0  0  0  0  0  0
  149.1507  135.2423  153.0914 H   0  0  0  0  0  0  0  0  0  0  0  0
  150.1269  142.1513  158.1911 H   0  0  0  0  0  0  0  0  0  0  0  0
  151.8834  143.6218  156.1731 H   0  0  0  0  0  0  0  0  0  0  0  0
  150.2370  144.0373  156.5849 H   0  0  0  0  0  0  0  0  0  0  0  0
  151.8162  145.5151  157.7522 H   0  0  0  0  0  0  0  0  0  0  0  0
  150.8398  144.6003  158.8748 H   0  0  0  0  0  0  0  0  0  0  0  0
  153.7255  143.9828  158.0784 H   0  0  0  0  0  0  0  0  0  0  0  0
  153.1897  144.5930  159.6275 H   0  0  0  0  0  0  0  0  0  0  0  0
  153.5946  142.1269  159.7067 H   0  0  0  0  0  0  0  0  0  0  0  0
  151.9293  142.5124  160.0688 H   0  0  0  0  0  0  0  0  0  0  0  0
  152.0592  140.6124  158.5204 H   0  0  0  0  0  0  0  0  0  0  0  0
  153.0064  141.5321  157.3811 H   0  0  0  0  0  0  0  0  0  0  0  0
  1  2  1  0  0  0  0
  1 34  1  0  0  0  0
  2  3  1  0  0  0  0
  2 35  1  0  0  0  0
  2 36  1  0  0  0  0
  3  4  1  0  0  0  0
  3 37  1  0  0  0  0
  3 38  1  0  0  0  0
  4  5  1  0  0  0  0
  4 24  1  0  0  0  0
  4 39  1  0  0  0  0
  5  6  1  0  0  0  0
  5 40  1  0  0  0  0
  6 11  1  0  0  0  0
  6  7  2  0  0  0  0
  7  8  1  0  0  0  0
  8  9  2  0  0  0  0
  8 41  1  0  0  0  0
  9 10  1  0  0  0  0
 10 14  1  0  0  0  0
 10 11  2  0  0  0  0
 11 12  1  0  0  0  0
 12 13  2  0  0  0  0
 13 14  1  0  0  0  0
 13 42  1  0  0  0  0
 14 15  1  0  0  0  0
 15 30  1  0  0  0  0
 15 22  1  0  0  0  0
 15 16  1  0  0  0  0
 16 17  1  0  0  0  0
 17 31  1  0  0  0  0
 17 18  1  0  0  0  0
 17 20  1  0  0  0  0
 18 19  1  0  0  0  0
 18 43  1  0  0  0  0
 18 44  1  0  0  0  0
 19 45  1  0  0  0  0
 20 32  1  0  0  0  0
 20 21  1  0  0  0  0
 20 22  1  0  0  0  0
 21 46  1  0  0  0  0
 22 33  1  0  0  0  0
 22 23  1  0  0  0  0
 23 47  1  0  0  0  0
 24 29  1  0  0  0  0
 24 25  1  0  0  0  0
 24 48  1  0  0  0  0
 25 26  1  0  0  0  0
 25 49  1  0  0  0  0
 25 50  1  0  0  0  0
 26 27  1  0  0  0  0
 26 51  1  0  0  0  0
 26 52  1  0  0  0  0
 27 28  1  0  0  0  0
 27 53  1  0  0  0  0
 27 54  1  0  0  0  0
 28 29  1  0  0  0  0
 28 55  1  0  0  0  0
 28 56  1  0  0  0  0
 29 57  1  0  0  0  0
 29 58  1  0  0  0  0
M  END
> <s_m_source_file>
AV-unprocessed.smi

> <i_m_source_file_index>
109

> <i_lp_mmshare_version>
43012

> <i_f3d_flags>
0

> <s_epik_input>
W0NIMl0xW0NIMl1bQ0gyXVtDSDJdW0NIMl1bQ0hdMVtDQEhdKFtDSDJdW0NIMl1bT0hdKVtOSF1jKG5bY0hdbjIpYyhjMjMpbltjSF1uM1tDQEBIXTRPW0NASF0oW0NIMl1bT0hdKVtDQEBIXShbT0hdKVtDQEhdNFtPSF0=

> <s_epik_cmdline>
J2VwaWtfcHl0aG9uJywgJy1waCcsICc3LjAnLCAnLXRuJywgJzgnLCAnLW1hJywgJzIwMCcsICctbWV0YWxfYmluZGluZycsICctaW1hZScsICc8aW5maWxlLm1hZT4nLCAnLW9tYWUnLCAnPG91dGZpbGUubWFlPic=

> <r_lp_tautomer_probability>
1

> <r_epik_Ionization_Penalty>
0.000793976

> <r_epik_Ionization_Penalty_Charging>
0

> <r_epik_Ionization_Penalty_Neutral>
0.000793976

> <r_epik_State_Penalty>
-0

> <r_epik_Charging_Adjusted_Penalty>
0

> <i_epik_Tot_Q>
0

> <i_epik_Tot_abs_Q>
0

> <r_epik_Metal_State_Penalty>
-0

> <b_epik_Metal_Only>
0

> <s_epik_Chemistry_Notes>
This compound contains an acetal/aminal-like group ( X-CH(R)-Y where X, Y are N, S, or O) that may be acid/base labile, releasing an aldehyde.

> <s_lp_Force_Field>
OPLS_2005

> <r_lp_Energy>
56.0983

> <b_lp_Chiralities_Consistent>
1

> <s_lp_Variant>
AV-unprocessed.smi:109-11

> <Gold.Version>
5.8.1

> <Gold.Id.Protein>
6NUR|6NUR_protein|mol2

> <Gold.PLP.Fitness>
53.6621

> <Gold.PLP.PLP>
-42.5647

> <Gold.PLP.part.hbond>
-4.5949

> <Gold.PLP.part.metal>
0.0000

> <Gold.PLP.part.buried>
-1.8251

> <Gold.PLP.part.nonpolar>
-36.0988

> <Gold.PLP.part.repulsive>
1.4630

> <Gold.PLP.ligand.clash>
0.0000

> <Gold.PLP.ligand.torsion>
0.6411

> <Gold.PLP.Chemscore.Hbond>
3.7820

> <Gold.PLP.Chemscore.CHOScore>
0.2728

> <Gold.PLP.Chemscore.Metal>
0.0000

> <Gold.Chemscore.Hbonds>
donor molecule, donor type, donor heavy atom, donor atom, acceptor molecule, acceptor atom, score
      L1  H     1    34       P1  7957  1.00
      L1  H    23    47       P1  7948  0.85
      P1  H  7989  7998       L1     7  0.44
      P1  H  8011  8017       L1     1  0.55
      P1  H 10752 10765       L1     9  1.00
      L1  C     8    41       P1  7949  0.08

> <Gold.PLP.Chemscore.Internal.Correction>
0.2152

> <Gold.Rescore>
     Score         DG    S(hbond)    S(metal)    S(lipo)     H(rot)  DE(clash)    DE(int)     intcor
      8.12     -10.09       2.00        0.00     101.77       5.47       1.37       0.59       ----

> <Gold.Chemscore.Fitness>
8.1247

> <Gold.Chemscore.DG>
-10.0856

> <Gold.Chemscore.ZeroCoef>
-5.4800

> <Gold.Chemscore.Hbond>
2.0037

> <Gold.Chemscore.Metal>
0.0000

> <Gold.Chemscore.Lipo>
101.7671

> <Gold.Chemscore.Internal_Hbond>
0.0000

> <Gold.Chemscore.DEClash>
1.3659

> <Gold.Chemscore.DEInternal>
0.5949

> <Gold.Chemscore.Rot>
5.4662

> <Gold.Chemscore.Internal.Correction>
   9.000000E+99

> <Gold.Chemscore.Hbonds>
donor molecule, donor type, donor heavy atom, donor atom, acceptor molecule, acceptor atom, score
      L1  H     1    34       P1  7957  0.97
      L1  H    23    47       P1  7948  0.14
      P1  H  7989  7998       L1     7  0.26
      P1  H  8011  8017       L1     1  0.03
      P1  H 10752 10765       L1     9  0.52

> <Gold.Chemscore.Hbond.Weighted>
-6.6923

> <Gold.Chemscore.Metal.Weighted>
-0.0000

> <Gold.Chemscore.Lipo.Weighted>
-11.9068

> <Gold.Chemscore.Internal_Hbond.Weighted>
0.0000

> <Gold.Chemscore.DEClash.Weighted>
1.3659

> <Gold.Chemscore.DEInternal.Weighted>
0.5949

> <Gold.Chemscore.Rot.Weighted>
13.9935

> <Gold.Chemscore.Internal.Correction.Weighted>
   9.000000E+99

> <Gold.Protein.RotatedTorsions>
[ 6907 6896 6895 6894 ] final  -14.89 input  -60.11 | X-H torsion
[ 7974 7965 7964 7962 ] final  -78.29 input  175.53 | X-H torsion
[ 8008 7997 7996 7995 ] final  -79.15 input   59.86 | X-H torsion
[ 10167 10162 10161 10158 ] final   11.55 input  -65.29 | X-H torsion
[ 10718 10713 10712 10709 ] final  -24.00 input   66.30 | X-H torsion
[ 10763 10752 10751 10750 ] final  149.33 input  -60.55 | X-H torsion
[ 11005 11000 10999 10996 ] final  155.91 input  -57.11 | X-H torsion

> <Gold.Protein.ActiveResidues>
 VAL166  LYS551  ARG553  GLY616  TRP617  ASP618  TYR619  PRO620  LYS621  CYS622 
 ASP623  PHE694  ASN695  SER759  ASP760  ASP761  ALA762  ILE779  LEU786  VAL792 
 PHE793  MET794  SER795  GLU796  ALA797  LYS798  CYS799  TRP800  GLU811  SER814 

> <Gold.Protein.RotatedAtoms>
  151.3324  135.0844  159.9342 H   0  0  0  0  0  0  0  0  0  0  0  0  # atno 6907 bound_to 6896
  152.5231  133.9530  159.7691 H   0  0  0  0  0  0  0  0  0  0  0  0  # atno 6908 bound_to 6896
  150.9871  133.6134  159.2743 H   0  0  0  0  0  0  0  0  0  0  0  0  # atno 6909 bound_to 6896
  145.5884  140.9434  143.1305 H   0  0  0  0  0  0  0  0  0  0  0  0  # atno 7974 bound_to 7965
  154.5758  140.0683  156.9031 H   0  0  0  0  0  0  0  0  0  0  0  0  # atno 8008 bound_to 7997
  155.2552  140.3354  155.4260 H   0  0  0  0  0  0  0  0  0  0  0  0  # atno 8009 bound_to 7997
  156.2152  140.1775  156.7589 H   0  0  0  0  0  0  0  0  0  0  0  0  # atno 8010 bound_to 7997
  140.6125  143.8378  150.7081 H   0  0  0  0  0  0  0  0  0  0  0  0  # atno 10167 bound_to 10162
  156.4835  130.4550  149.6798 H   0  0  0  0  0  0  0  0  0  0  0  0  # atno 10718 bound_to 10713
  154.0693  135.2868  155.3311 H   0  0  0  0  0  0  0  0  0  0  0  0  # atno 10763 bound_to 10752
  154.6757  135.5282  153.8199 H   0  0  0  0  0  0  0  0  0  0  0  0  # atno 10764 bound_to 10752
  153.0491  135.6569  154.0876 H   0  0  0  0  0  0  0  0  0  0  0  0  # atno 10765 bound_to 10752
  140.1625  134.8599  157.2592 H   0  0  0  0  0  0  0  0  0  0  0  0  # atno 11005 bound_to 11000
  144.7362  139.7579  143.7328 LP  0  0  0  0  0  0  0  0  0  0  0  0  # atno 17320 bound_to 7965
  146.1665  139.4798  142.9955 LP  0  0  0  0  0  0  0  0  0  0  0  0  # atno 17321 bound_to 7965
  140.1950  143.4006  152.1835 LP  0  0  0  0  0  0  0  0  0  0  0  0  # atno 17342 bound_to 10162
  139.5372  144.7221  151.4853 LP  0  0  0  0  0  0  0  0  0  0  0  0  # atno 17343 bound_to 10162
  156.3498  130.7426  151.2384 LP  0  0  0  0  0  0  0  0  0  0  0  0  # atno 17370 bound_to 10713
  157.7481  131.0380  150.4483 LP  0  0  0  0  0  0  0  0  0  0  0  0  # atno 17371 bound_to 10713
  140.2472  134.3725  155.7456 LP  0  0  0  0  0  0  0  0  0  0  0  0  # atno 17394 bound_to 11000
  141.2211  133.7297  156.8880 LP  0  0  0  0  0  0  0  0  0  0  0  0  # atno 17395 bound_to 11000

$$$$
