AV-unprocessed.smi:1354|AV-procd|sdf|5534|dock5
  -GOLD-   22720 5123D 1   1.00000     0.00000
 Structure written by MMmdl.
 39 41  0  0  0  0  0  0  0  0  1 V2000
  152.3073  135.5602  156.4710 O   0  0  0  0  0  0  0  0  0  0  0  0
  151.2418  136.4566  156.2363 C   0  0  0  0  0  0  0  0  0  0  0  0
  151.7371  137.7437  155.5537 C   0  0  0  0  0  0  0  0  0  0  0  0
  150.6230  138.6234  155.0596 C   0  0  0  0  0  0  0  0  0  0  0  0
  149.6731  138.1468  154.2527 N   0  0  0  0  0  0  0  0  0  0  0  0
  148.8793  139.2527  154.0249 C   0  0  0  0  0  0  0  0  0  0  0  0
  147.7196  139.4024  153.2311 C   0  0  0  0  0  0  0  0  0  0  0  0
  147.0701  140.6510  153.1447 C   0  0  0  0  0  0  0  0  0  0  0  0
  147.5684  141.7644  153.8512 C   0  0  0  0  0  0  0  0  0  0  0  0
  148.7199  141.6353  154.6512 C   0  0  0  0  0  0  0  0  0  0  0  0
  149.3659  140.3867  154.7333 C   0  0  0  0  0  0  0  0  0  0  0  0
  150.4932  139.9299  155.4114 N   0  0  0  0  0  0  0  0  0  0  0  0
  151.3325  140.7298  156.2950 C   0  0  0  0  0  0  0  0  0  0  0  0
  150.5916  141.1650  157.5666 C   0  0  0  0  0  0  0  0  0  0  0  0
  151.3534  142.1722  158.2188 O   0  0  0  0  0  0  0  0  0  0  0  0
  152.2233  141.7987  159.2195 C   0  0  0  0  0  0  0  0  0  0  0  0
  152.7985  140.5071  159.3247 C   0  0  0  0  0  0  0  0  0  0  0  0
  153.6802  140.2025  160.3799 C   0  0  0  0  0  0  0  0  0  0  0  0
  153.9964  141.1801  161.3408 C   0  0  0  0  0  0  0  0  0  0  0  0
  153.4286  142.4640  161.2463 C   0  0  0  0  0  0  0  0  0  0  0  0
  152.5463  142.7712  160.1918 C   0  0  0  0  0  0  0  0  0  0  0  0
  151.8659  144.3564  160.0924 Cl  0  0  0  0  0  0  0  0  0  0  0  0
  152.8603  135.9208  157.1473 H   0  0  0  0  0  0  0  0  0  0  0  0
  150.4697  135.9661  155.6430 H   0  0  0  0  0  0  0  0  0  0  0  0
  150.7948  136.7014  157.2000 H   0  0  0  0  0  0  0  0  0  0  0  0
  152.3168  138.3238  156.2724 H   0  0  0  0  0  0  0  0  0  0  0  0
  152.4285  137.4912  154.7518 H   0  0  0  0  0  0  0  0  0  0  0  0
  147.3314  138.5555  152.6849 H   0  0  0  0  0  0  0  0  0  0  0  0
  146.1865  140.7554  152.5324 H   0  0  0  0  0  0  0  0  0  0  0  0
  147.0671  142.7184  153.7780 H   0  0  0  0  0  0  0  0  0  0  0  0
  149.1051  142.4884  155.1890 H   0  0  0  0  0  0  0  0  0  0  0  0
  152.2033  140.1347  156.5708 H   0  0  0  0  0  0  0  0  0  0  0  0
  151.7234  141.5904  155.7528 H   0  0  0  0  0  0  0  0  0  0  0  0
  149.6030  141.5461  157.3076 H   0  0  0  0  0  0  0  0  0  0  0  0
  150.4547  140.3040  158.2198 H   0  0  0  0  0  0  0  0  0  0  0  0
  152.5758  139.7308  158.6086 H   0  0  0  0  0  0  0  0  0  0  0  0
  154.1140  139.2160  160.4519 H   0  0  0  0  0  0  0  0  0  0  0  0
  154.6728  140.9457  162.1496 H   0  0  0  0  0  0  0  0  0  0  0  0
  153.6715  143.2146  161.9840 H   0  0  0  0  0  0  0  0  0  0  0  0
  1  2  1  0  0  0  0
  1 23  1  0  0  0  0
  2  3  1  0  0  0  0
  2 24  1  0  0  0  0
  2 25  1  0  0  0  0
  3  4  1  0  0  0  0
  3 26  1  0  0  0  0
  3 27  1  0  0  0  0
  4 12  1  0  0  0  0
  4  5  2  0  0  0  0
  5  6  1  0  0  0  0
  6 11  2  0  0  0  0
  6  7  1  0  0  0  0
  7  8  2  0  0  0  0
  7 28  1  0  0  0  0
  8  9  1  0  0  0  0
  8 29  1  0  0  0  0
  9 10  2  0  0  0  0
  9 30  1  0  0  0  0
 10 11  1  0  0  0  0
 10 31  1  0  0  0  0
 11 12  1  0  0  0  0
 12 13  1  0  0  0  0
 13 14  1  0  0  0  0
 13 32  1  0  0  0  0
 13 33  1  0  0  0  0
 14 15  1  0  0  0  0
 14 34  1  0  0  0  0
 14 35  1  0  0  0  0
 15 16  1  0  0  0  0
 16 21  1  0  0  0  0
 16 17  2  0  0  0  0
 17 18  1  0  0  0  0
 17 36  1  0  0  0  0
 18 19  2  0  0  0  0
 18 37  1  0  0  0  0
 19 20  1  0  0  0  0
 19 38  1  0  0  0  0
 20 21  2  0  0  0  0
 20 39  1  0  0  0  0
 21 22  1  0  0  0  0
M  END
> <s_m_source_file>
AV-unprocessed.smi

> <i_m_source_file_index>
1354

> <i_lp_mmshare_version>
43012

> <i_f3d_flags>
0

> <s_epik_input>
W2NIXTFbY0hdW2NIXVtjSF1jKGMxMiluKGMobjIpW0NIMl1bQ0gyXVtPSF0pW0NIMl1bQ0gyXU9jM1tjSF1bY0hdW2NIXVtjSF1jM0Ns

> <s_epik_cmdline>
J2VwaWtfcHl0aG9uJywgJy1waCcsICc3LjAnLCAnLXRuJywgJzgnLCAnLW1hJywgJzIwMCcsICctbWV0YWxfYmluZGluZycsICctaW1hZScsICc8aW5maWxlLm1hZT4nLCAnLW9tYWUnLCAnPG91dGZpbGUubWFlPic=

> <r_lp_tautomer_probability>
1

> <r_epik_Ionization_Penalty>
0.195126

> <r_epik_Ionization_Penalty_Charging>
0

> <r_epik_Ionization_Penalty_Neutral>
0.195126

> <r_epik_State_Penalty>
0.184862

> <r_epik_Charging_Adjusted_Penalty>
0.184862

> <i_epik_Tot_Q>
0

> <i_epik_Tot_abs_Q>
0

> <r_epik_Metal_State_Penalty>
0.000216911

> <b_epik_Metal_Only>
0

> <s_lp_Force_Field>
OPLS_2005

> <r_lp_Energy>
15.3671

> <b_lp_Chiralities_Consistent>
1

> <s_lp_Variant>
AV-unprocessed.smi:1354-1

> <Gold.Version>
5.8.1

> <Gold.Id.Protein>
6NUR|6NUR_protein|mol2

> <Gold.PLP.Fitness>
49.1603

> <Gold.PLP.PLP>
-47.4941

> <Gold.PLP.part.hbond>
-1.0000

> <Gold.PLP.part.metal>
0.0000

> <Gold.PLP.part.buried>
-2.7807

> <Gold.PLP.part.nonpolar>
-43.7779

> <Gold.PLP.part.repulsive>
0.2686

> <Gold.PLP.ligand.clash>
0.0000

> <Gold.PLP.ligand.torsion>
0.7186

> <Gold.PLP.Chemscore.Hbond>
1.0000

> <Gold.PLP.Chemscore.CHOScore>
0.0000

> <Gold.PLP.Chemscore.Metal>
0.0000

> <Gold.Chemscore.Hbonds>
donor molecule, donor type, donor heavy atom, donor atom, acceptor molecule, acceptor atom, score
      P1  H 10752 10764       L1     1  1.00

> <Gold.PLP.Chemscore.Internal.Correction>
0.1035

> <Gold.Rescore>
     Score         DG    S(hbond)    S(metal)    S(lipo)     H(rot)  DE(clash)    DE(int)     intcor
     16.10     -16.99       0.60        0.00     131.90       2.31       0.18       0.72       ----

> <Gold.Chemscore.Fitness>
16.0986

> <Gold.Chemscore.DG>
-16.9925

> <Gold.Chemscore.ZeroCoef>
-5.4800

> <Gold.Chemscore.Hbond>
0.5967

> <Gold.Chemscore.Metal>
0.0000

> <Gold.Chemscore.Lipo>
131.9041

> <Gold.Chemscore.Internal_Hbond>
0.0000

> <Gold.Chemscore.DEClash>
0.1762

> <Gold.Chemscore.DEInternal>
0.7177

> <Gold.Chemscore.Rot>
2.3098

> <Gold.Chemscore.Internal.Correction>
   9.000000E+99

> <Gold.Chemscore.Hbonds>
donor molecule, donor type, donor heavy atom, donor atom, acceptor molecule, acceptor atom, score
      P1  H 10752 10764       L1     1  0.42

> <Gold.Chemscore.Hbond.Weighted>
-1.9928

> <Gold.Chemscore.Metal.Weighted>
-0.0000

> <Gold.Chemscore.Lipo.Weighted>
-15.4328

> <Gold.Chemscore.Internal_Hbond.Weighted>
0.0000

> <Gold.Chemscore.DEClash.Weighted>
0.1762

> <Gold.Chemscore.DEInternal.Weighted>
0.7177

> <Gold.Chemscore.Rot.Weighted>
5.9131

> <Gold.Chemscore.Internal.Correction.Weighted>
   9.000000E+99

> <Gold.Protein.RotatedTorsions>
[ 6907 6896 6895 6894 ] final   48.63 input  -60.11 | X-H torsion
[ 7974 7965 7964 7962 ] final  -40.97 input  175.53 | X-H torsion
[ 8008 7997 7996 7995 ] final   12.81 input   59.86 | X-H torsion
[ 10167 10162 10161 10158 ] final -165.08 input  -65.29 | X-H torsion
[ 10718 10713 10712 10709 ] final  -25.28 input   66.30 | X-H torsion
[ 10763 10752 10751 10750 ] final  -29.44 input  -60.55 | X-H torsion
[ 11005 11000 10999 10996 ] final   34.32 input  -57.11 | X-H torsion

> <Gold.Protein.ActiveResidues>
 VAL166  LYS551  ARG553  GLY616  TRP617  ASP618  TYR619  PRO620  LYS621  CYS622 
 ASP623  PHE694  ASN695  SER759  ASP760  ASP761  ALA762  ILE779  LEU786  VAL792 
 PHE793  MET794  SER795  GLU796  ALA797  LYS798  CYS799  TRP800  GLU811  SER814 

> <Gold.Protein.RotatedAtoms>
  152.2817  134.7821  160.0394 H   0  0  0  0  0  0  0  0  0  0  0  0  # atno 6907 bound_to 6896
  151.8397  133.3416  159.3647 H   0  0  0  0  0  0  0  0  0  0  0  0  # atno 6908 bound_to 6896
  150.7192  134.5331  159.5754 H   0  0  0  0  0  0  0  0  0  0  0  0  # atno 6909 bound_to 6896
  146.0255  140.6797  142.9158 H   0  0  0  0  0  0  0  0  0  0  0  0  # atno 7974 bound_to 7965
  154.8258  140.2891  155.5755 H   0  0  0  0  0  0  0  0  0  0  0  0  # atno 8008 bound_to 7997
  156.3001  140.2541  156.3105 H   0  0  0  0  0  0  0  0  0  0  0  0  # atno 8009 bound_to 7997
  154.9287  140.0384  157.2026 H   0  0  0  0  0  0  0  0  0  0  0  0  # atno 8010 bound_to 7997
  139.6206  144.0632  152.1929 H   0  0  0  0  0  0  0  0  0  0  0  0  # atno 10167 bound_to 10162
  156.4665  130.4515  149.6896 H   0  0  0  0  0  0  0  0  0  0  0  0  # atno 10718 bound_to 10713
  153.7646  135.6917  153.4918 H   0  0  0  0  0  0  0  0  0  0  0  0  # atno 10763 bound_to 10752
  153.1915  135.4469  155.0154 H   0  0  0  0  0  0  0  0  0  0  0  0  # atno 10764 bound_to 10752
  154.8140  135.3390  154.7159 H   0  0  0  0  0  0  0  0  0  0  0  0  # atno 10765 bound_to 10752
  140.2540  134.3270  155.7880 H   0  0  0  0  0  0  0  0  0  0  0  0  # atno 11005 bound_to 11000
  144.7008  140.3642  143.7158 LP  0  0  0  0  0  0  0  0  0  0  0  0  # atno 17320 bound_to 7965
  145.7125  139.1688  143.2531 LP  0  0  0  0  0  0  0  0  0  0  0  0  # atno 17321 bound_to 7965
  140.0273  144.6108  150.7517 LP  0  0  0  0  0  0  0  0  0  0  0  0  # atno 17342 bound_to 10162
  140.7379  143.2772  151.3706 LP  0  0  0  0  0  0  0  0  0  0  0  0  # atno 17343 bound_to 10162
  156.3663  130.7507  151.2485 LP  0  0  0  0  0  0  0  0  0  0  0  0  # atno 17370 bound_to 10713
  157.7494  131.0336  150.4278 LP  0  0  0  0  0  0  0  0  0  0  0  0  # atno 17371 bound_to 10713
  141.2198  133.7370  156.9082 LP  0  0  0  0  0  0  0  0  0  0  0  0  # atno 17394 bound_to 11000
  140.1530  134.9217  157.2617 LP  0  0  0  0  0  0  0  0  0  0  0  0  # atno 17395 bound_to 11000

$$$$
