AV-unprocessed.smi:1200|AV-procd|sdf|5024|dock3
  -GOLD-   22720 4 43D 1   1.00000     0.00000
 Structure written by MMmdl.
 43 44  0  0  0  0  0  0  0  0  2 V2000
  141.6469  139.2355  155.1152 C   0  0  0  0  0  0  0  0  0  0  0  0
  142.5592  140.3370  154.8472 N   0  0  0  0  0  0  0  0  0  0  0  0
  143.0214  141.1766  155.7841 C   0  0  0  0  0  0  0  0  0  0  0  0
  142.7103  141.0983  156.9732 O   0  0  0  0  0  0  0  0  0  0  0  0
  143.9642  142.2822  155.2981 C   0  0  0  0  0  0  0  0  0  0  0  0
  145.1895  141.7542  154.6449 N   0  3  2  0  0  0  0  0  0  0  0  0
  146.0357  140.9663  155.5766 C   0  0  0  0  0  0  0  0  0  0  0  0
  147.2129  140.3053  154.8362 C   0  0  0  0  0  0  0  0  0  0  0  0
  148.0597  141.3294  154.0607 C   0  0  2  0  0  0  0  0  0  0  0  0
  148.8448  142.1496  154.9833 N   0  0  0  0  0  0  0  0  0  0  0  0
  149.7451  141.6815  155.8601 C   0  0  0  0  0  0  0  0  0  0  0  0
  150.0352  140.4899  155.9613 O   0  0  0  0  0  0  0  0  0  0  0  0
  150.2858  142.6792  156.5803 N   0  0  0  0  0  0  0  0  0  0  0  0
  151.2414  142.5981  157.6294 C   0  0  0  0  0  0  0  0  0  0  0  0
  151.8906  143.7167  158.2070 C   0  0  0  0  0  0  0  0  0  0  0  0
  152.8356  143.5014  159.2285 C   0  0  0  0  0  0  0  0  0  0  0  0
  153.1030  142.1783  159.6302 C   0  0  0  0  0  0  0  0  0  0  0  0
  152.5018  141.1024  159.0802 N   0  0  0  0  0  0  0  0  0  0  0  0
  151.5975  141.3165  158.1010 C   0  0  0  0  0  0  0  0  0  0  0  0
  147.1478  142.1877  153.1613 C   0  0  0  0  0  0  0  0  0  0  0  0
  145.9780  142.8047  153.9471 C   0  0  0  0  0  0  0  0  0  0  0  0
  141.4404  138.6901  154.1942 H   0  0  0  0  0  0  0  0  0  0  0  0
  140.7000  139.6038  155.5122 H   0  0  0  0  0  0  0  0  0  0  0  0
  142.0780  138.5379  155.8344 H   0  0  0  0  0  0  0  0  0  0  0  0
  142.8522  140.4698  153.8899 H   0  0  0  0  0  0  0  0  0  0  0  0
  143.4429  142.9631  154.6231 H   0  0  0  0  0  0  0  0  0  0  0  0
  144.2388  142.8641  156.1791 H   0  0  0  0  0  0  0  0  0  0  0  0
  146.4012  141.6145  156.3747 H   0  0  0  0  0  0  0  0  0  0  0  0
  145.4350  140.1894  156.0510 H   0  0  0  0  0  0  0  0  0  0  0  0
  147.8367  139.7526  155.5400 H   0  0  0  0  0  0  0  0  0  0  0  0
  146.8200  139.5662  154.1366 H   0  0  0  0  0  0  0  0  0  0  0  0
  148.7572  140.7772  153.4278 H   0  0  0  0  0  0  0  0  0  0  0  0
  148.6719  143.1441  154.9709 H   0  0  0  0  0  0  0  0  0  0  0  0
  150.0088  143.6151  156.3227 H   0  0  0  0  0  0  0  0  0  0  0  0
  151.6971  144.7269  157.8815 H   0  0  0  0  0  0  0  0  0  0  0  0
  153.3481  144.3325  159.6900 H   0  0  0  0  0  0  0  0  0  0  0  0
  153.8236  141.9787  160.4095 H   0  0  0  0  0  0  0  0  0  0  0  0
  151.1400  140.4319  157.6821 H   0  0  0  0  0  0  0  0  0  0  0  0
  147.7215  142.9722  152.6664 H   0  0  0  0  0  0  0  0  0  0  0  0
  146.7461  141.5625  152.3626 H   0  0  0  0  0  0  0  0  0  0  0  0
  145.3396  143.3573  153.2573 H   0  0  0  0  0  0  0  0  0  0  0  0
  146.3508  143.5275  154.6745 H   0  0  0  0  0  0  0  0  0  0  0  0
  144.8697  141.1077  153.9369 H   0  0  0  0  0  0  0  0  0  0  0  0
  1  2  1  0  0  0  0
  1 22  1  0  0  0  0
  1 23  1  0  0  0  0
  1 24  1  0  0  0  0
  2  3  1  0  0  0  0
  2 25  1  0  0  0  0
  3  4  2  0  0  0  0
  3  5  1  0  0  0  0
  5  6  1  0  0  0  0
  5 26  1  0  0  0  0
  5 27  1  0  0  0  0
  6 21  1  0  0  0  0
  6  7  1  0  0  0  0
  6 43  1  0  0  0  0
  7  8  1  0  0  0  0
  7 28  1  0  0  0  0
  7 29  1  0  0  0  0
  8  9  1  0  0  0  0
  8 30  1  0  0  0  0
  8 31  1  0  0  0  0
  9 10  1  0  0  0  0
  9 20  1  0  0  0  0
  9 32  1  0  0  0  0
 10 11  1  0  0  0  0
 10 33  1  0  0  0  0
 11 12  2  0  0  0  0
 11 13  1  0  0  0  0
 13 14  1  0  0  0  0
 13 34  1  0  0  0  0
 14 19  1  0  0  0  0
 14 15  2  0  0  0  0
 15 16  1  0  0  0  0
 15 35  1  0  0  0  0
 16 17  2  0  0  0  0
 16 36  1  0  0  0  0
 17 18  1  0  0  0  0
 17 37  1  0  0  0  0
 18 19  2  0  0  0  0
 19 38  1  0  0  0  0
 20 21  1  0  0  0  0
 20 39  1  0  0  0  0
 20 40  1  0  0  0  0
 21 41  1  0  0  0  0
 21 42  1  0  0  0  0
M  CHG  1   6   1
M  END
> <s_m_source_file>
AV-unprocessed.smi

> <i_m_source_file_index>
1200

> <i_lp_mmshare_version>
43012

> <i_f3d_flags>
0

> <s_epik_input>
W0NIM11bTkhdQyg9TylbQ0gyXU4xW0NIMl1bQ0gyXVtDSF0oW0NIMl1bQ0gyXTEpW05IXUMoPU8pW05IXWMyW2NIXVtjSF1bY0hdbltjSF0y

> <s_epik_cmdline>
J2VwaWtfcHl0aG9uJywgJy1waCcsICc3LjAnLCAnLXRuJywgJzgnLCAnLW1hJywgJzIwMCcsICctbWV0YWxfYmluZGluZycsICctaW1hZScsICc8aW5maWxlLm1hZT4nLCAnLW9tYWUnLCAnPG91dGZpbGUubWFlPic=

> <r_epik_Ionization_Penalty>
0.842849

> <r_epik_Ionization_Penalty_Charging>
0.838844

> <r_epik_Ionization_Penalty_Neutral>
0.00400543

> <r_epik_State_Penalty>
0.858736

> <r_epik_Charging_Adjusted_Penalty>
1.69758

> <i_epik_Tot_Q>
1

> <i_epik_Tot_abs_Q>
1

> <r_epik_Metal_State_Penalty>
0.860766

> <b_epik_Metal_Only>
0

> <s_lp_Force_Field>
OPLS_2005

> <r_lp_Energy>
17.1685

> <b_lp_Chiralities_Consistent>
1

> <s_lp_Variant>
AV-unprocessed.smi:1200-3

> <Gold.Version>
5.8.1

> <Gold.Id.Protein>
6NUR|6NUR_protein|mol2

> <Gold.PLP.Fitness>
48.6652

> <Gold.PLP.PLP>
-33.7435

> <Gold.PLP.part.hbond>
-4.0000

> <Gold.PLP.part.metal>
0.0000

> <Gold.PLP.part.buried>
-6.2021

> <Gold.PLP.part.nonpolar>
-24.6002

> <Gold.PLP.part.repulsive>
0.3234

> <Gold.PLP.ligand.clash>
0.0000

> <Gold.PLP.ligand.torsion>
0.0510

> <Gold.PLP.Chemscore.Hbond>
5.0000

> <Gold.PLP.Chemscore.CHOScore>
0.0000

> <Gold.PLP.Chemscore.Metal>
0.0000

> <Gold.Chemscore.Hbonds>
donor molecule, donor type, donor heavy atom, donor atom, acceptor molecule, acceptor atom, score
      L1  H     2    25       P1 10175  1.00
      L1  H     6    43       P1 10175  2.00
      L1  H    10    33       P1  8028  1.00
      L1  H    13    34       P1  8028  1.00

> <Gold.PLP.Chemscore.Internal.Correction>
0.0238

> <Gold.Rescore>
     Score         DG    S(hbond)    S(metal)    S(lipo)     H(rot)  DE(clash)    DE(int)     intcor
     20.80     -23.73       3.73        0.00      86.48       1.69       1.46       1.46       ----

> <Gold.Chemscore.Fitness>
20.7994

> <Gold.Chemscore.DG>
-23.7276

> <Gold.Chemscore.ZeroCoef>
-5.4800

> <Gold.Chemscore.Hbond>
3.7273

> <Gold.Chemscore.Metal>
0.0000

> <Gold.Chemscore.Lipo>
86.4768

> <Gold.Chemscore.Internal_Hbond>
0.0000

> <Gold.Chemscore.DEClash>
1.4650

> <Gold.Chemscore.DEInternal>
1.4632

> <Gold.Chemscore.Rot>
1.6873

> <Gold.Chemscore.Internal.Correction>
   9.000000E+99

> <Gold.Chemscore.Hbonds>
donor molecule, donor type, donor heavy atom, donor atom, acceptor molecule, acceptor atom, score
      L1  H     2    25       P1 10175  0.85
      L1  H     6    43       P1 10175  0.71
      L1  H    10    33       P1  8028  0.96
      L1  H    13    34       P1  8028  0.96

> <Gold.Chemscore.Hbond.Weighted>
-12.4492

> <Gold.Chemscore.Metal.Weighted>
-0.0000

> <Gold.Chemscore.Lipo.Weighted>
-10.1178

> <Gold.Chemscore.Internal_Hbond.Weighted>
0.0000

> <Gold.Chemscore.DEClash.Weighted>
1.4650

> <Gold.Chemscore.DEInternal.Weighted>
1.4632

> <Gold.Chemscore.Rot.Weighted>
4.3194

> <Gold.Chemscore.Internal.Correction.Weighted>
   9.000000E+99

> <Gold.Protein.RotatedTorsions>
[ 6907 6896 6895 6894 ] final    3.07 input  -60.11 | X-H torsion
[ 7974 7965 7964 7962 ] final  -89.62 input  175.53 | X-H torsion
[ 8008 7997 7996 7995 ] final  162.65 input   59.86 | X-H torsion
[ 10167 10162 10161 10158 ] final  -33.93 input  -65.29 | X-H torsion
[ 10718 10713 10712 10709 ] final   77.14 input   66.30 | X-H torsion
[ 10763 10752 10751 10750 ] final  -55.49 input  -60.55 | X-H torsion
[ 11005 11000 10999 10996 ] final -157.61 input  -57.11 | X-H torsion

> <Gold.Protein.ActiveResidues>
 VAL166  LYS551  ARG553  GLY616  TRP617  ASP618  TYR619  PRO620  LYS621  CYS622 
 ASP623  PHE694  ASN695  SER759  ASP760  ASP761  ALA762  ILE779  LEU786  VAL792 
 PHE793  MET794  SER795  GLU796  ALA797  LYS798  CYS799  TRP800  GLU811  SER814 

> <Gold.Protein.RotatedAtoms>
  151.6192  135.1033  160.0097 H   0  0  0  0  0  0  0  0  0  0  0  0  # atno 6907 bound_to 6896
  152.4167  133.7045  159.6454 H   0  0  0  0  0  0  0  0  0  0  0  0  # atno 6908 bound_to 6896
  150.8055  133.8444  159.3229 H   0  0  0  0  0  0  0  0  0  0  0  0  # atno 6909 bound_to 6896
  145.4374  140.9558  143.2094 H   0  0  0  0  0  0  0  0  0  0  0  0  # atno 7974 bound_to 7965
  156.2016  140.1745  156.7888 H   0  0  0  0  0  0  0  0  0  0  0  0  # atno 8008 bound_to 7997
  154.5599  140.0701  156.8833 H   0  0  0  0  0  0  0  0  0  0  0  0  # atno 8009 bound_to 7997
  155.2868  140.3352  155.4257 H   0  0  0  0  0  0  0  0  0  0  0  0  # atno 8010 bound_to 7997
  140.7195  143.3584  151.2012 H   0  0  0  0  0  0  0  0  0  0  0  0  # atno 10167 bound_to 10162
  157.6699  130.9807  150.1598 H   0  0  0  0  0  0  0  0  0  0  0  0  # atno 10718 bound_to 10713
  154.1915  135.6426  153.5061 H   0  0  0  0  0  0  0  0  0  0  0  0  # atno 10763 bound_to 10752
  153.0034  135.5430  154.6410 H   0  0  0  0  0  0  0  0  0  0  0  0  # atno 10764 bound_to 10752
  154.5800  135.2924  155.0715 H   0  0  0  0  0  0  0  0  0  0  0  0  # atno 10765 bound_to 10752
  140.6627  134.4332  157.5234 H   0  0  0  0  0  0  0  0  0  0  0  0  # atno 11005 bound_to 11000
  144.8144  139.5904  143.7015 LP  0  0  0  0  0  0  0  0  0  0  0  0  # atno 17320 bound_to 7965
  146.2575  139.6335  142.9385 LP  0  0  0  0  0  0  0  0  0  0  0  0  # atno 17321 bound_to 7965
  139.7131  143.9344  152.2955 LP  0  0  0  0  0  0  0  0  0  0  0  0  # atno 17342 bound_to 10162
  139.9076  144.6875  150.8597 LP  0  0  0  0  0  0  0  0  0  0  0  0  # atno 17343 bound_to 10162
  156.2377  130.3688  149.8372 LP  0  0  0  0  0  0  0  0  0  0  0  0  # atno 17370 bound_to 10713
  156.6181  130.8615  151.3469 LP  0  0  0  0  0  0  0  0  0  0  0  0  # atno 17371 bound_to 10713
  139.9007  134.8562  156.1906 LP  0  0  0  0  0  0  0  0  0  0  0  0  # atno 17394 bound_to 11000
  141.0453  133.6916  156.1672 LP  0  0  0  0  0  0  0  0  0  0  0  0  # atno 17395 bound_to 11000

$$$$
