AV-unprocessed.smi:2122|AV-procd|sdf|8646|dock8
  -GOLD-   2272011393D 1   1.00000     0.00000
 Structure written by MMmdl.
 41 41  0  0  0  0  0  0  0  0  1 V2000
  152.1078  144.9925  159.1521 C   0  0  0  0  0  0  0  0  0  0  0  0
  151.6285  144.0050  160.2215 C   0  0  0  0  0  0  0  0  0  0  0  0
  152.7583  143.1068  160.7423 C   0  0  0  0  0  0  0  0  0  0  0  0
  153.4319  142.3029  159.6172 C   0  0  0  0  0  0  0  0  0  0  0  0
  153.3599  140.8718  159.8344 N   0  0  0  0  0  0  0  0  0  0  0  0
  154.0591  140.2030  160.8432 C   0  0  0  0  0  0  0  0  0  0  0  0
  154.8608  140.9479  161.6944 N   0  0  0  0  0  0  0  0  0  0  0  0
  153.9530  138.8549  161.0237 C   0  0  0  0  0  0  0  0  0  0  0  0
  154.6470  138.1707  162.0203 N   0  0  0  0  0  0  0  0  0  0  0  0
  155.5302  138.8952  162.9232 C   0  0  0  0  0  0  0  0  0  0  0  0
  154.7906  136.7153  162.0595 C   0  0  0  0  0  0  0  0  0  0  0  0
  154.3149  136.0815  163.3776 C   0  0  0  0  0  0  0  0  0  0  0  0
  154.7452  134.7316  163.4171 O   0  0  0  0  0  0  0  0  0  0  0  0
  154.4063  134.0905  164.6342 C   0  0  0  0  0  0  0  0  0  0  0  0
  153.0940  138.0529  160.1427 C   0  0  0  0  0  0  0  0  0  0  0  0
  152.9446  136.8329  160.2002 O   0  0  0  0  0  0  0  0  0  0  0  0
  152.4055  138.7789  159.1740 N   0  0  0  0  0  0  0  0  0  0  0  0
  152.4863  140.1538  158.9834 C   0  0  0  0  0  0  0  0  0  0  0  0
  151.8084  140.6827  158.1016 O   0  0  0  0  0  0  0  0  0  0  0  0
  151.7924  138.2627  158.5600 H   0  0  0  0  0  0  0  0  0  0  0  0
  151.2845  145.6139  158.7994 H   0  0  0  0  0  0  0  0  0  0  0  0
  152.5226  144.4688  158.2907 H   0  0  0  0  0  0  0  0  0  0  0  0
  152.8798  145.6546  159.5455 H   0  0  0  0  0  0  0  0  0  0  0  0
  151.1899  144.5598  161.0518 H   0  0  0  0  0  0  0  0  0  0  0  0
  150.8312  143.3864  159.8083 H   0  0  0  0  0  0  0  0  0  0  0  0
  153.5051  143.7201  161.2483 H   0  0  0  0  0  0  0  0  0  0  0  0
  152.3589  142.4251  161.4942 H   0  0  0  0  0  0  0  0  0  0  0  0
  152.9967  142.5182  158.6398 H   0  0  0  0  0  0  0  0  0  0  0  0
  154.4862  142.5593  159.5192 H   0  0  0  0  0  0  0  0  0  0  0  0
  154.9452  141.9496  161.5973 H   0  0  0  0  0  0  0  0  0  0  0  0
  155.3891  140.5218  162.4419 H   0  0  0  0  0  0  0  0  0  0  0  0
  155.4396  139.9738  162.7878 H   0  0  0  0  0  0  0  0  0  0  0  0
  156.5700  138.6198  162.7430 H   0  0  0  0  0  0  0  0  0  0  0  0
  155.2868  138.6660  163.9609 H   0  0  0  0  0  0  0  0  0  0  0  0
  154.2398  136.2842  161.2227 H   0  0  0  0  0  0  0  0  0  0  0  0
  155.8396  136.4586  161.9046 H   0  0  0  0  0  0  0  0  0  0  0  0
  154.7301  136.6282  164.2261 H   0  0  0  0  0  0  0  0  0  0  0  0
  153.2275  136.1205  163.4568 H   0  0  0  0  0  0  0  0  0  0  0  0
  154.7558  133.0583  164.6146 H   0  0  0  0  0  0  0  0  0  0  0  0
  153.3262  134.0769  164.7862 H   0  0  0  0  0  0  0  0  0  0  0  0
  154.8739  134.5879  165.4851 H   0  0  0  0  0  0  0  0  0  0  0  0
  1  2  1  0  0  0  0
  1 21  1  0  0  0  0
  1 22  1  0  0  0  0
  1 23  1  0  0  0  0
  2  3  1  0  0  0  0
  2 24  1  0  0  0  0
  2 25  1  0  0  0  0
  3  4  1  0  0  0  0
  3 26  1  0  0  0  0
  3 27  1  0  0  0  0
  4  5  1  0  0  0  0
  4 28  1  0  0  0  0
  4 29  1  0  0  0  0
  5 18  1  0  0  0  0
  5  6  1  0  0  0  0
  6  7  1  0  0  0  0
  6  8  2  0  0  0  0
  7 30  1  0  0  0  0
  7 31  1  0  0  0  0
  8  9  1  0  0  0  0
  8 15  1  0  0  0  0
  9 10  1  0  0  0  0
  9 11  1  0  0  0  0
 10 32  1  0  0  0  0
 10 33  1  0  0  0  0
 10 34  1  0  0  0  0
 11 12  1  0  0  0  0
 11 35  1  0  0  0  0
 11 36  1  0  0  0  0
 12 13  1  0  0  0  0
 12 37  1  0  0  0  0
 12 38  1  0  0  0  0
 13 14  1  0  0  0  0
 14 39  1  0  0  0  0
 14 40  1  0  0  0  0
 14 41  1  0  0  0  0
 15 16  2  0  0  0  0
 15 17  1  0  0  0  0
 17 20  1  0  0  0  0
 17 18  1  0  0  0  0
 18 19  2  0  0  0  0
M  END
> <s_m_source_file>
AV-unprocessed.smi

> <i_m_source_file_index>
2122

> <i_lp_mmshare_version>
43012

> <i_f3d_flags>
0

> <s_epik_input>
W0NIM11bQ0gyXVtDSDJdW0NIMl1uMWMoW05IMl0pYyhjKD1PKVtuSF1jMT1PKU4oW0NIM10pW0NIMl1bQ0gyXU9bQ0gzXQ==

> <s_epik_cmdline>
J2VwaWtfcHl0aG9uJywgJy1waCcsICc3LjAnLCAnLXRuJywgJzgnLCAnLW1hJywgJzIwMCcsICctbWV0YWxfYmluZGluZycsICctaW1hZScsICc8aW5maWxlLm1hZT4nLCAnLW9tYWUnLCAnPG91dGZpbGUubWFlPic=

> <r_lp_tautomer_probability>
1

> <r_epik_Ionization_Penalty>
2.26322e-05

> <r_epik_Ionization_Penalty_Charging>
2.75876e-06

> <r_epik_Ionization_Penalty_Neutral>
1.98734e-05

> <r_epik_State_Penalty>
-0

> <r_epik_Charging_Adjusted_Penalty>
2.75876e-06

> <i_epik_Tot_Q>
0

> <i_epik_Tot_abs_Q>
0

> <r_epik_Metal_State_Penalty>
-0

> <b_epik_Metal_Only>
0

> <s_epik_Chemistry_Notes>
This compound has an imine and may undergo hydrolysis.

> <s_lp_Force_Field>
OPLS_2005

> <r_lp_Energy>
20.5532

> <b_lp_Chiralities_Consistent>
1

> <s_lp_Variant>
AV-unprocessed.smi:2122-1

> <Gold.Version>
5.8.1

> <Gold.Id.Protein>
6NUR|6NUR_protein|mol2

> <Gold.PLP.Fitness>
42.6024

> <Gold.PLP.PLP>
-40.6277

> <Gold.PLP.part.hbond>
-1.9478

> <Gold.PLP.part.metal>
0.0000

> <Gold.PLP.part.buried>
-5.6296

> <Gold.PLP.part.nonpolar>
-33.4657

> <Gold.PLP.part.repulsive>
0.1235

> <Gold.PLP.ligand.clash>
20.2349

> <Gold.PLP.ligand.torsion>
0.5997

> <Gold.PLP.Chemscore.Hbond>
0.9913

> <Gold.PLP.Chemscore.CHOScore>
0.0000

> <Gold.PLP.Chemscore.Metal>
0.0000

> <Gold.Chemscore.Hbonds>
donor molecule, donor type, donor heavy atom, donor atom, acceptor molecule, acceptor atom, score
      P1  H  6896  6909       L1    16  1.00

> <Gold.PLP.Chemscore.Internal.Correction>
20.4353

> <Gold.Rescore>
     Score         DG    S(hbond)    S(metal)    S(lipo)     H(rot)  DE(clash)    DE(int)     intcor
      9.35     -13.46       1.00        0.00      86.85       2.16       0.06       4.05       ----

> <Gold.Chemscore.Fitness>
9.3522

> <Gold.Chemscore.DG>
-13.4574

> <Gold.Chemscore.ZeroCoef>
-5.4800

> <Gold.Chemscore.Hbond>
1.0000

> <Gold.Chemscore.Metal>
0.0000

> <Gold.Chemscore.Lipo>
86.8509

> <Gold.Chemscore.Internal_Hbond>
0.0000

> <Gold.Chemscore.DEClash>
0.0598

> <Gold.Chemscore.DEInternal>
4.0453

> <Gold.Chemscore.Rot>
2.1579

> <Gold.Chemscore.Internal.Correction>
   9.000000E+99

> <Gold.Chemscore.Hbonds>
donor molecule, donor type, donor heavy atom, donor atom, acceptor molecule, acceptor atom, score
      P1  H  6896  6909       L1    16  0.96

> <Gold.Chemscore.Hbond.Weighted>
-3.3399

> <Gold.Chemscore.Metal.Weighted>
-0.0000

> <Gold.Chemscore.Lipo.Weighted>
-10.1616

> <Gold.Chemscore.Internal_Hbond.Weighted>
0.0000

> <Gold.Chemscore.DEClash.Weighted>
0.0598

> <Gold.Chemscore.DEInternal.Weighted>
4.0453

> <Gold.Chemscore.Rot.Weighted>
5.5241

> <Gold.Chemscore.Internal.Correction.Weighted>
   9.000000E+99

> <Gold.Protein.RotatedTorsions>
[ 6907 6896 6895 6894 ] final  149.39 input  -60.11 | X-H torsion
[ 7974 7965 7964 7962 ] final  152.54 input  175.53 | X-H torsion
[ 8008 7997 7996 7995 ] final  -89.47 input   59.86 | X-H torsion
[ 10167 10162 10161 10158 ] final -157.08 input  -65.29 | X-H torsion
[ 10718 10713 10712 10709 ] final -104.33 input   66.30 | X-H torsion
[ 10763 10752 10751 10750 ] final  -57.16 input  -60.55 | X-H torsion
[ 11005 11000 10999 10996 ] final  -18.71 input  -57.11 | X-H torsion

> <Gold.Protein.ActiveResidues>
 VAL166  LYS551  ARG553  GLY616  TRP617  ASP618  TYR619  PRO620  LYS621  CYS622 
 ASP623  PHE694  ASN695  SER759  ASP760  ASP761  ALA762  ILE779  LEU786  VAL792 
 PHE793  MET794  SER795  GLU796  ALA797  LYS798  CYS799  TRP800  GLU811  SER814 

> <Gold.Protein.RotatedAtoms>
  152.1286  133.4394  159.4709 H   0  0  0  0  0  0  0  0  0  0  0  0  # atno 6907 bound_to 6896
  150.6876  134.2448  159.4496 H   0  0  0  0  0  0  0  0  0  0  0  0  # atno 6908 bound_to 6896
  152.0330  134.9756  160.0623 H   0  0  0  0  0  0  0  0  0  0  0  0  # atno 6909 bound_to 6896
  144.8215  139.6682  143.6098 H   0  0  0  0  0  0  0  0  0  0  0  0  # atno 7974 bound_to 7965
  154.6870  140.0541  157.0324 H   0  0  0  0  0  0  0  0  0  0  0  0  # atno 8008 bound_to 7997
  155.0871  140.3215  155.4565 H   0  0  0  0  0  0  0  0  0  0  0  0  # atno 8009 bound_to 7997
  156.2715  140.2054  156.5998 H   0  0  0  0  0  0  0  0  0  0  0  0  # atno 8010 bound_to 7997
  139.6799  143.9599  152.2331 H   0  0  0  0  0  0  0  0  0  0  0  0  # atno 10167 bound_to 10162
  156.0300  130.5510  150.7381 H   0  0  0  0  0  0  0  0  0  0  0  0  # atno 10718 bound_to 10713
  154.2181  135.6382  153.5136 H   0  0  0  0  0  0  0  0  0  0  0  0  # atno 10763 bound_to 10752
  152.9975  135.5490  154.6143 H   0  0  0  0  0  0  0  0  0  0  0  0  # atno 10764 bound_to 10752
  154.5596  135.2908  155.0905 H   0  0  0  0  0  0  0  0  0  0  0  0  # atno 10765 bound_to 10752
  140.8295  133.8008  155.9743 H   0  0  0  0  0  0  0  0  0  0  0  0  # atno 11005 bound_to 11000
  146.2520  139.6221  142.9420 LP  0  0  0  0  0  0  0  0  0  0  0  0  # atno 17320 bound_to 7965
  145.5094  141.0436  143.2496 LP  0  0  0  0  0  0  0  0  0  0  0  0  # atno 17321 bound_to 7965
  139.9386  144.6696  150.8289 LP  0  0  0  0  0  0  0  0  0  0  0  0  # atno 17342 bound_to 10162
  140.7648  143.3259  151.2516 LP  0  0  0  0  0  0  0  0  0  0  0  0  # atno 17343 bound_to 10162
  157.4956  131.0914  151.0375 LP  0  0  0  0  0  0  0  0  0  0  0  0  # atno 17370 bound_to 10713
  157.0770  130.5887  149.5413 LP  0  0  0  0  0  0  0  0  0  0  0  0  # atno 17371 bound_to 10713
  140.9014  134.2374  157.5039 LP  0  0  0  0  0  0  0  0  0  0  0  0  # atno 17394 bound_to 11000
  139.8705  134.9708  156.4714 LP  0  0  0  0  0  0  0  0  0  0  0  0  # atno 17395 bound_to 11000

$$$$
