AV-unprocessed.smi:2718|AV-procd|sdf|10493|dock10
  -GOLD-   2272014543D 1   1.00000     0.00000
 Structure written by MMmdl.
 47 48  0  0  0  0  0  0  0  0  1 V2000
  151.9197  144.2888  158.8685 C   0  0  0  0  0  0  0  0  0  0  0  0
  152.2414  142.8097  158.9500 C   0  0  0  0  0  0  0  0  0  0  0  0
  153.4968  142.4749  159.7364 C   0  0  0  0  0  0  0  0  0  0  0  0
  151.4616  141.8833  158.3609 C   0  0  0  0  0  0  0  0  0  0  0  0
  151.6734  140.4119  158.3659 C   0  0  1  0  0  0  0  0  0  0  0  0
  150.5545  139.4679  157.9639 C   0  0  2  0  0  0  0  0  0  0  0  0
  150.3771  138.1899  158.7225 C   0  0  0  0  0  0  0  0  0  0  0  0
  151.1248  137.8272  159.6312 O   0  0  0  0  0  0  0  0  0  0  0  0
  149.3181  137.4735  158.3181 N   0  0  0  0  0  0  0  0  0  0  0  0
  148.8896  136.1914  158.8722 C   0  0  0  0  0  0  0  0  0  0  0  0
  147.7784  136.3132  159.9417 C   0  0  1  0  0  0  0  0  0  0  0  0
  146.4264  136.6843  159.3163 C   0  0  0  0  0  0  0  0  0  0  0  0
  147.6657  135.0946  160.8190 C   0  0  0  0  0  0  0  0  0  0  0  0
  147.4370  133.8614  160.3479 N   0  0  0  0  0  0  0  0  0  0  0  0
  147.3999  133.0386  161.4552 N   0  0  0  0  0  0  0  0  0  0  0  0
  147.5929  133.8579  162.4874 C   0  0  0  0  0  0  0  0  0  0  0  0
  147.7559  135.1495  162.1649 N   0  0  0  0  0  0  0  0  0  0  0  0
  147.9634  136.2785  163.0501 C   0  0  0  0  0  0  0  0  0  0  0  0
  151.7771  139.6282  157.0681 C   0  0  0  0  0  0  0  0  0  0  0  0
  151.5728  140.2994  155.7182 C   0  0  0  0  0  0  0  0  0  0  0  0
  152.8631  138.5676  156.9421 C   0  0  0  0  0  0  0  0  0  0  0  0
  151.7798  144.7011  159.8682 H   0  0  0  0  0  0  0  0  0  0  0  0
  151.0093  144.4712  158.2966 H   0  0  0  0  0  0  0  0  0  0  0  0
  152.7361  144.8260  158.3857 H   0  0  0  0  0  0  0  0  0  0  0  0
  154.3655  142.9398  159.2697 H   0  0  0  0  0  0  0  0  0  0  0  0
  153.6810  141.4027  159.7938 H   0  0  0  0  0  0  0  0  0  0  0  0
  153.4134  142.8541  160.7551 H   0  0  0  0  0  0  0  0  0  0  0  0
  150.5839  142.2158  157.8257 H   0  0  0  0  0  0  0  0  0  0  0  0
  152.3174  140.1044  159.1882 H   0  0  0  0  0  0  0  0  0  0  0  0
  149.6345  139.9185  157.5937 H   0  0  0  0  0  0  0  0  0  0  0  0
  148.7621  137.8447  157.5611 H   0  0  0  0  0  0  0  0  0  0  0  0
  148.5763  135.5241  158.0679 H   0  0  0  0  0  0  0  0  0  0  0  0
  149.7733  135.7362  159.3205 H   0  0  0  0  0  0  0  0  0  0  0  0
  148.0564  137.1547  160.5750 H   0  0  0  0  0  0  0  0  0  0  0  0
  145.6741  136.8575  160.0862 H   0  0  0  0  0  0  0  0  0  0  0  0
  146.0592  135.8911  158.6644 H   0  0  0  0  0  0  0  0  0  0  0  0
  146.5056  137.5944  158.7215 H   0  0  0  0  0  0  0  0  0  0  0  0
  147.6090  133.5058  163.5084 H   0  0  0  0  0  0  0  0  0  0  0  0
  148.0583  135.9354  164.0805 H   0  0  0  0  0  0  0  0  0  0  0  0
  147.1156  136.9601  162.9789 H   0  0  0  0  0  0  0  0  0  0  0  0
  148.8736  136.8084  162.7708 H   0  0  0  0  0  0  0  0  0  0  0  0
  151.3051  139.5584  154.9645 H   0  0  0  0  0  0  0  0  0  0  0  0
  152.4861  140.8040  155.4017 H   0  0  0  0  0  0  0  0  0  0  0  0
  150.7734  141.0393  155.7634 H   0  0  0  0  0  0  0  0  0  0  0  0
  152.5121  137.7407  156.3247 H   0  0  0  0  0  0  0  0  0  0  0  0
  153.1582  138.1775  157.9154 H   0  0  0  0  0  0  0  0  0  0  0  0
  153.7537  138.9911  156.4772 H   0  0  0  0  0  0  0  0  0  0  0  0
  1  2  1  0  0  0  0
  1 22  1  0  0  0  0
  1 23  1  0  0  0  0
  1 24  1  0  0  0  0
  2  3  1  0  0  0  0
  2  4  2  0  0  0  0
  3 25  1  0  0  0  0
  3 26  1  0  0  0  0
  3 27  1  0  0  0  0
  4  5  1  0  0  0  0
  4 28  1  0  0  0  0
  5 19  1  0  0  0  0
  5  6  1  0  0  0  0
  5 29  1  0  0  0  0
  6  7  1  0  0  0  0
  6 19  1  0  0  0  0
  6 30  1  0  0  0  0
  7  8  2  0  0  0  0
  7  9  1  0  0  0  0
  9 10  1  0  0  0  0
  9 31  1  0  0  0  0
 10 11  1  0  0  0  0
 10 32  1  0  0  0  0
 10 33  1  0  0  0  0
 11 12  1  0  0  0  0
 11 13  1  0  0  0  0
 11 34  1  0  0  0  0
 12 35  1  0  0  0  0
 12 36  1  0  0  0  0
 12 37  1  0  0  0  0
 13 17  1  0  0  0  0
 13 14  2  0  0  0  0
 14 15  1  0  0  0  0
 15 16  2  0  0  0  0
 16 17  1  0  0  0  0
 16 38  1  0  0  0  0
 17 18  1  0  0  0  0
 18 39  1  0  0  0  0
 18 40  1  0  0  0  0
 18 41  1  0  0  0  0
 19 20  1  0  0  0  0
 19 21  1  0  0  0  0
 20 42  1  0  0  0  0
 20 43  1  0  0  0  0
 20 44  1  0  0  0  0
 21 45  1  0  0  0  0
 21 46  1  0  0  0  0
 21 47  1  0  0  0  0
M  END
> <s_m_source_file>
AV-unprocessed.smi

> <i_m_source_file_index>
2718

> <i_lp_mmshare_version>
43012

> <i_f3d_flags>
0

> <s_epik_input>
W0NIM11DKFtDSDNdKT1bQ0hdW0NAQEhdKEMxKFtDSDNdKVtDSDNdKVtDQEhdMUMoPU8pW05IXVtDSDJdW0NASF0oW0NIM10pYzJubltjSF1uMltDSDNd

> <s_epik_cmdline>
J2VwaWtfcHl0aG9uJywgJy1waCcsICc3LjAnLCAnLXRuJywgJzgnLCAnLW1hJywgJzIwMCcsICctbWV0YWxfYmluZGluZycsICctaW1hZScsICc8aW5maWxlLm1hZT4nLCAnLW9tYWUnLCAnPG91dGZpbGUubWFlPic=

> <r_lp_tautomer_probability>
1

> <r_epik_Ionization_Penalty>
0.000449586

> <r_epik_Ionization_Penalty_Charging>
0

> <r_epik_Ionization_Penalty_Neutral>
0.000449586

> <r_epik_State_Penalty>
0.000243372

> <r_epik_Charging_Adjusted_Penalty>
0.000243372

> <i_epik_Tot_Q>
0

> <i_epik_Tot_abs_Q>
0

> <r_epik_Metal_State_Penalty>
-0

> <b_epik_Metal_Only>
0

> <s_lp_Force_Field>
OPLS_2005

> <r_lp_Energy>
15.3902

> <b_lp_Chiralities_Consistent>
1

> <s_lp_Variant>
AV-unprocessed.smi:2718-8

> <Gold.Version>
5.8.1

> <Gold.Id.Protein>
6NUR|6NUR_protein|mol2

> <Gold.PLP.Fitness>
41.1515

> <Gold.PLP.PLP>
-42.0080

> <Gold.PLP.part.hbond>
-0.7771

> <Gold.PLP.part.metal>
0.0000

> <Gold.PLP.part.buried>
-4.6853

> <Gold.PLP.part.nonpolar>
-36.7718

> <Gold.PLP.part.repulsive>
0.1318

> <Gold.PLP.ligand.clash>
0.0000

> <Gold.PLP.ligand.torsion>
0.5509

> <Gold.PLP.Chemscore.Hbond>
0.0000

> <Gold.PLP.Chemscore.CHOScore>
0.0000

> <Gold.PLP.Chemscore.Metal>
0.0000

> <Gold.PLP.Chemscore.Internal.Correction>
0.2454

> <Gold.Rescore>
     Score         DG    S(hbond)    S(metal)    S(lipo)     H(rot)  DE(clash)    DE(int)     intcor
     10.04     -10.50       0.00        0.00      85.65       1.95       0.02       0.44       ----

> <Gold.Chemscore.Fitness>
10.0409

> <Gold.Chemscore.DG>
-10.5007

> <Gold.Chemscore.ZeroCoef>
-5.4800

> <Gold.Chemscore.Hbond>
0.0000

> <Gold.Chemscore.Metal>
0.0000

> <Gold.Chemscore.Lipo>
85.6519

> <Gold.Chemscore.Internal_Hbond>
0.0000

> <Gold.Chemscore.DEClash>
0.0235

> <Gold.Chemscore.DEInternal>
0.4364

> <Gold.Chemscore.Rot>
1.9533

> <Gold.Chemscore.Internal.Correction>
   9.000000E+99

> <Gold.Chemscore.Hbond.Weighted>
-0.0000

> <Gold.Chemscore.Metal.Weighted>
-0.0000

> <Gold.Chemscore.Lipo.Weighted>
-10.0213

> <Gold.Chemscore.Internal_Hbond.Weighted>
0.0000

> <Gold.Chemscore.DEClash.Weighted>
0.0235

> <Gold.Chemscore.DEInternal.Weighted>
0.4364

> <Gold.Chemscore.Rot.Weighted>
5.0005

> <Gold.Chemscore.Internal.Correction.Weighted>
   9.000000E+99

> <Gold.Protein.RotatedTorsions>
[ 6907 6896 6895 6894 ] final   59.79 input  -60.11 | X-H torsion
[ 7974 7965 7964 7962 ] final  135.97 input  175.53 | X-H torsion
[ 8008 7997 7996 7995 ] final   60.98 input   59.86 | X-H torsion
[ 10167 10162 10161 10158 ] final  178.07 input  -65.29 | X-H torsion
[ 10718 10713 10712 10709 ] final  -55.33 input   66.30 | X-H torsion
[ 10763 10752 10751 10750 ] final  -36.04 input  -60.55 | X-H torsion
[ 11005 11000 10999 10996 ] final   95.62 input  -57.11 | X-H torsion

> <Gold.Protein.ActiveResidues>
 VAL166  LYS551  ARG553  GLY616  TRP617  ASP618  TYR619  PRO620  LYS621  CYS622 
 ASP623  PHE694  ASN695  SER759  ASP760  ASP761  ALA762  ILE779  LEU786  VAL792 
 PHE793  MET794  SER795  GLU796  ALA797  LYS798  CYS799  TRP800  GLU811  SER814 

> <Gold.Protein.RotatedAtoms>
  152.3946  134.6387  160.0094 H   0  0  0  0  0  0  0  0  0  0  0  0  # atno 6907 bound_to 6896
  151.6610  133.3311  159.3182 H   0  0  0  0  0  0  0  0  0  0  0  0  # atno 6908 bound_to 6896
  150.7856  134.6881  159.6526 H   0  0  0  0  0  0  0  0  0  0  0  0  # atno 6909 bound_to 6896
  144.9611  139.4709  143.5479 H   0  0  0  0  0  0  0  0  0  0  0  0  # atno 7974 bound_to 7965
  155.5910  140.3493  155.4566 H   0  0  0  0  0  0  0  0  0  0  0  0  # atno 8008 bound_to 7997
  156.0301  140.1272  157.0292 H   0  0  0  0  0  0  0  0  0  0  0  0  # atno 8009 bound_to 7997
  154.4349  140.1045  156.6073 H   0  0  0  0  0  0  0  0  0  0  0  0  # atno 8010 bound_to 7997
  139.5279  144.2724  152.0617 H   0  0  0  0  0  0  0  0  0  0  0  0  # atno 10167 bound_to 10162
  156.1377  130.4156  150.0157 H   0  0  0  0  0  0  0  0  0  0  0  0  # atno 10718 bound_to 10713
  153.8732  135.6829  153.4773 H   0  0  0  0  0  0  0  0  0  0  0  0  # atno 10763 bound_to 10752
  153.1276  135.4712  154.9294 H   0  0  0  0  0  0  0  0  0  0  0  0  # atno 10764 bound_to 10752
  154.7704  135.3237  154.8151 H   0  0  0  0  0  0  0  0  0  0  0  0  # atno 10765 bound_to 10752
  139.8787  134.8908  156.4037 H   0  0  0  0  0  0  0  0  0  0  0  0  # atno 11005 bound_to 11000
  146.3353  139.8761  142.8832 LP  0  0  0  0  0  0  0  0  0  0  0  0  # atno 17320 bound_to 7965
  145.2698  141.0105  143.3778 LP  0  0  0  0  0  0  0  0  0  0  0  0  # atno 17321 bound_to 7965
  140.2183  144.4492  150.6354 LP  0  0  0  0  0  0  0  0  0  0  0  0  # atno 17342 bound_to 10162
  140.6435  143.2208  151.6237 LP  0  0  0  0  0  0  0  0  0  0  0  0  # atno 17343 bound_to 10162
  156.8051  130.9304  151.3645 LP  0  0  0  0  0  0  0  0  0  0  0  0  # atno 17370 bound_to 10713
  157.6547  130.8915  149.9705 LP  0  0  0  0  0  0  0  0  0  0  0  0  # atno 17371 bound_to 10713
  140.9249  133.7619  155.9952 LP  0  0  0  0  0  0  0  0  0  0  0  0  # atno 17394 bound_to 11000
  140.8398  134.3080  157.5318 LP  0  0  0  0  0  0  0  0  0  0  0  0  # atno 17395 bound_to 11000

$$$$
