AV-unprocessed.smi:113|AV-procd|sdf|1105|dock7
  -GOLD-   2262018223D 1   1.00000     0.00000
 Structure written by MMmdl.
 53 56  0  0  0  0  0  0  0  0  2 V2000
  152.9719  138.8418  159.8990 C   0  0  0  0  0  0  0  0  0  0  0  0
  152.5287  140.2010  159.4007 C   0  0  0  0  0  0  0  0  0  0  0  0
  152.0432  140.4016  158.0940 C   0  0  0  0  0  0  0  0  0  0  0  0
  151.6382  141.6951  157.6806 C   0  0  0  0  0  0  0  0  0  0  0  0
  151.1060  141.9438  156.2651 C   0  0  0  0  0  0  0  0  0  0  0  0
  150.6151  140.7851  155.5326 N   0  0  0  0  0  0  0  0  0  0  0  0
  151.5492  139.7796  155.1832 C   0  0  0  0  0  0  0  0  0  0  0  0
  152.7405  139.8743  155.4861 O   0  0  0  0  0  0  0  0  0  0  0  0
  150.9882  138.6300  154.4695 C   0  0  0  0  0  0  0  0  0  0  0  0
  151.9312  137.5078  154.0649 C   0  0  0  0  0  0  0  0  0  0  0  0
  149.6619  138.5905  154.1951 C   0  0  0  0  0  0  0  0  0  0  0  0
  148.7710  139.5904  154.5432 N   0  0  0  0  0  0  0  0  0  0  0  0
  147.2990  139.4196  154.2386 C   0  0  2  0  0  0  0  0  0  0  0  0
  146.5112  138.7272  155.3648 C   0  0  0  0  0  0  0  0  0  0  0  0
  145.7219  137.6480  154.6306 C   0  0  2  0  0  0  0  0  0  0  0  0
  146.2128  136.3631  154.9619 O   0  0  0  0  0  0  0  0  0  0  0  0
  145.9112  137.9932  153.1419 C   0  0  2  0  0  0  0  0  0  0  0  0
  145.8556  136.8279  152.1381 C   0  0  0  0  0  0  0  0  0  0  0  0
  146.2916  137.2541  150.8647 O   0  0  0  0  0  0  0  0  0  0  0  0
  147.1735  138.6394  153.0933 O   0  0  0  0  0  0  0  0  0  0  0  0
  149.2304  140.7161  155.2614 C   0  0  0  0  0  0  0  0  0  0  0  0
  148.4514  141.5879  155.6517 O   0  0  0  0  0  0  0  0  0  0  0  0
  151.7361  142.7628  158.6151 C   0  0  0  0  0  0  0  0  0  0  0  0
  151.3518  144.0863  158.2913 C   0  0  0  0  0  0  0  0  0  0  0  0
  151.4649  145.1176  159.2445 C   0  0  0  0  0  0  0  0  0  0  0  0
  151.9626  144.8433  160.5320 C   0  0  0  0  0  0  0  0  0  0  0  0
  152.3483  143.5331  160.8711 C   0  0  0  0  0  0  0  0  0  0  0  0
  152.2351  142.4998  159.9195 C   0  0  0  0  0  0  0  0  0  0  0  0
  152.6045  141.2446  160.2514 N   0  3  0  0  0  0  0  0  0  0  0  0
  153.0407  138.1263  159.0791 H   0  0  0  0  0  0  0  0  0  0  0  0
  152.2597  138.4568  160.6292 H   0  0  0  0  0  0  0  0  0  0  0  0
  153.9512  138.9083  160.3739 H   0  0  0  0  0  0  0  0  0  0  0  0
  151.9861  139.5571  157.4238 H   0  0  0  0  0  0  0  0  0  0  0  0
  150.2990  142.6782  156.2910 H   0  0  0  0  0  0  0  0  0  0  0  0
  151.8756  142.4129  155.6502 H   0  0  0  0  0  0  0  0  0  0  0  0
  151.4092  136.7084  153.5380 H   0  0  0  0  0  0  0  0  0  0  0  0
  152.4061  137.0721  154.9447 H   0  0  0  0  0  0  0  0  0  0  0  0
  152.7130  137.8860  153.4049 H   0  0  0  0  0  0  0  0  0  0  0  0
  149.2807  137.7254  153.6714 H   0  0  0  0  0  0  0  0  0  0  0  0
  146.9083  140.4161  154.0282 H   0  0  0  0  0  0  0  0  0  0  0  0
  147.1636  138.3269  156.1417 H   0  0  0  0  0  0  0  0  0  0  0  0
  145.8508  139.4606  155.8283 H   0  0  0  0  0  0  0  0  0  0  0  0
  144.6660  137.6773  154.9015 H   0  0  0  0  0  0  0  0  0  0  0  0
  146.7776  136.0689  154.2632 H   0  0  0  0  0  0  0  0  0  0  0  0
  145.1667  138.7411  152.8611 H   0  0  0  0  0  0  0  0  0  0  0  0
  146.5085  136.0205  152.4703 H   0  0  0  0  0  0  0  0  0  0  0  0
  144.8514  136.4099  152.0646 H   0  0  0  0  0  0  0  0  0  0  0  0
  145.5949  137.7451  150.4564 H   0  0  0  0  0  0  0  0  0  0  0  0
  150.9653  144.3351  157.3147 H   0  0  0  0  0  0  0  0  0  0  0  0
  151.1679  146.1235  158.9857 H   0  0  0  0  0  0  0  0  0  0  0  0
  152.0474  145.6379  161.2592 H   0  0  0  0  0  0  0  0  0  0  0  0
  152.7289  143.3282  161.8614 H   0  0  0  0  0  0  0  0  0  0  0  0
  152.9582  141.0767  161.1930 H   0  0  0  0  0  0  0  0  0  0  0  0
  1  2  1  0  0  0  0
  1 30  1  0  0  0  0
  1 31  1  0  0  0  0
  1 32  1  0  0  0  0
  2 29  1  0  0  0  0
  2  3  2  0  0  0  0
  3  4  1  0  0  0  0
  3 33  1  0  0  0  0
  4  5  1  0  0  0  0
  4 23  2  0  0  0  0
  5  6  1  0  0  0  0
  5 34  1  0  0  0  0
  5 35  1  0  0  0  0
  6 21  1  0  0  0  0
  6  7  1  0  0  0  0
  7  8  2  0  0  0  0
  7  9  1  0  0  0  0
  9 10  1  0  0  0  0
  9 11  2  0  0  0  0
 10 36  1  0  0  0  0
 10 37  1  0  0  0  0
 10 38  1  0  0  0  0
 11 12  1  0  0  0  0
 11 39  1  0  0  0  0
 12 13  1  0  0  0  0
 12 21  1  0  0  0  0
 13 20  1  0  0  0  0
 13 14  1  0  0  0  0
 13 40  1  0  0  0  0
 14 15  1  0  0  0  0
 14 41  1  0  0  0  0
 14 42  1  0  0  0  0
 15 16  1  0  0  0  0
 15 17  1  0  0  0  0
 15 43  1  0  0  0  0
 16 44  1  0  0  0  0
 17 18  1  0  0  0  0
 17 20  1  0  0  0  0
 17 45  1  0  0  0  0
 18 19  1  0  0  0  0
 18 46  1  0  0  0  0
 18 47  1  0  0  0  0
 19 48  1  0  0  0  0
 21 22  2  0  0  0  0
 23 28  1  0  0  0  0
 23 24  1  0  0  0  0
 24 25  2  0  0  0  0
 24 49  1  0  0  0  0
 25 26  1  0  0  0  0
 25 50  1  0  0  0  0
 26 27  2  0  0  0  0
 26 51  1  0  0  0  0
 27 28  1  0  0  0  0
 27 52  1  0  0  0  0
 28 29  2  0  0  0  0
 29 53  1  0  0  0  0
M  CHG  1  29   1
M  END
> <s_m_source_file>
AV-unprocessed.smi

> <i_m_source_file_index>
113

> <i_lp_mmshare_version>
43012

> <i_f3d_flags>
0

> <s_epik_input>
W2NIXTFbY0hdW2NIXVtjSF1jKGMxMiluYyhbQ0gzXSlbY0hdYzJbQ0gyXW4zYyg9TyljKFtDSDNdKVtjSF1uKGMzPU8pW0NAQEhdNFtDSDJdW0NAQEhdKFtPSF0pW0NASF0oTzQpW0NIMl1bT0hd

> <s_epik_cmdline>
J2VwaWtfcHl0aG9uJywgJy1waCcsICc3LjAnLCAnLXRuJywgJzgnLCAnLW1hJywgJzIwMCcsICctbWV0YWxfYmluZGluZycsICctaW1hZScsICc8aW5maWxlLm1hZT4nLCAnLW9tYWUnLCAnPG91dGZpbGUubWFlPic=

> <r_lp_tautomer_probability>
1

> <r_epik_Ionization_Penalty>
0.705471

> <r_epik_Ionization_Penalty_Charging>
0.70547

> <r_epik_Ionization_Penalty_Neutral>
1.19947e-07

> <r_epik_State_Penalty>
0.728574

> <r_epik_Charging_Adjusted_Penalty>
1.43404

> <i_epik_Tot_Q>
1

> <i_epik_Tot_abs_Q>
1

> <r_epik_Metal_State_Penalty>
4.61665

> <b_epik_Metal_Only>
0

> <s_epik_Chemistry_Notes>
This compound contains an acetal/aminal-like group ( X-CH(R)-Y where X, Y are N, S, or O) that may be acid/base labile, releasing an aldehyde.

> <s_lp_Force_Field>
OPLS_2005

> <r_lp_Energy>
39.3678

> <b_lp_Chiralities_Consistent>
1

> <s_lp_Variant>
AV-unprocessed.smi:113-15

> <Gold.Version>
5.8.1

> <Gold.Id.Protein>
6NUR|6NUR_protein|mol2

> <Gold.PLP.Fitness>
61.2763

> <Gold.PLP.PLP>
-51.4871

> <Gold.PLP.part.hbond>
-4.2768

> <Gold.PLP.part.metal>
0.0000

> <Gold.PLP.part.buried>
-1.0959

> <Gold.PLP.part.nonpolar>
-46.7545

> <Gold.PLP.part.repulsive>
1.2865

> <Gold.PLP.ligand.clash>
0.0000

> <Gold.PLP.ligand.torsion>
1.1189

> <Gold.PLP.Chemscore.Hbond>
3.0000

> <Gold.PLP.Chemscore.CHOScore>
1.0000

> <Gold.PLP.Chemscore.Metal>
0.0000

> <Gold.Chemscore.Hbonds>
donor molecule, donor type, donor heavy atom, donor atom, acceptor molecule, acceptor atom, score
      L1  H    19    48       P1 10171  1.00
      P1  H  7954  7966       L1    19  0.60
      P1  H  7997  8009       L1     8  1.00
      L1  C    11    39       P1  7948  1.00

> <Gold.PLP.Chemscore.Internal.Correction>
0.0270

> <Gold.Rescore>
     Score         DG    S(hbond)    S(metal)    S(lipo)     H(rot)  DE(clash)    DE(int)     intcor
     18.35     -24.19       2.91        0.00     142.82       3.01       2.88       2.96       ----

> <Gold.Chemscore.Fitness>
18.3506

> <Gold.Chemscore.DG>
-24.1941

> <Gold.Chemscore.ZeroCoef>
-5.4800

> <Gold.Chemscore.Hbond>
2.9086

> <Gold.Chemscore.Metal>
0.0000

> <Gold.Chemscore.Lipo>
142.8207

> <Gold.Chemscore.Internal_Hbond>
0.0000

> <Gold.Chemscore.DEClash>
2.8800

> <Gold.Chemscore.DEInternal>
2.9635

> <Gold.Chemscore.Rot>
3.0120

> <Gold.Chemscore.Internal.Correction>
   9.000000E+99

> <Gold.Chemscore.Hbonds>
donor molecule, donor type, donor heavy atom, donor atom, acceptor molecule, acceptor atom, score
      L1  H    19    48       P1 10171  0.95
      P1  H  7954  7966       L1    19  0.35
      P1  H  7997  8009       L1     8  1.00

> <Gold.Chemscore.Hbond.Weighted>
-9.7148

> <Gold.Chemscore.Metal.Weighted>
-0.0000

> <Gold.Chemscore.Lipo.Weighted>
-16.7100

> <Gold.Chemscore.Internal_Hbond.Weighted>
0.0000

> <Gold.Chemscore.DEClash.Weighted>
2.8800

> <Gold.Chemscore.DEInternal.Weighted>
2.9635

> <Gold.Chemscore.Rot.Weighted>
7.7108

> <Gold.Chemscore.Internal.Correction.Weighted>
   9.000000E+99

> <Gold.Protein.RotatedTorsions>
[ 6907 6896 6895 6894 ] final  -15.96 input  -60.11 | X-H torsion
[ 7974 7965 7964 7962 ] final -128.64 input  175.53 | X-H torsion
[ 8008 7997 7996 7995 ] final -146.66 input   59.86 | X-H torsion
[ 10167 10162 10161 10158 ] final   91.33 input  -65.29 | X-H torsion
[ 10718 10713 10712 10709 ] final  179.43 input   66.30 | X-H torsion
[ 10763 10752 10751 10750 ] final   65.66 input  -60.55 | X-H torsion
[ 11005 11000 10999 10996 ] final   -6.36 input  -57.11 | X-H torsion

> <Gold.Protein.ActiveResidues>
 VAL166  LYS551  ARG553  GLY616  TRP617  ASP618  TYR619  PRO620  LYS621  CYS622 
 ASP623  PHE694  ASN695  SER759  ASP760  ASP761  ALA762  ILE779  LEU786  VAL792 
 PHE793  MET794  SER795  GLU796  ALA797  LYS798  CYS799  TRP800  GLU811  SER814 

> <Gold.Protein.RotatedAtoms>
  151.3159  135.0806  159.9288 H   0  0  0  0  0  0  0  0  0  0  0  0  # atno 6907 bound_to 6896
  152.5267  133.9689  159.7763 H   0  0  0  0  0  0  0  0  0  0  0  0  # atno 6908 bound_to 6896
  151.0001  133.6013  159.2726 H   0  0  0  0  0  0  0  0  0  0  0  0  # atno 6909 bound_to 6896
  144.9651  140.7487  143.4705 H   0  0  0  0  0  0  0  0  0  0  0  0  # atno 7974 bound_to 7965
  155.5630  140.0627  157.2824 H   0  0  0  0  0  0  0  0  0  0  0  0  # atno 8008 bound_to 7997
  154.4384  140.1882  156.0847 H   0  0  0  0  0  0  0  0  0  0  0  0  # atno 8009 bound_to 7997
  156.0433  140.3293  155.7272 H   0  0  0  0  0  0  0  0  0  0  0  0  # atno 8010 bound_to 7997
  139.8385  144.6653  150.9312 H   0  0  0  0  0  0  0  0  0  0  0  0  # atno 10167 bound_to 10162
  156.8758  130.9799  151.3068 H   0  0  0  0  0  0  0  0  0  0  0  0  # atno 10718 bound_to 10713
  153.0106  135.5349  154.6701 H   0  0  0  0  0  0  0  0  0  0  0  0  # atno 10763 bound_to 10752
  154.5888  135.2857  155.0659 H   0  0  0  0  0  0  0  0  0  0  0  0  # atno 10764 bound_to 10752
  154.1760  135.6524  153.5074 H   0  0  0  0  0  0  0  0  0  0  0  0  # atno 10765 bound_to 10752
  140.7011  133.8989  155.8684 H   0  0  0  0  0  0  0  0  0  0  0  0  # atno 11005 bound_to 11000
  145.2642  139.1980  143.4875 LP  0  0  0  0  0  0  0  0  0  0  0  0  # atno 17320 bound_to 7965
  146.3365  140.2578  142.8601 LP  0  0  0  0  0  0  0  0  0  0  0  0  # atno 17321 bound_to 7965
  140.7800  143.3934  151.1270 LP  0  0  0  0  0  0  0  0  0  0  0  0  # atno 17342 bound_to 10162
  139.7583  143.8674  152.3094 LP  0  0  0  0  0  0  0  0  0  0  0  0  # atno 17343 bound_to 10162
  157.6169  130.8625  149.9043 LP  0  0  0  0  0  0  0  0  0  0  0  0  # atno 17370 bound_to 10713
  156.0703  130.3686  150.0791 LP  0  0  0  0  0  0  0  0  0  0  0  0  # atno 17371 bound_to 10713
  141.0163  134.0951  157.4169 LP  0  0  0  0  0  0  0  0  0  0  0  0  # atno 17394 bound_to 11000
  139.8896  135.0106  156.6691 LP  0  0  0  0  0  0  0  0  0  0  0  0  # atno 17395 bound_to 11000

$$$$
