AV-unprocessed.smi:100|AV-procd|sdf|910|dock9
  -GOLD-   2262017403D 1   1.00000     0.00000
 Structure written by MMmdl.
 31 33  0  0  0  0  0  0  0  0  1 V2000
  139.0147  136.4968  154.4600 N   0  0  0  0  0  0  0  0  0  0  0  0
  140.2064  136.8394  153.9516 C   0  0  0  0  0  0  0  0  0  0  0  0
  140.4155  138.1347  153.6182 N   0  0  0  0  0  0  0  0  0  0  0  0
  141.5957  138.5021  153.1077 C   0  0  0  0  0  0  0  0  0  0  0  0
  142.6703  137.7481  152.8579 N   0  0  0  0  0  0  0  0  0  0  0  0
  142.4561  136.4438  153.1999 C   0  0  0  0  0  0  0  0  0  0  0  0
  141.2571  135.9101  153.7471 C   0  0  0  0  0  0  0  0  0  0  0  0
  141.4016  134.5453  153.9612 N   0  0  0  0  0  0  0  0  0  0  0  0
  142.6201  134.2925  153.5629 C   0  0  0  0  0  0  0  0  0  0  0  0
  143.3251  135.3807  153.0943 N   0  0  0  0  0  0  0  0  0  0  0  0
  144.7194  135.4306  152.5652 C   0  0  1  0  0  0  0  0  0  0  0  0
  145.2802  134.1669  152.7544 O   0  0  0  0  0  0  0  0  0  0  0  0
  146.0073  133.7959  151.5916 C   0  0  1  0  0  0  0  0  0  0  0  0
  146.1861  132.2718  151.5171 C   0  0  0  0  0  0  0  0  0  0  0  0
  147.2432  131.8683  152.3604 O   0  0  0  0  0  0  0  0  0  0  0  0
  145.1603  134.3878  150.4642 C   0  0  1  0  0  0  0  0  0  0  0  0
  144.1002  133.6153  150.2167 F   0  0  0  0  0  0  0  0  0  0  0  0
  144.6927  135.7096  151.0521 C   0  0  2  0  0  0  0  0  0  0  0  0
  145.5734  136.7538  150.6884 O   0  0  0  0  0  0  0  0  0  0  0  0
  138.8347  135.5368  154.7165 H   0  0  0  0  0  0  0  0  0  0  0  0
  138.3016  137.1997  154.5895 H   0  0  0  0  0  0  0  0  0  0  0  0
  141.6935  139.5502  152.8661 H   0  0  0  0  0  0  0  0  0  0  0  0
  143.0410  133.2982  153.6002 H   0  0  0  0  0  0  0  0  0  0  0  0
  145.2367  136.1861  153.1589 H   0  0  0  0  0  0  0  0  0  0  0  0
  146.9769  134.2980  151.6018 H   0  0  0  0  0  0  0  0  0  0  0  0
  145.2665  131.7504  151.7850 H   0  0  0  0  0  0  0  0  0  0  0  0
  146.4459  131.9736  150.5009 H   0  0  0  0  0  0  0  0  0  0  0  0
  147.8231  131.3077  151.8683 H   0  0  0  0  0  0  0  0  0  0  0  0
  145.7059  134.4926  149.5256 H   0  0  0  0  0  0  0  0  0  0  0  0
  143.6892  135.9742  150.7139 H   0  0  0  0  0  0  0  0  0  0  0  0
  145.0680  137.4466  150.2908 H   0  0  0  0  0  0  0  0  0  0  0  0
  1  2  1  0  0  0  0
  1 20  1  0  0  0  0
  1 21  1  0  0  0  0
  2  7  1  0  0  0  0
  2  3  2  0  0  0  0
  3  4  1  0  0  0  0
  4  5  2  0  0  0  0
  4 22  1  0  0  0  0
  5  6  1  0  0  0  0
  6 10  1  0  0  0  0
  6  7  2  0  0  0  0
  7  8  1  0  0  0  0
  8  9  2  0  0  0  0
  9 10  1  0  0  0  0
  9 23  1  0  0  0  0
 10 11  1  0  0  0  0
 11 18  1  0  0  0  0
 11 12  1  0  0  0  0
 11 24  1  0  0  0  0
 12 13  1  0  0  0  0
 13 14  1  0  0  0  0
 13 16  1  0  0  0  0
 13 25  1  0  0  0  0
 14 15  1  0  0  0  0
 14 26  1  0  0  0  0
 14 27  1  0  0  0  0
 15 28  1  0  0  0  0
 16 17  1  0  0  0  0
 16 18  1  0  0  0  0
 16 29  1  0  0  0  0
 18 19  1  0  0  0  0
 18 30  1  0  0  0  0
 19 31  1  0  0  0  0
M  END
> <s_m_source_file>
AV-unprocessed.smi

> <i_m_source_file_index>
100

> <i_lp_mmshare_version>
43012

> <i_f3d_flags>
0

> <s_epik_input>
bjFbY0hdbmMoW05IMl0pYyhjMTIpbltjSF1uMltDQEBIXTNPW0NAQEhdKFtDSDJdW09IXSlbQ0BIXShGKVtDQEhdM1tPSF0=

> <s_epik_cmdline>
J2VwaWtfcHl0aG9uJywgJy1waCcsICc3LjAnLCAnLXRuJywgJzgnLCAnLW1hJywgJzIwMCcsICctbWV0YWxfYmluZGluZycsICctaW1hZScsICc8aW5maWxlLm1hZT4nLCAnLW9tYWUnLCAnPG91dGZpbGUubWFlPic=

> <r_lp_tautomer_probability>
1

> <r_epik_Ionization_Penalty>
0.000750324

> <r_epik_Ionization_Penalty_Charging>
0

> <r_epik_Ionization_Penalty_Neutral>
0.000750324

> <r_epik_State_Penalty>
-0

> <r_epik_Charging_Adjusted_Penalty>
0

> <i_epik_Tot_Q>
0

> <i_epik_Tot_abs_Q>
0

> <r_epik_Metal_State_Penalty>
-0

> <b_epik_Metal_Only>
0

> <s_epik_Chemistry_Notes>
This compound contains an acetal/aminal-like group ( X-CH(R)-Y where X, Y are N, S, or O) that may be acid/base labile, releasing an aldehyde.

> <s_lp_Force_Field>
OPLS_2005

> <r_lp_Energy>
27.3407

> <b_lp_Chiralities_Consistent>
1

> <s_lp_Variant>
AV-unprocessed.smi:100-14

> <Gold.Version>
5.8.1

> <Gold.Id.Protein>
6NUR|6NUR_protein|mol2

> <Gold.PLP.Fitness>
41.3091

> <Gold.PLP.PLP>
-25.2985

> <Gold.PLP.part.hbond>
-3.0000

> <Gold.PLP.part.metal>
0.0000

> <Gold.PLP.part.buried>
-0.6312

> <Gold.PLP.part.nonpolar>
-23.5205

> <Gold.PLP.part.repulsive>
2.3983

> <Gold.PLP.ligand.clash>
0.0000

> <Gold.PLP.ligand.torsion>
0.2647

> <Gold.PLP.Chemscore.Hbond>
3.0000

> <Gold.PLP.Chemscore.CHOScore>
2.5079

> <Gold.PLP.Chemscore.Metal>
0.0000

> <Gold.Chemscore.Hbonds>
donor molecule, donor type, donor heavy atom, donor atom, acceptor molecule, acceptor atom, score
      L1  H    15    28       P1 10747  1.00
      L1  H    19    31       P1 10171  1.00
      P1  H 11000 11005       L1     8  1.00
      L1  C     4    22       P1 10160  0.81
      L1  C     4    22       P1 10175  0.86
      L1  C     9    23       P1 10957  0.84

> <Gold.PLP.Chemscore.Internal.Correction>
0.0163

> <Gold.Rescore>
     Score         DG    S(hbond)    S(metal)    S(lipo)     H(rot)  DE(clash)    DE(int)     intcor
      7.94     -10.57       2.89        0.00      30.91       3.19       2.34       0.29       ----

> <Gold.Chemscore.Fitness>
7.9391

> <Gold.Chemscore.DG>
-10.5703

> <Gold.Chemscore.ZeroCoef>
-5.4800

> <Gold.Chemscore.Hbond>
2.8863

> <Gold.Chemscore.Metal>
0.0000

> <Gold.Chemscore.Lipo>
30.9137

> <Gold.Chemscore.Internal_Hbond>
0.0000

> <Gold.Chemscore.DEClash>
2.3446

> <Gold.Chemscore.DEInternal>
0.2866

> <Gold.Chemscore.Rot>
3.1901

> <Gold.Chemscore.Internal.Correction>
   9.000000E+99

> <Gold.Chemscore.Hbonds>
donor molecule, donor type, donor heavy atom, donor atom, acceptor molecule, acceptor atom, score
      L1  H    15    28       P1 10747  0.93
      L1  H    19    31       P1 10171  1.00
      P1  H 11000 11005       L1     8  0.66

> <Gold.Chemscore.Hbond.Weighted>
-9.6401

> <Gold.Chemscore.Metal.Weighted>
-0.0000

> <Gold.Chemscore.Lipo.Weighted>
-3.6169

> <Gold.Chemscore.Internal_Hbond.Weighted>
0.0000

> <Gold.Chemscore.DEClash.Weighted>
2.3446

> <Gold.Chemscore.DEInternal.Weighted>
0.2866

> <Gold.Chemscore.Rot.Weighted>
8.1667

> <Gold.Chemscore.Internal.Correction.Weighted>
   9.000000E+99

> <Gold.Protein.RotatedTorsions>
[ 6907 6896 6895 6894 ] final   91.76 input  -60.11 | X-H torsion
[ 7974 7965 7964 7962 ] final  -14.47 input  175.53 | X-H torsion
[ 8008 7997 7996 7995 ] final -165.30 input   59.86 | X-H torsion
[ 10167 10162 10161 10158 ] final  140.99 input  -65.29 | X-H torsion
[ 10718 10713 10712 10709 ] final  148.02 input   66.30 | X-H torsion
[ 10763 10752 10751 10750 ] final  -70.44 input  -60.55 | X-H torsion
[ 11005 11000 10999 10996 ] final    9.69 input  -57.11 | X-H torsion

> <Gold.Protein.ActiveResidues>
 VAL166  LYS551  ARG553  GLY616  TRP617  ASP618  TYR619  PRO620  LYS621  CYS622 
 ASP623  PHE694  ASN695  SER759  ASP760  ASP761  ALA762  ILE779  LEU786  VAL792 
 PHE793  MET794  SER795  GLU796  ALA797  LYS798  CYS799  TRP800  GLU811  SER814 

> <Gold.Protein.RotatedAtoms>
  152.5451  134.1607  159.8556 H   0  0  0  0  0  0  0  0  0  0  0  0  # atno 6907 bound_to 6896
  151.1625  133.4828  159.2601 H   0  0  0  0  0  0  0  0  0  0  0  0  # atno 6908 bound_to 6896
  151.1358  135.0165  159.8658 H   0  0  0  0  0  0  0  0  0  0  0  0  # atno 6909 bound_to 6896
  146.2073  140.3353  142.8403 H   0  0  0  0  0  0  0  0  0  0  0  0  # atno 7974 bound_to 7965
  155.8479  140.0958  157.1693 H   0  0  0  0  0  0  0  0  0  0  0  0  # atno 8008 bound_to 7997
  154.3984  140.1388  156.3870 H   0  0  0  0  0  0  0  0  0  0  0  0  # atno 8009 bound_to 7997
  155.7993  140.3453  155.5396 H   0  0  0  0  0  0  0  0  0  0  0  0  # atno 8010 bound_to 7997
  139.5033  144.6200  151.6074 H   0  0  0  0  0  0  0  0  0  0  0  0  # atno 10167 bound_to 10162
  157.3138  131.0892  151.1295 H   0  0  0  0  0  0  0  0  0  0  0  0  # atno 10718 bound_to 10713
  154.4177  135.5994  153.5991 H   0  0  0  0  0  0  0  0  0  0  0  0  # atno 10763 bound_to 10752
  152.9792  135.5944  154.3993 H   0  0  0  0  0  0  0  0  0  0  0  0  # atno 10764 bound_to 10752
  154.3814  135.2841  155.2187 H   0  0  0  0  0  0  0  0  0  0  0  0  # atno 10765 bound_to 10752
  140.5229  134.0541  155.7850 H   0  0  0  0  0  0  0  0  0  0  0  0  # atno 11005 bound_to 11000
  144.8824  140.7417  143.5978 LP  0  0  0  0  0  0  0  0  0  0  0  0  # atno 17320 bound_to 7965
  145.3273  139.1770  143.4555 LP  0  0  0  0  0  0  0  0  0  0  0  0  # atno 17321 bound_to 7965
  140.5899  143.9798  150.6318 LP  0  0  0  0  0  0  0  0  0  0  0  0  # atno 17342 bound_to 10162
  140.2975  143.3283  152.1004 LP  0  0  0  0  0  0  0  0  0  0  0  0  # atno 17343 bound_to 10162
  157.2606  130.6657  149.5973 LP  0  0  0  0  0  0  0  0  0  0  0  0  # atno 17370 bound_to 10713
  155.9680  130.4510  150.5717 LP  0  0  0  0  0  0  0  0  0  0  0  0  # atno 17371 bound_to 10713
  141.1324  133.9279  157.2507 LP  0  0  0  0  0  0  0  0  0  0  0  0  # atno 17394 bound_to 11000
  139.9596  135.0157  156.9223 LP  0  0  0  0  0  0  0  0  0  0  0  0  # atno 17395 bound_to 11000

$$$$
