AV-unprocessed.smi:334|AV-procd|sdf|2369|dock4
  -GOLD-   2262022283D 1   1.00000     0.00000
 Structure written by MMmdl.
 44 46  0  0  0  0  0  0  0  0  3 V2000
  146.7448  135.3626  155.0584 C   0  0  0  0  0  0  0  0  0  0  0  0
  145.7441  136.0754  154.1341 C   0  0  1  0  0  0  0  0  0  0  0  0
  146.4864  136.9935  153.2719 N   0  0  0  0  0  0  0  0  0  0  0  0
  146.2951  138.3189  153.1801 C   0  0  0  0  0  0  0  0  0  0  0  0
  145.4752  138.9369  153.8601 O   0  0  0  0  0  0  0  0  0  0  0  0
  147.1774  139.0559  152.1632 C   0  0  0  0  0  0  0  0  0  0  0  0
  148.2248  139.8739  152.7981 N   0  0  0  0  0  0  0  0  0  0  0  0
  149.3754  139.2028  153.2582 C   0  0  0  0  0  0  0  0  0  0  0  0
  150.3921  139.8534  153.8573 C   0  0  0  0  0  0  0  0  0  0  0  0
  151.5653  139.1485  154.3257 N   0  3  0  0  0  0  0  0  0  0  0  0
  152.4758  139.7947  154.8345 O   0  0  0  0  0  0  0  0  0  0  0  0
  151.6168  137.9285  154.2005 O   0  5  0  0  0  0  0  0  0  0  0  0
  150.2706  141.2891  154.0210 C   0  0  0  0  0  0  0  0  0  0  0  0
  149.1720  141.9365  153.5854 C   0  0  0  0  0  0  0  0  0  0  0  0
  148.0671  141.2268  152.9330 C   0  0  0  0  0  0  0  0  0  0  0  0
  147.0611  141.8128  152.5321 O   0  0  0  0  0  0  0  0  0  0  0  0
  144.9253  135.0792  153.2750 C   0  0  1  0  0  0  0  0  0  0  0  0
  143.8544  135.7647  152.3910 C   0  0  0  0  0  0  0  0  0  0  0  0
  144.1700  135.2411  150.9788 C   0  0  2  0  0  0  0  0  0  0  0  0
  143.8130  133.7463  150.8929 C   0  0  0  0  0  0  0  0  0  0  0  0
  144.9212  133.0872  151.7345 C   0  0  0  0  0  0  0  0  0  0  0  0
  145.7468  134.2953  152.2173 C   0  0  1  0  0  0  0  0  0  0  0  0
  145.6925  135.2067  150.9964 C   0  0  0  0  0  0  0  0  0  0  0  0
  146.2408  134.7038  155.7653 H   0  0  0  0  0  0  0  0  0  0  0  0
  147.3195  136.0828  155.6415 H   0  0  0  0  0  0  0  0  0  0  0  0
  147.4508  134.7580  154.4880 H   0  0  0  0  0  0  0  0  0  0  0  0
  145.0547  136.6357  154.7674 H   0  0  0  0  0  0  0  0  0  0  0  0
  147.1867  136.5799  152.6736 H   0  0  0  0  0  0  0  0  0  0  0  0
  147.6145  138.3130  151.4946 H   0  0  0  0  0  0  0  0  0  0  0  0
  146.5557  139.6851  151.5231 H   0  0  0  0  0  0  0  0  0  0  0  0
  149.3674  138.1346  153.0957 H   0  0  0  0  0  0  0  0  0  0  0  0
  151.0584  141.8555  154.4956 H   0  0  0  0  0  0  0  0  0  0  0  0
  149.1015  143.0060  153.7199 H   0  0  0  0  0  0  0  0  0  0  0  0
  144.4448  134.3697  153.9510 H   0  0  0  0  0  0  0  0  0  0  0  0
  142.8393  135.5219  152.7066 H   0  0  0  0  0  0  0  0  0  0  0  0
  143.9535  136.8506  152.4096 H   0  0  0  0  0  0  0  0  0  0  0  0
  143.7319  135.8424  150.1816 H   0  0  0  0  0  0  0  0  0  0  0  0
  142.8151  133.5378  151.2804 H   0  0  0  0  0  0  0  0  0  0  0  0
  143.8535  133.3939  149.8613 H   0  0  0  0  0  0  0  0  0  0  0  0
  144.5234  132.4949  152.5594 H   0  0  0  0  0  0  0  0  0  0  0  0
  145.5293  132.4269  151.1149 H   0  0  0  0  0  0  0  0  0  0  0  0
  146.7520  134.0148  152.5308 H   0  0  0  0  0  0  0  0  0  0  0  0
  146.1254  134.7567  150.1011 H   0  0  0  0  0  0  0  0  0  0  0  0
  146.1484  136.1843  151.1601 H   0  0  0  0  0  0  0  0  0  0  0  0
  1  2  1  0  0  0  0
  1 24  1  0  0  0  0
  1 25  1  0  0  0  0
  1 26  1  0  0  0  0
  2  3  1  0  0  0  0
  2 17  1  0  0  0  0
  2 27  1  0  0  0  0
  3  4  1  0  0  0  0
  3 28  1  0  0  0  0
  4  5  2  0  0  0  0
  4  6  1  0  0  0  0
  6  7  1  0  0  0  0
  6 29  1  0  0  0  0
  6 30  1  0  0  0  0
  7 15  1  0  0  0  0
  7  8  1  0  0  0  0
  8  9  2  0  0  0  0
  8 31  1  0  0  0  0
  9 10  1  0  0  0  0
  9 13  1  0  0  0  0
 10 11  2  0  0  0  0
 10 12  1  0  0  0  0
 13 14  2  0  0  0  0
 13 32  1  0  0  0  0
 14 15  1  0  0  0  0
 14 33  1  0  0  0  0
 15 16  2  0  0  0  0
 17 22  1  0  0  0  0
 17 18  1  0  0  0  0
 17 34  1  0  0  0  0
 18 19  1  0  0  0  0
 18 35  1  0  0  0  0
 18 36  1  0  0  0  0
 19 23  1  0  0  0  0
 19 20  1  0  0  0  0
 19 37  1  0  0  0  0
 20 21  1  0  0  0  0
 20 38  1  0  0  0  0
 20 39  1  0  0  0  0
 21 22  1  0  0  0  0
 21 40  1  0  0  0  0
 21 41  1  0  0  0  0
 22 23  1  0  0  0  0
 22 42  1  0  0  0  0
 23 43  1  0  0  0  0
 23 44  1  0  0  0  0
M  CHG  1  10   1
M  CHG  1  12  -1
M  END
> <s_m_source_file>
AV-unprocessed.smi

> <i_m_source_file_index>
334

> <i_lp_mmshare_version>
43012

> <i_f3d_flags>
0

> <s_epik_input>
W0NIMl0xW0NIMl1bQ0BIXShbQ0gyXTIpW0NAQEhdKFtDSDJdW0NAQEhdMTIpW0NASF0oW0NIM10pW05IXUMoPU8pW0NIMl1uM1tjSF1jKFtOK10oPU8pW08tXSlbY0hdW2NIXWMzPU8=

> <s_epik_cmdline>
J2VwaWtfcHl0aG9uJywgJy1waCcsICc3LjAnLCAnLXRuJywgJzgnLCAnLW1hJywgJzIwMCcsICctbWV0YWxfYmluZGluZycsICctaW1hZScsICc8aW5maWxlLm1hZT4nLCAnLW9tYWUnLCAnPG91dGZpbGUubWFlPic=

> <r_lp_tautomer_probability>
1

> <r_epik_Ionization_Penalty>
2.17081e-08

> <r_epik_Ionization_Penalty_Charging>
8.1195e-11

> <r_epik_Ionization_Penalty_Neutral>
2.16269e-08

> <r_epik_State_Penalty>
-0

> <r_epik_Charging_Adjusted_Penalty>
8.1195e-11

> <i_epik_Tot_Q>
0

> <i_epik_Tot_abs_Q>
2

> <r_epik_Metal_State_Penalty>
-0

> <b_epik_Metal_Only>
0

> <s_lp_Force_Field>
OPLS_2005

> <r_lp_Energy>
62.1709

> <b_lp_Chiralities_Consistent>
1

> <s_lp_Variant>
AV-unprocessed.smi:334-8

> <Gold.Version>
5.8.1

> <Gold.Id.Protein>
6NUR|6NUR_protein|mol2

> <Gold.PLP.Fitness>
47.4029

> <Gold.PLP.PLP>
-36.6210

> <Gold.PLP.part.hbond>
-3.0000

> <Gold.PLP.part.metal>
0.0000

> <Gold.PLP.part.buried>
-4.3169

> <Gold.PLP.part.nonpolar>
-29.9592

> <Gold.PLP.part.repulsive>
0.3339

> <Gold.PLP.ligand.clash>
0.0000

> <Gold.PLP.ligand.torsion>
0.4491

> <Gold.PLP.Chemscore.Hbond>
2.8800

> <Gold.PLP.Chemscore.CHOScore>
1.0000

> <Gold.PLP.Chemscore.Metal>
0.0000

> <Gold.Chemscore.Hbonds>
donor molecule, donor type, donor heavy atom, donor atom, acceptor molecule, acceptor atom, score
      L1  H     3    28       P1  7948  1.00
      P1  H  7997  8010       L1    11  0.34
      L1  C     8    31       P1  7948  1.00

> <Gold.PLP.Chemscore.Internal.Correction>
0.0401

> <Gold.Rescore>
     Score         DG    S(hbond)    S(metal)    S(lipo)     H(rot)  DE(clash)    DE(int)     intcor
     17.92     -18.99       2.85        0.00      72.31       1.75       0.05       1.01       ----

> <Gold.Chemscore.Fitness>
17.9171

> <Gold.Chemscore.DG>
-18.9850

> <Gold.Chemscore.ZeroCoef>
-5.4800

> <Gold.Chemscore.Hbond>
2.8497

> <Gold.Chemscore.Metal>
0.0000

> <Gold.Chemscore.Lipo>
72.3099

> <Gold.Chemscore.Internal_Hbond>
0.0000

> <Gold.Chemscore.DEClash>
0.0544

> <Gold.Chemscore.DEInternal>
1.0135

> <Gold.Chemscore.Rot>
1.7474

> <Gold.Chemscore.Internal.Correction>
   9.000000E+99

> <Gold.Chemscore.Hbonds>
donor molecule, donor type, donor heavy atom, donor atom, acceptor molecule, acceptor atom, score
      L1  H     3    28       P1  7948  0.98
      P1  H  7997  8010       L1    11  0.35

> <Gold.Chemscore.Hbond.Weighted>
-9.5181

> <Gold.Chemscore.Metal.Weighted>
-0.0000

> <Gold.Chemscore.Lipo.Weighted>
-8.4603

> <Gold.Chemscore.Internal_Hbond.Weighted>
0.0000

> <Gold.Chemscore.DEClash.Weighted>
0.0544

> <Gold.Chemscore.DEInternal.Weighted>
1.0135

> <Gold.Chemscore.Rot.Weighted>
4.4733

> <Gold.Chemscore.Internal.Correction.Weighted>
   9.000000E+99

> <Gold.Protein.RotatedTorsions>
[ 6907 6896 6895 6894 ] final  -52.61 input  -60.11 | X-H torsion
[ 7974 7965 7964 7962 ] final  -69.27 input  175.53 | X-H torsion
[ 8008 7997 7996 7995 ] final   93.21 input   59.86 | X-H torsion
[ 10167 10162 10161 10158 ] final   20.69 input  -65.29 | X-H torsion
[ 10718 10713 10712 10709 ] final -171.68 input   66.30 | X-H torsion
[ 10763 10752 10751 10750 ] final  160.21 input  -60.55 | X-H torsion
[ 11005 11000 10999 10996 ] final  -91.78 input  -57.11 | X-H torsion

> <Gold.Protein.ActiveResidues>
 VAL166  LYS551  ARG553  GLY616  TRP617  ASP618  TYR619  PRO620  LYS621  CYS622 
 ASP623  PHE694  ASN695  SER759  ASP760  ASP761  ALA762  ILE779  LEU786  VAL792 
 PHE793  MET794  SER795  GLU796  ALA797  LYS798  CYS799  TRP800  GLU811  SER814 

> <Gold.Protein.RotatedAtoms>
  150.8502  134.7824  159.7002 H   0  0  0  0  0  0  0  0  0  0  0  0  # atno 6907 bound_to 6896
  152.4569  134.5269  159.9809 H   0  0  0  0  0  0  0  0  0  0  0  0  # atno 6908 bound_to 6896
  151.5391  133.3398  159.2968 H   0  0  0  0  0  0  0  0  0  0  0  0  # atno 6909 bound_to 6896
  145.7059  140.9098  143.0706 H   0  0  0  0  0  0  0  0  0  0  0  0  # atno 7974 bound_to 7965
  156.0441  140.3316  155.7277 H   0  0  0  0  0  0  0  0  0  0  0  0  # atno 8008 bound_to 7997
  155.5699  140.0627  157.2826 H   0  0  0  0  0  0  0  0  0  0  0  0  # atno 8009 bound_to 7997
  154.4406  140.1862  156.0857 H   0  0  0  0  0  0  0  0  0  0  0  0  # atno 8010 bound_to 7997
  140.5484  143.9553  150.6562 H   0  0  0  0  0  0  0  0  0  0  0  0  # atno 10167 bound_to 10162
  156.7444  130.9354  151.3112 H   0  0  0  0  0  0  0  0  0  0  0  0  # atno 10718 bound_to 10713
  154.2439  135.2774  155.2843 H   0  0  0  0  0  0  0  0  0  0  0  0  # atno 10763 bound_to 10752
  154.5522  135.5672  153.6935 H   0  0  0  0  0  0  0  0  0  0  0  0  # atno 10764 bound_to 10752
  152.9994  135.6277  154.2584 H   0  0  0  0  0  0  0  0  0  0  0  0  # atno 10765 bound_to 10752
  141.1537  133.7778  156.9928 H   0  0  0  0  0  0  0  0  0  0  0  0  # atno 11005 bound_to 11000
  144.6955  139.9010  143.7458 LP  0  0  0  0  0  0  0  0  0  0  0  0  # atno 17320 bound_to 7965
  146.0756  139.3744  143.0496 LP  0  0  0  0  0  0  0  0  0  0  0  0  # atno 17321 bound_to 7965
  140.2972  143.3284  152.1006 LP  0  0  0  0  0  0  0  0  0  0  0  0  # atno 17342 bound_to 10162
  139.5017  144.6719  151.6222 LP  0  0  0  0  0  0  0  0  0  0  0  0  # atno 17343 bound_to 10162
  157.6804  130.9134  150.0253 LP  0  0  0  0  0  0  0  0  0  0  0  0  # atno 17370 bound_to 10713
  156.1443  130.3642  149.9535 LP  0  0  0  0  0  0  0  0  0  0  0  0  # atno 17371 bound_to 10713
  140.0991  134.9546  157.1896 LP  0  0  0  0  0  0  0  0  0  0  0  0  # atno 17394 bound_to 11000
  140.3342  134.2776  155.7223 LP  0  0  0  0  0  0  0  0  0  0  0  0  # atno 17395 bound_to 11000

$$$$
