AV-unprocessed.smi:1644|AV-procd|sdf|6585|dock2
  -GOLD-   22720 7273D 1   1.00000     0.00000
 Structure written by MMmdl.
 49 51  0  0  0  0  0  0  0  0  1 V2000
  153.1374  131.5493  164.1647 C   0  0  0  0  0  0  0  0  0  0  0  0
  153.6041  132.4963  165.2757 C   0  0  0  0  0  0  0  0  0  0  0  0
  154.0641  133.8594  164.7306 C   0  0  0  0  0  0  0  0  0  0  0  0
  155.1922  133.7762  163.6798 C   0  0  1  0  0  0  0  0  0  0  0  0
  154.6695  133.4278  162.3737 N   0  0  0  0  0  0  0  0  0  0  0  0
  154.9146  134.3646  161.4492 C   0  0  0  0  0  0  0  0  0  0  0  0
  154.5545  134.3120  160.2743 O   0  0  0  0  0  0  0  0  0  0  0  0
  155.6081  135.3594  162.0291 N   0  0  0  0  0  0  0  0  0  0  0  0
  156.0315  136.5831  161.3416 C   0  0  0  0  0  0  0  0  0  0  0  0
  155.5525  137.8455  162.0879 C   0  0  2  0  0  0  0  0  0  0  0  0
  154.2474  137.6147  162.5827 O   0  0  0  0  0  0  0  0  0  0  0  0
  155.5077  139.0782  161.1657 C   0  0  0  0  0  0  0  0  0  0  0  0
  154.9523  140.2407  161.8340 N   0  0  0  0  0  0  0  0  0  0  0  0
  155.2335  140.6836  163.0744 C   0  0  0  0  0  0  0  0  0  0  0  0
  154.6034  141.7807  163.4859 N   0  0  0  0  0  0  0  0  0  0  0  0
  153.8234  142.0845  162.3828 C   0  0  0  0  0  0  0  0  0  0  0  0
  152.9133  143.1421  162.1656 C   0  0  0  0  0  0  0  0  0  0  0  0
  152.2161  143.2586  160.9417 C   0  0  0  0  0  0  0  0  0  0  0  0
  151.2469  144.4119  160.7511 C   0  0  0  0  0  0  0  0  0  0  0  0
  152.4246  142.3070  159.9111 C   0  0  0  0  0  0  0  0  0  0  0  0
  151.6876  142.4120  158.5877 C   0  0  0  0  0  0  0  0  0  0  0  0
  153.3299  141.2441  160.1117 C   0  0  0  0  0  0  0  0  0  0  0  0
  154.0175  141.1395  161.3337 C   0  0  0  0  0  0  0  0  0  0  0  0
  155.8178  135.1171  163.3299 C   0  0  0  0  0  0  0  0  0  0  0  0
  156.4096  135.8396  164.1317 O   0  0  0  0  0  0  0  0  0  0  0  0
  152.8251  130.5900  164.5783 H   0  0  0  0  0  0  0  0  0  0  0  0
  153.9358  131.3581  163.4473 H   0  0  0  0  0  0  0  0  0  0  0  0
  152.2899  131.9681  163.6209 H   0  0  0  0  0  0  0  0  0  0  0  0
  152.7885  132.6268  165.9864 H   0  0  0  0  0  0  0  0  0  0  0  0
  154.4215  132.0291  165.8261 H   0  0  0  0  0  0  0  0  0  0  0  0
  153.2062  134.3639  164.2836 H   0  0  0  0  0  0  0  0  0  0  0  0
  154.3804  134.4905  165.5630 H   0  0  0  0  0  0  0  0  0  0  0  0
  155.9616  133.0600  163.9710 H   0  0  0  0  0  0  0  0  0  0  0  0
  154.1618  132.5729  162.1973 H   0  0  0  0  0  0  0  0  0  0  0  0
  157.1218  136.5778  161.2927 H   0  0  0  0  0  0  0  0  0  0  0  0
  155.7020  136.5921  160.3006 H   0  0  0  0  0  0  0  0  0  0  0  0
  156.2130  138.0602  162.9291 H   0  0  0  0  0  0  0  0  0  0  0  0
  154.1767  138.0059  163.4402 H   0  0  0  0  0  0  0  0  0  0  0  0
  156.5138  139.3356  160.8321 H   0  0  0  0  0  0  0  0  0  0  0  0
  154.9236  138.8701  160.2678 H   0  0  0  0  0  0  0  0  0  0  0  0
  155.9433  140.1740  163.7095 H   0  0  0  0  0  0  0  0  0  0  0  0
  152.7546  143.8668  162.9507 H   0  0  0  0  0  0  0  0  0  0  0  0
  150.2354  144.0373  160.5927 H   0  0  0  0  0  0  0  0  0  0  0  0
  151.5327  145.0137  159.8881 H   0  0  0  0  0  0  0  0  0  0  0  0
  151.2290  145.0661  161.6230 H   0  0  0  0  0  0  0  0  0  0  0  0
  151.9527  141.5929  157.9187 H   0  0  0  0  0  0  0  0  0  0  0  0
  151.9353  143.3475  158.0859 H   0  0  0  0  0  0  0  0  0  0  0  0
  150.6097  142.3788  158.7468 H   0  0  0  0  0  0  0  0  0  0  0  0
  153.5005  140.5124  159.3355 H   0  0  0  0  0  0  0  0  0  0  0  0
  1  2  1  0  0  0  0
  1 26  1  0  0  0  0
  1 27  1  0  0  0  0
  1 28  1  0  0  0  0
  2  3  1  0  0  0  0
  2 29  1  0  0  0  0
  2 30  1  0  0  0  0
  3  4  1  0  0  0  0
  3 31  1  0  0  0  0
  3 32  1  0  0  0  0
  4 24  1  0  0  0  0
  4  5  1  0  0  0  0
  4 33  1  0  0  0  0
  5  6  1  0  0  0  0
  5 34  1  0  0  0  0
  6  7  2  0  0  0  0
  6  8  1  0  0  0  0
  8  9  1  0  0  0  0
  8 24  1  0  0  0  0
  9 10  1  0  0  0  0
  9 35  1  0  0  0  0
  9 36  1  0  0  0  0
 10 11  1  0  0  0  0
 10 12  1  0  0  0  0
 10 37  1  0  0  0  0
 11 38  1  0  0  0  0
 12 13  1  0  0  0  0
 12 39  1  0  0  0  0
 12 40  1  0  0  0  0
 13 23  1  0  0  0  0
 13 14  1  0  0  0  0
 14 15  2  0  0  0  0
 14 41  1  0  0  0  0
 15 16  1  0  0  0  0
 16 23  2  0  0  0  0
 16 17  1  0  0  0  0
 17 18  2  0  0  0  0
 17 42  1  0  0  0  0
 18 19  1  0  0  0  0
 18 20  1  0  0  0  0
 19 43  1  0  0  0  0
 19 44  1  0  0  0  0
 19 45  1  0  0  0  0
 20 21  1  0  0  0  0
 20 22  2  0  0  0  0
 21 46  1  0  0  0  0
 21 47  1  0  0  0  0
 21 48  1  0  0  0  0
 22 23  1  0  0  0  0
 22 49  1  0  0  0  0
 24 25  2  0  0  0  0
M  END
> <s_m_source_file>
AV-unprocessed.smi

> <i_m_source_file_index>
1644

> <i_lp_mmshare_version>
43012

> <i_f3d_flags>
0

> <s_epik_input>
W0NIM11bQ0gyXVtDSDJdW0NAQEhdMVtOSF1DKD1PKU4oQzE9TylbQ0gyXVtDQEhdKFtPSF0pW0NIMl1uKFtjSF1uMiljKGMyMylbY0hdYyhbQ0gzXSljKFtjSF0zKVtDSDNd

> <s_epik_cmdline>
J2VwaWtfcHl0aG9uJywgJy1waCcsICc3LjAnLCAnLXRuJywgJzgnLCAnLW1hJywgJzIwMCcsICctbWV0YWxfYmluZGluZycsICctaW1hZScsICc8aW5maWxlLm1hZT4nLCAnLW9tYWUnLCAnPG91dGZpbGUubWFlPic=

> <r_lp_tautomer_probability>
1

> <r_epik_Ionization_Penalty>
0.10693

> <r_epik_Ionization_Penalty_Charging>
0

> <r_epik_Ionization_Penalty_Neutral>
0.10693

> <r_epik_State_Penalty>
0.096713

> <r_epik_Charging_Adjusted_Penalty>
0.096713

> <i_epik_Tot_Q>
0

> <i_epik_Tot_abs_Q>
0

> <r_epik_Metal_State_Penalty>
0.102757

> <b_epik_Metal_Only>
0

> <s_lp_Force_Field>
OPLS_2005

> <r_lp_Energy>
21.5813

> <b_lp_Chiralities_Consistent>
1

> <s_lp_Variant>
AV-unprocessed.smi:1644-2

> <Gold.Version>
5.8.1

> <Gold.Id.Protein>
6NUR|6NUR_protein|mol2

> <Gold.PLP.Fitness>
48.8695

> <Gold.PLP.PLP>
-46.8945

> <Gold.PLP.part.hbond>
-2.0000

> <Gold.PLP.part.metal>
0.0000

> <Gold.PLP.part.buried>
-3.2027

> <Gold.PLP.part.nonpolar>
-41.1680

> <Gold.PLP.part.repulsive>
0.1117

> <Gold.PLP.ligand.clash>
0.0000

> <Gold.PLP.ligand.torsion>
0.5905

> <Gold.PLP.Chemscore.Hbond>
1.0000

> <Gold.PLP.Chemscore.CHOScore>
0.0000

> <Gold.PLP.Chemscore.Metal>
0.0000

> <Gold.Chemscore.Hbonds>
donor molecule, donor type, donor heavy atom, donor atom, acceptor molecule, acceptor atom, score
      P1  H  6896  6908       L1     7  1.00

> <Gold.PLP.Chemscore.Internal.Correction>
0.1559

> <Gold.Rescore>
     Score         DG    S(hbond)    S(metal)    S(lipo)     H(rot)  DE(clash)    DE(int)     intcor
     16.08     -17.04       0.95        0.00     131.16       2.72       0.33       0.63       ----

> <Gold.Chemscore.Fitness>
16.0790

> <Gold.Chemscore.DG>
-17.0445

> <Gold.Chemscore.ZeroCoef>
-5.4800

> <Gold.Chemscore.Hbond>
0.9535

> <Gold.Chemscore.Metal>
0.0000

> <Gold.Chemscore.Lipo>
131.1642

> <Gold.Chemscore.Internal_Hbond>
0.0000

> <Gold.Chemscore.DEClash>
0.3323

> <Gold.Chemscore.DEInternal>
0.6333

> <Gold.Chemscore.Rot>
2.7212

> <Gold.Chemscore.Internal.Correction>
   9.000000E+99

> <Gold.Chemscore.Hbonds>
donor molecule, donor type, donor heavy atom, donor atom, acceptor molecule, acceptor atom, score
      P1  H  6896  6908       L1     7  0.94

> <Gold.Chemscore.Hbond.Weighted>
-3.1845

> <Gold.Chemscore.Metal.Weighted>
-0.0000

> <Gold.Chemscore.Lipo.Weighted>
-15.3462

> <Gold.Chemscore.Internal_Hbond.Weighted>
0.0000

> <Gold.Chemscore.DEClash.Weighted>
0.3323

> <Gold.Chemscore.DEInternal.Weighted>
0.6333

> <Gold.Chemscore.Rot.Weighted>
6.9663

> <Gold.Chemscore.Internal.Correction.Weighted>
   9.000000E+99

> <Gold.Protein.RotatedTorsions>
[ 6907 6896 6895 6894 ] final  -30.49 input  -60.11 | X-H torsion
[ 7974 7965 7964 7962 ] final   40.11 input  175.53 | X-H torsion
[ 8008 7997 7996 7995 ] final -143.48 input   59.86 | X-H torsion
[ 10167 10162 10161 10158 ] final   76.53 input  -65.29 | X-H torsion
[ 10718 10713 10712 10709 ] final  -74.34 input   66.30 | X-H torsion
[ 10763 10752 10751 10750 ] final  156.33 input  -60.55 | X-H torsion
[ 11005 11000 10999 10996 ] final -135.89 input  -57.11 | X-H torsion

> <Gold.Protein.ActiveResidues>
 VAL166  LYS551  ARG553  GLY616  TRP617  ASP618  TYR619  PRO620  LYS621  CYS622 
 ASP623  PHE694  ASN695  SER759  ASP760  ASP761  ALA762  ILE779  LEU786  VAL792 
 PHE793  MET794  SER795  GLU796  ALA797  LYS798  CYS799  TRP800  GLU811  SER814 

> <Gold.Protein.RotatedAtoms>
  151.1048  134.9993  159.8465 H   0  0  0  0  0  0  0  0  0  0  0  0  # atno 6907 bound_to 6896
  152.5439  134.1906  159.8682 H   0  0  0  0  0  0  0  0  0  0  0  0  # atno 6908 bound_to 6896
  151.1952  133.4599  159.2628 H   0  0  0  0  0  0  0  0  0  0  0  0  # atno 6909 bound_to 6896
  146.0931  139.5572  142.9463 H   0  0  0  0  0  0  0  0  0  0  0  0  # atno 7974 bound_to 7965
  155.5114  140.0583  157.2923 H   0  0  0  0  0  0  0  0  0  0  0  0  # atno 8008 bound_to 7997
  154.4550  140.1968  156.0353 H   0  0  0  0  0  0  0  0  0  0  0  0  # atno 8009 bound_to 7997
  156.0782  140.3251  155.7664 H   0  0  0  0  0  0  0  0  0  0  0  0  # atno 8010 bound_to 7997
  139.9913  144.5755  150.7816 H   0  0  0  0  0  0  0  0  0  0  0  0  # atno 10167 bound_to 10162
  156.0246  130.4415  150.2878 H   0  0  0  0  0  0  0  0  0  0  0  0  # atno 10718 bound_to 10713
  154.1826  135.2799  155.3047 H   0  0  0  0  0  0  0  0  0  0  0  0  # atno 10763 bound_to 10752
  154.5991  135.5535  153.7359 H   0  0  0  0  0  0  0  0  0  0  0  0  # atno 10764 bound_to 10752
  153.0134  135.6387  154.1965 H   0  0  0  0  0  0  0  0  0  0  0  0  # atno 10765 bound_to 10752
  140.8856  134.1876  157.4562 H   0  0  0  0  0  0  0  0  0  0  0  0  # atno 11005 bound_to 11000
  145.6000  141.0356  143.2023 LP  0  0  0  0  0  0  0  0  0  0  0  0  # atno 17320 bound_to 7965
  144.7375  139.7543  143.7323 LP  0  0  0  0  0  0  0  0  0  0  0  0  # atno 17321 bound_to 7965
  140.7454  143.2874  151.3424 LP  0  0  0  0  0  0  0  0  0  0  0  0  # atno 17342 bound_to 10162
  139.6338  144.0669  152.2499 LP  0  0  0  0  0  0  0  0  0  0  0  0  # atno 17343 bound_to 10162
  157.0981  131.0188  151.3096 LP  0  0  0  0  0  0  0  0  0  0  0  0  # atno 17370 bound_to 10713
  157.4801  130.7760  149.7406 LP  0  0  0  0  0  0  0  0  0  0  0  0  # atno 17371 bound_to 10713
  139.8724  134.9836  156.5206 LP  0  0  0  0  0  0  0  0  0  0  0  0  # atno 17394 bound_to 11000
  140.8409  133.8206  155.9074 LP  0  0  0  0  0  0  0  0  0  0  0  0  # atno 17395 bound_to 11000

$$$$
