AV-unprocessed.smi:2649|AV-procd|sdf|10289|dock8
  -GOLD-   2272014303D 1   1.00000     0.00000
 Structure written by MMmdl.
 34 35  0  0  0  0  0  0  0  0  1 V2000
  154.8020  138.3307  162.4838 C   0  0  0  0  0  0  0  0  0  0  0  0
  154.4040  139.4391  161.1044 S   0  0  0  0  0  0  0  0  0  0  0  0
  154.1579  141.0133  161.9812 C   0  0  0  0  0  0  0  0  0  0  0  0
  153.2317  141.9330  161.2013 C   0  0  0  0  0  0  0  0  0  0  0  0
  152.8380  141.4700  159.9940 N   0  0  0  0  0  0  0  0  0  0  0  0
  152.0194  142.2237  159.2203 C   0  0  0  0  0  0  0  0  0  0  0  0
  151.5572  141.8200  157.9398 N   0  0  0  0  0  0  0  0  0  0  0  0
  151.8928  140.7193  157.2392 C   0  0  0  0  0  0  0  0  0  0  0  0
  152.6895  139.8648  157.6298 O   0  0  0  0  0  0  0  0  0  0  0  0
  151.1922  140.5559  155.8819 C   0  0  2  0  0  0  0  0  0  0  0  0
  150.1378  141.6535  155.6072 C   0  0  0  0  0  0  0  0  0  0  0  0
  149.5200  141.4068  154.3506 O   0  0  0  0  0  0  0  0  0  0  0  0
  148.8763  140.1404  154.3295 C   0  0  0  0  0  0  0  0  0  0  0  0
  149.9216  139.0445  154.5938 C   0  0  0  0  0  0  0  0  0  0  0  0
  150.5417  139.2874  155.8498 O   0  0  0  0  0  0  0  0  0  0  0  0
  151.5607  143.4862  159.6552 C   0  0  0  0  0  0  0  0  0  0  0  0
  151.9614  143.9711  160.9147 C   0  0  0  0  0  0  0  0  0  0  0  0
  152.8138  143.1837  161.7101 C   0  0  0  0  0  0  0  0  0  0  0  0
  153.3147  143.7581  163.2613 Cl  0  0  0  0  0  0  0  0  0  0  0  0
  155.0694  137.3443  162.1047 H   0  0  0  0  0  0  0  0  0  0  0  0
  153.9468  138.2188  163.1499 H   0  0  0  0  0  0  0  0  0  0  0  0
  155.6431  138.7209  163.0570 H   0  0  0  0  0  0  0  0  0  0  0  0
  153.7509  140.8098  162.9726 H   0  0  0  0  0  0  0  0  0  0  0  0
  155.1226  141.4978  162.1317 H   0  0  0  0  0  0  0  0  0  0  0  0
  150.8981  142.4435  157.4968 H   0  0  0  0  0  0  0  0  0  0  0  0
  151.9626  140.5852  155.1092 H   0  0  0  0  0  0  0  0  0  0  0  0
  149.3821  141.6842  156.3945 H   0  0  0  0  0  0  0  0  0  0  0  0
  150.6054  142.6382  155.5706 H   0  0  0  0  0  0  0  0  0  0  0  0
  148.0802  140.1087  155.0751 H   0  0  0  0  0  0  0  0  0  0  0  0
  148.4107  139.9935  153.3549 H   0  0  0  0  0  0  0  0  0  0  0  0
  149.4459  138.0639  154.6149 H   0  0  0  0  0  0  0  0  0  0  0  0
  150.6711  139.0216  153.8011 H   0  0  0  0  0  0  0  0  0  0  0  0
  150.9071  144.0811  159.0336 H   0  0  0  0  0  0  0  0  0  0  0  0
  151.6183  144.9339  161.2637 H   0  0  0  0  0  0  0  0  0  0  0  0
  1  2  1  0  0  0  0
  1 20  1  0  0  0  0
  1 21  1  0  0  0  0
  1 22  1  0  0  0  0
  2  3  1  0  0  0  0
  3  4  1  0  0  0  0
  3 23  1  0  0  0  0
  3 24  1  0  0  0  0
  4 18  1  0  0  0  0
  4  5  2  0  0  0  0
  5  6  1  0  0  0  0
  6  7  1  0  0  0  0
  6 16  2  0  0  0  0
  7  8  1  0  0  0  0
  7 25  1  0  0  0  0
  8  9  2  0  0  0  0
  8 10  1  0  0  0  0
 10 15  1  0  0  0  0
 10 11  1  0  0  0  0
 10 26  1  0  0  0  0
 11 12  1  0  0  0  0
 11 27  1  0  0  0  0
 11 28  1  0  0  0  0
 12 13  1  0  0  0  0
 13 14  1  0  0  0  0
 13 29  1  0  0  0  0
 13 30  1  0  0  0  0
 14 15  1  0  0  0  0
 14 31  1  0  0  0  0
 14 32  1  0  0  0  0
 16 17  1  0  0  0  0
 16 33  1  0  0  0  0
 17 18  2  0  0  0  0
 17 34  1  0  0  0  0
 18 19  1  0  0  0  0
M  END
> <s_m_source_file>
AV-unprocessed.smi

> <i_m_source_file_index>
2649

> <i_lp_mmshare_version>
43012

> <i_f3d_flags>
0

> <s_epik_input>
W0NIM11TW0NIMl1jMW5jKFtjSF1bY0hdYzFDbClbTkhdQyg9TylbQ0BASF0yW0NIMl1PW0NIMl1bQ0gyXU8y

> <s_epik_cmdline>
J2VwaWtfcHl0aG9uJywgJy1waCcsICc3LjAnLCAnLXRuJywgJzgnLCAnLW1hJywgJzIwMCcsICctbWV0YWxfYmluZGluZycsICctaW1hZScsICc8aW5maWxlLm1hZT4nLCAnLW9tYWUnLCAnPG91dGZpbGUubWFlPic=

> <r_lp_tautomer_probability>
1

> <r_epik_Ionization_Penalty>
9.71596e-06

> <r_epik_Ionization_Penalty_Charging>
0

> <r_epik_Ionization_Penalty_Neutral>
9.71596e-06

> <r_epik_State_Penalty>
-0

> <r_epik_Charging_Adjusted_Penalty>
0

> <i_epik_Tot_Q>
0

> <i_epik_Tot_abs_Q>
0

> <r_epik_Metal_State_Penalty>
-0

> <b_epik_Metal_Only>
0

> <s_lp_Force_Field>
OPLS_2005

> <r_lp_Energy>
11.5794

> <b_lp_Chiralities_Consistent>
1

> <s_lp_Variant>
AV-unprocessed.smi:2649-1

> <Gold.Version>
5.8.1

> <Gold.Id.Protein>
6NUR|6NUR_protein|mol2

> <Gold.PLP.Fitness>
44.7187

> <Gold.PLP.PLP>
-41.6554

> <Gold.PLP.part.hbond>
-3.0000

> <Gold.PLP.part.metal>
0.0000

> <Gold.PLP.part.buried>
-3.8185

> <Gold.PLP.part.nonpolar>
-33.4280

> <Gold.PLP.part.repulsive>
0.2482

> <Gold.PLP.ligand.clash>
0.5216

> <Gold.PLP.ligand.torsion>
0.2164

> <Gold.PLP.Chemscore.Hbond>
1.3382

> <Gold.PLP.Chemscore.CHOScore>
0.0000

> <Gold.PLP.Chemscore.Metal>
0.0000

> <Gold.Chemscore.Hbonds>
donor molecule, donor type, donor heavy atom, donor atom, acceptor molecule, acceptor atom, score
      P1  H  7989  7998       L1    12  0.05
      P1  H  7997  8010       L1     9  1.00
      P1  H  8011  8017       L1    12  0.25

> <Gold.PLP.Chemscore.Internal.Correction>
0.0031

> <Gold.Rescore>
     Score         DG    S(hbond)    S(metal)    S(lipo)     H(rot)  DE(clash)    DE(int)     intcor
     17.24     -19.58       1.48        0.00     107.72       1.34       0.86       1.49       ----

> <Gold.Chemscore.Fitness>
17.2368

> <Gold.Chemscore.DG>
-19.5848

> <Gold.Chemscore.ZeroCoef>
-5.4800

> <Gold.Chemscore.Hbond>
1.4773

> <Gold.Chemscore.Metal>
0.0000

> <Gold.Chemscore.Lipo>
107.7245

> <Gold.Chemscore.Internal_Hbond>
0.0000

> <Gold.Chemscore.DEClash>
0.8623

> <Gold.Chemscore.DEInternal>
1.4857

> <Gold.Chemscore.Rot>
1.3410

> <Gold.Chemscore.Internal.Correction>
   9.000000E+99

> <Gold.Chemscore.Hbonds>
donor molecule, donor type, donor heavy atom, donor atom, acceptor molecule, acceptor atom, score
      P1  H  7997  8010       L1     9  0.68
      P1  H  8011  8017       L1    12  0.24

> <Gold.Chemscore.Hbond.Weighted>
-4.9341

> <Gold.Chemscore.Metal.Weighted>
-0.0000

> <Gold.Chemscore.Lipo.Weighted>
-12.6038

> <Gold.Chemscore.Internal_Hbond.Weighted>
0.0000

> <Gold.Chemscore.DEClash.Weighted>
0.8623

> <Gold.Chemscore.DEInternal.Weighted>
1.4857

> <Gold.Chemscore.Rot.Weighted>
3.4331

> <Gold.Chemscore.Internal.Correction.Weighted>
   9.000000E+99

> <Gold.Protein.RotatedTorsions>
[ 6907 6896 6895 6894 ] final  142.31 input  -60.11 | X-H torsion
[ 7974 7965 7964 7962 ] final   32.49 input  175.53 | X-H torsion
[ 8008 7997 7996 7995 ] final   59.77 input   59.86 | X-H torsion
[ 10167 10162 10161 10158 ] final  -57.49 input  -65.29 | X-H torsion
[ 10718 10713 10712 10709 ] final  -98.79 input   66.30 | X-H torsion
[ 10763 10752 10751 10750 ] final  -15.09 input  -60.55 | X-H torsion
[ 11005 11000 10999 10996 ] final   63.62 input  -57.11 | X-H torsion

> <Gold.Protein.ActiveResidues>
 VAL166  LYS551  ARG553  GLY616  TRP617  ASP618  TYR619  PRO620  LYS621  CYS622 
 ASP623  PHE694  ASN695  SER759  ASP760  ASP761  ALA762  ILE779  LEU786  VAL792 
 PHE793  MET794  SER795  GLU796  ALA797  LYS798  CYS799  TRP800  GLU811  SER814 

> <Gold.Protein.RotatedAtoms>
  152.2203  133.4978  159.5158 H   0  0  0  0  0  0  0  0  0  0  0  0  # atno 6907 bound_to 6896
  150.7011  134.1351  159.4093 H   0  0  0  0  0  0  0  0  0  0  0  0  # atno 6908 bound_to 6896
  151.9271  135.0272  160.0577 H   0  0  0  0  0  0  0  0  0  0  0  0  # atno 6909 bound_to 6896
  146.1483  139.6519  142.9116 H   0  0  0  0  0  0  0  0  0  0  0  0  # atno 7974 bound_to 7965
  155.5716  140.3490  155.4516 H   0  0  0  0  0  0  0  0  0  0  0  0  # atno 8008 bound_to 7997
  156.0440  140.1302  157.0149 H   0  0  0  0  0  0  0  0  0  0  0  0  # atno 8009 bound_to 7997
  154.4404  140.1018  156.6264 H   0  0  0  0  0  0  0  0  0  0  0  0  # atno 8010 bound_to 7997
  140.6255  143.2436  151.5374 H   0  0  0  0  0  0  0  0  0  0  0  0  # atno 10167 bound_to 10162
  156.0117  130.5254  150.6575 H   0  0  0  0  0  0  0  0  0  0  0  0  # atno 10718 bound_to 10713
  153.5381  135.7013  153.5650 H   0  0  0  0  0  0  0  0  0  0  0  0  # atno 10763 bound_to 10752
  153.3628  135.3965  155.1731 H   0  0  0  0  0  0  0  0  0  0  0  0  # atno 10764 bound_to 10752
  154.8677  135.3793  154.4883 H   0  0  0  0  0  0  0  0  0  0  0  0  # atno 10765 bound_to 10752
  140.0013  134.6438  155.9926 H   0  0  0  0  0  0  0  0  0  0  0  0  # atno 11005 bound_to 11000
  145.4885  141.0438  143.2606 LP  0  0  0  0  0  0  0  0  0  0  0  0  # atno 17320 bound_to 7965
  144.7872  139.6401  143.7129 LP  0  0  0  0  0  0  0  0  0  0  0  0  # atno 17321 bound_to 7965
  139.5476  144.2480  152.1471 LP  0  0  0  0  0  0  0  0  0  0  0  0  # atno 17342 bound_to 10162
  140.1710  144.4935  150.6579 LP  0  0  0  0  0  0  0  0  0  0  0  0  # atno 17343 bound_to 10162
  157.4324  131.0851  151.1025 LP  0  0  0  0  0  0  0  0  0  0  0  0  # atno 17370 bound_to 10713
  157.1594  130.6219  149.5606 LP  0  0  0  0  0  0  0  0  0  0  0  0  # atno 17371 bound_to 10713
  141.1644  133.6537  156.4427 LP  0  0  0  0  0  0  0  0  0  0  0  0  # atno 17394 bound_to 11000
  140.4723  134.6742  157.5135 LP  0  0  0  0  0  0  0  0  0  0  0  0  # atno 17395 bound_to 11000

$$$$
