AV-unprocessed.smi:322|AV-procd|sdf|2336|dock6
  -GOLD-   2262022243D 1   1.00000     0.00000
 Structure written by MMmdl.
 43 45  0  0  0  0  0  0  0  0  1 V2000
  152.8076  139.3920  156.7497 O   0  0  0  0  0  0  0  0  0  0  0  0
  151.8881  139.5901  157.8047 C   0  0  0  0  0  0  0  0  0  0  0  0
  151.8544  140.9997  158.3245 C   0  0  0  0  0  0  0  0  0  0  0  0
  152.2377  141.3263  159.5611 N   0  0  0  0  0  0  0  0  0  0  0  0
  152.0544  142.6947  159.5884 C   0  0  0  0  0  0  0  0  0  0  0  0
  152.2790  143.6316  160.6224 C   0  0  0  0  0  0  0  0  0  0  0  0
  152.0144  145.0012  160.4144 C   0  0  0  0  0  0  0  0  0  0  0  0
  151.5231  145.4527  159.1725 C   0  0  0  0  0  0  0  0  0  0  0  0
  151.2928  144.5360  158.1290 C   0  0  0  0  0  0  0  0  0  0  0  0
  151.5583  143.1698  158.3419 C   0  0  0  0  0  0  0  0  0  0  0  0
  151.4427  142.0331  157.5475 N   0  0  0  0  0  0  0  0  0  0  0  0
  150.9785  141.9907  156.1676 C   0  0  0  0  0  0  0  0  0  0  0  0
  149.6329  141.2510  156.0158 C   0  0  1  0  0  0  0  0  0  0  0  0
  148.7282  141.9742  155.2053 O   0  0  0  0  0  0  0  0  0  0  0  0
  149.7769  139.8245  155.4611 C   0  0  0  0  0  0  0  0  0  0  0  0
  149.5740  138.8784  156.4986 O   0  0  0  0  0  0  0  0  0  0  0  0
  148.2358  138.8439  156.9662 C   0  0  0  0  0  0  0  0  0  0  0  0
  148.0872  137.9795  158.2040 C   0  0  0  0  0  0  0  0  0  0  0  0
  149.2272  137.4803  158.8705 C   0  0  0  0  0  0  0  0  0  0  0  0
  149.0825  136.6907  160.0279 C   0  0  0  0  0  0  0  0  0  0  0  0
  147.7979  136.4022  160.5282 C   0  0  0  0  0  0  0  0  0  0  0  0
  147.6205  135.4343  161.9454 Cl  0  0  0  0  0  0  0  0  0  0  0  0
  146.6583  136.9069  159.8722 C   0  0  0  0  0  0  0  0  0  0  0  0
  146.8028  137.6967  158.7149 C   0  0  0  0  0  0  0  0  0  0  0  0
  152.6909  138.5186  156.4083 H   0  0  0  0  0  0  0  0  0  0  0  0
  150.8904  139.3192  157.4582 H   0  0  0  0  0  0  0  0  0  0  0  0
  152.1504  138.9054  158.6104 H   0  0  0  0  0  0  0  0  0  0  0  0
  152.6554  143.2955  161.5770 H   0  0  0  0  0  0  0  0  0  0  0  0
  152.1890  145.7086  161.2118 H   0  0  0  0  0  0  0  0  0  0  0  0
  151.3225  146.5033  159.0212 H   0  0  0  0  0  0  0  0  0  0  0  0
  150.9140  144.8782  157.1772 H   0  0  0  0  0  0  0  0  0  0  0  0
  150.8939  143.0161  155.8053 H   0  0  0  0  0  0  0  0  0  0  0  0
  151.7432  141.5178  155.5508 H   0  0  0  0  0  0  0  0  0  0  0  0
  149.1603  141.1771  156.9954 H   0  0  0  0  0  0  0  0  0  0  0  0
  148.6993  142.8679  155.5118 H   0  0  0  0  0  0  0  0  0  0  0  0
  149.0250  139.6654  154.6865 H   0  0  0  0  0  0  0  0  0  0  0  0
  150.7536  139.6870  154.9939 H   0  0  0  0  0  0  0  0  0  0  0  0
  147.8994  139.8527  157.2093 H   0  0  0  0  0  0  0  0  0  0  0  0
  147.5835  138.4619  156.1790 H   0  0  0  0  0  0  0  0  0  0  0  0
  150.2171  137.7001  158.4978 H   0  0  0  0  0  0  0  0  0  0  0  0
  149.9582  136.3089  160.5319 H   0  0  0  0  0  0  0  0  0  0  0  0
  145.6723  136.6905  160.2562 H   0  0  0  0  0  0  0  0  0  0  0  0
  145.9240  138.0833  158.2200 H   0  0  0  0  0  0  0  0  0  0  0  0
  1  2  1  0  0  0  0
  1 25  1  0  0  0  0
  2  3  1  0  0  0  0
  2 26  1  0  0  0  0
  2 27  1  0  0  0  0
  3 11  1  0  0  0  0
  3  4  2  0  0  0  0
  4  5  1  0  0  0  0
  5 10  2  0  0  0  0
  5  6  1  0  0  0  0
  6  7  2  0  0  0  0
  6 28  1  0  0  0  0
  7  8  1  0  0  0  0
  7 29  1  0  0  0  0
  8  9  2  0  0  0  0
  8 30  1  0  0  0  0
  9 10  1  0  0  0  0
  9 31  1  0  0  0  0
 10 11  1  0  0  0  0
 11 12  1  0  0  0  0
 12 13  1  0  0  0  0
 12 32  1  0  0  0  0
 12 33  1  0  0  0  0
 13 14  1  0  0  0  0
 13 15  1  0  0  0  0
 13 34  1  0  0  0  0
 14 35  1  0  0  0  0
 15 16  1  0  0  0  0
 15 36  1  0  0  0  0
 15 37  1  0  0  0  0
 16 17  1  0  0  0  0
 17 18  1  0  0  0  0
 17 38  1  0  0  0  0
 17 39  1  0  0  0  0
 18 24  1  0  0  0  0
 18 19  2  0  0  0  0
 19 20  1  0  0  0  0
 19 40  1  0  0  0  0
 20 21  2  0  0  0  0
 20 41  1  0  0  0  0
 21 22  1  0  0  0  0
 21 23  1  0  0  0  0
 23 24  2  0  0  0  0
 23 42  1  0  0  0  0
 24 43  1  0  0  0  0
M  END
> <s_m_source_file>
AV-unprocessed.smi

> <i_m_source_file_index>
322

> <i_lp_mmshare_version>
43012

> <i_f3d_flags>
0

> <s_epik_input>
W2NIXTFbY0hdW2NIXVtjSF1jKGMxMiluKGMobjIpW0NIMl1bT0hdKVtDSDJdW0NASF0oW09IXSlbQ0gyXU9bQ0gyXWMzW2NIXVtjSF1jKENsKVtjSF1bY0hdMw==

> <s_epik_cmdline>
J2VwaWtfcHl0aG9uJywgJy1waCcsICc3LjAnLCAnLXRuJywgJzgnLCAnLW1hJywgJzIwMCcsICctbWV0YWxfYmluZGluZycsICctaW1hZScsICc8aW5maWxlLm1hZT4nLCAnLW9tYWUnLCAnPG91dGZpbGUubWFlPic=

> <r_epik_Ionization_Penalty>
0.0649918

> <r_epik_Ionization_Penalty_Charging>
0

> <r_epik_Ionization_Penalty_Neutral>
0.0649918

> <r_epik_State_Penalty>
0.0565791

> <r_epik_Charging_Adjusted_Penalty>
0.0565791

> <i_epik_Tot_Q>
0

> <i_epik_Tot_abs_Q>
0

> <r_epik_Metal_State_Penalty>
5.93658e-05

> <b_epik_Metal_Only>
0

> <s_lp_Force_Field>
OPLS_2005

> <r_lp_Energy>
15.9671

> <b_lp_Chiralities_Consistent>
1

> <s_lp_Variant>
AV-unprocessed.smi:322-2

> <Gold.Version>
5.8.1

> <Gold.Id.Protein>
6NUR|6NUR_protein|mol2

> <Gold.PLP.Fitness>
49.2567

> <Gold.PLP.PLP>
-46.1106

> <Gold.PLP.part.hbond>
-2.0000

> <Gold.PLP.part.metal>
0.0000

> <Gold.PLP.part.buried>
-8.1621

> <Gold.PLP.part.nonpolar>
-35.8245

> <Gold.PLP.part.repulsive>
0.0000

> <Gold.PLP.ligand.clash>
0.0000

> <Gold.PLP.ligand.torsion>
1.4906

> <Gold.PLP.Chemscore.Hbond>
2.0000

> <Gold.PLP.Chemscore.CHOScore>
0.0000

> <Gold.PLP.Chemscore.Metal>
0.0000

> <Gold.Chemscore.Hbonds>
donor molecule, donor type, donor heavy atom, donor atom, acceptor molecule, acceptor atom, score
      L1  H    14    35       P1  8028  1.00
      P1  H  7997  8010       L1     1  1.00

> <Gold.PLP.Chemscore.Internal.Correction>
0.1272

> <Gold.Rescore>
     Score         DG    S(hbond)    S(metal)    S(lipo)     H(rot)  DE(clash)    DE(int)     intcor
     15.39     -18.41       1.98        0.00     122.70       3.13       0.04       2.98       ----

> <Gold.Chemscore.Fitness>
15.3943

> <Gold.Chemscore.DG>
-18.4124

> <Gold.Chemscore.ZeroCoef>
-5.4800

> <Gold.Chemscore.Hbond>
1.9758

> <Gold.Chemscore.Metal>
0.0000

> <Gold.Chemscore.Lipo>
122.6963

> <Gold.Chemscore.Internal_Hbond>
0.0000

> <Gold.Chemscore.DEClash>
0.0411

> <Gold.Chemscore.DEInternal>
2.9770

> <Gold.Chemscore.Rot>
3.1337

> <Gold.Chemscore.Internal.Correction>
   9.000000E+99

> <Gold.Chemscore.Hbonds>
donor molecule, donor type, donor heavy atom, donor atom, acceptor molecule, acceptor atom, score
      L1  H    14    35       P1  8028  1.00
      P1  H  7997  8010       L1     1  0.93

> <Gold.Chemscore.Hbond.Weighted>
-6.5993

> <Gold.Chemscore.Metal.Weighted>
-0.0000

> <Gold.Chemscore.Lipo.Weighted>
-14.3555

> <Gold.Chemscore.Internal_Hbond.Weighted>
0.0000

> <Gold.Chemscore.DEClash.Weighted>
0.0411

> <Gold.Chemscore.DEInternal.Weighted>
2.9770

> <Gold.Chemscore.Rot.Weighted>
8.0224

> <Gold.Chemscore.Internal.Correction.Weighted>
   9.000000E+99

> <Gold.Protein.RotatedTorsions>
[ 6907 6896 6895 6894 ] final  -81.10 input  -60.11 | X-H torsion
[ 7974 7965 7964 7962 ] final    6.90 input  175.53 | X-H torsion
[ 8008 7997 7996 7995 ] final   68.74 input   59.86 | X-H torsion
[ 10167 10162 10161 10158 ] final  -16.24 input  -65.29 | X-H torsion
[ 10718 10713 10712 10709 ] final  -71.23 input   66.30 | X-H torsion
[ 10763 10752 10751 10750 ] final -168.54 input  -60.55 | X-H torsion
[ 11005 11000 10999 10996 ] final  160.15 input  -57.11 | X-H torsion

> <Gold.Protein.ActiveResidues>
 VAL166  LYS551  ARG553  GLY616  TRP617  ASP618  TYR619  PRO620  LYS621  CYS622 
 ASP623  PHE694  ASN695  SER759  ASP760  ASP761  ALA762  ILE779  LEU786  VAL792 
 PHE793  MET794  SER795  GLU796  ALA797  LYS798  CYS799  TRP800  GLU811  SER814 

> <Gold.Protein.RotatedAtoms>
  150.6918  134.3870  159.5058 H   0  0  0  0  0  0  0  0  0  0  0  0  # atno 6907 bound_to 6896
  152.1663  134.8868  160.0547 H   0  0  0  0  0  0  0  0  0  0  0  0  # atno 6908 bound_to 6896
  151.9910  133.3756  159.4181 H   0  0  0  0  0  0  0  0  0  0  0  0  # atno 6909 bound_to 6896
  146.2431  140.0163  142.8402 H   0  0  0  0  0  0  0  0  0  0  0  0  # atno 7974 bound_to 7965
  155.7130  140.3494  155.4982 H   0  0  0  0  0  0  0  0  0  0  0  0  # atno 8008 bound_to 7997
  155.9338  140.1089  157.1132 H   0  0  0  0  0  0  0  0  0  0  0  0  # atno 8009 bound_to 7997
  154.4090  140.1226  156.4824 H   0  0  0  0  0  0  0  0  0  0  0  0  # atno 8010 bound_to 7997
  140.7231  143.5136  150.9719 H   0  0  0  0  0  0  0  0  0  0  0  0  # atno 10167 bound_to 10162
  156.0372  130.4347  150.2412 H   0  0  0  0  0  0  0  0  0  0  0  0  # atno 10718 bound_to 10713
  154.6617  135.2926  154.9857 H   0  0  0  0  0  0  0  0  0  0  0  0  # atno 10763 bound_to 10752
  154.0914  135.6590  153.4857 H   0  0  0  0  0  0  0  0  0  0  0  0  # atno 10764 bound_to 10752
  153.0434  135.5221  154.7572 H   0  0  0  0  0  0  0  0  0  0  0  0  # atno 10765 bound_to 10752
  140.2031  134.8323  157.3040 H   0  0  0  0  0  0  0  0  0  0  0  0  # atno 11005 bound_to 11000
  145.1281  140.9502  143.4560 LP  0  0  0  0  0  0  0  0  0  0  0  0  # atno 17320 bound_to 7965
  145.0414  139.3257  143.5974 LP  0  0  0  0  0  0  0  0  0  0  0  0  # atno 17321 bound_to 7965
  139.8851  143.7023  152.3152 LP  0  0  0  0  0  0  0  0  0  0  0  0  # atno 17342 bound_to 10162
  139.7319  144.7580  151.0788 LP  0  0  0  0  0  0  0  0  0  0  0  0  # atno 17343 bound_to 10162
  157.0511  131.0063  151.3253 LP  0  0  0  0  0  0  0  0  0  0  0  0  # atno 17370 bound_to 10713
  157.5140  130.7956  149.7736 LP  0  0  0  0  0  0  0  0  0  0  0  0  # atno 17371 bound_to 10713
  140.2032  134.4229  155.7651 LP  0  0  0  0  0  0  0  0  0  0  0  0  # atno 17394 bound_to 11000
  141.2227  133.7082  156.8217 LP  0  0  0  0  0  0  0  0  0  0  0  0  # atno 17395 bound_to 11000

$$$$
