AV-unprocessed.smi:2439|AV-procd|sdf|9607|dock4
  -GOLD-   2272013243D 1   1.00000     0.00000
 Structure written by MMmdl.
 41 43  0  0  0  0  0  0  0  0  2 V2000
  151.3542  133.9739  157.2129 N   0  0  0  0  0  0  0  0  0  0  0  0
  151.3422  132.9854  156.6116 C   0  0  0  0  0  0  0  0  0  0  0  0
  151.3251  131.7407  155.8529 C   0  0  0  0  0  0  0  0  0  0  0  0
  152.4654  130.9103  155.8729 C   0  0  0  0  0  0  0  0  0  0  0  0
  152.4530  129.7104  155.1381 C   0  0  0  0  0  0  0  0  0  0  0  0
  151.2935  129.3868  154.4105 C   0  0  0  0  0  0  0  0  0  0  0  0
  150.1956  130.1710  154.3835 N   0  0  0  0  0  0  0  0  0  0  0  0
  150.2013  131.3301  155.0867 C   0  0  0  0  0  0  0  0  0  0  0  0
  149.0421  132.1246  155.0380 N   0  0  0  0  0  0  0  0  0  0  0  0
  147.7323  131.5151  154.8560 C   0  0  0  0  0  0  0  0  0  0  0  0
  147.4854  131.1301  153.3914 C   0  0  2  0  0  0  0  0  0  0  0  0
  147.1356  132.3619  152.5361 C   0  0  0  0  0  0  0  0  0  0  0  0
  146.8014  131.9591  151.1473 N   0  3  2  0  0  0  0  0  0  0  0  0
  146.5009  133.1020  150.2457 C   0  0  0  0  0  0  0  0  0  0  0  0
  145.1077  133.7039  150.5126 C   0  0  0  0  0  0  0  0  0  0  0  0
  144.0176  132.6255  150.4447 C   0  0  0  0  0  0  0  0  0  0  0  0
  144.3528  131.4645  151.3917 C   0  0  0  0  0  0  0  0  0  0  0  0
  145.7591  130.8970  151.0979 C   0  0  2  0  0  0  0  0  0  0  0  0
  146.1395  129.7359  152.0370 C   0  0  0  0  0  0  0  0  0  0  0  0
  146.3863  130.2258  153.3491 O   0  0  0  0  0  0  0  0  0  0  0  0
  153.3420  131.1848  156.4422 H   0  0  0  0  0  0  0  0  0  0  0  0
  153.3110  129.0545  155.1326 H   0  0  0  0  0  0  0  0  0  0  0  0
  151.2447  128.4743  153.8349 H   0  0  0  0  0  0  0  0  0  0  0  0
  149.1362  133.1184  154.8839 H   0  0  0  0  0  0  0  0  0  0  0  0
  147.6422  130.6361  155.4957 H   0  0  0  0  0  0  0  0  0  0  0  0
  146.9725  132.2282  155.1781 H   0  0  0  0  0  0  0  0  0  0  0  0
  148.3793  130.6482  152.9898 H   0  0  0  0  0  0  0  0  0  0  0  0
  146.3017  132.8997  152.9876 H   0  0  0  0  0  0  0  0  0  0  0  0
  147.9808  133.0508  152.5175 H   0  0  0  0  0  0  0  0  0  0  0  0
  147.2727  133.8665  150.3424 H   0  0  0  0  0  0  0  0  0  0  0  0
  146.5495  132.7461  149.2157 H   0  0  0  0  0  0  0  0  0  0  0  0
  145.0871  134.1880  151.4894 H   0  0  0  0  0  0  0  0  0  0  0  0
  144.8980  134.4867  149.7833 H   0  0  0  0  0  0  0  0  0  0  0  0
  143.0485  133.0534  150.7022 H   0  0  0  0  0  0  0  0  0  0  0  0
  143.9325  132.2530  149.4230 H   0  0  0  0  0  0  0  0  0  0  0  0
  144.2868  131.8036  152.4261 H   0  0  0  0  0  0  0  0  0  0  0  0
  143.6049  130.6785  151.2829 H   0  0  0  0  0  0  0  0  0  0  0  0
  145.7477  130.5049  150.0799 H   0  0  0  0  0  0  0  0  0  0  0  0
  145.3379  128.9980  152.0763 H   0  0  0  0  0  0  0  0  0  0  0  0
  147.0242  129.2151  151.6667 H   0  0  0  0  0  0  0  0  0  0  0  0
  147.6444  131.5366  150.7854 H   0  0  0  0  0  0  0  0  0  0  0  0
  1  2  3  0  0  0  0
  2  3  1  0  0  0  0
  3  8  1  0  0  0  0
  3  4  2  0  0  0  0
  4  5  1  0  0  0  0
  4 21  1  0  0  0  0
  5  6  2  0  0  0  0
  5 22  1  0  0  0  0
  6  7  1  0  0  0  0
  6 23  1  0  0  0  0
  7  8  2  0  0  0  0
  8  9  1  0  0  0  0
  9 10  1  0  0  0  0
  9 24  1  0  0  0  0
 10 11  1  0  0  0  0
 10 25  1  0  0  0  0
 10 26  1  0  0  0  0
 11 20  1  0  0  0  0
 11 12  1  0  0  0  0
 11 27  1  0  0  0  0
 12 13  1  0  0  0  0
 12 28  1  0  0  0  0
 12 29  1  0  0  0  0
 13 18  1  0  0  0  0
 13 14  1  0  0  0  0
 13 41  1  0  0  0  0
 14 15  1  0  0  0  0
 14 30  1  0  0  0  0
 14 31  1  0  0  0  0
 15 16  1  0  0  0  0
 15 32  1  0  0  0  0
 15 33  1  0  0  0  0
 16 17  1  0  0  0  0
 16 34  1  0  0  0  0
 16 35  1  0  0  0  0
 17 18  1  0  0  0  0
 17 36  1  0  0  0  0
 17 37  1  0  0  0  0
 18 19  1  0  0  0  0
 18 38  1  0  0  0  0
 19 20  1  0  0  0  0
 19 39  1  0  0  0  0
 19 40  1  0  0  0  0
M  CHG  1  13   1
M  END
> <s_m_source_file>
AV-unprocessed.smi

> <i_m_source_file_index>
2439

> <i_lp_mmshare_version>
43012

> <i_f3d_flags>
0

> <s_epik_input>
TiNDYzFbY0hdW2NIXVtjSF1uYzFbTkhdW0NIMl1bQ0BIXShbQ0gyXTIpT1tDSDJdW0NAQEhdKE4yMylbQ0gyXVtDSDJdW0NIMl1bQ0gyXTM=

> <s_epik_cmdline>
J2VwaWtfcHl0aG9uJywgJy1waCcsICc3LjAnLCAnLXRuJywgJzgnLCAnLW1hJywgJzIwMCcsICctbWV0YWxfYmluZGluZycsICctaW1hZScsICc8aW5maWxlLm1hZT4nLCAnLW9tYWUnLCAnPG91dGZpbGUubWFlPic=

> <r_epik_Ionization_Penalty>
0.0803594

> <r_epik_Ionization_Penalty_Charging>
0.0803403

> <r_epik_Ionization_Penalty_Neutral>
1.90988e-05

> <r_epik_State_Penalty>
0.0711481

> <r_epik_Charging_Adjusted_Penalty>
0.151488

> <i_epik_Tot_Q>
1

> <i_epik_Tot_abs_Q>
1

> <r_epik_Metal_State_Penalty>
0.0711482

> <b_epik_Metal_Only>
0

> <s_lp_Force_Field>
OPLS_2005

> <r_lp_Energy>
31.0257

> <b_lp_Chiralities_Consistent>
1

> <s_lp_Variant>
AV-unprocessed.smi:2439-5

> <Gold.Version>
5.8.1

> <Gold.Id.Protein>
6NUR|6NUR_protein|mol2

> <Gold.PLP.Fitness>
40.4443

> <Gold.PLP.PLP>
-34.5321

> <Gold.PLP.part.hbond>
-2.0000

> <Gold.PLP.part.metal>
0.0000

> <Gold.PLP.part.buried>
-3.5372

> <Gold.PLP.part.nonpolar>
-28.9482

> <Gold.PLP.part.repulsive>
0.2927

> <Gold.PLP.ligand.clash>
0.0000

> <Gold.PLP.ligand.torsion>
0.4420

> <Gold.PLP.Chemscore.Hbond>
1.2652

> <Gold.PLP.Chemscore.CHOScore>
1.0000

> <Gold.PLP.Chemscore.Metal>
0.0000

> <Gold.Chemscore.Hbonds>
donor molecule, donor type, donor heavy atom, donor atom, acceptor molecule, acceptor atom, score
      L1  H    13    41       P1 10747  1.00
      P1  H  6896  6909       L1     1  0.27
      L1  C     6    23       P1 10737  1.00

> <Gold.PLP.Chemscore.Internal.Correction>
0.0006

> <Gold.Rescore>
     Score         DG    S(hbond)    S(metal)    S(lipo)     H(rot)  DE(clash)    DE(int)     intcor
     17.23     -17.92       1.96        0.00      78.07       1.27       0.05       0.63       ----

> <Gold.Chemscore.Fitness>
17.2344

> <Gold.Chemscore.DG>
-17.9152

> <Gold.Chemscore.ZeroCoef>
-5.4800

> <Gold.Chemscore.Hbond>
1.9586

> <Gold.Chemscore.Metal>
0.0000

> <Gold.Chemscore.Lipo>
78.0692

> <Gold.Chemscore.Internal_Hbond>
0.0000

> <Gold.Chemscore.DEClash>
0.0480

> <Gold.Chemscore.DEInternal>
0.6328

> <Gold.Chemscore.Rot>
1.2659

> <Gold.Chemscore.Internal.Correction>
   9.000000E+99

> <Gold.Chemscore.Hbonds>
donor molecule, donor type, donor heavy atom, donor atom, acceptor molecule, acceptor atom, score
      L1  H    13    41       P1 10747  0.97
      P1  H  6896  6909       L1     1  0.13

> <Gold.Chemscore.Hbond.Weighted>
-6.5418

> <Gold.Chemscore.Metal.Weighted>
-0.0000

> <Gold.Chemscore.Lipo.Weighted>
-9.1341

> <Gold.Chemscore.Internal_Hbond.Weighted>
0.0000

> <Gold.Chemscore.DEClash.Weighted>
0.0480

> <Gold.Chemscore.DEInternal.Weighted>
0.6328

> <Gold.Chemscore.Rot.Weighted>
3.2408

> <Gold.Chemscore.Internal.Correction.Weighted>
   9.000000E+99

> <Gold.Protein.RotatedTorsions>
[ 6907 6896 6895 6894 ] final  -49.20 input  -60.11 | X-H torsion
[ 7974 7965 7964 7962 ] final  145.20 input  175.53 | X-H torsion
[ 8008 7997 7996 7995 ] final   43.62 input   59.86 | X-H torsion
[ 10167 10162 10161 10158 ] final -174.77 input  -65.29 | X-H torsion
[ 10718 10713 10712 10709 ] final -171.40 input   66.30 | X-H torsion
[ 10763 10752 10751 10750 ] final   26.53 input  -60.55 | X-H torsion
[ 11005 11000 10999 10996 ] final  -98.01 input  -57.11 | X-H torsion

> <Gold.Protein.ActiveResidues>
 VAL166  LYS551  ARG553  GLY616  TRP617  ASP618  TYR619  PRO620  LYS621  CYS622 
 ASP623  PHE694  ASN695  SER759  ASP760  ASP761  ALA762  ILE779  LEU786  VAL792 
 PHE793  MET794  SER795  GLU796  ALA797  LYS798  CYS799  TRP800  GLU811  SER814 

> <Gold.Protein.RotatedAtoms>
  150.8829  134.8222  159.7237 H   0  0  0  0  0  0  0  0  0  0  0  0  # atno 6907 bound_to 6896
  152.4789  134.4768  159.9663 H   0  0  0  0  0  0  0  0  0  0  0  0  # atno 6908 bound_to 6896
  151.4841  133.3501  159.2878 H   0  0  0  0  0  0  0  0  0  0  0  0  # atno 6909 bound_to 6896
  144.8772  139.5754  143.5859 H   0  0  0  0  0  0  0  0  0  0  0  0  # atno 7974 bound_to 7965
  155.3057  140.3388  155.4246 H   0  0  0  0  0  0  0  0  0  0  0  0  # atno 8008 bound_to 7997
  156.1980  140.1722  156.7997 H   0  0  0  0  0  0  0  0  0  0  0  0  # atno 8009 bound_to 7997
  154.5523  140.0703  156.8671 H   0  0  0  0  0  0  0  0  0  0  0  0  # atno 8010 bound_to 7997
  139.5616  144.1856  152.1247 H   0  0  0  0  0  0  0  0  0  0  0  0  # atno 10167 bound_to 10162
  156.7403  130.9340  151.3110 H   0  0  0  0  0  0  0  0  0  0  0  0  # atno 10718 bound_to 10713
  153.0616  135.6558  154.0449 H   0  0  0  0  0  0  0  0  0  0  0  0  # atno 10763 bound_to 10752
  154.0116  135.2928  155.3393 H   0  0  0  0  0  0  0  0  0  0  0  0  # atno 10764 bound_to 10752
  154.6957  135.5265  153.8523 H   0  0  0  0  0  0  0  0  0  0  0  0  # atno 10765 bound_to 10752
  141.1360  133.8213  157.0782 H   0  0  0  0  0  0  0  0  0  0  0  0  # atno 11005 bound_to 11000
  146.2971  139.7310  142.9119 LP  0  0  0  0  0  0  0  0  0  0  0  0  # atno 17320 bound_to 7965
  145.4020  141.0386  143.3065 LP  0  0  0  0  0  0  0  0  0  0  0  0  # atno 17321 bound_to 7965
  140.1371  144.5236  150.6767 LP  0  0  0  0  0  0  0  0  0  0  0  0  # atno 17342 bound_to 10162
  140.6896  143.2368  151.5167 LP  0  0  0  0  0  0  0  0  0  0  0  0  # atno 17343 bound_to 10162
  157.6821  130.9150  150.0293 LP  0  0  0  0  0  0  0  0  0  0  0  0  # atno 17370 bound_to 10713
  156.1469  130.3642  149.9497 LP  0  0  0  0  0  0  0  0  0  0  0  0  # atno 17371 bound_to 10713
  140.0468  134.9826  157.1064 LP  0  0  0  0  0  0  0  0  0  0  0  0  # atno 17394 bound_to 11000
  140.4050  134.2042  155.7163 LP  0  0  0  0  0  0  0  0  0  0  0  0  # atno 17395 bound_to 11000

$$$$
