AV-unprocessed.smi:2279|AV-procd|sdf|9186|dock10
  -GOLD-   2272012403D 1   1.00000     0.00000
 Structure written by MMmdl.
 58 60  0  0  0  0  0  0  0  0  3 V2000
  136.3025  141.7943  153.7992 C   0  0  0  0  0  0  0  0  0  0  0  0
  137.7679  142.1326  153.9769 C   0  0  0  0  0  0  0  0  0  0  0  0
  138.1743  143.4448  154.2855 C   0  0  0  0  0  0  0  0  0  0  0  0
  139.5520  143.6953  154.4389 C   0  0  0  0  0  0  0  0  0  0  0  0
  140.0601  145.0842  154.7646 C   0  0  0  0  0  0  0  0  0  0  0  0
  140.4938  142.7366  154.3099 N   0  0  0  0  0  0  0  0  0  0  0  0
  140.1143  141.4685  154.0148 C   0  0  0  0  0  0  0  0  0  0  0  0
  141.0275  140.3929  153.8499 N   0  0  0  0  0  0  0  0  0  0  0  0
  140.8762  139.1131  154.2345 C   0  0  0  0  0  0  0  0  0  0  0  0
  139.8693  138.6437  154.7657 O   0  0  0  0  0  0  0  0  0  0  0  0
  141.9673  138.3849  153.9526 N   0  0  0  0  0  0  0  0  0  0  0  0
  142.1106  136.9568  154.2228 C   0  0  2  0  0  0  0  0  0  0  0  0
  143.5656  136.6280  154.5974 C   0  0  0  0  0  0  0  0  0  0  0  0
  143.7449  135.1096  154.7841 C   0  0  0  0  0  0  0  0  0  0  0  0
  143.3773  134.3531  153.5524 N   0  3  2  0  0  0  0  0  0  0  0  0
  144.3320  134.4726  152.3951 C   0  0  2  0  0  0  0  0  0  0  0  0
  143.8236  133.7473  151.1255 C   0  0  0  0  0  0  0  0  0  0  0  0
  143.8267  132.2163  151.2961 C   0  0  0  0  0  0  0  0  0  0  0  0
  145.1821  131.7170  151.6382 N   0  3  2  0  0  0  0  0  0  0  0  0
  145.2308  130.2420  151.7349 C   0  0  0  0  0  0  0  0  0  0  0  0
  145.7408  132.3808  152.8425 C   0  0  0  0  0  0  0  0  0  0  0  0
  145.7481  133.9120  152.6762 C   0  0  0  0  0  0  0  0  0  0  0  0
  141.9488  134.6244  153.2157 C   0  0  0  0  0  0  0  0  0  0  0  0
  141.6733  136.1265  153.0012 C   0  0  0  0  0  0  0  0  0  0  0  0
  138.7528  141.1337  153.8374 C   0  0  0  0  0  0  0  0  0  0  0  0
  135.6862  142.6940  153.7943 H   0  0  0  0  0  0  0  0  0  0  0  0
  135.9628  141.1513  154.6114 H   0  0  0  0  0  0  0  0  0  0  0  0
  136.1457  141.2698  152.8563 H   0  0  0  0  0  0  0  0  0  0  0  0
  137.4501  144.2381  154.4005 H   0  0  0  0  0  0  0  0  0  0  0  0
  139.2638  145.8247  154.6857 H   0  0  0  0  0  0  0  0  0  0  0  0
  140.8569  145.3700  154.0771 H   0  0  0  0  0  0  0  0  0  0  0  0
  140.4549  145.1131  155.7805 H   0  0  0  0  0  0  0  0  0  0  0  0
  141.8935  140.6263  153.3871 H   0  0  0  0  0  0  0  0  0  0  0  0
  142.7488  138.8506  153.5143 H   0  0  0  0  0  0  0  0  0  0  0  0
  141.4814  136.6845  155.0727 H   0  0  0  0  0  0  0  0  0  0  0  0
  144.2492  136.9949  153.8308 H   0  0  0  0  0  0  0  0  0  0  0  0
  143.8343  137.1439  155.5201 H   0  0  0  0  0  0  0  0  0  0  0  0
  144.7465  134.8692  155.1345 H   0  0  0  0  0  0  0  0  0  0  0  0
  143.0907  134.7758  155.5911 H   0  0  0  0  0  0  0  0  0  0  0  0
  144.4455  135.5308  152.1611 H   0  0  0  0  0  0  0  0  0  0  0  0
  142.8390  134.0909  150.8154 H   0  0  0  0  0  0  0  0  0  0  0  0
  144.4779  134.0025  150.2905 H   0  0  0  0  0  0  0  0  0  0  0  0
  143.1173  131.9195  152.0703 H   0  0  0  0  0  0  0  0  0  0  0  0
  143.4947  131.7479  150.3686 H   0  0  0  0  0  0  0  0  0  0  0  0
  144.6009  129.8814  152.5495 H   0  0  0  0  0  0  0  0  0  0  0  0
  146.2508  129.9009  151.9146 H   0  0  0  0  0  0  0  0  0  0  0  0
  144.8862  129.7835  150.8075 H   0  0  0  0  0  0  0  0  0  0  0  0
  145.1622  132.0953  153.7222 H   0  0  0  0  0  0  0  0  0  0  0  0
  146.7598  132.0287  153.0076 H   0  0  0  0  0  0  0  0  0  0  0  0
  146.3939  134.1605  151.8327 H   0  0  0  0  0  0  0  0  0  0  0  0
  146.2241  134.3963  153.5274 H   0  0  0  0  0  0  0  0  0  0  0  0
  141.6119  134.0504  152.3555 H   0  0  0  0  0  0  0  0  0  0  0  0
  141.3349  134.2706  154.0453 H   0  0  0  0  0  0  0  0  0  0  0  0
  140.6089  136.2765  152.8150 H   0  0  0  0  0  0  0  0  0  0  0  0
  142.1854  136.4779  152.1051 H   0  0  0  0  0  0  0  0  0  0  0  0
  138.4629  140.1199  153.6010 H   0  0  0  0  0  0  0  0  0  0  0  0
  143.4136  133.3801  153.8208 H   0  0  0  0  0  0  0  0  0  0  0  0
  145.7838  131.9699  150.8670 H   0  0  0  0  0  0  0  0  0  0  0  0
  1  2  1  0  0  0  0
  1 26  1  0  0  0  0
  1 27  1  0  0  0  0
  1 28  1  0  0  0  0
  2 25  1  0  0  0  0
  2  3  2  0  0  0  0
  3  4  1  0  0  0  0
  3 29  1  0  0  0  0
  4  5  1  0  0  0  0
  4  6  2  0  0  0  0
  5 30  1  0  0  0  0
  5 31  1  0  0  0  0
  5 32  1  0  0  0  0
  6  7  1  0  0  0  0
  7  8  1  0  0  0  0
  7 25  2  0  0  0  0
  8  9  1  0  0  0  0
  8 33  1  0  0  0  0
  9 10  2  0  0  0  0
  9 11  1  0  0  0  0
 11 12  1  0  0  0  0
 11 34  1  0  0  0  0
 12 24  1  0  0  0  0
 12 13  1  0  0  0  0
 12 35  1  0  0  0  0
 13 14  1  0  0  0  0
 13 36  1  0  0  0  0
 13 37  1  0  0  0  0
 14 15  1  0  0  0  0
 14 38  1  0  0  0  0
 14 39  1  0  0  0  0
 15 16  1  0  0  0  0
 15 23  1  0  0  0  0
 15 57  1  0  0  0  0
 16 22  1  0  0  0  0
 16 17  1  0  0  0  0
 16 40  1  0  0  0  0
 17 18  1  0  0  0  0
 17 41  1  0  0  0  0
 17 42  1  0  0  0  0
 18 19  1  0  0  0  0
 18 43  1  0  0  0  0
 18 44  1  0  0  0  0
 19 20  1  0  0  0  0
 19 21  1  0  0  0  0
 19 58  1  0  0  0  0
 20 45  1  0  0  0  0
 20 46  1  0  0  0  0
 20 47  1  0  0  0  0
 21 22  1  0  0  0  0
 21 48  1  0  0  0  0
 21 49  1  0  0  0  0
 22 50  1  0  0  0  0
 22 51  1  0  0  0  0
 23 24  1  0  0  0  0
 23 52  1  0  0  0  0
 23 53  1  0  0  0  0
 24 54  1  0  0  0  0
 24 55  1  0  0  0  0
 25 56  1  0  0  0  0
M  CHG  1  15   1
M  CHG  1  19   1
M  END
> <s_m_source_file>
AV-unprocessed.smi

> <i_m_source_file_index>
2279

> <i_lp_mmshare_version>
43012

> <i_f3d_flags>
0

> <s_epik_input>
W0NIM11jMVtjSF1jKFtDSDNdKW5jKFtjSF0xKVtOSF1DKD1PKVtOSF1bQ0hdMltDSDJdW0NIMl1OKFtDSDJdW0NIMl0yKVtDSF0zW0NIMl1bQ0gyXU4oW0NIM10pW0NIMl1bQ0gyXTM=

> <s_epik_cmdline>
J2VwaWtfcHl0aG9uJywgJy1waCcsICc3LjAnLCAnLXRuJywgJzgnLCAnLW1hJywgJzIwMCcsICctbWV0YWxfYmluZGluZycsICctaW1hZScsICc8aW5maWxlLm1hZT4nLCAnLW9tYWUnLCAnPG91dGZpbGUubWFlPic=

> <r_epik_Ionization_Penalty>
0.180973

> <r_epik_Ionization_Penalty_Charging>
0.180787

> <r_epik_Ionization_Penalty_Neutral>
0.000186186

> <r_epik_State_Penalty>
0.153592

> <r_epik_Charging_Adjusted_Penalty>
0.334379

> <i_epik_Tot_Q>
2

> <i_epik_Tot_abs_Q>
2

> <r_epik_Metal_State_Penalty>
0.153604

> <b_epik_Metal_Only>
0

> <s_lp_Force_Field>
OPLS_2005

> <r_lp_Energy>
49.6144

> <b_lp_Chiralities_Consistent>
1

> <s_lp_Variant>
AV-unprocessed.smi:2279-4

> <Gold.Version>
5.8.1

> <Gold.Id.Protein>
6NUR|6NUR_protein|mol2

> <Gold.PLP.Fitness>
41.2003

> <Gold.PLP.PLP>
-32.3914

> <Gold.PLP.part.hbond>
-5.5013

> <Gold.PLP.part.metal>
0.0000

> <Gold.PLP.part.buried>
-4.9180

> <Gold.PLP.part.nonpolar>
-23.7571

> <Gold.PLP.part.repulsive>
0.7807

> <Gold.PLP.ligand.clash>
0.0000

> <Gold.PLP.ligand.torsion>
0.7339

> <Gold.PLP.Chemscore.Hbond>
3.4100

> <Gold.PLP.Chemscore.CHOScore>
0.0000

> <Gold.PLP.Chemscore.Metal>
0.0000

> <Gold.Chemscore.Hbonds>
donor molecule, donor type, donor heavy atom, donor atom, acceptor molecule, acceptor atom, score
      L1  H     8    33       P1 10175  0.55
      L1  H    11    34       P1 10175  0.86
      L1  H    15    57       P1 10957  2.00

> <Gold.PLP.Chemscore.Internal.Correction>
0.0467

> <Gold.Rescore>
     Score         DG    S(hbond)    S(metal)    S(lipo)     H(rot)  DE(clash)    DE(int)     intcor
     16.07     -18.32       1.66        0.00      88.80       1.21       0.24       2.01       ----

> <Gold.Chemscore.Fitness>
16.0691

> <Gold.Chemscore.DG>
-18.3220

> <Gold.Chemscore.ZeroCoef>
-5.4800

> <Gold.Chemscore.Hbond>
1.6612

> <Gold.Chemscore.Metal>
0.0000

> <Gold.Chemscore.Lipo>
88.8022

> <Gold.Chemscore.Internal_Hbond>
0.0000

> <Gold.Chemscore.DEClash>
0.2383

> <Gold.Chemscore.DEInternal>
2.0146

> <Gold.Chemscore.Rot>
1.2095

> <Gold.Chemscore.Internal.Correction>
   9.000000E+99

> <Gold.Chemscore.Hbonds>
donor molecule, donor type, donor heavy atom, donor atom, acceptor molecule, acceptor atom, score
      L1  H     8    33       P1 10175  0.03
      L1  H    11    34       P1 10175  0.81
      L1  H    15    57       P1 10957  0.90

> <Gold.Chemscore.Hbond.Weighted>
-5.5484

> <Gold.Chemscore.Metal.Weighted>
-0.0000

> <Gold.Chemscore.Lipo.Weighted>
-10.3899

> <Gold.Chemscore.Internal_Hbond.Weighted>
0.0000

> <Gold.Chemscore.DEClash.Weighted>
0.2383

> <Gold.Chemscore.DEInternal.Weighted>
2.0146

> <Gold.Chemscore.Rot.Weighted>
3.0963

> <Gold.Chemscore.Internal.Correction.Weighted>
   9.000000E+99

> <Gold.Protein.RotatedTorsions>
[ 6907 6896 6895 6894 ] final  -44.99 input  -60.11 | X-H torsion
[ 7974 7965 7964 7962 ] final  151.70 input  175.53 | X-H torsion
[ 8008 7997 7996 7995 ] final  107.41 input   59.86 | X-H torsion
[ 10167 10162 10161 10158 ] final  126.72 input  -65.29 | X-H torsion
[ 10718 10713 10712 10709 ] final  -58.04 input   66.30 | X-H torsion
[ 10763 10752 10751 10750 ] final  167.15 input  -60.55 | X-H torsion
[ 11005 11000 10999 10996 ] final   96.93 input  -57.11 | X-H torsion

> <Gold.Protein.ActiveResidues>
 VAL166  LYS551  ARG553  GLY616  TRP617  ASP618  TYR619  PRO620  LYS621  CYS622 
 ASP623  PHE694  ASN695  SER759  ASP760  ASP761  ALA762  ILE779  LEU786  VAL792 
 PHE793  MET794  SER795  GLU796  ALA797  LYS798  CYS799  TRP800  GLU811  SER814 

> <Gold.Protein.RotatedAtoms>
  150.9267  134.8684  159.7524 H   0  0  0  0  0  0  0  0  0  0  0  0  # atno 6907 bound_to 6896
  152.5019  134.4138  159.9467 H   0  0  0  0  0  0  0  0  0  0  0  0  # atno 6908 bound_to 6896
  151.4168  133.3670  159.2786 H   0  0  0  0  0  0  0  0  0  0  0  0  # atno 6909 bound_to 6896
  144.8273  139.6572  143.6074 H   0  0  0  0  0  0  0  0  0  0  0  0  # atno 7974 bound_to 7965
  156.1822  140.3095  155.9169 H   0  0  0  0  0  0  0  0  0  0  0  0  # atno 8008 bound_to 7997
  155.3360  140.0463  157.3061 H   0  0  0  0  0  0  0  0  0  0  0  0  # atno 8009 bound_to 7997
  154.5355  140.2244  155.8740 H   0  0  0  0  0  0  0  0  0  0  0  0  # atno 8010 bound_to 7997
  139.5616  144.6885  151.4028 H   0  0  0  0  0  0  0  0  0  0  0  0  # atno 10167 bound_to 10162
  156.1165  130.4170  150.0523 H   0  0  0  0  0  0  0  0  0  0  0  0  # atno 10718 bound_to 10713
  154.3496  135.2753  155.2379 H   0  0  0  0  0  0  0  0  0  0  0  0  # atno 10763 bound_to 10752
  154.4614  135.5906  153.6262 H   0  0  0  0  0  0  0  0  0  0  0  0  # atno 10764 bound_to 10752
  152.9851  135.6066  154.3705 H   0  0  0  0  0  0  0  0  0  0  0  0  # atno 10765 bound_to 10752
  139.8778  134.8975  156.4232 H   0  0  0  0  0  0  0  0  0  0  0  0  # atno 11005 bound_to 11000
  146.2578  139.6342  142.9383 LP  0  0  0  0  0  0  0  0  0  0  0  0  # atno 17320 bound_to 7965
  145.4971  141.0438  143.2561 LP  0  0  0  0  0  0  0  0  0  0  0  0  # atno 17321 bound_to 7965
  140.6896  143.7893  150.7236 LP  0  0  0  0  0  0  0  0  0  0  0  0  # atno 17342 bound_to 10162
  140.1371  143.4474  152.2217 LP  0  0  0  0  0  0  0  0  0  0  0  0  # atno 17343 bound_to 10162
  156.8473  130.9446  151.3628 LP  0  0  0  0  0  0  0  0  0  0  0  0  # atno 17370 bound_to 10713
  157.6348  130.8758  149.9339 LP  0  0  0  0  0  0  0  0  0  0  0  0  # atno 17371 bound_to 10713
  140.9119  133.7706  155.9802 LP  0  0  0  0  0  0  0  0  0  0  0  0  # atno 17394 bound_to 11000
  140.8537  134.2924  157.5264 LP  0  0  0  0  0  0  0  0  0  0  0  0  # atno 17395 bound_to 11000

$$$$
