AV-unprocessed.smi:35|AV-procd|sdf|272|dock8
  -GOLD-   2262016 43D 1   1.00000     0.00000
 Structure written by MMmdl.
 28 29  0  0  0  0  0  0  0  0  2 V2000
  151.2638  135.9451  155.5124 O   0  0  0  0  0  0  0  0  0  0  0  0
  150.7942  137.0620  155.3034 C   0  0  0  0  0  0  0  0  0  0  0  0
  151.5511  138.1966  155.3035 N   0  5  0  0  0  0  0  0  0  0  0  0
  151.0213  139.4372  155.0916 C   0  0  0  0  0  0  0  0  0  0  0  0
  151.7108  140.4552  155.0356 O   0  0  0  0  0  0  0  0  0  0  0  0
  149.6139  139.5691  154.9158 N   0  0  0  0  0  0  0  0  0  0  0  0
  149.0197  140.9465  154.6602 C   0  0  1  0  0  0  0  0  0  0  0  0
  148.6734  141.0609  153.3062 O   0  0  0  0  0  0  0  0  0  0  0  0
  147.2612  140.9841  153.1125 C   0  0  1  0  0  0  0  0  0  0  0  0
  146.8063  139.5187  152.9168 C   0  0  0  0  0  0  0  0  0  0  0  0
  147.4063  138.9765  151.7598 O   0  0  0  0  0  0  0  0  0  0  0  0
  146.7456  141.6586  154.3882 C   0  0  1  0  0  0  0  0  0  0  0  0
  145.4108  141.3139  154.7040 O   0  0  0  0  0  0  0  0  0  0  0  0
  147.7188  141.1895  155.4614 C   0  0  2  0  0  0  0  0  0  0  0  0
  147.8767  142.2099  156.4264 O   0  0  0  0  0  0  0  0  0  0  0  0
  148.8348  138.4237  154.8407 C   0  0  0  0  0  0  0  0  0  0  0  0
  149.3669  137.2002  155.0333 C   0  0  0  0  0  0  0  0  0  0  0  0
  148.1232  135.6620  154.9188 Br  0  0  0  0  0  0  0  0  0  0  0  0
  149.8283  141.6415  154.8932 H   0  0  0  0  0  0  0  0  0  0  0  0
  146.9722  141.5708  152.2396 H   0  0  0  0  0  0  0  0  0  0  0  0
  147.0126  138.8957  153.7856 H   0  0  0  0  0  0  0  0  0  0  0  0
  145.7303  139.4718  152.7511 H   0  0  0  0  0  0  0  0  0  0  0  0
  148.0464  139.5925  151.4380 H   0  0  0  0  0  0  0  0  0  0  0  0
  146.8159  142.7406  154.2612 H   0  0  0  0  0  0  0  0  0  0  0  0
  144.9389  141.1884  153.8947 H   0  0  0  0  0  0  0  0  0  0  0  0
  147.3768  140.2595  155.9194 H   0  0  0  0  0  0  0  0  0  0  0  0
  148.0889  143.0114  155.9705 H   0  0  0  0  0  0  0  0  0  0  0  0
  147.7795  138.4897  154.6261 H   0  0  0  0  0  0  0  0  0  0  0  0
  1  2  2  0  0  0  0
  2 17  1  0  0  0  0
  2  3  1  0  0  0  0
  3  4  1  0  0  0  0
  4  5  2  0  0  0  0
  4  6  1  0  0  0  0
  6  7  1  0  0  0  0
  6 16  1  0  0  0  0
  7 14  1  0  0  0  0
  7  8  1  0  0  0  0
  7 19  1  0  0  0  0
  8  9  1  0  0  0  0
  9 10  1  0  0  0  0
  9 12  1  0  0  0  0
  9 20  1  0  0  0  0
 10 11  1  0  0  0  0
 10 21  1  0  0  0  0
 10 22  1  0  0  0  0
 11 23  1  0  0  0  0
 12 13  1  0  0  0  0
 12 14  1  0  0  0  0
 12 24  1  0  0  0  0
 13 25  1  0  0  0  0
 14 15  1  0  0  0  0
 14 26  1  0  0  0  0
 15 27  1  0  0  0  0
 16 17  2  0  0  0  0
 16 28  1  0  0  0  0
 17 18  1  0  0  0  0
M  CHG  1   3  -1
M  END
> <s_m_source_file>
AV-unprocessed.smi

> <i_m_source_file_index>
35

> <i_lp_mmshare_version>
43012

> <i_f3d_flags>
0

> <s_epik_input>
Tz1jMVtuSF1jKD1PKW4oW2NIXWMxQnIpW0NAQEhdMk9bQ0BASF0oW0NIMl1bT0hdKVtDQEBIXShbT0hdKVtDQEhdMltPSF0=

> <s_epik_cmdline>
J2VwaWtfcHl0aG9uJywgJy1waCcsICc3LjAnLCAnLXRuJywgJzgnLCAnLW1hJywgJzIwMCcsICctbWV0YWxfYmluZGluZycsICctaW1hZScsICc8aW5maWxlLm1hZT4nLCAnLW9tYWUnLCAnPG91dGZpbGUubWFlPic=

> <r_epik_Ionization_Penalty>
1.06112

> <r_epik_Ionization_Penalty_Charging>
2.1796e-09

> <r_epik_Ionization_Penalty_Neutral>
1.06112

> <r_epik_State_Penalty>
1.11484

> <r_epik_Charging_Adjusted_Penalty>
1.11484

> <i_epik_Tot_Q>
-1

> <i_epik_Tot_abs_Q>
1

> <r_epik_Metal_State_Penalty>
0.0032876

> <b_epik_Metal_Only>
0

> <s_epik_Chemistry_Notes>
This compound contains an acetal/aminal-like group ( X-CH(R)-Y where X, Y are N, S, or O) that may be acid/base labile, releasing an aldehyde.

> <s_lp_Force_Field>
OPLS_2005

> <r_lp_Energy>
39.1744

> <b_lp_Chiralities_Consistent>
1

> <s_lp_Variant>
AV-unprocessed.smi:35-26

> <Gold.Version>
5.8.1

> <Gold.Id.Protein>
6NUR|6NUR_protein|mol2

> <Gold.PLP.Fitness>
41.1536

> <Gold.PLP.PLP>
-24.2548

> <Gold.PLP.part.hbond>
-6.9789

> <Gold.PLP.part.metal>
0.0000

> <Gold.PLP.part.buried>
-3.1451

> <Gold.PLP.part.nonpolar>
-17.8010

> <Gold.PLP.part.repulsive>
4.0505

> <Gold.PLP.ligand.clash>
0.0000

> <Gold.PLP.ligand.torsion>
0.3053

> <Gold.PLP.Chemscore.Hbond>
5.8160

> <Gold.PLP.Chemscore.CHOScore>
0.0000

> <Gold.PLP.Chemscore.Metal>
0.0000

> <Gold.Chemscore.Hbonds>
donor molecule, donor type, donor heavy atom, donor atom, acceptor molecule, acceptor atom, score
      L1  H    11    23       P1  7957  1.00
      L1  H    13    25       P1 10175  1.00
      L1  H    15    27       P1  8028  1.00
      P1  H  7989  7998       L1     5  0.82
      P1  H  8011  8017       L1     8  1.00
      P1  H 10752 10765       L1     1  1.00

> <Gold.PLP.Chemscore.Internal.Correction>
0.0615

> <Gold.Rescore>
     Score         DG    S(hbond)    S(metal)    S(lipo)     H(rot)  DE(clash)    DE(int)     intcor
     13.10     -16.32       4.81        0.00      34.78       3.63       1.87       1.35       ----

> <Gold.Chemscore.Fitness>
13.0975

> <Gold.Chemscore.DG>
-16.3229

> <Gold.Chemscore.ZeroCoef>
-5.4800

> <Gold.Chemscore.Hbond>
4.8074

> <Gold.Chemscore.Metal>
0.0000

> <Gold.Chemscore.Lipo>
34.7788

> <Gold.Chemscore.Internal_Hbond>
0.0000

> <Gold.Chemscore.DEClash>
1.8713

> <Gold.Chemscore.DEInternal>
1.3541

> <Gold.Chemscore.Rot>
3.6261

> <Gold.Chemscore.Internal.Correction>
   9.000000E+99

> <Gold.Chemscore.Hbonds>
donor molecule, donor type, donor heavy atom, donor atom, acceptor molecule, acceptor atom, score
      L1  H    11    23       P1  7957  0.94
      L1  H    13    25       P1 10175  0.57
      L1  H    15    27       P1  8028  0.69
      P1  H  7989  7998       L1     5  0.40
      P1  H  8011  8017       L1     8  0.76
      P1  H 10752 10765       L1     1  0.97

> <Gold.Chemscore.Hbond.Weighted>
-16.0566

> <Gold.Chemscore.Metal.Weighted>
-0.0000

> <Gold.Chemscore.Lipo.Weighted>
-4.0691

> <Gold.Chemscore.Internal_Hbond.Weighted>
0.0000

> <Gold.Chemscore.DEClash.Weighted>
1.8713

> <Gold.Chemscore.DEInternal.Weighted>
1.3541

> <Gold.Chemscore.Rot.Weighted>
9.2828

> <Gold.Chemscore.Internal.Correction.Weighted>
   9.000000E+99

> <Gold.Protein.RotatedTorsions>
[ 6907 6896 6895 6894 ] final  114.10 input  -60.11 | X-H torsion
[ 7974 7965 7964 7962 ] final   59.22 input  175.53 | X-H torsion
[ 8008 7997 7996 7995 ] final  -35.56 input   59.86 | X-H torsion
[ 10167 10162 10161 10158 ] final  -25.74 input  -65.29 | X-H torsion
[ 10718 10713 10712 10709 ] final  -66.48 input   66.30 | X-H torsion
[ 10763 10752 10751 10750 ] final -166.88 input  -60.55 | X-H torsion
[ 11005 11000 10999 10996 ] final  -58.96 input  -57.11 | X-H torsion

> <Gold.Protein.ActiveResidues>
 VAL166  LYS551  ARG553  GLY616  TRP617  ASP618  TYR619  PRO620  LYS621  CYS622 
 ASP623  PHE694  ASN695  SER759  ASP760  ASP761  ALA762  ILE779  LEU786  VAL792 
 PHE793  MET794  SER795  GLU796  ALA797  LYS798  CYS799  TRP800  GLU811  SER814 

> <Gold.Protein.RotatedAtoms>
  152.4822  133.8283  159.7089 H   0  0  0  0  0  0  0  0  0  0  0  0  # atno 6907 bound_to 6896
  150.8881  133.7271  159.2919 H   0  0  0  0  0  0  0  0  0  0  0  0  # atno 6908 bound_to 6896
  151.4753  135.1052  159.9815 H   0  0  0  0  0  0  0  0  0  0  0  0  # atno 6909 bound_to 6896
  145.9095  139.3643  143.0544 H   0  0  0  0  0  0  0  0  0  0  0  0  # atno 7974 bound_to 7965
  154.4092  140.1654  156.2232 H   0  0  0  0  0  0  0  0  0  0  0  0  # atno 8008 bound_to 7997
  155.9346  140.3412  155.6254 H   0  0  0  0  0  0  0  0  0  0  0  0  # atno 8009 bound_to 7997
  155.7064  140.0751  157.2380 H   0  0  0  0  0  0  0  0  0  0  0  0  # atno 8010 bound_to 7997
  140.7285  143.4239  151.0908 H   0  0  0  0  0  0  0  0  0  0  0  0  # atno 10167 bound_to 10162
  156.0610  130.4262  150.1714 H   0  0  0  0  0  0  0  0  0  0  0  0  # atno 10718 bound_to 10713
  154.6789  135.2951  154.9641 H   0  0  0  0  0  0  0  0  0  0  0  0  # atno 10763 bound_to 10752
  154.0643  135.6627  153.4820 H   0  0  0  0  0  0  0  0  0  0  0  0  # atno 10764 bound_to 10752
  153.0534  135.5159  154.7821 H   0  0  0  0  0  0  0  0  0  0  0  0  # atno 10765 bound_to 10752
  141.1229  133.6614  156.5000 H   0  0  0  0  0  0  0  0  0  0  0  0  # atno 11005 bound_to 11000
  145.8689  140.9431  143.0661 LP  0  0  0  0  0  0  0  0  0  0  0  0  # atno 17320 bound_to 7965
  144.6742  140.0628  143.7475 LP  0  0  0  0  0  0  0  0  0  0  0  0  # atno 17321 bound_to 7965
  139.7888  143.8249  152.3149 LP  0  0  0  0  0  0  0  0  0  0  0  0  # atno 17342 bound_to 10162
  139.8226  144.7289  150.9553 LP  0  0  0  0  0  0  0  0  0  0  0  0  # atno 17343 bound_to 10162
  156.9782  130.9856  151.3443 LP  0  0  0  0  0  0  0  0  0  0  0  0  # atno 17370 bound_to 10713
  157.5619  130.8251  149.8277 LP  0  0  0  0  0  0  0  0  0  0  0  0  # atno 17371 bound_to 10713
  140.4454  134.6978  157.5013 LP  0  0  0  0  0  0  0  0  0  0  0  0  # atno 17394 bound_to 11000
  140.0201  134.6560  155.9252 LP  0  0  0  0  0  0  0  0  0  0  0  0  # atno 17395 bound_to 11000

$$$$
