AV-unprocessed.smi:240|AV-procd|sdf|1838|dock7
  -GOLD-   2262020453D 1   1.00000     0.00000
 Structure written by MMmdl.
 55 59  0  0  0  0  0  0  0  0  1 V2000
  148.0489  138.4261  152.3852 O   0  0  0  0  0  0  0  0  0  0  0  0
  147.5176  138.7181  153.6648 C   0  0  2  0  0  0  0  0  0  0  0  0
  146.8314  140.0871  153.6058 C   0  0  0  0  0  0  0  0  0  0  0  0
  147.9022  141.1173  153.9838 C   0  0  0  0  0  0  0  0  0  0  0  0
  149.1354  140.3140  154.4132 C   0  0  0  0  0  0  0  0  0  0  0  0
  148.6385  138.8881  154.7150 C   0  0  2  0  0  0  0  0  0  0  0  0
  149.7541  137.7892  154.7710 C   0  0  1  0  0  0  0  0  0  0  0  0
  151.0246  138.3356  155.4751 C   0  0  0  0  0  0  0  0  0  0  0  0
  152.0338  137.3380  155.5721 O   0  0  0  0  0  0  0  0  0  0  0  0
  151.6070  136.2321  156.3517 C   0  0  0  0  0  0  0  0  0  0  0  0
  150.4053  135.5862  155.6555 C   0  0  0  0  0  0  0  0  0  0  0  0
  149.3365  136.5639  155.4743 N   0  0  0  0  0  0  0  0  0  0  0  0
  148.2123  135.9524  155.0441 C   0  0  0  0  0  0  0  0  0  0  0  0
  147.0333  136.5564  155.3309 N   0  0  0  0  0  0  0  0  0  0  0  0
  145.8860  136.0058  154.9227 C   0  0  0  0  0  0  0  0  0  0  0  0
  145.6996  134.8774  154.2342 N   0  0  0  0  0  0  0  0  0  0  0  0
  146.8846  134.2595  153.9599 C   0  0  0  0  0  0  0  0  0  0  0  0
  148.1788  134.7243  154.3252 C   0  0  0  0  0  0  0  0  0  0  0  0
  149.1483  133.8421  153.8649 N   0  0  0  0  0  0  0  0  0  0  0  0
  148.4656  132.9103  153.2577 C   0  0  0  0  0  0  0  0  0  0  0  0
  147.0984  133.0740  153.2780 N   0  0  0  0  0  0  0  0  0  0  0  0
  146.1051  132.1931  152.6813 C   0  0  0  0  0  0  0  0  0  0  0  0
  145.7645  132.5225  151.2047 C   0  0  2  0  0  0  0  0  0  0  0  0
  146.9466  132.9047  150.5260 O   0  0  0  0  0  0  0  0  0  0  0  0
  144.7120  133.6207  151.0308 C   0  0  0  0  0  0  0  0  0  0  0  0
  143.4371  132.8367  150.7553 C   0  0  0  0  0  0  0  0  0  0  0  0
  143.9044  131.7815  149.9351 O   0  0  0  0  0  0  0  0  0  0  0  0
  145.1283  131.3137  150.4878 C   0  0  0  0  0  0  0  0  0  0  0  0
  148.5968  139.1475  152.1145 H   0  0  0  0  0  0  0  0  0  0  0  0
  146.7943  137.9493  153.9310 H   0  0  0  0  0  0  0  0  0  0  0  0
  146.3772  140.2916  152.6352 H   0  0  0  0  0  0  0  0  0  0  0  0
  146.0303  140.1203  154.3453 H   0  0  0  0  0  0  0  0  0  0  0  0
  148.1399  141.7741  153.1464 H   0  0  0  0  0  0  0  0  0  0  0  0
  147.5458  141.7454  154.8010 H   0  0  0  0  0  0  0  0  0  0  0  0
  149.8501  140.2899  153.5891 H   0  0  0  0  0  0  0  0  0  0  0  0
  149.6339  140.7733  155.2673 H   0  0  0  0  0  0  0  0  0  0  0  0
  148.1654  138.9280  155.6981 H   0  0  0  0  0  0  0  0  0  0  0  0
  150.0426  137.5185  153.7550 H   0  0  0  0  0  0  0  0  0  0  0  0
  151.4554  139.1640  154.9136 H   0  0  0  0  0  0  0  0  0  0  0  0
  150.7859  138.7165  156.4698 H   0  0  0  0  0  0  0  0  0  0  0  0
  152.4248  135.5165  156.4358 H   0  0  0  0  0  0  0  0  0  0  0  0
  151.3526  136.5520  157.3636 H   0  0  0  0  0  0  0  0  0  0  0  0
  150.7156  135.1898  154.6881 H   0  0  0  0  0  0  0  0  0  0  0  0
  150.0466  134.7438  156.2493 H   0  0  0  0  0  0  0  0  0  0  0  0
  144.9887  136.5477  155.1831 H   0  0  0  0  0  0  0  0  0  0  0  0
  148.9449  132.0691  152.7783 H   0  0  0  0  0  0  0  0  0  0  0  0
  146.4716  131.1685  152.7599 H   0  0  0  0  0  0  0  0  0  0  0  0
  145.2029  132.2395  153.2928 H   0  0  0  0  0  0  0  0  0  0  0  0
  147.5730  132.2005  150.5950 H   0  0  0  0  0  0  0  0  0  0  0  0
  144.6120  134.2924  151.8815 H   0  0  0  0  0  0  0  0  0  0  0  0
  144.9361  134.2366  150.1580 H   0  0  0  0  0  0  0  0  0  0  0  0
  143.0146  132.4340  151.6774 H   0  0  0  0  0  0  0  0  0  0  0  0
  142.6742  133.4319  150.2530 H   0  0  0  0  0  0  0  0  0  0  0  0
  145.7615  130.8908  149.7068 H   0  0  0  0  0  0  0  0  0  0  0  0
  144.9010  130.5116  151.1915 H   0  0  0  0  0  0  0  0  0  0  0  0
  1  2  1  0  0  0  0
  1 29  1  0  0  0  0
  2  6  1  0  0  0  0
  2  3  1  0  0  0  0
  2 30  1  0  0  0  0
  3  4  1  0  0  0  0
  3 31  1  0  0  0  0
  3 32  1  0  0  0  0
  4  5  1  0  0  0  0
  4 33  1  0  0  0  0
  4 34  1  0  0  0  0
  5  6  1  0  0  0  0
  5 35  1  0  0  0  0
  5 36  1  0  0  0  0
  6  7  1  0  0  0  0
  6 37  1  0  0  0  0
  7 12  1  0  0  0  0
  7  8  1  0  0  0  0
  7 38  1  0  0  0  0
  8  9  1  0  0  0  0
  8 39  1  0  0  0  0
  8 40  1  0  0  0  0
  9 10  1  0  0  0  0
 10 11  1  0  0  0  0
 10 41  1  0  0  0  0
 10 42  1  0  0  0  0
 11 12  1  0  0  0  0
 11 43  1  0  0  0  0
 11 44  1  0  0  0  0
 12 13  1  0  0  0  0
 13 18  1  0  0  0  0
 13 14  2  0  0  0  0
 14 15  1  0  0  0  0
 15 16  2  0  0  0  0
 15 45  1  0  0  0  0
 16 17  1  0  0  0  0
 17 21  1  0  0  0  0
 17 18  2  0  0  0  0
 18 19  1  0  0  0  0
 19 20  2  0  0  0  0
 20 21  1  0  0  0  0
 20 46  1  0  0  0  0
 21 22  1  0  0  0  0
 22 23  1  0  0  0  0
 22 47  1  0  0  0  0
 22 48  1  0  0  0  0
 23 28  1  0  0  0  0
 23 24  1  0  0  0  0
 23 25  1  0  0  0  0
 24 49  1  0  0  0  0
 25 26  1  0  0  0  0
 25 50  1  0  0  0  0
 25 51  1  0  0  0  0
 26 27  1  0  0  0  0
 26 52  1  0  0  0  0
 26 53  1  0  0  0  0
 27 28  1  0  0  0  0
 28 54  1  0  0  0  0
 28 55  1  0  0  0  0
M  END
> <s_m_source_file>
AV-unprocessed.smi

> <i_m_source_file_index>
240

> <i_lp_mmshare_version>
43012

> <i_f3d_flags>
0

> <s_epik_input>
W09IXVtDQEBIXTFbQ0gyXVtDSDJdW0NIMl1bQ0BIXTFbQ0BASF0yW0NIMl1PW0NIMl1bQ0gyXU4yYyhuW2NIXW4zKWMoYzM0KW5bY0hdbjRbQ0gyXVtDQEBdNShbT0hdKVtDSDJdW0NIMl1PW0NIMl01

> <s_epik_cmdline>
J2VwaWtfcHl0aG9uJywgJy1waCcsICc3LjAnLCAnLXRuJywgJzgnLCAnLW1hJywgJzIwMCcsICctbWV0YWxfYmluZGluZycsICctaW1hZScsICc8aW5maWxlLm1hZT4nLCAnLW9tYWUnLCAnPG91dGZpbGUubWFlPic=

> <r_lp_tautomer_probability>
1

> <r_epik_Ionization_Penalty>
0.000130618

> <r_epik_Ionization_Penalty_Charging>
0

> <r_epik_Ionization_Penalty_Neutral>
0.000130618

> <r_epik_State_Penalty>
-0

> <r_epik_Charging_Adjusted_Penalty>
0

> <i_epik_Tot_Q>
0

> <i_epik_Tot_abs_Q>
0

> <r_epik_Metal_State_Penalty>
-0

> <b_epik_Metal_Only>
0

> <s_lp_Force_Field>
OPLS_2005

> <r_lp_Energy>
64.4166

> <b_lp_Chiralities_Consistent>
1

> <s_lp_Variant>
AV-unprocessed.smi:240-15

> <Gold.Version>
5.8.1

> <Gold.Id.Protein>
6NUR|6NUR_protein|mol2

> <Gold.PLP.Fitness>
42.6557

> <Gold.PLP.PLP>
-36.5228

> <Gold.PLP.part.hbond>
-4.5483

> <Gold.PLP.part.metal>
0.0000

> <Gold.PLP.part.buried>
-3.6600

> <Gold.PLP.part.nonpolar>
-29.9257

> <Gold.PLP.part.repulsive>
1.1924

> <Gold.PLP.ligand.clash>
0.6114

> <Gold.PLP.ligand.torsion>
1.5607

> <Gold.PLP.Chemscore.Hbond>
2.5988

> <Gold.PLP.Chemscore.CHOScore>
0.5758

> <Gold.PLP.Chemscore.Metal>
0.0000

> <Gold.Chemscore.Hbonds>
donor molecule, donor type, donor heavy atom, donor atom, acceptor molecule, acceptor atom, score
      L1  H     1    29       P1  7957  1.00
      L1  H    24    49       P1 10747  1.00
      P1  H 10785 10796       L1    27  0.57
      L1  C    20    46       P1 10747  0.44

> <Gold.PLP.Chemscore.Internal.Correction>
0.3419

> <Gold.Rescore>
     Score         DG    S(hbond)    S(metal)    S(lipo)     H(rot)  DE(clash)    DE(int)     intcor
     10.66     -16.39       2.43        0.00      89.57       3.00       0.04       5.70       ----

> <Gold.Chemscore.Fitness>
10.6575

> <Gold.Chemscore.DG>
-16.3931

> <Gold.Chemscore.ZeroCoef>
-5.4800

> <Gold.Chemscore.Hbond>
2.4320

> <Gold.Chemscore.Metal>
0.0000

> <Gold.Chemscore.Lipo>
89.5738

> <Gold.Chemscore.Internal_Hbond>
0.0000

> <Gold.Chemscore.DEClash>
0.0370

> <Gold.Chemscore.DEInternal>
5.6987

> <Gold.Chemscore.Rot>
3.0039

> <Gold.Chemscore.Internal.Correction>
   9.000000E+99

> <Gold.Chemscore.Hbonds>
donor molecule, donor type, donor heavy atom, donor atom, acceptor molecule, acceptor atom, score
      L1  H     1    29       P1  7957  0.98
      L1  H    24    49       P1 10747  0.99
      P1  H 10785 10796       L1    27  0.25

> <Gold.Chemscore.Hbond.Weighted>
-8.1229

> <Gold.Chemscore.Metal.Weighted>
-0.0000

> <Gold.Chemscore.Lipo.Weighted>
-10.4801

> <Gold.Chemscore.Internal_Hbond.Weighted>
0.0000

> <Gold.Chemscore.DEClash.Weighted>
0.0370

> <Gold.Chemscore.DEInternal.Weighted>
5.6987

> <Gold.Chemscore.Rot.Weighted>
7.6899

> <Gold.Chemscore.Internal.Correction.Weighted>
   9.000000E+99

> <Gold.Protein.RotatedTorsions>
[ 6907 6896 6895 6894 ] final  -15.82 input  -60.11 | X-H torsion
[ 7974 7965 7964 7962 ] final -145.40 input  175.53 | X-H torsion
[ 8008 7997 7996 7995 ] final   80.97 input   59.86 | X-H torsion
[ 10167 10162 10161 10158 ] final  133.64 input  -65.29 | X-H torsion
[ 10718 10713 10712 10709 ] final   62.40 input   66.30 | X-H torsion
[ 10763 10752 10751 10750 ] final   12.42 input  -60.55 | X-H torsion
[ 11005 11000 10999 10996 ] final  -23.88 input  -57.11 | X-H torsion

> <Gold.Protein.ActiveResidues>
 VAL166  LYS551  ARG553  GLY616  TRP617  ASP618  TYR619  PRO620  LYS621  CYS622 
 ASP623  PHE694  ASN695  SER759  ASP760  ASP761  ALA762  ILE779  LEU786  VAL792 
 PHE793  MET794  SER795  GLU796  ALA797  LYS798  CYS799  TRP800  GLU811  SER814 

> <Gold.Protein.RotatedAtoms>
  151.3181  135.0811  159.9295 H   0  0  0  0  0  0  0  0  0  0  0  0  # atno 6907 bound_to 6896
  152.5263  133.9667  159.7753 H   0  0  0  0  0  0  0  0  0  0  0  0  # atno 6908 bound_to 6896
  150.9983  133.6029  159.2728 H   0  0  0  0  0  0  0  0  0  0  0  0  # atno 6909 bound_to 6896
  144.8230  140.5588  143.5566 H   0  0  0  0  0  0  0  0  0  0  0  0  # atno 7974 bound_to 7965
  155.8908  140.3439  155.5954 H   0  0  0  0  0  0  0  0  0  0  0  0  # atno 8008 bound_to 7997
  155.7613  140.0833  157.2173 H   0  0  0  0  0  0  0  0  0  0  0  0  # atno 8009 bound_to 7997
  154.4033  140.1535  156.2823 H   0  0  0  0  0  0  0  0  0  0  0  0  # atno 8010 bound_to 7997
  139.5289  144.6606  151.5024 H   0  0  0  0  0  0  0  0  0  0  0  0  # atno 10167 bound_to 10162
  157.5898  130.9048  149.9583 H   0  0  0  0  0  0  0  0  0  0  0  0  # atno 10718 bound_to 10713
  153.1824  135.6830  153.8460 H   0  0  0  0  0  0  0  0  0  0  0  0  # atno 10763 bound_to 10752
  153.7787  135.3185  155.3364 H   0  0  0  0  0  0  0  0  0  0  0  0  # atno 10764 bound_to 10752
  154.8068  135.4743  154.0508 H   0  0  0  0  0  0  0  0  0  0  0  0  # atno 10765 bound_to 10752
  140.8793  133.7665  156.0283 H   0  0  0  0  0  0  0  0  0  0  0  0  # atno 11005 bound_to 11000
  145.5062  139.1481  143.3630 LP  0  0  0  0  0  0  0  0  0  0  0  0  # atno 17320 bound_to 7965
  146.2536  140.5203  142.8883 LP  0  0  0  0  0  0  0  0  0  0  0  0  # atno 17321 bound_to 7965
  140.6453  143.8808  150.6731 LP  0  0  0  0  0  0  0  0  0  0  0  0  # atno 17342 bound_to 10162
  140.2155  143.3850  152.1684 LP  0  0  0  0  0  0  0  0  0  0  0  0  # atno 17343 bound_to 10162
  156.0951  130.3660  150.0322 LP  0  0  0  0  0  0  0  0  0  0  0  0  # atno 17370 bound_to 10713
  156.8447  130.9438  151.3629 LP  0  0  0  0  0  0  0  0  0  0  0  0  # atno 17371 bound_to 10713
  140.8480  134.2988  157.5287 LP  0  0  0  0  0  0  0  0  0  0  0  0  # atno 17394 bound_to 11000
  139.8718  134.9452  156.3903 LP  0  0  0  0  0  0  0  0  0  0  0  0  # atno 17395 bound_to 11000

$$$$
