AV-unprocessed.smi:39|AV-procd|sdf|366|dock5
  -GOLD-   2262016203D 1   1.00000     0.00000
 Structure written by MMmdl.
 31 32  0  0  0  0  0  0  0  0  4 V2000
  151.6328  144.3051  157.8005 C   0  0  0  0  0  0  0  0  0  0  0  0
  151.8398  142.8520  158.1910 C   0  0  0  0  0  0  0  0  0  0  0  0
  151.4823  141.8301  157.3818 C   0  0  0  0  0  0  0  0  0  0  0  0
  151.6755  140.5056  157.7395 N   0  0  0  0  0  0  0  0  0  0  0  0
  151.2628  139.3656  156.8292 C   0  0  2  0  0  0  0  0  0  0  0  0
  151.9973  139.4334  155.4821 C   0  0  0  0  0  0  0  0  0  0  0  0
  150.9117  139.0420  154.4931 C   0  0  1  0  0  0  0  0  0  0  0  0
  150.7928  137.5844  154.3672 N   0  0  0  0  0  0  0  0  0  0  0  0
  151.4742  136.9031  155.1446 N   0  3  0  0  0  0  0  0  0  0  0  0
  151.9923  136.2318  155.9034 N   0  5  0  0  0  0  0  0  0  0  0  0
  149.6598  139.6349  155.1509 C   0  0  2  0  0  0  0  0  0  0  0  0
  149.4682  141.1326  154.8377 C   0  0  0  0  0  0  0  0  0  0  0  0
  149.2545  141.3173  153.4547 O   0  0  0  0  0  0  0  0  0  0  0  0
  149.8931  139.4503  156.5480 O   0  0  0  0  0  0  0  0  0  0  0  0
  152.2271  140.2004  159.0120 C   0  0  0  0  0  0  0  0  0  0  0  0
  152.3467  139.0146  159.3211 O   0  0  0  0  0  0  0  0  0  0  0  0
  152.5970  141.2249  159.8321 N   0  5  0  0  0  0  0  0  0  0  0  0
  152.4433  142.5362  159.4909 C   0  0  0  0  0  0  0  0  0  0  0  0
  152.7917  143.4514  160.2362 O   0  0  0  0  0  0  0  0  0  0  0  0
  151.4591  138.4522  157.3932 H   0  0  0  0  0  0  0  0  0  0  0  0
  151.0896  139.4921  153.5144 H   0  0  0  0  0  0  0  0  0  0  0  0
  148.7690  139.0855  154.8420 H   0  0  0  0  0  0  0  0  0  0  0  0
  151.1755  144.3898  156.8144 H   0  0  0  0  0  0  0  0  0  0  0  0
  152.5866  144.8329  157.7767 H   0  0  0  0  0  0  0  0  0  0  0  0
  150.9808  144.8026  158.5191 H   0  0  0  0  0  0  0  0  0  0  0  0
  151.0320  142.0706  156.4311 H   0  0  0  0  0  0  0  0  0  0  0  0
  152.3252  140.4567  155.2930 H   0  0  0  0  0  0  0  0  0  0  0  0
  152.8718  138.7818  155.4739 H   0  0  0  0  0  0  0  0  0  0  0  0
  148.6513  141.5721  155.4094 H   0  0  0  0  0  0  0  0  0  0  0  0
  150.3700  141.6870  155.0975 H   0  0  0  0  0  0  0  0  0  0  0  0
  149.1880  140.4682  153.0455 H   0  0  0  0  0  0  0  0  0  0  0  0
  1  2  1  0  0  0  0
  1 23  1  0  0  0  0
  1 24  1  0  0  0  0
  1 25  1  0  0  0  0
  2 18  1  0  0  0  0
  2  3  2  0  0  0  0
  3  4  1  0  0  0  0
  3 26  1  0  0  0  0
  4  5  1  0  0  0  0
  4 15  1  0  0  0  0
  5 20  1  0  0  0  0
  5 14  1  0  0  0  0
  5  6  1  0  0  0  0
  6  7  1  0  0  0  0
  6 27  1  0  0  0  0
  6 28  1  0  0  0  0
  7 21  1  0  0  0  0
  7  8  1  0  0  0  0
  7 11  1  0  0  0  0
  8  9  2  0  0  0  0
  9 10  2  0  0  0  0
 11 22  1  0  0  0  0
 11 12  1  0  0  0  0
 11 14  1  0  0  0  0
 12 13  1  0  0  0  0
 12 29  1  0  0  0  0
 12 30  1  0  0  0  0
 13 31  1  0  0  0  0
 15 16  2  0  0  0  0
 15 17  1  0  0  0  0
 17 18  1  0  0  0  0
 18 19  2  0  0  0  0
M  CHG  1   9   1
M  CHG  1  10  -1
M  CHG  1  17  -1
M  END
> <s_m_source_file>
AV-unprocessed.smi

> <i_m_source_file_index>
39

> <i_lp_mmshare_version>
43012

> <i_f3d_flags>
0

> <s_epik_input>
Tz1jMVtuSF1jKD1PKW4oW2NIXWMxW0NIM10pW0NASF0yW0NIMl1bQ0BIXShOPVtOK109W04tXSlbQ0BIXShPMilbQ0gyXVtPSF0=

> <s_epik_cmdline>
J2VwaWtfcHl0aG9uJywgJy1waCcsICc3LjAnLCAnLXRuJywgJzgnLCAnLW1hJywgJzIwMCcsICctbWV0YWxfYmluZGluZycsICctaW1hZScsICc8aW5maWxlLm1hZT4nLCAnLW9tYWUnLCAnPG91dGZpbGUubWFlPic=

> <r_lp_tautomer_probability>
0.999537

> <r_epik_Ionization_Penalty>
3.6393

> <r_epik_Ionization_Penalty_Charging>
9.76484e-08

> <r_epik_Ionization_Penalty_Neutral>
3.6393

> <r_epik_State_Penalty>
3.63887

> <r_epik_Charging_Adjusted_Penalty>
3.63887

> <i_epik_Tot_Q>
-1

> <i_epik_Tot_abs_Q>
3

> <r_epik_Metal_State_Penalty>
0.225911

> <b_epik_Metal_Only>
1

> <s_epik_Chemistry_Notes>
This compound contains an acetal/aminal-like group ( X-CH(R)-Y where X, Y are N, S, or O) that may be acid/base labile, releasing an aldehyde.

> <s_lp_Force_Field>
OPLS_2005

> <r_lp_Energy>
37.4001

> <b_lp_Chiralities_Consistent>
1

> <s_lp_Variant>
AV-unprocessed.smi:39-16

> <Gold.Version>
5.8.1

> <Gold.Id.Protein>
6NUR|6NUR_protein|mol2

> <Gold.PLP.Fitness>
42.6645

> <Gold.PLP.PLP>
-35.4238

> <Gold.PLP.part.hbond>
-4.9213

> <Gold.PLP.part.metal>
0.0000

> <Gold.PLP.part.buried>
-6.0832

> <Gold.PLP.part.nonpolar>
-25.0212

> <Gold.PLP.part.repulsive>
0.3343

> <Gold.PLP.ligand.clash>
0.0000

> <Gold.PLP.ligand.torsion>
0.1096

> <Gold.PLP.Chemscore.Hbond>
2.4724

> <Gold.PLP.Chemscore.CHOScore>
0.0000

> <Gold.PLP.Chemscore.Metal>
0.0000

> <Gold.Chemscore.Hbonds>
donor molecule, donor type, donor heavy atom, donor atom, acceptor molecule, acceptor atom, score
      L1  H    13    31       P1  7957  0.51
      P1  H  8011  8017       L1    13  0.98
      P1  H 10752 10765       L1    10  1.00

> <Gold.PLP.Chemscore.Internal.Correction>
0.0428

> <Gold.Rescore>
     Score         DG    S(hbond)    S(metal)    S(lipo)     H(rot)  DE(clash)    DE(int)     intcor
     11.01     -12.25       2.01        0.00      59.97       2.72       0.03       1.22       ----

> <Gold.Chemscore.Fitness>
11.0086

> <Gold.Chemscore.DG>
-12.2543

> <Gold.Chemscore.ZeroCoef>
-5.4800

> <Gold.Chemscore.Hbond>
2.0087

> <Gold.Chemscore.Metal>
0.0000

> <Gold.Chemscore.Lipo>
59.9698

> <Gold.Chemscore.Internal_Hbond>
0.0000

> <Gold.Chemscore.DEClash>
0.0266

> <Gold.Chemscore.DEInternal>
1.2192

> <Gold.Chemscore.Rot>
2.7153

> <Gold.Chemscore.Internal.Correction>
   9.000000E+99

> <Gold.Chemscore.Hbonds>
donor molecule, donor type, donor heavy atom, donor atom, acceptor molecule, acceptor atom, score
      L1  H    13    31       P1  7957  0.51
      P1  H  8011  8017       L1    13  0.65
      P1  H 10752 10765       L1    10  0.72

> <Gold.Chemscore.Hbond.Weighted>
-6.7091

> <Gold.Chemscore.Metal.Weighted>
-0.0000

> <Gold.Chemscore.Lipo.Weighted>
-7.0165

> <Gold.Chemscore.Internal_Hbond.Weighted>
0.0000

> <Gold.Chemscore.DEClash.Weighted>
0.0266

> <Gold.Chemscore.DEInternal.Weighted>
1.2192

> <Gold.Chemscore.Rot.Weighted>
6.9512

> <Gold.Chemscore.Internal.Correction.Weighted>
   9.000000E+99

> <Gold.Protein.RotatedTorsions>
[ 6907 6896 6895 6894 ] final -146.32 input  -60.11 | X-H torsion
[ 7974 7965 7964 7962 ] final -143.98 input  175.53 | X-H torsion
[ 8008 7997 7996 7995 ] final  -27.05 input   59.86 | X-H torsion
[ 10167 10162 10161 10158 ] final -151.56 input  -65.29 | X-H torsion
[ 10718 10713 10712 10709 ] final  -44.16 input   66.30 | X-H torsion
[ 10763 10752 10751 10750 ] final -137.91 input  -60.55 | X-H torsion
[ 11005 11000 10999 10996 ] final   11.92 input  -57.11 | X-H torsion

> <Gold.Protein.ActiveResidues>
 VAL166  LYS551  ARG553  GLY616  TRP617  ASP618  TYR619  PRO620  LYS621  CYS622 
 ASP623  PHE694  ASN695  SER759  ASP760  ASP761  ALA762  ILE779  LEU786  VAL792 
 PHE793  MET794  SER795  GLU796  ALA797  LYS798  CYS799  TRP800  GLU811  SER814 

> <Gold.Protein.RotatedAtoms>
  151.1400  133.4978  159.2596 H   0  0  0  0  0  0  0  0  0  0  0  0  # atno 6907 bound_to 6896
  151.1666  135.0298  159.8743 H   0  0  0  0  0  0  0  0  0  0  0  0  # atno 6908 bound_to 6896
  152.5462  134.1267  159.8475 H   0  0  0  0  0  0  0  0  0  0  0  0  # atno 6909 bound_to 6896
  144.8330  140.5767  143.5502 H   0  0  0  0  0  0  0  0  0  0  0  0  # atno 7974 bound_to 7965
  154.4395  140.1883  156.0871 H   0  0  0  0  0  0  0  0  0  0  0  0  # atno 8008 bound_to 7997
  156.0394  140.3321  155.7200 H   0  0  0  0  0  0  0  0  0  0  0  0  # atno 8009 bound_to 7997
  155.5722  140.0613  157.2794 H   0  0  0  0  0  0  0  0  0  0  0  0  # atno 8010 bound_to 7997
  139.7257  143.8888  152.2518 H   0  0  0  0  0  0  0  0  0  0  0  0  # atno 10167 bound_to 10162
  156.2415  130.4180  149.8755 H   0  0  0  0  0  0  0  0  0  0  0  0  # atno 10718 bound_to 10713
  154.8650  135.3628  154.5299 H   0  0  0  0  0  0  0  0  0  0  0  0  # atno 10763 bound_to 10752
  153.5925  135.7015  153.5422 H   0  0  0  0  0  0  0  0  0  0  0  0  # atno 10764 bound_to 10752
  153.3361  135.4111  155.1496 H   0  0  0  0  0  0  0  0  0  0  0  0  # atno 10765 bound_to 10752
  140.4977  134.0776  155.7786 H   0  0  0  0  0  0  0  0  0  0  0  0  # atno 11005 bound_to 11000
  145.4855  139.1492  143.3738 LP  0  0  0  0  0  0  0  0  0  0  0  0  # atno 17320 bound_to 7965
  146.2631  140.4992  142.8845 LP  0  0  0  0  0  0  0  0  0  0  0  0  # atno 17321 bound_to 7965
  139.8796  144.7025  150.8893 LP  0  0  0  0  0  0  0  0  0  0  0  0  # atno 17342 bound_to 10162
  140.7762  143.3672  151.1717 LP  0  0  0  0  0  0  0  0  0  0  0  0  # atno 17343 bound_to 10162
  156.6335  130.8675  151.3500 LP  0  0  0  0  0  0  0  0  0  0  0  0  # atno 17370 bound_to 10713
  157.7177  130.9518  150.1318 LP  0  0  0  0  0  0  0  0  0  0  0  0  # atno 17371 bound_to 10713
  141.1451  133.9069  157.2234 LP  0  0  0  0  0  0  0  0  0  0  0  0  # atno 17394 bound_to 11000
  139.9731  135.0122  156.9563 LP  0  0  0  0  0  0  0  0  0  0  0  0  # atno 17395 bound_to 11000

$$$$
