AV-unprocessed.smi:748|AV-procd|sdf|3582|dock6
  -GOLD-   22720 0573D 1   1.00000     0.00000
 Structure written by MMmdl.
 50 51  0  0  0  0  0  0  0  0  1 V2000
  146.7221  132.6666  161.7231 C   0  0  0  0  0  0  0  0  0  0  0  0
  146.1030  134.0113  162.1381 C   0  0  0  0  0  0  0  0  0  0  0  0
  144.5709  133.9764  162.0554 C   0  0  0  0  0  0  0  0  0  0  0  0
  146.6083  135.0931  161.2977 N   0  0  0  0  0  0  0  0  0  0  0  0
  146.2731  136.3884  161.4081 C   0  0  0  0  0  0  0  0  0  0  0  0
  145.4853  136.8142  162.2527 O   0  0  0  0  0  0  0  0  0  0  0  0
  146.9238  137.3484  160.4097 C   0  0  0  0  0  0  0  0  0  0  0  0
  148.1629  136.7350  159.7321 C   0  0  0  0  0  0  0  0  0  0  0  0
  148.7851  137.6813  158.8142 N   0  0  0  0  0  0  0  0  0  0  0  0
  148.7312  137.6070  157.4743 C   0  0  0  0  0  0  0  0  0  0  0  0
  148.1513  136.7058  156.8677 O   0  0  0  0  0  0  0  0  0  0  0  0
  149.4934  138.6699  156.7338 C   0  0  0  0  0  0  0  0  0  0  0  0
  149.6226  138.6417  155.3273 C   0  0  0  0  0  0  0  0  0  0  0  0
  150.3713  139.6551  154.7022 C   0  0  0  0  0  0  0  0  0  0  0  0
  150.9776  140.6522  155.3780 N   0  0  0  0  0  0  0  0  0  0  0  0
  150.8695  140.6909  156.7289 C   0  0  0  0  0  0  0  0  0  0  0  0
  151.5199  141.7361  157.4211 N   0  0  0  0  0  0  0  0  0  0  0  0
  151.1135  143.1103  157.1334 C   0  0  0  0  0  0  0  0  0  0  0  0
  152.1265  144.1028  157.7272 C   0  0  0  0  0  0  0  0  0  0  0  0
  152.2832  143.8521  159.1200 O   0  0  0  0  0  0  0  0  0  0  0  0
  152.7883  142.5444  159.3757 C   0  0  1  0  0  0  0  0  0  0  0  0
  153.0119  142.4015  160.8846 C   0  0  0  0  0  0  0  0  0  0  0  0
  151.7921  141.4993  158.8368 C   0  0  0  0  0  0  0  0  0  0  0  0
  150.1386  139.7092  157.4405 C   0  0  0  0  0  0  0  0  0  0  0  0
  146.3454  131.8546  162.3457 H   0  0  0  0  0  0  0  0  0  0  0  0
  147.8076  132.6792  161.8267 H   0  0  0  0  0  0  0  0  0  0  0  0
  146.4894  132.4254  160.6855 H   0  0  0  0  0  0  0  0  0  0  0  0
  146.3761  134.2149  163.1751 H   0  0  0  0  0  0  0  0  0  0  0  0
  144.1618  133.1969  162.6985 H   0  0  0  0  0  0  0  0  0  0  0  0
  144.2318  133.7791  161.0376 H   0  0  0  0  0  0  0  0  0  0  0  0
  144.1373  134.9252  162.3734 H   0  0  0  0  0  0  0  0  0  0  0  0
  147.2611  134.8348  160.5720 H   0  0  0  0  0  0  0  0  0  0  0  0
  146.1953  137.6389  159.6510 H   0  0  0  0  0  0  0  0  0  0  0  0
  147.1991  138.2594  160.9424 H   0  0  0  0  0  0  0  0  0  0  0  0
  148.8897  136.3999  160.4749 H   0  0  0  0  0  0  0  0  0  0  0  0
  147.8772  135.8522  159.1588 H   0  0  0  0  0  0  0  0  0  0  0  0
  149.3029  138.4451  159.2243 H   0  0  0  0  0  0  0  0  0  0  0  0
  149.1702  137.8636  154.7300 H   0  0  0  0  0  0  0  0  0  0  0  0
  150.4904  139.6632  153.6290 H   0  0  0  0  0  0  0  0  0  0  0  0
  151.0436  143.2692  156.0564 H   0  0  0  0  0  0  0  0  0  0  0  0
  150.1238  143.2893  157.5558 H   0  0  0  0  0  0  0  0  0  0  0  0
  153.0903  144.0246  157.2214 H   0  0  0  0  0  0  0  0  0  0  0  0
  151.7761  145.1254  157.5872 H   0  0  0  0  0  0  0  0  0  0  0  0
  153.7493  142.4279  158.8712 H   0  0  0  0  0  0  0  0  0  0  0  0
  153.4071  141.4158  161.1311 H   0  0  0  0  0  0  0  0  0  0  0  0
  152.0812  142.5370  161.4364 H   0  0  0  0  0  0  0  0  0  0  0  0
  153.7241  143.1445  161.2444 H   0  0  0  0  0  0  0  0  0  0  0  0
  150.8520  141.5571  159.3871 H   0  0  0  0  0  0  0  0  0  0  0  0
  152.1973  140.5036  159.0098 H   0  0  0  0  0  0  0  0  0  0  0  0
  150.0825  139.7377  158.5187 H   0  0  0  0  0  0  0  0  0  0  0  0
  1  2  1  0  0  0  0
  1 25  1  0  0  0  0
  1 26  1  0  0  0  0
  1 27  1  0  0  0  0
  2  3  1  0  0  0  0
  2  4  1  0  0  0  0
  2 28  1  0  0  0  0
  3 29  1  0  0  0  0
  3 30  1  0  0  0  0
  3 31  1  0  0  0  0
  4  5  1  0  0  0  0
  4 32  1  0  0  0  0
  5  6  2  0  0  0  0
  5  7  1  0  0  0  0
  7  8  1  0  0  0  0
  7 33  1  0  0  0  0
  7 34  1  0  0  0  0
  8  9  1  0  0  0  0
  8 35  1  0  0  0  0
  8 36  1  0  0  0  0
  9 10  1  0  0  0  0
  9 37  1  0  0  0  0
 10 11  2  0  0  0  0
 10 12  1  0  0  0  0
 12 24  1  0  0  0  0
 12 13  2  0  0  0  0
 13 14  1  0  0  0  0
 13 38  1  0  0  0  0
 14 15  2  0  0  0  0
 14 39  1  0  0  0  0
 15 16  1  0  0  0  0
 16 17  1  0  0  0  0
 16 24  2  0  0  0  0
 17 23  1  0  0  0  0
 17 18  1  0  0  0  0
 18 19  1  0  0  0  0
 18 40  1  0  0  0  0
 18 41  1  0  0  0  0
 19 20  1  0  0  0  0
 19 42  1  0  0  0  0
 19 43  1  0  0  0  0
 20 21  1  0  0  0  0
 21 22  1  0  0  0  0
 21 23  1  0  0  0  0
 21 44  1  0  0  0  0
 22 45  1  0  0  0  0
 22 46  1  0  0  0  0
 22 47  1  0  0  0  0
 23 48  1  0  0  0  0
 23 49  1  0  0  0  0
 24 50  1  0  0  0  0
M  END
> <s_m_source_file>
AV-unprocessed.smi

> <i_m_source_file_index>
748

> <i_lp_mmshare_version>
43012

> <i_f3d_flags>
0

> <s_epik_input>
W0NIM11bQ0hdKFtDSDNdKVtOSF1DKD1PKVtDSDJdW0NIMl1bTkhdQyg9TyljMVtjSF1bY0hdbmMoW2NIXTEpTjJbQ0gyXVtDSDJdT1tDQEBIXShbQ0gzXSlbQ0gyXTI=

> <s_epik_cmdline>
J2VwaWtfcHl0aG9uJywgJy1waCcsICc3LjAnLCAnLXRuJywgJzgnLCAnLW1hJywgJzIwMCcsICctbWV0YWxfYmluZGluZycsICctaW1hZScsICc8aW5maWxlLm1hZT4nLCAnLW9tYWUnLCAnPG91dGZpbGUubWFlPic=

> <r_lp_tautomer_probability>
1

> <r_epik_Ionization_Penalty>
1.38678e-05

> <r_epik_Ionization_Penalty_Charging>
0

> <r_epik_Ionization_Penalty_Neutral>
1.38678e-05

> <r_epik_State_Penalty>
-0

> <r_epik_Charging_Adjusted_Penalty>
0

> <i_epik_Tot_Q>
0

> <i_epik_Tot_abs_Q>
0

> <r_epik_Metal_State_Penalty>
-0

> <b_epik_Metal_Only>
0

> <s_lp_Force_Field>
OPLS_2005

> <r_lp_Energy>
16.8499

> <b_lp_Chiralities_Consistent>
1

> <s_lp_Variant>
AV-unprocessed.smi:748-1

> <Gold.Version>
5.8.1

> <Gold.Id.Protein>
6NUR|6NUR_protein|mol2

> <Gold.PLP.Fitness>
42.5208

> <Gold.PLP.PLP>
-40.2852

> <Gold.PLP.part.hbond>
-1.0000

> <Gold.PLP.part.metal>
0.0000

> <Gold.PLP.part.buried>
-3.0156

> <Gold.PLP.part.nonpolar>
-35.8178

> <Gold.PLP.part.repulsive>
0.3138

> <Gold.PLP.ligand.clash>
0.0000

> <Gold.PLP.ligand.torsion>
0.6146

> <Gold.PLP.Chemscore.Hbond>
0.0000

> <Gold.PLP.Chemscore.CHOScore>
0.9997

> <Gold.PLP.Chemscore.Metal>
0.0000

> <Gold.Chemscore.Hbonds>
donor molecule, donor type, donor heavy atom, donor atom, acceptor molecule, acceptor atom, score
      L1  C    14    39       P1  7957  0.73

> <Gold.PLP.Chemscore.Internal.Correction>
0.4658

> <Gold.Rescore>
     Score         DG    S(hbond)    S(metal)    S(lipo)     H(rot)  DE(clash)    DE(int)     intcor
     11.47     -13.30       0.00        0.00     107.74       1.87       0.11       1.72       ----

> <Gold.Chemscore.Fitness>
11.4720

> <Gold.Chemscore.DG>
-13.3002

> <Gold.Chemscore.ZeroCoef>
-5.4800

> <Gold.Chemscore.Hbond>
0.0000

> <Gold.Chemscore.Metal>
0.0000

> <Gold.Chemscore.Lipo>
107.7378

> <Gold.Chemscore.Internal_Hbond>
0.0000

> <Gold.Chemscore.DEClash>
0.1057

> <Gold.Chemscore.DEInternal>
1.7224

> <Gold.Chemscore.Rot>
1.8692

> <Gold.Chemscore.Internal.Correction>
   9.000000E+99

> <Gold.Chemscore.Hbond.Weighted>
-0.0000

> <Gold.Chemscore.Metal.Weighted>
-0.0000

> <Gold.Chemscore.Lipo.Weighted>
-12.6053

> <Gold.Chemscore.Internal_Hbond.Weighted>
0.0000

> <Gold.Chemscore.DEClash.Weighted>
0.1057

> <Gold.Chemscore.DEInternal.Weighted>
1.7224

> <Gold.Chemscore.Rot.Weighted>
4.7852

> <Gold.Chemscore.Internal.Correction.Weighted>
   9.000000E+99

> <Gold.Protein.RotatedTorsions>
[ 6907 6896 6895 6894 ] final  -96.32 input  -60.11 | X-H torsion
[ 7974 7965 7964 7962 ] final  -18.44 input  175.53 | X-H torsion
[ 8008 7997 7996 7995 ] final   93.56 input   59.86 | X-H torsion
[ 10167 10162 10161 10158 ] final   36.49 input  -65.29 | X-H torsion
[ 10718 10713 10712 10709 ] final  -63.29 input   66.30 | X-H torsion
[ 10763 10752 10751 10750 ] final  -94.77 input  -60.55 | X-H torsion
[ 11005 11000 10999 10996 ] final  -58.11 input  -57.11 | X-H torsion

> <Gold.Protein.ActiveResidues>
 VAL166  LYS551  ARG553  GLY616  TRP617  ASP618  TYR619  PRO620  LYS621  CYS622 
 ASP623  PHE694  ASN695  SER759  ASP760  ASP761  ALA762  ILE779  LEU786  VAL792 
 PHE793  MET794  SER795  GLU796  ALA797  LYS798  CYS799  TRP800  GLU811  SER814 

> <Gold.Protein.RotatedAtoms>
  150.6986  134.1521  159.4144 H   0  0  0  0  0  0  0  0  0  0  0  0  # atno 6907 bound_to 6896
  151.9503  135.0169  160.0551 H   0  0  0  0  0  0  0  0  0  0  0  0  # atno 6908 bound_to 6896
  152.2016  133.4810  159.5098 H   0  0  0  0  0  0  0  0  0  0  0  0  # atno 6909 bound_to 6896
  146.1892  140.3921  142.8464 H   0  0  0  0  0  0  0  0  0  0  0  0  # atno 7974 bound_to 7965
  156.0482  140.3311  155.7320 H   0  0  0  0  0  0  0  0  0  0  0  0  # atno 8008 bound_to 7997
  155.5642  140.0622  157.2839 H   0  0  0  0  0  0  0  0  0  0  0  0  # atno 8009 bound_to 7997
  154.4423  140.1872  156.0802 H   0  0  0  0  0  0  0  0  0  0  0  0  # atno 8010 bound_to 7997
  140.4123  144.1576  150.6140 H   0  0  0  0  0  0  0  0  0  0  0  0  # atno 10167 bound_to 10162
  156.0800  130.4219  150.1257 H   0  0  0  0  0  0  0  0  0  0  0  0  # atno 10718 bound_to 10713
  154.7086  135.5145  153.8633 H   0  0  0  0  0  0  0  0  0  0  0  0  # atno 10763 bound_to 10752
  153.0762  135.6617  154.0150 H   0  0  0  0  0  0  0  0  0  0  0  0  # atno 10764 bound_to 10752
  153.9996  135.3012  155.3383 H   0  0  0  0  0  0  0  0  0  0  0  0  # atno 10765 bound_to 10752
  141.1193  133.6611  156.4871 H   0  0  0  0  0  0  0  0  0  0  0  0  # atno 11005 bound_to 11000
  144.8454  140.6921  143.6202 LP  0  0  0  0  0  0  0  0  0  0  0  0  # atno 17320 bound_to 7965
  145.3845  139.1629  143.4262 LP  0  0  0  0  0  0  0  0  0  0  0  0  # atno 17321 bound_to 7965
  140.4624  143.2443  151.9201 LP  0  0  0  0  0  0  0  0  0  0  0  0  # atno 17342 bound_to 10162
  139.4782  144.5453  151.8467 LP  0  0  0  0  0  0  0  0  0  0  0  0  # atno 17343 bound_to 10162
  156.9290  130.9707  151.3536 LP  0  0  0  0  0  0  0  0  0  0  0  0  # atno 17370 bound_to 10713
  157.5913  130.8445  149.8663 LP  0  0  0  0  0  0  0  0  0  0  0  0  # atno 17371 bound_to 10713
  140.4553  134.6891  157.5059 LP  0  0  0  0  0  0  0  0  0  0  0  0  # atno 17394 bound_to 11000
  140.0139  134.6649  155.9340 LP  0  0  0  0  0  0  0  0  0  0  0  0  # atno 17395 bound_to 11000

$$$$
