AV-unprocessed.smi:1194|AV-procd|sdf|4992|dock2
  -GOLD-   22720 3593D 1   1.00000     0.00000
 Structure written by MMmdl.
 48 49  0  0  0  0  0  0  0  0  2 V2000
  152.2898  144.0305  160.1445 C   0  0  0  0  0  0  0  0  0  0  0  0
  152.7919  142.8519  159.3032 C   0  0  0  0  0  0  0  0  0  0  0  0
  151.7702  141.7003  159.2371 C   0  0  0  0  0  0  0  0  0  0  0  0
  152.2372  140.4947  158.3999 C   0  0  0  0  0  0  0  0  0  0  0  0
  153.2904  139.9380  158.7167 O   0  0  0  0  0  0  0  0  0  0  0  0
  151.4963  140.0894  157.3319 N   0  0  0  0  0  0  0  0  0  0  0  0
  151.8417  138.9047  156.5098 C   0  0  0  0  0  0  0  0  0  0  0  0
  151.6775  139.1715  155.0060 C   0  0  0  0  0  0  0  0  0  0  0  0
  150.2849  139.7174  154.6888 C   0  0  0  0  0  0  0  0  0  0  0  0
  150.0381  140.9778  155.5220 C   0  0  0  0  0  0  0  0  0  0  0  0
  150.1853  140.7362  157.0446 C   0  0  1  0  0  0  0  0  0  0  0  0
  148.9711  139.9625  157.6119 C   0  0  0  0  0  0  0  0  0  0  0  0
  148.1353  140.5563  158.2929 O   0  0  0  0  0  0  0  0  0  0  0  0
  148.9031  138.6399  157.3876 N   0  0  0  0  0  0  0  0  0  0  0  0
  147.9243  137.7281  157.9679 C   0  0  0  0  0  0  0  0  0  0  0  0
  148.5376  136.8455  159.0739 C   0  0  0  0  0  0  0  0  0  0  0  0
  147.5035  136.2682  160.0279 C   0  0  0  0  0  0  0  0  0  0  0  0
  147.9041  135.5342  161.1659 C   0  0  0  0  0  0  0  0  0  0  0  0
  146.9229  135.0392  162.0502 C   0  0  0  0  0  0  0  0  0  0  0  0
  145.5625  135.2876  161.7753 C   0  0  0  0  0  0  0  0  0  0  0  0
  145.2168  135.9910  160.6751 N   0  3  0  0  0  0  0  0  0  0  0  0
  146.1254  136.4816  159.8044 C   0  0  0  0  0  0  0  0  0  0  0  0
  153.0301  144.8302  160.1739 H   0  0  0  0  0  0  0  0  0  0  0  0
  152.0901  143.7244  161.1717 H   0  0  0  0  0  0  0  0  0  0  0  0
  151.3692  144.4445  159.7324 H   0  0  0  0  0  0  0  0  0  0  0  0
  153.0161  143.2076  158.2969 H   0  0  0  0  0  0  0  0  0  0  0  0
  153.7321  142.4923  159.7235 H   0  0  0  0  0  0  0  0  0  0  0  0
  151.5495  141.3597  160.2496 H   0  0  0  0  0  0  0  0  0  0  0  0
  150.8434  142.0865  158.8110 H   0  0  0  0  0  0  0  0  0  0  0  0
  152.8622  138.5560  156.6536 H   0  0  0  0  0  0  0  0  0  0  0  0
  151.2051  138.0700  156.8021 H   0  0  0  0  0  0  0  0  0  0  0  0
  152.4341  139.8860  154.6783 H   0  0  0  0  0  0  0  0  0  0  0  0
  151.8546  138.2544  154.4434 H   0  0  0  0  0  0  0  0  0  0  0  0
  150.2056  139.9481  153.6261 H   0  0  0  0  0  0  0  0  0  0  0  0
  149.5264  138.9634  154.9032 H   0  0  0  0  0  0  0  0  0  0  0  0
  150.7515  141.7453  155.2185 H   0  0  0  0  0  0  0  0  0  0  0  0
  149.0553  141.3881  155.2864 H   0  0  0  0  0  0  0  0  0  0  0  0
  150.1312  141.7264  157.4992 H   0  0  0  0  0  0  0  0  0  0  0  0
  149.6238  138.2253  156.8145 H   0  0  0  0  0  0  0  0  0  0  0  0
  147.0576  138.2742  158.3437 H   0  0  0  0  0  0  0  0  0  0  0  0
  147.5619  137.0931  157.1592 H   0  0  0  0  0  0  0  0  0  0  0  0
  149.0902  136.0235  158.6165 H   0  0  0  0  0  0  0  0  0  0  0  0
  149.2691  137.4199  159.6433 H   0  0  0  0  0  0  0  0  0  0  0  0
  148.9516  135.3592  161.3645 H   0  0  0  0  0  0  0  0  0  0  0  0
  147.2097  134.4791  162.9283 H   0  0  0  0  0  0  0  0  0  0  0  0
  144.7472  134.9506  162.3987 H   0  0  0  0  0  0  0  0  0  0  0  0
  145.7254  137.0391  158.9698 H   0  0  0  0  0  0  0  0  0  0  0  0
  144.2271  136.1654  160.4974 H   0  0  0  0  0  0  0  0  0  0  0  0
  1  2  1  0  0  0  0
  1 23  1  0  0  0  0
  1 24  1  0  0  0  0
  1 25  1  0  0  0  0
  2  3  1  0  0  0  0
  2 26  1  0  0  0  0
  2 27  1  0  0  0  0
  3  4  1  0  0  0  0
  3 28  1  0  0  0  0
  3 29  1  0  0  0  0
  4  5  2  0  0  0  0
  4  6  1  0  0  0  0
  6 11  1  0  0  0  0
  6  7  1  0  0  0  0
  7  8  1  0  0  0  0
  7 30  1  0  0  0  0
  7 31  1  0  0  0  0
  8  9  1  0  0  0  0
  8 32  1  0  0  0  0
  8 33  1  0  0  0  0
  9 10  1  0  0  0  0
  9 34  1  0  0  0  0
  9 35  1  0  0  0  0
 10 11  1  0  0  0  0
 10 36  1  0  0  0  0
 10 37  1  0  0  0  0
 11 12  1  0  0  0  0
 11 38  1  0  0  0  0
 12 13  2  0  0  0  0
 12 14  1  0  0  0  0
 14 15  1  0  0  0  0
 14 39  1  0  0  0  0
 15 16  1  0  0  0  0
 15 40  1  0  0  0  0
 15 41  1  0  0  0  0
 16 17  1  0  0  0  0
 16 42  1  0  0  0  0
 16 43  1  0  0  0  0
 17 22  1  0  0  0  0
 17 18  2  0  0  0  0
 18 19  1  0  0  0  0
 18 44  1  0  0  0  0
 19 20  2  0  0  0  0
 19 45  1  0  0  0  0
 20 21  1  0  0  0  0
 20 46  1  0  0  0  0
 21 22  2  0  0  0  0
 21 48  1  0  0  0  0
 22 47  1  0  0  0  0
M  CHG  1  21   1
M  END
> <s_m_source_file>
AV-unprocessed.smi

> <i_m_source_file_index>
1194

> <i_lp_mmshare_version>
43012

> <i_f3d_flags>
0

> <s_epik_input>
W0NIM11bQ0gyXVtDSDJdQyg9TylOMVtDSDJdW0NIMl1bQ0gyXVtDSDJdW0NASF0xQyg9TylbTkhdW0NIMl1bQ0gyXWMyW2NIXVtjSF1bY0hdbltjSF0y

> <s_epik_cmdline>
J2VwaWtfcHl0aG9uJywgJy1waCcsICc3LjAnLCAnLXRuJywgJzgnLCAnLW1hJywgJzIwMCcsICctbWV0YWxfYmluZGluZycsICctaW1hZScsICc8aW5maWxlLm1hZT4nLCAnLW9tYWUnLCAnPG91dGZpbGUubWFlPic=

> <r_epik_Ionization_Penalty>
2.26523

> <r_epik_Ionization_Penalty_Charging>
2.26523

> <r_epik_Ionization_Penalty_Neutral>
5.33649e-08

> <r_epik_State_Penalty>
2.41338

> <r_epik_Charging_Adjusted_Penalty>
4.67861

> <i_epik_Tot_Q>
1

> <i_epik_Tot_abs_Q>
1

> <r_epik_Metal_State_Penalty>
2.42628

> <b_epik_Metal_Only>
0

> <s_lp_Force_Field>
OPLS_2005

> <r_lp_Energy>
32.0414

> <b_lp_Chiralities_Consistent>
1

> <s_lp_Variant>
AV-unprocessed.smi:1194-3

> <Gold.Version>
5.8.1

> <Gold.Id.Protein>
6NUR|6NUR_protein|mol2

> <Gold.PLP.Fitness>
42.0441

> <Gold.PLP.PLP>
-40.1489

> <Gold.PLP.part.hbond>
-2.0000

> <Gold.PLP.part.metal>
0.0000

> <Gold.PLP.part.buried>
-4.3311

> <Gold.PLP.part.nonpolar>
-34.4380

> <Gold.PLP.part.repulsive>
0.1176

> <Gold.PLP.ligand.clash>
0.0000

> <Gold.PLP.ligand.torsion>
0.5215

> <Gold.PLP.Chemscore.Hbond>
0.9440

> <Gold.PLP.Chemscore.CHOScore>
0.0000

> <Gold.PLP.Chemscore.Metal>
0.0000

> <Gold.Chemscore.Hbonds>
donor molecule, donor type, donor heavy atom, donor atom, acceptor molecule, acceptor atom, score
      P1  H  7997  8008       L1     5  0.76

> <Gold.PLP.Chemscore.Internal.Correction>
0.1061

> <Gold.Rescore>
     Score         DG    S(hbond)    S(metal)    S(lipo)     H(rot)  DE(clash)    DE(int)     intcor
     15.41     -16.04       0.94        0.00     102.79       1.80       0.01       0.62       ----

> <Gold.Chemscore.Fitness>
15.4114

> <Gold.Chemscore.DG>
-16.0434

> <Gold.Chemscore.ZeroCoef>
-5.4800

> <Gold.Chemscore.Hbond>
0.9403

> <Gold.Chemscore.Metal>
0.0000

> <Gold.Chemscore.Lipo>
102.7935

> <Gold.Chemscore.Internal_Hbond>
0.0000

> <Gold.Chemscore.DEClash>
0.0149

> <Gold.Chemscore.DEInternal>
0.6172

> <Gold.Chemscore.Rot>
1.7985

> <Gold.Chemscore.Internal.Correction>
   9.000000E+99

> <Gold.Chemscore.Hbonds>
donor molecule, donor type, donor heavy atom, donor atom, acceptor molecule, acceptor atom, score
      P1  H  7997  8008       L1     5  0.52

> <Gold.Chemscore.Hbond.Weighted>
-3.1407

> <Gold.Chemscore.Metal.Weighted>
-0.0000

> <Gold.Chemscore.Lipo.Weighted>
-12.0268

> <Gold.Chemscore.Internal_Hbond.Weighted>
0.0000

> <Gold.Chemscore.DEClash.Weighted>
0.0149

> <Gold.Chemscore.DEInternal.Weighted>
0.6172

> <Gold.Chemscore.Rot.Weighted>
4.6041

> <Gold.Chemscore.Internal.Correction.Weighted>
   9.000000E+99

> <Gold.Protein.RotatedTorsions>
[ 6907 6896 6895 6894 ] final  107.28 input  -60.11 | X-H torsion
[ 7974 7965 7964 7962 ] final  175.65 input  175.53 | X-H torsion
[ 8008 7997 7996 7995 ] final  -88.58 input   59.86 | X-H torsion
[ 10167 10162 10161 10158 ] final  -54.22 input  -65.29 | X-H torsion
[ 10718 10713 10712 10709 ] final  -43.88 input   66.30 | X-H torsion
[ 10763 10752 10751 10750 ] final  -86.29 input  -60.55 | X-H torsion
[ 11005 11000 10999 10996 ] final   72.57 input  -57.11 | X-H torsion

> <Gold.Protein.ActiveResidues>
 VAL166  LYS551  ARG553  GLY616  TRP617  ASP618  TYR619  PRO620  LYS621  CYS622 
 ASP623  PHE694  ASN695  SER759  ASP760  ASP761  ALA762  ILE779  LEU786  VAL792 
 PHE793  MET794  SER795  GLU796  ALA797  LYS798  CYS799  TRP800  GLU811  SER814 

> <Gold.Protein.RotatedAtoms>
  152.5160  133.9257  159.7555 H   0  0  0  0  0  0  0  0  0  0  0  0  # atno 6907 bound_to 6896
  150.9619  133.6428  159.2760 H   0  0  0  0  0  0  0  0  0  0  0  0  # atno 6908 bound_to 6896
  151.3670  135.0920  159.9506 H   0  0  0  0  0  0  0  0  0  0  0  0  # atno 6909 bound_to 6896
  144.7198  139.9979  143.6440 H   0  0  0  0  0  0  0  0  0  0  0  0  # atno 7974 bound_to 7965
  154.6764  140.0552  157.0220 H   0  0  0  0  0  0  0  0  0  0  0  0  # atno 8008 bound_to 7997
  155.1014  140.3229  155.4527 H   0  0  0  0  0  0  0  0  0  0  0  0  # atno 8009 bound_to 7997
  156.2677  140.2030  156.6140 H   0  0  0  0  0  0  0  0  0  0  0  0  # atno 8010 bound_to 7997
  140.6443  143.2525  151.4904 H   0  0  0  0  0  0  0  0  0  0  0  0  # atno 10167 bound_to 10162
  156.2444  130.4182  149.8722 H   0  0  0  0  0  0  0  0  0  0  0  0  # atno 10718 bound_to 10713
  154.6207  135.5454  153.7572 H   0  0  0  0  0  0  0  0  0  0  0  0  # atno 10763 bound_to 10752
  153.0237  135.6412  154.1444 H   0  0  0  0  0  0  0  0  0  0  0  0  # atno 10764 bound_to 10752
  154.1378  135.2910  155.3148 H   0  0  0  0  0  0  0  0  0  0  0  0  # atno 10765 bound_to 10752
  139.9484  134.7271  156.0922 H   0  0  0  0  0  0  0  0  0  0  0  0  # atno 11005 bound_to 11000
  146.0359  139.3377  143.0727 LP  0  0  0  0  0  0  0  0  0  0  0  0  # atno 17320 bound_to 7965
  145.8395  140.9588  143.0807 LP  0  0  0  0  0  0  0  0  0  0  0  0  # atno 17321 bound_to 7965
  139.5652  144.2059  152.1754 LP  0  0  0  0  0  0  0  0  0  0  0  0  # atno 17342 bound_to 10162
  140.1338  144.5264  150.6786 LP  0  0  0  0  0  0  0  0  0  0  0  0  # atno 17343 bound_to 10162
  156.6293  130.8659  151.3492 LP  0  0  0  0  0  0  0  0  0  0  0  0  # atno 17370 bound_to 10713
  157.7189  130.9532  150.1360 LP  0  0  0  0  0  0  0  0  0  0  0  0  # atno 17371 bound_to 10713
  141.1141  133.6633  156.3049 LP  0  0  0  0  0  0  0  0  0  0  0  0  # atno 17394 bound_to 11000
  140.5778  134.5776  157.5473 LP  0  0  0  0  0  0  0  0  0  0  0  0  # atno 17395 bound_to 11000

$$$$
