AV-unprocessed.smi:36|AV-procd|sdf|282|dock10
  -GOLD-   2262016 63D 1   1.00000     0.00000
 Structure written by MMmdl.
 64 67  0  0  0  0  0  0  0  0  1 V2000
  149.6211  130.6363  160.7164 C   0  0  0  0  0  0  0  0  0  0  0  0
  148.0978  130.7385  160.9046 C   0  0  0  0  0  0  0  0  0  0  0  0
  147.6224  129.6028  161.8267 C   0  0  0  0  0  0  0  0  0  0  0  0
  147.7408  132.0961  161.5326 C   0  0  0  0  0  0  0  0  0  0  0  0
  147.2472  130.6012  159.1930 Si  0  0  0  0  0  0  0  0  0  0  0  0
  147.7373  128.9727  158.3463 C   0  0  0  0  0  0  0  0  0  0  0  0
  145.3555  130.6978  159.3539 C   0  0  0  0  0  0  0  0  0  0  0  0
  147.7784  131.8647  158.1981 O   0  0  0  0  0  0  0  0  0  0  0  0
  149.1270  132.0704  157.8294 C   0  0  0  0  0  0  0  0  0  0  0  0
  149.2522  133.4037  157.0773 C   0  0  1  0  0  0  0  0  0  0  0  0
  150.5543  133.9588  157.2278 O   0  0  0  0  0  0  0  0  0  0  0  0
  150.8736  134.7488  156.1202 C   0  0  2  0  0  0  0  0  0  0  0  0
  151.0093  136.1639  156.5744 N   0  0  0  0  0  0  0  0  0  0  0  0
  151.1599  136.6541  157.8539 C   0  0  0  0  0  0  0  0  0  0  0  0
  151.2526  137.9542  157.9455 N   0  0  0  0  0  0  0  0  0  0  0  0
  151.1551  138.3924  156.6305 C   0  0  0  0  0  0  0  0  0  0  0  0
  151.1821  139.6704  156.0132 C   0  0  0  0  0  0  0  0  0  0  0  0
  151.3260  140.7874  156.7643 N   0  0  0  0  0  0  0  0  0  0  0  0
  152.1840  140.9859  157.9194 C   0  0  0  0  0  0  0  0  0  0  0  0
  152.9546  140.1131  158.3203 O   0  0  0  0  0  0  0  0  0  0  0  0
  152.1320  142.3443  158.5567 C   0  0  0  0  0  0  0  0  0  0  0  0
  152.6733  142.5396  159.8475 C   0  0  0  0  0  0  0  0  0  0  0  0
  152.6134  143.8051  160.4627 C   0  0  0  0  0  0  0  0  0  0  0  0
  152.0056  144.8853  159.7954 C   0  0  0  0  0  0  0  0  0  0  0  0
  151.4543  144.6978  158.5140 C   0  0  0  0  0  0  0  0  0  0  0  0
  151.5130  143.4324  157.8979 C   0  0  0  0  0  0  0  0  0  0  0  0
  151.0470  139.7140  154.6612 N   0  0  0  0  0  0  0  0  0  0  0  0
  150.9004  138.5848  153.9617 C   0  0  0  0  0  0  0  0  0  0  0  0
  150.8624  137.3268  154.4065 N   0  0  0  0  0  0  0  0  0  0  0  0
  150.9970  137.2763  155.7630 C   0  0  0  0  0  0  0  0  0  0  0  0
  149.7248  134.6295  155.1122 C   0  0  0  0  0  0  0  0  0  0  0  0
  149.0296  133.3600  155.5606 C   0  0  1  0  0  0  0  0  0  0  0  0
  149.6207  132.2226  154.9615 O   0  0  0  0  0  0  0  0  0  0  0  0
  150.1444  130.7119  161.6702 H   0  0  0  0  0  0  0  0  0  0  0  0
  149.9983  131.4324  160.0741 H   0  0  0  0  0  0  0  0  0  0  0  0
  149.9018  129.6856  160.2621 H   0  0  0  0  0  0  0  0  0  0  0  0
  147.8131  128.6240  161.3863 H   0  0  0  0  0  0  0  0  0  0  0  0
  146.5560  129.6725  162.0337 H   0  0  0  0  0  0  0  0  0  0  0  0
  148.1377  129.6338  162.7875 H   0  0  0  0  0  0  0  0  0  0  0  0
  148.2003  132.2119  162.5148 H   0  0  0  0  0  0  0  0  0  0  0  0
  146.6630  132.2028  161.6585 H   0  0  0  0  0  0  0  0  0  0  0  0
  148.0821  132.9243  160.9112 H   0  0  0  0  0  0  0  0  0  0  0  0
  147.4032  128.1062  158.9165 H   0  0  0  0  0  0  0  0  0  0  0  0
  148.8177  128.8897  158.2302 H   0  0  0  0  0  0  0  0  0  0  0  0
  147.2982  128.8939  157.3521 H   0  0  0  0  0  0  0  0  0  0  0  0
  144.9655  129.8936  159.9773 H   0  0  0  0  0  0  0  0  0  0  0  0
  144.8688  130.6197  158.3819 H   0  0  0  0  0  0  0  0  0  0  0  0
  145.0358  131.6390  159.8007 H   0  0  0  0  0  0  0  0  0  0  0  0
  149.7371  132.0975  158.7325 H   0  0  0  0  0  0  0  0  0  0  0  0
  149.4955  131.2414  157.2269 H   0  0  0  0  0  0  0  0  0  0  0  0
  148.5491  134.1192  157.5069 H   0  0  0  0  0  0  0  0  0  0  0  0
  151.8490  134.4688  155.7205 H   0  0  0  0  0  0  0  0  0  0  0  0
  151.2016  136.0146  158.7232 H   0  0  0  0  0  0  0  0  0  0  0  0
  150.7429  141.5707  156.5082 H   0  0  0  0  0  0  0  0  0  0  0  0
  153.1413  141.7204  160.3743 H   0  0  0  0  0  0  0  0  0  0  0  0
  153.0329  143.9462  161.4478 H   0  0  0  0  0  0  0  0  0  0  0  0
  151.9591  145.8554  160.2676 H   0  0  0  0  0  0  0  0  0  0  0  0
  150.9829  145.5250  158.0041 H   0  0  0  0  0  0  0  0  0  0  0  0
  151.0747  143.3099  156.9181 H   0  0  0  0  0  0  0  0  0  0  0  0
  150.7998  138.7074  152.8935 H   0  0  0  0  0  0  0  0  0  0  0  0
  149.0492  135.4800  155.2190 H   0  0  0  0  0  0  0  0  0  0  0  0
  150.0955  134.6039  154.0869 H   0  0  0  0  0  0  0  0  0  0  0  0
  147.9687  133.3683  155.3086 H   0  0  0  0  0  0  0  0  0  0  0  0
  149.0144  131.5006  155.0279 H   0  0  0  0  0  0  0  0  0  0  0  0
  1  2  1  0  0  0  0
  1 34  1  0  0  0  0
  1 35  1  0  0  0  0
  1 36  1  0  0  0  0
  2  3  1  0  0  0  0
  2  4  1  0  0  0  0
  2  5  1  0  0  0  0
  3 37  1  0  0  0  0
  3 38  1  0  0  0  0
  3 39  1  0  0  0  0
  4 40  1  0  0  0  0
  4 41  1  0  0  0  0
  4 42  1  0  0  0  0
  5  6  1  0  0  0  0
  5  7  1  0  0  0  0
  5  8  1  0  0  0  0
  6 43  1  0  0  0  0
  6 44  1  0  0  0  0
  6 45  1  0  0  0  0
  7 46  1  0  0  0  0
  7 47  1  0  0  0  0
  7 48  1  0  0  0  0
  8  9  1  0  0  0  0
  9 10  1  0  0  0  0
  9 49  1  0  0  0  0
  9 50  1  0  0  0  0
 10 32  1  0  0  0  0
 10 11  1  0  0  0  0
 10 51  1  0  0  0  0
 11 12  1  0  0  0  0
 12 13  1  0  0  0  0
 12 31  1  0  0  0  0
 12 52  1  0  0  0  0
 13 30  1  0  0  0  0
 13 14  1  0  0  0  0
 14 15  2  0  0  0  0
 14 53  1  0  0  0  0
 15 16  1  0  0  0  0
 16 30  2  0  0  0  0
 16 17  1  0  0  0  0
 17 18  1  0  0  0  0
 17 27  2  0  0  0  0
 18 19  1  0  0  0  0
 18 54  1  0  0  0  0
 19 20  2  0  0  0  0
 19 21  1  0  0  0  0
 21 26  1  0  0  0  0
 21 22  2  0  0  0  0
 22 23  1  0  0  0  0
 22 55  1  0  0  0  0
 23 24  2  0  0  0  0
 23 56  1  0  0  0  0
 24 25  1  0  0  0  0
 24 57  1  0  0  0  0
 25 26  2  0  0  0  0
 25 58  1  0  0  0  0
 26 59  1  0  0  0  0
 27 28  1  0  0  0  0
 28 29  2  0  0  0  0
 28 60  1  0  0  0  0
 29 30  1  0  0  0  0
 31 32  1  0  0  0  0
 31 61  1  0  0  0  0
 31 62  1  0  0  0  0
 32 33  1  0  0  0  0
 32 63  1  0  0  0  0
 33 64  1  0  0  0  0
M  END
> <s_m_source_file>
AV-unprocessed.smi

> <i_m_source_file_index>
36

> <i_lp_mmshare_version>
43012

> <i_f3d_flags>
0

> <s_epik_input>
W0NIM11DKFtDSDNdKShbQ0gzXSlbU2ldKFtDSDNdKShbQ0gzXSlPW0NIMl1bQ0BASF0xT1tDQEhdKFtDSDJdW0NASF0xW09IXSluKFtjSF1uMiljKGMyMyluW2NIXW5jM1tOSF1DKD1PKWM0W2NIXVtjSF1bY0hdW2NIXVtjSF00

> <s_epik_cmdline>
J2VwaWtfcHl0aG9uJywgJy1waCcsICc3LjAnLCAnLXRuJywgJzgnLCAnLW1hJywgJzIwMCcsICctbWV0YWxfYmluZGluZycsICctaW1hZScsICc8aW5maWxlLm1hZT4nLCAnLW9tYWUnLCAnPG91dGZpbGUubWFlPic=

> <r_lp_tautomer_probability>
1

> <r_epik_Ionization_Penalty>
0.00150433

> <r_epik_Ionization_Penalty_Charging>
0

> <r_epik_Ionization_Penalty_Neutral>
0.00150433

> <r_epik_State_Penalty>
0.00724046

> <r_epik_Charging_Adjusted_Penalty>
0.00724046

> <i_epik_Tot_Q>
0

> <i_epik_Tot_abs_Q>
0

> <r_epik_Metal_State_Penalty>
0.323355

> <b_epik_Metal_Only>
0

> <s_epik_Chemistry_Notes>
This compound contains an acetal/aminal-like group ( X-CH(R)-Y where X, Y are N, S, or O) that may be acid/base labile, releasing an aldehyde.

> <s_lp_Force_Field>
OPLS_2005

> <r_lp_Energy>
37.9666

> <b_lp_Chiralities_Consistent>
1

> <s_lp_Variant>
AV-unprocessed.smi:36-4

> <Gold.Version>
5.8.1

> <Gold.Id.Protein>
6NUR|6NUR_protein|mol2

> <Gold.PLP.Fitness>
53.2323

> <Gold.PLP.PLP>
-44.7749

> <Gold.PLP.part.hbond>
-3.0000

> <Gold.PLP.part.metal>
0.0000

> <Gold.PLP.part.buried>
-8.1929

> <Gold.PLP.part.nonpolar>
-34.4316

> <Gold.PLP.part.repulsive>
0.3966

> <Gold.PLP.ligand.clash>
0.0000

> <Gold.PLP.ligand.torsion>
1.1369

> <Gold.PLP.Chemscore.Hbond>
2.6661

> <Gold.PLP.Chemscore.CHOScore>
0.8741

> <Gold.PLP.Chemscore.Metal>
0.0000

> <Gold.Chemscore.Hbonds>
donor molecule, donor type, donor heavy atom, donor atom, acceptor molecule, acceptor atom, score
      P1  H  6896  6907       L1    11  0.66
      P1  H  7989  7998       L1    27  1.00
      P1  H  7997  8010       L1    20  0.88
      L1  C    28    60       P1  7957  0.83

> <Gold.PLP.Chemscore.Internal.Correction>
0.1106

> <Gold.Rescore>
     Score         DG    S(hbond)    S(metal)    S(lipo)     H(rot)  DE(clash)    DE(int)     intcor
     14.60     -18.97       2.18        0.00     112.09       2.70       0.55       3.82       ----

> <Gold.Chemscore.Fitness>
14.6005

> <Gold.Chemscore.DG>
-18.9695

> <Gold.Chemscore.ZeroCoef>
-5.4800

> <Gold.Chemscore.Hbond>
2.1849

> <Gold.Chemscore.Metal>
0.0000

> <Gold.Chemscore.Lipo>
112.0901

> <Gold.Chemscore.Internal_Hbond>
0.0000

> <Gold.Chemscore.DEClash>
0.5453

> <Gold.Chemscore.DEInternal>
3.8237

> <Gold.Chemscore.Rot>
2.7041

> <Gold.Chemscore.Internal.Correction>
   9.000000E+99

> <Gold.Chemscore.Hbonds>
donor molecule, donor type, donor heavy atom, donor atom, acceptor molecule, acceptor atom, score
      P1  H  6896  6907       L1    11  0.25
      P1  H  7989  7998       L1    27  0.45
      P1  H  7997  8010       L1    20  0.48

> <Gold.Chemscore.Hbond.Weighted>
-7.2974

> <Gold.Chemscore.Metal.Weighted>
-0.0000

> <Gold.Chemscore.Lipo.Weighted>
-13.1145

> <Gold.Chemscore.Internal_Hbond.Weighted>
0.0000

> <Gold.Chemscore.DEClash.Weighted>
0.5453

> <Gold.Chemscore.DEInternal.Weighted>
3.8237

> <Gold.Chemscore.Rot.Weighted>
6.9225

> <Gold.Chemscore.Internal.Correction.Weighted>
   9.000000E+99

> <Gold.Protein.RotatedTorsions>
[ 6907 6896 6895 6894 ] final -134.26 input  -60.11 | X-H torsion
[ 7974 7965 7964 7962 ] final   54.85 input  175.53 | X-H torsion
[ 8008 7997 7996 7995 ] final   38.09 input   59.86 | X-H torsion
[ 10167 10162 10161 10158 ] final  128.94 input  -65.29 | X-H torsion
[ 10718 10713 10712 10709 ] final  -47.62 input   66.30 | X-H torsion
[ 10763 10752 10751 10750 ] final    0.97 input  -60.55 | X-H torsion
[ 11005 11000 10999 10996 ] final -133.23 input  -57.11 | X-H torsion

> <Gold.Protein.ActiveResidues>
 VAL166  LYS551  ARG553  GLY616  TRP617  ASP618  TYR619  PRO620  LYS621  CYS622 
 ASP623  PHE694  ASN695  SER759  ASP760  ASP761  ALA762  ILE779  LEU786  VAL792 
 PHE793  MET794  SER795  GLU796  ALA797  LYS798  CYS799  TRP800  GLU811  SER814 

> <Gold.Protein.RotatedAtoms>
  150.9837  133.6219  159.2718 H   0  0  0  0  0  0  0  0  0  0  0  0  # atno 6907 bound_to 6896
  151.3465  135.0874  159.9398 H   0  0  0  0  0  0  0  0  0  0  0  0  # atno 6908 bound_to 6896
  152.5224  133.9438  159.7693 H   0  0  0  0  0  0  0  0  0  0  0  0  # atno 6909 bound_to 6896
  145.9565  139.4020  143.0274 H   0  0  0  0  0  0  0  0  0  0  0  0  # atno 7974 bound_to 7965
  155.2145  140.3326  155.4324 H   0  0  0  0  0  0  0  0  0  0  0  0  # atno 8008 bound_to 7997
  156.2357  140.1871  156.7173 H   0  0  0  0  0  0  0  0  0  0  0  0  # atno 8009 bound_to 7997
  154.6056  140.0616  156.9411 H   0  0  0  0  0  0  0  0  0  0  0  0  # atno 8010 bound_to 7997
  139.5502  144.6807  151.4347 H   0  0  0  0  0  0  0  0  0  0  0  0  # atno 10167 bound_to 10162
  156.2066  130.4158  149.9170 H   0  0  0  0  0  0  0  0  0  0  0  0  # atno 10718 bound_to 10713
  153.3139  135.6964  153.7090 H   0  0  0  0  0  0  0  0  0  0  0  0  # atno 10763 bound_to 10752
  153.5957  135.3471  155.2927 H   0  0  0  0  0  0  0  0  0  0  0  0  # atno 10764 bound_to 10752
  154.8582  135.4328  154.2285 H   0  0  0  0  0  0  0  0  0  0  0  0  # atno 10765 bound_to 10752
  140.9099  134.1581  157.4397 H   0  0  0  0  0  0  0  0  0  0  0  0  # atno 11005 bound_to 11000
  145.8099  140.9731  143.0954 LP  0  0  0  0  0  0  0  0  0  0  0  0  # atno 17320 bound_to 7965
  144.6806  139.9908  143.7484 LP  0  0  0  0  0  0  0  0  0  0  0  0  # atno 17321 bound_to 7965
  140.6762  143.8184  150.7062 LP  0  0  0  0  0  0  0  0  0  0  0  0  # atno 17342 bound_to 10162
  140.1623  143.4265  152.2058 LP  0  0  0  0  0  0  0  0  0  0  0  0  # atno 17343 bound_to 10162
  156.6861  130.8877  151.3582 LP  0  0  0  0  0  0  0  0  0  0  0  0  # atno 17370 bound_to 10713
  157.7016  130.9339  150.0802 LP  0  0  0  0  0  0  0  0  0  0  0  0  # atno 17371 bound_to 10713
  139.8756  134.9932  156.5631 LP  0  0  0  0  0  0  0  0  0  0  0  0  # atno 17394 bound_to 11000
  140.8123  133.8419  155.8821 LP  0  0  0  0  0  0  0  0  0  0  0  0  # atno 17395 bound_to 11000

$$$$
