AV-unprocessed.smi:381|AV-procd|sdf|2462|dock9
  -GOLD-   2262022403D 1   1.00000     0.00000
 Structure written by MMmdl.
 46 47  0  0  0  0  0  0  0  0  2 V2000
  149.2194  133.9629  155.7396 O   0  0  0  0  0  0  0  0  0  0  0  0
  149.1023  134.7108  154.7707 C   0  0  0  0  0  0  0  0  0  0  0  0
  148.2967  134.4459  153.7296 N   0  0  0  0  0  0  0  0  0  0  0  0
  147.4556  133.2623  153.6231 C   0  0  0  0  0  0  0  0  0  0  0  0
  145.9717  133.6380  153.7284 C   0  0  0  0  0  0  0  0  0  0  0  0
  145.1831  133.1861  152.5145 C   0  0  0  0  0  0  0  0  0  0  0  0
  145.4101  131.9133  151.9452 C   0  0  0  0  0  0  0  0  0  0  0  0
  144.6557  131.5128  150.8227 C   0  0  0  0  0  0  0  0  0  0  0  0
  143.6923  132.3953  150.2930 C   0  0  0  0  0  0  0  0  0  0  0  0
  143.5036  133.6058  150.8633 N   0  3  0  0  0  0  0  0  0  0  0  0
  144.2042  134.0256  151.9400 C   0  0  0  0  0  0  0  0  0  0  0  0
  149.7794  135.8701  154.6836 N   0  0  0  0  0  0  0  0  0  0  0  0
  150.7306  136.4541  155.6343 C   0  0  0  0  0  0  0  0  0  0  0  0
  149.9527  136.8512  156.9107 C   0  0  0  0  0  0  0  0  0  0  0  0
  150.7449  137.6168  157.9869 C   0  0  0  0  0  0  0  0  0  0  0  0
  150.6357  139.1572  157.9174 C   0  0  0  0  0  0  0  0  0  0  0  0
  151.6857  139.8577  157.0349 C   0  0  0  0  0  0  0  0  0  0  0  0
  151.2918  140.1065  155.5634 C   0  0  0  0  0  0  0  0  0  0  0  0
  150.7399  138.9050  154.7751 C   0  0  0  0  0  0  0  0  0  0  0  0
  151.5303  137.5956  154.9653 C   0  0  0  0  0  0  0  0  0  0  0  0
  148.2573  135.1134  152.9732 H   0  0  0  0  0  0  0  0  0  0  0  0
  147.6461  132.7608  152.6727 H   0  0  0  0  0  0  0  0  0  0  0  0
  147.7251  132.5639  154.4167 H   0  0  0  0  0  0  0  0  0  0  0  0
  145.5361  133.1961  154.6257 H   0  0  0  0  0  0  0  0  0  0  0  0
  145.8653  134.7186  153.8343 H   0  0  0  0  0  0  0  0  0  0  0  0
  146.1507  131.2486  152.3661 H   0  0  0  0  0  0  0  0  0  0  0  0
  144.8132  130.5419  150.3760 H   0  0  0  0  0  0  0  0  0  0  0  0
  143.0708  132.1711  149.4385 H   0  0  0  0  0  0  0  0  0  0  0  0
  143.9594  135.0118  152.3067 H   0  0  0  0  0  0  0  0  0  0  0  0
  149.6157  136.4154  153.8494 H   0  0  0  0  0  0  0  0  0  0  0  0
  151.4453  135.6852  155.9321 H   0  0  0  0  0  0  0  0  0  0  0  0
  149.0446  137.4021  156.6644 H   0  0  0  0  0  0  0  0  0  0  0  0
  149.5935  135.9256  157.3631 H   0  0  0  0  0  0  0  0  0  0  0  0
  150.3282  137.3199  158.9503 H   0  0  0  0  0  0  0  0  0  0  0  0
  151.7852  137.2913  158.0165 H   0  0  0  0  0  0  0  0  0  0  0  0
  149.6271  139.4729  157.6489 H   0  0  0  0  0  0  0  0  0  0  0  0
  150.7866  139.5256  158.9330 H   0  0  0  0  0  0  0  0  0  0  0  0
  151.8908  140.8355  157.4725 H   0  0  0  0  0  0  0  0  0  0  0  0
  152.6366  139.3288  157.0979 H   0  0  0  0  0  0  0  0  0  0  0  0
  150.5536  140.9084  155.5235 H   0  0  0  0  0  0  0  0  0  0  0  0
  152.1687  140.4923  155.0424 H   0  0  0  0  0  0  0  0  0  0  0  0
  149.6876  138.7658  155.0181 H   0  0  0  0  0  0  0  0  0  0  0  0
  150.7391  139.1643  153.7159 H   0  0  0  0  0  0  0  0  0  0  0  0
  152.4437  137.7714  155.5304 H   0  0  0  0  0  0  0  0  0  0  0  0
  151.8904  137.2617  153.9916 H   0  0  0  0  0  0  0  0  0  0  0  0
  142.8006  134.2288  150.4651 H   0  0  0  0  0  0  0  0  0  0  0  0
  1  2  2  0  0  0  0
  2  3  1  0  0  0  0
  2 12  1  0  0  0  0
  3  4  1  0  0  0  0
  3 21  1  0  0  0  0
  4  5  1  0  0  0  0
  4 22  1  0  0  0  0
  4 23  1  0  0  0  0
  5  6  1  0  0  0  0
  5 24  1  0  0  0  0
  5 25  1  0  0  0  0
  6 11  1  0  0  0  0
  6  7  2  0  0  0  0
  7  8  1  0  0  0  0
  7 26  1  0  0  0  0
  8  9  2  0  0  0  0
  8 27  1  0  0  0  0
  9 10  1  0  0  0  0
  9 28  1  0  0  0  0
 10 11  2  0  0  0  0
 10 46  1  0  0  0  0
 11 29  1  0  0  0  0
 12 13  1  0  0  0  0
 12 30  1  0  0  0  0
 13 20  1  0  0  0  0
 13 14  1  0  0  0  0
 13 31  1  0  0  0  0
 14 15  1  0  0  0  0
 14 32  1  0  0  0  0
 14 33  1  0  0  0  0
 15 16  1  0  0  0  0
 15 34  1  0  0  0  0
 15 35  1  0  0  0  0
 16 17  1  0  0  0  0
 16 36  1  0  0  0  0
 16 37  1  0  0  0  0
 17 18  1  0  0  0  0
 17 38  1  0  0  0  0
 17 39  1  0  0  0  0
 18 19  1  0  0  0  0
 18 40  1  0  0  0  0
 18 41  1  0  0  0  0
 19 20  1  0  0  0  0
 19 42  1  0  0  0  0
 19 43  1  0  0  0  0
 20 44  1  0  0  0  0
 20 45  1  0  0  0  0
M  CHG  1  10   1
M  END
> <s_m_source_file>
AV-unprocessed.smi

> <i_m_source_file_index>
381

> <i_lp_mmshare_version>
43012

> <i_f3d_flags>
0

> <s_epik_input>
W0NIMl0xW0NIMl1bQ0gyXVtDSDJdW0NIMl1bQ0gyXVtDSDJdW0NIXTFbTkhdQyg9TylbTkhdW0NIMl1bQ0gyXWMyW2NIXVtjSF1bY0hdbltjSF0y

> <s_epik_cmdline>
J2VwaWtfcHl0aG9uJywgJy1waCcsICc3LjAnLCAnLXRuJywgJzgnLCAnLW1hJywgJzIwMCcsICctbWV0YWxfYmluZGluZycsICctaW1hZScsICc8aW5maWxlLm1hZT4nLCAnLW9tYWUnLCAnPG91dGZpbGUubWFlPic=

> <r_epik_Ionization_Penalty>
2.21063

> <r_epik_Ionization_Penalty_Charging>
2.21057

> <r_epik_Ionization_Penalty_Neutral>
5.85974e-05

> <r_epik_State_Penalty>
2.35476

> <r_epik_Charging_Adjusted_Penalty>
4.56533

> <i_epik_Tot_Q>
1

> <i_epik_Tot_abs_Q>
1

> <r_epik_Metal_State_Penalty>
2.36886

> <b_epik_Metal_Only>
0

> <s_lp_Force_Field>
OPLS_2005

> <r_lp_Energy>
36.9097

> <b_lp_Chiralities_Consistent>
1

> <s_lp_Variant>
AV-unprocessed.smi:381-2

> <Gold.Version>
5.8.1

> <Gold.Id.Protein>
6NUR|6NUR_protein|mol2

> <Gold.PLP.Fitness>
43.2206

> <Gold.PLP.PLP>
-33.2802

> <Gold.PLP.part.hbond>
-3.0000

> <Gold.PLP.part.metal>
0.0000

> <Gold.PLP.part.buried>
-4.9712

> <Gold.PLP.part.nonpolar>
-25.5688

> <Gold.PLP.part.repulsive>
0.0750

> <Gold.PLP.ligand.clash>
0.0000

> <Gold.PLP.ligand.torsion>
0.7824

> <Gold.PLP.Chemscore.Hbond>
3.8247

> <Gold.PLP.Chemscore.CHOScore>
0.0000

> <Gold.PLP.Chemscore.Metal>
0.0000

> <Gold.Chemscore.Hbonds>
donor molecule, donor type, donor heavy atom, donor atom, acceptor molecule, acceptor atom, score
      L1  H     3    21       P1  7948  1.00
      L1  H    10    46       P1 10186  1.92
      L1  H    12    30       P1  7948  0.74

> <Gold.PLP.Chemscore.Internal.Correction>
0.0309

> <Gold.Rescore>
     Score         DG    S(hbond)    S(metal)    S(lipo)     H(rot)  DE(clash)    DE(int)     intcor
     19.22     -20.07       2.52        0.00      85.77       1.51       0.11       0.74       ----

> <Gold.Chemscore.Fitness>
19.2204

> <Gold.Chemscore.DG>
-20.0663

> <Gold.Chemscore.ZeroCoef>
-5.4800

> <Gold.Chemscore.Hbond>
2.5188

> <Gold.Chemscore.Metal>
0.0000

> <Gold.Chemscore.Lipo>
85.7709

> <Gold.Chemscore.Internal_Hbond>
0.0000

> <Gold.Chemscore.DEClash>
0.1081

> <Gold.Chemscore.DEInternal>
0.7378

> <Gold.Chemscore.Rot>
1.5085

> <Gold.Chemscore.Internal.Correction>
   9.000000E+99

> <Gold.Chemscore.Hbonds>
donor molecule, donor type, donor heavy atom, donor atom, acceptor molecule, acceptor atom, score
      L1  H     3    21       P1  7948  0.90
      L1  H    10    46       P1 10186  0.68
      L1  H    12    30       P1  7948  0.47

> <Gold.Chemscore.Hbond.Weighted>
-8.4128

> <Gold.Chemscore.Metal.Weighted>
-0.0000

> <Gold.Chemscore.Lipo.Weighted>
-10.0352

> <Gold.Chemscore.Internal_Hbond.Weighted>
0.0000

> <Gold.Chemscore.DEClash.Weighted>
0.1081

> <Gold.Chemscore.DEInternal.Weighted>
0.7378

> <Gold.Chemscore.Rot.Weighted>
3.8617

> <Gold.Chemscore.Internal.Correction.Weighted>
   9.000000E+99

> <Gold.Protein.RotatedTorsions>
[ 6907 6896 6895 6894 ] final   74.90 input  -60.11 | X-H torsion
[ 7974 7965 7964 7962 ] final  -82.34 input  175.53 | X-H torsion
[ 8008 7997 7996 7995 ] final  -65.88 input   59.86 | X-H torsion
[ 10167 10162 10161 10158 ] final  103.09 input  -65.29 | X-H torsion
[ 10718 10713 10712 10709 ] final  -94.36 input   66.30 | X-H torsion
[ 10763 10752 10751 10750 ] final -120.18 input  -60.55 | X-H torsion
[ 11005 11000 10999 10996 ] final   90.96 input  -57.11 | X-H torsion

> <Gold.Protein.ActiveResidues>
 VAL166  LYS551  ARG553  GLY616  TRP617  ASP618  TYR619  PRO620  LYS621  CYS622 
 ASP623  PHE694  ASN695  SER759  ASP760  ASP761  ALA762  ILE779  LEU786  VAL792 
 PHE793  MET794  SER795  GLU796  ALA797  LYS798  CYS799  TRP800  GLU811  SER814 

> <Gold.Protein.RotatedAtoms>
  152.4999  134.4202  159.9477 H   0  0  0  0  0  0  0  0  0  0  0  0  # atno 6907 bound_to 6896
  151.4175  133.3702  159.2759 H   0  0  0  0  0  0  0  0  0  0  0  0  # atno 6908 bound_to 6896
  150.9247  134.8686  159.7571 H   0  0  0  0  0  0  0  0  0  0  0  0  # atno 6909 bound_to 6896
  145.5346  140.9517  143.1584 H   0  0  0  0  0  0  0  0  0  0  0  0  # atno 7974 bound_to 7965
  154.4699  140.0924  156.7118 H   0  0  0  0  0  0  0  0  0  0  0  0  # atno 8008 bound_to 7997
  155.4752  140.3466  155.4313 H   0  0  0  0  0  0  0  0  0  0  0  0  # atno 8009 bound_to 7997
  156.1022  140.1425  156.9441 H   0  0  0  0  0  0  0  0  0  0  0  0  # atno 8010 bound_to 7997
  139.7293  144.7040  151.0747 H   0  0  0  0  0  0  0  0  0  0  0  0  # atno 10167 bound_to 10162
  156.0026  130.5064  150.5914 H   0  0  0  0  0  0  0  0  0  0  0  0  # atno 10718 bound_to 10713
  154.8637  135.4212  154.2418 H   0  0  0  0  0  0  0  0  0  0  0  0  # atno 10763 bound_to 10752
  153.3382  135.6992  153.6895 H   0  0  0  0  0  0  0  0  0  0  0  0  # atno 10764 bound_to 10752
  153.5884  135.3559  155.2874 H   0  0  0  0  0  0  0  0  0  0  0  0  # atno 10765 bound_to 10752
  139.8847  134.8645  156.3360 H   0  0  0  0  0  0  0  0  0  0  0  0  # atno 11005 bound_to 11000
  144.7608  139.6961  143.7235 LP  0  0  0  0  0  0  0  0  0  0  0  0  # atno 17320 bound_to 7965
  146.2021  139.5323  142.9736 LP  0  0  0  0  0  0  0  0  0  0  0  0  # atno 17321 bound_to 7965
  140.7768  143.5064  150.9707 LP  0  0  0  0  0  0  0  0  0  0  0  0  # atno 17342 bound_to 10162
  139.8752  143.7142  152.3162 LP  0  0  0  0  0  0  0  0  0  0  0  0  # atno 17343 bound_to 10162
  157.3778  131.0776  151.1503 LP  0  0  0  0  0  0  0  0  0  0  0  0  # atno 17370 bound_to 10713
  157.2235  130.6492  149.5820 LP  0  0  0  0  0  0  0  0  0  0  0  0  # atno 17371 bound_to 10713
  140.9691  133.7339  156.0509 LP  0  0  0  0  0  0  0  0  0  0  0  0  # atno 17394 bound_to 11000
  140.7893  134.3635  157.5468 LP  0  0  0  0  0  0  0  0  0  0  0  0  # atno 17395 bound_to 11000

$$$$
