AV-unprocessed.smi:2192|AV-procd|sdf|8896|dock9
  -GOLD-   2272012103D 1   1.00000     0.00000
 Structure written by MMmdl.
 42 44  0  0  0  0  0  0  0  0  1 V2000
  151.5544  144.2960  160.5493 C   0  0  0  0  0  0  0  0  0  0  0  0
  151.8592  143.0954  159.7485 N   0  0  0  0  0  0  0  0  0  0  0  0
  151.1785  142.9111  158.5736 C   0  0  0  0  0  0  0  0  0  0  0  0
  150.3240  143.6758  158.1239 O   0  0  0  0  0  0  0  0  0  0  0  0
  151.5524  141.6877  157.8590 C   0  0  0  0  0  0  0  0  0  0  0  0
  152.4877  140.8214  158.3166 C   0  0  0  0  0  0  0  0  0  0  0  0
  152.6510  139.7472  157.4491 N   0  0  0  0  0  0  0  0  0  0  0  0
  151.7761  140.0344  156.4841 C   0  0  0  0  0  0  0  0  0  0  0  0
  151.0759  141.1747  156.6546 N   0  0  0  0  0  0  0  0  0  0  0  0
  150.0643  141.7123  155.7586 C   0  0  0  0  0  0  0  0  0  0  0  0
  149.4325  140.6299  154.8602 C   0  0  2  0  0  0  0  0  0  0  0  0
  149.7839  140.8610  153.5099 O   0  0  0  0  0  0  0  0  0  0  0  0
  147.9014  140.6010  154.9683 C   0  0  0  0  0  0  0  0  0  0  0  0
  147.3583  141.4980  154.0085 O   0  0  0  0  0  0  0  0  0  0  0  0
  146.4105  142.4073  154.4257 C   0  0  0  0  0  0  0  0  0  0  0  0
  145.9308  143.3178  153.4613 C   0  0  0  0  0  0  0  0  0  0  0  0
  144.9606  144.2812  153.7986 C   0  0  0  0  0  0  0  0  0  0  0  0
  144.4598  144.3446  155.1119 C   0  0  0  0  0  0  0  0  0  0  0  0
  143.5275  145.2704  155.4390 F   0  0  0  0  0  0  0  0  0  0  0  0
  144.9306  143.4433  156.0850 C   0  0  0  0  0  0  0  0  0  0  0  0
  145.8999  142.4787  155.7469 C   0  0  0  0  0  0  0  0  0  0  0  0
  153.1354  141.1071  159.5440 N   0  0  0  0  0  0  0  0  0  0  0  0
  154.1422  140.1478  160.0078 C   0  0  0  0  0  0  0  0  0  0  0  0
  152.8219  142.2393  160.2575 C   0  0  0  0  0  0  0  0  0  0  0  0
  153.3860  142.4857  161.3270 O   0  0  0  0  0  0  0  0  0  0  0  0
  150.7972  144.9541  160.1217 H   0  0  0  0  0  0  0  0  0  0  0  0
  152.4514  144.9031  160.6823 H   0  0  0  0  0  0  0  0  0  0  0  0
  151.1927  144.0104  161.5385 H   0  0  0  0  0  0  0  0  0  0  0  0
  151.6366  139.3915  155.6272 H   0  0  0  0  0  0  0  0  0  0  0  0
  149.3023  142.2110  156.3582 H   0  0  0  0  0  0  0  0  0  0  0  0
  150.5220  142.4899  155.1452 H   0  0  0  0  0  0  0  0  0  0  0  0
  149.8216  139.6486  155.1331 H   0  0  0  0  0  0  0  0  0  0  0  0
  149.5059  140.1185  152.9955 H   0  0  0  0  0  0  0  0  0  0  0  0
  147.5330  139.5868  154.8043 H   0  0  0  0  0  0  0  0  0  0  0  0
  147.5985  140.9147  155.9688 H   0  0  0  0  0  0  0  0  0  0  0  0
  146.3106  143.2761  152.4509 H   0  0  0  0  0  0  0  0  0  0  0  0
  144.6014  144.9712  153.0493 H   0  0  0  0  0  0  0  0  0  0  0  0
  144.5481  143.4913  157.0937 H   0  0  0  0  0  0  0  0  0  0  0  0
  146.2360  141.8054  156.5206 H   0  0  0  0  0  0  0  0  0  0  0  0
  154.6019  140.4024  160.9632 H   0  0  0  0  0  0  0  0  0  0  0  0
  154.9441  140.0675  159.2733 H   0  0  0  0  0  0  0  0  0  0  0  0
  153.6921  139.1607  160.1194 H   0  0  0  0  0  0  0  0  0  0  0  0
  1  2  1  0  0  0  0
  1 26  1  0  0  0  0
  1 27  1  0  0  0  0
  1 28  1  0  0  0  0
  2 24  1  0  0  0  0
  2  3  1  0  0  0  0
  3  4  2  0  0  0  0
  3  5  1  0  0  0  0
  5  9  1  0  0  0  0
  5  6  2  0  0  0  0
  6  7  1  0  0  0  0
  6 22  1  0  0  0  0
  7  8  2  0  0  0  0
  8  9  1  0  0  0  0
  8 29  1  0  0  0  0
  9 10  1  0  0  0  0
 10 11  1  0  0  0  0
 10 30  1  0  0  0  0
 10 31  1  0  0  0  0
 11 12  1  0  0  0  0
 11 13  1  0  0  0  0
 11 32  1  0  0  0  0
 12 33  1  0  0  0  0
 13 14  1  0  0  0  0
 13 34  1  0  0  0  0
 13 35  1  0  0  0  0
 14 15  1  0  0  0  0
 15 21  1  0  0  0  0
 15 16  2  0  0  0  0
 16 17  1  0  0  0  0
 16 36  1  0  0  0  0
 17 18  2  0  0  0  0
 17 37  1  0  0  0  0
 18 19  1  0  0  0  0
 18 20  1  0  0  0  0
 20 21  2  0  0  0  0
 20 38  1  0  0  0  0
 21 39  1  0  0  0  0
 22 23  1  0  0  0  0
 22 24  1  0  0  0  0
 23 40  1  0  0  0  0
 23 41  1  0  0  0  0
 23 42  1  0  0  0  0
 24 25  2  0  0  0  0
M  END
> <s_m_source_file>
AV-unprocessed.smi

> <i_m_source_file_index>
2192

> <i_lp_mmshare_version>
43012

> <i_f3d_flags>
0

> <s_epik_input>
Tz1jMW4oW0NIM10pYyg9TyluKFtDSDNdKWMoYzEyKW5bY0hdbjJbQ0gyXVtDQEhdKFtPSF0pW0NIMl1PYzNbY0hdW2NIXWMoRilbY0hdW2NIXTM=

> <s_epik_cmdline>
J2VwaWtfcHl0aG9uJywgJy1waCcsICc3LjAnLCAnLXRuJywgJzgnLCAnLW1hJywgJzIwMCcsICctbWV0YWxfYmluZGluZycsICctaW1hZScsICc8aW5maWxlLm1hZT4nLCAnLW9tYWUnLCAnPG91dGZpbGUubWFlPic=

> <r_lp_tautomer_probability>
1

> <r_epik_Ionization_Penalty>
1.0344e-06

> <r_epik_Ionization_Penalty_Charging>
3.2247e-09

> <r_epik_Ionization_Penalty_Neutral>
1.03118e-06

> <r_epik_State_Penalty>
-0

> <r_epik_Charging_Adjusted_Penalty>
3.2247e-09

> <i_epik_Tot_Q>
0

> <i_epik_Tot_abs_Q>
0

> <r_epik_Metal_State_Penalty>
-0

> <b_epik_Metal_Only>
0

> <s_lp_Force_Field>
OPLS_2005

> <r_lp_Energy>
38.6998

> <b_lp_Chiralities_Consistent>
1

> <s_lp_Variant>
AV-unprocessed.smi:2192-1

> <Gold.Version>
5.8.1

> <Gold.Id.Protein>
6NUR|6NUR_protein|mol2

> <Gold.PLP.Fitness>
56.7766

> <Gold.PLP.PLP>
-51.8468

> <Gold.PLP.part.hbond>
-3.5016

> <Gold.PLP.part.metal>
0.0000

> <Gold.PLP.part.buried>
-7.7238

> <Gold.PLP.part.nonpolar>
-40.3787

> <Gold.PLP.part.repulsive>
1.1570

> <Gold.PLP.ligand.clash>
0.0000

> <Gold.PLP.ligand.torsion>
1.7475

> <Gold.PLP.Chemscore.Hbond>
2.8000

> <Gold.PLP.Chemscore.CHOScore>
0.0000

> <Gold.PLP.Chemscore.Metal>
0.0000

> <Gold.Chemscore.Hbonds>
donor molecule, donor type, donor heavy atom, donor atom, acceptor molecule, acceptor atom, score
      L1  H    12    33       P1  7957  0.48
      P1  H  7989  7998       L1    12  0.32
      P1  H  7997  8008       L1     7  1.00
      P1  H  8011  8017       L1    12  1.00

> <Gold.PLP.Chemscore.Internal.Correction>
0.0248

> <Gold.Rescore>
     Score         DG    S(hbond)    S(metal)    S(lipo)     H(rot)  DE(clash)    DE(int)     intcor
     11.11     -13.11       1.78        0.00      77.29       2.88       0.21       1.79       ----

> <Gold.Chemscore.Fitness>
11.1148

> <Gold.Chemscore.DG>
-13.1101

> <Gold.Chemscore.ZeroCoef>
-5.4800

> <Gold.Chemscore.Hbond>
1.7817

> <Gold.Chemscore.Metal>
0.0000

> <Gold.Chemscore.Lipo>
77.2857

> <Gold.Chemscore.Internal_Hbond>
0.0000

> <Gold.Chemscore.DEClash>
0.2051

> <Gold.Chemscore.DEInternal>
1.7903

> <Gold.Chemscore.Rot>
2.8762

> <Gold.Chemscore.Internal.Correction>
   9.000000E+99

> <Gold.Chemscore.Hbonds>
donor molecule, donor type, donor heavy atom, donor atom, acceptor molecule, acceptor atom, score
      L1  H    12    33       P1  7957  0.48
      P1  H  7989  7998       L1    12  0.11
      P1  H  7997  8008       L1     7  0.14
      P1  H  8011  8017       L1    12  0.58

> <Gold.Chemscore.Hbond.Weighted>
-5.9508

> <Gold.Chemscore.Metal.Weighted>
-0.0000

> <Gold.Chemscore.Lipo.Weighted>
-9.0424

> <Gold.Chemscore.Internal_Hbond.Weighted>
0.0000

> <Gold.Chemscore.DEClash.Weighted>
0.2051

> <Gold.Chemscore.DEInternal.Weighted>
1.7903

> <Gold.Chemscore.Rot.Weighted>
7.3631

> <Gold.Chemscore.Internal.Correction.Weighted>
   9.000000E+99

> <Gold.Protein.RotatedTorsions>
[ 6907 6896 6895 6894 ] final -163.63 input  -60.11 | X-H torsion
[ 7974 7965 7964 7962 ] final   72.75 input  175.53 | X-H torsion
[ 8008 7997 7996 7995 ] final  -52.23 input   59.86 | X-H torsion
[ 10167 10162 10161 10158 ] final -159.44 input  -65.29 | X-H torsion
[ 10718 10713 10712 10709 ] final  171.90 input   66.30 | X-H torsion
[ 10763 10752 10751 10750 ] final  -27.19 input  -60.55 | X-H torsion
[ 11005 11000 10999 10996 ] final  -52.60 input  -57.11 | X-H torsion

> <Gold.Protein.ActiveResidues>
 VAL166  LYS551  ARG553  GLY616  TRP617  ASP618  TYR619  PRO620  LYS621  CYS622 
 ASP623  PHE694  ASN695  SER759  ASP760  ASP761  ALA762  ILE779  LEU786  VAL792 
 PHE793  MET794  SER795  GLU796  ALA797  LYS798  CYS799  TRP800  GLU811  SER814 

> <Gold.Protein.RotatedAtoms>
  151.3991  133.3763  159.2729 H   0  0  0  0  0  0  0  0  0  0  0  0  # atno 6907 bound_to 6896
  150.9447  134.8854  159.7645 H   0  0  0  0  0  0  0  0  0  0  0  0  # atno 6908 bound_to 6896
  152.5086  134.3943  159.9447 H   0  0  0  0  0  0  0  0  0  0  0  0  # atno 6909 bound_to 6896
  145.7495  139.2754  143.1440 H   0  0  0  0  0  0  0  0  0  0  0  0  # atno 7974 bound_to 7965
  154.4101  140.1229  156.4958 H   0  0  0  0  0  0  0  0  0  0  0  0  # atno 8008 bound_to 7997
  155.6944  140.3495  155.4887 H   0  0  0  0  0  0  0  0  0  0  0  0  # atno 8009 bound_to 7997
  155.9440  140.1092  157.1022 H   0  0  0  0  0  0  0  0  0  0  0  0  # atno 8010 bound_to 7997
  139.6615  143.9905  152.2228 H   0  0  0  0  0  0  0  0  0  0  0  0  # atno 10167 bound_to 10162
  156.9868  131.0135  151.2867 H   0  0  0  0  0  0  0  0  0  0  0  0  # atno 10718 bound_to 10713
  153.7280  135.6940  153.4996 H   0  0  0  0  0  0  0  0  0  0  0  0  # atno 10763 bound_to 10752
  153.2156  135.4387  155.0429 H   0  0  0  0  0  0  0  0  0  0  0  0  # atno 10764 bound_to 10752
  154.8262  135.3447  154.6811 H   0  0  0  0  0  0  0  0  0  0  0  0  # atno 10765 bound_to 10752
  141.0933  133.6629  156.4049 H   0  0  0  0  0  0  0  0  0  0  0  0  # atno 11005 bound_to 11000
  146.0371  140.8202  142.9847 LP  0  0  0  0  0  0  0  0  0  0  0  0  # atno 17320 bound_to 7965
  144.6853  140.2854  143.7286 LP  0  0  0  0  0  0  0  0  0  0  0  0  # atno 17321 bound_to 7965
  139.9645  144.6535  150.8048 LP  0  0  0  0  0  0  0  0  0  0  0  0  # atno 17342 bound_to 10162
  140.7582  143.3102  151.2864 LP  0  0  0  0  0  0  0  0  0  0  0  0  # atno 17343 bound_to 10162
  157.5487  130.8168  149.8118 LP  0  0  0  0  0  0  0  0  0  0  0  0  # atno 17370 bound_to 10713
  156.0223  130.3791  150.1926 LP  0  0  0  0  0  0  0  0  0  0  0  0  # atno 17371 bound_to 10713
  140.5200  134.6313  157.5315 LP  0  0  0  0  0  0  0  0  0  0  0  0  # atno 17394 bound_to 11000
  139.9763  134.7209  155.9943 LP  0  0  0  0  0  0  0  0  0  0  0  0  # atno 17395 bound_to 11000

$$$$
