AV-unprocessed.smi:2119|AV-procd|sdf|8633|dock4
  -GOLD-   2272011383D 1   1.00000     0.00000
 Structure written by MMmdl.
 47 49  0  0  0  0  0  0  0  0  1 V2000
  146.6082  134.4693  154.4984 O   0  0  0  0  0  0  0  0  0  0  0  0
  147.5345  134.1696  153.7460 C   0  0  0  0  0  0  0  0  0  0  0  0
  148.8270  134.2711  154.0846 N   0  0  0  0  0  0  0  0  0  0  0  0
  149.3297  134.7918  155.3508 C   0  0  0  0  0  0  0  0  0  0  0  0
  148.7362  136.1871  155.6928 C   0  0  1  0  0  0  0  0  0  0  0  0
  148.5948  136.4085  157.2282 C   0  0  1  0  0  0  0  0  0  0  0  0
  147.9488  135.2463  157.9669 C   0  0  0  0  0  0  0  0  0  0  0  0
  148.3412  135.5245  159.4111 C   0  0  0  0  0  0  0  0  0  0  0  0
  149.6553  136.0584  159.3343 O   0  0  0  0  0  0  0  0  0  0  0  0
  149.9081  136.5348  158.0154 C   0  0  0  0  0  0  0  0  0  0  0  0
  149.4507  137.3031  155.0472 N   0  0  0  0  0  0  0  0  0  0  0  0
  150.8912  137.3081  155.2876 C   0  0  0  0  0  0  0  0  0  0  0  0
  151.5943  138.4032  154.4675 C   0  0  0  0  0  0  0  0  0  0  0  0
  151.0158  139.6698  154.7682 O   0  0  0  0  0  0  0  0  0  0  0  0
  149.6176  139.7161  154.4994 C   0  0  0  0  0  0  0  0  0  0  0  0
  148.8959  138.6294  155.3147 C   0  0  0  0  0  0  0  0  0  0  0  0
  147.3997  133.6917  152.4973 N   0  0  0  0  0  0  0  0  0  0  0  0
  146.2099  133.4982  151.7445 C   0  0  0  0  0  0  0  0  0  0  0  0
  145.0066  134.0132  152.2694 C   0  0  0  0  0  0  0  0  0  0  0  0
  143.8079  133.8186  151.5575 C   0  0  0  0  0  0  0  0  0  0  0  0
  143.8580  133.1047  150.3448 C   0  0  0  0  0  0  0  0  0  0  0  0
  144.9976  132.5931  149.8342 N   0  0  0  0  0  0  0  0  0  0  0  0
  146.1444  132.7844  150.5216 C   0  0  0  0  0  0  0  0  0  0  0  0
  149.5183  133.9879  153.4058 H   0  0  0  0  0  0  0  0  0  0  0  0
  149.1208  134.0953  156.1645 H   0  0  0  0  0  0  0  0  0  0  0  0
  150.4134  134.8341  155.2539 H   0  0  0  0  0  0  0  0  0  0  0  0
  147.7208  136.2027  155.2937 H   0  0  0  0  0  0  0  0  0  0  0  0
  148.0012  137.3039  157.4186 H   0  0  0  0  0  0  0  0  0  0  0  0
  146.8676  135.1982  157.8319 H   0  0  0  0  0  0  0  0  0  0  0  0
  148.3767  134.2982  157.6377 H   0  0  0  0  0  0  0  0  0  0  0  0
  147.6808  136.2753  159.8473 H   0  0  0  0  0  0  0  0  0  0  0  0
  148.3058  134.6329  160.0371 H   0  0  0  0  0  0  0  0  0  0  0  0
  150.6897  135.9130  157.5774 H   0  0  0  0  0  0  0  0  0  0  0  0
  150.2715  137.5620  158.0479 H   0  0  0  0  0  0  0  0  0  0  0  0
  151.1023  137.4768  156.3429 H   0  0  0  0  0  0  0  0  0  0  0  0
  151.3155  136.3367  155.0316 H   0  0  0  0  0  0  0  0  0  0  0  0
  152.6576  138.4308  154.7055 H   0  0  0  0  0  0  0  0  0  0  0  0
  151.5094  138.2014  153.3985 H   0  0  0  0  0  0  0  0  0  0  0  0
  149.2355  140.7027  154.7606 H   0  0  0  0  0  0  0  0  0  0  0  0
  149.4411  139.5765  153.4317 H   0  0  0  0  0  0  0  0  0  0  0  0
  147.8335  138.6557  155.0752 H   0  0  0  0  0  0  0  0  0  0  0  0
  148.9855  138.8665  156.3754 H   0  0  0  0  0  0  0  0  0  0  0  0
  148.2518  133.4068  152.0370 H   0  0  0  0  0  0  0  0  0  0  0  0
  144.9991  134.5534  153.2049 H   0  0  0  0  0  0  0  0  0  0  0  0
  142.8720  134.2059  151.9325 H   0  0  0  0  0  0  0  0  0  0  0  0
  142.9579  132.9354  149.7725 H   0  0  0  0  0  0  0  0  0  0  0  0
  147.0146  132.3286  150.0764 H   0  0  0  0  0  0  0  0  0  0  0  0
  1  2  2  0  0  0  0
  2  3  1  0  0  0  0
  2 17  1  0  0  0  0
  3  4  1  0  0  0  0
  3 24  1  0  0  0  0
  4  5  1  0  0  0  0
  4 25  1  0  0  0  0
  4 26  1  0  0  0  0
  5  6  1  0  0  0  0
  5 11  1  0  0  0  0
  5 27  1  0  0  0  0
  6 10  1  0  0  0  0
  6  7  1  0  0  0  0
  6 28  1  0  0  0  0
  7  8  1  0  0  0  0
  7 29  1  0  0  0  0
  7 30  1  0  0  0  0
  8  9  1  0  0  0  0
  8 31  1  0  0  0  0
  8 32  1  0  0  0  0
  9 10  1  0  0  0  0
 10 33  1  0  0  0  0
 10 34  1  0  0  0  0
 11 16  1  0  0  0  0
 11 12  1  0  0  0  0
 12 13  1  0  0  0  0
 12 35  1  0  0  0  0
 12 36  1  0  0  0  0
 13 14  1  0  0  0  0
 13 37  1  0  0  0  0
 13 38  1  0  0  0  0
 14 15  1  0  0  0  0
 15 16  1  0  0  0  0
 15 39  1  0  0  0  0
 15 40  1  0  0  0  0
 16 41  1  0  0  0  0
 16 42  1  0  0  0  0
 17 18  1  0  0  0  0
 17 43  1  0  0  0  0
 18 23  1  0  0  0  0
 18 19  2  0  0  0  0
 19 20  1  0  0  0  0
 19 44  1  0  0  0  0
 20 21  2  0  0  0  0
 20 45  1  0  0  0  0
 21 22  1  0  0  0  0
 21 46  1  0  0  0  0
 22 23  2  0  0  0  0
 23 47  1  0  0  0  0
M  END
> <s_m_source_file>
AV-unprocessed.smi

> <i_m_source_file_index>
2119

> <i_lp_mmshare_version>
43012

> <i_f3d_flags>
0

> <s_epik_input>
W2NIXTFuW2NIXVtjSF1bY0hdYzFbTkhdQyg9TylbTkhdW0NIMl1bQ0BIXShbQ0BASF0yW0NIMl1bQ0gyXU9bQ0gyXTIpTjNbQ0gyXVtDSDJdT1tDSDJdW0NIMl0z

> <s_epik_cmdline>
J2VwaWtfcHl0aG9uJywgJy1waCcsICc3LjAnLCAnLXRuJywgJzgnLCAnLW1hJywgJzIwMCcsICctbWV0YWxfYmluZGluZycsICctaW1hZScsICc8aW5maWxlLm1hZT4nLCAnLW9tYWUnLCAnPG91dGZpbGUubWFlPic=

> <r_epik_Ionization_Penalty>
0.129787

> <r_epik_Ionization_Penalty_Charging>
0

> <r_epik_Ionization_Penalty_Neutral>
0.129787

> <r_epik_State_Penalty>
0.121311

> <r_epik_Charging_Adjusted_Penalty>
0.121311

> <i_epik_Tot_Q>
0

> <i_epik_Tot_abs_Q>
0

> <r_epik_Metal_State_Penalty>
0.117931

> <b_epik_Metal_Only>
0

> <s_lp_Force_Field>
OPLS_2005

> <r_lp_Energy>
52.557

> <b_lp_Chiralities_Consistent>
1

> <s_lp_Variant>
AV-unprocessed.smi:2119-4

> <Gold.Version>
5.8.1

> <Gold.Id.Protein>
6NUR|6NUR_protein|mol2

> <Gold.PLP.Fitness>
41.4608

> <Gold.PLP.PLP>
-30.2774

> <Gold.PLP.part.hbond>
-4.0000

> <Gold.PLP.part.metal>
0.0000

> <Gold.PLP.part.buried>
-5.6443

> <Gold.PLP.part.nonpolar>
-20.7945

> <Gold.PLP.part.repulsive>
0.4417

> <Gold.PLP.ligand.clash>
0.0000

> <Gold.PLP.ligand.torsion>
0.5149

> <Gold.PLP.Chemscore.Hbond>
2.0000

> <Gold.PLP.Chemscore.CHOScore>
1.9854

> <Gold.PLP.Chemscore.Metal>
0.0000

> <Gold.Chemscore.Hbonds>
donor molecule, donor type, donor heavy atom, donor atom, acceptor molecule, acceptor atom, score
      P1  H  6896  6909       L1     9  1.00
      P1  H  7989  7998       L1    14  1.00
      L1  C    21    46       P1 10186  0.96
      L1  C    23    47       P1 10747  1.00

> <Gold.PLP.Chemscore.Internal.Correction>
0.2569

> <Gold.Rescore>
     Score         DG    S(hbond)    S(metal)    S(lipo)     H(rot)  DE(clash)    DE(int)     intcor
     11.52     -13.87       1.17        0.00      74.28       1.65       0.39       1.95       ----

> <Gold.Chemscore.Fitness>
11.5238

> <Gold.Chemscore.DG>
-13.8679

> <Gold.Chemscore.ZeroCoef>
-5.4800

> <Gold.Chemscore.Hbond>
1.1748

> <Gold.Chemscore.Metal>
0.0000

> <Gold.Chemscore.Lipo>
74.2765

> <Gold.Chemscore.Internal_Hbond>
0.0000

> <Gold.Chemscore.DEClash>
0.3947

> <Gold.Chemscore.DEInternal>
1.9494

> <Gold.Chemscore.Rot>
1.6508

> <Gold.Chemscore.Internal.Correction>
   9.000000E+99

> <Gold.Chemscore.Hbonds>
donor molecule, donor type, donor heavy atom, donor atom, acceptor molecule, acceptor atom, score
      P1  H  6896  6909       L1     9  0.43
      P1  H  7989  7998       L1    14  0.15

> <Gold.Chemscore.Hbond.Weighted>
-3.9237

> <Gold.Chemscore.Metal.Weighted>
-0.0000

> <Gold.Chemscore.Lipo.Weighted>
-8.6904

> <Gold.Chemscore.Internal_Hbond.Weighted>
0.0000

> <Gold.Chemscore.DEClash.Weighted>
0.3947

> <Gold.Chemscore.DEInternal.Weighted>
1.9494

> <Gold.Chemscore.Rot.Weighted>
4.2262

> <Gold.Chemscore.Internal.Correction.Weighted>
   9.000000E+99

> <Gold.Protein.RotatedTorsions>
[ 6907 6896 6895 6894 ] final   63.28 input  -60.11 | X-H torsion
[ 7974 7965 7964 7962 ] final  -43.08 input  175.53 | X-H torsion
[ 8008 7997 7996 7995 ] final  -63.27 input   59.86 | X-H torsion
[ 10167 10162 10161 10158 ] final    3.60 input  -65.29 | X-H torsion
[ 10718 10713 10712 10709 ] final -154.55 input   66.30 | X-H torsion
[ 10763 10752 10751 10750 ] final -168.64 input  -60.55 | X-H torsion
[ 11005 11000 10999 10996 ] final   56.86 input  -57.11 | X-H torsion

> <Gold.Protein.ActiveResidues>
 VAL166  LYS551  ARG553  GLY616  TRP617  ASP618  TYR619  PRO620  LYS621  CYS622 
 ASP623  PHE694  ASN695  SER759  ASP760  ASP761  ALA762  ILE779  LEU786  VAL792 
 PHE793  MET794  SER795  GLU796  ALA797  LYS798  CYS799  TRP800  GLU811  SER814 

> <Gold.Protein.RotatedAtoms>
  152.4240  134.5902  159.9971 H   0  0  0  0  0  0  0  0  0  0  0  0  # atno 6907 bound_to 6896
  151.6044  133.3347  159.3062 H   0  0  0  0  0  0  0  0  0  0  0  0  # atno 6908 bound_to 6896
  150.8129  134.7331  159.6769 H   0  0  0  0  0  0  0  0  0  0  0  0  # atno 6909 bound_to 6896
  146.0054  140.7027  142.9250 H   0  0  0  0  0  0  0  0  0  0  0  0  # atno 7974 bound_to 7965
  154.4545  140.0978  156.6716 H   0  0  0  0  0  0  0  0  0  0  0  0  # atno 8008 bound_to 7997
  155.5182  140.3478  155.4383 H   0  0  0  0  0  0  0  0  0  0  0  0  # atno 8009 bound_to 7997
  156.0749  140.1358  156.9773 H   0  0  0  0  0  0  0  0  0  0  0  0  # atno 8010 bound_to 7997
  140.6578  143.7383  150.7684 H   0  0  0  0  0  0  0  0  0  0  0  0  # atno 10167 bound_to 10162
  156.5008  130.8390  151.2608 H   0  0  0  0  0  0  0  0  0  0  0  0  # atno 10718 bound_to 10713
  154.6607  135.2924  154.9870 H   0  0  0  0  0  0  0  0  0  0  0  0  # atno 10763 bound_to 10752
  154.0931  135.6588  153.4859 H   0  0  0  0  0  0  0  0  0  0  0  0  # atno 10764 bound_to 10752
  153.0428  135.5224  154.7556 H   0  0  0  0  0  0  0  0  0  0  0  0  # atno 10765 bound_to 10752
  140.0496  134.5755  155.9279 H   0  0  0  0  0  0  0  0  0  0  0  0  # atno 11005 bound_to 11000
  144.6934  140.3305  143.7217 LP  0  0  0  0  0  0  0  0  0  0  0  0  # atno 17320 bound_to 7965
  145.7424  139.1768  143.2368 LP  0  0  0  0  0  0  0  0  0  0  0  0  # atno 17321 bound_to 7965
  140.1046  143.4756  152.2405 LP  0  0  0  0  0  0  0  0  0  0  0  0  # atno 17342 bound_to 10162
  139.5804  144.7508  151.3655 LP  0  0  0  0  0  0  0  0  0  0  0  0  # atno 17343 bound_to 10162
  157.7463  130.9982  150.2845 LP  0  0  0  0  0  0  0  0  0  0  0  0  # atno 17370 bound_to 10713
  156.3335  130.3804  149.7470 LP  0  0  0  0  0  0  0  0  0  0  0  0  # atno 17371 bound_to 10713
  141.1924  133.6575  156.5500 LP  0  0  0  0  0  0  0  0  0  0  0  0  # atno 17394 bound_to 11000
  140.3938  134.7417  157.4738 LP  0  0  0  0  0  0  0  0  0  0  0  0  # atno 17395 bound_to 11000

$$$$
