AV-unprocessed.smi:3248|AV-procd|sdf|12416|dock3
  -GOLD-   2272018303D 1   1.00000     0.00000
 Structure written by MMmdl.
 38 39  0  0  0  0  0  0  0  0  1 V2000
  145.1123  136.8814  154.4061 C   0  0  0  0  0  0  0  0  0  0  0  0
  146.5197  136.2810  154.5197 C   0  0  1  0  0  0  0  0  0  0  0  0
  146.6587  135.0014  153.6688 C   0  0  0  0  0  0  0  0  0  0  0  0
  145.7082  134.9570  152.5712 N   0  0  0  0  0  0  0  0  0  0  0  0
  145.7657  135.6162  151.3616 C   0  0  0  0  0  0  0  0  0  0  0  0
  144.6408  135.2826  150.6637 C   0  0  0  0  0  0  0  0  0  0  0  0
  143.9479  134.4014  151.5398 C   0  0  0  0  0  0  0  0  0  0  0  0
  144.5903  134.2060  152.6798 N   0  0  0  0  0  0  0  0  0  0  0  0
  147.5017  137.2814  154.1042 N   0  0  0  0  0  0  0  0  0  0  0  0
  147.6011  138.5346  154.5812 C   0  0  0  0  0  0  0  0  0  0  0  0
  146.7740  139.0190  155.3537 O   0  0  0  0  0  0  0  0  0  0  0  0
  148.6351  139.2277  154.0459 N   0  0  0  0  0  0  0  0  0  0  0  0
  149.9685  138.6170  153.9410 C   0  0  0  0  0  0  0  0  0  0  0  0
  150.7788  139.0010  155.1946 C   0  0  0  0  0  0  0  0  0  0  0  0
  150.8632  140.4201  155.3012 O   0  0  0  0  0  0  0  0  0  0  0  0
  149.5896  141.0600  155.3527 C   0  0  0  0  0  0  0  0  0  0  0  0
  148.7843  140.6953  154.0892 C   0  0  2  0  0  0  0  0  0  0  0  0
  147.4720  141.4977  153.9661 C   0  0  0  0  0  0  0  0  0  0  0  0
  144.3552  136.1691  154.7353 H   0  0  0  0  0  0  0  0  0  0  0  0
  144.8807  137.1621  153.3781 H   0  0  0  0  0  0  0  0  0  0  0  0
  145.0147  137.7735  155.0257 H   0  0  0  0  0  0  0  0  0  0  0  0
  146.6734  136.0176  155.5676 H   0  0  0  0  0  0  0  0  0  0  0  0
  147.6613  134.9422  153.2435 H   0  0  0  0  0  0  0  0  0  0  0  0
  146.5318  134.1123  154.2891 H   0  0  0  0  0  0  0  0  0  0  0  0
  146.5900  136.2653  151.1049 H   0  0  0  0  0  0  0  0  0  0  0  0
  144.3548  135.6186  149.6783 H   0  0  0  0  0  0  0  0  0  0  0  0
  143.0032  133.9021  151.3833 H   0  0  0  0  0  0  0  0  0  0  0  0
  148.1972  136.9808  153.4369 H   0  0  0  0  0  0  0  0  0  0  0  0
  149.9384  137.5306  153.8491 H   0  0  0  0  0  0  0  0  0  0  0  0
  150.4703  138.9760  153.0416 H   0  0  0  0  0  0  0  0  0  0  0  0
  150.3213  138.5896  156.0954 H   0  0  0  0  0  0  0  0  0  0  0  0
  151.7867  138.5907  155.1335 H   0  0  0  0  0  0  0  0  0  0  0  0
  149.0581  140.7669  156.2595 H   0  0  0  0  0  0  0  0  0  0  0  0
  149.7461  142.1375  155.4074 H   0  0  0  0  0  0  0  0  0  0  0  0
  149.3799  140.9810  153.2201 H   0  0  0  0  0  0  0  0  0  0  0  0
  147.6869  142.5536  153.7999 H   0  0  0  0  0  0  0  0  0  0  0  0
  146.8606  141.4408  154.8662 H   0  0  0  0  0  0  0  0  0  0  0  0
  146.8733  141.1517  153.1232 H   0  0  0  0  0  0  0  0  0  0  0  0
  1  2  1  0  0  0  0
  1 19  1  0  0  0  0
  1 20  1  0  0  0  0
  1 21  1  0  0  0  0
  2  3  1  0  0  0  0
  2  9  1  0  0  0  0
  2 22  1  0  0  0  0
  3  4  1  0  0  0  0
  3 23  1  0  0  0  0
  3 24  1  0  0  0  0
  4  8  1  0  0  0  0
  4  5  1  0  0  0  0
  5  6  2  0  0  0  0
  5 25  1  0  0  0  0
  6  7  1  0  0  0  0
  6 26  1  0  0  0  0
  7  8  2  0  0  0  0
  7 27  1  0  0  0  0
  9 10  1  0  0  0  0
  9 28  1  0  0  0  0
 10 11  2  0  0  0  0
 10 12  1  0  0  0  0
 12 17  1  0  0  0  0
 12 13  1  0  0  0  0
 13 14  1  0  0  0  0
 13 29  1  0  0  0  0
 13 30  1  0  0  0  0
 14 15  1  0  0  0  0
 14 31  1  0  0  0  0
 14 32  1  0  0  0  0
 15 16  1  0  0  0  0
 16 17  1  0  0  0  0
 16 33  1  0  0  0  0
 16 34  1  0  0  0  0
 17 18  1  0  0  0  0
 17 35  1  0  0  0  0
 18 36  1  0  0  0  0
 18 37  1  0  0  0  0
 18 38  1  0  0  0  0
M  END
> <s_m_source_file>
AV-unprocessed.smi

> <i_m_source_file_index>
3248

> <i_lp_mmshare_version>
43012

> <i_f3d_flags>
0

> <s_epik_input>
bjFbY0hdW2NIXVtjSF1uMVtDSDJdW0NAQEhdKFtDSDNdKVtOSF1DKD1PKU4yW0NIMl1bQ0gyXU9bQ0gyXVtDQEhdMltDSDNd

> <s_epik_cmdline>
J2VwaWtfcHl0aG9uJywgJy1waCcsICc3LjAnLCAnLXRuJywgJzgnLCAnLW1hJywgJzIwMCcsICctbWV0YWxfYmluZGluZycsICctaW1hZScsICc8aW5maWxlLm1hZT4nLCAnLW9tYWUnLCAnPG91dGZpbGUubWFlPic=

> <r_lp_tautomer_probability>
1

> <r_epik_Ionization_Penalty>
4.45233e-05

> <r_epik_Ionization_Penalty_Charging>
0

> <r_epik_Ionization_Penalty_Neutral>
4.45233e-05

> <r_epik_State_Penalty>
-0

> <r_epik_Charging_Adjusted_Penalty>
0

> <i_epik_Tot_Q>
0

> <i_epik_Tot_abs_Q>
0

> <r_epik_Metal_State_Penalty>
-0

> <b_epik_Metal_Only>
0

> <s_lp_Force_Field>
OPLS_2005

> <r_lp_Energy>
30.7838

> <b_lp_Chiralities_Consistent>
1

> <s_lp_Variant>
AV-unprocessed.smi:3248-4

> <Gold.Version>
5.8.1

> <Gold.Id.Protein>
6NUR|6NUR_protein|mol2

> <Gold.PLP.Fitness>
36.5005

> <Gold.PLP.PLP>
-26.3953

> <Gold.PLP.part.hbond>
-2.0000

> <Gold.PLP.part.metal>
0.0000

> <Gold.PLP.part.buried>
-0.2432

> <Gold.PLP.part.nonpolar>
-24.4727

> <Gold.PLP.part.repulsive>
0.1565

> <Gold.PLP.ligand.clash>
0.0000

> <Gold.PLP.ligand.torsion>
1.2086

> <Gold.PLP.Chemscore.Hbond>
2.0000

> <Gold.PLP.Chemscore.CHOScore>
2.0000

> <Gold.PLP.Chemscore.Metal>
0.0000

> <Gold.Chemscore.Hbonds>
donor molecule, donor type, donor heavy atom, donor atom, acceptor molecule, acceptor atom, score
      L1  H     9    28       P1  7948  1.00
      P1  H  7989  7998       L1    15  1.00
      L1  C     5    25       P1  7948  1.00
      L1  C     7    27       P1 10186  0.45

> <Gold.PLP.Chemscore.Internal.Correction>
0.5224

> <Gold.Rescore>
     Score         DG    S(hbond)    S(metal)    S(lipo)     H(rot)  DE(clash)    DE(int)     intcor
      8.80     -12.34       1.04        0.00      60.15       1.42       0.08       3.46       ----

> <Gold.Chemscore.Fitness>
8.8012

> <Gold.Chemscore.DG>
-12.3416

> <Gold.Chemscore.ZeroCoef>
-5.4800

> <Gold.Chemscore.Hbond>
1.0351

> <Gold.Chemscore.Metal>
0.0000

> <Gold.Chemscore.Lipo>
60.1488

> <Gold.Chemscore.Internal_Hbond>
0.0000

> <Gold.Chemscore.DEClash>
0.0810

> <Gold.Chemscore.DEInternal>
3.4593

> <Gold.Chemscore.Rot>
1.4191

> <Gold.Chemscore.Internal.Correction>
   9.000000E+99

> <Gold.Chemscore.Hbonds>
donor molecule, donor type, donor heavy atom, donor atom, acceptor molecule, acceptor atom, score
      L1  H     9    28       P1  7948  0.99
      P1  H  7989  7998       L1    15  0.15

> <Gold.Chemscore.Hbond.Weighted>
-3.4571

> <Gold.Chemscore.Metal.Weighted>
-0.0000

> <Gold.Chemscore.Lipo.Weighted>
-7.0374

> <Gold.Chemscore.Internal_Hbond.Weighted>
0.0000

> <Gold.Chemscore.DEClash.Weighted>
0.0810

> <Gold.Chemscore.DEInternal.Weighted>
3.4593

> <Gold.Chemscore.Rot.Weighted>
3.6330

> <Gold.Chemscore.Internal.Correction.Weighted>
   9.000000E+99

> <Gold.Protein.RotatedTorsions>
[ 6907 6896 6895 6894 ] final   91.27 input  -60.11 | X-H torsion
[ 7974 7965 7964 7962 ] final  127.18 input  175.53 | X-H torsion
[ 8008 7997 7996 7995 ] final  -61.55 input   59.86 | X-H torsion
[ 10167 10162 10161 10158 ] final  110.49 input  -65.29 | X-H torsion
[ 10718 10713 10712 10709 ] final  -42.62 input   66.30 | X-H torsion
[ 10763 10752 10751 10750 ] final   81.85 input  -60.55 | X-H torsion
[ 11005 11000 10999 10996 ] final  148.87 input  -57.11 | X-H torsion

> <Gold.Protein.ActiveResidues>
 VAL166  LYS551  ARG553  GLY616  TRP617  ASP618  TYR619  PRO620  LYS621  CYS622 
 ASP623  PHE694  ASN695  SER759  ASP760  ASP761  ALA762  ILE779  LEU786  VAL792 
 PHE793  MET794  SER795  GLU796  ALA797  LYS798  CYS799  TRP800  GLU811  SER814 

> <Gold.Protein.RotatedAtoms>
  152.5449  134.1683  159.8585 H   0  0  0  0  0  0  0  0  0  0  0  0  # atno 6907 bound_to 6896
  151.1695  133.4786  159.2601 H   0  0  0  0  0  0  0  0  0  0  0  0  # atno 6908 bound_to 6896
  151.1289  135.0131  159.8628 H   0  0  0  0  0  0  0  0  0  0  0  0  # atno 6909 bound_to 6896
  145.0535  139.3864  143.5042 H   0  0  0  0  0  0  0  0  0  0  0  0  # atno 7974 bound_to 7965
  154.4453  140.1015  156.6448 H   0  0  0  0  0  0  0  0  0  0  0  0  # atno 8008 bound_to 7997
  155.5462  140.3484  155.4439 H   0  0  0  0  0  0  0  0  0  0  0  0  # atno 8009 bound_to 7997
  156.0561  140.1315  156.9984 H   0  0  0  0  0  0  0  0  0  0  0  0  # atno 8010 bound_to 7997
  139.6684  144.7126  151.1734 H   0  0  0  0  0  0  0  0  0  0  0  0  # atno 10167 bound_to 10162
  156.2577  130.4194  149.8578 H   0  0  0  0  0  0  0  0  0  0  0  0  # atno 10718 bound_to 10713
  153.1152  135.4750  154.9103 H   0  0  0  0  0  0  0  0  0  0  0  0  # atno 10763 bound_to 10752
  154.7521  135.3109  154.8540 H   0  0  0  0  0  0  0  0  0  0  0  0  # atno 10764 bound_to 10752
  153.9119  135.6864  153.4804 H   0  0  0  0  0  0  0  0  0  0  0  0  # atno 10765 bound_to 10752
  140.0996  134.8991  157.1776 H   0  0  0  0  0  0  0  0  0  0  0  0  # atno 11005 bound_to 11000
  146.3519  140.0197  142.8659 LP  0  0  0  0  0  0  0  0  0  0  0  0  # atno 17320 bound_to 7965
  145.1498  140.9617  143.4439 LP  0  0  0  0  0  0  0  0  0  0  0  0  # atno 17321 bound_to 7965
  140.7608  143.5883  150.8823 LP  0  0  0  0  0  0  0  0  0  0  0  0  # atno 17342 bound_to 10162
  139.9546  143.6233  152.3019 LP  0  0  0  0  0  0  0  0  0  0  0  0  # atno 17343 bound_to 10162
  156.6104  130.8584  151.3453 LP  0  0  0  0  0  0  0  0  0  0  0  0  # atno 17370 bound_to 10713
  157.7239  130.9595  150.1550 LP  0  0  0  0  0  0  0  0  0  0  0  0  # atno 17371 bound_to 10713
  140.3238  134.2886  155.7241 LP  0  0  0  0  0  0  0  0  0  0  0  0  # atno 17394 bound_to 11000
  141.2102  133.7727  156.9948 LP  0  0  0  0  0  0  0  0  0  0  0  0  # atno 17395 bound_to 11000

$$$$
