AV-unprocessed.smi:213|AV-procd|sdf|1646|dock9
  -GOLD-   2262020 23D 1   1.00000     0.00000
 Structure written by MMmdl.
 58 61  0  0  0  0  0  0  0  0  1 V2000
  148.2988  141.1125  157.1437 C   0  0  0  0  0  0  0  0  0  0  0  0
  149.6500  141.3636  156.4435 C   0  0  1  0  0  0  0  0  0  0  0  0
  150.8581  140.9268  157.3078 C   0  0  0  0  0  0  0  0  0  0  0  0
  151.2380  141.8427  158.3849 N   0  0  0  0  0  0  0  0  0  0  0  0
  151.5577  143.1634  157.8536 C   0  0  0  0  0  0  0  0  0  0  0  0
  151.9363  144.1565  158.9646 C   0  0  0  0  0  0  0  0  0  0  0  0
  153.0331  143.6379  159.7085 O   0  0  0  0  0  0  0  0  0  0  0  0
  152.7469  142.3702  160.2895 C   0  0  0  0  0  0  0  0  0  0  0  0
  152.3583  141.3659  159.1899 C   0  0  0  0  0  0  0  0  0  0  0  0
  149.6671  140.6882  155.1425 N   0  0  0  0  0  0  0  0  0  0  0  0
  148.8429  141.1732  154.0368 C   0  0  0  0  0  0  0  0  0  0  0  0
  150.2850  139.4859  154.9857 C   0  0  0  0  0  0  0  0  0  0  0  0
  151.6213  139.4926  154.7332 N   0  0  0  0  0  0  0  0  0  0  0  0
  152.2915  138.3478  154.5771 C   0  0  0  0  0  0  0  0  0  0  0  0
  151.8297  137.0981  154.6273 N   0  0  0  0  0  0  0  0  0  0  0  0
  150.4882  137.0785  154.8669 C   0  0  0  0  0  0  0  0  0  0  0  0
  149.6440  138.2112  155.0570 C   0  0  0  0  0  0  0  0  0  0  0  0
  148.3362  137.7812  155.2579 N   0  0  0  0  0  0  0  0  0  0  0  0
  148.4053  136.4802  155.2039 C   0  0  0  0  0  0  0  0  0  0  0  0
  149.6621  135.9738  154.9711 N   0  0  0  0  0  0  0  0  0  0  0  0
  150.0313  134.5738  154.8578 C   0  0  0  0  0  0  0  0  0  0  0  0
  149.6764  133.7660  156.1218 C   0  0  2  0  0  0  0  0  0  0  0  0
  150.5445  134.1429  157.1744 O   0  0  0  0  0  0  0  0  0  0  0  0
  149.7986  132.2474  155.8968 C   0  0  1  0  0  0  0  0  0  0  0  0
  149.3256  131.7701  154.5249 C   0  0  0  0  0  0  0  0  0  0  0  0
  150.0094  130.4244  154.4095 C   0  0  0  0  0  0  0  0  0  0  0  0
  151.3162  130.6334  155.1770 C   0  0  0  0  0  0  0  0  0  0  0  0
  151.1632  131.8475  155.9083 O   0  0  0  0  0  0  0  0  0  0  0  0
  148.2100  141.6652  158.0770 H   0  0  0  0  0  0  0  0  0  0  0  0
  148.1534  140.0589  157.3821 H   0  0  0  0  0  0  0  0  0  0  0  0
  147.4697  141.4240  156.5076 H   0  0  0  0  0  0  0  0  0  0  0  0
  149.7057  142.4378  156.2703 H   0  0  0  0  0  0  0  0  0  0  0  0
  150.6909  139.9252  157.7062 H   0  0  0  0  0  0  0  0  0  0  0  0
  151.7208  140.8302  156.6464 H   0  0  0  0  0  0  0  0  0  0  0  0
  152.3826  143.0865  157.1438 H   0  0  0  0  0  0  0  0  0  0  0  0
  150.7050  143.5559  157.2985 H   0  0  0  0  0  0  0  0  0  0  0  0
  152.2191  145.1174  158.5351 H   0  0  0  0  0  0  0  0  0  0  0  0
  151.0883  144.3372  159.6273 H   0  0  0  0  0  0  0  0  0  0  0  0
  153.6260  142.0191  160.8299 H   0  0  0  0  0  0  0  0  0  0  0  0
  151.9420  142.4720  161.0190 H   0  0  0  0  0  0  0  0  0  0  0  0
  152.0982  140.4248  159.6715 H   0  0  0  0  0  0  0  0  0  0  0  0
  153.2203  141.1725  158.5498 H   0  0  0  0  0  0  0  0  0  0  0  0
  148.3304  140.3500  153.5372 H   0  0  0  0  0  0  0  0  0  0  0  0
  149.4618  141.6910  153.3036 H   0  0  0  0  0  0  0  0  0  0  0  0
  148.0796  141.8675  154.3875 H   0  0  0  0  0  0  0  0  0  0  0  0
  153.3495  138.4482  154.3851 H   0  0  0  0  0  0  0  0  0  0  0  0
  147.5349  135.8524  155.3271 H   0  0  0  0  0  0  0  0  0  0  0  0
  149.5204  134.1601  153.9876 H   0  0  0  0  0  0  0  0  0  0  0  0
  151.1003  134.5097  154.6500 H   0  0  0  0  0  0  0  0  0  0  0  0
  148.6563  134.0034  156.4264 H   0  0  0  0  0  0  0  0  0  0  0  0
  151.3823  133.7287  157.0350 H   0  0  0  0  0  0  0  0  0  0  0  0
  149.2708  131.6991  156.6797 H   0  0  0  0  0  0  0  0  0  0  0  0
  148.2401  131.7031  154.4456 H   0  0  0  0  0  0  0  0  0  0  0  0
  149.6851  132.4398  153.7420 H   0  0  0  0  0  0  0  0  0  0  0  0
  149.4076  129.6586  154.9009 H   0  0  0  0  0  0  0  0  0  0  0  0
  150.1686  130.1176  153.3753 H   0  0  0  0  0  0  0  0  0  0  0  0
  151.5144  129.8012  155.8532 H   0  0  0  0  0  0  0  0  0  0  0  0
  152.1654  130.7297  154.5000 H   0  0  0  0  0  0  0  0  0  0  0  0
  1  2  1  0  0  0  0
  1 29  1  0  0  0  0
  1 30  1  0  0  0  0
  1 31  1  0  0  0  0
  2  3  1  0  0  0  0
  2 10  1  0  0  0  0
  2 32  1  0  0  0  0
  3  4  1  0  0  0  0
  3 33  1  0  0  0  0
  3 34  1  0  0  0  0
  4  9  1  0  0  0  0
  4  5  1  0  0  0  0
  5  6  1  0  0  0  0
  5 35  1  0  0  0  0
  5 36  1  0  0  0  0
  6  7  1  0  0  0  0
  6 37  1  0  0  0  0
  6 38  1  0  0  0  0
  7  8  1  0  0  0  0
  8  9  1  0  0  0  0
  8 39  1  0  0  0  0
  8 40  1  0  0  0  0
  9 41  1  0  0  0  0
  9 42  1  0  0  0  0
 10 11  1  0  0  0  0
 10 12  1  0  0  0  0
 11 43  1  0  0  0  0
 11 44  1  0  0  0  0
 11 45  1  0  0  0  0
 12 17  1  0  0  0  0
 12 13  2  0  0  0  0
 13 14  1  0  0  0  0
 14 15  2  0  0  0  0
 14 46  1  0  0  0  0
 15 16  1  0  0  0  0
 16 20  1  0  0  0  0
 16 17  2  0  0  0  0
 17 18  1  0  0  0  0
 18 19  2  0  0  0  0
 19 20  1  0  0  0  0
 19 47  1  0  0  0  0
 20 21  1  0  0  0  0
 21 22  1  0  0  0  0
 21 48  1  0  0  0  0
 21 49  1  0  0  0  0
 22 23  1  0  0  0  0
 22 24  1  0  0  0  0
 22 50  1  0  0  0  0
 23 51  1  0  0  0  0
 24 28  1  0  0  0  0
 24 25  1  0  0  0  0
 24 52  1  0  0  0  0
 25 26  1  0  0  0  0
 25 53  1  0  0  0  0
 25 54  1  0  0  0  0
 26 27  1  0  0  0  0
 26 55  1  0  0  0  0
 26 56  1  0  0  0  0
 27 28  1  0  0  0  0
 27 57  1  0  0  0  0
 27 58  1  0  0  0  0
M  END
> <s_m_source_file>
AV-unprocessed.smi

> <i_m_source_file_index>
213

> <i_lp_mmshare_version>
43012

> <i_f3d_flags>
0

> <s_epik_input>
W0NIMl0xW0NIMl1PW0NIMl1bQ0gyXU4xW0NIMl1bQ0BASF0oW0NIM10pTihbQ0gzXSljKG5bY0hdbjIpYyhjMjMpbltjSF1uM1tDSDJdW0NASF0oW09IXSlbQ0BASF00W0NIMl1bQ0gyXVtDSDJdTzQ=

> <s_epik_cmdline>
J2VwaWtfcHl0aG9uJywgJy1waCcsICc3LjAnLCAnLXRuJywgJzgnLCAnLW1hJywgJzIwMCcsICctbWV0YWxfYmluZGluZycsICctaW1hZScsICc8aW5maWxlLm1hZT4nLCAnLW9tYWUnLCAnPG91dGZpbGUubWFlPic=

> <r_lp_tautomer_probability>
1

> <r_epik_Ionization_Penalty>
0.423322

> <r_epik_Ionization_Penalty_Charging>
0

> <r_epik_Ionization_Penalty_Neutral>
0.423322

> <r_epik_State_Penalty>
0.569486

> <r_epik_Charging_Adjusted_Penalty>
0.569486

> <i_epik_Tot_Q>
0

> <i_epik_Tot_abs_Q>
0

> <r_epik_Metal_State_Penalty>
0.568671

> <b_epik_Metal_Only>
0

> <s_lp_Force_Field>
OPLS_2005

> <r_lp_Energy>
53.3549

> <b_lp_Chiralities_Consistent>
1

> <s_lp_Variant>
AV-unprocessed.smi:213-14

> <Gold.Version>
5.8.1

> <Gold.Id.Protein>
6NUR|6NUR_protein|mol2

> <Gold.PLP.Fitness>
53.8013

> <Gold.PLP.PLP>
-51.0683

> <Gold.PLP.part.hbond>
-3.0000

> <Gold.PLP.part.metal>
0.0000

> <Gold.PLP.part.buried>
-7.6001

> <Gold.PLP.part.nonpolar>
-40.7137

> <Gold.PLP.part.repulsive>
0.2792

> <Gold.PLP.ligand.clash>
0.0000

> <Gold.PLP.ligand.torsion>
2.4996

> <Gold.PLP.Chemscore.Hbond>
2.4678

> <Gold.PLP.Chemscore.CHOScore>
0.0000

> <Gold.PLP.Chemscore.Metal>
0.0000

> <Gold.Chemscore.Hbonds>
donor molecule, donor type, donor heavy atom, donor atom, acceptor molecule, acceptor atom, score
      P1  H  6896  6909       L1    23  0.28
      P1  H  7989  7998       L1    13  0.95
      P1  H 10752 10764       L1    15  1.00

> <Gold.PLP.Chemscore.Internal.Correction>
0.3287

> <Gold.Rescore>
     Score         DG    S(hbond)    S(metal)    S(lipo)     H(rot)  DE(clash)    DE(int)     intcor
     14.33     -16.65       2.15        0.00      94.10       2.74       0.03       2.29       ----

> <Gold.Chemscore.Fitness>
14.3332

> <Gold.Chemscore.DG>
-16.6545

> <Gold.Chemscore.ZeroCoef>
-5.4800

> <Gold.Chemscore.Hbond>
2.1479

> <Gold.Chemscore.Metal>
0.0000

> <Gold.Chemscore.Lipo>
94.0969

> <Gold.Chemscore.Internal_Hbond>
0.0000

> <Gold.Chemscore.DEClash>
0.0314

> <Gold.Chemscore.DEInternal>
2.2899

> <Gold.Chemscore.Rot>
2.7378

> <Gold.Chemscore.Internal.Correction>
   9.000000E+99

> <Gold.Chemscore.Hbonds>
donor molecule, donor type, donor heavy atom, donor atom, acceptor molecule, acceptor atom, score
      P1  H  6896  6909       L1    23  0.02
      P1  H  7989  7998       L1    13  0.21
      P1  H 10752 10764       L1    15  0.95

> <Gold.Chemscore.Hbond.Weighted>
-7.1739

> <Gold.Chemscore.Metal.Weighted>
-0.0000

> <Gold.Chemscore.Lipo.Weighted>
-11.0093

> <Gold.Chemscore.Internal_Hbond.Weighted>
0.0000

> <Gold.Chemscore.DEClash.Weighted>
0.0314

> <Gold.Chemscore.DEInternal.Weighted>
2.2899

> <Gold.Chemscore.Rot.Weighted>
7.0087

> <Gold.Chemscore.Internal.Correction.Weighted>
   9.000000E+99

> <Gold.Protein.RotatedTorsions>
[ 6907 6896 6895 6894 ] final   11.75 input  -60.11 | X-H torsion
[ 7974 7965 7964 7962 ] final  -84.16 input  175.53 | X-H torsion
[ 8008 7997 7996 7995 ] final   82.24 input   59.86 | X-H torsion
[ 10167 10162 10161 10158 ] final  -40.83 input  -65.29 | X-H torsion
[ 10718 10713 10712 10709 ] final  -80.36 input   66.30 | X-H torsion
[ 10763 10752 10751 10750 ] final  -74.67 input  -60.55 | X-H torsion
[ 11005 11000 10999 10996 ] final   15.30 input  -57.11 | X-H torsion

> <Gold.Protein.ActiveResidues>
 VAL166  LYS551  ARG553  GLY616  TRP617  ASP618  TYR619  PRO620  LYS621  CYS622 
 ASP623  PHE694  ASN695  SER759  ASP760  ASP761  ALA762  ILE779  LEU786  VAL792 
 PHE793  MET794  SER795  GLU796  ALA797  LYS798  CYS799  TRP800  GLU811  SER814 

> <Gold.Protein.RotatedAtoms>
  151.7593  135.0814  160.0342 H   0  0  0  0  0  0  0  0  0  0  0  0  # atno 6907 bound_to 6896
  152.3364  133.6012  159.5854 H   0  0  0  0  0  0  0  0  0  0  0  0  # atno 6908 bound_to 6896
  150.7452  133.9706  159.3586 H   0  0  0  0  0  0  0  0  0  0  0  0  # atno 6909 bound_to 6896
  145.5104  140.9540  143.1711 H   0  0  0  0  0  0  0  0  0  0  0  0  # atno 7974 bound_to 7965
  155.9080  140.3429  155.6077 H   0  0  0  0  0  0  0  0  0  0  0  0  # atno 8008 bound_to 7997
  155.7422  140.0809  157.2259 H   0  0  0  0  0  0  0  0  0  0  0  0  # atno 8009 bound_to 7997
  154.4052  140.1568  156.2616 H   0  0  0  0  0  0  0  0  0  0  0  0  # atno 8010 bound_to 7997
  140.7022  143.3130  151.2980 H   0  0  0  0  0  0  0  0  0  0  0  0  # atno 10167 bound_to 10162
  156.0072  130.4572  150.3788 H   0  0  0  0  0  0  0  0  0  0  0  0  # atno 10718 bound_to 10713
  154.4762  135.5857  153.6356 H   0  0  0  0  0  0  0  0  0  0  0  0  # atno 10763 bound_to 10752
  152.9841  135.6078  154.3304 H   0  0  0  0  0  0  0  0  0  0  0  0  # atno 10764 bound_to 10752
  154.3191  135.2844  155.2507 H   0  0  0  0  0  0  0  0  0  0  0  0  # atno 10765 bound_to 10752
  140.4599  134.1138  155.7715 H   0  0  0  0  0  0  0  0  0  0  0  0  # atno 11005 bound_to 11000
  144.7731  139.6691  143.7186 LP  0  0  0  0  0  0  0  0  0  0  0  0  # atno 17320 bound_to 7965
  146.2170  139.5568  142.9643 LP  0  0  0  0  0  0  0  0  0  0  0  0  # atno 17321 bound_to 7965
  139.6559  144.0277  152.2659 LP  0  0  0  0  0  0  0  0  0  0  0  0  # atno 17342 bound_to 10162
  139.9828  144.6416  150.7885 LP  0  0  0  0  0  0  0  0  0  0  0  0  # atno 17343 bound_to 10162
  157.1869  131.0406  151.2720 LP  0  0  0  0  0  0  0  0  0  0  0  0  # atno 17370 bound_to 10713
  157.4096  130.7378  149.6829 LP  0  0  0  0  0  0  0  0  0  0  0  0  # atno 17371 bound_to 10713
  141.1626  133.8764  157.1805 LP  0  0  0  0  0  0  0  0  0  0  0  0  # atno 17394 bound_to 11000
  139.9952  135.0049  157.0066 LP  0  0  0  0  0  0  0  0  0  0  0  0  # atno 17395 bound_to 11000

$$$$
