AV-unprocessed.smi:1634|AV-procd|sdf|6536|dock1
  -GOLD-   22720 7213D 1   1.00000     0.00000
 Structure written by MMmdl.
 38 38  0  0  0  0  0  0  0  0  1 V2000
  145.5976  136.1862  162.2663 C   0  0  0  0  0  0  0  0  0  0  0  0
  146.8853  135.5039  162.7511 C   0  0  0  0  0  0  0  0  0  0  0  0
  147.9828  136.5437  163.0273 C   0  0  0  0  0  0  0  0  0  0  0  0
  147.3574  134.4397  161.7476 C   0  0  0  0  0  0  0  0  0  0  0  0
  148.0002  135.0821  160.6512 O   0  0  0  0  0  0  0  0  0  0  0  0
  147.5380  134.7003  159.3584 C   0  0  2  0  0  0  0  0  0  0  0  0
  147.5101  133.1655  159.3096 C   0  0  0  0  0  0  0  0  0  0  0  0
  148.4589  135.2776  158.2711 C   0  0  0  0  0  0  0  0  0  0  0  0
  149.6039  134.8415  158.1556 O   0  0  0  0  0  0  0  0  0  0  0  0
  147.9247  136.2709  157.5330 N   0  0  0  0  0  0  0  0  0  0  0  0
  148.4891  137.0160  156.4837 C   0  0  0  0  0  0  0  0  0  0  0  0
  148.8267  138.3307  156.5507 C   0  0  0  0  0  0  0  0  0  0  0  0
  149.4142  139.0352  155.4235 C   0  0  0  0  0  0  0  0  0  0  0  0
  149.7112  140.5255  155.4834 C   0  0  0  0  0  0  0  0  0  0  0  0
  149.2997  141.0547  156.6362 F   0  0  0  0  0  0  0  0  0  0  0  0
  151.0177  140.7587  155.3583 F   0  0  0  0  0  0  0  0  0  0  0  0
  149.0818  141.1527  154.4908 F   0  0  0  0  0  0  0  0  0  0  0  0
  149.6009  138.3192  154.2995 C   0  0  0  0  0  0  0  0  0  0  0  0
  149.2775  136.9624  154.2289 N   0  0  0  0  0  0  0  0  0  0  0  0
  148.7331  136.2572  155.2455 C   0  0  0  0  0  0  0  0  0  0  0  0
  148.4736  135.0628  155.1033 O   0  0  0  0  0  0  0  0  0  0  0  0
  149.4638  136.4910  153.3557 H   0  0  0  0  0  0  0  0  0  0  0  0
  145.7572  136.7112  161.3238 H   0  0  0  0  0  0  0  0  0  0  0  0
  145.2397  136.9133  162.9958 H   0  0  0  0  0  0  0  0  0  0  0  0
  144.8008  135.4582  162.1111 H   0  0  0  0  0  0  0  0  0  0  0  0
  146.6554  134.9993  163.6905 H   0  0  0  0  0  0  0  0  0  0  0  0
  148.2617  137.0771  162.1179 H   0  0  0  0  0  0  0  0  0  0  0  0
  148.8824  136.0735  163.4255 H   0  0  0  0  0  0  0  0  0  0  0  0
  147.6500  137.2818  163.7576 H   0  0  0  0  0  0  0  0  0  0  0  0
  148.0636  133.7611  162.2285 H   0  0  0  0  0  0  0  0  0  0  0  0
  146.5071  133.8417  161.4178 H   0  0  0  0  0  0  0  0  0  0  0  0
  146.5188  135.0649  159.2165 H   0  0  0  0  0  0  0  0  0  0  0  0
  147.1853  132.8062  158.3325 H   0  0  0  0  0  0  0  0  0  0  0  0
  146.8183  132.7681  160.0525 H   0  0  0  0  0  0  0  0  0  0  0  0
  148.4924  132.7382  159.5148 H   0  0  0  0  0  0  0  0  0  0  0  0
  146.9898  136.5553  157.7886 H   0  0  0  0  0  0  0  0  0  0  0  0
  148.6850  138.8978  157.4553 H   0  0  0  0  0  0  0  0  0  0  0  0
  149.9999  138.7227  153.3805 H   0  0  0  0  0  0  0  0  0  0  0  0
  1  2  1  0  0  0  0
  1 23  1  0  0  0  0
  1 24  1  0  0  0  0
  1 25  1  0  0  0  0
  2  3  1  0  0  0  0
  2  4  1  0  0  0  0
  2 26  1  0  0  0  0
  3 27  1  0  0  0  0
  3 28  1  0  0  0  0
  3 29  1  0  0  0  0
  4  5  1  0  0  0  0
  4 30  1  0  0  0  0
  4 31  1  0  0  0  0
  5  6  1  0  0  0  0
  6  7  1  0  0  0  0
  6  8  1  0  0  0  0
  6 32  1  0  0  0  0
  7 33  1  0  0  0  0
  7 34  1  0  0  0  0
  7 35  1  0  0  0  0
  8  9  2  0  0  0  0
  8 10  1  0  0  0  0
 10 11  1  0  0  0  0
 10 36  1  0  0  0  0
 11 20  1  0  0  0  0
 11 12  2  0  0  0  0
 12 13  1  0  0  0  0
 12 37  1  0  0  0  0
 13 14  1  0  0  0  0
 13 18  2  0  0  0  0
 14 15  1  0  0  0  0
 14 16  1  0  0  0  0
 14 17  1  0  0  0  0
 18 19  1  0  0  0  0
 18 38  1  0  0  0  0
 19 22  1  0  0  0  0
 19 20  1  0  0  0  0
 20 21  2  0  0  0  0
M  END
> <s_m_source_file>
AV-unprocessed.smi

> <i_m_source_file_index>
1634

> <i_lp_mmshare_version>
43012

> <i_f3d_flags>
0

> <s_epik_input>
W0NIM11bQ0hdKFtDSDNdKVtDSDJdT1tDQEhdKFtDSDNdKUMoPU8pW05IXWMxW2NIXWMoQyhGKShGKUYpW2NIXVtuSF1jMT1P

> <s_epik_cmdline>
J2VwaWtfcHl0aG9uJywgJy1waCcsICc3LjAnLCAnLXRuJywgJzgnLCAnLW1hJywgJzIwMCcsICctbWV0YWxfYmluZGluZycsICctaW1hZScsICc8aW5maWxlLm1hZT4nLCAnLW9tYWUnLCAnPG91dGZpbGUubWFlPic=

> <r_lp_tautomer_probability>
0.999

> <r_epik_Ionization_Penalty>
0.00884964

> <r_epik_Ionization_Penalty_Charging>
0.00884955

> <r_epik_Ionization_Penalty_Neutral>
9.33956e-08

> <r_epik_State_Penalty>
0.00669049

> <r_epik_Charging_Adjusted_Penalty>
0.01554

> <i_epik_Tot_Q>
0

> <i_epik_Tot_abs_Q>
0

> <r_epik_Metal_State_Penalty>
0.320763

> <b_epik_Metal_Only>
0

> <s_lp_Force_Field>
OPLS_2005

> <r_lp_Energy>
19.4514

> <b_lp_Chiralities_Consistent>
1

> <s_lp_Variant>
AV-unprocessed.smi:1634-1

> <Gold.Version>
5.8.1

> <Gold.Id.Protein>
6NUR|6NUR_protein|mol2

> <Gold.PLP.Fitness>
36.1648

> <Gold.PLP.PLP>
-30.0350

> <Gold.PLP.part.hbond>
-2.0000

> <Gold.PLP.part.metal>
0.0000

> <Gold.PLP.part.buried>
-4.6064

> <Gold.PLP.part.nonpolar>
-23.5869

> <Gold.PLP.part.repulsive>
0.1162

> <Gold.PLP.ligand.clash>
0.0000

> <Gold.PLP.ligand.torsion>
1.4782

> <Gold.PLP.Chemscore.Hbond>
1.9440

> <Gold.PLP.Chemscore.CHOScore>
1.0000

> <Gold.PLP.Chemscore.Metal>
0.0000

> <Gold.Chemscore.Hbonds>
donor molecule, donor type, donor heavy atom, donor atom, acceptor molecule, acceptor atom, score
      L1  H    19    22       P1  7948  0.94
      P1  H  6896  6908       L1     9  1.00
      L1  C    18    38       P1  7957  0.83

> <Gold.PLP.Chemscore.Internal.Correction>
0.2543

> <Gold.Rescore>
     Score         DG    S(hbond)    S(metal)    S(lipo)     H(rot)  DE(clash)    DE(int)     intcor
     12.77     -14.35       1.99        0.00      58.28       1.79       0.08       1.50       ----

> <Gold.Chemscore.Fitness>
12.7659

> <Gold.Chemscore.DG>
-14.3544

> <Gold.Chemscore.ZeroCoef>
-5.4800

> <Gold.Chemscore.Hbond>
1.9853

> <Gold.Chemscore.Metal>
0.0000

> <Gold.Chemscore.Lipo>
58.2807

> <Gold.Chemscore.Internal_Hbond>
0.0000

> <Gold.Chemscore.DEClash>
0.0848

> <Gold.Chemscore.DEInternal>
1.5036

> <Gold.Chemscore.Rot>
1.7873

> <Gold.Chemscore.Internal.Correction>
   9.000000E+99

> <Gold.Chemscore.Hbonds>
donor molecule, donor type, donor heavy atom, donor atom, acceptor molecule, acceptor atom, score
      L1  H    19    22       P1  7948  0.62
      P1  H  6896  6908       L1     9  0.99

> <Gold.Chemscore.Hbond.Weighted>
-6.6310

> <Gold.Chemscore.Metal.Weighted>
-0.0000

> <Gold.Chemscore.Lipo.Weighted>
-6.8188

> <Gold.Chemscore.Internal_Hbond.Weighted>
0.0000

> <Gold.Chemscore.DEClash.Weighted>
0.0848

> <Gold.Chemscore.DEInternal.Weighted>
1.5036

> <Gold.Chemscore.Rot.Weighted>
4.5755

> <Gold.Chemscore.Internal.Correction.Weighted>
   9.000000E+99

> <Gold.Protein.RotatedTorsions>
[ 6907 6896 6895 6894 ] final  153.69 input  -60.11 | X-H torsion
[ 7974 7965 7964 7962 ] final  154.04 input  175.53 | X-H torsion
[ 8008 7997 7996 7995 ] final   12.18 input   59.86 | X-H torsion
[ 10167 10162 10161 10158 ] final   15.31 input  -65.29 | X-H torsion
[ 10718 10713 10712 10709 ] final  -61.22 input   66.30 | X-H torsion
[ 10763 10752 10751 10750 ] final -146.85 input  -60.55 | X-H torsion
[ 11005 11000 10999 10996 ] final  -72.19 input  -57.11 | X-H torsion

> <Gold.Protein.ActiveResidues>
 VAL166  LYS551  ARG553  GLY616  TRP617  ASP618  TYR619  PRO620  LYS621  CYS622 
 ASP623  PHE694  ASN695  SER759  ASP760  ASP761  ALA762  ILE779  LEU786  VAL792 
 PHE793  MET794  SER795  GLU796  ALA797  LYS798  CYS799  TRP800  GLU811  SER814 

> <Gold.Protein.RotatedAtoms>
  152.0692  133.4098  159.4451 H   0  0  0  0  0  0  0  0  0  0  0  0  # atno 6907 bound_to 6896
  150.6864  134.3112  159.4756 H   0  0  0  0  0  0  0  0  0  0  0  0  # atno 6908 bound_to 6896
  152.0941  134.9386  160.0622 H   0  0  0  0  0  0  0  0  0  0  0  0  # atno 6909 bound_to 6896
  144.8114  139.6881  143.6140 H   0  0  0  0  0  0  0  0  0  0  0  0  # atno 7974 bound_to 7965
  154.8171  140.2877  155.5813 H   0  0  0  0  0  0  0  0  0  0  0  0  # atno 8008 bound_to 7997
  156.2994  140.2557  156.3001 H   0  0  0  0  0  0  0  0  0  0  0  0  # atno 8009 bound_to 7997
  154.9381  140.0382  157.2072 H   0  0  0  0  0  0  0  0  0  0  0  0  # atno 8010 bound_to 7997
  140.5876  143.8860  150.6844 H   0  0  0  0  0  0  0  0  0  0  0  0  # atno 10167 bound_to 10162
  156.0937  130.4196  150.0963 H   0  0  0  0  0  0  0  0  0  0  0  0  # atno 10718 bound_to 10713
  154.8315  135.3375  154.6726 H   0  0  0  0  0  0  0  0  0  0  0  0  # atno 10763 bound_to 10752
  153.7345  135.6950  153.4986 H   0  0  0  0  0  0  0  0  0  0  0  0  # atno 10764 bound_to 10752
  153.2288  135.4423  155.0524 H   0  0  0  0  0  0  0  0  0  0  0  0  # atno 10765 bound_to 10752
  141.1604  133.6839  156.7021 H   0  0  0  0  0  0  0  0  0  0  0  0  # atno 11005 bound_to 11000
  146.2413  139.6008  142.9489 LP  0  0  0  0  0  0  0  0  0  0  0  0  # atno 17320 bound_to 7965
  145.5314  141.0427  143.2381 LP  0  0  0  0  0  0  0  0  0  0  0  0  # atno 17321 bound_to 7965
  140.2374  143.3689  152.1515 LP  0  0  0  0  0  0  0  0  0  0  0  0  # atno 17342 bound_to 10162
  139.5207  144.7036  151.5420 LP  0  0  0  0  0  0  0  0  0  0  0  0  # atno 17343 bound_to 10162
  156.8967  130.9606  151.3581 LP  0  0  0  0  0  0  0  0  0  0  0  0  # atno 17370 bound_to 10713
  157.6092  130.8570  149.8925 LP  0  0  0  0  0  0  0  0  0  0  0  0  # atno 17371 bound_to 10713
  140.2951  134.8209  157.4050 LP  0  0  0  0  0  0  0  0  0  0  0  0  # atno 17394 bound_to 11000
  140.1312  134.5093  155.8104 LP  0  0  0  0  0  0  0  0  0  0  0  0  # atno 17395 bound_to 11000

$$$$
