AV-unprocessed.smi:2226|AV-procd|sdf|9006|dock3
  -GOLD-   2272012213D 1   1.00000     0.00000
 Structure written by MMmdl.
 41 43  0  0  0  0  0  0  0  0  3 V2000
  144.7501  134.7705  155.3885 C   0  0  0  0  0  0  0  0  0  0  0  0
  144.2051  134.2103  154.1292 N   0  3  2  0  0  0  0  0  0  0  0  0
  145.2125  133.9560  153.0707 C   0  0  1  0  0  0  0  0  0  0  0  0
  144.6058  132.9874  152.0281 C   0  0  0  0  0  0  0  0  0  0  0  0
  143.2446  133.4456  151.4644 C   0  0  0  0  0  0  0  0  0  0  0  0
  142.3211  134.0349  152.5510 C   0  0  0  0  0  0  0  0  0  0  0  0
  143.0481  134.9483  153.5661 C   0  0  2  0  0  0  0  0  0  0  0  0
  143.4771  136.3298  153.0089 C   0  0  0  0  0  0  0  0  0  0  0  0
  144.6767  136.2850  152.0346 C   0  0  1  0  0  0  0  0  0  0  0  0
  145.2631  137.6212  151.9198 N   0  0  0  0  0  0  0  0  0  0  0  0
  145.8622  138.3033  152.9097 C   0  0  0  0  0  0  0  0  0  0  0  0
  145.9918  137.8752  154.0567 O   0  0  0  0  0  0  0  0  0  0  0  0
  146.2988  139.5023  152.4931 N   0  0  0  0  0  0  0  0  0  0  0  0
  146.9697  140.4576  153.2918 C   0  0  0  0  0  0  0  0  0  0  0  0
  148.2854  140.6646  153.2596 N   0  3  0  0  0  0  0  0  0  0  0  0
  148.5974  141.6563  154.1562 C   0  0  0  0  0  0  0  0  0  0  0  0
  147.4052  142.0328  154.7267 C   0  0  0  0  0  0  0  0  0  0  0  0
  146.3724  141.2879  154.1934 O   0  0  0  0  0  0  0  0  0  0  0  0
  145.7632  135.2816  152.4856 C   0  0  0  0  0  0  0  0  0  0  0  0
  145.1743  135.7645  155.2502 H   0  0  0  0  0  0  0  0  0  0  0  0
  145.5316  134.1219  155.7850 H   0  0  0  0  0  0  0  0  0  0  0  0
  143.9663  134.8397  156.1432 H   0  0  0  0  0  0  0  0  0  0  0  0
  146.0516  133.4296  153.5284 H   0  0  0  0  0  0  0  0  0  0  0  0
  145.3093  132.8144  151.2129 H   0  0  0  0  0  0  0  0  0  0  0  0
  144.4640  132.0180  152.5079 H   0  0  0  0  0  0  0  0  0  0  0  0
  143.3884  134.1609  150.6596 H   0  0  0  0  0  0  0  0  0  0  0  0
  142.7477  132.6002  150.9870 H   0  0  0  0  0  0  0  0  0  0  0  0
  141.4891  134.5658  152.0872 H   0  0  0  0  0  0  0  0  0  0  0  0
  141.8738  133.2056  153.1008 H   0  0  0  0  0  0  0  0  0  0  0  0
  142.3417  135.1305  154.3775 H   0  0  0  0  0  0  0  0  0  0  0  0
  142.6284  136.8160  152.5263 H   0  0  0  0  0  0  0  0  0  0  0  0
  143.7311  136.9703  153.8545 H   0  0  0  0  0  0  0  0  0  0  0  0
  144.3125  135.9777  151.0585 H   0  0  0  0  0  0  0  0  0  0  0  0
  145.2066  138.0595  151.0118 H   0  0  0  0  0  0  0  0  0  0  0  0
  148.9745  140.1936  152.6867 H   0  0  0  0  0  0  0  0  0  0  0  0
  149.6160  141.9890  154.2966 H   0  0  0  0  0  0  0  0  0  0  0  0
  147.1338  142.7632  155.4751 H   0  0  0  0  0  0  0  0  0  0  0  0
  146.3867  135.7529  153.2466 H   0  0  0  0  0  0  0  0  0  0  0  0
  146.4370  135.0699  151.6545 H   0  0  0  0  0  0  0  0  0  0  0  0
  143.8478  133.3015  154.3886 H   0  0  0  0  0  0  0  0  0  0  0  0
  146.1394  139.7532  151.5287 H   0  0  0  0  0  0  0  0  0  0  0  0
  1  2  1  0  0  0  0
  1 20  1  0  0  0  0
  1 21  1  0  0  0  0
  1 22  1  0  0  0  0
  2  7  1  0  0  0  0
  2  3  1  0  0  0  0
  2 40  1  0  0  0  0
  3 19  1  0  0  0  0
  3  4  1  0  0  0  0
  3 23  1  0  0  0  0
  4  5  1  0  0  0  0
  4 24  1  0  0  0  0
  4 25  1  0  0  0  0
  5  6  1  0  0  0  0
  5 26  1  0  0  0  0
  5 27  1  0  0  0  0
  6  7  1  0  0  0  0
  6 28  1  0  0  0  0
  6 29  1  0  0  0  0
  7  8  1  0  0  0  0
  7 30  1  0  0  0  0
  8  9  1  0  0  0  0
  8 31  1  0  0  0  0
  8 32  1  0  0  0  0
  9 10  1  0  0  0  0
  9 19  1  0  0  0  0
  9 33  1  0  0  0  0
 10 34  1  0  0  0  0
 10 11  1  0  0  0  0
 11 13  1  0  0  0  0
 11 12  2  0  0  0  0
 13 14  1  0  0  0  0
 13 41  1  0  0  0  0
 14 18  1  0  0  0  0
 14 15  2  0  0  0  0
 15 35  1  0  0  0  0
 15 16  1  0  0  0  0
 16 36  1  0  0  0  0
 16 17  2  0  0  0  0
 17 37  1  0  0  0  0
 17 18  1  0  0  0  0
 19 38  1  0  0  0  0
 19 39  1  0  0  0  0
M  CHG  1   2   1
M  CHG  1  15   1
M  END
> <s_m_source_file>
AV-unprocessed.smi

> <i_m_source_file_index>
2226

> <i_lp_mmshare_version>
43012

> <i_f3d_flags>
0

> <s_epik_input>
W0NIMl0xW0NIMl1bQ0gyXVtDQEhdKE4oW0NIM10pW0NIXTEyKVtDSDJdW0NASF0oW0NIMl0yKVtOSF1DKD1PKVtOSF1jM25bY0hdW2NIXW8z

> <s_epik_cmdline>
J2VwaWtfcHl0aG9uJywgJy1waCcsICc3LjAnLCAnLXRuJywgJzgnLCAnLW1hJywgJzIwMCcsICctbWV0YWxfYmluZGluZycsICctaW1hZScsICc8aW5maWxlLm1hZT4nLCAnLW9tYWUnLCAnPG91dGZpbGUubWFlPic=

> <r_epik_Ionization_Penalty>
6.92532

> <r_epik_Ionization_Penalty_Charging>
6.82059

> <r_epik_Ionization_Penalty_Neutral>
0.104727

> <r_epik_State_Penalty>
2.17671

> <r_epik_Charging_Adjusted_Penalty>
8.99731

> <i_epik_Tot_Q>
2

> <i_epik_Tot_abs_Q>
2

> <r_epik_Metal_State_Penalty>
2.20618

> <b_epik_Metal_Only>
0

> <s_lp_Force_Field>
OPLS_2005

> <r_lp_Energy>
47.1954

> <b_lp_Chiralities_Consistent>
1

> <s_lp_Variant>
AV-unprocessed.smi:2226-6

> <Gold.Version>
5.8.1

> <Gold.Id.Protein>
6NUR|6NUR_protein|mol2

> <Gold.PLP.Fitness>
39.1460

> <Gold.PLP.PLP>
-27.5589

> <Gold.PLP.part.hbond>
-3.6016

> <Gold.PLP.part.metal>
0.0000

> <Gold.PLP.part.buried>
-0.9193

> <Gold.PLP.part.nonpolar>
-23.1883

> <Gold.PLP.part.repulsive>
0.5051

> <Gold.PLP.ligand.clash>
0.0000

> <Gold.PLP.ligand.torsion>
0.7278

> <Gold.PLP.Chemscore.Hbond>
3.5840

> <Gold.PLP.Chemscore.CHOScore>
0.7613

> <Gold.PLP.Chemscore.Metal>
0.0000

> <Gold.Chemscore.Hbonds>
donor molecule, donor type, donor heavy atom, donor atom, acceptor molecule, acceptor atom, score
      L1  H     2    40       P1 10957  2.00
      L1  H    10    34       P1 10171  0.77
      L1  H    15    35       P1  7957  0.90
      L1  C    17    37       P1  8028  0.49

> <Gold.PLP.Chemscore.Internal.Correction>
0.0066

> <Gold.Rescore>
     Score         DG    S(hbond)    S(metal)    S(lipo)     H(rot)  DE(clash)    DE(int)     intcor
     17.04     -18.47       2.83        0.00      51.96       1.00       0.12       1.31       ----

> <Gold.Chemscore.Fitness>
17.0375

> <Gold.Chemscore.DG>
-18.4668

> <Gold.Chemscore.ZeroCoef>
-5.4800

> <Gold.Chemscore.Hbond>
2.8345

> <Gold.Chemscore.Metal>
0.0000

> <Gold.Chemscore.Lipo>
51.9627

> <Gold.Chemscore.Internal_Hbond>
0.0000

> <Gold.Chemscore.DEClash>
0.1241

> <Gold.Chemscore.DEInternal>
1.3051

> <Gold.Chemscore.Rot>
1.0000

> <Gold.Chemscore.Internal.Correction>
   9.000000E+99

> <Gold.Chemscore.Hbonds>
donor molecule, donor type, donor heavy atom, donor atom, acceptor molecule, acceptor atom, score
      L1  H     2    40       P1 10957  0.98
      L1  H    10    34       P1 10171  0.76
      L1  H    15    35       P1  7957  0.88

> <Gold.Chemscore.Hbond.Weighted>
-9.4671

> <Gold.Chemscore.Metal.Weighted>
-0.0000

> <Gold.Chemscore.Lipo.Weighted>
-6.0796

> <Gold.Chemscore.Internal_Hbond.Weighted>
0.0000

> <Gold.Chemscore.DEClash.Weighted>
0.1241

> <Gold.Chemscore.DEInternal.Weighted>
1.3051

> <Gold.Chemscore.Rot.Weighted>
2.5600

> <Gold.Chemscore.Internal.Correction.Weighted>
   9.000000E+99

> <Gold.Protein.RotatedTorsions>
[ 6907 6896 6895 6894 ] final   40.00 input  -60.11 | X-H torsion
[ 7974 7965 7964 7962 ] final -128.66 input  175.53 | X-H torsion
[ 8008 7997 7996 7995 ] final  114.21 input   59.86 | X-H torsion
[ 10167 10162 10161 10158 ] final   11.70 input  -65.29 | X-H torsion
[ 10718 10713 10712 10709 ] final  -15.40 input   66.30 | X-H torsion
[ 10763 10752 10751 10750 ] final   97.74 input  -60.55 | X-H torsion
[ 11005 11000 10999 10996 ] final  -83.75 input  -57.11 | X-H torsion

> <Gold.Protein.ActiveResidues>
 VAL166  LYS551  ARG553  GLY616  TRP617  ASP618  TYR619  PRO620  LYS621  CYS622 
 ASP623  PHE694  ASN695  SER759  ASP760  ASP761  ALA762  ILE779  LEU786  VAL792 
 PHE793  MET794  SER795  GLU796  ALA797  LYS798  CYS799  TRP800  GLU811  SER814 

> <Gold.Protein.RotatedAtoms>
  152.1769  134.8787  160.0529 H   0  0  0  0  0  0  0  0  0  0  0  0  # atno 6907 bound_to 6896
  151.9726  133.3726  159.4085 H   0  0  0  0  0  0  0  0  0  0  0  0  # atno 6908 bound_to 6896
  150.6911  134.4047  159.5178 H   0  0  0  0  0  0  0  0  0  0  0  0  # atno 6909 bound_to 6896
  144.9648  140.7485  143.4706 H   0  0  0  0  0  0  0  0  0  0  0  0  # atno 7974 bound_to 7965
  156.2307  140.2964  156.0180 H   0  0  0  0  0  0  0  0  0  0  0  0  # atno 8008 bound_to 7997
  155.2234  140.0416  157.2969 H   0  0  0  0  0  0  0  0  0  0  0  0  # atno 8009 bound_to 7997
  154.5990  140.2422  155.7825 H   0  0  0  0  0  0  0  0  0  0  0  0  # atno 8010 bound_to 7997
  140.6115  143.8397  150.7071 H   0  0  0  0  0  0  0  0  0  0  0  0  # atno 10167 bound_to 10162
  156.6023  130.4827  149.6235 H   0  0  0  0  0  0  0  0  0  0  0  0  # atno 10718 bound_to 10713
  153.2805  135.4173  155.1074 H   0  0  0  0  0  0  0  0  0  0  0  0  # atno 10763 bound_to 10752
  154.8488  135.3494  154.6118 H   0  0  0  0  0  0  0  0  0  0  0  0  # atno 10764 bound_to 10752
  153.6539  135.7051  153.5257 H   0  0  0  0  0  0  0  0  0  0  0  0  # atno 10765 bound_to 10752
  141.1655  133.7310  156.8766 H   0  0  0  0  0  0  0  0  0  0  0  0  # atno 11005 bound_to 11000
  145.2646  139.1979  143.4874 LP  0  0  0  0  0  0  0  0  0  0  0  0  # atno 17320 bound_to 7965
  146.3364  140.2582  142.8601 LP  0  0  0  0  0  0  0  0  0  0  0  0  # atno 17321 bound_to 7965
  140.1967  143.3993  152.1823 LP  0  0  0  0  0  0  0  0  0  0  0  0  # atno 17342 bound_to 10162
  139.5365  144.7215  151.4876 LP  0  0  0  0  0  0  0  0  0  0  0  0  # atno 17343 bound_to 10162
  156.2459  130.6878  151.1599 LP  0  0  0  0  0  0  0  0  0  0  0  0  # atno 17370 bound_to 10713
  157.7276  131.0638  150.5857 LP  0  0  0  0  0  0  0  0  0  0  0  0  # atno 17371 bound_to 10713
  140.1744  134.9077  157.2873 LP  0  0  0  0  0  0  0  0  0  0  0  0  # atno 17394 bound_to 11000
  140.2465  134.3733  155.7459 LP  0  0  0  0  0  0  0  0  0  0  0  0  # atno 17395 bound_to 11000

$$$$
