AV-unprocessed.smi:49|AV-procd|sdf|466|dock2
  -GOLD-   2262016333D 1   1.00000     0.00000
 Structure written by MMmdl.
 28 29  0  0  0  0  0  0  0  0  2 V2000
  152.3563  142.6544  159.0067 C   0  0  0  0  0  0  0  0  0  0  0  0
  151.9343  141.2044  158.7467 C   0  0  0  0  0  0  0  0  0  0  0  0
  151.3954  141.0014  157.3687 C   0  0  0  0  0  0  0  0  0  0  0  0
  150.2844  141.5532  156.8920 N   0  0  0  0  0  0  0  0  0  0  0  0
  150.2860  141.0481  155.6220 C   0  0  0  0  0  0  0  0  0  0  0  0
  149.2356  141.4103  154.6186 C   0  0  1  0  0  0  0  0  0  0  0  0
  148.5757  140.1922  153.9504 C   0  0  0  0  0  0  0  0  0  0  0  0
  147.0754  140.5184  153.8912 C   0  0  2  0  0  0  0  0  0  0  0  0
  146.5455  140.3340  152.5953 O   0  0  0  0  0  0  0  0  0  0  0  0
  146.9627  141.9779  154.3403 C   0  0  0  0  0  0  0  0  0  0  0  0
  148.1346  142.1993  155.1987 N   0  3  0  0  0  0  0  0  0  0  0  0
  151.3210  140.2681  155.3067 N   0  0  0  0  0  0  0  0  0  0  0  0
  152.0205  140.2487  156.4610 N   0  0  0  0  0  0  0  0  0  0  0  0
  149.6893  142.0290  153.8426 H   0  0  0  0  0  0  0  0  0  0  0  0
  146.5366  139.8783  154.5912 H   0  0  0  0  0  0  0  0  0  0  0  0
  152.8856  139.7393  156.5760 H   0  0  0  0  0  0  0  0  0  0  0  0
  152.7411  142.7709  160.0200 H   0  0  0  0  0  0  0  0  0  0  0  0
  151.5139  143.3369  158.8899 H   0  0  0  0  0  0  0  0  0  0  0  0
  153.1392  142.9659  158.3147 H   0  0  0  0  0  0  0  0  0  0  0  0
  152.7834  140.5370  158.8994 H   0  0  0  0  0  0  0  0  0  0  0  0
  151.1714  140.9070  159.4670 H   0  0  0  0  0  0  0  0  0  0  0  0
  149.0138  140.0067  152.9686 H   0  0  0  0  0  0  0  0  0  0  0  0
  148.7207  139.2874  154.5426 H   0  0  0  0  0  0  0  0  0  0  0  0
  145.6856  140.7257  152.5601 H   0  0  0  0  0  0  0  0  0  0  0  0
  147.0378  142.6532  153.4863 H   0  0  0  0  0  0  0  0  0  0  0  0
  146.0288  142.1915  154.8609 H   0  0  0  0  0  0  0  0  0  0  0  0
  147.9353  141.8268  156.1163 H   0  0  0  0  0  0  0  0  0  0  0  0
  148.3736  143.1779  155.2697 H   0  0  0  0  0  0  0  0  0  0  0  0
  1  2  1  0  0  0  0
  1 17  1  0  0  0  0
  1 18  1  0  0  0  0
  1 19  1  0  0  0  0
  2  3  1  0  0  0  0
  2 20  1  0  0  0  0
  2 21  1  0  0  0  0
  3 13  1  0  0  0  0
  3  4  2  0  0  0  0
  4  5  1  0  0  0  0
  5  6  1  0  0  0  0
  5 12  2  0  0  0  0
  6 14  1  0  0  0  0
  6 11  1  0  0  0  0
  6  7  1  0  0  0  0
  7  8  1  0  0  0  0
  7 22  1  0  0  0  0
  7 23  1  0  0  0  0
  8 15  1  0  0  0  0
  8  9  1  0  0  0  0
  8 10  1  0  0  0  0
  9 24  1  0  0  0  0
 10 11  1  0  0  0  0
 10 25  1  0  0  0  0
 10 26  1  0  0  0  0
 11 27  1  0  0  0  0
 11 28  1  0  0  0  0
 12 13  1  0  0  0  0
 13 16  1  0  0  0  0
M  CHG  1  11   1
M  END
> <s_m_source_file>
AV-unprocessed.smi

> <i_m_source_file_index>
49

> <i_lp_mmshare_version>
43012

> <i_f3d_flags>
0

> <s_epik_input>
W0NIM11bQ0gyXWMxbmMobltuSF0xKVtDQEBIXTJbQ0gyXVtDQEBIXShbT0hdKVtDSDJdW05IXTI=

> <s_epik_cmdline>
J2VwaWtfcHl0aG9uJywgJy1waCcsICc3LjAnLCAnLXRuJywgJzgnLCAnLW1hJywgJzIwMCcsICctbWV0YWxfYmluZGluZycsICctaW1hZScsICc8aW5maWxlLm1hZT4nLCAnLW9tYWUnLCAnPG91dGZpbGUubWFlPic=

> <r_lp_tautomer_probability>
0.948284

> <r_epik_Ionization_Penalty>
0.045643

> <r_epik_Ionization_Penalty_Charging>
0.0371552

> <r_epik_Ionization_Penalty_Neutral>
0.00848778

> <r_epik_State_Penalty>
0.283309

> <r_epik_Charging_Adjusted_Penalty>
0.320465

> <i_epik_Tot_Q>
1

> <i_epik_Tot_abs_Q>
1

> <r_epik_Metal_State_Penalty>
0.558162

> <b_epik_Metal_Only>
0

> <s_lp_Force_Field>
OPLS_2005

> <r_lp_Energy>
17.9317

> <b_lp_Chiralities_Consistent>
1

> <s_lp_Variant>
AV-unprocessed.smi:49-4

> <Gold.Version>
5.8.1

> <Gold.Id.Protein>
6NUR|6NUR_protein|mol2

> <Gold.PLP.Fitness>
36.8912

> <Gold.PLP.PLP>
-25.1217

> <Gold.PLP.part.hbond>
-3.0000

> <Gold.PLP.part.metal>
0.0000

> <Gold.PLP.part.buried>
-3.0398

> <Gold.PLP.part.nonpolar>
-19.6831

> <Gold.PLP.part.repulsive>
0.3835

> <Gold.PLP.ligand.clash>
0.0000

> <Gold.PLP.ligand.torsion>
0.1111

> <Gold.PLP.Chemscore.Hbond>
3.9920

> <Gold.PLP.Chemscore.CHOScore>
0.0000

> <Gold.PLP.Chemscore.Metal>
0.0000

> <Gold.Chemscore.Hbonds>
donor molecule, donor type, donor heavy atom, donor atom, acceptor molecule, acceptor atom, score
      L1  H     9    24       P1 10175  0.99
      L1  H    11    28       P1  8028  2.00
      P1  H  7989  7998       L1    12  1.00

> <Gold.PLP.Chemscore.Internal.Correction>
0.0157

> <Gold.Rescore>
     Score         DG    S(hbond)    S(metal)    S(lipo)     H(rot)  DE(clash)    DE(int)     intcor
     13.82     -14.31       2.53        0.00      44.47       1.89       0.38       0.11       ----

> <Gold.Chemscore.Fitness>
13.8244

> <Gold.Chemscore.DG>
-14.3147

> <Gold.Chemscore.ZeroCoef>
-5.4800

> <Gold.Chemscore.Hbond>
2.5347

> <Gold.Chemscore.Metal>
0.0000

> <Gold.Chemscore.Lipo>
44.4678

> <Gold.Chemscore.Internal_Hbond>
0.0000

> <Gold.Chemscore.DEClash>
0.3839

> <Gold.Chemscore.DEInternal>
0.1063

> <Gold.Chemscore.Rot>
1.8883

> <Gold.Chemscore.Internal.Correction>
   9.000000E+99

> <Gold.Chemscore.Hbonds>
donor molecule, donor type, donor heavy atom, donor atom, acceptor molecule, acceptor atom, score
      L1  H     9    24       P1 10175  0.27
      L1  H    11    28       P1  8028  0.99
      P1  H  7989  7998       L1    12  0.24

> <Gold.Chemscore.Hbond.Weighted>
-8.4659

> <Gold.Chemscore.Metal.Weighted>
-0.0000

> <Gold.Chemscore.Lipo.Weighted>
-5.2027

> <Gold.Chemscore.Internal_Hbond.Weighted>
0.0000

> <Gold.Chemscore.DEClash.Weighted>
0.3839

> <Gold.Chemscore.DEInternal.Weighted>
0.1063

> <Gold.Chemscore.Rot.Weighted>
4.8340

> <Gold.Chemscore.Internal.Correction.Weighted>
   9.000000E+99

> <Gold.Protein.RotatedTorsions>
[ 6907 6896 6895 6894 ] final   46.10 input  -60.11 | X-H torsion
[ 7974 7965 7964 7962 ] final -120.54 input  175.53 | X-H torsion
[ 8008 7997 7996 7995 ] final -165.75 input   59.86 | X-H torsion
[ 10167 10162 10161 10158 ] final    0.37 input  -65.29 | X-H torsion
[ 10718 10713 10712 10709 ] final    0.09 input   66.30 | X-H torsion
[ 10763 10752 10751 10750 ] final  -79.39 input  -60.55 | X-H torsion
[ 11005 11000 10999 10996 ] final -111.44 input  -57.11 | X-H torsion

> <Gold.Protein.ActiveResidues>
 VAL166  LYS551  ARG553  GLY616  TRP617  ASP618  TYR619  PRO620  LYS621  CYS622 
 ASP623  PHE694  ASN695  SER759  ASP760  ASP761  ALA762  ILE779  LEU786  VAL792 
 PHE793  MET794  SER795  GLU796  ALA797  LYS798  CYS799  TRP800  GLU811  SER814 

> <Gold.Protein.RotatedAtoms>
  152.2524  134.8119  160.0443 H   0  0  0  0  0  0  0  0  0  0  0  0  # atno 6907 bound_to 6896
  151.8795  133.3487  159.3769 H   0  0  0  0  0  0  0  0  0  0  0  0  # atno 6908 bound_to 6896
  150.7088  134.4960  159.5582 H   0  0  0  0  0  0  0  0  0  0  0  0  # atno 6909 bound_to 6896
  145.0503  140.8213  143.4213 H   0  0  0  0  0  0  0  0  0  0  0  0  # atno 7974 bound_to 7965
  155.8542  140.0968  157.1655 H   0  0  0  0  0  0  0  0  0  0  0  0  # atno 8008 bound_to 7997
  154.3987  140.1377  156.3944 H   0  0  0  0  0  0  0  0  0  0  0  0  # atno 8009 bound_to 7997
  155.7927  140.3455  155.5361 H   0  0  0  0  0  0  0  0  0  0  0  0  # atno 8010 bound_to 7997
  140.6731  143.6992  150.7965 H   0  0  0  0  0  0  0  0  0  0  0  0  # atno 10167 bound_to 10162
  156.8282  130.5479  149.5689 H   0  0  0  0  0  0  0  0  0  0  0  0  # atno 10718 bound_to 10713
  154.5381  135.5697  153.6815 H   0  0  0  0  0  0  0  0  0  0  0  0  # atno 10763 bound_to 10752
  152.9956  135.6221  154.2539 H   0  0  0  0  0  0  0  0  0  0  0  0  # atno 10764 bound_to 10752
  154.2469  135.2860  155.2811 H   0  0  0  0  0  0  0  0  0  0  0  0  # atno 10765 bound_to 10752
  141.0734  133.9342  157.2439 H   0  0  0  0  0  0  0  0  0  0  0  0  # atno 11005 bound_to 11000
  145.1536  139.2500  143.5428 LP  0  0  0  0  0  0  0  0  0  0  0  0  # atno 17320 bound_to 7965
  146.3517  140.1245  142.8599 LP  0  0  0  0  0  0  0  0  0  0  0  0  # atno 17321 bound_to 7965
  140.0680  143.5089  152.2594 LP  0  0  0  0  0  0  0  0  0  0  0  0  # atno 17342 bound_to 10162
  139.6010  144.7582  151.3173 LP  0  0  0  0  0  0  0  0  0  0  0  0  # atno 17343 bound_to 10162
  156.0949  130.5925  150.9797 LP  0  0  0  0  0  0  0  0  0  0  0  0  # atno 17370 bound_to 10713
  157.6421  131.0909  150.8230 LP  0  0  0  0  0  0  0  0  0  0  0  0  # atno 17371 bound_to 10713
  139.9547  135.0168  156.9093 LP  0  0  0  0  0  0  0  0  0  0  0  0  # atno 17394 bound_to 11000
  140.5625  134.0521  155.7403 LP  0  0  0  0  0  0  0  0  0  0  0  0  # atno 17395 bound_to 11000

$$$$
