AV-unprocessed.smi:3283|AV-procd|sdf|12571|dock4
  -GOLD-   2272018493D 1   1.00000     0.00000
 Structure written by MMmdl.
 44 45  0  0  0  0  0  0  0  0  2 V2000
  153.0540  140.5425  159.9565 C   0  0  0  0  0  0  0  0  0  0  0  0
  152.6381  141.9939  160.1331 C   0  0  0  0  0  0  0  0  0  0  0  0
  152.5952  142.5541  161.3584 C   0  0  0  0  0  0  0  0  0  0  0  0
  152.2551  144.0076  161.6360 C   0  0  0  0  0  0  0  0  0  0  0  0
  151.7752  144.7650  160.3870 C   0  0  0  0  0  0  0  0  0  0  0  0
  152.5375  144.3162  159.1277 C   0  0  2  0  0  0  0  0  0  0  0  0
  152.2391  145.2196  157.9189 C   0  0  0  0  0  0  0  0  0  0  0  0
  152.3300  142.7980  158.8623 C   0  0  2  0  0  0  0  0  0  0  0  0
  150.9286  142.4737  158.2800 C   0  0  0  0  0  0  0  0  0  0  0  0
  150.8152  142.7828  156.8413 N   0  3  0  0  0  0  0  0  0  0  0  0
  150.4363  141.6300  156.0019 C   0  0  0  0  0  0  0  0  0  0  0  0
  148.9353  141.3307  156.1258 C   0  0  0  0  0  0  0  0  0  0  0  0
  148.3601  140.5697  154.9695 C   0  0  0  0  0  0  0  0  0  0  0  0
  148.6777  139.3393  154.4612 C   0  0  0  0  0  0  0  0  0  0  0  0
  147.7805  139.1682  153.3716 C   0  0  0  0  0  0  0  0  0  0  0  0
  146.9739  140.2020  153.2139 N   0  0  0  0  0  0  0  0  0  0  0  0
  147.3257  141.0633  154.1913 N   0  0  0  0  0  0  0  0  0  0  0  0
  146.6114  142.3226  154.2893 C   0  0  0  0  0  0  0  0  0  0  0  0
  153.8146  140.4535  159.1804 H   0  0  0  0  0  0  0  0  0  0  0  0
  152.2075  139.9116  159.6910 H   0  0  0  0  0  0  0  0  0  0  0  0
  153.4764  140.1422  160.8789 H   0  0  0  0  0  0  0  0  0  0  0  0
  152.8472  141.9610  162.2255 H   0  0  0  0  0  0  0  0  0  0  0  0
  151.5014  144.0622  162.4220 H   0  0  0  0  0  0  0  0  0  0  0  0
  153.1542  144.4829  162.0294 H   0  0  0  0  0  0  0  0  0  0  0  0
  150.7060  144.6030  160.2487 H   0  0  0  0  0  0  0  0  0  0  0  0
  151.8972  145.8370  160.5471 H   0  0  0  0  0  0  0  0  0  0  0  0
  153.5998  144.4520  159.3393 H   0  0  0  0  0  0  0  0  0  0  0  0
  151.1715  145.2809  157.7082 H   0  0  0  0  0  0  0  0  0  0  0  0
  152.7430  144.8587  157.0220 H   0  0  0  0  0  0  0  0  0  0  0  0
  152.5878  146.2363  158.1024 H   0  0  0  0  0  0  0  0  0  0  0  0
  153.0726  142.5108  158.1163 H   0  0  0  0  0  0  0  0  0  0  0  0
  150.6876  141.4214  158.4343 H   0  0  0  0  0  0  0  0  0  0  0  0
  150.1598  143.0544  158.7884 H   0  0  0  0  0  0  0  0  0  0  0  0
  150.1240  143.5096  156.7213 H   0  0  0  0  0  0  0  0  0  0  0  0
  150.6887  141.8451  154.9625 H   0  0  0  0  0  0  0  0  0  0  0  0
  151.0210  140.7611  156.3069 H   0  0  0  0  0  0  0  0  0  0  0  0
  148.7573  140.7674  157.0428 H   0  0  0  0  0  0  0  0  0  0  0  0
  148.3948  142.2718  156.2350 H   0  0  0  0  0  0  0  0  0  0  0  0
  149.4375  138.6570  154.8130 H   0  0  0  0  0  0  0  0  0  0  0  0
  147.6918  138.3299  152.6965 H   0  0  0  0  0  0  0  0  0  0  0  0
  146.9892  142.9235  155.1160 H   0  0  0  0  0  0  0  0  0  0  0  0
  145.5503  142.1313  154.4525 H   0  0  0  0  0  0  0  0  0  0  0  0
  146.7322  142.8860  153.3635 H   0  0  0  0  0  0  0  0  0  0  0  0
  151.7083  143.1307  156.5224 H   0  0  0  0  0  0  0  0  0  0  0  0
  1  2  1  0  0  0  0
  1 19  1  0  0  0  0
  1 20  1  0  0  0  0
  1 21  1  0  0  0  0
  2  8  1  0  0  0  0
  2  3  2  0  0  0  0
  3  4  1  0  0  0  0
  3 22  1  0  0  0  0
  4  5  1  0  0  0  0
  4 23  1  0  0  0  0
  4 24  1  0  0  0  0
  5  6  1  0  0  0  0
  5 25  1  0  0  0  0
  5 26  1  0  0  0  0
  6  7  1  0  0  0  0
  6  8  1  0  0  0  0
  6 27  1  0  0  0  0
  7 28  1  0  0  0  0
  7 29  1  0  0  0  0
  7 30  1  0  0  0  0
  8  9  1  0  0  0  0
  8 31  1  0  0  0  0
  9 10  1  0  0  0  0
  9 32  1  0  0  0  0
  9 33  1  0  0  0  0
 10 11  1  0  0  0  0
 10 34  1  0  0  0  0
 10 44  1  0  0  0  0
 11 12  1  0  0  0  0
 11 35  1  0  0  0  0
 11 36  1  0  0  0  0
 12 13  1  0  0  0  0
 12 37  1  0  0  0  0
 12 38  1  0  0  0  0
 13 17  1  0  0  0  0
 13 14  2  0  0  0  0
 14 15  1  0  0  0  0
 14 39  1  0  0  0  0
 15 16  2  0  0  0  0
 15 40  1  0  0  0  0
 16 17  1  0  0  0  0
 17 18  1  0  0  0  0
 18 41  1  0  0  0  0
 18 42  1  0  0  0  0
 18 43  1  0  0  0  0
M  CHG  1  10   1
M  END
> <s_m_source_file>
AV-unprocessed.smi

> <i_m_source_file_index>
3283

> <i_lp_mmshare_version>
43012

> <i_f3d_flags>
0

> <s_epik_input>
W0NIM11DMT1bQ0hdW0NIMl1bQ0gyXVtDQEBIXShbQ0gzXSlbQ0BIXTFbQ0gyXVtOSF1bQ0gyXVtDSDJdYzJbY0hdW2NIXW5uMltDSDNd

> <s_epik_cmdline>
J2VwaWtfcHl0aG9uJywgJy1waCcsICc3LjAnLCAnLXRuJywgJzgnLCAnLW1hJywgJzIwMCcsICctbWV0YWxfYmluZGluZycsICctaW1hZScsICc8aW5maWxlLm1hZT4nLCAnLW9tYWUnLCAnPG91dGZpbGUubWFlPic=

> <r_lp_tautomer_probability>
1

> <r_epik_Ionization_Penalty>
0.000866911

> <r_epik_Ionization_Penalty_Charging>
0.000836385

> <r_epik_Ionization_Penalty_Neutral>
3.05258e-05

> <r_epik_State_Penalty>
-0

> <r_epik_Charging_Adjusted_Penalty>
0.000836385

> <i_epik_Tot_Q>
1

> <i_epik_Tot_abs_Q>
1

> <r_epik_Metal_State_Penalty>
-0

> <b_epik_Metal_Only>
0

> <s_lp_Force_Field>
OPLS_2005

> <r_lp_Energy>
12.7435

> <b_lp_Chiralities_Consistent>
1

> <s_lp_Variant>
AV-unprocessed.smi:3283-4

> <Gold.Version>
5.8.1

> <Gold.Id.Protein>
6NUR|6NUR_protein|mol2

> <Gold.PLP.Fitness>
53.8916

> <Gold.PLP.PLP>
-46.3675

> <Gold.PLP.part.hbond>
-1.0000

> <Gold.PLP.part.metal>
0.0000

> <Gold.PLP.part.buried>
-5.0676

> <Gold.PLP.part.nonpolar>
-41.8227

> <Gold.PLP.part.repulsive>
0.2517

> <Gold.PLP.ligand.clash>
0.0000

> <Gold.PLP.ligand.torsion>
0.7558

> <Gold.PLP.Chemscore.Hbond>
2.0000

> <Gold.PLP.Chemscore.CHOScore>
1.0000

> <Gold.PLP.Chemscore.Metal>
0.0000

> <Gold.Chemscore.Hbonds>
donor molecule, donor type, donor heavy atom, donor atom, acceptor molecule, acceptor atom, score
      L1  H    10    34       P1  8028  2.00
      L1  C    15    40       P1  7948  0.91

> <Gold.PLP.Chemscore.Internal.Correction>
0.0358

> <Gold.Rescore>
     Score         DG    S(hbond)    S(metal)    S(lipo)     H(rot)  DE(clash)    DE(int)     intcor
     18.51     -20.84       0.98        0.00     135.82       1.48       1.34       0.98       ----

> <Gold.Chemscore.Fitness>
18.5135

> <Gold.Chemscore.DG>
-20.8358

> <Gold.Chemscore.ZeroCoef>
-5.4800

> <Gold.Chemscore.Hbond>
0.9779

> <Gold.Chemscore.Metal>
0.0000

> <Gold.Chemscore.Lipo>
135.8158

> <Gold.Chemscore.Internal_Hbond>
0.0000

> <Gold.Chemscore.DEClash>
1.3415

> <Gold.Chemscore.DEInternal>
0.9808

> <Gold.Chemscore.Rot>
1.4847

> <Gold.Chemscore.Internal.Correction>
   9.000000E+99

> <Gold.Chemscore.Hbonds>
donor molecule, donor type, donor heavy atom, donor atom, acceptor molecule, acceptor atom, score
      L1  H    10    34       P1  8028  0.93

> <Gold.Chemscore.Hbond.Weighted>
-3.2662

> <Gold.Chemscore.Metal.Weighted>
-0.0000

> <Gold.Chemscore.Lipo.Weighted>
-15.8904

> <Gold.Chemscore.Internal_Hbond.Weighted>
0.0000

> <Gold.Chemscore.DEClash.Weighted>
1.3415

> <Gold.Chemscore.DEInternal.Weighted>
0.9808

> <Gold.Chemscore.Rot.Weighted>
3.8008

> <Gold.Chemscore.Internal.Correction.Weighted>
   9.000000E+99

> <Gold.Protein.RotatedTorsions>
[ 6907 6896 6895 6894 ] final    4.02 input  -60.11 | X-H torsion
[ 7974 7965 7964 7962 ] final   88.60 input  175.53 | X-H torsion
[ 8008 7997 7996 7995 ] final  103.33 input   59.86 | X-H torsion
[ 10167 10162 10161 10158 ] final  106.82 input  -65.29 | X-H torsion
[ 10718 10713 10712 10709 ] final -137.45 input   66.30 | X-H torsion
[ 10763 10752 10751 10750 ] final -119.62 input  -60.55 | X-H torsion
[ 11005 11000 10999 10996 ] final    6.22 input  -57.11 | X-H torsion

> <Gold.Protein.ActiveResidues>
 VAL166  LYS551  ARG553  GLY616  TRP617  ASP618  TYR619  PRO620  LYS621  CYS622 
 ASP623  PHE694  ASN695  SER759  ASP760  ASP761  ALA762  ILE779  LEU786  VAL792 
 PHE793  MET794  SER795  GLU796  ALA797  LYS798  CYS799  TRP800  GLU811  SER814 

> <Gold.Protein.RotatedAtoms>
  151.6345  135.1019  160.0128 H   0  0  0  0  0  0  0  0  0  0  0  0  # atno 6907 bound_to 6896
  152.4088  133.6927  159.6388 H   0  0  0  0  0  0  0  0  0  0  0  0  # atno 6908 bound_to 6896
  150.7980  133.8578  159.3264 H   0  0  0  0  0  0  0  0  0  0  0  0  # atno 6909 bound_to 6896
  145.5435  139.2290  143.2553 H   0  0  0  0  0  0  0  0  0  0  0  0  # atno 7974 bound_to 7965
  156.1474  140.3166  155.8593 H   0  0  0  0  0  0  0  0  0  0  0  0  # atno 8008 bound_to 7997
  155.4037  140.0501  157.3052 H   0  0  0  0  0  0  0  0  0  0  0  0  # atno 8009 bound_to 7997
  154.5028  140.2136  155.9323 H   0  0  0  0  0  0  0  0  0  0  0  0  # atno 8010 bound_to 7997
  139.6978  144.7099  151.1238 H   0  0  0  0  0  0  0  0  0  0  0  0  # atno 10167 bound_to 10162
  156.2883  130.7360  151.1378 H   0  0  0  0  0  0  0  0  0  0  0  0  # atno 10718 bound_to 10713
  154.8622  135.4232  154.2327 H   0  0  0  0  0  0  0  0  0  0  0  0  # atno 10763 bound_to 10752
  153.3309  135.6988  153.6954 H   0  0  0  0  0  0  0  0  0  0  0  0  # atno 10764 bound_to 10752
  153.5971  135.3544  155.2905 H   0  0  0  0  0  0  0  0  0  0  0  0  # atno 10765 bound_to 10752
  140.5619  134.0184  155.7975 H   0  0  0  0  0  0  0  0  0  0  0  0  # atno 11005 bound_to 11000
  146.1965  140.6255  142.9122 LP  0  0  0  0  0  0  0  0  0  0  0  0  # atno 17320 bound_to 7965
  144.7565  140.5320  143.6765 LP  0  0  0  0  0  0  0  0  0  0  0  0  # atno 17321 bound_to 7965
  140.7701  143.5467  150.9251 LP  0  0  0  0  0  0  0  0  0  0  0  0  # atno 17342 bound_to 10162
  139.9147  143.6677  152.3108 LP  0  0  0  0  0  0  0  0  0  0  0  0  # atno 17343 bound_to 10162
  157.7335  131.0590  150.5574 LP  0  0  0  0  0  0  0  0  0  0  0  0  # atno 17370 bound_to 10713
  156.5687  130.4274  149.6029 LP  0  0  0  0  0  0  0  0  0  0  0  0  # atno 17371 bound_to 10713
  141.1109  133.9617  157.2911 LP  0  0  0  0  0  0  0  0  0  0  0  0  # atno 17394 bound_to 11000
  139.9404  135.0192  156.8689 LP  0  0  0  0  0  0  0  0  0  0  0  0  # atno 17395 bound_to 11000

$$$$
