AV-unprocessed.smi:843|AV-procd|sdf|3921|dock4
  -GOLD-   22720 1383D 1   1.00000     0.00000
 Structure written by MMmdl.
 46 47  0  0  0  0  0  0  0  0  2 V2000
  145.9570  129.3676  152.3954 C   0  0  0  0  0  0  0  0  0  0  0  0
  145.2526  130.1088  151.2498 C   0  0  0  0  0  0  0  0  0  0  0  0
  145.0743  131.5560  151.5301 N   0  3  2  0  0  0  0  0  0  0  0  0
  144.3624  132.2550  150.4300 C   0  0  0  0  0  0  0  0  0  0  0  0
  144.0654  133.7185  150.7966 C   0  0  0  0  0  0  0  0  0  0  0  0
  145.3506  134.4848  151.1694 C   0  0  1  0  0  0  0  0  0  0  0  0
  145.0878  135.9420  151.6057 C   0  0  0  0  0  0  0  0  0  0  0  0
  146.2923  136.6145  152.0852 N   0  0  0  0  0  0  0  0  0  0  0  0
  146.3325  137.8285  152.6533 C   0  0  0  0  0  0  0  0  0  0  0  0
  145.3371  138.5355  152.8055 O   0  0  0  0  0  0  0  0  0  0  0  0
  147.5881  138.1516  153.0079 N   0  0  0  0  0  0  0  0  0  0  0  0
  148.0873  139.3369  153.6204 C   0  0  0  0  0  0  0  0  0  0  0  0
  147.4122  140.5832  153.6265 C   0  0  0  0  0  0  0  0  0  0  0  0
  148.0098  141.6819  154.2713 C   0  0  0  0  0  0  0  0  0  0  0  0
  149.2590  141.4987  154.8907 C   0  0  0  0  0  0  0  0  0  0  0  0
  149.9116  140.3188  154.8993 N   0  0  0  0  0  0  0  0  0  0  0  0
  149.3376  139.2574  154.2789 C   0  0  0  0  0  0  0  0  0  0  0  0
  150.0077  138.0485  154.2949 O   0  0  0  0  0  0  0  0  0  0  0  0
  151.2759  137.9816  154.9383 C   0  0  0  0  0  0  0  0  0  0  0  0
  146.0840  133.7098  152.2785 C   0  0  0  0  0  0  0  0  0  0  0  0
  146.3429  132.2486  151.8769 C   0  0  0  0  0  0  0  0  0  0  0  0
  145.9840  128.2959  152.1969 H   0  0  0  0  0  0  0  0  0  0  0  0
  145.4340  129.5142  153.3410 H   0  0  0  0  0  0  0  0  0  0  0  0
  146.9878  129.6961  152.5255 H   0  0  0  0  0  0  0  0  0  0  0  0
  145.7931  129.9718  150.3119 H   0  0  0  0  0  0  0  0  0  0  0  0
  144.2738  129.6481  151.1110 H   0  0  0  0  0  0  0  0  0  0  0  0
  144.9622  132.2090  149.5197 H   0  0  0  0  0  0  0  0  0  0  0  0
  143.4224  131.7452  150.2159 H   0  0  0  0  0  0  0  0  0  0  0  0
  143.5682  134.1961  149.9523 H   0  0  0  0  0  0  0  0  0  0  0  0
  143.3607  133.7518  151.6289 H   0  0  0  0  0  0  0  0  0  0  0  0
  145.9988  134.5081  150.2918 H   0  0  0  0  0  0  0  0  0  0  0  0
  144.6246  136.5061  150.7941 H   0  0  0  0  0  0  0  0  0  0  0  0
  144.3685  135.9519  152.4250 H   0  0  0  0  0  0  0  0  0  0  0  0
  147.1602  136.1058  151.9973 H   0  0  0  0  0  0  0  0  0  0  0  0
  148.2938  137.4633  152.7898 H   0  0  0  0  0  0  0  0  0  0  0  0
  146.4510  140.7280  153.1613 H   0  0  0  0  0  0  0  0  0  0  0  0
  147.5189  142.6437  154.2925 H   0  0  0  0  0  0  0  0  0  0  0  0
  149.7455  142.3203  155.3952 H   0  0  0  0  0  0  0  0  0  0  0  0
  151.6594  136.9636  154.8729 H   0  0  0  0  0  0  0  0  0  0  0  0
  151.2022  138.2390  155.9961 H   0  0  0  0  0  0  0  0  0  0  0  0
  152.0013  138.6404  154.4588 H   0  0  0  0  0  0  0  0  0  0  0  0
  147.0326  134.1969  152.5078 H   0  0  0  0  0  0  0  0  0  0  0  0
  145.4964  133.7340  153.1976 H   0  0  0  0  0  0  0  0  0  0  0  0
  146.8372  131.7418  152.7046 H   0  0  0  0  0  0  0  0  0  0  0  0
  147.0271  132.2085  151.0276 H   0  0  0  0  0  0  0  0  0  0  0  0
  144.4729  131.6186  152.3393 H   0  0  0  0  0  0  0  0  0  0  0  0
  1  2  1  0  0  0  0
  1 22  1  0  0  0  0
  1 23  1  0  0  0  0
  1 24  1  0  0  0  0
  2  3  1  0  0  0  0
  2 25  1  0  0  0  0
  2 26  1  0  0  0  0
  3 21  1  0  0  0  0
  3  4  1  0  0  0  0
  3 46  1  0  0  0  0
  4  5  1  0  0  0  0
  4 27  1  0  0  0  0
  4 28  1  0  0  0  0
  5  6  1  0  0  0  0
  5 29  1  0  0  0  0
  5 30  1  0  0  0  0
  6  7  1  0  0  0  0
  6 20  1  0  0  0  0
  6 31  1  0  0  0  0
  7  8  1  0  0  0  0
  7 32  1  0  0  0  0
  7 33  1  0  0  0  0
  8  9  1  0  0  0  0
  8 34  1  0  0  0  0
  9 10  2  0  0  0  0
  9 11  1  0  0  0  0
 11 12  1  0  0  0  0
 11 35  1  0  0  0  0
 12 17  1  0  0  0  0
 12 13  2  0  0  0  0
 13 14  1  0  0  0  0
 13 36  1  0  0  0  0
 14 15  2  0  0  0  0
 14 37  1  0  0  0  0
 15 16  1  0  0  0  0
 15 38  1  0  0  0  0
 16 17  2  0  0  0  0
 17 18  1  0  0  0  0
 18 19  1  0  0  0  0
 19 39  1  0  0  0  0
 19 40  1  0  0  0  0
 19 41  1  0  0  0  0
 20 21  1  0  0  0  0
 20 42  1  0  0  0  0
 20 43  1  0  0  0  0
 21 44  1  0  0  0  0
 21 45  1  0  0  0  0
M  CHG  1   3   1
M  END
> <s_m_source_file>
AV-unprocessed.smi

> <i_m_source_file_index>
843

> <i_lp_mmshare_version>
43012

> <i_f3d_flags>
0

> <s_epik_input>
W0NIM11bQ0gyXU4xW0NIMl1bQ0gyXVtDSF0oW0NIMl1bQ0gyXTEpW0NIMl1bTkhdQyg9TylbTkhdYzJbY0hdW2NIXVtjSF1uYzJPW0NIM10=

> <s_epik_cmdline>
J2VwaWtfcHl0aG9uJywgJy1waCcsICc3LjAnLCAnLXRuJywgJzgnLCAnLW1hJywgJzIwMCcsICctbWV0YWxfYmluZGluZycsICctaW1hZScsICc8aW5maWxlLm1hZT4nLCAnLW9tYWUnLCAnPG91dGZpbGUubWFlPic=

> <r_lp_tautomer_probability>
1

> <r_epik_Ionization_Penalty>
0.00115026

> <r_epik_Ionization_Penalty_Charging>
0.00106265

> <r_epik_Ionization_Penalty_Neutral>
8.76119e-05

> <r_epik_State_Penalty>
0.000695551

> <r_epik_Charging_Adjusted_Penalty>
0.0017582

> <i_epik_Tot_Q>
1

> <i_epik_Tot_abs_Q>
1

> <r_epik_Metal_State_Penalty>
-0

> <b_epik_Metal_Only>
0

> <s_lp_Force_Field>
OPLS_2005

> <r_lp_Energy>
20.0446

> <b_lp_Chiralities_Consistent>
1

> <s_lp_Variant>
AV-unprocessed.smi:843-1

> <Gold.Version>
5.8.1

> <Gold.Id.Protein>
6NUR|6NUR_protein|mol2

> <Gold.PLP.Fitness>
47.3588

> <Gold.PLP.PLP>
-36.0306

> <Gold.PLP.part.hbond>
-3.2963

> <Gold.PLP.part.metal>
0.0000

> <Gold.PLP.part.buried>
-3.1021

> <Gold.PLP.part.nonpolar>
-34.1964

> <Gold.PLP.part.repulsive>
3.7001

> <Gold.PLP.ligand.clash>
0.0000

> <Gold.PLP.ligand.torsion>
0.1496

> <Gold.PLP.Chemscore.Hbond>
2.9360

> <Gold.PLP.Chemscore.CHOScore>
0.9333

> <Gold.PLP.Chemscore.Metal>
0.0000

> <Gold.Chemscore.Hbonds>
donor molecule, donor type, donor heavy atom, donor atom, acceptor molecule, acceptor atom, score
      L1  H     8    34       P1  7948  0.93
      L1  H    11    35       P1  7948  1.00
      P1  H  7989  7998       L1    16  0.33
      L1  C    15    38       P1  8028  0.88

> <Gold.PLP.Chemscore.Internal.Correction>
0.0195

> <Gold.Rescore>
     Score         DG    S(hbond)    S(metal)    S(lipo)     H(rot)  DE(clash)    DE(int)     intcor
     15.90     -19.01       2.09        0.00      92.04       1.65       1.82       1.28       ----

> <Gold.Chemscore.Fitness>
15.9013

> <Gold.Chemscore.DG>
-19.0050

> <Gold.Chemscore.ZeroCoef>
-5.4800

> <Gold.Chemscore.Hbond>
2.0892

> <Gold.Chemscore.Metal>
0.0000

> <Gold.Chemscore.Lipo>
92.0412

> <Gold.Chemscore.Internal_Hbond>
0.0000

> <Gold.Chemscore.DEClash>
1.8192

> <Gold.Chemscore.DEInternal>
1.2845

> <Gold.Chemscore.Rot>
1.6492

> <Gold.Chemscore.Internal.Correction>
   9.000000E+99

> <Gold.Chemscore.Hbonds>
donor molecule, donor type, donor heavy atom, donor atom, acceptor molecule, acceptor atom, score
      L1  H     8    34       P1  7948  0.90
      L1  H    11    35       P1  7948  0.97
      P1  H  7989  7998       L1    16  0.02

> <Gold.Chemscore.Hbond.Weighted>
-6.9781

> <Gold.Chemscore.Metal.Weighted>
-0.0000

> <Gold.Chemscore.Lipo.Weighted>
-10.7688

> <Gold.Chemscore.Internal_Hbond.Weighted>
0.0000

> <Gold.Chemscore.DEClash.Weighted>
1.8192

> <Gold.Chemscore.DEInternal.Weighted>
1.2845

> <Gold.Chemscore.Rot.Weighted>
4.2219

> <Gold.Chemscore.Internal.Correction.Weighted>
   9.000000E+99

> <Gold.Protein.RotatedTorsions>
[ 6907 6896 6895 6894 ] final   42.08 input  -60.11 | X-H torsion
[ 7974 7965 7964 7962 ] final   -4.84 input  175.53 | X-H torsion
[ 8008 7997 7996 7995 ] final -139.71 input   59.86 | X-H torsion
[ 10167 10162 10161 10158 ] final  -94.87 input  -65.29 | X-H torsion
[ 10718 10713 10712 10709 ] final -138.05 input   66.30 | X-H torsion
[ 10763 10752 10751 10750 ] final -173.88 input  -60.55 | X-H torsion
[ 11005 11000 10999 10996 ] final   37.56 input  -57.11 | X-H torsion

> <Gold.Protein.ActiveResidues>
 VAL166  LYS551  ARG553  GLY616  TRP617  ASP618  TYR619  PRO620  LYS621  CYS622 
 ASP623  PHE694  ASN695  SER759  ASP760  ASP761  ALA762  ILE779  LEU786  VAL792 
 PHE793  MET794  SER795  GLU796  ALA797  LYS798  CYS799  TRP800  GLU811  SER814 

> <Gold.Protein.RotatedAtoms>
  152.2034  134.8567  160.0505 H   0  0  0  0  0  0  0  0  0  0  0  0  # atno 6907 bound_to 6896
  151.9412  133.3633  159.3974 H   0  0  0  0  0  0  0  0  0  0  0  0  # atno 6908 bound_to 6896
  150.6960  134.4361  159.5315 H   0  0  0  0  0  0  0  0  0  0  0  0  # atno 6909 bound_to 6896
  146.2364  140.1932  142.8333 H   0  0  0  0  0  0  0  0  0  0  0  0  # atno 7974 bound_to 7965
  155.4493  140.0537  157.3003 H   0  0  0  0  0  0  0  0  0  0  0  0  # atno 8008 bound_to 7997
  154.4784  140.2071  155.9778 H   0  0  0  0  0  0  0  0  0  0  0  0  # atno 8009 bound_to 7997
  156.1168  140.3195  155.8155 H   0  0  0  0  0  0  0  0  0  0  0  0  # atno 8010 bound_to 7997
  140.3100  143.3111  152.0158 H   0  0  0  0  0  0  0  0  0  0  0  0  # atno 10167 bound_to 10162
  156.2949  130.7396  151.1432 H   0  0  0  0  0  0  0  0  0  0  0  0  # atno 10718 bound_to 10713
  154.6027  135.2856  155.0518 H   0  0  0  0  0  0  0  0  0  0  0  0  # atno 10763 bound_to 10752
  154.1777  135.6462  153.5029 H   0  0  0  0  0  0  0  0  0  0  0  0  # atno 10764 bound_to 10752
  153.0163  135.5416  154.6752 H   0  0  0  0  0  0  0  0  0  0  0  0  # atno 10765 bound_to 10752
  140.2213  134.3637  155.8003 H   0  0  0  0  0  0  0  0  0  0  0  0  # atno 11005 bound_to 11000
  144.9841  140.8487  143.5379 LP  0  0  0  0  0  0  0  0  0  0  0  0  # atno 17320 bound_to 7965
  145.1929  139.2292  143.5233 LP  0  0  0  0  0  0  0  0  0  0  0  0  # atno 17321 bound_to 7965
  139.4896  144.6392  151.6913 LP  0  0  0  0  0  0  0  0  0  0  0  0  # atno 17342 bound_to 10162
  140.5577  144.0321  150.6155 LP  0  0  0  0  0  0  0  0  0  0  0  0  # atno 17343 bound_to 10162
  157.7352  131.0574  150.5479 LP  0  0  0  0  0  0  0  0  0  0  0  0  # atno 17370 bound_to 10713
  156.5600  130.4253  149.6067 LP  0  0  0  0  0  0  0  0  0  0  0  0  # atno 17371 bound_to 10713
  141.2223  133.7195  156.8581 LP  0  0  0  0  0  0  0  0  0  0  0  0  # atno 17394 bound_to 11000
  140.1846  134.9009  157.2989 LP  0  0  0  0  0  0  0  0  0  0  0  0  # atno 17395 bound_to 11000

$$$$
