AV-unprocessed.smi:1428|AV-procd|sdf|5817|dock8
  -GOLD-   22720 5473D 1   1.00000     0.00000
 Structure written by MMmdl.
 43 44  0  0  0  0  0  0  0  0  3 V2000
  151.9406  138.5043  154.6719 C   0  0  0  0  0  0  0  0  0  0  0  0
  150.6801  138.3104  154.0396 O   0  0  0  0  0  0  0  0  0  0  0  0
  149.7103  139.2833  154.1905 C   0  0  0  0  0  0  0  0  0  0  0  0
  150.1071  140.5592  154.4256 N   0  0  0  0  0  0  0  0  0  0  0  0
  149.1618  141.5100  154.5707 C   0  0  0  0  0  0  0  0  0  0  0  0
  147.7830  141.2446  154.4842 C   0  0  0  0  0  0  0  0  0  0  0  0
  147.3684  139.9223  154.2400 C   0  0  0  0  0  0  0  0  0  0  0  0
  148.3489  138.9099  154.0999 C   0  0  0  0  0  0  0  0  0  0  0  0
  148.0433  137.5463  153.8349 N   0  0  0  0  0  0  0  0  0  0  0  0
  147.0434  136.7993  154.3323 C   0  0  0  0  0  0  0  0  0  0  0  0
  146.1850  137.1911  155.1224 O   0  0  0  0  0  0  0  0  0  0  0  0
  147.1052  135.5414  153.8725 N   0  0  0  0  0  0  0  0  0  0  0  0
  146.1771  134.4662  154.2213 C   0  0  2  0  0  0  0  0  0  0  0  0
  146.4497  133.1846  153.4086 C   0  0  0  0  0  0  0  0  0  0  0  0
  146.0668  133.3492  151.9275 C   0  0  0  0  0  0  0  0  0  0  0  0
  144.6484  133.7635  151.7844 N   0  3  2  0  0  0  0  0  0  0  0  0
  144.2089  133.7865  150.3667 C   0  0  0  0  0  0  0  0  0  0  0  0
  144.1260  132.3602  149.8109 C   0  0  0  0  0  0  0  0  0  0  0  0
  142.9022  132.0641  149.3336 N   0  5  0  0  0  0  0  0  0  0  0  0
  145.1170  131.6334  149.8506 O   0  0  0  0  0  0  0  0  0  0  0  0
  144.3741  135.0363  152.5044 C   0  0  0  0  0  0  0  0  0  0  0  0
  144.7228  134.9178  153.9997 C   0  0  0  0  0  0  0  0  0  0  0  0
  152.5857  137.6515  154.4606 H   0  0  0  0  0  0  0  0  0  0  0  0
  151.8359  138.5783  155.7553 H   0  0  0  0  0  0  0  0  0  0  0  0
  152.4415  139.3985  154.2982 H   0  0  0  0  0  0  0  0  0  0  0  0
  149.5153  142.5138  154.7549 H   0  0  0  0  0  0  0  0  0  0  0  0
  147.0595  142.0385  154.5975 H   0  0  0  0  0  0  0  0  0  0  0  0
  146.3132  139.7164  154.1513 H   0  0  0  0  0  0  0  0  0  0  0  0
  148.7141  137.0621  153.2562 H   0  0  0  0  0  0  0  0  0  0  0  0
  147.8453  135.3115  153.2253 H   0  0  0  0  0  0  0  0  0  0  0  0
  146.3053  134.2450  155.2824 H   0  0  0  0  0  0  0  0  0  0  0  0
  147.4955  132.8873  153.4937 H   0  0  0  0  0  0  0  0  0  0  0  0
  145.8709  132.3641  153.8343 H   0  0  0  0  0  0  0  0  0  0  0  0
  146.7134  134.0841  151.4452 H   0  0  0  0  0  0  0  0  0  0  0  0
  146.2271  132.4015  151.4122 H   0  0  0  0  0  0  0  0  0  0  0  0
  143.2689  134.3346  150.2714 H   0  0  0  0  0  0  0  0  0  0  0  0
  144.9423  134.3175  149.7582 H   0  0  0  0  0  0  0  0  0  0  0  0
  142.2099  132.8166  149.2379 H   0  0  0  0  0  0  0  0  0  0  0  0
  144.9442  135.8451  152.0449 H   0  0  0  0  0  0  0  0  0  0  0  0
  143.3214  135.3044  152.4086 H   0  0  0  0  0  0  0  0  0  0  0  0
  144.0499  134.1950  154.4632 H   0  0  0  0  0  0  0  0  0  0  0  0
  144.5398  135.8675  154.5042 H   0  0  0  0  0  0  0  0  0  0  0  0
  144.0944  133.0465  152.2313 H   0  0  0  0  0  0  0  0  0  0  0  0
  1  2  1  0  0  0  0
  1 23  1  0  0  0  0
  1 24  1  0  0  0  0
  1 25  1  0  0  0  0
  2  3  1  0  0  0  0
  3  8  1  0  0  0  0
  3  4  2  0  0  0  0
  4  5  1  0  0  0  0
  5  6  2  0  0  0  0
  5 26  1  0  0  0  0
  6  7  1  0  0  0  0
  6 27  1  0  0  0  0
  7  8  2  0  0  0  0
  7 28  1  0  0  0  0
  8  9  1  0  0  0  0
  9 10  1  0  0  0  0
  9 29  1  0  0  0  0
 10 11  2  0  0  0  0
 10 12  1  0  0  0  0
 12 13  1  0  0  0  0
 12 30  1  0  0  0  0
 13 22  1  0  0  0  0
 13 14  1  0  0  0  0
 13 31  1  0  0  0  0
 14 15  1  0  0  0  0
 14 32  1  0  0  0  0
 14 33  1  0  0  0  0
 15 16  1  0  0  0  0
 15 34  1  0  0  0  0
 15 35  1  0  0  0  0
 16 17  1  0  0  0  0
 16 21  1  0  0  0  0
 16 43  1  0  0  0  0
 17 18  1  0  0  0  0
 17 36  1  0  0  0  0
 17 37  1  0  0  0  0
 18 19  1  0  0  0  0
 18 20  2  0  0  0  0
 19 38  1  0  0  0  0
 21 22  1  0  0  0  0
 21 39  1  0  0  0  0
 21 40  1  0  0  0  0
 22 41  1  0  0  0  0
 22 42  1  0  0  0  0
M  CHG  1  16   1
M  CHG  1  19  -1
M  END
> <s_m_source_file>
AV-unprocessed.smi

> <i_m_source_file_index>
1428

> <i_lp_mmshare_version>
43012

> <i_f3d_flags>
0

> <s_epik_input>
W0NIM11PYzFuW2NIXVtjSF1bY0hdYzFbTkhdQyg9TylbTkhdW0NIXTJbQ0gyXVtDSDJdTihbQ0gyXVtDSDJdMilbQ0gyXUMoPU8pW05IMl0=

> <s_epik_cmdline>
J2VwaWtfcHl0aG9uJywgJy1waCcsICc3LjAnLCAnLXRuJywgJzgnLCAnLW1hJywgJzIwMCcsICctbWV0YWxfYmluZGluZycsICctaW1hZScsICc8aW5maWxlLm1hZT4nLCAnLW9tYWUnLCAnPG91dGZpbGUubWFlPic=

> <r_lp_tautomer_probability>
1

> <r_epik_Ionization_Penalty>
5.72888

> <r_epik_Ionization_Penalty_Charging>
5.7288

> <r_epik_Ionization_Penalty_Neutral>
7.84403e-05

> <r_epik_State_Penalty>
6.54882

> <r_epik_Charging_Adjusted_Penalty>
12.2776

> <i_epik_Tot_Q>
0

> <i_epik_Tot_abs_Q>
2

> <r_epik_Metal_State_Penalty>
2.51301

> <b_epik_Metal_Only>
1

> <s_lp_Force_Field>
OPLS_2005

> <r_lp_Energy>
10.1368

> <b_lp_Chiralities_Consistent>
1

> <s_lp_Variant>
AV-unprocessed.smi:1428-5

> <Gold.Version>
5.8.1

> <Gold.Id.Protein>
6NUR|6NUR_protein|mol2

> <Gold.PLP.Fitness>
48.7450

> <Gold.PLP.PLP>
-33.5757

> <Gold.PLP.part.hbond>
-6.4020

> <Gold.PLP.part.metal>
0.0000

> <Gold.PLP.part.buried>
-6.6190

> <Gold.PLP.part.nonpolar>
-22.1398

> <Gold.PLP.part.repulsive>
0.5245

> <Gold.PLP.ligand.clash>
0.0000

> <Gold.PLP.ligand.torsion>
0.8052

> <Gold.PLP.Chemscore.Hbond>
4.5828

> <Gold.PLP.Chemscore.CHOScore>
1.0000

> <Gold.PLP.Chemscore.Metal>
0.0000

> <Gold.Chemscore.Hbonds>
donor molecule, donor type, donor heavy atom, donor atom, acceptor molecule, acceptor atom, score
      L1  H     9    29       P1  7948  0.94
      L1  H    12    30       P1  7948  0.78
      L1  H    19    38       P1 10186  1.00
      P1  H  7989  7998       L1     4  0.85
      P1  H 10785 10796       L1    19  0.99
      L1  C     5    26       P1  8028  1.00

> <Gold.PLP.Chemscore.Internal.Correction>
0.0315

> <Gold.Rescore>
     Score         DG    S(hbond)    S(metal)    S(lipo)     H(rot)  DE(clash)    DE(int)     intcor
     15.45     -18.04       3.77        0.00      49.73       2.29       0.04       2.56       ----

> <Gold.Chemscore.Fitness>
15.4451

> <Gold.Chemscore.DG>
-18.0430

> <Gold.Chemscore.ZeroCoef>
-5.4800

> <Gold.Chemscore.Hbond>
3.7740

> <Gold.Chemscore.Metal>
0.0000

> <Gold.Chemscore.Lipo>
49.7323

> <Gold.Chemscore.Internal_Hbond>
0.0000

> <Gold.Chemscore.DEClash>
0.0411

> <Gold.Chemscore.DEInternal>
2.5568

> <Gold.Chemscore.Rot>
2.2894

> <Gold.Chemscore.Internal.Correction>
   9.000000E+99

> <Gold.Chemscore.Hbonds>
donor molecule, donor type, donor heavy atom, donor atom, acceptor molecule, acceptor atom, score
      L1  H     9    29       P1  7948  0.90
      L1  H    12    30       P1  7948  0.76
      L1  H    19    38       P1 10186  0.94
      P1  H  7989  7998       L1     4  0.57
      P1  H 10785 10796       L1    19  0.28

> <Gold.Chemscore.Hbond.Weighted>
-12.6051

> <Gold.Chemscore.Metal.Weighted>
-0.0000

> <Gold.Chemscore.Lipo.Weighted>
-5.8187

> <Gold.Chemscore.Internal_Hbond.Weighted>
0.0000

> <Gold.Chemscore.DEClash.Weighted>
0.0411

> <Gold.Chemscore.DEInternal.Weighted>
2.5568

> <Gold.Chemscore.Rot.Weighted>
5.8608

> <Gold.Chemscore.Internal.Correction.Weighted>
   9.000000E+99

> <Gold.Protein.RotatedTorsions>
[ 6907 6896 6895 6894 ] final  -26.12 input  -60.11 | X-H torsion
[ 7974 7965 7964 7962 ] final  140.47 input  175.53 | X-H torsion
[ 8008 7997 7996 7995 ] final  -92.93 input   59.86 | X-H torsion
[ 10167 10162 10161 10158 ] final -144.15 input  -65.29 | X-H torsion
[ 10718 10713 10712 10709 ] final  -40.17 input   66.30 | X-H torsion
[ 10763 10752 10751 10750 ] final   95.94 input  -60.55 | X-H torsion
[ 11005 11000 10999 10996 ] final  102.95 input  -57.11 | X-H torsion

> <Gold.Protein.ActiveResidues>
 VAL166  LYS551  ARG553  GLY616  TRP617  ASP618  TYR619  PRO620  LYS621  CYS622 
 ASP623  PHE694  ASN695  SER759  ASP760  ASP761  ALA762  ILE779  LEU786  VAL792 
 PHE793  MET794  SER795  GLU796  ALA797  LYS798  CYS799  TRP800  GLU811  SER814 

> <Gold.Protein.RotatedAtoms>
  151.1655  135.0293  159.8728 H   0  0  0  0  0  0  0  0  0  0  0  0  # atno 6907 bound_to 6896
  152.5450  134.1231  159.8417 H   0  0  0  0  0  0  0  0  0  0  0  0  # atno 6908 bound_to 6896
  151.1330  133.4977  159.2631 H   0  0  0  0  0  0  0  0  0  0  0  0  # atno 6909 bound_to 6896
  144.9184  139.5201  143.5675 H   0  0  0  0  0  0  0  0  0  0  0  0  # atno 7974 bound_to 7965
  154.7293  140.0504  157.0712 H   0  0  0  0  0  0  0  0  0  0  0  0  # atno 8008 bound_to 7997
  155.0323  140.3159  155.4735 H   0  0  0  0  0  0  0  0  0  0  0  0  # atno 8009 bound_to 7997
  156.2837  140.2148  156.5444 H   0  0  0  0  0  0  0  0  0  0  0  0  # atno 8010 bound_to 7997
  139.7926  143.7945  152.2651 H   0  0  0  0  0  0  0  0  0  0  0  0  # atno 10167 bound_to 10162
  156.2843  130.4221  149.8304 H   0  0  0  0  0  0  0  0  0  0  0  0  # atno 10718 bound_to 10713
  153.2591  135.4236  155.0875 H   0  0  0  0  0  0  0  0  0  0  0  0  # atno 10763 bound_to 10752
  154.8413  135.3444  154.6403 H   0  0  0  0  0  0  0  0  0  0  0  0  # atno 10764 bound_to 10752
  153.6824  135.7038  153.5171 H   0  0  0  0  0  0  0  0  0  0  0  0  # atno 10765 bound_to 10752
  139.8780  134.9244  156.5136 H   0  0  0  0  0  0  0  0  0  0  0  0  # atno 11005 bound_to 11000
  146.3193  139.8044  142.8959 LP  0  0  0  0  0  0  0  0  0  0  0  0  # atno 17320 bound_to 7965
  145.3338  141.0272  143.3431 LP  0  0  0  0  0  0  0  0  0  0  0  0  # atno 17321 bound_to 7965
  139.8041  144.7362  150.9785 LP  0  0  0  0  0  0  0  0  0  0  0  0  # atno 17342 bound_to 10162
  140.7820  143.4316  151.0686 LP  0  0  0  0  0  0  0  0  0  0  0  0  # atno 17343 bound_to 10162
  156.5740  130.8437  151.3364 LP  0  0  0  0  0  0  0  0  0  0  0  0  # atno 17370 bound_to 10713
  157.7324  130.9714  150.1926 LP  0  0  0  0  0  0  0  0  0  0  0  0  # atno 17371 bound_to 10713
  140.8502  133.8138  155.9161 LP  0  0  0  0  0  0  0  0  0  0  0  0  # atno 17394 bound_to 11000
  140.9152  134.2211  157.4961 LP  0  0  0  0  0  0  0  0  0  0  0  0  # atno 17395 bound_to 11000

$$$$
