AV-unprocessed.smi:561|AV-procd|sdf|2941|dock7
  -GOLD-   2262023443D 1   1.00000     0.00000
 Structure written by MMmdl.
 36 37  0  0  0  0  0  0  0  0  3 V2000
  149.0163  139.2196  156.7500 C   0  0  0  0  0  0  0  0  0  0  0  0
  150.1843  139.4826  155.7899 C   0  0  1  0  0  0  0  0  0  0  0  0
  149.6870  139.6400  154.3293 C   0  0  0  0  0  0  0  0  0  0  0  0
  148.4278  140.3956  154.1928 N   0  0  0  0  0  0  0  0  0  0  0  0
  148.1919  141.6907  154.5843 C   0  0  0  0  0  0  0  0  0  0  0  0
  146.8916  141.9712  154.2542 C   0  0  0  0  0  0  0  0  0  0  0  0
  146.3817  140.8342  153.6876 N   0  3  0  0  0  0  0  0  0  0  0  0
  147.3129  139.8754  153.6577 C   0  0  0  0  0  0  0  0  0  0  0  0
  150.8826  140.6997  156.2194 N   0  5  0  0  0  0  0  0  0  0  0  0
  151.8424  140.7640  157.1898 C   0  0  0  0  0  0  0  0  0  0  0  0
  152.7642  139.9537  157.3589 O   0  0  0  0  0  0  0  0  0  0  0  0
  151.8070  141.9227  158.1301 C   0  0  0  0  0  0  0  0  0  0  0  0
  152.4863  141.8526  159.2318 N   0  0  0  0  0  0  0  0  0  0  0  0
  152.4929  142.8731  160.1598 N   0  0  0  0  0  0  0  0  0  0  0  0
  153.0815  142.5230  161.4509 C   0  0  0  0  0  0  0  0  0  0  0  0
  152.0350  144.1282  159.9290 C   0  0  0  0  0  0  0  0  0  0  0  0
  152.0418  145.0255  160.7720 O   0  0  0  0  0  0  0  0  0  0  0  0
  151.5195  144.4175  158.5172 C   0  0  0  0  0  0  0  0  0  0  0  0
  150.9713  143.1550  157.8236 C   0  0  0  0  0  0  0  0  0  0  0  0
  148.4750  138.3159  156.4687 H   0  0  0  0  0  0  0  0  0  0  0  0
  148.3043  140.0459  156.7501 H   0  0  0  0  0  0  0  0  0  0  0  0
  149.3700  139.0833  157.7726 H   0  0  0  0  0  0  0  0  0  0  0  0
  150.8331  138.6062  155.8288 H   0  0  0  0  0  0  0  0  0  0  0  0
  150.4405  140.1542  153.7312 H   0  0  0  0  0  0  0  0  0  0  0  0
  149.5396  138.6627  153.8671 H   0  0  0  0  0  0  0  0  0  0  0  0
  148.9563  142.3025  155.0415 H   0  0  0  0  0  0  0  0  0  0  0  0
  146.3075  142.8715  154.3757 H   0  0  0  0  0  0  0  0  0  0  0  0
  147.1953  138.8816  153.2642 H   0  0  0  0  0  0  0  0  0  0  0  0
  153.9769  143.1179  161.6373 H   0  0  0  0  0  0  0  0  0  0  0  0
  153.3676  141.4708  161.4985 H   0  0  0  0  0  0  0  0  0  0  0  0
  152.3734  142.7072  162.2603 H   0  0  0  0  0  0  0  0  0  0  0  0
  150.7563  145.1957  158.5474 H   0  0  0  0  0  0  0  0  0  0  0  0
  152.3542  144.8180  157.9409 H   0  0  0  0  0  0  0  0  0  0  0  0
  150.9432  143.3512  156.7512 H   0  0  0  0  0  0  0  0  0  0  0  0
  149.9406  142.9760  158.1317 H   0  0  0  0  0  0  0  0  0  0  0  0
  145.4385  140.7322  153.3353 H   0  0  0  0  0  0  0  0  0  0  0  0
  1  2  1  0  0  0  0
  1 20  1  0  0  0  0
  1 21  1  0  0  0  0
  1 22  1  0  0  0  0
  2  3  1  0  0  0  0
  2  9  1  0  0  0  0
  2 23  1  0  0  0  0
  3  4  1  0  0  0  0
  3 24  1  0  0  0  0
  3 25  1  0  0  0  0
  4  8  1  0  0  0  0
  4  5  1  0  0  0  0
  5  6  2  0  0  0  0
  5 26  1  0  0  0  0
  6  7  1  0  0  0  0
  6 27  1  0  0  0  0
  7  8  2  0  0  0  0
  7 36  1  0  0  0  0
  8 28  1  0  0  0  0
  9 10  1  0  0  0  0
 10 11  2  0  0  0  0
 10 12  1  0  0  0  0
 12 19  1  0  0  0  0
 12 13  2  0  0  0  0
 13 14  1  0  0  0  0
 14 15  1  0  0  0  0
 14 16  1  0  0  0  0
 15 29  1  0  0  0  0
 15 30  1  0  0  0  0
 15 31  1  0  0  0  0
 16 17  2  0  0  0  0
 16 18  1  0  0  0  0
 18 19  1  0  0  0  0
 18 32  1  0  0  0  0
 18 33  1  0  0  0  0
 19 34  1  0  0  0  0
 19 35  1  0  0  0  0
M  CHG  1   7   1
M  CHG  1   9  -1
M  END
> <s_m_source_file>
AV-unprocessed.smi

> <i_m_source_file_index>
561

> <i_lp_mmshare_version>
43012

> <i_f3d_flags>
0

> <s_epik_input>
W2NIXTFuW2NIXVtjSF1uMVtDSDJdW0NAQEhdKFtDSDNdKVtOSF1DKD1PKUMyPU5OKFtDSDNdKUMoPU8pW0NIMl1bQ0gyXTI=

> <s_epik_cmdline>
J2VwaWtfcHl0aG9uJywgJy1waCcsICc3LjAnLCAnLXRuJywgJzgnLCAnLW1hJywgJzIwMCcsICctbWV0YWxfYmluZGluZycsICctaW1hZScsICc8aW5maWxlLm1hZT4nLCAnLW9tYWUnLCAnPG91dGZpbGUubWFlPic=

> <r_lp_tautomer_probability>
1

> <r_epik_Ionization_Penalty>
5.37239

> <r_epik_Ionization_Penalty_Charging>
5.18263

> <r_epik_Ionization_Penalty_Neutral>
0.189756

> <r_epik_State_Penalty>
5.53772

> <r_epik_Charging_Adjusted_Penalty>
10.7204

> <i_epik_Tot_Q>
0

> <i_epik_Tot_abs_Q>
2

> <r_epik_Metal_State_Penalty>
1.80836

> <b_epik_Metal_Only>
1

> <s_epik_Chemistry_Notes>
This compound has an imine and may undergo hydrolysis.

> <s_lp_Force_Field>
OPLS_2005

> <r_lp_Energy>
21.245

> <b_lp_Chiralities_Consistent>
1

> <s_lp_Variant>
AV-unprocessed.smi:561-6

> <Gold.Version>
5.8.1

> <Gold.Id.Protein>
6NUR|6NUR_protein|mol2

> <Gold.PLP.Fitness>
50.2806

> <Gold.PLP.PLP>
-40.3750

> <Gold.PLP.part.hbond>
-2.0000

> <Gold.PLP.part.metal>
0.0000

> <Gold.PLP.part.buried>
-3.1977

> <Gold.PLP.part.nonpolar>
-34.3676

> <Gold.PLP.part.repulsive>
0.2229

> <Gold.PLP.ligand.clash>
0.0000

> <Gold.PLP.ligand.torsion>
0.9869

> <Gold.PLP.Chemscore.Hbond>
3.0000

> <Gold.PLP.Chemscore.CHOScore>
0.9367

> <Gold.PLP.Chemscore.Metal>
0.0000

> <Gold.Chemscore.Hbonds>
donor molecule, donor type, donor heavy atom, donor atom, acceptor molecule, acceptor atom, score
      L1  H     7    36       P1 10175  2.00
      P1  H  7997  8008       L1    11  1.00
      L1  C     5    26       P1  8028  0.97

> <Gold.PLP.Chemscore.Internal.Correction>
0.0693

> <Gold.Rescore>
     Score         DG    S(hbond)    S(metal)    S(lipo)     H(rot)  DE(clash)    DE(int)     intcor
     14.56     -15.68       1.98        0.00      68.61       1.73       0.15       0.97       ----

> <Gold.Chemscore.Fitness>
14.5602

> <Gold.Chemscore.DG>
-15.6802

> <Gold.Chemscore.ZeroCoef>
-5.4800

> <Gold.Chemscore.Hbond>
1.9765

> <Gold.Chemscore.Metal>
0.0000

> <Gold.Chemscore.Lipo>
68.6088

> <Gold.Chemscore.Internal_Hbond>
0.0000

> <Gold.Chemscore.DEClash>
0.1512

> <Gold.Chemscore.DEInternal>
0.9688

> <Gold.Chemscore.Rot>
1.7299

> <Gold.Chemscore.Internal.Correction>
   9.000000E+99

> <Gold.Chemscore.Hbonds>
donor molecule, donor type, donor heavy atom, donor atom, acceptor molecule, acceptor atom, score
      L1  H     7    36       P1 10175  0.81
      P1  H  7997  8008       L1    11  0.97

> <Gold.Chemscore.Hbond.Weighted>
-6.6016

> <Gold.Chemscore.Metal.Weighted>
-0.0000

> <Gold.Chemscore.Lipo.Weighted>
-8.0272

> <Gold.Chemscore.Internal_Hbond.Weighted>
0.0000

> <Gold.Chemscore.DEClash.Weighted>
0.1512

> <Gold.Chemscore.DEInternal.Weighted>
0.9688

> <Gold.Chemscore.Rot.Weighted>
4.4286

> <Gold.Chemscore.Internal.Correction.Weighted>
   9.000000E+99

> <Gold.Protein.RotatedTorsions>
[ 6907 6896 6895 6894 ] final -105.49 input  -60.11 | X-H torsion
[ 7974 7965 7964 7962 ] final  -13.82 input  175.53 | X-H torsion
[ 8008 7997 7996 7995 ] final  -54.65 input   59.86 | X-H torsion
[ 10167 10162 10161 10158 ] final  135.61 input  -65.29 | X-H torsion
[ 10718 10713 10712 10709 ] final   71.56 input   66.30 | X-H torsion
[ 10763 10752 10751 10750 ] final   83.27 input  -60.55 | X-H torsion
[ 11005 11000 10999 10996 ] final -119.90 input  -57.11 | X-H torsion

> <Gold.Protein.ActiveResidues>
 VAL166  LYS551  ARG553  GLY616  TRP617  ASP618  TYR619  PRO620  LYS621  CYS622 
 ASP623  PHE694  ASN695  SER759  ASP760  ASP761  ALA762  ILE779  LEU786  VAL792 
 PHE793  MET794  SER795  GLU796  ALA797  LYS798  CYS799  TRP800  GLU811  SER814 

> <Gold.Protein.RotatedAtoms>
  150.7339  134.0119  159.3672 H   0  0  0  0  0  0  0  0  0  0  0  0  # atno 6907 bound_to 6896
  151.8079  135.0687  160.0418 H   0  0  0  0  0  0  0  0  0  0  0  0  # atno 6908 bound_to 6896
  152.3094  133.5700  159.5707 H   0  0  0  0  0  0  0  0  0  0  0  0  # atno 6909 bound_to 6896
  146.2099  140.3258  142.8394 H   0  0  0  0  0  0  0  0  0  0  0  0  # atno 7974 bound_to 7965
  154.4169  140.1171  156.5350 H   0  0  0  0  0  0  0  0  0  0  0  0  # atno 8008 bound_to 7997
  155.6566  140.3496  155.4748 H   0  0  0  0  0  0  0  0  0  0  0  0  # atno 8009 bound_to 7997
  155.9748  140.1148  157.0770 H   0  0  0  0  0  0  0  0  0  0  0  0  # atno 8010 bound_to 7997
  139.5210  144.6508  151.5308 H   0  0  0  0  0  0  0  0  0  0  0  0  # atno 10167 bound_to 10162
  157.6457  130.9534  150.0806 H   0  0  0  0  0  0  0  0  0  0  0  0  # atno 10718 bound_to 10713
  153.1276  135.4697  154.9298 H   0  0  0  0  0  0  0  0  0  0  0  0  # atno 10763 bound_to 10752
  154.7635  135.3138  154.8335 H   0  0  0  0  0  0  0  0  0  0  0  0  # atno 10764 bound_to 10752
  153.8884  135.6887  153.4816 H   0  0  0  0  0  0  0  0  0  0  0  0  # atno 10765 bound_to 10752
  141.0182  134.0164  157.3320 H   0  0  0  0  0  0  0  0  0  0  0  0  # atno 11005 bound_to 11000
  144.8887  140.7496  143.5940 LP  0  0  0  0  0  0  0  0  0  0  0  0  # atno 17320 bound_to 7965
  145.3180  139.1797  143.4603 LP  0  0  0  0  0  0  0  0  0  0  0  0  # atno 17321 bound_to 7965
  140.6312  143.9073  150.6607 LP  0  0  0  0  0  0  0  0  0  0  0  0  # atno 17342 bound_to 10162
  140.2378  143.3687  152.1512 LP  0  0  0  0  0  0  0  0  0  0  0  0  # atno 17343 bound_to 10162
  156.1783  130.3649  149.9070 LP  0  0  0  0  0  0  0  0  0  0  0  0  # atno 17370 bound_to 10713
  156.7028  130.8940  151.3601 LP  0  0  0  0  0  0  0  0  0  0  0  0  # atno 17371 bound_to 10713
  139.9130  135.0193  156.7768 LP  0  0  0  0  0  0  0  0  0  0  0  0  # atno 17394 bound_to 11000
  140.6618  133.9638  155.7809 LP  0  0  0  0  0  0  0  0  0  0  0  0  # atno 17395 bound_to 11000

$$$$
