AV-unprocessed.smi:2002|AV-procd|sdf|8116|dock5
  -GOLD-   2272010353D 1   1.00000     0.00000
 Structure written by MMmdl.
 39 40  0  0  0  0  0  0  0  0  2 V2000
  145.0758  132.0260  150.8627 C   0  0  0  0  0  0  0  0  0  0  0  0
  143.6599  132.6029  150.7308 C   0  0  0  0  0  0  0  0  0  0  0  0
  143.6248  134.0652  150.9707 N   0  3  2  0  0  0  0  0  0  0  0  0
  144.5953  134.8380  150.1591 C   0  0  0  0  0  0  0  0  0  0  0  0
  145.3172  135.7894  151.1189 C   0  0  0  0  0  0  0  0  0  0  0  0
  144.3860  135.8841  152.3274 C   0  0  2  0  0  0  0  0  0  0  0  0
  145.0564  136.3314  153.6405 C   0  0  0  0  0  0  0  0  0  0  0  0
  146.3972  136.8638  153.4158 N   0  0  0  0  0  0  0  0  0  0  0  0
  147.0232  137.7535  154.2005 C   0  0  0  0  0  0  0  0  0  0  0  0
  146.5249  138.2232  155.2234 O   0  0  0  0  0  0  0  0  0  0  0  0
  148.2470  138.0427  153.7272 N   0  0  0  0  0  0  0  0  0  0  0  0
  149.2063  138.9447  154.2558 C   0  0  0  0  0  0  0  0  0  0  0  0
  148.9410  140.0541  155.1108 C   0  0  0  0  0  0  0  0  0  0  0  0
  150.1820  140.5888  155.3125 C   0  0  0  0  0  0  0  0  0  0  0  0
  150.6654  141.7622  156.0935 C   0  0  0  0  0  0  0  0  0  0  0  0
  151.1226  139.8698  154.6429 O   0  0  0  0  0  0  0  0  0  0  0  0
  150.4887  138.8203  153.9672 N   0  0  0  0  0  0  0  0  0  0  0  0
  143.8018  134.4723  152.3825 C   0  0  0  0  0  0  0  0  0  0  0  0
  145.0637  130.9438  150.7302 H   0  0  0  0  0  0  0  0  0  0  0  0
  145.4965  132.2337  151.8470 H   0  0  0  0  0  0  0  0  0  0  0  0
  145.7514  132.4390  150.1133 H   0  0  0  0  0  0  0  0  0  0  0  0
  143.2454  132.3763  149.7473 H   0  0  0  0  0  0  0  0  0  0  0  0
  143.0156  132.1137  151.4628 H   0  0  0  0  0  0  0  0  0  0  0  0
  145.3093  134.1987  149.6377 H   0  0  0  0  0  0  0  0  0  0  0  0
  144.0426  135.3985  149.4049 H   0  0  0  0  0  0  0  0  0  0  0  0
  146.2691  135.3481  151.4175 H   0  0  0  0  0  0  0  0  0  0  0  0
  145.5275  136.7595  150.6675 H   0  0  0  0  0  0  0  0  0  0  0  0
  143.5785  136.5779  152.0862 H   0  0  0  0  0  0  0  0  0  0  0  0
  144.4620  137.1209  154.1012 H   0  0  0  0  0  0  0  0  0  0  0  0
  145.0802  135.5117  154.3607 H   0  0  0  0  0  0  0  0  0  0  0  0
  146.8833  136.5346  152.5942 H   0  0  0  0  0  0  0  0  0  0  0  0
  148.5294  137.5598  152.8871 H   0  0  0  0  0  0  0  0  0  0  0  0
  148.0067  140.4143  155.5137 H   0  0  0  0  0  0  0  0  0  0  0  0
  149.8290  142.3685  156.4419 H   0  0  0  0  0  0  0  0  0  0  0  0
  151.3093  142.3953  155.4830 H   0  0  0  0  0  0  0  0  0  0  0  0
  151.2348  141.4384  156.9647 H   0  0  0  0  0  0  0  0  0  0  0  0
  142.8599  134.4345  152.9307 H   0  0  0  0  0  0  0  0  0  0  0  0
  144.5053  133.7986  152.8755 H   0  0  0  0  0  0  0  0  0  0  0  0
  142.7111  134.3918  150.6892 H   0  0  0  0  0  0  0  0  0  0  0  0
  1  2  1  0  0  0  0
  1 19  1  0  0  0  0
  1 20  1  0  0  0  0
  1 21  1  0  0  0  0
  2  3  1  0  0  0  0
  2 22  1  0  0  0  0
  2 23  1  0  0  0  0
  3 18  1  0  0  0  0
  3  4  1  0  0  0  0
  3 39  1  0  0  0  0
  4  5  1  0  0  0  0
  4 24  1  0  0  0  0
  4 25  1  0  0  0  0
  5  6  1  0  0  0  0
  5 26  1  0  0  0  0
  5 27  1  0  0  0  0
  6  7  1  0  0  0  0
  6 18  1  0  0  0  0
  6 28  1  0  0  0  0
  7  8  1  0  0  0  0
  7 29  1  0  0  0  0
  7 30  1  0  0  0  0
  8  9  1  0  0  0  0
  8 31  1  0  0  0  0
  9 10  2  0  0  0  0
  9 11  1  0  0  0  0
 11 12  1  0  0  0  0
 11 32  1  0  0  0  0
 12 17  2  0  0  0  0
 12 13  1  0  0  0  0
 13 14  2  0  0  0  0
 13 33  1  0  0  0  0
 14 15  1  0  0  0  0
 14 16  1  0  0  0  0
 15 34  1  0  0  0  0
 15 35  1  0  0  0  0
 15 36  1  0  0  0  0
 16 17  1  0  0  0  0
 18 37  1  0  0  0  0
 18 38  1  0  0  0  0
M  CHG  1   3   1
M  END
> <s_m_source_file>
AV-unprocessed.smi

> <i_m_source_file_index>
2002

> <i_lp_mmshare_version>
43012

> <i_f3d_flags>
0

> <s_epik_input>
W0NIM11bQ0gyXU4xW0NIMl1bQ0gyXVtDQEhdKFtDSDJdMSlbQ0gyXVtOSF1DKD1PKVtOSF1jMltjSF1jKFtDSDNdKW9uMg==

> <s_epik_cmdline>
J2VwaWtfcHl0aG9uJywgJy1waCcsICc3LjAnLCAnLXRuJywgJzgnLCAnLW1hJywgJzIwMCcsICctbWV0YWxfYmluZGluZycsICctaW1hZScsICc8aW5maWxlLm1hZT4nLCAnLW9tYWUnLCAnPG91dGZpbGUubWFlPic=

> <r_epik_Ionization_Penalty>
0.000632871

> <r_epik_Ionization_Penalty_Charging>
0.000610951

> <r_epik_Ionization_Penalty_Neutral>
2.19198e-05

> <r_epik_State_Penalty>
0.000385263

> <r_epik_Charging_Adjusted_Penalty>
0.000996214

> <i_epik_Tot_Q>
1

> <i_epik_Tot_abs_Q>
1

> <r_epik_Metal_State_Penalty>
-0

> <b_epik_Metal_Only>
0

> <s_lp_Force_Field>
OPLS_2005

> <r_lp_Energy>
28.1542

> <b_lp_Chiralities_Consistent>
1

> <s_lp_Variant>
AV-unprocessed.smi:2002-4

> <Gold.Version>
5.8.1

> <Gold.Id.Protein>
6NUR|6NUR_protein|mol2

> <Gold.PLP.Fitness>
40.7586

> <Gold.PLP.PLP>
-29.4952

> <Gold.PLP.part.hbond>
-3.8524

> <Gold.PLP.part.metal>
0.0000

> <Gold.PLP.part.buried>
-4.5554

> <Gold.PLP.part.nonpolar>
-22.0047

> <Gold.PLP.part.repulsive>
0.3543

> <Gold.PLP.ligand.clash>
0.0000

> <Gold.PLP.ligand.torsion>
1.0325

> <Gold.PLP.Chemscore.Hbond>
4.4326

> <Gold.PLP.Chemscore.CHOScore>
0.0000

> <Gold.PLP.Chemscore.Metal>
0.0000

> <Gold.Chemscore.Hbonds>
donor molecule, donor type, donor heavy atom, donor atom, acceptor molecule, acceptor atom, score
      L1  H     3    39       P1 10186  1.95
      L1  H     8    31       P1  7948  0.45
      L1  H    11    32       P1  7948  1.00
      P1  H  7989  7998       L1    16  1.00

> <Gold.PLP.Chemscore.Internal.Correction>
0.0304

> <Gold.Rescore>
     Score         DG    S(hbond)    S(metal)    S(lipo)     H(rot)  DE(clash)    DE(int)     intcor
     15.62     -19.31       3.04        0.00      64.87       1.52       1.67       2.02       ----

> <Gold.Chemscore.Fitness>
15.6187

> <Gold.Chemscore.DG>
-19.3121

> <Gold.Chemscore.ZeroCoef>
-5.4800

> <Gold.Chemscore.Hbond>
3.0358

> <Gold.Chemscore.Metal>
0.0000

> <Gold.Chemscore.Lipo>
64.8688

> <Gold.Chemscore.Internal_Hbond>
0.0000

> <Gold.Chemscore.DEClash>
1.6697

> <Gold.Chemscore.DEInternal>
2.0236

> <Gold.Chemscore.Rot>
1.5223

> <Gold.Chemscore.Internal.Correction>
   9.000000E+99

> <Gold.Chemscore.Hbonds>
donor molecule, donor type, donor heavy atom, donor atom, acceptor molecule, acceptor atom, score
      L1  H     3    39       P1 10186  0.36
      L1  H     8    31       P1  7948  0.46
      L1  H    11    32       P1  7948  0.99
      P1  H  7989  7998       L1    16  0.22

> <Gold.Chemscore.Hbond.Weighted>
-10.1395

> <Gold.Chemscore.Metal.Weighted>
-0.0000

> <Gold.Chemscore.Lipo.Weighted>
-7.5896

> <Gold.Chemscore.Internal_Hbond.Weighted>
0.0000

> <Gold.Chemscore.DEClash.Weighted>
1.6697

> <Gold.Chemscore.DEInternal.Weighted>
2.0236

> <Gold.Chemscore.Rot.Weighted>
3.8971

> <Gold.Chemscore.Internal.Correction.Weighted>
   9.000000E+99

> <Gold.Protein.RotatedTorsions>
[ 6907 6896 6895 6894 ] final   41.64 input  -60.11 | X-H torsion
[ 7974 7965 7964 7962 ] final  -77.69 input  175.53 | X-H torsion
[ 8008 7997 7996 7995 ] final  -32.89 input   59.86 | X-H torsion
[ 10167 10162 10161 10158 ] final -141.73 input  -65.29 | X-H torsion
[ 10718 10713 10712 10709 ] final  -94.08 input   66.30 | X-H torsion
[ 10763 10752 10751 10750 ] final   -9.96 input  -60.55 | X-H torsion
[ 11005 11000 10999 10996 ] final  -52.33 input  -57.11 | X-H torsion

> <Gold.Protein.ActiveResidues>
 VAL166  LYS551  ARG553  GLY616  TRP617  ASP618  TYR619  PRO620  LYS621  CYS622 
 ASP623  PHE694  ASN695  SER759  ASP760  ASP761  ALA762  ILE779  LEU786  VAL792 
 PHE793  MET794  SER795  GLU796  ALA797  LYS798  CYS799  TRP800  GLU811  SER814 

> <Gold.Protein.RotatedAtoms>
  152.1978  134.8615  160.0510 H   0  0  0  0  0  0  0  0  0  0  0  0  # atno 6907 bound_to 6896
  151.9480  133.3652  159.3997 H   0  0  0  0  0  0  0  0  0  0  0  0  # atno 6908 bound_to 6896
  150.6948  134.4294  159.5285 H   0  0  0  0  0  0  0  0  0  0  0  0  # atno 6909 bound_to 6896
  145.5964  140.9418  143.1264 H   0  0  0  0  0  0  0  0  0  0  0  0  # atno 7974 bound_to 7965
  154.4166  140.1725  156.1800 H   0  0  0  0  0  0  0  0  0  0  0  0  # atno 8008 bound_to 7997
  155.9690  140.3387  155.6535 H   0  0  0  0  0  0  0  0  0  0  0  0  # atno 8009 bound_to 7997
  155.6650  140.0705  157.2531 H   0  0  0  0  0  0  0  0  0  0  0  0  # atno 8010 bound_to 7997
  139.8157  143.7642  152.2665 H   0  0  0  0  0  0  0  0  0  0  0  0  # atno 10167 bound_to 10162
  156.0022  130.5053  150.5872 H   0  0  0  0  0  0  0  0  0  0  0  0  # atno 10718 bound_to 10713
  153.4622  135.7016  153.6043 H   0  0  0  0  0  0  0  0  0  0  0  0  # atno 10763 bound_to 10752
  153.4332  135.3797  155.2183 H   0  0  0  0  0  0  0  0  0  0  0  0  # atno 10764 bound_to 10752
  154.8727  135.3956  154.4049 H   0  0  0  0  0  0  0  0  0  0  0  0  # atno 10765 bound_to 10752
  141.0919  133.6631  156.4008 H   0  0  0  0  0  0  0  0  0  0  0  0  # atno 11005 bound_to 11000
  144.7329  139.7672  143.7340 LP  0  0  0  0  0  0  0  0  0  0  0  0  # atno 17320 bound_to 7965
  146.1609  139.4723  142.9989 LP  0  0  0  0  0  0  0  0  0  0  0  0  # atno 17321 bound_to 7965
  139.7805  144.7446  151.0095 LP  0  0  0  0  0  0  0  0  0  0  0  0  # atno 17342 bound_to 10162
  140.7816  143.4547  151.0362 LP  0  0  0  0  0  0  0  0  0  0  0  0  # atno 17343 bound_to 10162
  157.3743  131.0770  151.1531 LP  0  0  0  0  0  0  0  0  0  0  0  0  # atno 17370 bound_to 10713
  157.2274  130.6509  149.5836 LP  0  0  0  0  0  0  0  0  0  0  0  0  # atno 17371 bound_to 10713
  140.5233  134.6283  157.5325 LP  0  0  0  0  0  0  0  0  0  0  0  0  # atno 17394 bound_to 11000
  139.9746  134.7236  155.9974 LP  0  0  0  0  0  0  0  0  0  0  0  0  # atno 17395 bound_to 11000

$$$$
