AV-unprocessed.smi:3073|AV-procd|sdf|11720|dock3
  -GOLD-   2272017123D 1   1.00000     0.00000
 Structure written by MMmdl.
 24 25  0  0  0  0  0  0  0  0  2 V2000
  153.6126  142.1127  162.4997 C   0  0  0  0  0  0  0  0  0  0  0  0
  152.9404  143.2583  162.8413 C   0  0  0  0  0  0  0  0  0  0  0  0
  152.1097  143.9514  161.4757 S   0  0  0  0  0  0  0  0  0  0  0  0
  152.7166  142.6351  160.4756 C   0  0  0  0  0  0  0  0  0  0  0  0
  152.4062  142.5039  159.0178 C   0  0  1  0  0  0  0  0  0  0  0  0
  151.8978  141.0980  158.6473 C   0  0  0  0  0  0  0  0  0  0  0  0
  151.5948  141.0153  157.1433 C   0  0  0  0  0  0  0  0  0  0  0  0
  150.6338  142.1363  156.7132 C   0  0  0  0  0  0  0  0  0  0  0  0
  151.1834  143.4622  157.0710 N   0  3  0  0  0  0  0  0  0  0  0  0
  151.4514  143.6073  158.5190 C   0  0  0  0  0  0  0  0  0  0  0  0
  153.4773  141.7690  161.1525 N   0  0  0  0  0  0  0  0  0  0  0  0
  154.2067  141.4837  163.1464 H   0  0  0  0  0  0  0  0  0  0  0  0
  152.8843  143.7345  163.8092 H   0  0  0  0  0  0  0  0  0  0  0  0
  153.3523  142.6446  158.4922 H   0  0  0  0  0  0  0  0  0  0  0  0
  152.6360  140.3433  158.9214 H   0  0  0  0  0  0  0  0  0  0  0  0
  150.9928  140.8690  159.2119 H   0  0  0  0  0  0  0  0  0  0  0  0
  152.5242  141.0914  156.5771 H   0  0  0  0  0  0  0  0  0  0  0  0
  151.1652  140.0422  156.9027 H   0  0  0  0  0  0  0  0  0  0  0  0
  150.4674  142.0998  155.6366 H   0  0  0  0  0  0  0  0  0  0  0  0
  149.6616  142.0082  157.1911 H   0  0  0  0  0  0  0  0  0  0  0  0
  152.0495  143.5961  156.5688 H   0  0  0  0  0  0  0  0  0  0  0  0
  150.5044  143.5673  159.0590 H   0  0  0  0  0  0  0  0  0  0  0  0
  151.8805  144.5931  158.7004 H   0  0  0  0  0  0  0  0  0  0  0  0
  150.5285  144.1767  156.7863 H   0  0  0  0  0  0  0  0  0  0  0  0
  1 11  1  0  0  0  0
  1  2  2  0  0  0  0
  1 12  1  0  0  0  0
  2  3  1  0  0  0  0
  2 13  1  0  0  0  0
  3  4  1  0  0  0  0
  4  5  1  0  0  0  0
  4 11  2  0  0  0  0
  5 10  1  0  0  0  0
  5  6  1  0  0  0  0
  5 14  1  0  0  0  0
  6  7  1  0  0  0  0
  6 15  1  0  0  0  0
  6 16  1  0  0  0  0
  7  8  1  0  0  0  0
  7 17  1  0  0  0  0
  7 18  1  0  0  0  0
  8  9  1  0  0  0  0
  8 19  1  0  0  0  0
  8 20  1  0  0  0  0
  9 10  1  0  0  0  0
  9 21  1  0  0  0  0
  9 24  1  0  0  0  0
 10 22  1  0  0  0  0
 10 23  1  0  0  0  0
M  CHG  1   9   1
M  END
> <s_m_source_file>
AV-unprocessed.smi

> <i_m_source_file_index>
3073

> <i_lp_mmshare_version>
43012

> <i_f3d_flags>
0

> <s_epik_input>
bjFbY0hdW2NIXXNjMVtDQEBIXTJbQ0gyXVtDSDJdW0NIMl1bTkhdW0NIMl0y

> <s_epik_cmdline>
J2VwaWtfcHl0aG9uJywgJy1waCcsICc3LjAnLCAnLXRuJywgJzgnLCAnLW1hJywgJzIwMCcsICctbWV0YWxfYmluZGluZycsICctaW1hZScsICc8aW5maWxlLm1hZT4nLCAnLW9tYWUnLCAnPG91dGZpbGUubWFlPic=

> <r_lp_tautomer_probability>
1

> <r_epik_Ionization_Penalty>
0.00043192

> <r_epik_Ionization_Penalty_Charging>
0.000426856

> <r_epik_Ionization_Penalty_Neutral>
5.06388e-06

> <r_epik_State_Penalty>
-0

> <r_epik_Charging_Adjusted_Penalty>
0.000426856

> <i_epik_Tot_Q>
1

> <i_epik_Tot_abs_Q>
1

> <r_epik_Metal_State_Penalty>
-0

> <b_epik_Metal_Only>
0

> <s_lp_Force_Field>
OPLS_2005

> <r_lp_Energy>
4.76757

> <b_lp_Chiralities_Consistent>
1

> <s_lp_Variant>
AV-unprocessed.smi:3073-2

> <Gold.Version>
5.8.1

> <Gold.Id.Protein>
6NUR|6NUR_protein|mol2

> <Gold.PLP.Fitness>
36.3865

> <Gold.PLP.PLP>
-30.5322

> <Gold.PLP.part.hbond>
-1.0000

> <Gold.PLP.part.metal>
0.0000

> <Gold.PLP.part.buried>
-3.9509

> <Gold.PLP.part.nonpolar>
-25.2817

> <Gold.PLP.part.repulsive>
0.0142

> <Gold.PLP.ligand.clash>
0.0000

> <Gold.PLP.ligand.torsion>
0.0994

> <Gold.PLP.Chemscore.Hbond>
2.0000

> <Gold.PLP.Chemscore.CHOScore>
0.0000

> <Gold.PLP.Chemscore.Metal>
0.0000

> <Gold.Chemscore.Hbonds>
donor molecule, donor type, donor heavy atom, donor atom, acceptor molecule, acceptor atom, score
      L1  H     9    24       P1  8028  1.95

> <Gold.PLP.Chemscore.Internal.Correction>
0.0531

> <Gold.Rescore>
     Score         DG    S(hbond)    S(metal)    S(lipo)     H(rot)  DE(clash)    DE(int)     intcor
     16.58     -16.77       1.00        0.00      89.88       1.00       0.01       0.19       ----

> <Gold.Chemscore.Fitness>
16.5752

> <Gold.Chemscore.DG>
-16.7714

> <Gold.Chemscore.ZeroCoef>
-5.4800

> <Gold.Chemscore.Hbond>
0.9986

> <Gold.Chemscore.Metal>
0.0000

> <Gold.Chemscore.Lipo>
89.8819

> <Gold.Chemscore.Internal_Hbond>
0.0000

> <Gold.Chemscore.DEClash>
0.0082

> <Gold.Chemscore.DEInternal>
0.1880

> <Gold.Chemscore.Rot>
1.0000

> <Gold.Chemscore.Internal.Correction>
   9.000000E+99

> <Gold.Chemscore.Hbonds>
donor molecule, donor type, donor heavy atom, donor atom, acceptor molecule, acceptor atom, score
      L1  H     9    24       P1  8028  0.86

> <Gold.Chemscore.Hbond.Weighted>
-3.3352

> <Gold.Chemscore.Metal.Weighted>
-0.0000

> <Gold.Chemscore.Lipo.Weighted>
-10.5162

> <Gold.Chemscore.Internal_Hbond.Weighted>
0.0000

> <Gold.Chemscore.DEClash.Weighted>
0.0082

> <Gold.Chemscore.DEInternal.Weighted>
0.1880

> <Gold.Chemscore.Rot.Weighted>
2.5600

> <Gold.Chemscore.Internal.Correction.Weighted>
   9.000000E+99

> <Gold.Protein.RotatedTorsions>
[ 6907 6896 6895 6894 ] final -168.82 input  -60.11 | X-H torsion
[ 7974 7965 7964 7962 ] final  -47.75 input  175.53 | X-H torsion
[ 8008 7997 7996 7995 ] final   46.08 input   59.86 | X-H torsion
[ 10167 10162 10161 10158 ] final -165.06 input  -65.29 | X-H torsion
[ 10718 10713 10712 10709 ] final   50.24 input   66.30 | X-H torsion
[ 10763 10752 10751 10750 ] final  109.01 input  -60.55 | X-H torsion
[ 11005 11000 10999 10996 ] final  -79.97 input  -57.11 | X-H torsion

> <Gold.Protein.ActiveResidues>
 VAL166  LYS551  ARG553  GLY616  TRP617  ASP618  TYR619  PRO620  LYS621  CYS622 
 ASP623  PHE694  ASN695  SER759  ASP760  ASP761  ALA762  ILE779  LEU786  VAL792 
 PHE793  MET794  SER795  GLU796  ALA797  LYS798  CYS799  TRP800  GLU811  SER814 

> <Gold.Protein.RotatedAtoms>
  151.4816  133.3545  159.2838 H   0  0  0  0  0  0  0  0  0  0  0  0  # atno 6907 bound_to 6896
  150.8893  134.8297  159.7293 H   0  0  0  0  0  0  0  0  0  0  0  0  # atno 6908 bound_to 6896
  152.4813  134.4724  159.9691 H   0  0  0  0  0  0  0  0  0  0  0  0  # atno 6909 bound_to 6896
  145.9583  140.7504  142.9470 H   0  0  0  0  0  0  0  0  0  0  0  0  # atno 7974 bound_to 7965
  155.3465  140.3411  155.4239 H   0  0  0  0  0  0  0  0  0  0  0  0  # atno 8008 bound_to 7997
  156.1786  140.1656  156.8352 H   0  0  0  0  0  0  0  0  0  0  0  0  # atno 8009 bound_to 7997
  154.5309  140.0745  156.8326 H   0  0  0  0  0  0  0  0  0  0  0  0  # atno 8010 bound_to 7997
  139.6208  144.0629  152.1930 H   0  0  0  0  0  0  0  0  0  0  0  0  # atno 10167 bound_to 10162
  157.4865  130.8348  149.8153 H   0  0  0  0  0  0  0  0  0  0  0  0  # atno 10718 bound_to 10713
  153.4287  135.3794  155.2157 H   0  0  0  0  0  0  0  0  0  0  0  0  # atno 10763 bound_to 10752
  154.8749  135.3835  154.4294 H   0  0  0  0  0  0  0  0  0  0  0  0  # atno 10764 bound_to 10752
  153.4824  135.7088  153.5993 H   0  0  0  0  0  0  0  0  0  0  0  0  # atno 10765 bound_to 10752
  141.1668  133.7129  156.8203 H   0  0  0  0  0  0  0  0  0  0  0  0  # atno 11005 bound_to 11000
  144.6809  140.2549  143.7327 LP  0  0  0  0  0  0  0  0  0  0  0  0  # atno 17320 bound_to 7965
  145.8075  139.1989  143.2012 LP  0  0  0  0  0  0  0  0  0  0  0  0  # atno 17321 bound_to 7965
  140.0270  144.6110  150.7519 LP  0  0  0  0  0  0  0  0  0  0  0  0  # atno 17342 bound_to 10162
  140.7380  143.2773  151.3703 LP  0  0  0  0  0  0  0  0  0  0  0  0  # atno 17343 bound_to 10162
  156.0150  130.3817  150.2141 LP  0  0  0  0  0  0  0  0  0  0  0  0  # atno 17370 bound_to 10713
  157.0329  131.0012  151.3307 LP  0  0  0  0  0  0  0  0  0  0  0  0  # atno 17371 bound_to 10713
  140.2124  134.8817  157.3289 LP  0  0  0  0  0  0  0  0  0  0  0  0  # atno 17394 bound_to 11000
  140.2073  134.4182  155.7631 LP  0  0  0  0  0  0  0  0  0  0  0  0  # atno 17395 bound_to 11000

$$$$
