AV-unprocessed.smi:1055|AV-procd|sdf|4624|dock8
  -GOLD-   22720 3123D 1   1.00000     0.00000
 Structure written by MMmdl.
 52 53  0  0  0  0  0  0  0  0  3 V2000
  144.5748  132.2566  149.0610 C   0  0  0  0  0  0  0  0  0  0  0  0
  144.5762  132.0163  150.3828 C   0  0  0  0  0  0  0  0  0  0  0  0
  145.5671  131.0634  151.0250 C   0  0  0  0  0  0  0  0  0  0  0  0
  143.5824  132.6773  151.3250 C   0  0  0  0  0  0  0  0  0  0  0  0
  144.0310  134.0311  151.7361 N   0  3  2  0  0  0  0  0  0  0  0  0
  142.9626  134.7905  152.4332 C   0  0  0  0  0  0  0  0  0  0  0  0
  143.5003  136.1204  152.9871 C   0  0  0  0  0  0  0  0  0  0  0  0
  144.1310  136.9757  151.8719 C   0  0  1  0  0  0  0  0  0  0  0  0
  144.7364  138.1862  152.4209 N   0  0  0  0  0  0  0  0  0  0  0  0
  145.8277  138.2194  153.1994 C   0  0  0  0  0  0  0  0  0  0  0  0
  146.4498  137.2120  153.5341 O   0  0  0  0  0  0  0  0  0  0  0  0
  146.1441  139.4816  153.5386 N   0  0  0  0  0  0  0  0  0  0  0  0
  147.2190  139.9488  154.3443 C   0  0  0  0  0  0  0  0  0  0  0  0
  148.1147  138.9885  154.8598 C   0  0  0  0  0  0  0  0  0  0  0  0
  149.2043  139.3977  155.6555 C   0  0  0  0  0  0  0  0  0  0  0  0
  149.3988  140.7734  155.9305 C   0  0  0  0  0  0  0  0  0  0  0  0
  150.4650  141.2617  156.7166 N   0  0  0  0  0  0  0  0  0  0  0  0
  150.4816  142.6618  157.1254 C   0  0  0  0  0  0  0  0  0  0  0  0
  151.4782  140.3403  157.2146 C   0  0  0  0  0  0  0  0  0  0  0  0
  148.5173  141.6595  155.4061 N   0  3  0  0  0  0  0  0  0  0  0  0
  147.4610  141.3119  154.6398 C   0  0  0  0  0  0  0  0  0  0  0  0
  145.1976  136.1514  151.1320 C   0  0  0  0  0  0  0  0  0  0  0  0
  144.6232  134.8187  150.6225 C   0  0  0  0  0  0  0  0  0  0  0  0
  145.2855  131.7777  148.4032 H   0  0  0  0  0  0  0  0  0  0  0  0
  143.8632  132.9358  148.6146 H   0  0  0  0  0  0  0  0  0  0  0  0
  145.0401  130.2635  151.5457 H   0  0  0  0  0  0  0  0  0  0  0  0
  146.1938  131.5886  151.7461 H   0  0  0  0  0  0  0  0  0  0  0  0
  146.2208  130.6078  150.2801 H   0  0  0  0  0  0  0  0  0  0  0  0
  142.5940  132.7386  150.8663 H   0  0  0  0  0  0  0  0  0  0  0  0
  143.4822  132.0347  152.2009 H   0  0  0  0  0  0  0  0  0  0  0  0
  142.1359  134.9747  151.7452 H   0  0  0  0  0  0  0  0  0  0  0  0
  142.5644  134.1955  153.2559 H   0  0  0  0  0  0  0  0  0  0  0  0
  142.6900  136.6665  153.4714 H   0  0  0  0  0  0  0  0  0  0  0  0
  144.2409  135.9164  153.7621 H   0  0  0  0  0  0  0  0  0  0  0  0
  143.3566  137.2580  151.1558 H   0  0  0  0  0  0  0  0  0  0  0  0
  144.2882  139.0618  152.1936 H   0  0  0  0  0  0  0  0  0  0  0  0
  145.5607  140.2031  153.1409 H   0  0  0  0  0  0  0  0  0  0  0  0
  147.9700  137.9385  154.6510 H   0  0  0  0  0  0  0  0  0  0  0  0
  149.8760  138.6453  156.0410 H   0  0  0  0  0  0  0  0  0  0  0  0
  150.4267  143.3185  156.2566 H   0  0  0  0  0  0  0  0  0  0  0  0
  151.3962  142.9058  157.6661 H   0  0  0  0  0  0  0  0  0  0  0  0
  149.6364  142.8787  157.7793 H   0  0  0  0  0  0  0  0  0  0  0  0
  152.0263  139.8901  156.3865 H   0  0  0  0  0  0  0  0  0  0  0  0
  151.0195  139.5454  157.8036 H   0  0  0  0  0  0  0  0  0  0  0  0
  152.1994  140.8522  157.8522 H   0  0  0  0  0  0  0  0  0  0  0  0
  146.8671  142.1435  154.2932 H   0  0  0  0  0  0  0  0  0  0  0  0
  145.5972  136.7232  150.2935 H   0  0  0  0  0  0  0  0  0  0  0  0
  146.0386  135.9491  151.7971 H   0  0  0  0  0  0  0  0  0  0  0  0
  145.4206  134.2519  150.1414 H   0  0  0  0  0  0  0  0  0  0  0  0
  143.8639  135.0030  149.8609 H   0  0  0  0  0  0  0  0  0  0  0  0
  144.7643  133.8886  152.4159 H   0  0  0  0  0  0  0  0  0  0  0  0
  148.6605  142.6510  155.5991 H   0  0  0  0  0  0  0  0  0  0  0  0
  1  2  2  0  0  0  0
  1 24  1  0  0  0  0
  1 25  1  0  0  0  0
  2  3  1  0  0  0  0
  2  4  1  0  0  0  0
  3 26  1  0  0  0  0
  3 27  1  0  0  0  0
  3 28  1  0  0  0  0
  4  5  1  0  0  0  0
  4 29  1  0  0  0  0
  4 30  1  0  0  0  0
  5 23  1  0  0  0  0
  5  6  1  0  0  0  0
  5 51  1  0  0  0  0
  6  7  1  0  0  0  0
  6 31  1  0  0  0  0
  6 32  1  0  0  0  0
  7  8  1  0  0  0  0
  7 33  1  0  0  0  0
  7 34  1  0  0  0  0
  8  9  1  0  0  0  0
  8 22  1  0  0  0  0
  8 35  1  0  0  0  0
  9 10  1  0  0  0  0
  9 36  1  0  0  0  0
 10 11  2  0  0  0  0
 10 12  1  0  0  0  0
 12 13  1  0  0  0  0
 12 37  1  0  0  0  0
 13 21  1  0  0  0  0
 13 14  2  0  0  0  0
 14 15  1  0  0  0  0
 14 38  1  0  0  0  0
 15 16  2  0  0  0  0
 15 39  1  0  0  0  0
 16 17  1  0  0  0  0
 16 20  1  0  0  0  0
 17 18  1  0  0  0  0
 17 19  1  0  0  0  0
 18 40  1  0  0  0  0
 18 41  1  0  0  0  0
 18 42  1  0  0  0  0
 19 43  1  0  0  0  0
 19 44  1  0  0  0  0
 19 45  1  0  0  0  0
 20 21  2  0  0  0  0
 20 52  1  0  0  0  0
 21 46  1  0  0  0  0
 22 23  1  0  0  0  0
 22 47  1  0  0  0  0
 22 48  1  0  0  0  0
 23 49  1  0  0  0  0
 23 50  1  0  0  0  0
M  CHG  1   5   1
M  CHG  1  20   1
M  END
> <s_m_source_file>
AV-unprocessed.smi

> <i_m_source_file_index>
1055

> <i_lp_mmshare_version>
43012

> <i_f3d_flags>
0

> <s_epik_input>
W0NIMl09QyhbQ0gzXSlbQ0gyXU4xW0NIMl1bQ0gyXVtDSF0oW0NIMl1bQ0gyXTEpW05IXUMoPU8pW05IXWMyW2NIXVtjSF1jKE4oW0NIM10pW0NIM10pbltjSF0y

> <s_epik_cmdline>
J2VwaWtfcHl0aG9uJywgJy1waCcsICc3LjAnLCAnLXRuJywgJzgnLCAnLW1hJywgJzIwMCcsICctbWV0YWxfYmluZGluZycsICctaW1hZScsICc8aW5maWxlLm1hZT4nLCAnLW9tYWUnLCAnPG91dGZpbGUubWFlPic=

> <r_lp_tautomer_probability>
0.999994

> <r_epik_Ionization_Penalty>
0.344238

> <r_epik_Ionization_Penalty_Charging>
0.344219

> <r_epik_Ionization_Penalty_Neutral>
1.87459e-05

> <r_epik_State_Penalty>
0.320654

> <r_epik_Charging_Adjusted_Penalty>
0.664873

> <i_epik_Tot_Q>
2

> <i_epik_Tot_abs_Q>
2

> <r_epik_Metal_State_Penalty>
0.58246

> <b_epik_Metal_Only>
0

> <s_lp_Force_Field>
OPLS_2005

> <r_lp_Energy>
26.1172

> <b_lp_Chiralities_Consistent>
1

> <s_lp_Variant>
AV-unprocessed.smi:1055-1

> <Gold.Version>
5.8.1

> <Gold.Id.Protein>
6NUR|6NUR_protein|mol2

> <Gold.PLP.Fitness>
48.3073

> <Gold.PLP.PLP>
-37.6992

> <Gold.PLP.part.hbond>
-3.9027

> <Gold.PLP.part.metal>
0.0000

> <Gold.PLP.part.buried>
-0.2071

> <Gold.PLP.part.nonpolar>
-36.1299

> <Gold.PLP.part.repulsive>
1.4374

> <Gold.PLP.ligand.clash>
0.0000

> <Gold.PLP.ligand.torsion>
0.5304

> <Gold.PLP.Chemscore.Hbond>
3.8640

> <Gold.PLP.Chemscore.CHOScore>
0.0000

> <Gold.PLP.Chemscore.Metal>
0.0000

> <Gold.Chemscore.Hbonds>
donor molecule, donor type, donor heavy atom, donor atom, acceptor molecule, acceptor atom, score
      L1  H     9    36       P1 10175  1.00
      L1  H    12    37       P1 10175  0.82
      L1  H    20    52       P1  8028  1.79

> <Gold.PLP.Chemscore.Internal.Correction>
0.0770

> <Gold.Rescore>
     Score         DG    S(hbond)    S(metal)    S(lipo)     H(rot)  DE(clash)    DE(int)     intcor
     17.05     -22.74       2.70        0.00      99.92       1.35       2.47       3.21       ----

> <Gold.Chemscore.Fitness>
17.0513

> <Gold.Chemscore.DG>
-22.7354

> <Gold.Chemscore.ZeroCoef>
-5.4800

> <Gold.Chemscore.Hbond>
2.6983

> <Gold.Chemscore.Metal>
0.0000

> <Gold.Chemscore.Lipo>
99.9160

> <Gold.Chemscore.Internal_Hbond>
0.0000

> <Gold.Chemscore.DEClash>
2.4746

> <Gold.Chemscore.DEInternal>
3.2095

> <Gold.Chemscore.Rot>
1.3465

> <Gold.Chemscore.Internal.Correction>
   9.000000E+99

> <Gold.Chemscore.Hbonds>
donor molecule, donor type, donor heavy atom, donor atom, acceptor molecule, acceptor atom, score
      L1  H     9    36       P1 10175  0.93
      L1  H    12    37       P1 10175  0.77
      L1  H    20    52       P1  8028  0.87

> <Gold.Chemscore.Hbond.Weighted>
-9.0122

> <Gold.Chemscore.Metal.Weighted>
-0.0000

> <Gold.Chemscore.Lipo.Weighted>
-11.6902

> <Gold.Chemscore.Internal_Hbond.Weighted>
0.0000

> <Gold.Chemscore.DEClash.Weighted>
2.4746

> <Gold.Chemscore.DEInternal.Weighted>
3.2095

> <Gold.Chemscore.Rot.Weighted>
3.4470

> <Gold.Chemscore.Internal.Correction.Weighted>
   9.000000E+99

> <Gold.Protein.RotatedTorsions>
[ 6907 6896 6895 6894 ] final   63.87 input  -60.11 | X-H torsion
[ 7974 7965 7964 7962 ] final  123.00 input  175.53 | X-H torsion
[ 8008 7997 7996 7995 ] final  136.86 input   59.86 | X-H torsion
[ 10167 10162 10161 10158 ] final   -2.48 input  -65.29 | X-H torsion
[ 10718 10713 10712 10709 ] final -168.32 input   66.30 | X-H torsion
[ 10763 10752 10751 10750 ] final   44.36 input  -60.55 | X-H torsion
[ 11005 11000 10999 10996 ] final   18.80 input  -57.11 | X-H torsion

> <Gold.Protein.ActiveResidues>
 VAL166  LYS551  ARG553  GLY616  TRP617  ASP618  TYR619  PRO620  LYS621  CYS622 
 ASP623  PHE694  ASN695  SER759  ASP760  ASP761  ALA762  ILE779  LEU786  VAL792 
 PHE793  MET794  SER795  GLU796  ALA797  LYS798  CYS799  TRP800  GLU811  SER814 

> <Gold.Protein.RotatedAtoms>
  152.4287  134.5819  159.9950 H   0  0  0  0  0  0  0  0  0  0  0  0  # atno 6907 bound_to 6896
  151.5949  133.3357  159.3043 H   0  0  0  0  0  0  0  0  0  0  0  0  # atno 6908 bound_to 6896
  150.8178  134.7406  159.6810 H   0  0  0  0  0  0  0  0  0  0  0  0  # atno 6909 bound_to 6896
  145.1010  139.3519  143.4812 H   0  0  0  0  0  0  0  0  0  0  0  0  # atno 7974 bound_to 7965
  156.3003  140.2434  156.3815 H   0  0  0  0  0  0  0  0  0  0  0  0  # atno 8008 bound_to 7997
  154.8697  140.0416  157.1736 H   0  0  0  0  0  0  0  0  0  0  0  0  # atno 8009 bound_to 7997
  154.8808  140.2949  155.5430 H   0  0  0  0  0  0  0  0  0  0  0  0  # atno 8010 bound_to 7997
  140.6852  143.6652  150.8232 H   0  0  0  0  0  0  0  0  0  0  0  0  # atno 10167 bound_to 10162
  156.6953  130.9175  151.3073 H   0  0  0  0  0  0  0  0  0  0  0  0  # atno 10718 bound_to 10713
  152.9842  135.6073  154.3261 H   0  0  0  0  0  0  0  0  0  0  0  0  # atno 10763 bound_to 10752
  154.2968  135.2773  155.2631 H   0  0  0  0  0  0  0  0  0  0  0  0  # atno 10764 bound_to 10752
  154.4902  135.5894  153.6510 H   0  0  0  0  0  0  0  0  0  0  0  0  # atno 10765 bound_to 10752
  140.4208  134.1521  155.7673 H   0  0  0  0  0  0  0  0  0  0  0  0  # atno 11005 bound_to 11000
  146.3529  140.0887  142.8614 LP  0  0  0  0  0  0  0  0  0  0  0  0  # atno 17320 bound_to 7965
  145.0956  140.9313  143.4743 LP  0  0  0  0  0  0  0  0  0  0  0  0  # atno 17321 bound_to 7965
  140.0358  143.5396  152.2740 LP  0  0  0  0  0  0  0  0  0  0  0  0  # atno 17342 bound_to 10162
  139.6206  144.7628  151.2749 LP  0  0  0  0  0  0  0  0  0  0  0  0  # atno 17343 bound_to 10162
  157.6994  130.9316  150.0739 LP  0  0  0  0  0  0  0  0  0  0  0  0  # atno 17370 bound_to 10713
  156.1768  130.3648  149.9089 LP  0  0  0  0  0  0  0  0  0  0  0  0  # atno 17371 bound_to 10713
  141.1785  133.8464  157.1341 LP  0  0  0  0  0  0  0  0  0  0  0  0  # atno 17394 bound_to 11000
  140.0201  134.9949  157.0575 LP  0  0  0  0  0  0  0  0  0  0  0  0  # atno 17395 bound_to 11000

$$$$
