AV-unprocessed.smi:3313|AV-procd|sdf|12730|dock4
  -GOLD-   2272019 73D 1   1.00000     0.00000
 Structure written by MMmdl.
 43 43  0  0  0  0  0  0  0  0  2 V2000
  148.8668  141.0501  156.0093 C   0  0  0  0  0  0  0  0  0  0  0  0
  149.5579  141.7543  157.1889 C   0  0  1  0  0  0  0  0  0  0  0  0
  150.9172  142.3369  156.7550 C   0  0  0  0  0  0  0  0  0  0  0  0
  151.5326  143.1405  157.7964 N   0  0  0  0  0  0  0  0  0  0  0  0
  151.5642  144.5144  157.9108 C   0  0  0  0  0  0  0  0  0  0  0  0
  152.2585  144.8111  159.0485 C   0  0  0  0  0  0  0  0  0  0  0  0
  152.6155  143.5362  159.5698 C   0  0  0  0  0  0  0  0  0  0  0  0
  152.1819  142.5380  158.8167 N   0  0  0  0  0  0  0  0  0  0  0  0
  148.6965  142.8244  157.7406 N   0  3  0  0  0  0  0  0  0  0  0  0
  147.3447  142.3974  158.1643 C   0  0  0  0  0  0  0  0  0  0  0  0
  146.6182  143.4984  158.9620 C   0  0  0  0  0  0  0  0  0  0  0  0
  145.5136  142.9807  159.8922 C   0  0  0  0  0  0  0  0  0  0  0  0
  145.4604  141.7882  160.1946 O   0  0  0  0  0  0  0  0  0  0  0  0
  144.6390  143.9042  160.3290 N   0  0  0  0  0  0  0  0  0  0  0  0
  143.4790  143.7191  161.2095 C   0  0  0  0  0  0  0  0  0  0  0  0
  142.6009  144.9742  161.0607 C   0  0  0  0  0  0  0  0  0  0  0  0
  143.9253  143.5912  162.6815 C   0  0  0  0  0  0  0  0  0  0  0  0
  142.6619  142.4822  160.7801 C   0  0  0  0  0  0  0  0  0  0  0  0
  149.5094  140.2782  155.5849 H   0  0  0  0  0  0  0  0  0  0  0  0
  148.6267  141.7552  155.2125 H   0  0  0  0  0  0  0  0  0  0  0  0
  147.9407  140.5628  156.3134 H   0  0  0  0  0  0  0  0  0  0  0  0
  149.7431  141.0182  157.9729 H   0  0  0  0  0  0  0  0  0  0  0  0
  151.6082  141.5300  156.5062 H   0  0  0  0  0  0  0  0  0  0  0  0
  150.8112  142.9419  155.8528 H   0  0  0  0  0  0  0  0  0  0  0  0
  151.0957  145.1593  157.1817 H   0  0  0  0  0  0  0  0  0  0  0  0
  152.4765  145.7900  159.4493 H   0  0  0  0  0  0  0  0  0  0  0  0
  153.1735  143.3082  160.4662 H   0  0  0  0  0  0  0  0  0  0  0  0
  149.1637  143.1995  158.5544 H   0  0  0  0  0  0  0  0  0  0  0  0
  146.7501  142.1141  157.2957 H   0  0  0  0  0  0  0  0  0  0  0  0
  147.4356  141.5055  158.7853 H   0  0  0  0  0  0  0  0  0  0  0  0
  147.3424  144.0410  159.5704 H   0  0  0  0  0  0  0  0  0  0  0  0
  146.1896  144.2253  158.2701 H   0  0  0  0  0  0  0  0  0  0  0  0
  144.7915  144.8516  160.0140 H   0  0  0  0  0  0  0  0  0  0  0  0
  141.7095  144.9118  161.6859 H   0  0  0  0  0  0  0  0  0  0  0  0
  142.2682  145.1083  160.0306 H   0  0  0  0  0  0  0  0  0  0  0  0
  143.1416  145.8759  161.3517 H   0  0  0  0  0  0  0  0  0  0  0  0
  144.5325  144.4439  162.9879 H   0  0  0  0  0  0  0  0  0  0  0  0
  144.5107  142.6887  162.8575 H   0  0  0  0  0  0  0  0  0  0  0  0
  143.0643  143.5467  163.3491 H   0  0  0  0  0  0  0  0  0  0  0  0
  141.7489  142.3922  161.3695 H   0  0  0  0  0  0  0  0  0  0  0  0
  143.2184  141.5546  160.9133 H   0  0  0  0  0  0  0  0  0  0  0  0
  142.3687  142.5440  159.7315 H   0  0  0  0  0  0  0  0  0  0  0  0
  148.6118  143.5615  157.0548 H   0  0  0  0  0  0  0  0  0  0  0  0
  1  2  1  0  0  0  0
  1 19  1  0  0  0  0
  1 20  1  0  0  0  0
  1 21  1  0  0  0  0
  2  3  1  0  0  0  0
  2  9  1  0  0  0  0
  2 22  1  0  0  0  0
  3  4  1  0  0  0  0
  3 23  1  0  0  0  0
  3 24  1  0  0  0  0
  4  8  1  0  0  0  0
  4  5  1  0  0  0  0
  5  6  2  0  0  0  0
  5 25  1  0  0  0  0
  6  7  1  0  0  0  0
  6 26  1  0  0  0  0
  7  8  2  0  0  0  0
  7 27  1  0  0  0  0
  9 10  1  0  0  0  0
  9 28  1  0  0  0  0
  9 43  1  0  0  0  0
 10 11  1  0  0  0  0
 10 29  1  0  0  0  0
 10 30  1  0  0  0  0
 11 12  1  0  0  0  0
 11 31  1  0  0  0  0
 11 32  1  0  0  0  0
 12 13  2  0  0  0  0
 12 14  1  0  0  0  0
 14 15  1  0  0  0  0
 14 33  1  0  0  0  0
 15 16  1  0  0  0  0
 15 17  1  0  0  0  0
 15 18  1  0  0  0  0
 16 34  1  0  0  0  0
 16 35  1  0  0  0  0
 16 36  1  0  0  0  0
 17 37  1  0  0  0  0
 17 38  1  0  0  0  0
 17 39  1  0  0  0  0
 18 40  1  0  0  0  0
 18 41  1  0  0  0  0
 18 42  1  0  0  0  0
M  CHG  1   9   1
M  END
> <s_m_source_file>
AV-unprocessed.smi

> <i_m_source_file_index>
3313

> <i_lp_mmshare_version>
43012

> <i_f3d_flags>
0

> <s_epik_input>
bjFbY0hdW2NIXVtjSF1uMVtDSDJdW0NAQEhdKFtDSDNdKVtOSF1bQ0gyXVtDSDJdQyg9TylbTkhdQyhbQ0gzXSkoW0NIM10pW0NIM10=

> <s_epik_cmdline>
J2VwaWtfcHl0aG9uJywgJy1waCcsICc3LjAnLCAnLXRuJywgJzgnLCAnLW1hJywgJzIwMCcsICctbWV0YWxfYmluZGluZycsICctaW1hZScsICc8aW5maWxlLm1hZT4nLCAnLW9tYWUnLCAnPG91dGZpbGUubWFlPic=

> <r_lp_tautomer_probability>
1

> <r_epik_Ionization_Penalty>
0.0056766

> <r_epik_Ionization_Penalty_Charging>
0.00567288

> <r_epik_Ionization_Penalty_Neutral>
3.71277e-06

> <r_epik_State_Penalty>
0.0041598

> <r_epik_Charging_Adjusted_Penalty>
0.00983268

> <i_epik_Tot_Q>
1

> <i_epik_Tot_abs_Q>
1

> <r_epik_Metal_State_Penalty>
-0

> <b_epik_Metal_Only>
0

> <s_lp_Force_Field>
OPLS_2005

> <r_lp_Energy>
4.0528

> <b_lp_Chiralities_Consistent>
1

> <s_lp_Variant>
AV-unprocessed.smi:3313-2

> <Gold.Version>
5.8.1

> <Gold.Id.Protein>
6NUR|6NUR_protein|mol2

> <Gold.PLP.Fitness>
45.7756

> <Gold.PLP.PLP>
-35.5899

> <Gold.PLP.part.hbond>
-2.2160

> <Gold.PLP.part.metal>
0.0000

> <Gold.PLP.part.buried>
-4.5643

> <Gold.PLP.part.nonpolar>
-28.5483

> <Gold.PLP.part.repulsive>
0.0699

> <Gold.PLP.ligand.clash>
0.0000

> <Gold.PLP.ligand.torsion>
0.9950

> <Gold.PLP.Chemscore.Hbond>
3.0000

> <Gold.PLP.Chemscore.CHOScore>
1.0000

> <Gold.PLP.Chemscore.Metal>
0.0000

> <Gold.Chemscore.Hbonds>
donor molecule, donor type, donor heavy atom, donor atom, acceptor molecule, acceptor atom, score
      L1  H     9    43       P1  8028  1.80
      P1  H  6934  6946       L1    13  1.00
      L1  C     5    25       P1  8028  0.66

> <Gold.PLP.Chemscore.Internal.Correction>
0.1757

> <Gold.Rescore>
     Score         DG    S(hbond)    S(metal)    S(lipo)     H(rot)  DE(clash)    DE(int)     intcor
     13.54     -15.64       1.74        0.00      85.33       2.20       0.12       1.98       ----

> <Gold.Chemscore.Fitness>
13.5408

> <Gold.Chemscore.DG>
-15.6411

> <Gold.Chemscore.ZeroCoef>
-5.4800

> <Gold.Chemscore.Hbond>
1.7414

> <Gold.Chemscore.Metal>
0.0000

> <Gold.Chemscore.Lipo>
85.3325

> <Gold.Chemscore.Internal_Hbond>
0.0000

> <Gold.Chemscore.DEClash>
0.1204

> <Gold.Chemscore.DEInternal>
1.9799

> <Gold.Chemscore.Rot>
2.2027

> <Gold.Chemscore.Internal.Correction>
   9.000000E+99

> <Gold.Chemscore.Hbonds>
donor molecule, donor type, donor heavy atom, donor atom, acceptor molecule, acceptor atom, score
      L1  H     9    43       P1  8028  0.18
      P1  H  6934  6946       L1    13  0.99

> <Gold.Chemscore.Hbond.Weighted>
-5.8162

> <Gold.Chemscore.Metal.Weighted>
-0.0000

> <Gold.Chemscore.Lipo.Weighted>
-9.9839

> <Gold.Chemscore.Internal_Hbond.Weighted>
0.0000

> <Gold.Chemscore.DEClash.Weighted>
0.1204

> <Gold.Chemscore.DEInternal.Weighted>
1.9799

> <Gold.Chemscore.Rot.Weighted>
5.6390

> <Gold.Chemscore.Internal.Correction.Weighted>
   9.000000E+99

> <Gold.Protein.RotatedTorsions>
[ 6907 6896 6895 6894 ] final  140.93 input  -60.11 | X-H torsion
[ 7974 7965 7964 7962 ] final -123.62 input  175.53 | X-H torsion
[ 8008 7997 7996 7995 ] final  163.82 input   59.86 | X-H torsion
[ 10167 10162 10161 10158 ] final  115.65 input  -65.29 | X-H torsion
[ 10718 10713 10712 10709 ] final  154.86 input   66.30 | X-H torsion
[ 10763 10752 10751 10750 ] final   84.04 input  -60.55 | X-H torsion
[ 11005 11000 10999 10996 ] final  -16.39 input  -57.11 | X-H torsion

> <Gold.Protein.ActiveResidues>
 VAL166  LYS551  ARG553  GLY616  TRP617  ASP618  TYR619  PRO620  LYS621  CYS622 
 ASP623  PHE694  ASN695  SER759  ASP760  ASP761  ALA762  ILE779  LEU786  VAL792 
 PHE793  MET794  SER795  GLU796  ALA797  LYS798  CYS799  TRP800  GLU811  SER814 

> <Gold.Protein.RotatedAtoms>
  152.2372  133.5105  159.5248 H   0  0  0  0  0  0  0  0  0  0  0  0  # atno 6907 bound_to 6896
  150.7054  134.1138  159.4019 H   0  0  0  0  0  0  0  0  0  0  0  0  # atno 6908 bound_to 6896
  151.9059  135.0359  160.0561 H   0  0  0  0  0  0  0  0  0  0  0  0  # atno 6909 bound_to 6896
  145.0167  140.7953  143.4406 H   0  0  0  0  0  0  0  0  0  0  0  0  # atno 7974 bound_to 7965
  156.1927  140.1713  156.8059 H   0  0  0  0  0  0  0  0  0  0  0  0  # atno 8008 bound_to 7997
  154.5491  140.0721  156.8670 H   0  0  0  0  0  0  0  0  0  0  0  0  # atno 8009 bound_to 7997
  155.3063  140.3364  155.4248 H   0  0  0  0  0  0  0  0  0  0  0  0  # atno 8010 bound_to 7997
  139.6302  144.7114  151.2448 H   0  0  0  0  0  0  0  0  0  0  0  0  # atno 10167 bound_to 10162
  157.2261  131.0729  151.1882 H   0  0  0  0  0  0  0  0  0  0  0  0  # atno 10718 bound_to 10713
  153.1345  135.4669  154.9401 H   0  0  0  0  0  0  0  0  0  0  0  0  # atno 10763 bound_to 10752
  154.7694  135.3154  154.8223 H   0  0  0  0  0  0  0  0  0  0  0  0  # atno 10764 bound_to 10752
  153.8758  135.6899  153.4824 H   0  0  0  0  0  0  0  0  0  0  0  0  # atno 10765 bound_to 10752
  140.8063  133.8175  155.9519 H   0  0  0  0  0  0  0  0  0  0  0  0  # atno 11005 bound_to 11000
  145.1950  139.2281  143.5223 LP  0  0  0  0  0  0  0  0  0  0  0  0  # atno 17320 bound_to 7965
  146.3479  140.1755  142.8589 LP  0  0  0  0  0  0  0  0  0  0  0  0  # atno 17321 bound_to 7965
  140.7434  143.6494  150.8262 LP  0  0  0  0  0  0  0  0  0  0  0  0  # atno 17342 bound_to 10162
  140.0118  143.5634  152.2836 LP  0  0  0  0  0  0  0  0  0  0  0  0  # atno 17343 bound_to 10162
  157.3526  130.7090  149.6450 LP  0  0  0  0  0  0  0  0  0  0  0  0  # atno 17370 bound_to 10713
  155.9678  130.4248  150.4625 LP  0  0  0  0  0  0  0  0  0  0  0  0  # atno 17371 bound_to 10713
  140.9243  134.2102  157.4906 LP  0  0  0  0  0  0  0  0  0  0  0  0  # atno 17394 bound_to 11000
  139.8717  134.9806  156.5081 LP  0  0  0  0  0  0  0  0  0  0  0  0  # atno 17395 bound_to 11000

$$$$
