AV-unprocessed.smi:2445|AV-procd|sdf|9640|dock5
  -GOLD-   2272013273D 1   1.00000     0.00000
 Structure written by MMmdl.
 40 41  0  0  0  0  0  0  0  0  1 V2000
  152.2020  141.9072  158.7962 C   0  0  0  0  0  0  0  0  0  0  0  0
  151.4721  141.5659  157.5419 C   0  0  0  0  0  0  0  0  0  0  0  0
  150.6417  142.3747  156.8068 C   0  0  0  0  0  0  0  0  0  0  0  0
  150.1078  141.7556  155.6749 N   0  0  0  0  0  0  0  0  0  0  0  0
  150.5213  140.4928  155.5383 C   0  0  0  0  0  0  0  0  0  0  0  0
  150.0758  139.5951  154.4223 C   0  0  1  0  0  0  0  0  0  0  0  0
  150.6705  138.1855  154.5478 C   0  0  0  0  0  0  0  0  0  0  0  0
  148.5400  139.5695  154.2476 C   0  0  0  0  0  0  0  0  0  0  0  0
  148.0952  138.5659  153.2845 N   0  0  0  0  0  0  0  0  0  0  0  0
  146.8239  138.3737  152.9091 C   0  0  0  0  0  0  0  0  0  0  0  0
  145.8813  139.0722  153.2821 O   0  0  0  0  0  0  0  0  0  0  0  0
  146.7005  137.3105  152.1040 N   0  0  0  0  0  0  0  0  0  0  0  0
  145.4338  136.7822  151.6084 C   0  0  1  0  0  0  0  0  0  0  0  0
  145.6351  135.5407  150.7648 C   0  0  0  0  0  0  0  0  0  0  0  0
  144.2783  134.8510  150.8772 C   0  0  0  0  0  0  0  0  0  0  0  0
  143.7343  135.2425  152.1341 O   0  0  0  0  0  0  0  0  0  0  0  0
  144.5535  136.2376  152.7405 C   0  0  2  0  0  0  0  0  0  0  0  0
  143.6824  137.2913  153.4356 C   0  0  0  0  0  0  0  0  0  0  0  0
  151.6066  139.9805  156.8276 S   0  0  0  0  0  0  0  0  0  0  0  0
  152.1312  142.9731  159.0146 H   0  0  0  0  0  0  0  0  0  0  0  0
  153.2583  141.6517  158.7115 H   0  0  0  0  0  0  0  0  0  0  0  0
  151.7886  141.3606  159.6439 H   0  0  0  0  0  0  0  0  0  0  0  0
  150.3752  143.4003  157.0155 H   0  0  0  0  0  0  0  0  0  0  0  0
  150.4907  140.0151  153.5047 H   0  0  0  0  0  0  0  0  0  0  0  0
  151.7598  138.2218  154.5837 H   0  0  0  0  0  0  0  0  0  0  0  0
  150.3892  137.5643  153.6970 H   0  0  0  0  0  0  0  0  0  0  0  0
  150.3233  137.6849  155.4519 H   0  0  0  0  0  0  0  0  0  0  0  0
  148.0467  139.4114  155.2077 H   0  0  0  0  0  0  0  0  0  0  0  0
  148.1978  140.5381  153.8822 H   0  0  0  0  0  0  0  0  0  0  0  0
  148.7987  137.9393  152.9218 H   0  0  0  0  0  0  0  0  0  0  0  0
  147.5356  136.8009  151.8548 H   0  0  0  0  0  0  0  0  0  0  0  0
  144.8885  137.5249  151.0221 H   0  0  0  0  0  0  0  0  0  0  0  0
  145.9164  135.7619  149.7348 H   0  0  0  0  0  0  0  0  0  0  0  0
  146.4069  134.9030  151.1990 H   0  0  0  0  0  0  0  0  0  0  0  0
  143.6087  135.1996  150.0900 H   0  0  0  0  0  0  0  0  0  0  0  0
  144.3572  133.7667  150.7977 H   0  0  0  0  0  0  0  0  0  0  0  0
  145.1759  135.7316  153.4806 H   0  0  0  0  0  0  0  0  0  0  0  0
  144.2955  138.0402  153.9372 H   0  0  0  0  0  0  0  0  0  0  0  0
  143.0430  136.8308  154.1887 H   0  0  0  0  0  0  0  0  0  0  0  0
  143.0395  137.8064  152.7215 H   0  0  0  0  0  0  0  0  0  0  0  0
  1  2  1  0  0  0  0
  1 20  1  0  0  0  0
  1 21  1  0  0  0  0
  1 22  1  0  0  0  0
  2 19  1  0  0  0  0
  2  3  2  0  0  0  0
  3  4  1  0  0  0  0
  3 23  1  0  0  0  0
  4  5  2  0  0  0  0
  5  6  1  0  0  0  0
  5 19  1  0  0  0  0
  6  7  1  0  0  0  0
  6  8  1  0  0  0  0
  6 24  1  0  0  0  0
  7 25  1  0  0  0  0
  7 26  1  0  0  0  0
  7 27  1  0  0  0  0
  8  9  1  0  0  0  0
  8 28  1  0  0  0  0
  8 29  1  0  0  0  0
  9 10  1  0  0  0  0
  9 30  1  0  0  0  0
 10 11  2  0  0  0  0
 10 12  1  0  0  0  0
 12 13  1  0  0  0  0
 12 31  1  0  0  0  0
 13 17  1  0  0  0  0
 13 14  1  0  0  0  0
 13 32  1  0  0  0  0
 14 15  1  0  0  0  0
 14 33  1  0  0  0  0
 14 34  1  0  0  0  0
 15 16  1  0  0  0  0
 15 35  1  0  0  0  0
 15 36  1  0  0  0  0
 16 17  1  0  0  0  0
 17 18  1  0  0  0  0
 17 37  1  0  0  0  0
 18 38  1  0  0  0  0
 18 39  1  0  0  0  0
 18 40  1  0  0  0  0
M  END
> <s_m_source_file>
AV-unprocessed.smi

> <i_m_source_file_index>
2445

> <i_lp_mmshare_version>
43012

> <i_f3d_flags>
0

> <s_epik_input>
W0NIM11jMVtjSF1uYyhzMSlbQ0BIXShbQ0gzXSlbQ0gyXVtOSF1DKD1PKVtOSF1bQ0BASF0yW0NIMl1bQ0gyXU9bQ0BIXTJbQ0gzXQ==

> <s_epik_cmdline>
J2VwaWtfcHl0aG9uJywgJy1waCcsICc3LjAnLCAnLXRuJywgJzgnLCAnLW1hJywgJzIwMCcsICctbWV0YWxfYmluZGluZycsICctaW1hZScsICc8aW5maWxlLm1hZT4nLCAnLW9tYWUnLCAnPG91dGZpbGUubWFlPic=

> <r_epik_Ionization_Penalty>
0.000649483

> <r_epik_Ionization_Penalty_Charging>
0

> <r_epik_Ionization_Penalty_Neutral>
0.000649483

> <r_epik_State_Penalty>
0.000379895

> <r_epik_Charging_Adjusted_Penalty>
0.000379895

> <i_epik_Tot_Q>
0

> <i_epik_Tot_abs_Q>
0

> <r_epik_Metal_State_Penalty>
-0

> <b_epik_Metal_Only>
0

> <s_lp_Force_Field>
OPLS_2005

> <r_lp_Energy>
5.35471

> <b_lp_Chiralities_Consistent>
1

> <s_lp_Variant>
AV-unprocessed.smi:2445-8

> <Gold.Version>
5.8.1

> <Gold.Id.Protein>
6NUR|6NUR_protein|mol2

> <Gold.PLP.Fitness>
38.1913

> <Gold.PLP.PLP>
-30.2045

> <Gold.PLP.part.hbond>
-2.9450

> <Gold.PLP.part.metal>
0.0000

> <Gold.PLP.part.buried>
-1.4725

> <Gold.PLP.part.nonpolar>
-28.8779

> <Gold.PLP.part.repulsive>
2.8580

> <Gold.PLP.ligand.clash>
0.0000

> <Gold.PLP.ligand.torsion>
0.1745

> <Gold.PLP.Chemscore.Hbond>
1.8480

> <Gold.PLP.Chemscore.CHOScore>
0.8924

> <Gold.PLP.Chemscore.Metal>
0.0000

> <Gold.Chemscore.Hbonds>
donor molecule, donor type, donor heavy atom, donor atom, acceptor molecule, acceptor atom, score
      L1  H     9    30       P1  7948  0.83
      L1  H    12    31       P1  7948  0.94
      L1  C     3    23       P1  8028  0.90

> <Gold.PLP.Chemscore.Internal.Correction>
0.1145

> <Gold.Rescore>
     Score         DG    S(hbond)    S(metal)    S(lipo)     H(rot)  DE(clash)    DE(int)     intcor
     15.15     -16.61       1.88        0.00      74.99       1.53       0.07       1.39       ----

> <Gold.Chemscore.Fitness>
15.1548

> <Gold.Chemscore.DG>
-16.6110

> <Gold.Chemscore.ZeroCoef>
-5.4800

> <Gold.Chemscore.Hbond>
1.8803

> <Gold.Chemscore.Metal>
0.0000

> <Gold.Chemscore.Lipo>
74.9915

> <Gold.Chemscore.Internal_Hbond>
0.0000

> <Gold.Chemscore.DEClash>
0.0689

> <Gold.Chemscore.DEInternal>
1.3873

> <Gold.Chemscore.Rot>
1.5325

> <Gold.Chemscore.Internal.Correction>
   9.000000E+99

> <Gold.Chemscore.Hbonds>
donor molecule, donor type, donor heavy atom, donor atom, acceptor molecule, acceptor atom, score
      L1  H     9    30       P1  7948  0.79
      L1  H    12    31       P1  7948  0.90

> <Gold.Chemscore.Hbond.Weighted>
-6.2803

> <Gold.Chemscore.Metal.Weighted>
-0.0000

> <Gold.Chemscore.Lipo.Weighted>
-8.7740

> <Gold.Chemscore.Internal_Hbond.Weighted>
0.0000

> <Gold.Chemscore.DEClash.Weighted>
0.0689

> <Gold.Chemscore.DEInternal.Weighted>
1.3873

> <Gold.Chemscore.Rot.Weighted>
3.9233

> <Gold.Chemscore.Internal.Correction.Weighted>
   9.000000E+99

> <Gold.Protein.RotatedTorsions>
[ 6907 6896 6895 6894 ] final  117.01 input  -60.11 | X-H torsion
[ 7974 7965 7964 7962 ] final -112.19 input  175.53 | X-H torsion
[ 8008 7997 7996 7995 ] final   63.70 input   59.86 | X-H torsion
[ 10167 10162 10161 10158 ] final -104.35 input  -65.29 | X-H torsion
[ 10718 10713 10712 10709 ] final  145.69 input   66.30 | X-H torsion
[ 10763 10752 10751 10750 ] final  -17.99 input  -60.55 | X-H torsion
[ 11005 11000 10999 10996 ] final  158.25 input  -57.11 | X-H torsion

> <Gold.Protein.ActiveResidues>
 VAL166  LYS551  ARG553  GLY616  TRP617  ASP618  TYR619  PRO620  LYS621  CYS622 
 ASP623  PHE694  ASN695  SER759  ASP760  ASP761  ALA762  ILE779  LEU786  VAL792 
 PHE793  MET794  SER795  GLU796  ALA797  LYS798  CYS799  TRP800  GLU811  SER814 

> <Gold.Protein.RotatedAtoms>
  152.4640  133.7883  159.6887 H   0  0  0  0  0  0  0  0  0  0  0  0  # atno 6907 bound_to 6896
  150.8596  133.7653  159.3003 H   0  0  0  0  0  0  0  0  0  0  0  0  # atno 6908 bound_to 6896
  151.5222  135.1070  159.9933 H   0  0  0  0  0  0  0  0  0  0  0  0  # atno 6909 bound_to 6896
  145.1470  140.8808  143.3669 H   0  0  0  0  0  0  0  0  0  0  0  0  # atno 7974 bound_to 7965
  155.6343  140.3496  155.4693 H   0  0  0  0  0  0  0  0  0  0  0  0  # atno 8008 bound_to 7997
  155.9977  140.1207  157.0601 H   0  0  0  0  0  0  0  0  0  0  0  0  # atno 8009 bound_to 7997
  154.4239  140.1107  156.5640 H   0  0  0  0  0  0  0  0  0  0  0  0  # atno 8010 bound_to 7997
  140.2102  143.3752  152.1057 H   0  0  0  0  0  0  0  0  0  0  0  0  # atno 10167 bound_to 10162
  157.3422  131.0937  151.1073 H   0  0  0  0  0  0  0  0  0  0  0  0  # atno 10718 bound_to 10713
  153.5824  135.7004  153.5458 H   0  0  0  0  0  0  0  0  0  0  0  0  # atno 10763 bound_to 10752
  153.3249  135.4063  155.1448 H   0  0  0  0  0  0  0  0  0  0  0  0  # atno 10764 bound_to 10752
  154.8615  135.3704  154.5352 H   0  0  0  0  0  0  0  0  0  0  0  0  # atno 10765 bound_to 10752
  140.1847  134.8450  157.2844 H   0  0  0  0  0  0  0  0  0  0  0  0  # atno 11005 bound_to 11000
  145.0471  139.3212  143.5947 LP  0  0  0  0  0  0  0  0  0  0  0  0  # atno 17320 bound_to 7965
  146.3499  139.9866  142.8690 LP  0  0  0  0  0  0  0  0  0  0  0  0  # atno 17321 bound_to 7965
  139.5183  144.7004  151.5511 LP  0  0  0  0  0  0  0  0  0  0  0  0  # atno 17342 bound_to 10162
  140.6329  143.9041  150.6621 LP  0  0  0  0  0  0  0  0  0  0  0  0  # atno 17343 bound_to 10162
  157.2280  130.6512  149.5838 LP  0  0  0  0  0  0  0  0  0  0  0  0  # atno 17370 bound_to 10713
  155.9709  130.4608  150.6085 LP  0  0  0  0  0  0  0  0  0  0  0  0  # atno 17371 bound_to 10713
  140.2227  134.4004  155.7558 LP  0  0  0  0  0  0  0  0  0  0  0  0  # atno 17394 bound_to 11000
  141.2224  133.7174  156.8516 LP  0  0  0  0  0  0  0  0  0  0  0  0  # atno 17395 bound_to 11000

$$$$
