AV-unprocessed.smi:2880|AV-procd|sdf|11054|dock9
  -GOLD-   2272015523D 1   1.00000     0.00000
 Structure written by MMmdl.
 47 48  0  0  0  0  0  0  0  0  1 V2000
  149.4004  141.4583  154.9873 C   0  0  0  0  0  0  0  0  0  0  0  0
  147.8776  141.3963  155.2180 C   0  0  0  0  0  0  0  0  0  0  0  0
  147.5656  142.0289  156.5951 C   0  0  0  0  0  0  0  0  0  0  0  0
  147.1523  142.2115  154.1299 C   0  0  0  0  0  0  0  0  0  0  0  0
  147.4389  139.9966  155.1367 N   0  0  0  0  0  0  0  0  0  0  0  0
  146.8016  139.2481  156.1122 C   0  0  0  0  0  0  0  0  0  0  0  0
  146.5827  137.9965  155.6119 C   0  0  0  0  0  0  0  0  0  0  0  0
  147.1301  138.0698  154.3035 C   0  0  0  0  0  0  0  0  0  0  0  0
  147.0941  136.9466  153.4386 N   0  0  0  0  0  0  0  0  0  0  0  0
  146.1366  136.0074  153.3535 C   0  0  0  0  0  0  0  0  0  0  0  0
  145.0965  135.9939  154.0129 O   0  0  0  0  0  0  0  0  0  0  0  0
  146.4622  135.0673  152.4535 N   0  0  0  0  0  0  0  0  0  0  0  0
  145.6757  133.8774  152.1305 C   0  0  1  0  0  0  0  0  0  0  0  0
  144.7434  134.2115  150.9489 C   0  0  0  0  0  0  0  0  0  0  0  0
  143.9046  132.9977  150.5264 C   0  0  0  0  0  0  0  0  0  0  0  0
  144.8062  131.8042  150.1881 C   0  0  0  0  0  0  0  0  0  0  0  0
  145.7278  131.4597  151.3675 C   0  0  0  0  0  0  0  0  0  0  0  0
  146.5909  132.6629  151.8061 C   0  0  2  0  0  0  0  0  0  0  0  0
  147.5083  132.2490  152.9803 C   0  0  0  0  0  0  0  0  0  0  0  0
  148.3255  131.1450  152.6484 O   0  0  0  0  0  0  0  0  0  0  0  0
  147.6426  139.2577  154.0193 N   0  0  0  0  0  0  0  0  0  0  0  0
  149.7686  142.4827  155.0492 H   0  0  0  0  0  0  0  0  0  0  0  0
  149.6784  141.0736  154.0056 H   0  0  0  0  0  0  0  0  0  0  0  0
  149.9363  140.8713  155.7342 H   0  0  0  0  0  0  0  0  0  0  0  0
  148.0626  141.4946  157.4057 H   0  0  0  0  0  0  0  0  0  0  0  0
  146.4950  142.0319  156.8048 H   0  0  0  0  0  0  0  0  0  0  0  0
  147.9040  143.0649  156.6381 H   0  0  0  0  0  0  0  0  0  0  0  0
  147.4430  143.2621  154.1620 H   0  0  0  0  0  0  0  0  0  0  0  0
  146.0701  142.1663  154.2584 H   0  0  0  0  0  0  0  0  0  0  0  0
  147.3792  141.8435  153.1289 H   0  0  0  0  0  0  0  0  0  0  0  0
  146.5566  139.6653  157.0776 H   0  0  0  0  0  0  0  0  0  0  0  0
  146.1061  137.1629  156.1056 H   0  0  0  0  0  0  0  0  0  0  0  0
  147.8936  136.8341  152.8330 H   0  0  0  0  0  0  0  0  0  0  0  0
  147.3415  135.1673  151.9680 H   0  0  0  0  0  0  0  0  0  0  0  0
  145.0462  133.6047  152.9797 H   0  0  0  0  0  0  0  0  0  0  0  0
  144.0812  135.0359  151.2168 H   0  0  0  0  0  0  0  0  0  0  0  0
  145.3341  134.5546  150.0980 H   0  0  0  0  0  0  0  0  0  0  0  0
  143.2204  132.7255  151.3312 H   0  0  0  0  0  0  0  0  0  0  0  0
  143.2853  133.2529  149.6663 H   0  0  0  0  0  0  0  0  0  0  0  0
  144.1961  130.9390  149.9271 H   0  0  0  0  0  0  0  0  0  0  0  0
  145.4078  132.0354  149.3081 H   0  0  0  0  0  0  0  0  0  0  0  0
  145.1253  131.1142  152.2088 H   0  0  0  0  0  0  0  0  0  0  0  0
  146.3691  130.6238  151.0857 H   0  0  0  0  0  0  0  0  0  0  0  0
  147.2259  132.9240  150.9576 H   0  0  0  0  0  0  0  0  0  0  0  0
  148.1323  133.0845  153.2991 H   0  0  0  0  0  0  0  0  0  0  0  0
  146.9120  131.9525  153.8437 H   0  0  0  0  0  0  0  0  0  0  0  0
  148.2884  131.0151  151.7129 H   0  0  0  0  0  0  0  0  0  0  0  0
  1  2  1  0  0  0  0
  1 22  1  0  0  0  0
  1 23  1  0  0  0  0
  1 24  1  0  0  0  0
  2  3  1  0  0  0  0
  2  4  1  0  0  0  0
  2  5  1  0  0  0  0
  3 25  1  0  0  0  0
  3 26  1  0  0  0  0
  3 27  1  0  0  0  0
  4 28  1  0  0  0  0
  4 29  1  0  0  0  0
  4 30  1  0  0  0  0
  5 21  1  0  0  0  0
  5  6  1  0  0  0  0
  6  7  2  0  0  0  0
  6 31  1  0  0  0  0
  7  8  1  0  0  0  0
  7 32  1  0  0  0  0
  8  9  1  0  0  0  0
  8 21  2  0  0  0  0
  9 10  1  0  0  0  0
  9 33  1  0  0  0  0
 10 11  2  0  0  0  0
 10 12  1  0  0  0  0
 12 13  1  0  0  0  0
 12 34  1  0  0  0  0
 13 18  1  0  0  0  0
 13 14  1  0  0  0  0
 13 35  1  0  0  0  0
 14 15  1  0  0  0  0
 14 36  1  0  0  0  0
 14 37  1  0  0  0  0
 15 16  1  0  0  0  0
 15 38  1  0  0  0  0
 15 39  1  0  0  0  0
 16 17  1  0  0  0  0
 16 40  1  0  0  0  0
 16 41  1  0  0  0  0
 17 18  1  0  0  0  0
 17 42  1  0  0  0  0
 17 43  1  0  0  0  0
 18 19  1  0  0  0  0
 18 44  1  0  0  0  0
 19 20  1  0  0  0  0
 19 45  1  0  0  0  0
 19 46  1  0  0  0  0
 20 47  1  0  0  0  0
M  END
> <s_m_source_file>
AV-unprocessed.smi

> <i_m_source_file_index>
2880

> <i_lp_mmshare_version>
43012

> <i_f3d_flags>
0

> <s_epik_input>
W0NIM11DKFtDSDNdKShbQ0gzXSluMVtjSF1bY0hdYyhuMSlbTkhdQyg9TylbTkhdW0NAQEhdMltDSDJdW0NIMl1bQ0gyXVtDSDJdW0NASF0yW0NIMl1bT0hd

> <s_epik_cmdline>
J2VwaWtfcHl0aG9uJywgJy1waCcsICc3LjAnLCAnLXRuJywgJzgnLCAnLW1hJywgJzIwMCcsICctbWV0YWxfYmluZGluZycsICctaW1hZScsICc8aW5maWxlLm1hZT4nLCAnLW9tYWUnLCAnPG91dGZpbGUubWFlPic=

> <r_lp_tautomer_probability>
1

> <r_epik_Ionization_Penalty>
3.89283e-05

> <r_epik_Ionization_Penalty_Charging>
0

> <r_epik_Ionization_Penalty_Neutral>
3.89283e-05

> <r_epik_State_Penalty>
-0

> <r_epik_Charging_Adjusted_Penalty>
0

> <i_epik_Tot_Q>
0

> <i_epik_Tot_abs_Q>
0

> <r_epik_Metal_State_Penalty>
-0

> <b_epik_Metal_Only>
0

> <s_lp_Force_Field>
OPLS_2005

> <r_lp_Energy>
21.9333

> <b_lp_Chiralities_Consistent>
1

> <s_lp_Variant>
AV-unprocessed.smi:2880-4

> <Gold.Version>
5.8.1

> <Gold.Id.Protein>
6NUR|6NUR_protein|mol2

> <Gold.PLP.Fitness>
38.2403

> <Gold.PLP.PLP>
-30.6983

> <Gold.PLP.part.hbond>
-2.8130

> <Gold.PLP.part.metal>
0.0000

> <Gold.PLP.part.buried>
-4.0376

> <Gold.PLP.part.nonpolar>
-24.6191

> <Gold.PLP.part.repulsive>
0.1992

> <Gold.PLP.ligand.clash>
0.0000

> <Gold.PLP.ligand.torsion>
0.6017

> <Gold.PLP.Chemscore.Hbond>
2.9120

> <Gold.PLP.Chemscore.CHOScore>
0.0000

> <Gold.PLP.Chemscore.Metal>
0.0000

> <Gold.Chemscore.Hbonds>
donor molecule, donor type, donor heavy atom, donor atom, acceptor molecule, acceptor atom, score
      L1  H     9    33       P1  7948  1.00
      L1  H    12    34       P1  7948  0.91
      L1  H    20    47       P1 10747  1.00

> <Gold.PLP.Chemscore.Internal.Correction>
0.0094

> <Gold.Rescore>
     Score         DG    S(hbond)    S(metal)    S(lipo)     H(rot)  DE(clash)    DE(int)     intcor
     16.81     -18.56       2.89        0.00      72.44       1.97       0.00       1.75       ----

> <Gold.Chemscore.Fitness>
16.8102

> <Gold.Chemscore.DG>
-18.5583

> <Gold.Chemscore.ZeroCoef>
-5.4800

> <Gold.Chemscore.Hbond>
2.8859

> <Gold.Chemscore.Metal>
0.0000

> <Gold.Chemscore.Lipo>
72.4402

> <Gold.Chemscore.Internal_Hbond>
0.0000

> <Gold.Chemscore.DEClash>
0.0015

> <Gold.Chemscore.DEInternal>
1.7466

> <Gold.Chemscore.Rot>
1.9672

> <Gold.Chemscore.Internal.Correction>
   9.000000E+99

> <Gold.Chemscore.Hbonds>
donor molecule, donor type, donor heavy atom, donor atom, acceptor molecule, acceptor atom, score
      L1  H     9    33       P1  7948  0.96
      L1  H    12    34       P1  7948  0.87
      L1  H    20    47       P1 10747  0.94

> <Gold.Chemscore.Hbond.Weighted>
-9.6388

> <Gold.Chemscore.Metal.Weighted>
-0.0000

> <Gold.Chemscore.Lipo.Weighted>
-8.4755

> <Gold.Chemscore.Internal_Hbond.Weighted>
0.0000

> <Gold.Chemscore.DEClash.Weighted>
0.0015

> <Gold.Chemscore.DEInternal.Weighted>
1.7466

> <Gold.Chemscore.Rot.Weighted>
5.0360

> <Gold.Chemscore.Internal.Correction.Weighted>
   9.000000E+99

> <Gold.Protein.RotatedTorsions>
[ 6907 6896 6895 6894 ] final  162.60 input  -60.11 | X-H torsion
[ 7974 7965 7964 7962 ] final   63.61 input  175.53 | X-H torsion
[ 8008 7997 7996 7995 ] final  138.67 input   59.86 | X-H torsion
[ 10167 10162 10161 10158 ] final  -66.51 input  -65.29 | X-H torsion
[ 10718 10713 10712 10709 ] final  -20.80 input   66.30 | X-H torsion
[ 10763 10752 10751 10750 ] final   73.54 input  -60.55 | X-H torsion
[ 11005 11000 10999 10996 ] final   -5.08 input  -57.11 | X-H torsion

> <Gold.Protein.ActiveResidues>
 VAL166  LYS551  ARG553  GLY616  TRP617  ASP618  TYR619  PRO620  LYS621  CYS622 
 ASP623  PHE694  ASN695  SER759  ASP760  ASP761  ALA762  ILE779  LEU786  VAL792 
 PHE793  MET794  SER795  GLU796  ALA797  LYS798  CYS799  TRP800  GLU811  SER814 

> <Gold.Protein.RotatedAtoms>
  151.9380  133.3629  159.3954 H   0  0  0  0  0  0  0  0  0  0  0  0  # atno 6907 bound_to 6896
  150.7004  134.4469  159.5327 H   0  0  0  0  0  0  0  0  0  0  0  0  # atno 6908 bound_to 6896
  152.2121  134.8492  160.0547 H   0  0  0  0  0  0  0  0  0  0  0  0  # atno 6909 bound_to 6896
  145.8598  139.3307  143.0825 H   0  0  0  0  0  0  0  0  0  0  0  0  # atno 7974 bound_to 7965
  156.2996  140.2387  156.4111 H   0  0  0  0  0  0  0  0  0  0  0  0  # atno 8008 bound_to 7997
  154.8440  140.0427  157.1580 H   0  0  0  0  0  0  0  0  0  0  0  0  # atno 8009 bound_to 7997
  154.9071  140.2985  155.5290 H   0  0  0  0  0  0  0  0  0  0  0  0  # atno 8010 bound_to 7997
  140.5651  143.2314  151.6650 H   0  0  0  0  0  0  0  0  0  0  0  0  # atno 10167 bound_to 10162
  156.5269  130.4646  149.6567 H   0  0  0  0  0  0  0  0  0  0  0  0  # atno 10718 bound_to 10713
  153.0528  135.5059  154.7909 H   0  0  0  0  0  0  0  0  0  0  0  0  # atno 10763 bound_to 10752
  154.6758  135.2960  154.9683 H   0  0  0  0  0  0  0  0  0  0  0  0  # atno 10764 bound_to 10752
  154.0486  135.6707  153.4850 H   0  0  0  0  0  0  0  0  0  0  0  0  # atno 10765 bound_to 10752
  140.6873  133.9102  155.8594 H   0  0  0  0  0  0  0  0  0  0  0  0  # atno 11005 bound_to 11000
  145.9261  140.9081  143.0380 LP  0  0  0  0  0  0  0  0  0  0  0  0  # atno 17320 bound_to 7965
  144.6727  140.1355  143.7441 LP  0  0  0  0  0  0  0  0  0  0  0  0  # atno 17321 bound_to 7965
  139.5089  144.3595  152.0576 LP  0  0  0  0  0  0  0  0  0  0  0  0  # atno 17342 bound_to 10162
  140.2726  144.3948  150.6146 LP  0  0  0  0  0  0  0  0  0  0  0  0  # atno 17343 bound_to 10162
  156.3096  130.7221  151.2111 LP  0  0  0  0  0  0  0  0  0  0  0  0  # atno 17370 bound_to 10713
  157.7428  131.0485  150.4997 LP  0  0  0  0  0  0  0  0  0  0  0  0  # atno 17371 bound_to 10713
  141.0270  134.0809  157.4057 LP  0  0  0  0  0  0  0  0  0  0  0  0  # atno 17394 bound_to 11000
  139.8934  135.0130  156.6896 LP  0  0  0  0  0  0  0  0  0  0  0  0  # atno 17395 bound_to 11000

$$$$
