AV-unprocessed.smi:3287|AV-procd|sdf|12599|dock1
  -GOLD-   2272018523D 1   1.00000     0.00000
 Structure written by MMmdl.
 43 44  0  0  0  0  0  0  0  0  2 V2000
  143.9419  133.2786  149.8363 C   0  0  0  0  0  0  0  0  0  0  0  0
  144.4548  133.5185  151.2675 C   0  0  1  0  0  0  0  0  0  0  0  0
  145.9875  133.6853  151.2499 C   0  0  0  0  0  0  0  0  0  0  0  0
  146.5632  133.9184  152.6555 C   0  0  0  0  0  0  0  0  0  0  0  0
  145.9096  135.1216  153.3553 C   0  0  1  0  0  0  0  0  0  0  0  0
  146.3427  136.3896  152.7227 N   0  3  0  0  0  0  0  0  0  0  0  0
  146.4868  137.5411  153.6395 C   0  0  0  0  0  0  0  0  0  0  0  0
  146.9722  138.7959  152.8936 C   0  0  2  0  0  0  0  0  0  0  0  0
  147.4476  138.4145  151.6169 O   0  0  0  0  0  0  0  0  0  0  0  0
  148.0334  139.5315  153.6969 C   0  0  0  0  0  0  0  0  0  0  0  0
  149.1716  138.8462  154.1712 C   0  0  0  0  0  0  0  0  0  0  0  0
  150.1358  139.5668  154.9041 C   0  0  0  0  0  0  0  0  0  0  0  0
  150.0278  140.8850  155.1757 N   0  0  0  0  0  0  0  0  0  0  0  0
  148.9382  141.5374  154.7176 C   0  0  0  0  0  0  0  0  0  0  0  0
  147.9173  140.9113  153.9745 C   0  0  0  0  0  0  0  0  0  0  0  0
  144.3751  134.9616  153.3651 C   0  0  0  0  0  0  0  0  0  0  0  0
  143.7790  134.7326  151.9585 C   0  0  2  0  0  0  0  0  0  0  0  0
  142.2500  134.5878  152.0598 C   0  0  0  0  0  0  0  0  0  0  0  0
  144.0740  134.1637  149.2132 H   0  0  0  0  0  0  0  0  0  0  0  0
  142.8856  133.0120  149.8227 H   0  0  0  0  0  0  0  0  0  0  0  0
  144.4793  132.4569  149.3617 H   0  0  0  0  0  0  0  0  0  0  0  0
  144.2257  132.6256  151.8516 H   0  0  0  0  0  0  0  0  0  0  0  0
  146.4513  132.7980  150.8169 H   0  0  0  0  0  0  0  0  0  0  0  0
  146.2601  134.5171  150.5990 H   0  0  0  0  0  0  0  0  0  0  0  0
  146.4009  133.0230  153.2571 H   0  0  0  0  0  0  0  0  0  0  0  0
  147.6442  134.0532  152.6000 H   0  0  0  0  0  0  0  0  0  0  0  0
  146.2672  135.1349  154.3859 H   0  0  0  0  0  0  0  0  0  0  0  0
  147.2502  136.2305  152.3079 H   0  0  0  0  0  0  0  0  0  0  0  0
  145.5232  137.7515  154.1033 H   0  0  0  0  0  0  0  0  0  0  0  0
  147.1803  137.2879  154.4428 H   0  0  0  0  0  0  0  0  0  0  0  0
  146.1296  139.4714  152.7377 H   0  0  0  0  0  0  0  0  0  0  0  0
  148.2130  138.9320  151.4152 H   0  0  0  0  0  0  0  0  0  0  0  0
  149.3088  137.7919  153.9800 H   0  0  0  0  0  0  0  0  0  0  0  0
  151.0184  139.0710  155.2804 H   0  0  0  0  0  0  0  0  0  0  0  0
  148.8786  142.5909  154.9481 H   0  0  0  0  0  0  0  0  0  0  0  0
  147.0684  141.4823  153.6279 H   0  0  0  0  0  0  0  0  0  0  0  0
  144.1210  134.1082  153.9959 H   0  0  0  0  0  0  0  0  0  0  0  0
  143.9025  135.8217  153.8389 H   0  0  0  0  0  0  0  0  0  0  0  0
  143.9811  135.6216  151.3593 H   0  0  0  0  0  0  0  0  0  0  0  0
  141.9716  133.6760  152.5894 H   0  0  0  0  0  0  0  0  0  0  0  0
  141.7788  134.5627  151.0777 H   0  0  0  0  0  0  0  0  0  0  0  0
  141.8117  135.4289  152.5976 H   0  0  0  0  0  0  0  0  0  0  0  0
  145.6936  136.6268  151.9863 H   0  0  0  0  0  0  0  0  0  0  0  0
  1  2  1  0  0  0  0
  1 19  1  0  0  0  0
  1 20  1  0  0  0  0
  1 21  1  0  0  0  0
  2 17  1  0  0  0  0
  2  3  1  0  0  0  0
  2 22  1  0  0  0  0
  3  4  1  0  0  0  0
  3 23  1  0  0  0  0
  3 24  1  0  0  0  0
  4  5  1  0  0  0  0
  4 25  1  0  0  0  0
  4 26  1  0  0  0  0
  5  6  1  0  0  0  0
  5 16  1  0  0  0  0
  5 27  1  0  0  0  0
  6  7  1  0  0  0  0
  6 28  1  0  0  0  0
  6 43  1  0  0  0  0
  7  8  1  0  0  0  0
  7 29  1  0  0  0  0
  7 30  1  0  0  0  0
  8  9  1  0  0  0  0
  8 10  1  0  0  0  0
  8 31  1  0  0  0  0
  9 32  1  0  0  0  0
 10 15  1  0  0  0  0
 10 11  2  0  0  0  0
 11 12  1  0  0  0  0
 11 33  1  0  0  0  0
 12 13  2  0  0  0  0
 12 34  1  0  0  0  0
 13 14  1  0  0  0  0
 14 15  2  0  0  0  0
 14 35  1  0  0  0  0
 15 36  1  0  0  0  0
 16 17  1  0  0  0  0
 16 37  1  0  0  0  0
 16 38  1  0  0  0  0
 17 18  1  0  0  0  0
 17 39  1  0  0  0  0
 18 40  1  0  0  0  0
 18 41  1  0  0  0  0
 18 42  1  0  0  0  0
M  CHG  1   6   1
M  END
> <s_m_source_file>
AV-unprocessed.smi

> <i_m_source_file_index>
3287

> <i_lp_mmshare_version>
43012

> <i_f3d_flags>
0

> <s_epik_input>
W0NIM11bQ0BASF0xW0NIMl1bQ0gyXVtDQEhdKFtDSDJdW0NASF0xW0NIM10pW05IXVtDSDJdW0NASF0oW09IXSljMltjSF1bY0hdbltjSF1bY0hdMg==

> <s_epik_cmdline>
J2VwaWtfcHl0aG9uJywgJy1waCcsICc3LjAnLCAnLXRuJywgJzgnLCAnLW1hJywgJzIwMCcsICctbWV0YWxfYmluZGluZycsICctaW1hZScsICc8aW5maWxlLm1hZT4nLCAnLW9tYWUnLCAnPG91dGZpbGUubWFlPic=

> <r_lp_tautomer_probability>
1

> <r_epik_Ionization_Penalty>
0.00537262

> <r_epik_Ionization_Penalty_Charging>
0.00321624

> <r_epik_Ionization_Penalty_Neutral>
0.00215638

> <r_epik_State_Penalty>
-0

> <r_epik_Charging_Adjusted_Penalty>
0.00321624

> <i_epik_Tot_Q>
1

> <i_epik_Tot_abs_Q>
1

> <r_epik_Metal_State_Penalty>
-0

> <b_epik_Metal_Only>
0

> <s_lp_Force_Field>
OPLS_2005

> <r_lp_Energy>
19.0403

> <b_lp_Chiralities_Consistent>
1

> <s_lp_Variant>
AV-unprocessed.smi:3287-10

> <Gold.Version>
5.8.1

> <Gold.Id.Protein>
6NUR|6NUR_protein|mol2

> <Gold.PLP.Fitness>
42.8429

> <Gold.PLP.PLP>
-33.2014

> <Gold.PLP.part.hbond>
-5.0000

> <Gold.PLP.part.metal>
0.0000

> <Gold.PLP.part.buried>
-0.9524

> <Gold.PLP.part.nonpolar>
-26.6232

> <Gold.PLP.part.repulsive>
0.1181

> <Gold.PLP.ligand.clash>
0.0000

> <Gold.PLP.ligand.torsion>
1.1897

> <Gold.PLP.Chemscore.Hbond>
3.0000

> <Gold.PLP.Chemscore.CHOScore>
1.0000

> <Gold.PLP.Chemscore.Metal>
0.0000

> <Gold.Chemscore.Hbonds>
donor molecule, donor type, donor heavy atom, donor atom, acceptor molecule, acceptor atom, score
      L1  H     6    28       P1  7948  2.00
      L1  H     9    32       P1  7957  1.00
      L1  C    14    35       P1  8028  1.00

> <Gold.PLP.Chemscore.Internal.Correction>
0.0209

> <Gold.Rescore>
     Score         DG    S(hbond)    S(metal)    S(lipo)     H(rot)  DE(clash)    DE(int)     intcor
     15.46     -16.69       1.96        0.00      81.39       1.90       0.17       1.05       ----

> <Gold.Chemscore.Fitness>
15.4613

> <Gold.Chemscore.DG>
-16.6861

> <Gold.Chemscore.ZeroCoef>
-5.4800

> <Gold.Chemscore.Hbond>
1.9629

> <Gold.Chemscore.Metal>
0.0000

> <Gold.Chemscore.Lipo>
81.3912

> <Gold.Chemscore.Internal_Hbond>
0.0000

> <Gold.Chemscore.DEClash>
0.1718

> <Gold.Chemscore.DEInternal>
1.0530

> <Gold.Chemscore.Rot>
1.9035

> <Gold.Chemscore.Internal.Correction>
   9.000000E+99

> <Gold.Chemscore.Hbonds>
donor molecule, donor type, donor heavy atom, donor atom, acceptor molecule, acceptor atom, score
      L1  H     6    28       P1  7948  1.00
      L1  H     9    32       P1  7957  0.60

> <Gold.Chemscore.Hbond.Weighted>
-6.5562

> <Gold.Chemscore.Metal.Weighted>
-0.0000

> <Gold.Chemscore.Lipo.Weighted>
-9.5228

> <Gold.Chemscore.Internal_Hbond.Weighted>
0.0000

> <Gold.Chemscore.DEClash.Weighted>
0.1718

> <Gold.Chemscore.DEInternal.Weighted>
1.0530

> <Gold.Chemscore.Rot.Weighted>
4.8729

> <Gold.Chemscore.Internal.Correction.Weighted>
   9.000000E+99

> <Gold.Protein.RotatedTorsions>
[ 6907 6896 6895 6894 ] final  177.70 input  -60.11 | X-H torsion
[ 7974 7965 7964 7962 ] final  -20.34 input  175.53 | X-H torsion
[ 8008 7997 7996 7995 ] final   29.96 input   59.86 | X-H torsion
[ 10167 10162 10161 10158 ] final  145.50 input  -65.29 | X-H torsion
[ 10718 10713 10712 10709 ] final   13.57 input   66.30 | X-H torsion
[ 10763 10752 10751 10750 ] final  166.02 input  -60.55 | X-H torsion
[ 11005 11000 10999 10996 ] final  -50.51 input  -57.11 | X-H torsion

> <Gold.Protein.ActiveResidues>
 VAL166  LYS551  ARG553  GLY616  TRP617  ASP618  TYR619  PRO620  LYS621  CYS622 
 ASP623  PHE694  ASN695  SER759  ASP760  ASP761  ALA762  ILE779  LEU786  VAL792 
 PHE793  MET794  SER795  GLU796  ALA797  LYS798  CYS799  TRP800  GLU811  SER814 

> <Gold.Protein.RotatedAtoms>
  151.6997  133.3311  159.3263 H   0  0  0  0  0  0  0  0  0  0  0  0  # atno 6907 bound_to 6896
  150.7741  134.6626  159.6357 H   0  0  0  0  0  0  0  0  0  0  0  0  # atno 6908 bound_to 6896
  152.3777  134.6641  160.0206 H   0  0  0  0  0  0  0  0  0  0  0  0  # atno 6909 bound_to 6896
  146.1793  140.4188  142.8501 H   0  0  0  0  0  0  0  0  0  0  0  0  # atno 7974 bound_to 7965
  155.0827  140.3212  155.4596 H   0  0  0  0  0  0  0  0  0  0  0  0  # atno 8008 bound_to 7997
  156.2763  140.2092  156.5901 H   0  0  0  0  0  0  0  0  0  0  0  0  # atno 8009 bound_to 7997
  154.6965  140.0511  157.0403 H   0  0  0  0  0  0  0  0  0  0  0  0  # atno 8010 bound_to 7997
  139.4925  144.5897  151.6706 H   0  0  0  0  0  0  0  0  0  0  0  0  # atno 10167 bound_to 10162
  157.0265  130.6176  149.5729 H   0  0  0  0  0  0  0  0  0  0  0  0  # atno 10718 bound_to 10713
  154.3328  135.2754  155.2463 H   0  0  0  0  0  0  0  0  0  0  0  0  # atno 10763 bound_to 10752
  154.4768  135.5869  153.6364 H   0  0  0  0  0  0  0  0  0  0  0  0  # atno 10764 bound_to 10752
  152.9865  135.6101  154.3522 H   0  0  0  0  0  0  0  0  0  0  0  0  # atno 10765 bound_to 10752
  141.0820  133.6651  156.3741 H   0  0  0  0  0  0  0  0  0  0  0  0  # atno 11005 bound_to 11000
  144.8288  140.6673  143.6304 LP  0  0  0  0  0  0  0  0  0  0  0  0  # atno 17320 bound_to 7965
  145.4121  139.1578  143.4120 LP  0  0  0  0  0  0  0  0  0  0  0  0  # atno 17321 bound_to 7965
  140.5521  144.0408  150.6131 LP  0  0  0  0  0  0  0  0  0  0  0  0  # atno 17342 bound_to 10162
  140.3466  143.2988  152.0532 LP  0  0  0  0  0  0  0  0  0  0  0  0  # atno 17343 bound_to 10162
  156.0084  130.5173  150.7907 LP  0  0  0  0  0  0  0  0  0  0  0  0  # atno 17370 bound_to 10713
  157.5210  131.0931  151.0078 LP  0  0  0  0  0  0  0  0  0  0  0  0  # atno 17371 bound_to 10713
  140.5448  134.6085  157.5390 LP  0  0  0  0  0  0  0  0  0  0  0  0  # atno 17394 bound_to 11000
  139.9634  134.7414  156.0189 LP  0  0  0  0  0  0  0  0  0  0  0  0  # atno 17395 bound_to 11000

$$$$
