AV-unprocessed.smi:96|AV-procd|sdf|859|dock1
  -GOLD-   2262017303D 1   1.00000     0.00000
 Structure written by MMmdl.
 43 46  0  0  0  0  0  0  0  0  1 V2000
  153.3394  138.9242  156.2972 O   0  0  0  0  0  0  0  0  0  0  0  0
  152.2195  139.4009  156.1085 C   0  0  0  0  0  0  0  0  0  0  0  0
  151.4040  139.0113  154.8650 C   0  0  0  0  0  0  0  0  0  0  0  0
  150.4705  137.8858  155.0923 N   0  0  0  0  0  0  0  0  0  0  0  0
  149.0947  138.0766  154.8106 C   0  0  0  0  0  0  0  0  0  0  0  0
  148.6704  139.1584  154.4013 O   0  0  0  0  0  0  0  0  0  0  0  0
  148.2407  136.9144  155.0262 C   0  0  0  0  0  0  0  0  0  0  0  0
  146.9241  136.9985  154.7703 F   0  0  0  0  0  0  0  0  0  0  0  0
  148.7529  135.7507  155.4762 C   0  0  0  0  0  0  0  0  0  0  0  0
  150.0923  135.5835  155.7680 N   0  0  0  0  0  0  0  0  0  0  0  0
  150.5851  134.2285  156.2209 C   0  0  2  0  0  0  0  0  0  0  0  0
  150.3292  133.1054  155.1979 C   0  0  0  0  0  0  0  0  0  0  0  0
  149.4903  132.1127  155.9860 C   0  0  0  0  0  0  0  0  0  0  0  0
  149.8078  132.4728  157.4332 C   0  0  0  0  0  0  0  0  0  0  0  0
  149.9249  133.8864  157.4002 O   0  0  0  0  0  0  0  0  0  0  0  0
  150.9929  136.6515  155.5481 C   0  0  0  0  0  0  0  0  0  0  0  0
  152.2021  136.5123  155.7398 O   0  0  0  0  0  0  0  0  0  0  0  0
  151.6251  140.2961  156.9187 N   0  0  0  0  0  0  0  0  0  0  0  0
  152.1051  140.8531  158.1350 C   0  0  0  0  0  0  0  0  0  0  0  0
  153.1522  140.2692  158.9056 C   0  0  0  0  0  0  0  0  0  0  0  0
  153.5741  140.8595  160.1187 C   0  0  0  0  0  0  0  0  0  0  0  0
  152.9223  142.0284  160.5420 C   0  0  0  0  0  0  0  0  0  0  0  0
  151.8982  142.5899  159.8091 C   0  0  0  0  0  0  0  0  0  0  0  0
  151.4598  142.0239  158.6010 C   0  0  0  0  0  0  0  0  0  0  0  0
  151.4415  143.7003  160.4427 O   0  0  0  0  0  0  0  0  0  0  0  0
  152.2171  143.8243  161.6068 C   0  0  0  0  0  0  0  0  0  0  0  0
  153.1417  142.7682  161.6585 O   0  0  0  0  0  0  0  0  0  0  0  0
  150.8682  139.8939  154.5116 H   0  0  0  0  0  0  0  0  0  0  0  0
  152.0990  138.7849  154.0548 H   0  0  0  0  0  0  0  0  0  0  0  0
  148.0779  134.9186  155.6139 H   0  0  0  0  0  0  0  0  0  0  0  0
  151.6494  134.3489  156.4286 H   0  0  0  0  0  0  0  0  0  0  0  0
  149.8313  133.4636  154.2966 H   0  0  0  0  0  0  0  0  0  0  0  0
  151.2878  132.6708  154.9126 H   0  0  0  0  0  0  0  0  0  0  0  0
  148.4304  132.2742  155.7876 H   0  0  0  0  0  0  0  0  0  0  0  0
  149.7229  131.0746  155.7473 H   0  0  0  0  0  0  0  0  0  0  0  0
  149.0331  132.1490  158.1285 H   0  0  0  0  0  0  0  0  0  0  0  0
  150.7574  132.0345  157.7445 H   0  0  0  0  0  0  0  0  0  0  0  0
  150.7474  140.6710  156.5892 H   0  0  0  0  0  0  0  0  0  0  0  0
  153.6372  139.3579  158.5921 H   0  0  0  0  0  0  0  0  0  0  0  0
  154.3679  140.4210  160.7052 H   0  0  0  0  0  0  0  0  0  0  0  0
  150.6538  142.4788  158.0437 H   0  0  0  0  0  0  0  0  0  0  0  0
  152.7494  144.7759  161.5914 H   0  0  0  0  0  0  0  0  0  0  0  0
  151.5693  143.7860  162.4833 H   0  0  0  0  0  0  0  0  0  0  0  0
  1  2  2  0  0  0  0
  2  3  1  0  0  0  0
  2 18  1  0  0  0  0
  3  4  1  0  0  0  0
  3 28  1  0  0  0  0
  3 29  1  0  0  0  0
  4 16  1  0  0  0  0
  4  5  1  0  0  0  0
  5  6  2  0  0  0  0
  5  7  1  0  0  0  0
  7  8  1  0  0  0  0
  7  9  2  0  0  0  0
  9 10  1  0  0  0  0
  9 30  1  0  0  0  0
 10 11  1  0  0  0  0
 10 16  1  0  0  0  0
 11 15  1  0  0  0  0
 11 12  1  0  0  0  0
 11 31  1  0  0  0  0
 12 13  1  0  0  0  0
 12 32  1  0  0  0  0
 12 33  1  0  0  0  0
 13 14  1  0  0  0  0
 13 34  1  0  0  0  0
 13 35  1  0  0  0  0
 14 15  1  0  0  0  0
 14 36  1  0  0  0  0
 14 37  1  0  0  0  0
 16 17  2  0  0  0  0
 18 19  1  0  0  0  0
 18 38  1  0  0  0  0
 19 24  1  0  0  0  0
 19 20  2  0  0  0  0
 20 21  1  0  0  0  0
 20 39  1  0  0  0  0
 21 22  2  0  0  0  0
 21 40  1  0  0  0  0
 22 27  1  0  0  0  0
 22 23  1  0  0  0  0
 23 24  2  0  0  0  0
 23 25  1  0  0  0  0
 24 41  1  0  0  0  0
 25 26  1  0  0  0  0
 26 27  1  0  0  0  0
 26 42  1  0  0  0  0
 26 43  1  0  0  0  0
M  END
> <s_m_source_file>
AV-unprocessed.smi

> <i_m_source_file_index>
96

> <i_lp_mmshare_version>
43012

> <i_f3d_flags>
0

> <s_epik_input>
TzFbQ0gyXU9jKGMxMilbY0hdYyhbY0hdW2NIXTIpW05IXUMoPU8pW0NIMl1uM2MoPU8pYyhGKVtjSF1uKGMzPU8pW0NAQEhdNFtDSDJdW0NIMl1bQ0gyXU80

> <s_epik_cmdline>
J2VwaWtfcHl0aG9uJywgJy1waCcsICc3LjAnLCAnLXRuJywgJzgnLCAnLW1hJywgJzIwMCcsICctbWV0YWxfYmluZGluZycsICctaW1hZScsICc8aW5maWxlLm1hZT4nLCAnLW9tYWUnLCAnPG91dGZpbGUubWFlPic=

> <r_lp_tautomer_probability>
1

> <r_epik_Ionization_Penalty>
1.04778e-05

> <r_epik_Ionization_Penalty_Charging>
3.88729e-08

> <r_epik_Ionization_Penalty_Neutral>
1.04389e-05

> <r_epik_State_Penalty>
-0

> <r_epik_Charging_Adjusted_Penalty>
3.88729e-08

> <i_epik_Tot_Q>
0

> <i_epik_Tot_abs_Q>
0

> <r_epik_Metal_State_Penalty>
-0

> <b_epik_Metal_Only>
0

> <s_epik_Chemistry_Notes>
This compound contains an acetal/aminal-like group ( X-CH(R)-Y where X, Y are N, S, or O) that may be acid/base labile, releasing an aldehyde.

> <s_lp_Force_Field>
OPLS_2005

> <r_lp_Energy>
41.3846

> <b_lp_Chiralities_Consistent>
1

> <s_lp_Variant>
AV-unprocessed.smi:96-1

> <Gold.Version>
5.8.1

> <Gold.Id.Protein>
6NUR|6NUR_protein|mol2

> <Gold.PLP.Fitness>
49.3172

> <Gold.PLP.PLP>
-42.2609

> <Gold.PLP.part.hbond>
-2.7881

> <Gold.PLP.part.metal>
0.0000

> <Gold.PLP.part.buried>
-6.3624

> <Gold.PLP.part.nonpolar>
-33.6594

> <Gold.PLP.part.repulsive>
0.4200

> <Gold.PLP.ligand.clash>
0.0000

> <Gold.PLP.ligand.torsion>
0.4609

> <Gold.PLP.Chemscore.Hbond>
2.6435

> <Gold.PLP.Chemscore.CHOScore>
0.0000

> <Gold.PLP.Chemscore.Metal>
0.0000

> <Gold.Chemscore.Hbonds>
donor molecule, donor type, donor heavy atom, donor atom, acceptor molecule, acceptor atom, score
      P1  H  6896  6908       L1    15  0.66
      P1  H  7997  8008       L1     1  1.00
      P1  H 10752 10764       L1    17  1.00

> <Gold.PLP.Chemscore.Internal.Correction>
0.0475

> <Gold.Rescore>
     Score         DG    S(hbond)    S(metal)    S(lipo)     H(rot)  DE(clash)    DE(int)     intcor
     13.12     -16.57       2.03        0.00      77.31       1.85       0.01       3.44       ----

> <Gold.Chemscore.Fitness>
13.1194

> <Gold.Chemscore.DG>
-16.5694

> <Gold.Chemscore.ZeroCoef>
-5.4800

> <Gold.Chemscore.Hbond>
2.0300

> <Gold.Chemscore.Metal>
0.0000

> <Gold.Chemscore.Lipo>
77.3054

> <Gold.Chemscore.Internal_Hbond>
0.0000

> <Gold.Chemscore.DEClash>
0.0053

> <Gold.Chemscore.DEInternal>
3.4448

> <Gold.Chemscore.Rot>
1.8497

> <Gold.Chemscore.Internal.Correction>
   9.000000E+99

> <Gold.Chemscore.Hbonds>
donor molecule, donor type, donor heavy atom, donor atom, acceptor molecule, acceptor atom, score
      P1  H  6896  6908       L1    15  0.08
      P1  H  7997  8008       L1     1  0.64
      P1  H 10752 10764       L1    17  0.91

> <Gold.Chemscore.Hbond.Weighted>
-6.7800

> <Gold.Chemscore.Metal.Weighted>
-0.0000

> <Gold.Chemscore.Lipo.Weighted>
-9.0447

> <Gold.Chemscore.Internal_Hbond.Weighted>
0.0000

> <Gold.Chemscore.DEClash.Weighted>
0.0053

> <Gold.Chemscore.DEInternal.Weighted>
3.4448

> <Gold.Chemscore.Rot.Weighted>
4.7354

> <Gold.Chemscore.Internal.Correction.Weighted>
   9.000000E+99

> <Gold.Protein.RotatedTorsions>
[ 6907 6896 6895 6894 ] final  136.43 input  -60.11 | X-H torsion
[ 7974 7965 7964 7962 ] final -178.46 input  175.53 | X-H torsion
[ 8008 7997 7996 7995 ] final  -46.72 input   59.86 | X-H torsion
[ 10167 10162 10161 10158 ] final   39.83 input  -65.29 | X-H torsion
[ 10718 10713 10712 10709 ] final -148.45 input   66.30 | X-H torsion
[ 10763 10752 10751 10750 ] final  -44.97 input  -60.55 | X-H torsion
[ 11005 11000 10999 10996 ] final  -53.76 input  -57.11 | X-H torsion

> <Gold.Protein.ActiveResidues>
 VAL166  LYS551  ARG553  GLY616  TRP617  ASP618  TYR619  PRO620  LYS621  CYS622 
 ASP623  PHE694  ASN695  SER759  ASP760  ASP761  ALA762  ILE779  LEU786  VAL792 
 PHE793  MET794  SER795  GLU796  ALA797  LYS798  CYS799  TRP800  GLU811  SER814 

> <Gold.Protein.RotatedAtoms>
  152.2894  133.5547  159.5547 H   0  0  0  0  0  0  0  0  0  0  0  0  # atno 6907 bound_to 6896
  150.7229  134.0450  159.3787 H   0  0  0  0  0  0  0  0  0  0  0  0  # atno 6908 bound_to 6896
  151.8356  135.0607  160.0493 H   0  0  0  0  0  0  0  0  0  0  0  0  # atno 6909 bound_to 6896
  144.7131  140.0866  143.6423 H   0  0  0  0  0  0  0  0  0  0  0  0  # atno 7974 bound_to 7965
  154.4010  140.1364  156.4058 H   0  0  0  0  0  0  0  0  0  0  0  0  # atno 8008 bound_to 7997
  155.7781  140.3482  155.5262 H   0  0  0  0  0  0  0  0  0  0  0  0  # atno 8009 bound_to 7997
  155.8701  140.0970  157.1546 H   0  0  0  0  0  0  0  0  0  0  0  0  # atno 8010 bound_to 7997
  140.3802  144.1990  150.6131 H   0  0  0  0  0  0  0  0  0  0  0  0  # atno 10167 bound_to 10162
  156.4204  130.8026  151.2248 H   0  0  0  0  0  0  0  0  0  0  0  0  # atno 10718 bound_to 10713
  154.0209  135.6669  153.4772 H   0  0  0  0  0  0  0  0  0  0  0  0  # atno 10763 bound_to 10752
  153.0581  135.5044  154.8024 H   0  0  0  0  0  0  0  0  0  0  0  0  # atno 10764 bound_to 10752
  154.6938  135.3066  154.9406 H   0  0  0  0  0  0  0  0  0  0  0  0  # atno 10765 bound_to 10752
  141.0992  133.6620  156.4220 H   0  0  0  0  0  0  0  0  0  0  0  0  # atno 11005 bound_to 11000
  145.9657  139.2832  143.1129 LP  0  0  0  0  0  0  0  0  0  0  0  0  # atno 17320 bound_to 7965
  145.9172  140.9140  143.0423 LP  0  0  0  0  0  0  0  0  0  0  0  0  # atno 17321 bound_to 7965
  140.4945  143.2337  151.8769 LP  0  0  0  0  0  0  0  0  0  0  0  0  # atno 17342 bound_to 10162
  139.4796  144.5128  151.8909 LP  0  0  0  0  0  0  0  0  0  0  0  0  # atno 17343 bound_to 10162
  157.7508  131.0230  150.3814 LP  0  0  0  0  0  0  0  0  0  0  0  0  # atno 17370 bound_to 10713
  156.4131  130.3938  149.6877 LP  0  0  0  0  0  0  0  0  0  0  0  0  # atno 17371 bound_to 10713
  140.5064  134.6437  157.5268 LP  0  0  0  0  0  0  0  0  0  0  0  0  # atno 17394 bound_to 11000
  139.9838  134.7094  155.9811 LP  0  0  0  0  0  0  0  0  0  0  0  0  # atno 17395 bound_to 11000

$$$$
