AV-unprocessed.smi:775|AV-procd|sdf|3697|dock1
  -GOLD-   22720 1113D 1   1.00000     0.00000
 Structure written by MMmdl.
 38 39  0  0  0  0  0  0  0  0  1 V2000
  153.9424  141.6387  162.1488 C   0  0  0  0  0  0  0  0  0  0  0  0
  154.2902  141.4669  160.6632 C   0  0  2  0  0  0  0  0  0  0  0  0
  153.0080  141.4715  159.7978 C   0  0  0  0  0  0  0  0  0  0  0  0
  152.3873  142.7803  159.6889 N   0  0  0  0  0  0  0  0  0  0  0  0
  152.1881  143.5407  158.5556 C   0  0  0  0  0  0  0  0  0  0  0  0
  151.5610  144.6904  158.9420 C   0  0  0  0  0  0  0  0  0  0  0  0
  151.4263  144.5443  160.3510 C   0  0  0  0  0  0  0  0  0  0  0  0
  151.9242  143.4019  160.7956 N   0  0  0  0  0  0  0  0  0  0  0  0
  155.0068  140.2004  160.5377 N   0  0  0  0  0  0  0  0  0  0  0  0
  154.3136  139.0847  161.1997 C   0  0  0  0  0  0  0  0  0  0  0  0
  155.0646  137.7482  161.0735 C   0  0  0  0  0  0  0  0  0  0  0  0
  155.8179  137.5795  160.1122 O   0  0  0  0  0  0  0  0  0  0  0  0
  154.8793  136.7963  162.0224 N   0  0  0  0  0  0  0  0  0  0  0  0
  153.9988  136.9381  163.1859 C   0  0  0  0  0  0  0  0  0  0  0  0
  154.8855  137.1030  164.4322 C   0  0  0  0  0  0  0  0  0  0  0  0
  155.9615  136.1097  164.4728 N   0  0  0  0  0  0  0  0  0  0  0  0
  156.3739  135.3677  163.4271 C   0  0  0  0  0  0  0  0  0  0  0  0
  157.2775  134.5425  163.5385 O   0  0  0  0  0  0  0  0  0  0  0  0
  155.6875  135.5668  162.0607 C   0  0  0  0  0  0  0  0  0  0  0  0
  153.4179  142.5790  162.3212 H   0  0  0  0  0  0  0  0  0  0  0  0
  154.8404  141.6489  162.7677 H   0  0  0  0  0  0  0  0  0  0  0  0
  153.3001  140.8322  162.5054 H   0  0  0  0  0  0  0  0  0  0  0  0
  154.9356  142.3016  160.3828 H   0  0  0  0  0  0  0  0  0  0  0  0
  153.2161  141.0839  158.7986 H   0  0  0  0  0  0  0  0  0  0  0  0
  152.2666  140.8017  160.2354 H   0  0  0  0  0  0  0  0  0  0  0  0
  152.5006  143.2004  157.5794 H   0  0  0  0  0  0  0  0  0  0  0  0
  151.2478  145.5113  158.3143 H   0  0  0  0  0  0  0  0  0  0  0  0
  150.9835  145.2291  161.0590 H   0  0  0  0  0  0  0  0  0  0  0  0
  155.1506  139.9983  159.5585 H   0  0  0  0  0  0  0  0  0  0  0  0
  154.1946  139.3159  162.2553 H   0  0  0  0  0  0  0  0  0  0  0  0
  153.3174  138.9705  160.7705 H   0  0  0  0  0  0  0  0  0  0  0  0
  153.2714  137.7454  163.1135 H   0  0  0  0  0  0  0  0  0  0  0  0
  153.4047  136.0275  163.2783 H   0  0  0  0  0  0  0  0  0  0  0  0
  155.3385  138.0949  164.4379 H   0  0  0  0  0  0  0  0  0  0  0  0
  154.2857  137.0228  165.3389 H   0  0  0  0  0  0  0  0  0  0  0  0
  156.4245  135.9724  165.3597 H   0  0  0  0  0  0  0  0  0  0  0  0
  155.0352  134.7134  161.8722 H   0  0  0  0  0  0  0  0  0  0  0  0
  156.4594  135.5375  161.2903 H   0  0  0  0  0  0  0  0  0  0  0  0
  1  2  1  0  0  0  0
  1 20  1  0  0  0  0
  1 21  1  0  0  0  0
  1 22  1  0  0  0  0
  2  3  1  0  0  0  0
  2  9  1  0  0  0  0
  2 23  1  0  0  0  0
  3  4  1  0  0  0  0
  3 24  1  0  0  0  0
  3 25  1  0  0  0  0
  4  8  1  0  0  0  0
  4  5  1  0  0  0  0
  5  6  2  0  0  0  0
  5 26  1  0  0  0  0
  6  7  1  0  0  0  0
  6 27  1  0  0  0  0
  7  8  2  0  0  0  0
  7 28  1  0  0  0  0
  9 10  1  0  0  0  0
  9 29  1  0  0  0  0
 10 11  1  0  0  0  0
 10 30  1  0  0  0  0
 10 31  1  0  0  0  0
 11 12  2  0  0  0  0
 11 13  1  0  0  0  0
 13 19  1  0  0  0  0
 13 14  1  0  0  0  0
 14 15  1  0  0  0  0
 14 32  1  0  0  0  0
 14 33  1  0  0  0  0
 15 16  1  0  0  0  0
 15 34  1  0  0  0  0
 15 35  1  0  0  0  0
 16 17  1  0  0  0  0
 16 36  1  0  0  0  0
 17 18  2  0  0  0  0
 17 19  1  0  0  0  0
 19 37  1  0  0  0  0
 19 38  1  0  0  0  0
M  END
> <s_m_source_file>
AV-unprocessed.smi

> <i_m_source_file_index>
775

> <i_lp_mmshare_version>
43012

> <i_f3d_flags>
0

> <s_epik_input>
bjFbY0hdW2NIXVtjSF1uMVtDSDJdW0NAQEhdKFtDSDNdKVtOSF1bQ0gyXUMoPU8pTjJbQ0gyXVtDSDJdW05IXUMoPU8pW0NIMl0y

> <s_epik_cmdline>
J2VwaWtfcHl0aG9uJywgJy1waCcsICc3LjAnLCAnLXRuJywgJzgnLCAnLW1hJywgJzIwMCcsICctbWV0YWxfYmluZGluZycsICctaW1hZScsICc8aW5maWxlLm1hZT4nLCAnLW9tYWUnLCAnPG91dGZpbGUubWFlPic=

> <r_lp_tautomer_probability>
1

> <r_epik_Ionization_Penalty>
0.836058

> <r_epik_Ionization_Penalty_Charging>
0

> <r_epik_Ionization_Penalty_Neutral>
0.836058

> <r_epik_State_Penalty>
0.870309

> <r_epik_Charging_Adjusted_Penalty>
0.870309

> <i_epik_Tot_Q>
0

> <i_epik_Tot_abs_Q>
0

> <r_epik_Metal_State_Penalty>
0.870266

> <b_epik_Metal_Only>
0

> <s_lp_Force_Field>
OPLS_2005

> <r_lp_Energy>
24.9182

> <b_lp_Chiralities_Consistent>
1

> <s_lp_Variant>
AV-unprocessed.smi:775-3

> <Gold.Version>
5.8.1

> <Gold.Id.Protein>
6NUR|6NUR_protein|mol2

> <Gold.PLP.Fitness>
42.8437

> <Gold.PLP.PLP>
-43.7689

> <Gold.PLP.part.hbond>
-0.3429

> <Gold.PLP.part.metal>
0.0000

> <Gold.PLP.part.buried>
-3.9375

> <Gold.PLP.part.nonpolar>
-39.2424

> <Gold.PLP.part.repulsive>
0.1242

> <Gold.PLP.ligand.clash>
0.0075

> <Gold.PLP.ligand.torsion>
0.5018

> <Gold.PLP.Chemscore.Hbond>
0.0000

> <Gold.PLP.Chemscore.CHOScore>
0.0000

> <Gold.PLP.Chemscore.Metal>
0.0000

> <Gold.PLP.Chemscore.Internal.Correction>
0.0859

> <Gold.Rescore>
     Score         DG    S(hbond)    S(metal)    S(lipo)     H(rot)  DE(clash)    DE(int)     intcor
     11.21     -11.85       0.32        0.00      91.95       2.12       0.04       0.60       ----

> <Gold.Chemscore.Fitness>
11.2100

> <Gold.Chemscore.DG>
-11.8537

> <Gold.Chemscore.ZeroCoef>
-5.4800

> <Gold.Chemscore.Hbond>
0.3152

> <Gold.Chemscore.Metal>
0.0000

> <Gold.Chemscore.Lipo>
91.9477

> <Gold.Chemscore.Internal_Hbond>
0.0000

> <Gold.Chemscore.DEClash>
0.0417

> <Gold.Chemscore.DEInternal>
0.6019

> <Gold.Chemscore.Rot>
2.1239

> <Gold.Chemscore.Internal.Correction>
   9.000000E+99

> <Gold.Chemscore.Hbond.Weighted>
-1.0528

> <Gold.Chemscore.Metal.Weighted>
-0.0000

> <Gold.Chemscore.Lipo.Weighted>
-10.7579

> <Gold.Chemscore.Internal_Hbond.Weighted>
0.0000

> <Gold.Chemscore.DEClash.Weighted>
0.0417

> <Gold.Chemscore.DEInternal.Weighted>
0.6019

> <Gold.Chemscore.Rot.Weighted>
5.4371

> <Gold.Chemscore.Internal.Correction.Weighted>
   9.000000E+99

> <Gold.Protein.RotatedTorsions>
[ 6907 6896 6895 6894 ] final -129.19 input  -60.11 | X-H torsion
[ 7974 7965 7964 7962 ] final   81.90 input  175.53 | X-H torsion
[ 8008 7997 7996 7995 ] final -120.13 input   59.86 | X-H torsion
[ 10167 10162 10161 10158 ] final  -24.46 input  -65.29 | X-H torsion
[ 10718 10713 10712 10709 ] final  -98.47 input   66.30 | X-H torsion
[ 10763 10752 10751 10750 ] final  -10.47 input  -60.55 | X-H torsion
[ 11005 11000 10999 10996 ] final   49.93 input  -57.11 | X-H torsion

> <Gold.Protein.ActiveResidues>
 VAL166  LYS551  ARG553  GLY616  TRP617  ASP618  TYR619  PRO620  LYS621  CYS622 
 ASP623  PHE694  ASN695  SER759  ASP760  ASP761  ALA762  ILE779  LEU786  VAL792 
 PHE793  MET794  SER795  GLU796  ALA797  LYS798  CYS799  TRP800  GLU811  SER814 

> <Gold.Protein.RotatedAtoms>
  150.9260  133.6823  159.2821 H   0  0  0  0  0  0  0  0  0  0  0  0  # atno 6907 bound_to 6896
  151.4261  135.1002  159.9638 H   0  0  0  0  0  0  0  0  0  0  0  0  # atno 6908 bound_to 6896
  152.5003  133.8701  159.7349 H   0  0  0  0  0  0  0  0  0  0  0  0  # atno 6909 bound_to 6896
  145.6322  139.2407  143.2078 H   0  0  0  0  0  0  0  0  0  0  0  0  # atno 7974 bound_to 7965
  155.1269  140.0399  157.2764 H   0  0  0  0  0  0  0  0  0  0  0  0  # atno 8008 bound_to 7997
  154.6572  140.2582  155.7123 H   0  0  0  0  0  0  0  0  0  0  0  0  # atno 8009 bound_to 7997
  156.2603  140.2824  156.1029 H   0  0  0  0  0  0  0  0  0  0  0  0  # atno 8010 bound_to 7997
  140.7288  143.4351  151.0742 H   0  0  0  0  0  0  0  0  0  0  0  0  # atno 10167 bound_to 10162
  156.0108  130.5239  150.6527 H   0  0  0  0  0  0  0  0  0  0  0  0  # atno 10718 bound_to 10713
  153.4697  135.7016  153.6001 H   0  0  0  0  0  0  0  0  0  0  0  0  # atno 10763 bound_to 10752
  153.4260  135.3814  155.2141 H   0  0  0  0  0  0  0  0  0  0  0  0  # atno 10764 bound_to 10752
  154.8725  135.3939  154.4133 H   0  0  0  0  0  0  0  0  0  0  0  0  # atno 10765 bound_to 10752
  140.1061  134.5016  155.8719 H   0  0  0  0  0  0  0  0  0  0  0  0  # atno 11005 bound_to 11000
  146.1348  140.7137  142.9395 LP  0  0  0  0  0  0  0  0  0  0  0  0  # atno 17320 bound_to 7965
  144.7189  140.4307  143.7023 LP  0  0  0  0  0  0  0  0  0  0  0  0  # atno 17321 bound_to 7965
  139.8012  143.8081  152.3163 LP  0  0  0  0  0  0  0  0  0  0  0  0  # atno 17342 bound_to 10162
  139.8098  144.7340  150.9712 LP  0  0  0  0  0  0  0  0  0  0  0  0  # atno 17343 bound_to 10162
  157.4285  131.0846  151.1062 LP  0  0  0  0  0  0  0  0  0  0  0  0  # atno 17370 bound_to 10713
  157.1642  130.6239  149.5620 LP  0  0  0  0  0  0  0  0  0  0  0  0  # atno 17371 bound_to 10713
  141.2118  133.6712  156.6614 LP  0  0  0  0  0  0  0  0  0  0  0  0  # atno 17394 bound_to 11000
  140.3154  134.8052  157.4210 LP  0  0  0  0  0  0  0  0  0  0  0  0  # atno 17395 bound_to 11000

$$$$
