AV-unprocessed.smi:699|AV-procd|sdf|3400|dock8
  -GOLD-   22720 0383D 1   1.00000     0.00000
 Structure written by MMmdl.
 34 35  0  0  0  0  0  0  0  0  1 V2000
  149.3120  138.4096  153.5331 N   0  0  0  0  0  0  0  0  0  0  0  0
  148.4209  138.0886  154.4743 C   0  0  0  0  0  0  0  0  0  0  0  0
  148.6995  137.3279  155.3997 O   0  0  0  0  0  0  0  0  0  0  0  0
  147.0189  138.7250  154.3555 C   0  0  1  0  0  0  0  0  0  0  0  0
  147.1008  140.2566  154.4381 C   0  0  0  0  0  0  0  0  0  0  0  0
  147.3218  140.7446  153.0028 C   0  0  0  0  0  0  0  0  0  0  0  0
  146.7173  139.6692  152.0900 C   0  0  0  0  0  0  0  0  0  0  0  0
  146.3060  138.4947  152.9971 C   0  0  1  0  0  0  0  0  0  0  0  0
  146.5952  137.2072  152.3629 N   0  0  0  0  0  0  0  0  0  0  0  0
  145.6701  136.3519  151.9042 C   0  0  0  0  0  0  0  0  0  0  0  0
  144.4605  136.5702  151.9654 O   0  0  0  0  0  0  0  0  0  0  0  0
  146.2439  135.2557  151.3778 N   0  0  0  0  0  0  0  0  0  0  0  0
  145.6323  134.1182  150.7820 C   0  0  0  0  0  0  0  0  0  0  0  0
  146.4696  133.0388  150.4310 C   0  0  0  0  0  0  0  0  0  0  0  0
  145.8944  131.8919  149.8485 C   0  0  0  0  0  0  0  0  0  0  0  0
  144.5721  131.7648  149.6113 N   0  0  0  0  0  0  0  0  0  0  0  0
  143.7698  132.7932  149.9580 C   0  0  0  0  0  0  0  0  0  0  0  0
  144.2423  133.9836  150.5464 C   0  0  0  0  0  0  0  0  0  0  0  0
  150.2423  138.0192  153.5706 H   0  0  0  0  0  0  0  0  0  0  0  0
  149.0546  139.0418  152.7891 H   0  0  0  0  0  0  0  0  0  0  0  0
  146.3986  138.3413  155.1675 H   0  0  0  0  0  0  0  0  0  0  0  0
  146.1531  140.6456  154.8129 H   0  0  0  0  0  0  0  0  0  0  0  0
  147.8798  140.6123  155.1142 H   0  0  0  0  0  0  0  0  0  0  0  0
  146.8737  141.7244  152.8359 H   0  0  0  0  0  0  0  0  0  0  0  0
  148.3896  140.8390  152.8020 H   0  0  0  0  0  0  0  0  0  0  0  0
  145.8558  140.0520  151.5423 H   0  0  0  0  0  0  0  0  0  0  0  0
  147.4581  139.3640  151.3495 H   0  0  0  0  0  0  0  0  0  0  0  0
  145.2296  138.5685  153.1650 H   0  0  0  0  0  0  0  0  0  0  0  0
  147.5679  136.9506  152.2782 H   0  0  0  0  0  0  0  0  0  0  0  0
  147.2531  135.2560  151.3603 H   0  0  0  0  0  0  0  0  0  0  0  0
  147.5357  133.0853  150.5995 H   0  0  0  0  0  0  0  0  0  0  0  0
  146.5138  131.0533  149.5670 H   0  0  0  0  0  0  0  0  0  0  0  0
  142.7153  132.6618  149.7659 H   0  0  0  0  0  0  0  0  0  0  0  0
  143.5317  134.7513  150.8085 H   0  0  0  0  0  0  0  0  0  0  0  0
  1  2  1  0  0  0  0
  1 19  1  0  0  0  0
  1 20  1  0  0  0  0
  2  3  2  0  0  0  0
  2  4  1  0  0  0  0
  4  8  1  0  0  0  0
  4  5  1  0  0  0  0
  4 21  1  0  0  0  0
  5  6  1  0  0  0  0
  5 22  1  0  0  0  0
  5 23  1  0  0  0  0
  6  7  1  0  0  0  0
  6 24  1  0  0  0  0
  6 25  1  0  0  0  0
  7  8  1  0  0  0  0
  7 26  1  0  0  0  0
  7 27  1  0  0  0  0
  8  9  1  0  0  0  0
  8 28  1  0  0  0  0
  9 10  1  0  0  0  0
  9 29  1  0  0  0  0
 10 11  2  0  0  0  0
 10 12  1  0  0  0  0
 12 13  1  0  0  0  0
 12 30  1  0  0  0  0
 13 18  1  0  0  0  0
 13 14  2  0  0  0  0
 14 15  1  0  0  0  0
 14 31  1  0  0  0  0
 15 16  2  0  0  0  0
 15 32  1  0  0  0  0
 16 17  1  0  0  0  0
 17 18  2  0  0  0  0
 17 33  1  0  0  0  0
 18 34  1  0  0  0  0
M  END
> <s_m_source_file>
AV-unprocessed.smi

> <i_m_source_file_index>
699

> <i_lp_mmshare_version>
43012

> <i_f3d_flags>
0

> <s_epik_input>
W05IMl1DKD1PKVtDQEBIXTFbQ0gyXVtDSDJdW0NIMl1bQ0BIXTFbTkhdQyg9TylbTkhdYzJbY0hdW2NIXW5bY0hdW2NIXTI=

> <s_epik_cmdline>
J2VwaWtfcHl0aG9uJywgJy1waCcsICc3LjAnLCAnLXRuJywgJzgnLCAnLW1hJywgJzIwMCcsICctbWV0YWxfYmluZGluZycsICctaW1hZScsICc8aW5maWxlLm1hZT4nLCAnLW9tYWUnLCAnPG91dGZpbGUubWFlPic=

> <r_epik_Ionization_Penalty>
0.113907

> <r_epik_Ionization_Penalty_Charging>
0

> <r_epik_Ionization_Penalty_Neutral>
0.113907

> <r_epik_State_Penalty>
0.103543

> <r_epik_Charging_Adjusted_Penalty>
0.103543

> <i_epik_Tot_Q>
0

> <i_epik_Tot_abs_Q>
0

> <r_epik_Metal_State_Penalty>
0.0867106

> <b_epik_Metal_Only>
0

> <s_lp_Force_Field>
OPLS_2005

> <r_lp_Energy>
19.4222

> <b_lp_Chiralities_Consistent>
1

> <s_lp_Variant>
AV-unprocessed.smi:699-2

> <Gold.Version>
5.8.1

> <Gold.Id.Protein>
6NUR|6NUR_protein|mol2

> <Gold.PLP.Fitness>
42.9898

> <Gold.PLP.PLP>
-28.5243

> <Gold.PLP.part.hbond>
-5.0000

> <Gold.PLP.part.metal>
0.0000

> <Gold.PLP.part.buried>
-0.6059

> <Gold.PLP.part.nonpolar>
-24.5300

> <Gold.PLP.part.repulsive>
1.0543

> <Gold.PLP.ligand.clash>
0.0000

> <Gold.PLP.ligand.torsion>
0.1253

> <Gold.PLP.Chemscore.Hbond>
3.0760

> <Gold.PLP.Chemscore.CHOScore>
1.8235

> <Gold.PLP.Chemscore.Metal>
0.0000

> <Gold.Chemscore.Hbonds>
donor molecule, donor type, donor heavy atom, donor atom, acceptor molecule, acceptor atom, score
      L1  H     1    20       P1  7957  0.96
      L1  H     9    29       P1  7948  1.00
      L1  H    12    30       P1  7948  0.96
      P1  H 10785 10796       L1    16  0.18
      L1  C    15    32       P1 10747  0.83
      L1  C    17    33       P1 10186  0.96

> <Gold.PLP.Chemscore.Internal.Correction>
0.0176

> <Gold.Rescore>
     Score         DG    S(hbond)    S(metal)    S(lipo)     H(rot)  DE(clash)    DE(int)     intcor
     17.50     -19.27       2.75        0.00      72.05       1.49       0.47       1.30       ----

> <Gold.Chemscore.Fitness>
17.4984

> <Gold.Chemscore.DG>
-19.2720

> <Gold.Chemscore.ZeroCoef>
-5.4800

> <Gold.Chemscore.Hbond>
2.7468

> <Gold.Chemscore.Metal>
0.0000

> <Gold.Chemscore.Lipo>
72.0501

> <Gold.Chemscore.Internal_Hbond>
0.0000

> <Gold.Chemscore.DEClash>
0.4691

> <Gold.Chemscore.DEInternal>
1.3045

> <Gold.Chemscore.Rot>
1.4892

> <Gold.Chemscore.Internal.Correction>
   9.000000E+99

> <Gold.Chemscore.Hbonds>
donor molecule, donor type, donor heavy atom, donor atom, acceptor molecule, acceptor atom, score
      L1  H     1    20       P1  7957  0.90
      L1  H     9    29       P1  7948  0.98
      L1  H    12    30       P1  7948  0.74
      P1  H 10785 10796       L1    16  0.11

> <Gold.Chemscore.Hbond.Weighted>
-9.1744

> <Gold.Chemscore.Metal.Weighted>
-0.0000

> <Gold.Chemscore.Lipo.Weighted>
-8.4299

> <Gold.Chemscore.Internal_Hbond.Weighted>
0.0000

> <Gold.Chemscore.DEClash.Weighted>
0.4691

> <Gold.Chemscore.DEInternal.Weighted>
1.3045

> <Gold.Chemscore.Rot.Weighted>
3.8123

> <Gold.Chemscore.Internal.Correction.Weighted>
   9.000000E+99

> <Gold.Protein.RotatedTorsions>
[ 6907 6896 6895 6894 ] final  144.75 input  -60.11 | X-H torsion
[ 7974 7965 7964 7962 ] final  -53.62 input  175.53 | X-H torsion
[ 8008 7997 7996 7995 ] final   81.88 input   59.86 | X-H torsion
[ 10167 10162 10161 10158 ] final   -0.73 input  -65.29 | X-H torsion
[ 10718 10713 10712 10709 ] final  -48.61 input   66.30 | X-H torsion
[ 10763 10752 10751 10750 ] final   47.31 input  -60.55 | X-H torsion
[ 11005 11000 10999 10996 ] final  103.20 input  -57.11 | X-H torsion

> <Gold.Protein.ActiveResidues>
 VAL166  LYS551  ARG553  GLY616  TRP617  ASP618  TYR619  PRO620  LYS621  CYS622 
 ASP623  PHE694  ASN695  SER759  ASP760  ASP761  ALA762  ILE779  LEU786  VAL792 
 PHE793  MET794  SER795  GLU796  ALA797  LYS798  CYS799  TRP800  GLU811  SER814 

> <Gold.Protein.RotatedAtoms>
  152.1897  133.4764  159.5001 H   0  0  0  0  0  0  0  0  0  0  0  0  # atno 6907 bound_to 6896
  150.6949  134.1728  159.4228 H   0  0  0  0  0  0  0  0  0  0  0  0  # atno 6908 bound_to 6896
  151.9642  135.0108  160.0600 H   0  0  0  0  0  0  0  0  0  0  0  0  # atno 6909 bound_to 6896
  145.8948  140.8042  142.9773 H   0  0  0  0  0  0  0  0  0  0  0  0  # atno 7974 bound_to 7965
  155.9030  140.3432  155.6041 H   0  0  0  0  0  0  0  0  0  0  0  0  # atno 8008 bound_to 7997
  155.7477  140.0816  157.2235 H   0  0  0  0  0  0  0  0  0  0  0  0  # atno 8009 bound_to 7997
  154.4046  140.1559  156.2675 H   0  0  0  0  0  0  0  0  0  0  0  0  # atno 8010 bound_to 7997
  140.6780  143.6860  150.8067 H   0  0  0  0  0  0  0  0  0  0  0  0  # atno 10167 bound_to 10162
  156.1972  130.4155  149.9291 H   0  0  0  0  0  0  0  0  0  0  0  0  # atno 10718 bound_to 10713
  152.9801  135.5980  154.3742 H   0  0  0  0  0  0  0  0  0  0  0  0  # atno 10763 bound_to 10752
  154.3413  135.2767  155.2423 H   0  0  0  0  0  0  0  0  0  0  0  0  # atno 10764 bound_to 10752
  154.4503  135.5991  153.6242 H   0  0  0  0  0  0  0  0  0  0  0  0  # atno 10765 bound_to 10752
  139.8782  134.9254  156.5173 H   0  0  0  0  0  0  0  0  0  0  0  0  # atno 11005 bound_to 11000
  144.6732  140.1585  143.7424 LP  0  0  0  0  0  0  0  0  0  0  0  0  # atno 17320 bound_to 7965
  145.8864  139.2351  143.1575 LP  0  0  0  0  0  0  0  0  0  0  0  0  # atno 17321 bound_to 7965
  140.0556  143.5206  152.2653 LP  0  0  0  0  0  0  0  0  0  0  0  0  # atno 17342 bound_to 10162
  139.6084  144.7602  151.3009 LP  0  0  0  0  0  0  0  0  0  0  0  0  # atno 17343 bound_to 10162
  156.7012  130.8934  151.3599 LP  0  0  0  0  0  0  0  0  0  0  0  0  # atno 17370 bound_to 10713
  157.6964  130.9286  150.0657 LP  0  0  0  0  0  0  0  0  0  0  0  0  # atno 17371 bound_to 10713
  140.8476  133.8157  155.9136 LP  0  0  0  0  0  0  0  0  0  0  0  0  # atno 17394 bound_to 11000
  140.9176  134.2182  157.4947 LP  0  0  0  0  0  0  0  0  0  0  0  0  # atno 17395 bound_to 11000

$$$$
