AV-unprocessed.smi:2518|AV-procd|sdf|9901|dock5
  -GOLD-   2272013543D 1   1.00000     0.00000
 Structure written by MMmdl.
 41 43  0  0  0  0  0  0  0  0  1 V2000
  152.4155  143.9180  161.9973 C   0  0  0  0  0  0  0  0  0  0  0  0
  152.4662  142.9110  160.8670 C   0  0  0  0  0  0  0  0  0  0  0  0
  153.3337  141.8028  160.9341 C   0  0  0  0  0  0  0  0  0  0  0  0
  153.3740  140.8732  159.8772 C   0  0  0  0  0  0  0  0  0  0  0  0
  152.5546  141.0337  158.7411 C   0  0  0  0  0  0  0  0  0  0  0  0
  152.6613  140.0782  157.7536 O   0  0  0  0  0  0  0  0  0  0  0  0
  151.8378  140.2044  156.6014 C   0  0  0  0  0  0  0  0  0  0  0  0
  151.9400  138.9120  155.7768 C   0  0  2  0  0  0  0  0  0  0  0  0
  153.2969  138.7129  155.4295 O   0  0  0  0  0  0  0  0  0  0  0  0
  151.0899  138.9814  154.4925 C   0  0  0  0  0  0  0  0  0  0  0  0
  149.7945  138.3359  154.6441 N   0  0  0  0  0  0  0  0  0  0  0  0
  148.6639  139.0398  154.3775 N   0  0  0  0  0  0  0  0  0  0  0  0
  147.6535  138.2056  154.6127 C   0  0  0  0  0  0  0  0  0  0  0  0
  148.1064  136.9287  155.0437 C   0  0  0  0  0  0  0  0  0  0  0  0
  147.4598  135.6801  155.4322 C   0  0  0  0  0  0  0  0  0  0  0  0
  148.2107  134.6859  155.7889 N   0  0  0  0  0  0  0  0  0  0  0  0
  149.6060  134.7932  155.8052 N   0  0  0  0  0  0  0  0  0  0  0  0
  150.2798  133.5695  156.2380 C   0  0  0  0  0  0  0  0  0  0  0  0
  150.3086  135.9133  155.4501 C   0  0  0  0  0  0  0  0  0  0  0  0
  151.5370  135.9929  155.4550 O   0  0  0  0  0  0  0  0  0  0  0  0
  149.4560  137.0580  155.0457 C   0  0  0  0  0  0  0  0  0  0  0  0
  151.6822  142.1497  158.6813 C   0  0  0  0  0  0  0  0  0  0  0  0
  151.6414  143.0806  159.7377 C   0  0  0  0  0  0  0  0  0  0  0  0
  153.0887  143.6402  162.8091 H   0  0  0  0  0  0  0  0  0  0  0  0
  151.4047  143.9827  162.4007 H   0  0  0  0  0  0  0  0  0  0  0  0
  152.7053  144.9051  161.6366 H   0  0  0  0  0  0  0  0  0  0  0  0
  153.9717  141.6608  161.7940 H   0  0  0  0  0  0  0  0  0  0  0  0
  154.0437  140.0279  159.9382 H   0  0  0  0  0  0  0  0  0  0  0  0
  150.8063  140.3431  156.9299 H   0  0  0  0  0  0  0  0  0  0  0  0
  152.1163  141.0704  155.9976 H   0  0  0  0  0  0  0  0  0  0  0  0
  151.6023  138.0668  156.3782 H   0  0  0  0  0  0  0  0  0  0  0  0
  153.6722  139.5503  155.2028 H   0  0  0  0  0  0  0  0  0  0  0  0
  150.9181  140.0236  154.2193 H   0  0  0  0  0  0  0  0  0  0  0  0
  151.6202  138.5360  153.6515 H   0  0  0  0  0  0  0  0  0  0  0  0
  146.6410  138.5517  154.4664 H   0  0  0  0  0  0  0  0  0  0  0  0
  146.3735  135.5922  155.4212 H   0  0  0  0  0  0  0  0  0  0  0  0
  151.3610  133.6730  156.3369 H   0  0  0  0  0  0  0  0  0  0  0  0
  150.0899  132.7664  155.5250 H   0  0  0  0  0  0  0  0  0  0  0  0
  149.8960  133.2529  157.2087 H   0  0  0  0  0  0  0  0  0  0  0  0
  151.0325  142.3149  157.8355 H   0  0  0  0  0  0  0  0  0  0  0  0
  150.9734  143.9274  159.6784 H   0  0  0  0  0  0  0  0  0  0  0  0
  1  2  1  0  0  0  0
  1 24  1  0  0  0  0
  1 25  1  0  0  0  0
  1 26  1  0  0  0  0
  2 23  1  0  0  0  0
  2  3  2  0  0  0  0
  3  4  1  0  0  0  0
  3 27  1  0  0  0  0
  4  5  2  0  0  0  0
  4 28  1  0  0  0  0
  5  6  1  0  0  0  0
  5 22  1  0  0  0  0
  6  7  1  0  0  0  0
  7  8  1  0  0  0  0
  7 29  1  0  0  0  0
  7 30  1  0  0  0  0
  8  9  1  0  0  0  0
  8 10  1  0  0  0  0
  8 31  1  0  0  0  0
  9 32  1  0  0  0  0
 10 11  1  0  0  0  0
 10 33  1  0  0  0  0
 10 34  1  0  0  0  0
 11 21  1  0  0  0  0
 11 12  1  0  0  0  0
 12 13  2  0  0  0  0
 13 14  1  0  0  0  0
 13 35  1  0  0  0  0
 14 21  2  0  0  0  0
 14 15  1  0  0  0  0
 15 16  2  0  0  0  0
 15 36  1  0  0  0  0
 16 17  1  0  0  0  0
 17 18  1  0  0  0  0
 17 19  1  0  0  0  0
 18 37  1  0  0  0  0
 18 38  1  0  0  0  0
 18 39  1  0  0  0  0
 19 20  2  0  0  0  0
 19 21  1  0  0  0  0
 22 23  2  0  0  0  0
 22 40  1  0  0  0  0
 23 41  1  0  0  0  0
M  END
> <s_m_source_file>
AV-unprocessed.smi

> <i_m_source_file_index>
2518

> <i_lp_mmshare_version>
43012

> <i_f3d_flags>
0

> <s_epik_input>
W0NIM11jMVtjSF1bY0hdYyhbY0hdW2NIXTEpT1tDSDJdW0NASF0oW09IXSlbQ0gyXW4obltjSF0yKWMoYzIzKWMoPU8pbihbQ0gzXSluW2NIXTM=

> <s_epik_cmdline>
J2VwaWtfcHl0aG9uJywgJy1waCcsICc3LjAnLCAnLXRuJywgJzgnLCAnLW1hJywgJzIwMCcsICctbWV0YWxfYmluZGluZycsICctaW1hZScsICc8aW5maWxlLm1hZT4nLCAnLW9tYWUnLCAnPG91dGZpbGUubWFlPic=

> <r_lp_tautomer_probability>
1

> <r_epik_Ionization_Penalty>
2.246e-06

> <r_epik_Ionization_Penalty_Charging>
1.41975e-10

> <r_epik_Ionization_Penalty_Neutral>
2.24586e-06

> <r_epik_State_Penalty>
-0

> <r_epik_Charging_Adjusted_Penalty>
1.41975e-10

> <i_epik_Tot_Q>
0

> <i_epik_Tot_abs_Q>
0

> <r_epik_Metal_State_Penalty>
-0

> <b_epik_Metal_Only>
0

> <s_lp_Force_Field>
OPLS_2005

> <r_lp_Energy>
32.1328

> <b_lp_Chiralities_Consistent>
1

> <s_lp_Variant>
AV-unprocessed.smi:2518-1

> <Gold.Version>
5.8.1

> <Gold.Id.Protein>
6NUR|6NUR_protein|mol2

> <Gold.PLP.Fitness>
45.0909

> <Gold.PLP.PLP>
-40.7519

> <Gold.PLP.part.hbond>
-3.0000

> <Gold.PLP.part.metal>
0.0000

> <Gold.PLP.part.buried>
-4.5404

> <Gold.PLP.part.nonpolar>
-32.4213

> <Gold.PLP.part.repulsive>
0.2822

> <Gold.PLP.ligand.clash>
0.0000

> <Gold.PLP.ligand.torsion>
0.5752

> <Gold.PLP.Chemscore.Hbond>
1.8160

> <Gold.PLP.Chemscore.CHOScore>
0.0000

> <Gold.PLP.Chemscore.Metal>
0.0000

> <Gold.Chemscore.Hbonds>
donor molecule, donor type, donor heavy atom, donor atom, acceptor molecule, acceptor atom, score
      P1  H  7997  8010       L1     6  0.68
      P1  H 10752 10765       L1    20  1.00

> <Gold.PLP.Chemscore.Internal.Correction>
0.0414

> <Gold.Rescore>
     Score         DG    S(hbond)    S(metal)    S(lipo)     H(rot)  DE(clash)    DE(int)     intcor
     14.78     -16.67       1.35        0.00     108.47       2.35       0.12       1.77       ----

> <Gold.Chemscore.Fitness>
14.7802

> <Gold.Chemscore.DG>
-16.6695

> <Gold.Chemscore.ZeroCoef>
-5.4800

> <Gold.Chemscore.Hbond>
1.3509

> <Gold.Chemscore.Metal>
0.0000

> <Gold.Chemscore.Lipo>
108.4699

> <Gold.Chemscore.Internal_Hbond>
0.0000

> <Gold.Chemscore.DEClash>
0.1219

> <Gold.Chemscore.DEInternal>
1.7674

> <Gold.Chemscore.Rot>
2.3490

> <Gold.Chemscore.Internal.Correction>
   9.000000E+99

> <Gold.Chemscore.Hbonds>
donor molecule, donor type, donor heavy atom, donor atom, acceptor molecule, acceptor atom, score
      P1  H  7997  8010       L1     6  0.26
      P1  H 10752 10765       L1    20  0.95

> <Gold.Chemscore.Hbond.Weighted>
-4.5120

> <Gold.Chemscore.Metal.Weighted>
-0.0000

> <Gold.Chemscore.Lipo.Weighted>
-12.6910

> <Gold.Chemscore.Internal_Hbond.Weighted>
0.0000

> <Gold.Chemscore.DEClash.Weighted>
0.1219

> <Gold.Chemscore.DEInternal.Weighted>
1.7674

> <Gold.Chemscore.Rot.Weighted>
6.0136

> <Gold.Chemscore.Internal.Correction.Weighted>
   9.000000E+99

> <Gold.Protein.RotatedTorsions>
[ 6907 6896 6895 6894 ] final  105.16 input  -60.11 | X-H torsion
[ 7974 7965 7964 7962 ] final   -2.13 input  175.53 | X-H torsion
[ 8008 7997 7996 7995 ] final   28.66 input   59.86 | X-H torsion
[ 10167 10162 10161 10158 ] final   39.72 input  -65.29 | X-H torsion
[ 10718 10713 10712 10709 ] final -154.04 input   66.30 | X-H torsion
[ 10763 10752 10751 10750 ] final -148.83 input  -60.55 | X-H torsion
[ 11005 11000 10999 10996 ] final   93.73 input  -57.11 | X-H torsion

> <Gold.Protein.ActiveResidues>
 VAL166  LYS551  ARG553  GLY616  TRP617  ASP618  TYR619  PRO620  LYS621  CYS622 
 ASP623  PHE694  ASN695  SER759  ASP760  ASP761  ALA762  ILE779  LEU786  VAL792 
 PHE793  MET794  SER795  GLU796  ALA797  LYS798  CYS799  TRP800  GLU811  SER814 

> <Gold.Protein.RotatedAtoms>
  152.5240  133.9569  159.7698 H   0  0  0  0  0  0  0  0  0  0  0  0  # atno 6907 bound_to 6896
  150.9867  133.6182  159.2721 H   0  0  0  0  0  0  0  0  0  0  0  0  # atno 6908 bound_to 6896
  151.3340  135.0854  159.9401 H   0  0  0  0  0  0  0  0  0  0  0  0  # atno 6909 bound_to 6896
  146.2408  140.1524  142.8333 H   0  0  0  0  0  0  0  0  0  0  0  0  # atno 7974 bound_to 7965
  155.0622  140.3191  155.4657 H   0  0  0  0  0  0  0  0  0  0  0  0  # atno 8008 bound_to 7997
  156.2810  140.2127  156.5693 H   0  0  0  0  0  0  0  0  0  0  0  0  # atno 8009 bound_to 7997
  154.7123  140.0497  157.0549 H   0  0  0  0  0  0  0  0  0  0  0  0  # atno 8010 bound_to 7997
  140.3812  144.1977  150.6130 H   0  0  0  0  0  0  0  0  0  0  0  0  # atno 10167 bound_to 10162
  156.4940  130.8360  151.2582 H   0  0  0  0  0  0  0  0  0  0  0  0  # atno 10718 bound_to 10713
  154.8211  135.3324  154.7035 H   0  0  0  0  0  0  0  0  0  0  0  0  # atno 10763 bound_to 10752
  153.7668  135.6928  153.4919 H   0  0  0  0  0  0  0  0  0  0  0  0  # atno 10764 bound_to 10752
  153.2072  135.4495  155.0286 H   0  0  0  0  0  0  0  0  0  0  0  0  # atno 10765 bound_to 10752
  139.8806  134.8806  156.3761 H   0  0  0  0  0  0  0  0  0  0  0  0  # atno 11005 bound_to 11000
  145.0157  140.8751  143.5197 LP  0  0  0  0  0  0  0  0  0  0  0  0  # atno 17320 bound_to 7965
  145.1564  139.2484  143.5414 LP  0  0  0  0  0  0  0  0  0  0  0  0  # atno 17321 bound_to 7965
  140.4936  143.2339  151.8783 LP  0  0  0  0  0  0  0  0  0  0  0  0  # atno 17342 bound_to 10162
  139.4795  144.5139  151.8895 LP  0  0  0  0  0  0  0  0  0  0  0  0  # atno 17343 bound_to 10162
  157.7470  131.0004  150.2924 LP  0  0  0  0  0  0  0  0  0  0  0  0  # atno 17370 bound_to 10713
  156.3398  130.3813  149.7418 LP  0  0  0  0  0  0  0  0  0  0  0  0  # atno 17371 bound_to 10713
  140.9431  133.7501  156.0172 LP  0  0  0  0  0  0  0  0  0  0  0  0  # atno 17394 bound_to 11000
  140.8195  134.3305  157.5386 LP  0  0  0  0  0  0  0  0  0  0  0  0  # atno 17395 bound_to 11000

$$$$
