AV-unprocessed.smi:2697|AV-procd|sdf|10416|dock4
  -GOLD-   2272014453D 1   1.00000     0.00000
 Structure written by MMmdl.
 32 33  0  0  0  0  0  0  0  0  2 V2000
  152.7515  143.4965  163.0940 C   0  0  0  0  0  0  0  0  0  0  0  0
  153.0438  142.6282  161.9738 N   0  0  0  0  0  0  0  0  0  0  0  0
  153.9174  141.5629  161.9207 C   0  0  0  0  0  0  0  0  0  0  0  0
  153.8342  141.0812  160.6469 C   0  0  0  0  0  0  0  0  0  0  0  0
  154.6425  139.9548  160.0753 C   0  0  0  0  0  0  0  0  0  0  0  0
  155.5095  139.3829  160.9149 N   0  0  0  0  0  0  0  0  0  0  0  0
  154.4829  139.5675  158.9198 O   0  0  0  0  0  0  0  0  0  0  0  0
  152.8894  141.9059  159.9670 C   0  0  0  0  0  0  0  0  0  0  0  0
  152.4013  141.8622  158.5364 C   0  0  1  0  0  0  0  0  0  0  0  0
  151.7376  140.5152  158.1883 C   0  0  0  0  0  0  0  0  0  0  0  0
  151.2521  140.5195  156.7303 C   0  0  0  0  0  0  0  0  0  0  0  0
  150.3333  141.7230  156.4593 C   0  0  0  0  0  0  0  0  0  0  0  0
  151.0116  142.9905  156.8085 N   0  3  0  0  0  0  0  0  0  0  0  0
  151.4578  143.0394  158.2183 C   0  0  0  0  0  0  0  0  0  0  0  0
  152.4243  142.8413  160.7887 N   0  0  0  0  0  0  0  0  0  0  0  0
  153.1958  143.0947  164.0050 H   0  0  0  0  0  0  0  0  0  0  0  0
  151.6726  143.5758  163.2320 H   0  0  0  0  0  0  0  0  0  0  0  0
  153.1631  144.4885  162.9065 H   0  0  0  0  0  0  0  0  0  0  0  0
  154.5126  141.2562  162.7685 H   0  0  0  0  0  0  0  0  0  0  0  0
  156.0894  138.6189  160.5997 H   0  0  0  0  0  0  0  0  0  0  0  0
  155.5833  139.7188  161.8644 H   0  0  0  0  0  0  0  0  0  0  0  0
  153.2589  141.9550  157.8717 H   0  0  0  0  0  0  0  0  0  0  0  0
  152.4404  139.6960  158.3445 H   0  0  0  0  0  0  0  0  0  0  0  0
  150.8898  140.3302  158.8495 H   0  0  0  0  0  0  0  0  0  0  0  0
  152.1106  140.5548  156.0583 H   0  0  0  0  0  0  0  0  0  0  0  0
  150.7252  139.5904  156.5102 H   0  0  0  0  0  0  0  0  0  0  0  0
  150.0477  141.7513  155.4076 H   0  0  0  0  0  0  0  0  0  0  0  0
  149.4128  141.6371  157.0382 H   0  0  0  0  0  0  0  0  0  0  0  0
  151.8210  143.0958  156.2134 H   0  0  0  0  0  0  0  0  0  0  0  0
  150.5818  143.0194  158.8682 H   0  0  0  0  0  0  0  0  0  0  0  0
  151.9641  143.9890  158.3937 H   0  0  0  0  0  0  0  0  0  0  0  0
  150.3798  143.7600  156.6383 H   0  0  0  0  0  0  0  0  0  0  0  0
  1  2  1  0  0  0  0
  1 16  1  0  0  0  0
  1 17  1  0  0  0  0
  1 18  1  0  0  0  0
  2 15  1  0  0  0  0
  2  3  1  0  0  0  0
  3  4  2  0  0  0  0
  3 19  1  0  0  0  0
  4  5  1  0  0  0  0
  4  8  1  0  0  0  0
  5  6  1  0  0  0  0
  5  7  2  0  0  0  0
  6 20  1  0  0  0  0
  6 21  1  0  0  0  0
  8  9  1  0  0  0  0
  8 15  2  0  0  0  0
  9 14  1  0  0  0  0
  9 10  1  0  0  0  0
  9 22  1  0  0  0  0
 10 11  1  0  0  0  0
 10 23  1  0  0  0  0
 10 24  1  0  0  0  0
 11 12  1  0  0  0  0
 11 25  1  0  0  0  0
 11 26  1  0  0  0  0
 12 13  1  0  0  0  0
 12 27  1  0  0  0  0
 12 28  1  0  0  0  0
 13 14  1  0  0  0  0
 13 29  1  0  0  0  0
 13 32  1  0  0  0  0
 14 30  1  0  0  0  0
 14 31  1  0  0  0  0
M  CHG  1  13   1
M  END
> <s_m_source_file>
AV-unprocessed.smi

> <i_m_source_file_index>
2697

> <i_lp_mmshare_version>
43012

> <i_f3d_flags>
0

> <s_epik_input>
W0NIM11uMVtjSF1jKEMoPU8pW05IMl0pYyhuMSlbQ0BASF0yW0NIMl1bQ0gyXVtDSDJdW05IXVtDSDJdMg==

> <s_epik_cmdline>
J2VwaWtfcHl0aG9uJywgJy1waCcsICc3LjAnLCAnLXRuJywgJzgnLCAnLW1hJywgJzIwMCcsICctbWV0YWxfYmluZGluZycsICctaW1hZScsICc8aW5maWxlLm1hZT4nLCAnLW9tYWUnLCAnPG91dGZpbGUubWFlPic=

> <r_lp_tautomer_probability>
1

> <r_epik_Ionization_Penalty>
0.000158942

> <r_epik_Ionization_Penalty_Charging>
0.000157527

> <r_epik_Ionization_Penalty_Neutral>
1.41498e-06

> <r_epik_State_Penalty>
-0

> <r_epik_Charging_Adjusted_Penalty>
0.000157527

> <i_epik_Tot_Q>
1

> <i_epik_Tot_abs_Q>
1

> <r_epik_Metal_State_Penalty>
-0

> <b_epik_Metal_Only>
0

> <s_lp_Force_Field>
OPLS_2005

> <r_lp_Energy>
9.94433

> <b_lp_Chiralities_Consistent>
1

> <s_lp_Variant>
AV-unprocessed.smi:2697-2

> <Gold.Version>
5.8.1

> <Gold.Id.Protein>
6NUR|6NUR_protein|mol2

> <Gold.PLP.Fitness>
42.4265

> <Gold.PLP.PLP>
-33.4446

> <Gold.PLP.part.hbond>
-2.0000

> <Gold.PLP.part.metal>
0.0000

> <Gold.PLP.part.buried>
-2.3523

> <Gold.PLP.part.nonpolar>
-28.8316

> <Gold.PLP.part.repulsive>
0.1024

> <Gold.PLP.ligand.clash>
0.0000

> <Gold.PLP.ligand.torsion>
0.0259

> <Gold.PLP.Chemscore.Hbond>
3.0000

> <Gold.PLP.Chemscore.CHOScore>
0.0000

> <Gold.PLP.Chemscore.Metal>
0.0000

> <Gold.Chemscore.Hbonds>
donor molecule, donor type, donor heavy atom, donor atom, acceptor molecule, acceptor atom, score
      L1  H    13    32       P1  8028  2.00
      P1  H  7997  8008       L1     7  1.00

> <Gold.PLP.Chemscore.Internal.Correction>
0.0337

> <Gold.Rescore>
     Score         DG    S(hbond)    S(metal)    S(lipo)     H(rot)  DE(clash)    DE(int)     intcor
     18.60     -18.75       1.97        0.00      78.90       1.00       0.07       0.07       ----

> <Gold.Chemscore.Fitness>
18.6027

> <Gold.Chemscore.DG>
-18.7459

> <Gold.Chemscore.ZeroCoef>
-5.4800

> <Gold.Chemscore.Hbond>
1.9746

> <Gold.Chemscore.Metal>
0.0000

> <Gold.Chemscore.Lipo>
78.8965

> <Gold.Chemscore.Internal_Hbond>
0.0000

> <Gold.Chemscore.DEClash>
0.0727

> <Gold.Chemscore.DEInternal>
0.0706

> <Gold.Chemscore.Rot>
1.0000

> <Gold.Chemscore.Internal.Correction>
   9.000000E+99

> <Gold.Chemscore.Hbonds>
donor molecule, donor type, donor heavy atom, donor atom, acceptor molecule, acceptor atom, score
      L1  H    13    32       P1  8028  0.94
      P1  H  7997  8008       L1     7  0.99

> <Gold.Chemscore.Hbond.Weighted>
-6.5951

> <Gold.Chemscore.Metal.Weighted>
-0.0000

> <Gold.Chemscore.Lipo.Weighted>
-9.2309

> <Gold.Chemscore.Internal_Hbond.Weighted>
0.0000

> <Gold.Chemscore.DEClash.Weighted>
0.0727

> <Gold.Chemscore.DEInternal.Weighted>
0.0706

> <Gold.Chemscore.Rot.Weighted>
2.5600

> <Gold.Chemscore.Internal.Correction.Weighted>
   9.000000E+99

> <Gold.Protein.RotatedTorsions>
[ 6907 6896 6895 6894 ] final -127.22 input  -60.11 | X-H torsion
[ 7974 7965 7964 7962 ] final  -42.06 input  175.53 | X-H torsion
[ 8008 7997 7996 7995 ] final -127.13 input   59.86 | X-H torsion
[ 10167 10162 10161 10158 ] final  176.29 input  -65.29 | X-H torsion
[ 10718 10713 10712 10709 ] final   33.69 input   66.30 | X-H torsion
[ 10763 10752 10751 10750 ] final  113.53 input  -60.55 | X-H torsion
[ 11005 11000 10999 10996 ] final -164.46 input  -57.11 | X-H torsion

> <Gold.Protein.ActiveResidues>
 VAL166  LYS551  ARG553  GLY616  TRP617  ASP618  TYR619  PRO620  LYS621  CYS622 
 ASP623  PHE694  ASN695  SER759  ASP760  ASP761  ALA762  ILE779  LEU786  VAL792 
 PHE793  MET794  SER795  GLU796  ALA797  LYS798  CYS799  TRP800  GLU811  SER814 

> <Gold.Protein.RotatedAtoms>
  150.9050  133.7070  159.2869 H   0  0  0  0  0  0  0  0  0  0  0  0  # atno 6907 bound_to 6896
  151.4576  135.1034  159.9725 H   0  0  0  0  0  0  0  0  0  0  0  0  # atno 6908 bound_to 6896
  152.4898  133.8421  159.7213 H   0  0  0  0  0  0  0  0  0  0  0  0  # atno 6909 bound_to 6896
  146.0152  140.6917  142.9205 H   0  0  0  0  0  0  0  0  0  0  0  0  # atno 7974 bound_to 7965
  155.2411  140.0429  157.2975 H   0  0  0  0  0  0  0  0  0  0  0  0  # atno 8008 bound_to 7997
  154.5827  140.2405  155.8000 H   0  0  0  0  0  0  0  0  0  0  0  0  # atno 8009 bound_to 7997
  156.2205  140.2971  155.9948 H   0  0  0  0  0  0  0  0  0  0  0  0  # atno 8010 bound_to 7997
  139.5209  144.2932  152.0445 H   0  0  0  0  0  0  0  0  0  0  0  0  # atno 10167 bound_to 10162
  157.3010  130.7351  149.6667 H   0  0  0  0  0  0  0  0  0  0  0  0  # atno 10718 bound_to 10713
  153.4939  135.3653  155.2506 H   0  0  0  0  0  0  0  0  0  0  0  0  # atno 10763 bound_to 10752
  154.8751  135.3983  154.3557 H   0  0  0  0  0  0  0  0  0  0  0  0  # atno 10764 bound_to 10752
  153.4181  135.7079  153.6378 H   0  0  0  0  0  0  0  0  0  0  0  0  # atno 10765 bound_to 10752
  140.5866  134.5087  157.5186 H   0  0  0  0  0  0  0  0  0  0  0  0  # atno 11005 bound_to 11000
  144.6968  140.3468  143.7189 LP  0  0  0  0  0  0  0  0  0  0  0  0  # atno 17320 bound_to 7965
  145.7280  139.1728  143.2446 LP  0  0  0  0  0  0  0  0  0  0  0  0  # atno 17321 bound_to 7965
  140.2382  144.4297  150.6271 LP  0  0  0  0  0  0  0  0  0  0  0  0  # atno 17342 bound_to 10162
  140.6308  143.2187  151.6498 LP  0  0  0  0  0  0  0  0  0  0  0  0  # atno 17343 bound_to 10162
  155.9671  130.4280  150.4768 LP  0  0  0  0  0  0  0  0  0  0  0  0  # atno 17370 bound_to 10713
  157.2749  131.0595  151.2236 LP  0  0  0  0  0  0  0  0  0  0  0  0  # atno 17371 bound_to 10713
  139.9293  134.7995  156.0977 LP  0  0  0  0  0  0  0  0  0  0  0  0  # atno 17394 bound_to 11000
  141.0962  133.6695  156.2650 LP  0  0  0  0  0  0  0  0  0  0  0  0  # atno 17395 bound_to 11000

$$$$
