AV-unprocessed.smi:1808|AV-procd|sdf|7308|dock10
  -GOLD-   22720 8563D 1   1.00000     0.00000
 Structure written by MMmdl.
 27 28  0  0  0  0  0  0  0  0  2 V2000
  153.0286  139.9635  157.7713 O   0  0  0  0  0  0  0  0  0  0  0  0
  152.0745  140.6984  157.5060 C   0  0  0  0  0  0  0  0  0  0  0  0
  151.5980  141.5337  158.4382 N   0  0  0  0  0  0  0  0  0  0  0  0
  152.1223  141.6684  159.7906 C   0  0  0  0  0  0  0  0  0  0  0  0
  152.2143  143.1472  160.1901 C   0  0  1  0  0  0  0  0  0  0  0  0
  152.6504  144.0691  159.0544 C   0  0  0  0  0  0  0  0  0  0  0  0
  152.1062  145.4236  159.4783 C   0  0  0  0  0  0  0  0  0  0  0  0
  151.0266  145.0847  160.5114 C   0  0  0  0  0  0  0  0  0  0  0  0
  150.9342  143.6664  160.5149 O   0  0  0  0  0  0  0  0  0  0  0  0
  151.4187  140.7671  156.3249 N   0  5  0  0  0  0  0  0  0  0  0  0
  151.2475  139.6589  155.5859 C   0  0  0  0  0  0  0  0  0  0  0  0
  150.4919  139.6263  154.4821 N   0  0  0  0  0  0  0  0  0  0  0  0
  150.4605  138.3731  153.8677 C   0  0  0  0  0  0  0  0  0  0  0  0
  151.2174  137.4319  154.5132 C   0  0  0  0  0  0  0  0  0  0  0  0
  151.9965  138.0954  155.9212 S   0  0  0  0  0  0  0  0  0  0  0  0
  150.8196  142.1243  158.1853 H   0  0  0  0  0  0  0  0  0  0  0  0
  151.4609  141.1396  160.4781 H   0  0  0  0  0  0  0  0  0  0  0  0
  153.1037  141.1959  159.8565 H   0  0  0  0  0  0  0  0  0  0  0  0
  152.8809  143.2733  161.0455 H   0  0  0  0  0  0  0  0  0  0  0  0
  153.7300  144.0718  158.9026 H   0  0  0  0  0  0  0  0  0  0  0  0
  152.1790  143.7626  158.1194 H   0  0  0  0  0  0  0  0  0  0  0  0
  152.8864  146.0354  159.9321 H   0  0  0  0  0  0  0  0  0  0  0  0
  151.7015  145.9718  158.6270 H   0  0  0  0  0  0  0  0  0  0  0  0
  151.3230  145.4291  161.5031 H   0  0  0  0  0  0  0  0  0  0  0  0
  150.0627  145.5329  160.2701 H   0  0  0  0  0  0  0  0  0  0  0  0
  149.8730  138.2411  152.9713 H   0  0  0  0  0  0  0  0  0  0  0  0
  151.3650  136.3960  154.2486 H   0  0  0  0  0  0  0  0  0  0  0  0
  1  2  2  0  0  0  0
  2  3  1  0  0  0  0
  2 10  1  0  0  0  0
  3  4  1  0  0  0  0
  3 16  1  0  0  0  0
  4  5  1  0  0  0  0
  4 17  1  0  0  0  0
  4 18  1  0  0  0  0
  5  9  1  0  0  0  0
  5  6  1  0  0  0  0
  5 19  1  0  0  0  0
  6  7  1  0  0  0  0
  6 20  1  0  0  0  0
  6 21  1  0  0  0  0
  7  8  1  0  0  0  0
  7 22  1  0  0  0  0
  7 23  1  0  0  0  0
  8  9  1  0  0  0  0
  8 24  1  0  0  0  0
  8 25  1  0  0  0  0
 10 11  1  0  0  0  0
 11 15  1  0  0  0  0
 11 12  2  0  0  0  0
 12 13  1  0  0  0  0
 13 14  2  0  0  0  0
 13 26  1  0  0  0  0
 14 15  1  0  0  0  0
 14 27  1  0  0  0  0
M  CHG  1  10  -1
M  END
> <s_m_source_file>
AV-unprocessed.smi

> <i_m_source_file_index>
1808

> <i_lp_mmshare_version>
43012

> <i_f3d_flags>
0

> <s_epik_input>
czFbY0hdW2NIXW5jMVtOSF1DKD1PKVtOSF1bQ0gyXVtDQEBIXTJbQ0gyXVtDSDJdW0NIMl1PMg==

> <s_epik_cmdline>
J2VwaWtfcHl0aG9uJywgJy1waCcsICc3LjAnLCAnLXRuJywgJzgnLCAnLW1hJywgJzIwMCcsICctbWV0YWxfYmluZGluZycsICctaW1hZScsICc8aW5maWxlLm1hZT4nLCAnLW9tYWUnLCAnPG91dGZpbGUubWFlPic=

> <r_lp_tautomer_probability>
0.999

> <r_epik_Ionization_Penalty>
8.26346

> <r_epik_Ionization_Penalty_Charging>
6.6559

> <r_epik_Ionization_Penalty_Neutral>
1.60756

> <r_epik_State_Penalty>
6.65607

> <r_epik_Charging_Adjusted_Penalty>
13.312

> <i_epik_Tot_Q>
-1

> <i_epik_Tot_abs_Q>
1

> <r_epik_Metal_State_Penalty>
2.5789

> <b_epik_Metal_Only>
1

> <s_lp_Force_Field>
OPLS_2005

> <r_lp_Energy>
13.0287

> <b_lp_Chiralities_Consistent>
1

> <s_lp_Variant>
AV-unprocessed.smi:1808-4

> <Gold.Version>
5.8.1

> <Gold.Id.Protein>
6NUR|6NUR_protein|mol2

> <Gold.PLP.Fitness>
43.0253

> <Gold.PLP.PLP>
-31.4269

> <Gold.PLP.part.hbond>
-3.0000

> <Gold.PLP.part.metal>
0.0000

> <Gold.PLP.part.buried>
-2.9041

> <Gold.PLP.part.nonpolar>
-24.5797

> <Gold.PLP.part.repulsive>
0.3279

> <Gold.PLP.ligand.clash>
0.0000

> <Gold.PLP.ligand.torsion>
0.5457

> <Gold.PLP.Chemscore.Hbond>
2.0000

> <Gold.PLP.Chemscore.CHOScore>
2.2261

> <Gold.PLP.Chemscore.Metal>
0.0000

> <Gold.Chemscore.Hbonds>
donor molecule, donor type, donor heavy atom, donor atom, acceptor molecule, acceptor atom, score
      P1  H  7989  7998       L1    12  0.75
      P1  H  7997  8009       L1     1  1.00
      L1  C    13    26       P1  7948  1.00
      L1  C    13    26       P1  7957  0.86
      L1  C    14    27       P1  7949  0.23

> <Gold.PLP.Chemscore.Internal.Correction>
0.0113

> <Gold.Rescore>
     Score         DG    S(hbond)    S(metal)    S(lipo)     H(rot)  DE(clash)    DE(int)     intcor
     14.88     -16.95       1.75        0.00      76.63       1.30       0.38       1.70       ----

> <Gold.Chemscore.Fitness>
14.8753

> <Gold.Chemscore.DG>
-16.9530

> <Gold.Chemscore.ZeroCoef>
-5.4800

> <Gold.Chemscore.Hbond>
1.7471

> <Gold.Chemscore.Metal>
0.0000

> <Gold.Chemscore.Lipo>
76.6287

> <Gold.Chemscore.Internal_Hbond>
0.0000

> <Gold.Chemscore.DEClash>
0.3752

> <Gold.Chemscore.DEInternal>
1.7025

> <Gold.Chemscore.Rot>
1.3000

> <Gold.Chemscore.Internal.Correction>
   9.000000E+99

> <Gold.Chemscore.Hbonds>
donor molecule, donor type, donor heavy atom, donor atom, acceptor molecule, acceptor atom, score
      P1  H  7989  7998       L1    12  0.07
      P1  H  7997  8009       L1     1  0.91

> <Gold.Chemscore.Hbond.Weighted>
-5.8355

> <Gold.Chemscore.Metal.Weighted>
-0.0000

> <Gold.Chemscore.Lipo.Weighted>
-8.9656

> <Gold.Chemscore.Internal_Hbond.Weighted>
0.0000

> <Gold.Chemscore.DEClash.Weighted>
0.3752

> <Gold.Chemscore.DEInternal.Weighted>
1.7025

> <Gold.Chemscore.Rot.Weighted>
3.3280

> <Gold.Chemscore.Internal.Correction.Weighted>
   9.000000E+99

> <Gold.Protein.RotatedTorsions>
[ 6907 6896 6895 6894 ] final   34.72 input  -60.11 | X-H torsion
[ 7974 7965 7964 7962 ] final -157.80 input  175.53 | X-H torsion
[ 8008 7997 7996 7995 ] final  175.06 input   59.86 | X-H torsion
[ 10167 10162 10161 10158 ] final  -74.43 input  -65.29 | X-H torsion
[ 10718 10713 10712 10709 ] final  -37.10 input   66.30 | X-H torsion
[ 10763 10752 10751 10750 ] final  107.14 input  -60.55 | X-H torsion
[ 11005 11000 10999 10996 ] final   10.66 input  -57.11 | X-H torsion

> <Gold.Protein.ActiveResidues>
 VAL166  LYS551  ARG553  GLY616  TRP617  ASP618  TYR619  PRO620  LYS621  CYS622 
 ASP623  PHE694  ASN695  SER759  ASP760  ASP761  ALA762  ILE779  LEU786  VAL792 
 PHE793  MET794  SER795  GLU796  ALA797  LYS798  CYS799  TRP800  GLU811  SER814 

> <Gold.Protein.RotatedAtoms>
  152.1063  134.9306  160.0567 H   0  0  0  0  0  0  0  0  0  0  0  0  # atno 6907 bound_to 6896
  152.0501  133.4010  159.4381 H   0  0  0  0  0  0  0  0  0  0  0  0  # atno 6908 bound_to 6896
  150.6841  134.3238  159.4841 H   0  0  0  0  0  0  0  0  0  0  0  0  # atno 6909 bound_to 6896
  144.7533  140.3918  143.6031 H   0  0  0  0  0  0  0  0  0  0  0  0  # atno 7974 bound_to 7965
  156.0910  140.1418  156.9592 H   0  0  0  0  0  0  0  0  0  0  0  0  # atno 8008 bound_to 7997
  154.4642  140.0932  156.7022 H   0  0  0  0  0  0  0  0  0  0  0  0  # atno 8009 bound_to 7997
  155.4919  140.3448  155.4358 H   0  0  0  0  0  0  0  0  0  0  0  0  # atno 8010 bound_to 7997
  140.5027  143.2358  151.7725 H   0  0  0  0  0  0  0  0  0  0  0  0  # atno 10167 bound_to 10162
  156.3191  130.4263  149.7977 H   0  0  0  0  0  0  0  0  0  0  0  0  # atno 10718 bound_to 10713
  153.4027  135.3854  155.1998 H   0  0  0  0  0  0  0  0  0  0  0  0  # atno 10763 bound_to 10752
  154.8731  135.3775  154.4599 H   0  0  0  0  0  0  0  0  0  0  0  0  # atno 10764 bound_to 10752
  153.5098  135.7087  153.5849 H   0  0  0  0  0  0  0  0  0  0  0  0  # atno 10765 bound_to 10752
  140.5119  134.0643  155.7820 H   0  0  0  0  0  0  0  0  0  0  0  0  # atno 11005 bound_to 11000
  145.6868  139.1630  143.2669 LP  0  0  0  0  0  0  0  0  0  0  0  0  # atno 17320 bound_to 7965
  146.1511  140.6924  142.9321 LP  0  0  0  0  0  0  0  0  0  0  0  0  # atno 17321 bound_to 7965
  139.4876  144.4499  151.9666 LP  0  0  0  0  0  0  0  0  0  0  0  0  # atno 17342 bound_to 10162
  140.3589  144.2997  150.5937 LP  0  0  0  0  0  0  0  0  0  0  0  0  # atno 17343 bound_to 10162
  156.5291  130.8249  151.3231 LP  0  0  0  0  0  0  0  0  0  0  0  0  # atno 17370 bound_to 10713
  157.7408  130.9857  150.2402 LP  0  0  0  0  0  0  0  0  0  0  0  0  # atno 17371 bound_to 10713
  141.1381  133.9187  157.2389 LP  0  0  0  0  0  0  0  0  0  0  0  0  # atno 17394 bound_to 11000
  139.9654  135.0143  156.9372 LP  0  0  0  0  0  0  0  0  0  0  0  0  # atno 17395 bound_to 11000

$$$$
