AV-unprocessed.smi:1528|AV-procd|sdf|6151|dock2
  -GOLD-   22720 6293D 1   1.00000     0.00000
 Structure written by MMmdl.
 34 35  0  0  0  0  0  0  0  0  1 V2000
  146.7260  142.5593  154.1308 C   0  0  0  0  0  0  0  0  0  0  0  0
  147.8963  141.6012  153.8710 C   0  0  0  0  0  0  0  0  0  0  0  0
  148.7909  141.5237  155.0198 N   0  0  0  0  0  0  0  0  0  0  0  0
  149.9569  140.8577  155.0470 C   0  0  0  0  0  0  0  0  0  0  0  0
  150.3925  140.2104  154.0948 O   0  0  0  0  0  0  0  0  0  0  0  0
  150.6924  140.8890  156.3557 C   0  0  0  0  0  0  0  0  0  0  0  0
  150.2209  141.6372  157.4566 C   0  0  0  0  0  0  0  0  0  0  0  0
  150.9670  141.6452  158.6507 C   0  0  0  0  0  0  0  0  0  0  0  0
  152.1757  140.9125  158.7160 C   0  0  0  0  0  0  0  0  0  0  0  0
  152.9399  140.9061  159.9033 N   0  0  0  0  0  0  0  0  0  0  0  0
  153.1062  142.2017  160.5577 C   0  0  0  0  0  0  0  0  0  0  0  0
  153.6770  142.0167  161.9744 C   0  0  0  0  0  0  0  0  0  0  0  0
  154.8863  141.2676  161.9141 O   0  0  0  0  0  0  0  0  0  0  0  0
  154.6764  139.9664  161.3765 C   0  0  0  0  0  0  0  0  0  0  0  0
  154.1462  140.0810  159.9376 C   0  0  0  0  0  0  0  0  0  0  0  0
  152.6290  140.1993  157.6559 N   0  0  0  0  0  0  0  0  0  0  0  0
  151.9116  140.1959  156.5124 C   0  0  0  0  0  0  0  0  0  0  0  0
  146.0491  142.5840  153.2767 H   0  0  0  0  0  0  0  0  0  0  0  0
  147.0767  143.5773  154.3035 H   0  0  0  0  0  0  0  0  0  0  0  0
  146.1492  142.2501  155.0029 H   0  0  0  0  0  0  0  0  0  0  0  0
  147.5143  140.5999  153.6699 H   0  0  0  0  0  0  0  0  0  0  0  0
  148.4478  141.9076  152.9805 H   0  0  0  0  0  0  0  0  0  0  0  0
  148.5012  142.0079  155.8570 H   0  0  0  0  0  0  0  0  0  0  0  0
  149.3010  142.2007  157.3993 H   0  0  0  0  0  0  0  0  0  0  0  0
  150.5989  142.2000  159.5005 H   0  0  0  0  0  0  0  0  0  0  0  0
  153.7840  142.8125  159.9598 H   0  0  0  0  0  0  0  0  0  0  0  0
  152.1653  142.7456  160.6240 H   0  0  0  0  0  0  0  0  0  0  0  0
  153.8832  142.9872  162.4260 H   0  0  0  0  0  0  0  0  0  0  0  0
  152.9564  141.5122  162.6204 H   0  0  0  0  0  0  0  0  0  0  0  0
  155.6201  139.4215  161.3862 H   0  0  0  0  0  0  0  0  0  0  0  0
  153.9799  139.4087  162.0046 H   0  0  0  0  0  0  0  0  0  0  0  0
  153.9335  139.0835  159.5512 H   0  0  0  0  0  0  0  0  0  0  0  0
  154.9067  140.5257  159.2943 H   0  0  0  0  0  0  0  0  0  0  0  0
  152.3276  139.6140  155.7028 H   0  0  0  0  0  0  0  0  0  0  0  0
  1  2  1  0  0  0  0
  1 18  1  0  0  0  0
  1 19  1  0  0  0  0
  1 20  1  0  0  0  0
  2  3  1  0  0  0  0
  2 21  1  0  0  0  0
  2 22  1  0  0  0  0
  3  4  1  0  0  0  0
  3 23  1  0  0  0  0
  4  5  2  0  0  0  0
  4  6  1  0  0  0  0
  6 17  1  0  0  0  0
  6  7  2  0  0  0  0
  7  8  1  0  0  0  0
  7 24  1  0  0  0  0
  8  9  2  0  0  0  0
  8 25  1  0  0  0  0
  9 10  1  0  0  0  0
  9 16  1  0  0  0  0
 10 15  1  0  0  0  0
 10 11  1  0  0  0  0
 11 12  1  0  0  0  0
 11 26  1  0  0  0  0
 11 27  1  0  0  0  0
 12 13  1  0  0  0  0
 12 28  1  0  0  0  0
 12 29  1  0  0  0  0
 13 14  1  0  0  0  0
 14 15  1  0  0  0  0
 14 30  1  0  0  0  0
 14 31  1  0  0  0  0
 15 32  1  0  0  0  0
 15 33  1  0  0  0  0
 16 17  2  0  0  0  0
 17 34  1  0  0  0  0
M  END
> <s_m_source_file>
AV-unprocessed.smi

> <i_m_source_file_index>
1528

> <i_lp_mmshare_version>
43012

> <i_f3d_flags>
0

> <s_epik_input>
W0NIM11bQ0gyXVtOSF1DKD1PKWMxW2NIXVtjSF1jKG5bY0hdMSlOMltDSDJdW0NIMl1PW0NIMl1bQ0gyXTI=

> <s_epik_cmdline>
J2VwaWtfcHl0aG9uJywgJy1waCcsICc3LjAnLCAnLXRuJywgJzgnLCAnLW1hJywgJzIwMCcsICctbWV0YWxfYmluZGluZycsICctaW1hZScsICc8aW5maWxlLm1hZT4nLCAnLW9tYWUnLCAnPG91dGZpbGUubWFlPic=

> <r_lp_tautomer_probability>
1

> <r_epik_Ionization_Penalty>
1.55122e-05

> <r_epik_Ionization_Penalty_Charging>
0

> <r_epik_Ionization_Penalty_Neutral>
1.55122e-05

> <r_epik_State_Penalty>
-0

> <r_epik_Charging_Adjusted_Penalty>
0

> <i_epik_Tot_Q>
0

> <i_epik_Tot_abs_Q>
0

> <r_epik_Metal_State_Penalty>
-0

> <b_epik_Metal_Only>
0

> <s_lp_Force_Field>
OPLS_2005

> <r_lp_Energy>
18.5854

> <b_lp_Chiralities_Consistent>
1

> <s_lp_Variant>
AV-unprocessed.smi:1528-1

> <Gold.Version>
5.8.1

> <Gold.Id.Protein>
6NUR|6NUR_protein|mol2

> <Gold.PLP.Fitness>
42.1032

> <Gold.PLP.PLP>
-36.2570

> <Gold.PLP.part.hbond>
-3.1109

> <Gold.PLP.part.metal>
0.0000

> <Gold.PLP.part.buried>
-3.1752

> <Gold.PLP.part.nonpolar>
-28.1136

> <Gold.PLP.part.repulsive>
0.8704

> <Gold.PLP.ligand.clash>
0.0000

> <Gold.PLP.ligand.torsion>
0.2364

> <Gold.PLP.Chemscore.Hbond>
1.9920

> <Gold.PLP.Chemscore.CHOScore>
0.0000

> <Gold.PLP.Chemscore.Metal>
0.0000

> <Gold.Chemscore.Hbonds>
donor molecule, donor type, donor heavy atom, donor atom, acceptor molecule, acceptor atom, score
      P1  H  7989  7998       L1     5  0.96
      P1  H  7997  8010       L1    16  0.98

> <Gold.PLP.Chemscore.Internal.Correction>
0.3431

> <Gold.Rescore>
     Score         DG    S(hbond)    S(metal)    S(lipo)     H(rot)  DE(clash)    DE(int)     intcor
     12.38     -14.61       0.98        0.00      76.08       1.18       1.92       0.31       ----

> <Gold.Chemscore.Fitness>
12.3765

> <Gold.Chemscore.DG>
-14.6078

> <Gold.Chemscore.ZeroCoef>
-5.4800

> <Gold.Chemscore.Hbond>
0.9758

> <Gold.Chemscore.Metal>
0.0000

> <Gold.Chemscore.Lipo>
76.0843

> <Gold.Chemscore.Internal_Hbond>
0.0000

> <Gold.Chemscore.DEClash>
1.9239

> <Gold.Chemscore.DEInternal>
0.3075

> <Gold.Chemscore.Rot>
1.1848

> <Gold.Chemscore.Internal.Correction>
   9.000000E+99

> <Gold.Chemscore.Hbonds>
donor molecule, donor type, donor heavy atom, donor atom, acceptor molecule, acceptor atom, score
      P1  H  7989  7998       L1     5  0.71
      P1  H  7997  8010       L1    16  0.23

> <Gold.Chemscore.Hbond.Weighted>
-3.2590

> <Gold.Chemscore.Metal.Weighted>
-0.0000

> <Gold.Chemscore.Lipo.Weighted>
-8.9019

> <Gold.Chemscore.Internal_Hbond.Weighted>
0.0000

> <Gold.Chemscore.DEClash.Weighted>
1.9239

> <Gold.Chemscore.DEInternal.Weighted>
0.3075

> <Gold.Chemscore.Rot.Weighted>
3.0331

> <Gold.Chemscore.Internal.Correction.Weighted>
   9.000000E+99

> <Gold.Protein.RotatedTorsions>
[ 6907 6896 6895 6894 ] final -104.19 input  -60.11 | X-H torsion
[ 7974 7965 7964 7962 ] final   11.86 input  175.53 | X-H torsion
[ 8008 7997 7996 7995 ] final   43.71 input   59.86 | X-H torsion
[ 10167 10162 10161 10158 ] final  148.45 input  -65.29 | X-H torsion
[ 10718 10713 10712 10709 ] final  -70.59 input   66.30 | X-H torsion
[ 10763 10752 10751 10750 ] final -173.73 input  -60.55 | X-H torsion
[ 11005 11000 10999 10996 ] final  -27.05 input  -57.11 | X-H torsion

> <Gold.Protein.ActiveResidues>
 VAL166  LYS551  ARG553  GLY616  TRP617  ASP618  TYR619  PRO620  LYS621  CYS622 
 ASP623  PHE694  ASN695  SER759  ASP760  ASP761  ALA762  ILE779  LEU786  VAL792 
 PHE793  MET794  SER795  GLU796  ALA797  LYS798  CYS799  TRP800  GLU811  SER814 

> <Gold.Protein.RotatedAtoms>
  150.7275  134.0315  159.3734 H   0  0  0  0  0  0  0  0  0  0  0  0  # atno 6907 bound_to 6896
  151.8284  135.0627  160.0443 H   0  0  0  0  0  0  0  0  0  0  0  0  # atno 6908 bound_to 6896
  152.2951  133.5564  159.5619 H   0  0  0  0  0  0  0  0  0  0  0  0  # atno 6909 bound_to 6896
  146.2363  139.9423  142.8481 H   0  0  0  0  0  0  0  0  0  0  0  0  # atno 7974 bound_to 7965
  155.3072  140.3389  155.4245 H   0  0  0  0  0  0  0  0  0  0  0  0  # atno 8008 bound_to 7997
  156.1973  140.1719  156.8011 H   0  0  0  0  0  0  0  0  0  0  0  0  # atno 8009 bound_to 7997
  154.5514  140.0705  156.8658 H   0  0  0  0  0  0  0  0  0  0  0  0  # atno 8010 bound_to 7997
  139.4875  144.5678  151.7111 H   0  0  0  0  0  0  0  0  0  0  0  0  # atno 10167 bound_to 10162
  156.0401  130.4334  150.2318 H   0  0  0  0  0  0  0  0  0  0  0  0  # atno 10718 bound_to 10713
  154.6045  135.2858  155.0500 H   0  0  0  0  0  0  0  0  0  0  0  0  # atno 10763 bound_to 10752
  154.1752  135.6466  153.5023 H   0  0  0  0  0  0  0  0  0  0  0  0  # atno 10764 bound_to 10752
  153.0170  135.5410  154.6776 H   0  0  0  0  0  0  0  0  0  0  0  0  # atno 10765 bound_to 10752
  140.9085  133.7477  156.0638 H   0  0  0  0  0  0  0  0  0  0  0  0  # atno 11005 bound_to 11000
  145.1941  140.9825  143.4194 LP  0  0  0  0  0  0  0  0  0  0  0  0  # atno 17320 bound_to 7965
  144.9831  139.3763  143.6252 LP  0  0  0  0  0  0  0  0  0  0  0  0  # atno 17321 bound_to 7965
  140.5260  144.0805  150.6037 LP  0  0  0  0  0  0  0  0  0  0  0  0  # atno 17342 bound_to 10162
  140.3779  143.2818  152.0204 LP  0  0  0  0  0  0  0  0  0  0  0  0  # atno 17343 bound_to 10162
  157.0414  131.0036  151.3282 LP  0  0  0  0  0  0  0  0  0  0  0  0  # atno 17370 bound_to 10713
  157.5206  130.7996  149.7805 LP  0  0  0  0  0  0  0  0  0  0  0  0  # atno 17371 bound_to 10713
  140.8141  134.3366  157.5403 LP  0  0  0  0  0  0  0  0  0  0  0  0  # atno 17394 bound_to 11000
  139.8753  134.9271  156.3417 LP  0  0  0  0  0  0  0  0  0  0  0  0  # atno 17395 bound_to 11000

$$$$
