AV-unprocessed.smi:3331|AV-procd|sdf|12827|dock5
  -GOLD-   2272019203D 1   1.00000     0.00000
 Structure written by MMmdl.
 46 47  0  0  0  0  0  0  0  0  1 V2000
  151.8872  146.0973  160.1006 C   0  0  0  0  0  0  0  0  0  0  0  0
  151.8511  144.5804  160.3308 C   0  0  2  0  0  0  0  0  0  0  0  0
  152.6782  144.1736  161.5717 C   0  0  0  0  0  0  0  0  0  0  0  0
  152.7666  142.6401  161.7484 C   0  0  2  0  0  0  0  0  0  0  0  0
  153.6983  142.2585  162.9068 C   0  0  0  0  0  0  0  0  0  0  0  0
  153.1984  141.9723  160.4253 C   0  0  0  0  0  0  0  0  0  0  0  0
  152.2500  142.3679  159.3768 N   0  0  0  0  0  0  0  0  0  0  0  0
  151.3181  141.5146  158.8822 C   0  0  0  0  0  0  0  0  0  0  0  0
  151.3147  140.3168  159.1749 O   0  0  0  0  0  0  0  0  0  0  0  0
  150.2080  142.0359  157.9381 C   0  0  1  0  0  0  0  0  0  0  0  0
  149.9321  141.0046  156.8324 C   0  0  0  0  0  0  0  0  0  0  0  0
  148.9541  142.3385  158.6494 N   0  0  0  0  0  0  0  0  0  0  0  0
  147.8154  142.5312  157.7553 C   0  0  0  0  0  0  0  0  0  0  0  0
  146.5033  142.4233  158.5477 C   0  0  0  0  0  0  0  0  0  0  0  0
  146.4885  143.3226  159.6877 N   0  0  0  0  0  0  0  0  0  0  0  0
  146.4018  144.6990  159.6947 C   0  0  0  0  0  0  0  0  0  0  0  0
  146.4002  145.0991  161.0002 C   0  0  0  0  0  0  0  0  0  0  0  0
  146.4901  143.8792  161.7273 C   0  0  0  0  0  0  0  0  0  0  0  0
  146.5445  142.8177  160.9391 N   0  0  0  0  0  0  0  0  0  0  0  0
  152.3494  143.8049  159.0948 C   0  0  0  0  0  0  0  0  0  0  0  0
  152.9025  146.4459  159.9084 H   0  0  0  0  0  0  0  0  0  0  0  0
  151.5093  146.6351  160.9706 H   0  0  0  0  0  0  0  0  0  0  0  0
  151.2711  146.3785  159.2461 H   0  0  0  0  0  0  0  0  0  0  0  0
  150.8118  144.2995  160.5093 H   0  0  0  0  0  0  0  0  0  0  0  0
  153.6868  144.5786  161.4750 H   0  0  0  0  0  0  0  0  0  0  0  0
  152.2516  144.6270  162.4672 H   0  0  0  0  0  0  0  0  0  0  0  0
  151.7691  142.2735  161.9963 H   0  0  0  0  0  0  0  0  0  0  0  0
  154.7187  142.5968  162.7235 H   0  0  0  0  0  0  0  0  0  0  0  0
  153.7263  141.1776  163.0479 H   0  0  0  0  0  0  0  0  0  0  0  0
  153.3622  142.7044  163.8435 H   0  0  0  0  0  0  0  0  0  0  0  0
  154.2049  142.2898  160.1483 H   0  0  0  0  0  0  0  0  0  0  0  0
  153.2579  140.8906  160.5538 H   0  0  0  0  0  0  0  0  0  0  0  0
  150.5220  142.9664  157.4669 H   0  0  0  0  0  0  0  0  0  0  0  0
  150.8361  140.7664  156.2710 H   0  0  0  0  0  0  0  0  0  0  0  0
  149.1983  141.3830  156.1201 H   0  0  0  0  0  0  0  0  0  0  0  0
  149.5430  140.0721  157.2438 H   0  0  0  0  0  0  0  0  0  0  0  0
  148.7294  141.6346  159.3376 H   0  0  0  0  0  0  0  0  0  0  0  0
  147.8501  143.4953  157.2469 H   0  0  0  0  0  0  0  0  0  0  0  0
  147.8493  141.7660  156.9792 H   0  0  0  0  0  0  0  0  0  0  0  0
  145.6594  142.6731  157.9032 H   0  0  0  0  0  0  0  0  0  0  0  0
  146.3390  141.4027  158.8961 H   0  0  0  0  0  0  0  0  0  0  0  0
  146.3425  145.2713  158.7805 H   0  0  0  0  0  0  0  0  0  0  0  0
  146.3402  146.1088  161.3782 H   0  0  0  0  0  0  0  0  0  0  0  0
  146.5172  143.7341  162.7972 H   0  0  0  0  0  0  0  0  0  0  0  0
  151.8175  144.1116  158.1963 H   0  0  0  0  0  0  0  0  0  0  0  0
  153.3921  144.0578  158.8955 H   0  0  0  0  0  0  0  0  0  0  0  0
  1  2  1  0  0  0  0
  1 21  1  0  0  0  0
  1 22  1  0  0  0  0
  1 23  1  0  0  0  0
  2 20  1  0  0  0  0
  2  3  1  0  0  0  0
  2 24  1  0  0  0  0
  3  4  1  0  0  0  0
  3 25  1  0  0  0  0
  3 26  1  0  0  0  0
  4  5  1  0  0  0  0
  4  6  1  0  0  0  0
  4 27  1  0  0  0  0
  5 28  1  0  0  0  0
  5 29  1  0  0  0  0
  5 30  1  0  0  0  0
  6  7  1  0  0  0  0
  6 31  1  0  0  0  0
  6 32  1  0  0  0  0
  7  8  1  0  0  0  0
  7 20  1  0  0  0  0
  8  9  2  0  0  0  0
  8 10  1  0  0  0  0
 10 11  1  0  0  0  0
 10 12  1  0  0  0  0
 10 33  1  0  0  0  0
 11 34  1  0  0  0  0
 11 35  1  0  0  0  0
 11 36  1  0  0  0  0
 12 13  1  0  0  0  0
 12 37  1  0  0  0  0
 13 14  1  0  0  0  0
 13 38  1  0  0  0  0
 13 39  1  0  0  0  0
 14 15  1  0  0  0  0
 14 40  1  0  0  0  0
 14 41  1  0  0  0  0
 15 19  1  0  0  0  0
 15 16  1  0  0  0  0
 16 17  2  0  0  0  0
 16 42  1  0  0  0  0
 17 18  1  0  0  0  0
 17 43  1  0  0  0  0
 18 19  2  0  0  0  0
 18 44  1  0  0  0  0
 20 45  1  0  0  0  0
 20 46  1  0  0  0  0
M  END
> <s_m_source_file>
AV-unprocessed.smi

> <i_m_source_file_index>
3331

> <i_lp_mmshare_version>
43012

> <i_f3d_flags>
0

> <s_epik_input>
W0NIM11bQ0BASF0xW0NIMl1bQ0BASF0oW0NIM10pW0NIMl1OKFtDSDJdMSlDKD1PKVtDQEhdKFtDSDNdKVtOSF1bQ0gyXVtDSDJdbjJbY0hdW2NIXVtjSF1uMg==

> <s_epik_cmdline>
J2VwaWtfcHl0aG9uJywgJy1waCcsICc3LjAnLCAnLXRuJywgJzgnLCAnLW1hJywgJzIwMCcsICctbWV0YWxfYmluZGluZycsICctaW1hZScsICc8aW5maWxlLm1hZT4nLCAnLW9tYWUnLCAnPG91dGZpbGUubWFlPic=

> <r_lp_tautomer_probability>
1

> <r_epik_Ionization_Penalty>
0.767994

> <r_epik_Ionization_Penalty_Charging>
0

> <r_epik_Ionization_Penalty_Neutral>
0.767994

> <r_epik_State_Penalty>
0.795453

> <r_epik_Charging_Adjusted_Penalty>
0.795453

> <i_epik_Tot_Q>
0

> <i_epik_Tot_abs_Q>
0

> <r_epik_Metal_State_Penalty>
0.794784

> <b_epik_Metal_Only>
0

> <s_lp_Force_Field>
OPLS_2005

> <r_lp_Energy>
28.4318

> <b_lp_Chiralities_Consistent>
1

> <s_lp_Variant>
AV-unprocessed.smi:3331-11

> <Gold.Version>
5.8.1

> <Gold.Id.Protein>
6NUR|6NUR_protein|mol2

> <Gold.PLP.Fitness>
50.7247

> <Gold.PLP.PLP>
-44.9969

> <Gold.PLP.part.hbond>
-2.5142

> <Gold.PLP.part.metal>
0.0000

> <Gold.PLP.part.buried>
-3.5397

> <Gold.PLP.part.nonpolar>
-36.9461

> <Gold.PLP.part.repulsive>
0.0020

> <Gold.PLP.ligand.clash>
0.0000

> <Gold.PLP.ligand.torsion>
0.9232

> <Gold.PLP.Chemscore.Hbond>
1.4954

> <Gold.PLP.Chemscore.CHOScore>
1.0000

> <Gold.PLP.Chemscore.Metal>
0.0000

> <Gold.Chemscore.Hbonds>
donor molecule, donor type, donor heavy atom, donor atom, acceptor molecule, acceptor atom, score
      P1  H  6933  6944       L1    19  0.60
      P1  H  6934  6946       L1    19  0.90
      L1  C    16    42       P1  8029  1.00

> <Gold.PLP.Chemscore.Internal.Correction>
0.0879

> <Gold.Rescore>
     Score         DG    S(hbond)    S(metal)    S(lipo)     H(rot)  DE(clash)    DE(int)     intcor
     16.31     -17.37       0.96        0.00     110.67       1.66       0.22       0.84       ----

> <Gold.Chemscore.Fitness>
16.3099

> <Gold.Chemscore.DG>
-17.3700

> <Gold.Chemscore.ZeroCoef>
-5.4800

> <Gold.Chemscore.Hbond>
0.9590

> <Gold.Chemscore.Metal>
0.0000

> <Gold.Chemscore.Lipo>
110.6749

> <Gold.Chemscore.Internal_Hbond>
0.0000

> <Gold.Chemscore.DEClash>
0.2205

> <Gold.Chemscore.DEInternal>
0.8397

> <Gold.Chemscore.Rot>
1.6649

> <Gold.Chemscore.Internal.Correction>
   9.000000E+99

> <Gold.Chemscore.Hbonds>
donor molecule, donor type, donor heavy atom, donor atom, acceptor molecule, acceptor atom, score
      P1  H  6933  6944       L1    19  0.06
      P1  H  6934  6946       L1    19  0.51

> <Gold.Chemscore.Hbond.Weighted>
-3.2032

> <Gold.Chemscore.Metal.Weighted>
-0.0000

> <Gold.Chemscore.Lipo.Weighted>
-12.9490

> <Gold.Chemscore.Internal_Hbond.Weighted>
0.0000

> <Gold.Chemscore.DEClash.Weighted>
0.2205

> <Gold.Chemscore.DEInternal.Weighted>
0.8397

> <Gold.Chemscore.Rot.Weighted>
4.2621

> <Gold.Chemscore.Internal.Correction.Weighted>
   9.000000E+99

> <Gold.Protein.RotatedTorsions>
[ 6907 6896 6895 6894 ] final   28.77 input  -60.11 | X-H torsion
[ 7974 7965 7964 7962 ] final   38.21 input  175.53 | X-H torsion
[ 8008 7997 7996 7995 ] final  -95.30 input   59.86 | X-H torsion
[ 10167 10162 10161 10158 ] final -156.11 input  -65.29 | X-H torsion
[ 10718 10713 10712 10709 ] final  -16.48 input   66.30 | X-H torsion
[ 10763 10752 10751 10750 ] final   63.52 input  -60.55 | X-H torsion
[ 11005 11000 10999 10996 ] final -101.67 input  -57.11 | X-H torsion

> <Gold.Protein.ActiveResidues>
 VAL166  LYS551  ARG553  GLY616  TRP617  ASP618  TYR619  PRO620  LYS621  CYS622 
 ASP623  PHE694  ASN695  SER759  ASP760  ASP761  ALA762  ILE779  LEU786  VAL792 
 PHE793  MET794  SER795  GLU796  ALA797  LYS798  CYS799  TRP800  GLU811  SER814 

> <Gold.Protein.RotatedAtoms>
  152.0217  134.9818  160.0570 H   0  0  0  0  0  0  0  0  0  0  0  0  # atno 6907 bound_to 6896
  152.1330  133.4414  159.4738 H   0  0  0  0  0  0  0  0  0  0  0  0  # atno 6908 bound_to 6896
  150.6858  134.2316  159.4480 H   0  0  0  0  0  0  0  0  0  0  0  0  # atno 6909 bound_to 6896
  146.1079  139.5800  142.9371 H   0  0  0  0  0  0  0  0  0  0  0  0  # atno 7974 bound_to 7965
  154.7595  140.0481  157.0961 H   0  0  0  0  0  0  0  0  0  0  0  0  # atno 8008 bound_to 7997
  154.9956  140.3118  155.4869 H   0  0  0  0  0  0  0  0  0  0  0  0  # atno 8009 bound_to 7997
  156.2901  140.2211  156.5063 H   0  0  0  0  0  0  0  0  0  0  0  0  # atno 8010 bound_to 7997
  139.6876  143.9474  152.2369 H   0  0  0  0  0  0  0  0  0  0  0  0  # atno 10167 bound_to 10162
  156.5870  130.4789  149.6296 H   0  0  0  0  0  0  0  0  0  0  0  0  # atno 10718 bound_to 10713
  153.0021  135.5426  154.6366 H   0  0  0  0  0  0  0  0  0  0  0  0  # atno 10763 bound_to 10752
  154.5631  135.2835  155.0902 H   0  0  0  0  0  0  0  0  0  0  0  0  # atno 10764 bound_to 10752
  154.2097  135.6469  153.5164 H   0  0  0  0  0  0  0  0  0  0  0  0  # atno 10765 bound_to 10752
  141.1221  133.8496  157.1261 H   0  0  0  0  0  0  0  0  0  0  0  0  # atno 11005 bound_to 11000
  145.5723  141.0392  143.2167 LP  0  0  0  0  0  0  0  0  0  0  0  0  # atno 17320 bound_to 7965
  144.7486  139.7252  143.7282 LP  0  0  0  0  0  0  0  0  0  0  0  0  # atno 17321 bound_to 7965
  139.9282  144.6758  150.8391 LP  0  0  0  0  0  0  0  0  0  0  0  0  # atno 17342 bound_to 10162
  140.7673  143.3327  151.2375 LP  0  0  0  0  0  0  0  0  0  0  0  0  # atno 17343 bound_to 10162
  156.2583  130.6947  151.1707 LP  0  0  0  0  0  0  0  0  0  0  0  0  # atno 17370 bound_to 10713
  157.7313  131.0609  150.5685 LP  0  0  0  0  0  0  0  0  0  0  0  0  # atno 17371 bound_to 10713
  140.0188  134.9955  157.0548 LP  0  0  0  0  0  0  0  0  0  0  0  0  # atno 17394 bound_to 11000
  140.4475  134.1616  155.7178 LP  0  0  0  0  0  0  0  0  0  0  0  0  # atno 17395 bound_to 11000

$$$$
