AV-unprocessed.smi:2251|AV-procd|sdf|9102|dock2
  -GOLD-   2272012303D 1   1.00000     0.00000
 Structure written by MMmdl.
 45 46  0  0  0  0  0  0  0  0  2 V2000
  151.2329  140.8781  155.8407 C   0  0  0  0  0  0  0  0  0  0  0  0
  151.6164  139.4597  155.4340 C   0  0  0  0  0  0  0  0  0  0  0  0
  152.7967  139.1108  155.4458 O   0  0  0  0  0  0  0  0  0  0  0  0
  150.6074  138.6496  155.0775 N   0  0  0  0  0  0  0  0  0  0  0  0
  150.7560  137.2539  154.6740 C   0  0  0  0  0  0  0  0  0  0  0  0
  149.7293  136.3353  155.3462 C   0  0  0  0  0  0  0  0  0  0  0  0
  149.7052  136.2105  156.5711 O   0  0  0  0  0  0  0  0  0  0  0  0
  148.8674  135.7141  154.5298 N   0  0  0  0  0  0  0  0  0  0  0  0
  147.8206  134.7997  154.9759 C   0  0  0  0  0  0  0  0  0  0  0  0
  147.2771  133.9096  153.8212 C   0  0  0  0  0  0  0  0  0  0  0  0
  146.3744  134.7781  152.9148 C   0  0  0  0  0  0  0  0  0  0  0  0
  146.1320  136.1332  153.2561 C   0  0  0  0  0  0  0  0  0  0  0  0
  145.3211  136.9375  152.4312 C   0  0  0  0  0  0  0  0  0  0  0  0
  144.7777  136.4175  151.3118 N   0  3  0  0  0  0  0  0  0  0  0  0
  144.9787  135.1384  150.9337 C   0  0  0  0  0  0  0  0  0  0  0  0
  145.7821  134.2881  151.7204 C   0  0  0  0  0  0  0  0  0  0  0  0
  148.4614  133.2752  153.0250 C   0  0  0  0  0  0  0  0  0  0  0  0
  149.2831  132.2461  153.8221 C   0  0  0  0  0  0  0  0  0  0  0  0
  148.3887  131.1276  154.3686 C   0  0  0  0  0  0  0  0  0  0  0  0
  147.2386  131.7045  155.2014 C   0  0  0  0  0  0  0  0  0  0  0  0
  146.4271  132.7424  154.4036 C   0  0  0  0  0  0  0  0  0  0  0  0
  150.6245  141.3475  155.0670 H   0  0  0  0  0  0  0  0  0  0  0  0
  152.1219  141.4909  155.9938 H   0  0  0  0  0  0  0  0  0  0  0  0
  150.6627  140.8648  156.7700 H   0  0  0  0  0  0  0  0  0  0  0  0
  149.6681  139.0194  155.1048 H   0  0  0  0  0  0  0  0  0  0  0  0
  150.6201  137.1920  153.5943 H   0  0  0  0  0  0  0  0  0  0  0  0
  151.7707  136.9090  154.8824 H   0  0  0  0  0  0  0  0  0  0  0  0
  148.9531  135.8696  153.5360 H   0  0  0  0  0  0  0  0  0  0  0  0
  148.2153  134.1994  155.7948 H   0  0  0  0  0  0  0  0  0  0  0  0
  147.0095  135.3883  155.4074 H   0  0  0  0  0  0  0  0  0  0  0  0
  146.5675  136.5674  154.1436 H   0  0  0  0  0  0  0  0  0  0  0  0
  145.0957  137.9749  152.6311 H   0  0  0  0  0  0  0  0  0  0  0  0
  144.4964  134.8342  150.0161 H   0  0  0  0  0  0  0  0  0  0  0  0
  145.9260  133.2743  151.3811 H   0  0  0  0  0  0  0  0  0  0  0  0
  148.0691  132.7545  152.1502 H   0  0  0  0  0  0  0  0  0  0  0  0
  149.1338  134.0458  152.6462 H   0  0  0  0  0  0  0  0  0  0  0  0
  150.0510  131.8155  153.1786 H   0  0  0  0  0  0  0  0  0  0  0  0
  149.8166  132.7315  154.6389 H   0  0  0  0  0  0  0  0  0  0  0  0
  147.9832  130.5456  153.5399 H   0  0  0  0  0  0  0  0  0  0  0  0
  148.9788  130.4375  154.9724 H   0  0  0  0  0  0  0  0  0  0  0  0
  146.5814  130.8964  155.5243 H   0  0  0  0  0  0  0  0  0  0  0  0
  147.6320  132.1528  156.1138 H   0  0  0  0  0  0  0  0  0  0  0  0
  145.6324  133.1222  155.0455 H   0  0  0  0  0  0  0  0  0  0  0  0
  145.9262  132.2248  153.5840 H   0  0  0  0  0  0  0  0  0  0  0  0
  144.1936  137.0160  150.7270 H   0  0  0  0  0  0  0  0  0  0  0  0
  1  2  1  0  0  0  0
  1 22  1  0  0  0  0
  1 23  1  0  0  0  0
  1 24  1  0  0  0  0
  2  3  2  0  0  0  0
  2  4  1  0  0  0  0
  4  5  1  0  0  0  0
  4 25  1  0  0  0  0
  5  6  1  0  0  0  0
  5 26  1  0  0  0  0
  5 27  1  0  0  0  0
  6  7  2  0  0  0  0
  6  8  1  0  0  0  0
  8  9  1  0  0  0  0
  8 28  1  0  0  0  0
  9 10  1  0  0  0  0
  9 29  1  0  0  0  0
  9 30  1  0  0  0  0
 10 21  1  0  0  0  0
 10 11  1  0  0  0  0
 10 17  1  0  0  0  0
 11 16  1  0  0  0  0
 11 12  2  0  0  0  0
 12 13  1  0  0  0  0
 12 31  1  0  0  0  0
 13 14  2  0  0  0  0
 13 32  1  0  0  0  0
 14 15  1  0  0  0  0
 14 45  1  0  0  0  0
 15 16  2  0  0  0  0
 15 33  1  0  0  0  0
 16 34  1  0  0  0  0
 17 18  1  0  0  0  0
 17 35  1  0  0  0  0
 17 36  1  0  0  0  0
 18 19  1  0  0  0  0
 18 37  1  0  0  0  0
 18 38  1  0  0  0  0
 19 20  1  0  0  0  0
 19 39  1  0  0  0  0
 19 40  1  0  0  0  0
 20 21  1  0  0  0  0
 20 41  1  0  0  0  0
 20 42  1  0  0  0  0
 21 43  1  0  0  0  0
 21 44  1  0  0  0  0
M  CHG  1  14   1
M  END
> <s_m_source_file>
AV-unprocessed.smi

> <i_m_source_file_index>
2251

> <i_lp_mmshare_version>
43012

> <i_f3d_flags>
0

> <s_epik_input>
W0NIM11DKD1PKVtOSF1bQ0gyXUMoPU8pW05IXVtDSDJdQzEoW0NIMl1bQ0gyXVtDSDJdW0NIMl1bQ0gyXTEpYzJbY0hdW2NIXW5bY0hdW2NIXTI=

> <s_epik_cmdline>
J2VwaWtfcHl0aG9uJywgJy1waCcsICc3LjAnLCAnLXRuJywgJzgnLCAnLW1hJywgJzIwMCcsICctbWV0YWxfYmluZGluZycsICctaW1hZScsICc8aW5maWxlLm1hZT4nLCAnLW9tYWUnLCAnPG91dGZpbGUubWFlPic=

> <r_epik_Ionization_Penalty>
1.36815

> <r_epik_Ionization_Penalty_Charging>
1.36815

> <r_epik_Ionization_Penalty_Neutral>
3.04412e-07

> <r_epik_State_Penalty>
1.44763

> <r_epik_Charging_Adjusted_Penalty>
2.81578

> <i_epik_Tot_Q>
1

> <i_epik_Tot_abs_Q>
1

> <r_epik_Metal_State_Penalty>
1.50443

> <b_epik_Metal_Only>
0

> <s_lp_Force_Field>
OPLS_2005

> <r_lp_Energy>
22.2864

> <b_lp_Chiralities_Consistent>
1

> <s_lp_Variant>
AV-unprocessed.smi:2251-2

> <Gold.Version>
5.8.1

> <Gold.Id.Protein>
6NUR|6NUR_protein|mol2

> <Gold.PLP.Fitness>
39.3869

> <Gold.PLP.PLP>
-31.1379

> <Gold.PLP.part.hbond>
-3.0000

> <Gold.PLP.part.metal>
0.0000

> <Gold.PLP.part.buried>
-2.4530

> <Gold.PLP.part.nonpolar>
-25.1596

> <Gold.PLP.part.repulsive>
0.1097

> <Gold.PLP.ligand.clash>
0.0000

> <Gold.PLP.ligand.torsion>
0.3945

> <Gold.PLP.Chemscore.Hbond>
2.9913

> <Gold.PLP.Chemscore.CHOScore>
0.0000

> <Gold.PLP.Chemscore.Metal>
0.0000

> <Gold.Chemscore.Hbonds>
donor molecule, donor type, donor heavy atom, donor atom, acceptor molecule, acceptor atom, score
      L1  H     8    28       P1  7948  1.00
      L1  H    14    45       P1 10171  1.00
      P1  H  7997  8008       L1     3  1.00

> <Gold.PLP.Chemscore.Internal.Correction>
0.0643

> <Gold.Rescore>
     Score         DG    S(hbond)    S(metal)    S(lipo)     H(rot)  DE(clash)    DE(int)     intcor
     16.40     -17.03       2.84        0.00      63.64       2.10       0.15       0.48       ----

> <Gold.Chemscore.Fitness>
16.4021

> <Gold.Chemscore.DG>
-17.0325

> <Gold.Chemscore.ZeroCoef>
-5.4800

> <Gold.Chemscore.Hbond>
2.8355

> <Gold.Chemscore.Metal>
0.0000

> <Gold.Chemscore.Lipo>
63.6360

> <Gold.Chemscore.Internal_Hbond>
0.0000

> <Gold.Chemscore.DEClash>
0.1518

> <Gold.Chemscore.DEInternal>
0.4786

> <Gold.Chemscore.Rot>
2.0952

> <Gold.Chemscore.Internal.Correction>
   9.000000E+99

> <Gold.Chemscore.Hbonds>
donor molecule, donor type, donor heavy atom, donor atom, acceptor molecule, acceptor atom, score
      L1  H     8    28       P1  7948  0.94
      L1  H    14    45       P1 10171  0.97
      P1  H  7997  8008       L1     3  0.93

> <Gold.Chemscore.Hbond.Weighted>
-9.4707

> <Gold.Chemscore.Metal.Weighted>
-0.0000

> <Gold.Chemscore.Lipo.Weighted>
-7.4454

> <Gold.Chemscore.Internal_Hbond.Weighted>
0.0000

> <Gold.Chemscore.DEClash.Weighted>
0.1518

> <Gold.Chemscore.DEInternal.Weighted>
0.4786

> <Gold.Chemscore.Rot.Weighted>
5.3636

> <Gold.Chemscore.Internal.Correction.Weighted>
   9.000000E+99

> <Gold.Protein.RotatedTorsions>
[ 6907 6896 6895 6894 ] final  -27.80 input  -60.11 | X-H torsion
[ 7974 7965 7964 7962 ] final -163.92 input  175.53 | X-H torsion
[ 8008 7997 7996 7995 ] final  -39.96 input   59.86 | X-H torsion
[ 10167 10162 10161 10158 ] final   -6.84 input  -65.29 | X-H torsion
[ 10718 10713 10712 10709 ] final   79.62 input   66.30 | X-H torsion
[ 10763 10752 10751 10750 ] final  144.19 input  -60.55 | X-H torsion
[ 11005 11000 10999 10996 ] final  -66.53 input  -57.11 | X-H torsion

> <Gold.Protein.ActiveResidues>
 VAL166  LYS551  ARG553  GLY616  TRP617  ASP618  TYR619  PRO620  LYS621  CYS622 
 ASP623  PHE694  ASN695  SER759  ASP760  ASP761  ALA762  ILE779  LEU786  VAL792 
 PHE793  MET794  SER795  GLU796  ALA797  LYS798  CYS799  TRP800  GLU811  SER814 

> <Gold.Protein.RotatedAtoms>
  151.1418  135.0183  159.8628 H   0  0  0  0  0  0  0  0  0  0  0  0  # atno 6907 bound_to 6896
  152.5452  134.1490  159.8520 H   0  0  0  0  0  0  0  0  0  0  0  0  # atno 6908 bound_to 6896
  151.1566  133.4826  159.2627 H   0  0  0  0  0  0  0  0  0  0  0  0  # atno 6909 bound_to 6896
  144.7312  140.3037  143.6200 H   0  0  0  0  0  0  0  0  0  0  0  0  # atno 7974 bound_to 7965
  154.4017  140.1538  156.2948 H   0  0  0  0  0  0  0  0  0  0  0  0  # atno 8008 bound_to 7997
  155.8753  140.3446  155.5828 H   0  0  0  0  0  0  0  0  0  0  0  0  # atno 8009 bound_to 7997
  155.7728  140.0833  157.2089 H   0  0  0  0  0  0  0  0  0  0  0  0  # atno 8010 bound_to 7997
  140.7010  143.6148  150.8668 H   0  0  0  0  0  0  0  0  0  0  0  0  # atno 10167 bound_to 10162
  157.6782  130.9922  150.1960 H   0  0  0  0  0  0  0  0  0  0  0  0  # atno 10718 bound_to 10713
  153.9848  135.2938  155.3417 H   0  0  0  0  0  0  0  0  0  0  0  0  # atno 10763 bound_to 10752
  154.7248  135.5093  153.8872 H   0  0  0  0  0  0  0  0  0  0  0  0  # atno 10764 bound_to 10752
  153.0837  135.6687  154.0107 H   0  0  0  0  0  0  0  0  0  0  0  0  # atno 10765 bound_to 10752
  141.1484  133.6701  156.6153 H   0  0  0  0  0  0  0  0  0  0  0  0  # atno 11005 bound_to 11000
  145.7735  139.1865  143.2199 LP  0  0  0  0  0  0  0  0  0  0  0  0  # atno 17320 bound_to 7965
  146.0892  140.7676  142.9604 LP  0  0  0  0  0  0  0  0  0  0  0  0  # atno 17321 bound_to 7965
  139.9871  143.5888  152.2923 LP  0  0  0  0  0  0  0  0  0  0  0  0  # atno 17342 bound_to 10162
  139.6530  144.7661  151.2111 LP  0  0  0  0  0  0  0  0  0  0  0  0  # atno 17343 bound_to 10162
  156.2661  130.3716  149.8080 LP  0  0  0  0  0  0  0  0  0  0  0  0  # atno 17370 bound_to 10713
  156.5811  130.8466  151.3383 LP  0  0  0  0  0  0  0  0  0  0  0  0  # atno 17371 bound_to 10713
  140.3583  134.7710  157.4515 LP  0  0  0  0  0  0  0  0  0  0  0  0  # atno 17394 bound_to 11000
  140.0806  134.5737  155.8545 LP  0  0  0  0  0  0  0  0  0  0  0  0  # atno 17395 bound_to 11000

$$$$
