AV-unprocessed.smi:1550|AV-procd|sdf|6224|dock10
  -GOLD-   22720 6403D 1   1.00000     0.00000
 Structure written by MMmdl.
 43 44  0  0  0  0  0  0  0  0  1 V2000
  148.8741  137.8862  156.8030 C   0  0  0  0  0  0  0  0  0  0  0  0
  149.2365  138.3820  158.2109 C   0  0  2  0  0  0  0  0  0  0  0  0
  150.5160  139.0038  158.1290 O   0  0  0  0  0  0  0  0  0  0  0  0
  150.5200  140.3306  157.6134 C   0  0  0  0  0  0  0  0  0  0  0  0
  151.1701  141.2625  158.6434 C   0  0  2  0  0  0  0  0  0  0  0  0
  151.4193  142.6753  158.0787 C   0  0  0  0  0  0  0  0  0  0  0  0
  152.1516  143.5449  159.1064 C   0  0  0  0  0  0  0  0  0  0  0  0
  153.4161  142.8238  159.5855 C   0  0  0  0  0  0  0  0  0  0  0  0
  153.0716  141.4076  160.0731 C   0  0  0  0  0  0  0  0  0  0  0  0
  152.4121  140.6837  159.0386 O   0  0  0  0  0  0  0  0  0  0  0  0
  149.2709  137.2251  159.2234 C   0  0  0  0  0  0  0  0  0  0  0  0
  150.3505  136.8658  159.6917 O   0  0  0  0  0  0  0  0  0  0  0  0
  148.0689  136.7060  159.5441 N   0  0  0  0  0  0  0  0  0  0  0  0
  147.7384  135.6713  160.4366 C   0  0  0  0  0  0  0  0  0  0  0  0
  147.7391  134.3451  160.1384 C   0  0  0  0  0  0  0  0  0  0  0  0
  147.3847  133.3329  161.1198 C   0  0  0  0  0  0  0  0  0  0  0  0
  147.3340  131.8563  160.7578 C   0  0  0  0  0  0  0  0  0  0  0  0
  147.6288  131.6616  159.4716 F   0  0  0  0  0  0  0  0  0  0  0  0
  148.1939  131.1532  161.4950 F   0  0  0  0  0  0  0  0  0  0  0  0
  146.1104  131.3783  160.9799 F   0  0  0  0  0  0  0  0  0  0  0  0
  147.0274  133.7773  162.3387 C   0  0  0  0  0  0  0  0  0  0  0  0
  147.0272  135.1373  162.6547 N   0  0  0  0  0  0  0  0  0  0  0  0
  147.3580  136.1193  161.7869 C   0  0  0  0  0  0  0  0  0  0  0  0
  147.3294  137.2970  162.1428 O   0  0  0  0  0  0  0  0  0  0  0  0
  146.7576  135.3904  163.5942 H   0  0  0  0  0  0  0  0  0  0  0  0
  147.9033  137.3895  156.7947 H   0  0  0  0  0  0  0  0  0  0  0  0
  149.6148  137.1826  156.4208 H   0  0  0  0  0  0  0  0  0  0  0  0
  148.8224  138.7199  156.1022 H   0  0  0  0  0  0  0  0  0  0  0  0
  148.4935  139.1225  158.5141 H   0  0  0  0  0  0  0  0  0  0  0  0
  151.0937  140.3514  156.6857 H   0  0  0  0  0  0  0  0  0  0  0  0
  149.5135  140.6801  157.3805 H   0  0  0  0  0  0  0  0  0  0  0  0
  150.5204  141.3219  159.5185 H   0  0  0  0  0  0  0  0  0  0  0  0
  152.0155  142.6081  157.1677 H   0  0  0  0  0  0  0  0  0  0  0  0
  150.4757  143.1451  157.7995 H   0  0  0  0  0  0  0  0  0  0  0  0
  152.4056  144.5130  158.6741 H   0  0  0  0  0  0  0  0  0  0  0  0
  151.4956  143.7410  159.9555 H   0  0  0  0  0  0  0  0  0  0  0  0
  154.1349  142.7619  158.7675 H   0  0  0  0  0  0  0  0  0  0  0  0
  153.8963  143.3921  160.3824 H   0  0  0  0  0  0  0  0  0  0  0  0
  153.9819  140.8757  160.3496 H   0  0  0  0  0  0  0  0  0  0  0  0
  152.4427  141.4446  160.9639 H   0  0  0  0  0  0  0  0  0  0  0  0
  147.2716  137.1402  159.1014 H   0  0  0  0  0  0  0  0  0  0  0  0
  148.0000  133.9919  159.1550 H   0  0  0  0  0  0  0  0  0  0  0  0
  146.7154  133.1389  163.1522 H   0  0  0  0  0  0  0  0  0  0  0  0
  1  2  1  0  0  0  0
  1 26  1  0  0  0  0
  1 27  1  0  0  0  0
  1 28  1  0  0  0  0
  2  3  1  0  0  0  0
  2 11  1  0  0  0  0
  2 29  1  0  0  0  0
  3  4  1  0  0  0  0
  4  5  1  0  0  0  0
  4 30  1  0  0  0  0
  4 31  1  0  0  0  0
  5 10  1  0  0  0  0
  5  6  1  0  0  0  0
  5 32  1  0  0  0  0
  6  7  1  0  0  0  0
  6 33  1  0  0  0  0
  6 34  1  0  0  0  0
  7  8  1  0  0  0  0
  7 35  1  0  0  0  0
  7 36  1  0  0  0  0
  8  9  1  0  0  0  0
  8 37  1  0  0  0  0
  8 38  1  0  0  0  0
  9 10  1  0  0  0  0
  9 39  1  0  0  0  0
  9 40  1  0  0  0  0
 11 12  2  0  0  0  0
 11 13  1  0  0  0  0
 13 14  1  0  0  0  0
 13 41  1  0  0  0  0
 14 23  1  0  0  0  0
 14 15  2  0  0  0  0
 15 16  1  0  0  0  0
 15 42  1  0  0  0  0
 16 17  1  0  0  0  0
 16 21  2  0  0  0  0
 17 18  1  0  0  0  0
 17 19  1  0  0  0  0
 17 20  1  0  0  0  0
 21 22  1  0  0  0  0
 21 43  1  0  0  0  0
 22 25  1  0  0  0  0
 22 23  1  0  0  0  0
 23 24  2  0  0  0  0
M  END
> <s_m_source_file>
AV-unprocessed.smi

> <i_m_source_file_index>
1550

> <i_lp_mmshare_version>
43012

> <i_f3d_flags>
0

> <s_epik_input>
TzFbQ0gyXVtDSDJdW0NIMl1bQ0gyXVtDQEhdMVtDSDJdT1tDQEBIXShbQ0gzXSlDKD1PKVtOSF1jMltjSF1jKEMoRikoRilGKVtjSF1bbkhdYzI9Tw==

> <s_epik_cmdline>
J2VwaWtfcHl0aG9uJywgJy1waCcsICc3LjAnLCAnLXRuJywgJzgnLCAnLW1hJywgJzIwMCcsICctbWV0YWxfYmluZGluZycsICctaW1hZScsICc8aW5maWxlLm1hZT4nLCAnLW9tYWUnLCAnPG91dGZpbGUubWFlPic=

> <r_lp_tautomer_probability>
0.999

> <r_epik_Ionization_Penalty>
0.00891333

> <r_epik_Ionization_Penalty_Charging>
0.00891323

> <r_epik_Ionization_Penalty_Neutral>
1.00146e-07

> <r_epik_State_Penalty>
0.00674197

> <r_epik_Charging_Adjusted_Penalty>
0.0156552

> <i_epik_Tot_Q>
0

> <i_epik_Tot_abs_Q>
0

> <r_epik_Metal_State_Penalty>
0.321024

> <b_epik_Metal_Only>
0

> <s_lp_Force_Field>
OPLS_2005

> <r_lp_Energy>
25.3727

> <b_lp_Chiralities_Consistent>
1

> <s_lp_Variant>
AV-unprocessed.smi:1550-1

> <Gold.Version>
5.8.1

> <Gold.Id.Protein>
6NUR|6NUR_protein|mol2

> <Gold.PLP.Fitness>
47.4512

> <Gold.PLP.PLP>
-43.0998

> <Gold.PLP.part.hbond>
-3.1027

> <Gold.PLP.part.metal>
0.0000

> <Gold.PLP.part.buried>
-6.4568

> <Gold.PLP.part.nonpolar>
-34.5119

> <Gold.PLP.part.repulsive>
0.3091

> <Gold.PLP.ligand.clash>
0.0000

> <Gold.PLP.ligand.torsion>
1.5763

> <Gold.PLP.Chemscore.Hbond>
2.4633

> <Gold.PLP.Chemscore.CHOScore>
0.0000

> <Gold.PLP.Chemscore.Metal>
0.0000

> <Gold.Chemscore.Hbonds>
donor molecule, donor type, donor heavy atom, donor atom, acceptor molecule, acceptor atom, score
      P1  H  6896  6909       L1    12  1.00
      P1  H  6931  6943       L1    24  0.82
      P1  H  6934  6947       L1    24  0.54

> <Gold.PLP.Chemscore.Internal.Correction>
0.1143

> <Gold.Rescore>
     Score         DG    S(hbond)    S(metal)    S(lipo)     H(rot)  DE(clash)    DE(int)     intcor
     17.67     -19.21       2.64        0.00      82.67       1.86       0.00       1.54       ----

> <Gold.Chemscore.Fitness>
17.6729

> <Gold.Chemscore.DG>
-19.2124

> <Gold.Chemscore.ZeroCoef>
-5.4800

> <Gold.Chemscore.Hbond>
2.6390

> <Gold.Chemscore.Metal>
0.0000

> <Gold.Chemscore.Lipo>
82.6680

> <Gold.Chemscore.Internal_Hbond>
0.0000

> <Gold.Chemscore.DEClash>
0.0000

> <Gold.Chemscore.DEInternal>
1.5395

> <Gold.Chemscore.Rot>
1.8571

> <Gold.Chemscore.Internal.Correction>
   9.000000E+99

> <Gold.Chemscore.Hbonds>
donor molecule, donor type, donor heavy atom, donor atom, acceptor molecule, acceptor atom, score
      P1  H  6896  6909       L1    12  0.98
      P1  H  6931  6943       L1    24  0.71
      P1  H  6934  6947       L1    24  0.53

> <Gold.Chemscore.Hbond.Weighted>
-8.8143

> <Gold.Chemscore.Metal.Weighted>
-0.0000

> <Gold.Chemscore.Lipo.Weighted>
-9.6722

> <Gold.Chemscore.Internal_Hbond.Weighted>
0.0000

> <Gold.Chemscore.DEClash.Weighted>
0.0000

> <Gold.Chemscore.DEInternal.Weighted>
1.5395

> <Gold.Chemscore.Rot.Weighted>
4.7541

> <Gold.Chemscore.Internal.Correction.Weighted>
   9.000000E+99

> <Gold.Protein.RotatedTorsions>
[ 6907 6896 6895 6894 ] final   82.57 input  -60.11 | X-H torsion
[ 7974 7965 7964 7962 ] final  -20.45 input  175.53 | X-H torsion
[ 8008 7997 7996 7995 ] final   77.35 input   59.86 | X-H torsion
[ 10167 10162 10161 10158 ] final   91.77 input  -65.29 | X-H torsion
[ 10718 10713 10712 10709 ] final  -64.18 input   66.30 | X-H torsion
[ 10763 10752 10751 10750 ] final   30.28 input  -60.55 | X-H torsion
[ 11005 11000 10999 10996 ] final  -12.32 input  -57.11 | X-H torsion

> <Gold.Protein.ActiveResidues>
 VAL166  LYS551  ARG553  GLY616  TRP617  ASP618  TYR619  PRO620  LYS621  CYS622 
 ASP623  PHE694  ASN695  SER759  ASP760  ASP761  ALA762  ILE779  LEU786  VAL792 
 PHE793  MET794  SER795  GLU796  ALA797  LYS798  CYS799  TRP800  GLU811  SER814 

> <Gold.Protein.RotatedAtoms>
  152.5303  134.3030  159.9085 H   0  0  0  0  0  0  0  0  0  0  0  0  # atno 6907 bound_to 6896
  151.2980  133.4128  159.2645 H   0  0  0  0  0  0  0  0  0  0  0  0  # atno 6908 bound_to 6896
  151.0143  134.9437  159.8081 H   0  0  0  0  0  0  0  0  0  0  0  0  # atno 6909 bound_to 6896
  146.1787  140.4203  142.8503 H   0  0  0  0  0  0  0  0  0  0  0  0  # atno 7974 bound_to 7965
  155.8403  140.3462  155.5628 H   0  0  0  0  0  0  0  0  0  0  0  0  # atno 8008 bound_to 7997
  155.8148  140.0904  157.1903 H   0  0  0  0  0  0  0  0  0  0  0  0  # atno 8009 bound_to 7997
  154.4005  140.1441  156.3417 H   0  0  0  0  0  0  0  0  0  0  0  0  # atno 8010 bound_to 7997
  139.8342  144.6672  150.9362 H   0  0  0  0  0  0  0  0  0  0  0  0  # atno 10167 bound_to 10162
  156.0745  130.4230  150.1383 H   0  0  0  0  0  0  0  0  0  0  0  0  # atno 10718 bound_to 10713
  153.0381  135.6468  154.1020 H   0  0  0  0  0  0  0  0  0  0  0  0  # atno 10763 bound_to 10752
  154.0731  135.2879  155.3306 H   0  0  0  0  0  0  0  0  0  0  0  0  # atno 10764 bound_to 10752
  154.6581  135.5401  153.8048 H   0  0  0  0  0  0  0  0  0  0  0  0  # atno 10765 bound_to 10752
  140.7645  133.8488  155.9153 H   0  0  0  0  0  0  0  0  0  0  0  0  # atno 11005 bound_to 11000
  144.8279  140.6659  143.6310 LP  0  0  0  0  0  0  0  0  0  0  0  0  # atno 17320 bound_to 7965
  145.4137  139.1575  143.4112 LP  0  0  0  0  0  0  0  0  0  0  0  0  # atno 17321 bound_to 7965
  140.7804  143.3972  151.1209 LP  0  0  0  0  0  0  0  0  0  0  0  0  # atno 17342 bound_to 10162
  139.7624  143.8616  152.3103 LP  0  0  0  0  0  0  0  0  0  0  0  0  # atno 17343 bound_to 10162
  156.9427  130.9750  151.3513 LP  0  0  0  0  0  0  0  0  0  0  0  0  # atno 17370 bound_to 10713
  157.5833  130.8392  149.8553 LP  0  0  0  0  0  0  0  0  0  0  0  0  # atno 17371 bound_to 10713
  140.9632  134.1628  157.4637 LP  0  0  0  0  0  0  0  0  0  0  0  0  # atno 17394 bound_to 11000
  139.8765  134.9952  156.5733 LP  0  0  0  0  0  0  0  0  0  0  0  0  # atno 17395 bound_to 11000

$$$$
