AV-unprocessed.smi:2744|AV-procd|sdf|10569|dock5
  -GOLD-   2272015 23D 1   1.00000     0.00000
 Structure written by MMmdl.
 40 41  0  0  0  0  0  0  0  0  1 V2000
  152.5786  144.7370  158.9879 C   0  0  0  0  0  0  0  0  0  0  0  0
  152.0940  143.3689  159.4958 C   0  0  0  0  0  0  0  0  0  0  0  0
  151.1207  142.6111  158.5555 C   0  0  2  0  0  0  0  0  0  0  0  0
  149.7716  143.3385  158.4015 C   0  0  0  0  0  0  0  0  0  0  0  0
  150.8540  141.3480  159.1353 O   0  0  0  0  0  0  0  0  0  0  0  0
  151.7350  142.3770  157.1506 C   0  0  0  0  0  0  0  0  0  0  0  0
  150.9335  141.5353  156.2751 N   0  0  0  0  0  0  0  0  0  0  0  0
  149.6970  141.8355  155.7474 C   0  0  0  0  0  0  0  0  0  0  0  0
  149.1765  140.9131  154.9844 N   0  0  0  0  0  0  0  0  0  0  0  0
  150.1215  139.8953  154.9972 C   0  0  0  0  0  0  0  0  0  0  0  0
  150.1967  138.6155  154.3891 C   0  0  0  0  0  0  0  0  0  0  0  0
  149.1990  138.1622  153.5975 N   0  0  0  0  0  0  0  0  0  0  0  0
  147.8462  138.7041  153.6905 C   0  0  0  0  0  0  0  0  0  0  0  0
  146.8858  137.6957  154.3429 C   0  0  0  0  0  0  0  0  0  0  0  0
  147.3501  139.1123  152.2973 C   0  0  0  0  0  0  0  0  0  0  0  0
  151.3013  137.8628  154.6358 N   0  0  0  0  0  0  0  0  0  0  0  0
  152.2716  138.3348  155.4249 C   0  0  0  0  0  0  0  0  0  0  0  0
  152.3373  139.5093  156.0566 N   0  0  0  0  0  0  0  0  0  0  0  0
  151.2299  140.2663  155.8090 C   0  0  0  0  0  0  0  0  0  0  0  0
  153.2007  145.2240  159.7391 H   0  0  0  0  0  0  0  0  0  0  0  0
  151.7431  145.4035  158.7728 H   0  0  0  0  0  0  0  0  0  0  0  0
  153.1801  144.6433  158.0841 H   0  0  0  0  0  0  0  0  0  0  0  0
  152.9663  142.7434  159.6887 H   0  0  0  0  0  0  0  0  0  0  0  0
  151.6200  143.5264  160.4650 H   0  0  0  0  0  0  0  0  0  0  0  0
  149.9123  144.3503  158.0201 H   0  0  0  0  0  0  0  0  0  0  0  0
  149.2351  143.4118  159.3476 H   0  0  0  0  0  0  0  0  0  0  0  0
  149.1165  142.8138  157.7051 H   0  0  0  0  0  0  0  0  0  0  0  0
  151.6555  140.8475  159.1505 H   0  0  0  0  0  0  0  0  0  0  0  0
  151.9021  143.3291  156.6446 H   0  0  0  0  0  0  0  0  0  0  0  0
  152.7179  141.9145  157.2508 H   0  0  0  0  0  0  0  0  0  0  0  0
  149.1938  142.7716  155.9416 H   0  0  0  0  0  0  0  0  0  0  0  0
  149.3163  137.3849  152.9635 H   0  0  0  0  0  0  0  0  0  0  0  0
  147.8687  139.6078  154.3006 H   0  0  0  0  0  0  0  0  0  0  0  0
  145.8801  138.1095  154.4214 H   0  0  0  0  0  0  0  0  0  0  0  0
  147.2061  137.4291  155.3501 H   0  0  0  0  0  0  0  0  0  0  0  0
  146.8224  136.7758  153.7606 H   0  0  0  0  0  0  0  0  0  0  0  0
  146.3518  139.5481  152.3485 H   0  0  0  0  0  0  0  0  0  0  0  0
  147.3054  138.2557  151.6235 H   0  0  0  0  0  0  0  0  0  0  0  0
  148.0098  139.8556  151.8484 H   0  0  0  0  0  0  0  0  0  0  0  0
  153.1157  137.6774  155.5710 H   0  0  0  0  0  0  0  0  0  0  0  0
  1  2  1  0  0  0  0
  1 20  1  0  0  0  0
  1 21  1  0  0  0  0
  1 22  1  0  0  0  0
  2  3  1  0  0  0  0
  2 23  1  0  0  0  0
  2 24  1  0  0  0  0
  3  4  1  0  0  0  0
  3  5  1  0  0  0  0
  3  6  1  0  0  0  0
  4 25  1  0  0  0  0
  4 26  1  0  0  0  0
  4 27  1  0  0  0  0
  5 28  1  0  0  0  0
  6  7  1  0  0  0  0
  6 29  1  0  0  0  0
  6 30  1  0  0  0  0
  7 19  1  0  0  0  0
  7  8  1  0  0  0  0
  8  9  2  0  0  0  0
  8 31  1  0  0  0  0
  9 10  1  0  0  0  0
 10 19  2  0  0  0  0
 10 11  1  0  0  0  0
 11 12  1  0  0  0  0
 11 16  2  0  0  0  0
 12 13  1  0  0  0  0
 12 32  1  0  0  0  0
 13 14  1  0  0  0  0
 13 15  1  0  0  0  0
 13 33  1  0  0  0  0
 14 34  1  0  0  0  0
 14 35  1  0  0  0  0
 14 36  1  0  0  0  0
 15 37  1  0  0  0  0
 15 38  1  0  0  0  0
 15 39  1  0  0  0  0
 16 17  1  0  0  0  0
 17 18  2  0  0  0  0
 17 40  1  0  0  0  0
 18 19  1  0  0  0  0
M  END
> <s_m_source_file>
AV-unprocessed.smi

> <i_m_source_file_index>
2744

> <i_lp_mmshare_version>
43012

> <i_f3d_flags>
0

> <s_epik_input>
W0NIM11bQ0gyXVtDQEBdKFtDSDNdKShbT0hdKVtDSDJdbihbY0hdbjEpYyhjMTIpbltjSF1uYzJbTkhdW0NIXShbQ0gzXSlbQ0gzXQ==

> <s_epik_cmdline>
J2VwaWtfcHl0aG9uJywgJy1waCcsICc3LjAnLCAnLXRuJywgJzgnLCAnLW1hJywgJzIwMCcsICctbWV0YWxfYmluZGluZycsICctaW1hZScsICc8aW5maWxlLm1hZT4nLCAnLW9tYWUnLCAnPG91dGZpbGUubWFlPic=

> <r_lp_tautomer_probability>
1

> <r_epik_Ionization_Penalty>
0.00217876

> <r_epik_Ionization_Penalty_Charging>
0

> <r_epik_Ionization_Penalty_Neutral>
0.00217876

> <r_epik_State_Penalty>
-0

> <r_epik_Charging_Adjusted_Penalty>
0

> <i_epik_Tot_Q>
0

> <i_epik_Tot_abs_Q>
0

> <r_epik_Metal_State_Penalty>
-0

> <b_epik_Metal_Only>
0

> <s_lp_Force_Field>
OPLS_2005

> <r_lp_Energy>
9.28896

> <b_lp_Chiralities_Consistent>
1

> <s_lp_Variant>
AV-unprocessed.smi:2744-2

> <Gold.Version>
5.8.1

> <Gold.Id.Protein>
6NUR|6NUR_protein|mol2

> <Gold.PLP.Fitness>
44.2854

> <Gold.PLP.PLP>
-35.8434

> <Gold.PLP.part.hbond>
-3.3979

> <Gold.PLP.part.metal>
0.0000

> <Gold.PLP.part.buried>
-0.2868

> <Gold.PLP.part.nonpolar>
-31.7697

> <Gold.PLP.part.repulsive>
0.3385

> <Gold.PLP.ligand.clash>
0.0000

> <Gold.PLP.ligand.torsion>
0.2917

> <Gold.PLP.Chemscore.Hbond>
1.9913

> <Gold.PLP.Chemscore.CHOScore>
1.0000

> <Gold.PLP.Chemscore.Metal>
0.0000

> <Gold.Chemscore.Hbonds>
donor molecule, donor type, donor heavy atom, donor atom, acceptor molecule, acceptor atom, score
      L1  H    12    32       P1  7948  1.00
      P1  H  7997  8009       L1    18  0.81
      L1  C     8    31       P1  8028  0.90

> <Gold.PLP.Chemscore.Internal.Correction>
0.0518

> <Gold.Rescore>
     Score         DG    S(hbond)    S(metal)    S(lipo)     H(rot)  DE(clash)    DE(int)     intcor
      9.99     -12.18       1.40        0.00      69.39       2.38       0.34       1.85       ----

> <Gold.Chemscore.Fitness>
9.9871

> <Gold.Chemscore.DG>
-12.1804

> <Gold.Chemscore.ZeroCoef>
-5.4800

> <Gold.Chemscore.Hbond>
1.3998

> <Gold.Chemscore.Metal>
0.0000

> <Gold.Chemscore.Lipo>
69.3869

> <Gold.Chemscore.Internal_Hbond>
0.0000

> <Gold.Chemscore.DEClash>
0.3425

> <Gold.Chemscore.DEInternal>
1.8507

> <Gold.Chemscore.Rot>
2.3802

> <Gold.Chemscore.Internal.Correction>
   9.000000E+99

> <Gold.Chemscore.Hbonds>
donor molecule, donor type, donor heavy atom, donor atom, acceptor molecule, acceptor atom, score
      L1  H    12    32       P1  7948  0.94
      P1  H  7997  8009       L1    18  0.63

> <Gold.Chemscore.Hbond.Weighted>
-4.6754

> <Gold.Chemscore.Metal.Weighted>
-0.0000

> <Gold.Chemscore.Lipo.Weighted>
-8.1183

> <Gold.Chemscore.Internal_Hbond.Weighted>
0.0000

> <Gold.Chemscore.DEClash.Weighted>
0.3425

> <Gold.Chemscore.DEInternal.Weighted>
1.8507

> <Gold.Chemscore.Rot.Weighted>
6.0933

> <Gold.Chemscore.Internal.Correction.Weighted>
   9.000000E+99

> <Gold.Protein.RotatedTorsions>
[ 6907 6896 6895 6894 ] final -155.08 input  -60.11 | X-H torsion
[ 7974 7965 7964 7962 ] final  -31.02 input  175.53 | X-H torsion
[ 8008 7997 7996 7995 ] final -156.36 input   59.86 | X-H torsion
[ 10167 10162 10161 10158 ] final  176.30 input  -65.29 | X-H torsion
[ 10718 10713 10712 10709 ] final   30.42 input   66.30 | X-H torsion
[ 10763 10752 10751 10750 ] final   62.80 input  -60.55 | X-H torsion
[ 11005 11000 10999 10996 ] final   95.56 input  -57.11 | X-H torsion

> <Gold.Protein.ActiveResidues>
 VAL166  LYS551  ARG553  GLY616  TRP617  ASP618  TYR619  PRO620  LYS621  CYS622 
 ASP623  PHE694  ASN695  SER759  ASP760  ASP761  ALA762  ILE779  LEU786  VAL792 
 PHE793  MET794  SER795  GLU796  ALA797  LYS798  CYS799  TRP800  GLU811  SER814 

> <Gold.Protein.RotatedAtoms>
  151.2672  133.4273  159.2619 H   0  0  0  0  0  0  0  0  0  0  0  0  # atno 6907 bound_to 6896
  151.0478  134.9652  159.8205 H   0  0  0  0  0  0  0  0  0  0  0  0  # atno 6908 bound_to 6896
  152.5377  134.2627  159.8994 H   0  0  0  0  0  0  0  0  0  0  0  0  # atno 6909 bound_to 6896
  146.1099  140.5614  142.8782 H   0  0  0  0  0  0  0  0  0  0  0  0  # atno 7974 bound_to 7965
  155.7160  140.0784  157.2351 H   0  0  0  0  0  0  0  0  0  0  0  0  # atno 8008 bound_to 7997
  154.4052  140.1621  156.2403 H   0  0  0  0  0  0  0  0  0  0  0  0  # atno 8009 bound_to 7997
  155.9240  140.3396  155.6198 H   0  0  0  0  0  0  0  0  0  0  0  0  # atno 8010 bound_to 7997
  139.5209  144.2931  152.0446 H   0  0  0  0  0  0  0  0  0  0  0  0  # atno 10167 bound_to 10162
  157.2594  130.7154  149.6446 H   0  0  0  0  0  0  0  0  0  0  0  0  # atno 10718 bound_to 10713
  152.9995  135.5452  154.6251 H   0  0  0  0  0  0  0  0  0  0  0  0  # atno 10763 bound_to 10752
  154.5541  135.2829  155.0983 H   0  0  0  0  0  0  0  0  0  0  0  0  # atno 10764 bound_to 10752
  154.2211  135.6450  153.5197 H   0  0  0  0  0  0  0  0  0  0  0  0  # atno 10765 bound_to 10752
  139.8788  134.8905  156.4029 H   0  0  0  0  0  0  0  0  0  0  0  0  # atno 11005 bound_to 11000
  144.7503  140.5173  143.6807 LP  0  0  0  0  0  0  0  0  0  0  0  0  # atno 17320 bound_to 7965
  145.5685  139.1482  143.3302 LP  0  0  0  0  0  0  0  0  0  0  0  0  # atno 17321 bound_to 7965
  140.2381  144.4298  150.6271 LP  0  0  0  0  0  0  0  0  0  0  0  0  # atno 17342 bound_to 10162
  140.6309  143.2187  151.6497 LP  0  0  0  0  0  0  0  0  0  0  0  0  # atno 17343 bound_to 10162
  155.9664  130.4402  150.5291 LP  0  0  0  0  0  0  0  0  0  0  0  0  # atno 17370 bound_to 10713
  157.3192  131.0678  151.1944 LP  0  0  0  0  0  0  0  0  0  0  0  0  # atno 17371 bound_to 10713
  140.9254  133.7616  155.9958 LP  0  0  0  0  0  0  0  0  0  0  0  0  # atno 17394 bound_to 11000
  140.8391  134.3087  157.5320 LP  0  0  0  0  0  0  0  0  0  0  0  0  # atno 17395 bound_to 11000

$$$$
