AV-unprocessed.smi:48|AV-procd|sdf|460|dock2
  -GOLD-   2262016333D 1   1.00000     0.00000
 Structure written by MMmdl.
 30 32  0  0  0  0  0  0  0  0  1 V2000
  149.0858  141.2805  153.1258 O   0  0  0  0  0  0  0  0  0  0  0  0
  148.2162  141.0642  154.2164 C   0  0  0  0  0  0  0  0  0  0  0  0
  149.0220  140.6802  155.4665 C   0  0  2  0  0  0  0  0  0  0  0  0
  150.0504  141.6447  155.6901 O   0  0  0  0  0  0  0  0  0  0  0  0
  151.1655  141.0489  156.2863 C   0  0  1  0  0  0  0  0  0  0  0  0
  151.4063  141.6772  157.6270 N   0  0  0  0  0  0  0  0  0  0  0  0
  150.7595  142.7402  158.1472 C   0  0  0  0  0  0  0  0  0  0  0  0
  151.1244  143.1508  159.3606 N   0  0  0  0  0  0  0  0  0  0  0  0
  152.1249  142.2441  159.6686 C   0  0  0  0  0  0  0  0  0  0  0  0
  152.9568  142.0848  160.8037 C   0  0  0  0  0  0  0  0  0  0  0  0
  152.8257  143.1465  162.1579 Cl  0  0  0  0  0  0  0  0  0  0  0  0
  153.8627  141.0784  160.8039 N   0  0  0  0  0  0  0  0  0  0  0  0
  153.9437  140.2700  159.7403 C   0  0  0  0  0  0  0  0  0  0  0  0
  153.2318  140.2982  158.6085 N   0  0  0  0  0  0  0  0  0  0  0  0
  152.3184  141.3134  158.6076 C   0  0  0  0  0  0  0  0  0  0  0  0
  150.9067  139.5307  156.3563 C   0  0  1  0  0  0  0  0  0  0  0  0
  150.5122  139.0748  157.6413 O   0  0  0  0  0  0  0  0  0  0  0  0
  149.8091  139.3779  155.3117 C   0  0  1  0  0  0  0  0  0  0  0  0
  149.0175  138.2198  155.4988 O   0  0  0  0  0  0  0  0  0  0  0  0
  148.3773  140.6127  156.3441 H   0  0  0  0  0  0  0  0  0  0  0  0
  152.0508  141.2995  155.7004 H   0  0  0  0  0  0  0  0  0  0  0  0
  151.8107  138.9932  156.0680 H   0  0  0  0  0  0  0  0  0  0  0  0
  150.2632  139.3400  154.3201 H   0  0  0  0  0  0  0  0  0  0  0  0
  149.2122  140.4599  152.6745 H   0  0  0  0  0  0  0  0  0  0  0  0
  147.6743  141.9942  154.3905 H   0  0  0  0  0  0  0  0  0  0  0  0
  147.4782  140.3005  153.9693 H   0  0  0  0  0  0  0  0  0  0  0  0
  149.9755  143.2449  157.6015 H   0  0  0  0  0  0  0  0  0  0  0  0
  154.6860  139.4883  159.8040 H   0  0  0  0  0  0  0  0  0  0  0  0
  150.2921  139.8244  158.1727 H   0  0  0  0  0  0  0  0  0  0  0  0
  148.1073  138.4733  155.4876 H   0  0  0  0  0  0  0  0  0  0  0  0
  1  2  1  0  0  0  0
  1 24  1  0  0  0  0
  2  3  1  0  0  0  0
  2 25  1  0  0  0  0
  2 26  1  0  0  0  0
  3 20  1  0  0  0  0
  3 18  1  0  0  0  0
  3  4  1  0  0  0  0
  4  5  1  0  0  0  0
  5 21  1  0  0  0  0
  5  6  1  0  0  0  0
  5 16  1  0  0  0  0
  6 15  1  0  0  0  0
  6  7  1  0  0  0  0
  7  8  2  0  0  0  0
  7 27  1  0  0  0  0
  8  9  1  0  0  0  0
  9 15  2  0  0  0  0
  9 10  1  0  0  0  0
 10 11  1  0  0  0  0
 10 12  2  0  0  0  0
 12 13  1  0  0  0  0
 13 14  2  0  0  0  0
 13 28  1  0  0  0  0
 14 15  1  0  0  0  0
 16 22  1  0  0  0  0
 16 17  1  0  0  0  0
 16 18  1  0  0  0  0
 17 29  1  0  0  0  0
 18 23  1  0  0  0  0
 18 19  1  0  0  0  0
 19 30  1  0  0  0  0
M  END
> <s_m_source_file>
AV-unprocessed.smi

> <i_m_source_file_index>
48

> <i_lp_mmshare_version>
43012

> <i_f3d_flags>
0

> <s_epik_input>
W09IXVtDSDJdW0NASF0xT1tDQEhdKFtDQEhdKFtPSF0pW0NAQEhdMVtPSF0pbihbY0hdbjIpYyhjMjMpbltjSF1uYzNDbA==

> <s_epik_cmdline>
J2VwaWtfcHl0aG9uJywgJy1waCcsICc3LjAnLCAnLXRuJywgJzgnLCAnLW1hJywgJzIwMCcsICctbWV0YWxfYmluZGluZycsICctaW1hZScsICc8aW5maWxlLm1hZT4nLCAnLW9tYWUnLCAnPG91dGZpbGUubWFlPic=

> <r_lp_tautomer_probability>
1

> <r_epik_Ionization_Penalty>
3.45505e-06

> <r_epik_Ionization_Penalty_Charging>
0

> <r_epik_Ionization_Penalty_Neutral>
3.45505e-06

> <r_epik_State_Penalty>
-0

> <r_epik_Charging_Adjusted_Penalty>
0

> <i_epik_Tot_Q>
0

> <i_epik_Tot_abs_Q>
0

> <r_epik_Metal_State_Penalty>
-0

> <b_epik_Metal_Only>
0

> <s_epik_Chemistry_Notes>
This compound contains an acetal/aminal-like group ( X-CH(R)-Y where X, Y are N, S, or O) that may be acid/base labile, releasing an aldehyde.

> <s_lp_Force_Field>
OPLS_2005

> <r_lp_Energy>
44.1755

> <b_lp_Chiralities_Consistent>
1

> <s_lp_Variant>
AV-unprocessed.smi:48-14

> <Gold.Version>
5.8.1

> <Gold.Id.Protein>
6NUR|6NUR_protein|mol2

> <Gold.PLP.Fitness>
43.0651

> <Gold.PLP.PLP>
-33.5261

> <Gold.PLP.part.hbond>
-3.3914

> <Gold.PLP.part.metal>
0.0000

> <Gold.PLP.part.buried>
-4.3423

> <Gold.PLP.part.nonpolar>
-25.6900

> <Gold.PLP.part.repulsive>
0.1259

> <Gold.PLP.ligand.clash>
0.0000

> <Gold.PLP.ligand.torsion>
0.1058

> <Gold.PLP.Chemscore.Hbond>
2.6393

> <Gold.PLP.Chemscore.CHOScore>
0.6081

> <Gold.PLP.Chemscore.Metal>
0.0000

> <Gold.Chemscore.Hbonds>
donor molecule, donor type, donor heavy atom, donor atom, acceptor molecule, acceptor atom, score
      L1  H     1    24       P1  7957  0.69
      P1  H  7997  8009       L1    14  0.79
      P1  H  8011  8017       L1     1  1.00
      L1  C     7    27       P1  8028  0.68

> <Gold.PLP.Chemscore.Internal.Correction>
0.0086

> <Gold.Rescore>
     Score         DG    S(hbond)    S(metal)    S(lipo)     H(rot)  DE(clash)    DE(int)     intcor
      8.94      -9.55       2.17        0.00      55.91       3.80       0.02       0.59       ----

> <Gold.Chemscore.Fitness>
8.9378

> <Gold.Chemscore.DG>
-9.5477

> <Gold.Chemscore.ZeroCoef>
-5.4800

> <Gold.Chemscore.Hbond>
2.1732

> <Gold.Chemscore.Metal>
0.0000

> <Gold.Chemscore.Lipo>
55.9110

> <Gold.Chemscore.Internal_Hbond>
0.0000

> <Gold.Chemscore.DEClash>
0.0178

> <Gold.Chemscore.DEInternal>
0.5922

> <Gold.Chemscore.Rot>
3.8017

> <Gold.Chemscore.Internal.Correction>
   9.000000E+99

> <Gold.Chemscore.Hbonds>
donor molecule, donor type, donor heavy atom, donor atom, acceptor molecule, acceptor atom, score
      L1  H     1    24       P1  7957  0.67
      P1  H  7997  8009       L1    14  0.33
      P1  H  8011  8017       L1     1  0.65

> <Gold.Chemscore.Hbond.Weighted>
-7.2585

> <Gold.Chemscore.Metal.Weighted>
-0.0000

> <Gold.Chemscore.Lipo.Weighted>
-6.5416

> <Gold.Chemscore.Internal_Hbond.Weighted>
0.0000

> <Gold.Chemscore.DEClash.Weighted>
0.0178

> <Gold.Chemscore.DEInternal.Weighted>
0.5922

> <Gold.Chemscore.Rot.Weighted>
9.7324

> <Gold.Chemscore.Internal.Correction.Weighted>
   9.000000E+99

> <Gold.Protein.RotatedTorsions>
[ 6907 6896 6895 6894 ] final  -30.02 input  -60.11 | X-H torsion
[ 7974 7965 7964 7962 ] final -134.56 input  175.53 | X-H torsion
[ 8008 7997 7996 7995 ] final  149.34 input   59.86 | X-H torsion
[ 10167 10162 10161 10158 ] final   20.81 input  -65.29 | X-H torsion
[ 10718 10713 10712 10709 ] final  124.87 input   66.30 | X-H torsion
[ 10763 10752 10751 10750 ] final  -53.60 input  -60.55 | X-H torsion
[ 11005 11000 10999 10996 ] final   56.24 input  -57.11 | X-H torsion

> <Gold.Protein.ActiveResidues>
 VAL166  LYS551  ARG553  GLY616  TRP617  ASP618  TYR619  PRO620  LYS621  CYS622 
 ASP623  PHE694  ASN695  SER759  ASP760  ASP761  ALA762  ILE779  LEU786  VAL792 
 PHE793  MET794  SER795  GLU796  ALA797  LYS798  CYS799  TRP800  GLU811  SER814 

> <Gold.Protein.RotatedAtoms>
  151.1113  135.0028  159.8494 H   0  0  0  0  0  0  0  0  0  0  0  0  # atno 6907 bound_to 6896
  152.5443  134.1833  159.8654 H   0  0  0  0  0  0  0  0  0  0  0  0  # atno 6908 bound_to 6896
  151.1883  133.4638  159.2628 H   0  0  0  0  0  0  0  0  0  0  0  0  # atno 6909 bound_to 6896
  144.9092  140.6873  143.5036 H   0  0  0  0  0  0  0  0  0  0  0  0  # atno 7974 bound_to 7965
  156.2758  140.2104  156.5842 H   0  0  0  0  0  0  0  0  0  0  0  0  # atno 8008 bound_to 7997
  154.7034  140.0519  157.0503 H   0  0  0  0  0  0  0  0  0  0  0  0  # atno 8009 bound_to 7997
  155.0704  140.3176  155.4635 H   0  0  0  0  0  0  0  0  0  0  0  0  # atno 8010 bound_to 7997
  140.5475  143.9568  150.6557 H   0  0  0  0  0  0  0  0  0  0  0  0  # atno 10167 bound_to 10162
  157.5550  131.1092  150.8638 H   0  0  0  0  0  0  0  0  0  0  0  0  # atno 10718 bound_to 10713
  154.1615  135.6474  153.4987 H   0  0  0  0  0  0  0  0  0  0  0  0  # atno 10763 bound_to 10752
  153.0109  135.5362  154.6706 H   0  0  0  0  0  0  0  0  0  0  0  0  # atno 10764 bound_to 10752
  154.6021  135.2945  155.0496 H   0  0  0  0  0  0  0  0  0  0  0  0  # atno 10765 bound_to 10752
  140.0544  134.5690  155.9225 H   0  0  0  0  0  0  0  0  0  0  0  0  # atno 11005 bound_to 11000
  145.3484  139.1713  143.4448 LP  0  0  0  0  0  0  0  0  0  0  0  0  # atno 17320 bound_to 7965
  146.3149  140.3533  142.8658 LP  0  0  0  0  0  0  0  0  0  0  0  0  # atno 17321 bound_to 7965
  140.2985  143.3276  152.0995 LP  0  0  0  0  0  0  0  0  0  0  0  0  # atno 17342 bound_to 10162
  139.5013  144.6711  151.6239 LP  0  0  0  0  0  0  0  0  0  0  0  0  # atno 17343 bound_to 10162
  156.9152  130.5295  149.5280 LP  0  0  0  0  0  0  0  0  0  0  0  0  # atno 17370 bound_to 10713
  156.0610  130.5663  150.9192 LP  0  0  0  0  0  0  0  0  0  0  0  0  # atno 17371 bound_to 10713
  141.1945  133.6583  156.5600 LP  0  0  0  0  0  0  0  0  0  0  0  0  # atno 17394 bound_to 11000
  140.3866  134.7477  157.4695 LP  0  0  0  0  0  0  0  0  0  0  0  0  # atno 17395 bound_to 11000

$$$$
