AV-unprocessed.smi:3057|AV-procd|sdf|11663|dock2
  -GOLD-   2272017 63D 1   1.00000     0.00000
 Structure written by MMmdl.
 40 42  0  0  0  0  0  0  0  0  1 V2000
  155.1121  134.3409  164.0416 C   0  0  0  0  0  0  0  0  0  0  0  0
  155.8834  135.2791  163.0899 C   0  0  1  0  0  0  0  0  0  0  0  0
  156.6667  134.4826  162.0345 C   0  0  0  0  0  0  0  0  0  0  0  0
  155.6856  134.3623  160.8576 C   0  0  0  0  0  0  0  0  0  0  0  0
  154.7605  135.5510  161.0764 C   0  0  0  0  0  0  0  0  0  0  0  0
  153.9936  135.9763  160.2140 O   0  0  0  0  0  0  0  0  0  0  0  0
  154.9676  136.0759  162.2945 N   0  0  0  0  0  0  0  0  0  0  0  0
  154.6059  137.3989  162.8262 C   0  0  2  0  0  0  0  0  0  0  0  0
  154.8851  138.5648  161.8581 C   0  0  0  0  0  0  0  0  0  0  0  0
  156.0345  138.9655  161.6694 O   0  0  0  0  0  0  0  0  0  0  0  0
  153.8098  139.1246  161.2832 N   0  0  0  0  0  0  0  0  0  0  0  0
  153.8352  140.2569  160.3614 C   0  0  0  0  0  0  0  0  0  0  0  0
  154.1406  141.6048  161.0491 C   0  0  0  0  0  0  0  0  0  0  0  0
  153.3254  142.7693  160.5117 C   0  0  0  0  0  0  0  0  0  0  0  0
  152.9363  143.8271  161.3617 C   0  0  0  0  0  0  0  0  0  0  0  0
  152.1688  144.8760  160.8208 C   0  0  0  0  0  0  0  0  0  0  0  0
  151.8241  144.8291  159.4564 C   0  0  0  0  0  0  0  0  0  0  0  0
  152.2657  143.7313  158.6907 C   0  0  0  0  0  0  0  0  0  0  0  0
  153.0012  142.7193  159.1999 N   0  0  0  0  0  0  0  0  0  0  0  0
  155.3763  137.5638  164.1546 C   0  0  0  0  0  0  0  0  0  0  0  0
  156.8399  136.5037  164.0078 S   0  0  0  0  0  0  0  0  0  0  0  0
  154.4857  133.6380  163.4913 H   0  0  0  0  0  0  0  0  0  0  0  0
  154.4603  134.8923  164.7191 H   0  0  0  0  0  0  0  0  0  0  0  0
  155.8000  133.7571  164.6536 H   0  0  0  0  0  0  0  0  0  0  0  0
  157.5514  135.0363  161.7158 H   0  0  0  0  0  0  0  0  0  0  0  0
  157.0014  133.5113  162.4003 H   0  0  0  0  0  0  0  0  0  0  0  0
  156.1894  134.4104  159.8919 H   0  0  0  0  0  0  0  0  0  0  0  0
  155.1071  133.4395  160.9105 H   0  0  0  0  0  0  0  0  0  0  0  0
  153.5354  137.3873  163.0375 H   0  0  0  0  0  0  0  0  0  0  0  0
  152.9023  138.7403  161.5033 H   0  0  0  0  0  0  0  0  0  0  0  0
  154.5473  140.0702  159.5562 H   0  0  0  0  0  0  0  0  0  0  0  0
  152.8512  140.3082  159.8947 H   0  0  0  0  0  0  0  0  0  0  0  0
  153.9610  141.5169  162.1211 H   0  0  0  0  0  0  0  0  0  0  0  0
  155.2014  141.8364  160.9458 H   0  0  0  0  0  0  0  0  0  0  0  0
  153.2102  143.8305  162.4067 H   0  0  0  0  0  0  0  0  0  0  0  0
  151.8487  145.6995  161.4422 H   0  0  0  0  0  0  0  0  0  0  0  0
  151.2359  145.6154  159.0074 H   0  0  0  0  0  0  0  0  0  0  0  0
  152.0202  143.6640  157.6411 H   0  0  0  0  0  0  0  0  0  0  0  0
  155.6599  138.5936  164.3730 H   0  0  0  0  0  0  0  0  0  0  0  0
  154.7707  137.2108  164.9892 H   0  0  0  0  0  0  0  0  0  0  0  0
  1  2  1  0  0  0  0
  1 22  1  0  0  0  0
  1 23  1  0  0  0  0
  1 24  1  0  0  0  0
  2  7  1  0  0  0  0
  2 21  1  0  0  0  0
  2  3  1  0  0  0  0
  3  4  1  0  0  0  0
  3 25  1  0  0  0  0
  3 26  1  0  0  0  0
  4  5  1  0  0  0  0
  4 27  1  0  0  0  0
  4 28  1  0  0  0  0
  5  6  2  0  0  0  0
  5  7  1  0  0  0  0
  7  8  1  0  0  0  0
  8  9  1  0  0  0  0
  8 20  1  0  0  0  0
  8 29  1  0  0  0  0
  9 10  2  0  0  0  0
  9 11  1  0  0  0  0
 11 12  1  0  0  0  0
 11 30  1  0  0  0  0
 12 13  1  0  0  0  0
 12 31  1  0  0  0  0
 12 32  1  0  0  0  0
 13 14  1  0  0  0  0
 13 33  1  0  0  0  0
 13 34  1  0  0  0  0
 14 19  1  0  0  0  0
 14 15  2  0  0  0  0
 15 16  1  0  0  0  0
 15 35  1  0  0  0  0
 16 17  2  0  0  0  0
 16 36  1  0  0  0  0
 17 18  1  0  0  0  0
 17 37  1  0  0  0  0
 18 19  2  0  0  0  0
 18 38  1  0  0  0  0
 20 21  1  0  0  0  0
 20 39  1  0  0  0  0
 20 40  1  0  0  0  0
M  END
> <s_m_source_file>
AV-unprocessed.smi

> <i_m_source_file_index>
3057

> <i_lp_mmshare_version>
43012

> <i_f3d_flags>
0

> <s_epik_input>
W0NIMl0xW0NIMl1DKD1PKU4oW0NAQF0xMltDSDNdKVtDQEhdKFtDSDJdUzIpQyg9TylbTkhdW0NIMl1bQ0gyXWMzW2NIXVtjSF1bY0hdW2NIXW4z

> <s_epik_cmdline>
J2VwaWtfcHl0aG9uJywgJy1waCcsICc3LjAnLCAnLXRuJywgJzgnLCAnLW1hJywgJzIwMCcsICctbWV0YWxfYmluZGluZycsICctaW1hZScsICc8aW5maWxlLm1hZT4nLCAnLW9tYWUnLCAnPG91dGZpbGUubWFlPic=

> <r_epik_Ionization_Penalty>
0.0249631

> <r_epik_Ionization_Penalty_Charging>
0

> <r_epik_Ionization_Penalty_Neutral>
0.0249631

> <r_epik_State_Penalty>
0.0202943

> <r_epik_Charging_Adjusted_Penalty>
0.0202943

> <i_epik_Tot_Q>
0

> <i_epik_Tot_abs_Q>
0

> <r_epik_Metal_State_Penalty>
0.0194661

> <b_epik_Metal_Only>
0

> <s_lp_Force_Field>
OPLS_2005

> <r_lp_Energy>
26.5663

> <b_lp_Chiralities_Consistent>
1

> <s_lp_Variant>
AV-unprocessed.smi:3057-3

> <Gold.Version>
5.8.1

> <Gold.Id.Protein>
6NUR|6NUR_protein|mol2

> <Gold.PLP.Fitness>
44.8029

> <Gold.PLP.PLP>
-43.8826

> <Gold.PLP.part.hbond>
-0.9740

> <Gold.PLP.part.metal>
0.0000

> <Gold.PLP.part.buried>
-3.7681

> <Gold.PLP.part.nonpolar>
-39.3652

> <Gold.PLP.part.repulsive>
0.0456

> <Gold.PLP.ligand.clash>
0.0000

> <Gold.PLP.ligand.torsion>
1.0444

> <Gold.PLP.Chemscore.Hbond>
1.0000

> <Gold.PLP.Chemscore.CHOScore>
0.0000

> <Gold.PLP.Chemscore.Metal>
0.0000

> <Gold.Chemscore.Hbonds>
donor molecule, donor type, donor heavy atom, donor atom, acceptor molecule, acceptor atom, score
      P1  H  6896  6909       L1     6  1.00

> <Gold.PLP.Chemscore.Internal.Correction>
0.0091

> <Gold.Rescore>
     Score         DG    S(hbond)    S(metal)    S(lipo)     H(rot)  DE(clash)    DE(int)     intcor
     17.55     -18.46       0.99        0.00     116.17       1.53       0.34       0.58       ----

> <Gold.Chemscore.Fitness>
17.5470

> <Gold.Chemscore.DG>
-18.4592

> <Gold.Chemscore.ZeroCoef>
-5.4800

> <Gold.Chemscore.Hbond>
0.9924

> <Gold.Chemscore.Metal>
0.0000

> <Gold.Chemscore.Lipo>
116.1665

> <Gold.Chemscore.Internal_Hbond>
0.0000

> <Gold.Chemscore.DEClash>
0.3371

> <Gold.Chemscore.DEInternal>
0.5751

> <Gold.Chemscore.Rot>
1.5339

> <Gold.Chemscore.Internal.Correction>
   9.000000E+99

> <Gold.Chemscore.Hbonds>
donor molecule, donor type, donor heavy atom, donor atom, acceptor molecule, acceptor atom, score
      P1  H  6896  6909       L1     6  0.70

> <Gold.Chemscore.Hbond.Weighted>
-3.3145

> <Gold.Chemscore.Metal.Weighted>
-0.0000

> <Gold.Chemscore.Lipo.Weighted>
-13.5915

> <Gold.Chemscore.Internal_Hbond.Weighted>
0.0000

> <Gold.Chemscore.DEClash.Weighted>
0.3371

> <Gold.Chemscore.DEInternal.Weighted>
0.5751

> <Gold.Chemscore.Rot.Weighted>
3.9267

> <Gold.Chemscore.Internal.Correction.Weighted>
   9.000000E+99

> <Gold.Protein.RotatedTorsions>
[ 6907 6896 6895 6894 ] final  174.73 input  -60.11 | X-H torsion
[ 7974 7965 7964 7962 ] final   77.96 input  175.53 | X-H torsion
[ 8008 7997 7996 7995 ] final -111.50 input   59.86 | X-H torsion
[ 10167 10162 10161 10158 ] final  -59.97 input  -65.29 | X-H torsion
[ 10718 10713 10712 10709 ] final -168.05 input   66.30 | X-H torsion
[ 10763 10752 10751 10750 ] final  109.96 input  -60.55 | X-H torsion
[ 11005 11000 10999 10996 ] final   27.93 input  -57.11 | X-H torsion

> <Gold.Protein.ActiveResidues>
 VAL166  LYS551  ARG553  GLY616  TRP617  ASP618  TYR619  PRO620  LYS621  CYS622 
 ASP623  PHE694  ASN695  SER759  ASP760  ASP761  ALA762  ILE779  LEU786  VAL792 
 PHE793  MET794  SER795  GLU796  ALA797  LYS798  CYS799  TRP800  GLU811  SER814 

> <Gold.Protein.RotatedAtoms>
  151.7476  133.3325  159.3382 H   0  0  0  0  0  0  0  0  0  0  0  0  # atno 6907 bound_to 6896
  150.7548  134.6221  159.6151 H   0  0  0  0  0  0  0  0  0  0  0  0  # atno 6908 bound_to 6896
  152.3489  134.7034  160.0293 H   0  0  0  0  0  0  0  0  0  0  0  0  # atno 6909 bound_to 6896
  145.6832  139.2530  143.1802 H   0  0  0  0  0  0  0  0  0  0  0  0  # atno 7974 bound_to 7965
  154.9907  140.0395  157.2318 H   0  0  0  0  0  0  0  0  0  0  0  0  # atno 8008 bound_to 7997
  154.7631  140.2788  155.6176 H   0  0  0  0  0  0  0  0  0  0  0  0  # atno 8009 bound_to 7997
  156.2907  140.2624  156.2414 H   0  0  0  0  0  0  0  0  0  0  0  0  # atno 8010 bound_to 7997
  140.6101  143.2385  151.5728 H   0  0  0  0  0  0  0  0  0  0  0  0  # atno 10167 bound_to 10162
  156.6913  130.9160  151.3069 H   0  0  0  0  0  0  0  0  0  0  0  0  # atno 10718 bound_to 10713
  153.4421  135.3763  155.2234 H   0  0  0  0  0  0  0  0  0  0  0  0  # atno 10763 bound_to 10752
  154.8754  135.3865  154.4140 H   0  0  0  0  0  0  0  0  0  0  0  0  # atno 10764 bound_to 10752
  153.4687  135.7087  153.6070 H   0  0  0  0  0  0  0  0  0  0  0  0  # atno 10765 bound_to 10752
  140.3211  134.2543  155.7717 H   0  0  0  0  0  0  0  0  0  0  0  0  # atno 11005 bound_to 11000
  146.0946  140.7616  142.9579 LP  0  0  0  0  0  0  0  0  0  0  0  0  # atno 17320 bound_to 7965
  144.7019  140.3691  143.7149 LP  0  0  0  0  0  0  0  0  0  0  0  0  # atno 17321 bound_to 7965
  139.5355  144.2794  152.1241 LP  0  0  0  0  0  0  0  0  0  0  0  0  # atno 17342 bound_to 10162
  140.1991  144.4675  150.6440 LP  0  0  0  0  0  0  0  0  0  0  0  0  # atno 17343 bound_to 10162
  157.7008  130.9330  150.0779 LP  0  0  0  0  0  0  0  0  0  0  0  0  # atno 17370 bound_to 10713
  156.1795  130.3649  149.9054 LP  0  0  0  0  0  0  0  0  0  0  0  0  # atno 17371 bound_to 10713
  141.2086  133.7772  157.0047 LP  0  0  0  0  0  0  0  0  0  0  0  0  # atno 17394 bound_to 11000
  140.0941  134.9575  157.1822 LP  0  0  0  0  0  0  0  0  0  0  0  0  # atno 17395 bound_to 11000

$$$$
