AV-unprocessed.smi:2177|AV-procd|sdf|8851|dock1
  -GOLD-   2272012 43D 1   1.00000     0.00000
 Structure written by MMmdl.
 42 43  0  0  0  0  0  0  0  0  1 V2000
  152.4130  137.9708  154.2603 C   0  0  0  0  0  0  0  0  0  0  0  0
  151.6699  139.2125  154.6628 C   0  0  0  0  0  0  0  0  0  0  0  0
  150.7102  139.6765  153.8802 N   0  0  0  0  0  0  0  0  0  0  0  0
  150.2650  140.7866  154.5024 N   0  0  0  0  0  0  0  0  0  0  0  0
  149.1961  141.5595  153.9007 C   0  0  0  0  0  0  0  0  0  0  0  0
  150.9432  141.0229  155.6819 C   0  0  0  0  0  0  0  0  0  0  0  0
  150.6420  142.1999  156.5523 C   0  0  0  0  0  0  0  0  0  0  0  0
  151.8684  140.0227  155.8198 C   0  0  0  0  0  0  0  0  0  0  0  0
  152.8871  139.8257  156.9165 C   0  0  0  0  0  0  0  0  0  0  0  0
  152.3332  140.3773  158.2309 C   0  0  0  0  0  0  0  0  0  0  0  0
  151.1850  140.1059  158.5799 O   0  0  0  0  0  0  0  0  0  0  0  0
  153.1580  141.1699  158.9326 N   0  0  0  0  0  0  0  0  0  0  0  0
  152.8040  141.9433  160.1179 C   0  0  1  0  0  0  0  0  0  0  0  0
  153.7357  141.5683  161.2797 C   0  0  0  0  0  0  0  0  0  0  0  0
  152.8695  143.4447  159.7790 C   0  0  1  0  0  0  0  0  0  0  0  0
  152.4328  143.7984  158.3541 C   0  0  0  0  0  0  0  0  0  0  0  0
  151.9476  145.2353  158.4698 C   0  0  0  0  0  0  0  0  0  0  0  0
  151.8314  145.4718  159.9783 C   0  0  0  0  0  0  0  0  0  0  0  0
  151.9487  144.1838  160.5654 O   0  0  0  0  0  0  0  0  0  0  0  0
  153.4492  138.2019  154.0124 H   0  0  0  0  0  0  0  0  0  0  0  0
  151.9627  137.4933  153.3895 H   0  0  0  0  0  0  0  0  0  0  0  0
  152.4196  137.2409  155.0695 H   0  0  0  0  0  0  0  0  0  0  0  0
  148.3046  141.4981  154.5251 H   0  0  0  0  0  0  0  0  0  0  0  0
  148.9583  141.1799  152.9058 H   0  0  0  0  0  0  0  0  0  0  0  0
  149.5006  142.6029  153.8145 H   0  0  0  0  0  0  0  0  0  0  0  0
  151.2231  142.1697  157.4739 H   0  0  0  0  0  0  0  0  0  0  0  0
  149.5866  142.2231  156.8240 H   0  0  0  0  0  0  0  0  0  0  0  0
  150.8812  143.1306  156.0377 H   0  0  0  0  0  0  0  0  0  0  0  0
  153.1353  138.7712  157.0425 H   0  0  0  0  0  0  0  0  0  0  0  0
  153.8255  140.3332  156.6916 H   0  0  0  0  0  0  0  0  0  0  0  0
  154.0852  141.3186  158.5618 H   0  0  0  0  0  0  0  0  0  0  0  0
  151.7783  141.7118  160.4111 H   0  0  0  0  0  0  0  0  0  0  0  0
  153.4799  142.1234  162.1824 H   0  0  0  0  0  0  0  0  0  0  0  0
  154.7774  141.7845  161.0400 H   0  0  0  0  0  0  0  0  0  0  0  0
  153.6604  140.5062  161.5157 H   0  0  0  0  0  0  0  0  0  0  0  0
  153.8752  143.8307  159.9587 H   0  0  0  0  0  0  0  0  0  0  0  0
  153.2368  143.6807  157.6267 H   0  0  0  0  0  0  0  0  0  0  0  0
  151.6054  143.1589  158.0425 H   0  0  0  0  0  0  0  0  0  0  0  0
  152.6530  145.9361  158.0219 H   0  0  0  0  0  0  0  0  0  0  0  0
  150.9870  145.3597  157.9685 H   0  0  0  0  0  0  0  0  0  0  0  0
  152.6495  146.1013  160.3311 H   0  0  0  0  0  0  0  0  0  0  0  0
  150.8911  145.9479  160.2574 H   0  0  0  0  0  0  0  0  0  0  0  0
  1  2  1  0  0  0  0
  1 20  1  0  0  0  0
  1 21  1  0  0  0  0
  1 22  1  0  0  0  0
  2  8  1  0  0  0  0
  2  3  2  0  0  0  0
  3  4  1  0  0  0  0
  4  5  1  0  0  0  0
  4  6  1  0  0  0  0
  5 23  1  0  0  0  0
  5 24  1  0  0  0  0
  5 25  1  0  0  0  0
  6  7  1  0  0  0  0
  6  8  2  0  0  0  0
  7 26  1  0  0  0  0
  7 27  1  0  0  0  0
  7 28  1  0  0  0  0
  8  9  1  0  0  0  0
  9 10  1  0  0  0  0
  9 29  1  0  0  0  0
  9 30  1  0  0  0  0
 10 11  2  0  0  0  0
 10 12  1  0  0  0  0
 12 13  1  0  0  0  0
 12 31  1  0  0  0  0
 13 14  1  0  0  0  0
 13 15  1  0  0  0  0
 13 32  1  0  0  0  0
 14 33  1  0  0  0  0
 14 34  1  0  0  0  0
 14 35  1  0  0  0  0
 15 19  1  0  0  0  0
 15 16  1  0  0  0  0
 15 36  1  0  0  0  0
 16 17  1  0  0  0  0
 16 37  1  0  0  0  0
 16 38  1  0  0  0  0
 17 18  1  0  0  0  0
 17 39  1  0  0  0  0
 17 40  1  0  0  0  0
 18 19  1  0  0  0  0
 18 41  1  0  0  0  0
 18 42  1  0  0  0  0
M  END
> <s_m_source_file>
AV-unprocessed.smi

> <i_m_source_file_index>
2177

> <i_lp_mmshare_version>
43012

> <i_f3d_flags>
0

> <s_epik_input>
W0NIM11jMW5uKFtDSDNdKWMoW0NIM10pYzFbQ0gyXUMoPU8pW05IXVtDQEhdKFtDSDNdKVtDQEBIXTJbQ0gyXVtDSDJdW0NIMl1PMg==

> <s_epik_cmdline>
J2VwaWtfcHl0aG9uJywgJy1waCcsICc3LjAnLCAnLXRuJywgJzgnLCAnLW1hJywgJzIwMCcsICctbWV0YWxfYmluZGluZycsICctaW1hZScsICc8aW5maWxlLm1hZT4nLCAnLW9tYWUnLCAnPG91dGZpbGUubWFlPic=

> <r_lp_tautomer_probability>
1

> <r_epik_Ionization_Penalty>
0.00310467

> <r_epik_Ionization_Penalty_Charging>
0

> <r_epik_Ionization_Penalty_Neutral>
0.00310467

> <r_epik_State_Penalty>
0.00218493

> <r_epik_Charging_Adjusted_Penalty>
0.00218493

> <i_epik_Tot_Q>
0

> <i_epik_Tot_abs_Q>
0

> <r_epik_Metal_State_Penalty>
-0

> <b_epik_Metal_Only>
0

> <s_lp_Force_Field>
OPLS_2005

> <r_lp_Energy>
11.3681

> <b_lp_Chiralities_Consistent>
1

> <s_lp_Variant>
AV-unprocessed.smi:2177-4

> <Gold.Version>
5.8.1

> <Gold.Id.Protein>
6NUR|6NUR_protein|mol2

> <Gold.PLP.Fitness>
44.0544

> <Gold.PLP.PLP>
-46.3274

> <Gold.PLP.part.hbond>
-0.8126

> <Gold.PLP.part.metal>
0.0000

> <Gold.PLP.part.buried>
-0.7785

> <Gold.PLP.part.nonpolar>
-43.8139

> <Gold.PLP.part.repulsive>
0.8898

> <Gold.PLP.ligand.clash>
0.0007

> <Gold.PLP.ligand.torsion>
1.1601

> <Gold.PLP.Chemscore.Hbond>
0.0000

> <Gold.PLP.Chemscore.CHOScore>
0.0000

> <Gold.PLP.Chemscore.Metal>
0.0000

> <Gold.PLP.Chemscore.Internal.Correction>
0.0480

> <Gold.Rescore>
     Score         DG    S(hbond)    S(metal)    S(lipo)     H(rot)  DE(clash)    DE(int)     intcor
     14.17     -15.53       0.00        0.00     117.88       1.46       0.28       1.07       ----

> <Gold.Chemscore.Fitness>
14.1745

> <Gold.Chemscore.DG>
-15.5276

> <Gold.Chemscore.ZeroCoef>
-5.4800

> <Gold.Chemscore.Hbond>
0.0000

> <Gold.Chemscore.Metal>
0.0000

> <Gold.Chemscore.Lipo>
117.8809

> <Gold.Chemscore.Internal_Hbond>
0.0000

> <Gold.Chemscore.DEClash>
0.2799

> <Gold.Chemscore.DEInternal>
1.0732

> <Gold.Chemscore.Rot>
1.4627

> <Gold.Chemscore.Internal.Correction>
   9.000000E+99

> <Gold.Chemscore.Hbond.Weighted>
-0.0000

> <Gold.Chemscore.Metal.Weighted>
-0.0000

> <Gold.Chemscore.Lipo.Weighted>
-13.7921

> <Gold.Chemscore.Internal_Hbond.Weighted>
0.0000

> <Gold.Chemscore.DEClash.Weighted>
0.2799

> <Gold.Chemscore.DEInternal.Weighted>
1.0732

> <Gold.Chemscore.Rot.Weighted>
3.7445

> <Gold.Chemscore.Internal.Correction.Weighted>
   9.000000E+99

> <Gold.Protein.RotatedTorsions>
[ 6907 6896 6895 6894 ] final -127.94 input  -60.11 | X-H torsion
[ 7974 7965 7964 7962 ] final   40.23 input  175.53 | X-H torsion
[ 8008 7997 7996 7995 ] final  -44.68 input   59.86 | X-H torsion
[ 10167 10162 10161 10158 ] final    1.01 input  -65.29 | X-H torsion
[ 10718 10713 10712 10709 ] final   56.20 input   66.30 | X-H torsion
[ 10763 10752 10751 10750 ] final  145.89 input  -60.55 | X-H torsion
[ 11005 11000 10999 10996 ] final  131.91 input  -57.11 | X-H torsion

> <Gold.Protein.ActiveResidues>
 VAL166  LYS551  ARG553  GLY616  TRP617  ASP618  TYR619  PRO620  LYS621  CYS622 
 ASP623  PHE694  ASN695  SER759  ASP760  ASP761  ALA762  ILE779  LEU786  VAL792 
 PHE793  MET794  SER795  GLU796  ALA797  LYS798  CYS799  TRP800  GLU811  SER814 

> <Gold.Protein.RotatedAtoms>
  150.9126  133.6978  159.2850 H   0  0  0  0  0  0  0  0  0  0  0  0  # atno 6907 bound_to 6896
  151.4460  135.1024  159.9693 H   0  0  0  0  0  0  0  0  0  0  0  0  # atno 6908 bound_to 6896
  152.4938  133.8523  159.7263 H   0  0  0  0  0  0  0  0  0  0  0  0  # atno 6909 bound_to 6896
  146.0922  139.5558  142.9468 H   0  0  0  0  0  0  0  0  0  0  0  0  # atno 7974 bound_to 7965
  154.3998  140.1416  156.3723 H   0  0  0  0  0  0  0  0  0  0  0  0  # atno 8008 bound_to 7997
  155.8081  140.3473  155.5421 H   0  0  0  0  0  0  0  0  0  0  0  0  # atno 8009 bound_to 7997
  155.8415  140.0927  157.1722 H   0  0  0  0  0  0  0  0  0  0  0  0  # atno 8010 bound_to 7997
  140.6703  143.7068  150.7909 H   0  0  0  0  0  0  0  0  0  0  0  0  # atno 10167 bound_to 10162
  157.5410  130.8697  149.8822 H   0  0  0  0  0  0  0  0  0  0  0  0  # atno 10718 bound_to 10713
  154.0129  135.2913  155.3390 H   0  0  0  0  0  0  0  0  0  0  0  0  # atno 10763 bound_to 10752
  154.7092  135.5156  153.8644 H   0  0  0  0  0  0  0  0  0  0  0  0  # atno 10764 bound_to 10752
  153.0715  135.6649  154.0359 H   0  0  0  0  0  0  0  0  0  0  0  0  # atno 10765 bound_to 10752
  139.9758  134.9564  156.9506 H   0  0  0  0  0  0  0  0  0  0  0  0  # atno 11005 bound_to 11000
  145.6018  141.0354  143.2014 LP  0  0  0  0  0  0  0  0  0  0  0  0  # atno 17320 bound_to 7965
  144.7368  139.7562  143.7326 LP  0  0  0  0  0  0  0  0  0  0  0  0  # atno 17321 bound_to 7965
  140.0752  143.5022  152.2559 LP  0  0  0  0  0  0  0  0  0  0  0  0  # atno 17342 bound_to 10162
  139.5968  144.7569  151.3267 LP  0  0  0  0  0  0  0  0  0  0  0  0  # atno 17343 bound_to 10162
  156.0497  130.3720  150.1231 LP  0  0  0  0  0  0  0  0  0  0  0  0  # atno 17370 bound_to 10713
  156.9411  130.9744  151.3516 LP  0  0  0  0  0  0  0  0  0  0  0  0  # atno 17371 bound_to 10713
  140.5197  134.0919  155.7289 LP  0  0  0  0  0  0  0  0  0  0  0  0  # atno 17394 bound_to 11000
  141.1435  133.9096  157.2270 LP  0  0  0  0  0  0  0  0  0  0  0  0  # atno 17395 bound_to 11000

$$$$
