AV-unprocessed.smi:167|AV-procd|sdf|1394|dock6
  -GOLD-   2262019133D 1   1.00000     0.00000
 Structure written by MMmdl.
 51 55  0  0  0  0  0  0  0  0  1 V2000
  151.1175  139.3414  154.3636 O   0  0  0  0  0  0  0  0  0  0  0  0
  150.0962  139.8239  155.2103 C   0  0  0  0  0  0  0  0  0  0  0  0
  148.7144  139.4539  154.6406 C   0  0  2  0  0  0  0  0  0  0  0  0
  148.4403  139.9762  153.2182 C   0  0  0  0  0  0  0  0  0  0  0  0
  147.0542  140.6344  153.3944 C   0  0  2  0  0  0  0  0  0  0  0  0
  147.2365  141.9835  154.1083 C   0  0  0  0  0  0  0  0  0  0  0  0
  147.5100  141.5227  155.5471 C   0  0  0  0  0  0  0  0  0  0  0  0
  147.4686  139.9897  155.3921 C   0  0  1  0  0  0  0  0  0  0  0  0
  146.3998  139.8271  154.4168 N   0  0  0  0  0  0  0  0  0  0  0  0
  145.9103  138.5923  154.1137 C   0  0  0  0  0  0  0  0  0  0  0  0
  145.3379  137.8565  155.1039 N   0  0  0  0  0  0  0  0  0  0  0  0
  144.8415  136.6430  154.8499 C   0  0  0  0  0  0  0  0  0  0  0  0
  144.8207  135.9760  153.6957 N   0  0  0  0  0  0  0  0  0  0  0  0
  145.4115  136.6957  152.7000 C   0  0  0  0  0  0  0  0  0  0  0  0
  145.9764  137.9987  152.8184 C   0  0  0  0  0  0  0  0  0  0  0  0
  146.4812  138.3978  151.5859 N   0  0  0  0  0  0  0  0  0  0  0  0
  146.2138  137.4026  150.7861 C   0  0  0  0  0  0  0  0  0  0  0  0
  145.5943  136.3267  151.3792 N   0  0  0  0  0  0  0  0  0  0  0  0
  145.1582  135.1180  150.7433 C   0  0  0  0  0  0  0  0  0  0  0  0
  144.2764  134.1145  151.4918 C   0  0  0  0  0  0  0  0  0  0  0  0
  144.9407  132.9615  150.7031 C   0  0  0  0  0  0  0  0  0  0  0  0
  145.2541  131.6642  151.4747 C   0  0  0  0  0  0  0  0  0  0  0  0
  146.1844  130.8410  150.8002 O   0  0  0  0  0  0  0  0  0  0  0  0
  144.2263  132.5531  149.4006 C   0  0  0  0  0  0  0  0  0  0  0  0
  142.9201  132.0763  149.6526 O   0  0  0  0  0  0  0  0  0  0  0  0
  146.1153  133.9461  150.4974 C   0  0  0  0  0  0  0  0  0  0  0  0
  151.8627  139.1063  154.8951 H   0  0  0  0  0  0  0  0  0  0  0  0
  150.2416  139.4390  156.2187 H   0  0  0  0  0  0  0  0  0  0  0  0
  150.1900  140.9081  155.2766 H   0  0  0  0  0  0  0  0  0  0  0  0
  148.6521  138.3643  154.6184 H   0  0  0  0  0  0  0  0  0  0  0  0
  149.1921  140.6828  152.8642 H   0  0  0  0  0  0  0  0  0  0  0  0
  148.3999  139.1492  152.5081 H   0  0  0  0  0  0  0  0  0  0  0  0
  146.5003  140.7340  152.4600 H   0  0  0  0  0  0  0  0  0  0  0  0
  148.0495  142.5775  153.6894 H   0  0  0  0  0  0  0  0  0  0  0  0
  146.3226  142.5772  154.0632 H   0  0  0  0  0  0  0  0  0  0  0  0
  148.4444  141.9046  155.9551 H   0  0  0  0  0  0  0  0  0  0  0  0
  146.7076  141.8575  156.2058 H   0  0  0  0  0  0  0  0  0  0  0  0
  147.3053  139.4984  156.3492 H   0  0  0  0  0  0  0  0  0  0  0  0
  144.3995  136.1326  155.6930 H   0  0  0  0  0  0  0  0  0  0  0  0
  146.4710  137.4275  149.7371 H   0  0  0  0  0  0  0  0  0  0  0  0
  144.6808  135.4268  149.8119 H   0  0  0  0  0  0  0  0  0  0  0  0
  144.4928  134.0952  152.5612 H   0  0  0  0  0  0  0  0  0  0  0  0
  143.2076  134.2415  151.3179 H   0  0  0  0  0  0  0  0  0  0  0  0
  145.6664  131.8832  152.4599 H   0  0  0  0  0  0  0  0  0  0  0  0
  144.3475  131.0801  151.6363 H   0  0  0  0  0  0  0  0  0  0  0  0
  147.0374  131.2440  150.8558 H   0  0  0  0  0  0  0  0  0  0  0  0
  144.1464  133.3928  148.7100 H   0  0  0  0  0  0  0  0  0  0  0  0
  144.7849  131.7786  148.8737 H   0  0  0  0  0  0  0  0  0  0  0  0
  142.3314  132.8154  149.6798 H   0  0  0  0  0  0  0  0  0  0  0  0
  146.5576  133.9302  149.5008 H   0  0  0  0  0  0  0  0  0  0  0  0
  146.8884  133.8728  151.2638 H   0  0  0  0  0  0  0  0  0  0  0  0
  1  2  1  0  0  0  0
  1 27  1  0  0  0  0
  2  3  1  0  0  0  0
  2 28  1  0  0  0  0
  2 29  1  0  0  0  0
  3  8  1  0  0  0  0
  3  4  1  0  0  0  0
  3 30  1  0  0  0  0
  4  5  1  0  0  0  0
  4 31  1  0  0  0  0
  4 32  1  0  0  0  0
  5  9  1  0  0  0  0
  5  6  1  0  0  0  0
  5 33  1  0  0  0  0
  6  7  1  0  0  0  0
  6 34  1  0  0  0  0
  6 35  1  0  0  0  0
  7  8  1  0  0  0  0
  7 36  1  0  0  0  0
  7 37  1  0  0  0  0
  8  9  1  0  0  0  0
  8 38  1  0  0  0  0
  9 10  1  0  0  0  0
 10 15  1  0  0  0  0
 10 11  2  0  0  0  0
 11 12  1  0  0  0  0
 12 13  2  0  0  0  0
 12 39  1  0  0  0  0
 13 14  1  0  0  0  0
 14 18  1  0  0  0  0
 14 15  2  0  0  0  0
 15 16  1  0  0  0  0
 16 17  2  0  0  0  0
 17 18  1  0  0  0  0
 17 40  1  0  0  0  0
 18 19  1  0  0  0  0
 19 26  1  0  0  0  0
 19 20  1  0  0  0  0
 19 41  1  0  0  0  0
 20 21  1  0  0  0  0
 20 42  1  0  0  0  0
 20 43  1  0  0  0  0
 21 22  1  0  0  0  0
 21 24  1  0  0  0  0
 21 26  1  0  0  0  0
 22 23  1  0  0  0  0
 22 44  1  0  0  0  0
 22 45  1  0  0  0  0
 23 46  1  0  0  0  0
 24 25  1  0  0  0  0
 24 47  1  0  0  0  0
 24 48  1  0  0  0  0
 25 49  1  0  0  0  0
 26 50  1  0  0  0  0
 26 51  1  0  0  0  0
M  END
> <s_m_source_file>
AV-unprocessed.smi

> <i_m_source_file_index>
167

> <i_lp_mmshare_version>
43012

> <i_f3d_flags>
0

> <s_epik_input>
W09IXVtDSDJdW0NASF0oW0NIMl1bQ0BASF0xMilbQ0BIXShbQ0gyXVtDSDJdMSlOMmMobltjSF1uMyljKGMzNCluW2NIXW40W0NIXShbQ0gyXTUpW0NIMl1DNShbQ0gyXVtPSF0pW0NIMl1bT0hd

> <s_epik_cmdline>
J2VwaWtfcHl0aG9uJywgJy1waCcsICc3LjAnLCAnLXRuJywgJzgnLCAnLW1hJywgJzIwMCcsICctbWV0YWxfYmluZGluZycsICctaW1hZScsICc8aW5maWxlLm1hZT4nLCAnLW9tYWUnLCAnPG91dGZpbGUubWFlPic=

> <r_lp_tautomer_probability>
1

> <r_epik_Ionization_Penalty>
0.0047903

> <r_epik_Ionization_Penalty_Charging>
0

> <r_epik_Ionization_Penalty_Neutral>
0.0047903

> <r_epik_State_Penalty>
0.00341021

> <r_epik_Charging_Adjusted_Penalty>
0.00341021

> <i_epik_Tot_Q>
0

> <i_epik_Tot_abs_Q>
0

> <r_epik_Metal_State_Penalty>
-0

> <b_epik_Metal_Only>
0

> <s_lp_Force_Field>
OPLS_2005

> <r_lp_Energy>
89.3367

> <b_lp_Chiralities_Consistent>
1

> <s_lp_Variant>
AV-unprocessed.smi:167-3

> <Gold.Version>
5.8.1

> <Gold.Id.Protein>
6NUR|6NUR_protein|mol2

> <Gold.PLP.Fitness>
46.4042

> <Gold.PLP.PLP>
-37.5701

> <Gold.PLP.part.hbond>
-4.6150

> <Gold.PLP.part.metal>
0.0000

> <Gold.PLP.part.buried>
3.2568

> <Gold.PLP.part.nonpolar>
-36.0340

> <Gold.PLP.part.repulsive>
0.5433

> <Gold.PLP.ligand.clash>
0.0000

> <Gold.PLP.ligand.torsion>
0.6013

> <Gold.PLP.Chemscore.Hbond>
3.1866

> <Gold.PLP.Chemscore.CHOScore>
0.0000

> <Gold.PLP.Chemscore.Metal>
0.0000

> <Gold.Chemscore.Hbonds>
donor molecule, donor type, donor heavy atom, donor atom, acceptor molecule, acceptor atom, score
      L1  H    23    46       P1 10747  0.71
      L1  H    25    49       P1 10186  0.88
      P1  H  7989  7998       L1     1  1.00
      P1  H 10785 10796       L1    25  0.55

> <Gold.PLP.Chemscore.Internal.Correction>
0.4770

> <Gold.Rescore>
     Score         DG    S(hbond)    S(metal)    S(lipo)     H(rot)  DE(clash)    DE(int)     intcor
      6.29     -13.05       2.54        0.00      84.10       4.20       3.06       3.70       ----

> <Gold.Chemscore.Fitness>
6.2936

> <Gold.Chemscore.DG>
-13.0514

> <Gold.Chemscore.ZeroCoef>
-5.4800

> <Gold.Chemscore.Hbond>
2.5430

> <Gold.Chemscore.Metal>
0.0000

> <Gold.Chemscore.Lipo>
84.0982

> <Gold.Chemscore.Internal_Hbond>
0.0000

> <Gold.Chemscore.DEClash>
3.0551

> <Gold.Chemscore.DEInternal>
3.7028

> <Gold.Chemscore.Rot>
4.2038

> <Gold.Chemscore.Internal.Correction>
   9.000000E+99

> <Gold.Chemscore.Hbonds>
donor molecule, donor type, donor heavy atom, donor atom, acceptor molecule, acceptor atom, score
      L1  H    23    46       P1 10747  0.67
      L1  H    25    49       P1 10186  0.86
      P1  H  7989  7998       L1     1  0.18
      P1  H 10785 10796       L1    25  0.08

> <Gold.Chemscore.Hbond.Weighted>
-8.4936

> <Gold.Chemscore.Metal.Weighted>
-0.0000

> <Gold.Chemscore.Lipo.Weighted>
-9.8395

> <Gold.Chemscore.Internal_Hbond.Weighted>
0.0000

> <Gold.Chemscore.DEClash.Weighted>
3.0551

> <Gold.Chemscore.DEInternal.Weighted>
3.7028

> <Gold.Chemscore.Rot.Weighted>
10.7617

> <Gold.Chemscore.Internal.Correction.Weighted>
   9.000000E+99

> <Gold.Protein.RotatedTorsions>
[ 6907 6896 6895 6894 ] final -179.58 input  -60.11 | X-H torsion
[ 7974 7965 7964 7962 ] final   63.69 input  175.53 | X-H torsion
[ 8008 7997 7996 7995 ] final   -0.84 input   59.86 | X-H torsion
[ 10167 10162 10161 10158 ] final   93.14 input  -65.29 | X-H torsion
[ 10718 10713 10712 10709 ] final   94.88 input   66.30 | X-H torsion
[ 10763 10752 10751 10750 ] final -107.98 input  -60.55 | X-H torsion
[ 11005 11000 10999 10996 ] final -106.42 input  -57.11 | X-H torsion

> <Gold.Protein.ActiveResidues>
 VAL166  LYS551  ARG553  GLY616  TRP617  ASP618  TYR619  PRO620  LYS621  CYS622 
 ASP623  PHE694  ASN695  SER759  ASP760  ASP761  ALA762  ILE779  LEU786  VAL792 
 PHE793  MET794  SER795  GLU796  ALA797  LYS798  CYS799  TRP800  GLU811  SER814 

> <Gold.Protein.RotatedAtoms>
  151.6558  133.3319  159.3162 H   0  0  0  0  0  0  0  0  0  0  0  0  # atno 6907 bound_to 6896
  150.7938  134.6985  159.6546 H   0  0  0  0  0  0  0  0  0  0  0  0  # atno 6908 bound_to 6896
  152.4022  134.6272  160.0117 H   0  0  0  0  0  0  0  0  0  0  0  0  # atno 6909 bound_to 6896
  145.8589  139.3302  143.0830 H   0  0  0  0  0  0  0  0  0  0  0  0  # atno 7974 bound_to 7965
  154.6535  140.2574  155.7187 H   0  0  0  0  0  0  0  0  0  0  0  0  # atno 8008 bound_to 7997
  156.2586  140.2863  156.0900 H   0  0  0  0  0  0  0  0  0  0  0  0  # atno 8009 bound_to 7997
  155.1414  140.0380  157.2790 H   0  0  0  0  0  0  0  0  0  0  0  0  # atno 8010 bound_to 7997
  139.8208  144.6732  150.9521 H   0  0  0  0  0  0  0  0  0  0  0  0  # atno 10167 bound_to 10162
  157.6944  131.0527  150.4254 H   0  0  0  0  0  0  0  0  0  0  0  0  # atno 10718 bound_to 10713
  154.8108  135.4655  154.0511 H   0  0  0  0  0  0  0  0  0  0  0  0  # atno 10763 bound_to 10752
  153.1944  135.6860  153.8318 H   0  0  0  0  0  0  0  0  0  0  0  0  # atno 10764 bound_to 10752
  153.7825  135.3254  155.3345 H   0  0  0  0  0  0  0  0  0  0  0  0  # atno 10765 bound_to 10752
  141.1005  133.8892  157.1853 H   0  0  0  0  0  0  0  0  0  0  0  0  # atno 11005 bound_to 11000
  145.9271  140.9075  143.0375 LP  0  0  0  0  0  0  0  0  0  0  0  0  # atno 17320 bound_to 7965
  144.6727  140.1367  143.7440 LP  0  0  0  0  0  0  0  0  0  0  0  0  # atno 17321 bound_to 7965
  140.7813  143.4093  151.1019 LP  0  0  0  0  0  0  0  0  0  0  0  0  # atno 17342 bound_to 10162
  139.7754  143.8433  152.3128 LP  0  0  0  0  0  0  0  0  0  0  0  0  # atno 17343 bound_to 10162
  156.4625  130.4035  149.6567 LP  0  0  0  0  0  0  0  0  0  0  0  0  # atno 17370 bound_to 10713
  156.3677  130.7514  151.2494 LP  0  0  0  0  0  0  0  0  0  0  0  0  # atno 17371 bound_to 10713
  139.9856  135.0083  156.9853 LP  0  0  0  0  0  0  0  0  0  0  0  0  # atno 17394 bound_to 11000
  140.5033  134.1076  155.7255 LP  0  0  0  0  0  0  0  0  0  0  0  0  # atno 17395 bound_to 11000

$$$$
