AV-unprocessed.smi:855|AV-procd|sdf|3956|dock7
  -GOLD-   22720 1423D 1   1.00000     0.00000
 Structure written by MMmdl.
 36 37  0  0  0  0  0  0  0  0  2 V2000
  153.7324  137.2775  157.3806 C   0  0  0  0  0  0  0  0  0  0  0  0
  152.8501  137.8581  156.3290 C   0  0  0  0  0  0  0  0  0  0  0  0
  151.8225  137.3437  155.5893 C   0  0  0  0  0  0  0  0  0  0  0  0
  151.4293  138.4431  154.7807 C   0  0  0  0  0  0  0  0  0  0  0  0
  150.3643  138.3202  153.8519 N   0  0  0  0  0  0  0  0  0  0  0  0
  149.1597  138.9140  153.9055 C   0  0  0  0  0  0  0  0  0  0  0  0
  148.7845  139.6824  154.7916 O   0  0  0  0  0  0  0  0  0  0  0  0
  148.3939  138.5645  152.8616 N   0  0  0  0  0  0  0  0  0  0  0  0
  147.0396  139.0501  152.6234 C   0  0  0  0  0  0  0  0  0  0  0  0
  146.5279  138.6514  151.2263 C   0  0  0  0  0  0  0  0  0  0  0  0
  146.1485  137.2210  151.1646 N   0  3  0  0  0  0  0  0  0  0  0  0
  145.1405  136.7885  152.1632 C   0  0  0  0  0  0  0  0  0  0  0  0
  144.1549  135.8659  151.4329 C   0  0  0  0  0  0  0  0  0  0  0  0
  144.8468  135.5273  150.1165 C   0  0  0  0  0  0  0  0  0  0  0  0
  145.6756  136.7768  149.8381 C   0  0  0  0  0  0  0  0  0  0  0  0
  152.1527  139.5294  155.0043 N   0  0  0  0  0  0  0  0  0  0  0  0
  153.0678  139.1597  155.9970 O   0  0  0  0  0  0  0  0  0  0  0  0
  153.2577  136.4184  157.8550 H   0  0  0  0  0  0  0  0  0  0  0  0
  153.9498  138.0125  158.1558 H   0  0  0  0  0  0  0  0  0  0  0  0
  154.6784  136.9478  156.9513 H   0  0  0  0  0  0  0  0  0  0  0  0
  151.4191  136.3426  155.6251 H   0  0  0  0  0  0  0  0  0  0  0  0
  150.5388  137.7134  153.0646 H   0  0  0  0  0  0  0  0  0  0  0  0
  148.7798  137.9295  152.1777 H   0  0  0  0  0  0  0  0  0  0  0  0
  146.3695  138.6729  153.3979 H   0  0  0  0  0  0  0  0  0  0  0  0
  147.0548  140.1348  152.7287 H   0  0  0  0  0  0  0  0  0  0  0  0
  145.6803  139.2729  150.9332 H   0  0  0  0  0  0  0  0  0  0  0  0
  147.3139  138.8271  150.4902 H   0  0  0  0  0  0  0  0  0  0  0  0
  145.6492  136.2613  152.9707 H   0  0  0  0  0  0  0  0  0  0  0  0
  144.6100  137.6343  152.6032 H   0  0  0  0  0  0  0  0  0  0  0  0
  143.9000  134.9783  152.0130 H   0  0  0  0  0  0  0  0  0  0  0  0
  143.2291  136.4063  151.2302 H   0  0  0  0  0  0  0  0  0  0  0  0
  145.5043  134.6673  150.2521 H   0  0  0  0  0  0  0  0  0  0  0  0
  144.1452  135.2945  149.3148 H   0  0  0  0  0  0  0  0  0  0  0  0
  145.0410  137.5465  149.3948 H   0  0  0  0  0  0  0  0  0  0  0  0
  146.5056  136.5877  149.1565 H   0  0  0  0  0  0  0  0  0  0  0  0
  146.9827  136.6829  151.3519 H   0  0  0  0  0  0  0  0  0  0  0  0
  1  2  1  0  0  0  0
  1 18  1  0  0  0  0
  1 19  1  0  0  0  0
  1 20  1  0  0  0  0
  2 17  1  0  0  0  0
  2  3  2  0  0  0  0
  3  4  1  0  0  0  0
  3 21  1  0  0  0  0
  4  5  1  0  0  0  0
  4 16  2  0  0  0  0
  5  6  1  0  0  0  0
  5 22  1  0  0  0  0
  6  7  2  0  0  0  0
  6  8  1  0  0  0  0
  8  9  1  0  0  0  0
  8 23  1  0  0  0  0
  9 10  1  0  0  0  0
  9 24  1  0  0  0  0
  9 25  1  0  0  0  0
 10 11  1  0  0  0  0
 10 26  1  0  0  0  0
 10 27  1  0  0  0  0
 11 15  1  0  0  0  0
 11 12  1  0  0  0  0
 11 36  1  0  0  0  0
 12 13  1  0  0  0  0
 12 28  1  0  0  0  0
 12 29  1  0  0  0  0
 13 14  1  0  0  0  0
 13 30  1  0  0  0  0
 13 31  1  0  0  0  0
 14 15  1  0  0  0  0
 14 32  1  0  0  0  0
 14 33  1  0  0  0  0
 15 34  1  0  0  0  0
 15 35  1  0  0  0  0
 16 17  1  0  0  0  0
M  CHG  1  11   1
M  END
> <s_m_source_file>
AV-unprocessed.smi

> <i_m_source_file_index>
855

> <i_lp_mmshare_version>
43012

> <i_f3d_flags>
0

> <s_epik_input>
W0NIM11jMVtjSF1jKG5vMSlbTkhdQyg9TylbTkhdW0NIMl1bQ0gyXU4yW0NIMl1bQ0gyXVtDSDJdW0NIMl0y

> <s_epik_cmdline>
J2VwaWtfcHl0aG9uJywgJy1waCcsICc3LjAnLCAnLXRuJywgJzgnLCAnLW1hJywgJzIwMCcsICctbWV0YWxfYmluZGluZycsICctaW1hZScsICc8aW5maWxlLm1hZT4nLCAnLW9tYWUnLCAnPG91dGZpbGUubWFlPic=

> <r_epik_Ionization_Penalty>
0.00243703

> <r_epik_Ionization_Penalty_Charging>
0.00240122

> <r_epik_Ionization_Penalty_Neutral>
3.58091e-05

> <r_epik_State_Penalty>
0.00166069

> <r_epik_Charging_Adjusted_Penalty>
0.00406191

> <i_epik_Tot_Q>
1

> <i_epik_Tot_abs_Q>
1

> <r_epik_Metal_State_Penalty>
0.021664

> <b_epik_Metal_Only>
0

> <s_lp_Force_Field>
OPLS_2005

> <r_lp_Energy>
23.058

> <b_lp_Chiralities_Consistent>
1

> <s_lp_Variant>
AV-unprocessed.smi:855-1

> <Gold.Version>
5.8.1

> <Gold.Id.Protein>
6NUR|6NUR_protein|mol2

> <Gold.PLP.Fitness>
41.5365

> <Gold.PLP.PLP>
-28.5748

> <Gold.PLP.part.hbond>
-5.6349

> <Gold.PLP.part.metal>
0.0000

> <Gold.PLP.part.buried>
2.1135

> <Gold.PLP.part.nonpolar>
-25.7749

> <Gold.PLP.part.repulsive>
0.3243

> <Gold.PLP.ligand.clash>
0.0000

> <Gold.PLP.ligand.torsion>
0.7514

> <Gold.PLP.Chemscore.Hbond>
4.8160

> <Gold.PLP.Chemscore.CHOScore>
0.0000

> <Gold.PLP.Chemscore.Metal>
0.0000

> <Gold.Chemscore.Hbonds>
donor molecule, donor type, donor heavy atom, donor atom, acceptor molecule, acceptor atom, score
      L1  H     5    22       P1  7949  0.02
      L1  H     8    23       P1  7948  0.86
      L1  H    11    36       P1  7948  1.92
      P1  H  7989  7998       L1    16  0.77
      P1  H  7997  8009       L1    17  0.98

> <Gold.PLP.Chemscore.Internal.Correction>
0.0165

> <Gold.Rescore>
     Score         DG    S(hbond)    S(metal)    S(lipo)     H(rot)  DE(clash)    DE(int)     intcor
     16.57     -19.06       3.25        0.00      58.21       1.60       1.58       0.90       ----

> <Gold.Chemscore.Fitness>
16.5686

> <Gold.Chemscore.DG>
-19.0552

> <Gold.Chemscore.ZeroCoef>
-5.4800

> <Gold.Chemscore.Hbond>
3.2533

> <Gold.Chemscore.Metal>
0.0000

> <Gold.Chemscore.Lipo>
58.2063

> <Gold.Chemscore.Internal_Hbond>
0.0000

> <Gold.Chemscore.DEClash>
1.5848

> <Gold.Chemscore.DEInternal>
0.9018

> <Gold.Chemscore.Rot>
1.6019

> <Gold.Chemscore.Internal.Correction>
   9.000000E+99

> <Gold.Chemscore.Hbonds>
donor molecule, donor type, donor heavy atom, donor atom, acceptor molecule, acceptor atom, score
      L1  H     8    23       P1  7948  0.84
      L1  H    11    36       P1  7948  0.91
      P1  H  7989  7998       L1    16  0.41
      P1  H  7997  8009       L1    17  0.73

> <Gold.Chemscore.Hbond.Weighted>
-10.8660

> <Gold.Chemscore.Metal.Weighted>
-0.0000

> <Gold.Chemscore.Lipo.Weighted>
-6.8101

> <Gold.Chemscore.Internal_Hbond.Weighted>
0.0000

> <Gold.Chemscore.DEClash.Weighted>
1.5848

> <Gold.Chemscore.DEInternal.Weighted>
0.9018

> <Gold.Chemscore.Rot.Weighted>
4.1009

> <Gold.Chemscore.Internal.Correction.Weighted>
   9.000000E+99

> <Gold.Protein.RotatedTorsions>
[ 6907 6896 6895 6894 ] final  -21.08 input  -60.11 | X-H torsion
[ 7974 7965 7964 7962 ] final   88.73 input  175.53 | X-H torsion
[ 8008 7997 7996 7995 ] final -139.03 input   59.86 | X-H torsion
[ 10167 10162 10161 10158 ] final  150.52 input  -65.29 | X-H torsion
[ 10718 10713 10712 10709 ] final -143.39 input   66.30 | X-H torsion
[ 10763 10752 10751 10750 ] final -109.63 input  -60.55 | X-H torsion
[ 11005 11000 10999 10996 ] final  -48.56 input  -57.11 | X-H torsion

> <Gold.Protein.ActiveResidues>
 VAL166  LYS551  ARG553  GLY616  TRP617  ASP618  TYR619  PRO620  LYS621  CYS622 
 ASP623  PHE694  ASN695  SER759  ASP760  ASP761  ALA762  ILE779  LEU786  VAL792 
 PHE793  MET794  SER795  GLU796  ALA797  LYS798  CYS799  TRP800  GLU811  SER814 

> <Gold.Protein.RotatedAtoms>
  151.2386  135.0581  159.9015 H   0  0  0  0  0  0  0  0  0  0  0  0  # atno 6907 bound_to 6896
  152.5396  134.0458  159.8098 H   0  0  0  0  0  0  0  0  0  0  0  0  # atno 6908 bound_to 6896
  151.0649  133.5465  159.2663 H   0  0  0  0  0  0  0  0  0  0  0  0  # atno 6909 bound_to 6896
  145.5417  139.2289  143.2562 H   0  0  0  0  0  0  0  0  0  0  0  0  # atno 7974 bound_to 7965
  155.4381  140.0530  157.3013 H   0  0  0  0  0  0  0  0  0  0  0  0  # atno 8008 bound_to 7997
  154.4830  140.2089  155.9676 H   0  0  0  0  0  0  0  0  0  0  0  0  # atno 8009 bound_to 7997
  156.1234  140.3184  155.8246 H   0  0  0  0  0  0  0  0  0  0  0  0  # atno 8010 bound_to 7997
  139.4849  144.5515  151.7391 H   0  0  0  0  0  0  0  0  0  0  0  0  # atno 10167 bound_to 10162
  156.3574  130.7720  151.1882 H   0  0  0  0  0  0  0  0  0  0  0  0  # atno 10718 bound_to 10713
  154.8203  135.4594  154.0761 H   0  0  0  0  0  0  0  0  0  0  0  0  # atno 10763 bound_to 10752
  153.2120  135.6883  153.8109 H   0  0  0  0  0  0  0  0  0  0  0  0  # atno 10764 bound_to 10752
  153.7557  135.3291  155.3305 H   0  0  0  0  0  0  0  0  0  0  0  0  # atno 10765 bound_to 10752
  141.0708  133.6680  156.3458 H   0  0  0  0  0  0  0  0  0  0  0  0  # atno 11005 bound_to 11000
  146.1976  140.6237  142.9117 LP  0  0  0  0  0  0  0  0  0  0  0  0  # atno 17320 bound_to 7965
  144.7573  140.5339  143.6760 LP  0  0  0  0  0  0  0  0  0  0  0  0  # atno 17321 bound_to 7965
  140.5070  144.1082  150.5985 LP  0  0  0  0  0  0  0  0  0  0  0  0  # atno 17342 bound_to 10162
  140.3995  143.2711  151.9964 LP  0  0  0  0  0  0  0  0  0  0  0  0  # atno 17343 bound_to 10162
  157.7469  131.0410  150.4625 LP  0  0  0  0  0  0  0  0  0  0  0  0  # atno 17370 bound_to 10713
  156.4830  130.4078  149.6450 LP  0  0  0  0  0  0  0  0  0  0  0  0  # atno 17371 bound_to 10713
  140.5678  134.5870  157.5450 LP  0  0  0  0  0  0  0  0  0  0  0  0  # atno 17394 bound_to 11000
  139.9521  134.7599  156.0424 LP  0  0  0  0  0  0  0  0  0  0  0  0  # atno 17395 bound_to 11000

$$$$
