AV-unprocessed.smi:1262|AV-procd|sdf|5309|dock3
  -GOLD-   22720 4433D 1   1.00000     0.00000
 Structure written by MMmdl.
 34 35  0  0  0  0  0  0  0  0  1 V2000
  150.8814  142.1476  156.4519 C   0  0  0  0  0  0  0  0  0  0  0  0
  150.5654  140.9415  155.6176 C   0  0  0  0  0  0  0  0  0  0  0  0
  149.3537  140.6438  154.9287 C   0  0  0  0  0  0  0  0  0  0  0  0
  149.6279  139.4372  154.3447 C   0  0  0  0  0  0  0  0  0  0  0  0
  148.8307  138.6662  153.5583 N   0  0  0  0  0  0  0  0  0  0  0  0
  147.4938  138.7065  153.4206 C   0  0  0  0  0  0  0  0  0  0  0  0
  146.7376  139.4794  154.0096 O   0  0  0  0  0  0  0  0  0  0  0  0
  147.0700  137.7827  152.5463 N   0  0  0  0  0  0  0  0  0  0  0  0
  145.6778  137.5552  152.1767 C   0  0  0  0  0  0  0  0  0  0  0  0
  145.5183  136.2739  151.3620 C   0  0  0  0  0  0  0  0  0  0  0  0
  144.1171  135.6975  151.1068 C   0  0  0  0  0  0  0  0  0  0  0  0
  144.7267  134.2962  151.2012 C   0  0  0  0  0  0  0  0  0  0  0  0
  145.8749  134.9222  151.9977 C   0  0  0  0  0  0  0  0  0  0  0  0
  150.9119  139.0646  154.6752 N   0  0  0  0  0  0  0  0  0  0  0  0
  151.6509  137.8748  154.3008 C   0  0  0  0  0  0  0  0  0  0  0  0
  151.4880  139.9985  155.4629 N   0  0  0  0  0  0  0  0  0  0  0  0
  150.0164  142.8056  156.5365 H   0  0  0  0  0  0  0  0  0  0  0  0
  151.6956  142.7250  156.0135 H   0  0  0  0  0  0  0  0  0  0  0  0
  151.1793  141.8612  157.4607 H   0  0  0  0  0  0  0  0  0  0  0  0
  148.4487  141.2308  154.8845 H   0  0  0  0  0  0  0  0  0  0  0  0
  149.3135  137.9738  153.0051 H   0  0  0  0  0  0  0  0  0  0  0  0
  147.7586  137.1888  152.1081 H   0  0  0  0  0  0  0  0  0  0  0  0
  145.0535  137.5241  153.0711 H   0  0  0  0  0  0  0  0  0  0  0  0
  145.3391  138.4163  151.6001 H   0  0  0  0  0  0  0  0  0  0  0  0
  146.0430  136.3525  150.4073 H   0  0  0  0  0  0  0  0  0  0  0  0
  143.4174  135.9078  151.9176 H   0  0  0  0  0  0  0  0  0  0  0  0
  143.6921  135.9478  150.1343 H   0  0  0  0  0  0  0  0  0  0  0  0
  144.1274  133.5723  151.7541 H   0  0  0  0  0  0  0  0  0  0  0  0
  145.0455  133.9068  150.2329 H   0  0  0  0  0  0  0  0  0  0  0  0
  146.8663  134.5462  151.7431 H   0  0  0  0  0  0  0  0  0  0  0  0
  145.7006  134.8994  153.0748 H   0  0  0  0  0  0  0  0  0  0  0  0
  151.6873  137.7931  153.2143 H   0  0  0  0  0  0  0  0  0  0  0  0
  151.1556  136.9938  154.7094 H   0  0  0  0  0  0  0  0  0  0  0  0
  152.6706  137.9179  154.6857 H   0  0  0  0  0  0  0  0  0  0  0  0
  1  2  1  0  0  0  0
  1 17  1  0  0  0  0
  1 18  1  0  0  0  0
  1 19  1  0  0  0  0
  2 16  2  0  0  0  0
  2  3  1  0  0  0  0
  3  4  2  0  0  0  0
  3 20  1  0  0  0  0
  4  5  1  0  0  0  0
  4 14  1  0  0  0  0
  5  6  1  0  0  0  0
  5 21  1  0  0  0  0
  6  7  2  0  0  0  0
  6  8  1  0  0  0  0
  8  9  1  0  0  0  0
  8 22  1  0  0  0  0
  9 10  1  0  0  0  0
  9 23  1  0  0  0  0
  9 24  1  0  0  0  0
 10 13  1  0  0  0  0
 10 11  1  0  0  0  0
 10 25  1  0  0  0  0
 11 12  1  0  0  0  0
 11 26  1  0  0  0  0
 11 27  1  0  0  0  0
 12 13  1  0  0  0  0
 12 28  1  0  0  0  0
 12 29  1  0  0  0  0
 13 30  1  0  0  0  0
 13 31  1  0  0  0  0
 14 15  1  0  0  0  0
 14 16  1  0  0  0  0
 15 32  1  0  0  0  0
 15 33  1  0  0  0  0
 15 34  1  0  0  0  0
M  END
> <s_m_source_file>
AV-unprocessed.smi

> <i_m_source_file_index>
1262

> <i_lp_mmshare_version>
43012

> <i_f3d_flags>
0

> <s_epik_input>
W0NIM11jMVtjSF1jKG4objEpW0NIM10pW05IXUMoPU8pW05IXVtDSDJdW0NIXTJbQ0gyXVtDSDJdW0NIMl0y

> <s_epik_cmdline>
J2VwaWtfcHl0aG9uJywgJy1waCcsICc3LjAnLCAnLXRuJywgJzgnLCAnLW1hJywgJzIwMCcsICctbWV0YWxfYmluZGluZycsICctaW1hZScsICc8aW5maWxlLm1hZT4nLCAnLW9tYWUnLCAnPG91dGZpbGUubWFlPic=

> <r_lp_tautomer_probability>
1

> <r_epik_Ionization_Penalty>
9.92667e-05

> <r_epik_Ionization_Penalty_Charging>
0

> <r_epik_Ionization_Penalty_Neutral>
9.92667e-05

> <r_epik_State_Penalty>
-0

> <r_epik_Charging_Adjusted_Penalty>
0

> <i_epik_Tot_Q>
0

> <i_epik_Tot_abs_Q>
0

> <r_epik_Metal_State_Penalty>
-0

> <b_epik_Metal_Only>
0

> <s_lp_Force_Field>
OPLS_2005

> <r_lp_Energy>
13.5599

> <b_lp_Chiralities_Consistent>
1

> <s_lp_Variant>
AV-unprocessed.smi:1262-1

> <Gold.Version>
5.8.1

> <Gold.Id.Protein>
6NUR|6NUR_protein|mol2

> <Gold.PLP.Fitness>
37.7010

> <Gold.PLP.PLP>
-32.6946

> <Gold.PLP.part.hbond>
-3.9016

> <Gold.PLP.part.metal>
0.0000

> <Gold.PLP.part.buried>
-2.4648

> <Gold.PLP.part.nonpolar>
-27.6619

> <Gold.PLP.part.repulsive>
0.2769

> <Gold.PLP.ligand.clash>
0.0000

> <Gold.PLP.ligand.torsion>
0.1627

> <Gold.PLP.Chemscore.Hbond>
1.7582

> <Gold.PLP.Chemscore.CHOScore>
0.0000

> <Gold.PLP.Chemscore.Metal>
0.0000

> <Gold.Chemscore.Hbonds>
donor molecule, donor type, donor heavy atom, donor atom, acceptor molecule, acceptor atom, score
      L1  H     5    21       P1  7948  0.74
      L1  H     8    22       P1  7948  1.00

> <Gold.PLP.Chemscore.Internal.Correction>
0.0572

> <Gold.Rescore>
     Score         DG    S(hbond)    S(metal)    S(lipo)     H(rot)  DE(clash)    DE(int)     intcor
     13.83     -15.19       1.82        0.00      57.43       1.21       0.14       1.22       ----

> <Gold.Chemscore.Fitness>
13.8323

> <Gold.Chemscore.DG>
-15.1872

> <Gold.Chemscore.ZeroCoef>
-5.4800

> <Gold.Chemscore.Hbond>
1.8222

> <Gold.Chemscore.Metal>
0.0000

> <Gold.Chemscore.Lipo>
57.4310

> <Gold.Chemscore.Internal_Hbond>
0.0000

> <Gold.Chemscore.DEClash>
0.1355

> <Gold.Chemscore.DEInternal>
1.2193

> <Gold.Chemscore.Rot>
1.2103

> <Gold.Chemscore.Internal.Correction>
   9.000000E+99

> <Gold.Chemscore.Hbonds>
donor molecule, donor type, donor heavy atom, donor atom, acceptor molecule, acceptor atom, score
      L1  H     5    21       P1  7948  0.70
      L1  H     8    22       P1  7948  0.93

> <Gold.Chemscore.Hbond.Weighted>
-6.0862

> <Gold.Chemscore.Metal.Weighted>
-0.0000

> <Gold.Chemscore.Lipo.Weighted>
-6.7194

> <Gold.Chemscore.Internal_Hbond.Weighted>
0.0000

> <Gold.Chemscore.DEClash.Weighted>
0.1355

> <Gold.Chemscore.DEInternal.Weighted>
1.2193

> <Gold.Chemscore.Rot.Weighted>
3.0984

> <Gold.Chemscore.Internal.Correction.Weighted>
   9.000000E+99

> <Gold.Protein.RotatedTorsions>
[ 6907 6896 6895 6894 ] final  -52.53 input  -60.11 | X-H torsion
[ 7974 7965 7964 7962 ] final    7.71 input  175.53 | X-H torsion
[ 8008 7997 7996 7995 ] final   20.56 input   59.86 | X-H torsion
[ 10167 10162 10161 10158 ] final    9.58 input  -65.29 | X-H torsion
[ 10718 10713 10712 10709 ] final -105.66 input   66.30 | X-H torsion
[ 10763 10752 10751 10750 ] final  178.02 input  -60.55 | X-H torsion
[ 11005 11000 10999 10996 ] final  125.04 input  -57.11 | X-H torsion

> <Gold.Protein.ActiveResidues>
 VAL166  LYS551  ARG553  GLY616  TRP617  ASP618  TYR619  PRO620  LYS621  CYS622 
 ASP623  PHE694  ASN695  SER759  ASP760  ASP761  ALA762  ILE779  LEU786  VAL792 
 PHE793  MET794  SER795  GLU796  ALA797  LYS798  CYS799  TRP800  GLU811  SER814 

> <Gold.Protein.RotatedAtoms>
  150.8509  134.7834  159.7007 H   0  0  0  0  0  0  0  0  0  0  0  0  # atno 6907 bound_to 6896
  152.4574  134.5257  159.9806 H   0  0  0  0  0  0  0  0  0  0  0  0  # atno 6908 bound_to 6896
  151.5378  133.3400  159.2965 H   0  0  0  0  0  0  0  0  0  0  0  0  # atno 6909 bound_to 6896
  146.2424  140.0042  142.8413 H   0  0  0  0  0  0  0  0  0  0  0  0  # atno 7974 bound_to 7965
  154.9374  140.3048  155.5137 H   0  0  0  0  0  0  0  0  0  0  0  0  # atno 8008 bound_to 7997
  156.2999  140.2342  156.4377 H   0  0  0  0  0  0  0  0  0  0  0  0  # atno 8009 bound_to 7997
  154.8178  140.0425  157.1378 H   0  0  0  0  0  0  0  0  0  0  0  0  # atno 8010 bound_to 7997
  140.6246  143.8129  150.7217 H   0  0  0  0  0  0  0  0  0  0  0  0  # atno 10167 bound_to 10162
  156.0356  130.5575  150.7571 H   0  0  0  0  0  0  0  0  0  0  0  0  # atno 10718 bound_to 10713
  154.5022  135.2784  155.1411 H   0  0  0  0  0  0  0  0  0  0  0  0  # atno 10763 bound_to 10752
  154.3040  135.6242  153.5441 H   0  0  0  0  0  0  0  0  0  0  0  0  # atno 10764 bound_to 10752
  152.9904  135.5704  154.5467 H   0  0  0  0  0  0  0  0  0  0  0  0  # atno 10765 bound_to 10752
  139.9387  134.9637  156.8499 H   0  0  0  0  0  0  0  0  0  0  0  0  # atno 11005 bound_to 11000
  145.1387  140.9559  143.4501 LP  0  0  0  0  0  0  0  0  0  0  0  0  # atno 17320 bound_to 7965
  145.0317  139.3335  143.6021 LP  0  0  0  0  0  0  0  0  0  0  0  0  # atno 17321 bound_to 7965
  140.1726  143.4181  152.1990 LP  0  0  0  0  0  0  0  0  0  0  0  0  # atno 17342 bound_to 10162
  139.5469  144.7305  151.4556 LP  0  0  0  0  0  0  0  0  0  0  0  0  # atno 17343 bound_to 10162
  157.5100  131.0925  151.0210 LP  0  0  0  0  0  0  0  0  0  0  0  0  # atno 17370 bound_to 10713
  157.0567  130.5809  149.5379 LP  0  0  0  0  0  0  0  0  0  0  0  0  # atno 17371 bound_to 10713
  140.6007  134.0174  155.7536 LP  0  0  0  0  0  0  0  0  0  0  0  0  # atno 17394 bound_to 11000
  141.1013  133.9764  157.3075 LP  0  0  0  0  0  0  0  0  0  0  0  0  # atno 17395 bound_to 11000

$$$$
