AV-unprocessed.smi:125|AV-procd|sdf|1149|dock5
  -GOLD-   2262018283D 1   1.00000     0.00000
 Structure written by MMmdl.
 59 62  0  0  0  0  0  0  0  0  1 V2000
  145.9704  133.3792  159.9462 C   0  0  0  0  0  0  0  0  0  0  0  0
  147.0510  134.3409  159.4805 C   0  0  0  0  0  0  0  0  0  0  0  0
  147.5612  134.1934  158.1737 C   0  0  0  0  0  0  0  0  0  0  0  0
  148.5636  135.0533  157.6881 C   0  0  0  0  0  0  0  0  0  0  0  0
  149.0847  136.0769  158.5129 C   0  0  0  0  0  0  0  0  0  0  0  0
  150.0828  136.9975  158.0929 N   0  0  0  0  0  0  0  0  0  0  0  0
  151.1222  137.4927  158.7894 C   0  0  0  0  0  0  0  0  0  0  0  0
  151.3389  137.2633  159.9797 O   0  0  0  0  0  0  0  0  0  0  0  0
  152.0389  138.4463  158.0080 C   0  0  0  0  0  0  0  0  0  0  0  0
  152.3181  139.7052  158.7330 N   0  0  0  0  0  0  0  0  0  0  0  0
  153.2757  139.6810  159.7774 C   0  0  0  0  0  0  0  0  0  0  0  0
  153.8689  138.6428  160.0749 O   0  0  0  0  0  0  0  0  0  0  0  0
  153.4975  140.9510  160.4592 C   0  0  0  0  0  0  0  0  0  0  0  0
  154.4036  141.0259  161.4488 F   0  0  0  0  0  0  0  0  0  0  0  0
  152.8090  142.0563  160.1087 C   0  0  0  0  0  0  0  0  0  0  0  0
  151.8624  142.0610  159.1009 N   0  0  0  0  0  0  0  0  0  0  0  0
  151.1110  143.3219  158.7351 C   0  0  2  0  0  0  0  0  0  0  0  0
  151.6017  143.8578  157.3855 C   0  0  0  0  0  0  0  0  0  0  0  0
  152.6446  144.8681  157.8118 C   0  0  0  0  0  0  0  0  0  0  0  0
  152.0347  145.4121  159.0984 C   0  0  0  0  0  0  0  0  0  0  0  0
  151.3698  144.3031  159.6980 O   0  0  0  0  0  0  0  0  0  0  0  0
  151.6034  140.8750  158.3799 C   0  0  0  0  0  0  0  0  0  0  0  0
  150.7763  140.8621  157.4658 O   0  0  0  0  0  0  0  0  0  0  0  0
  148.5672  136.2393  159.8130 C   0  0  0  0  0  0  0  0  0  0  0  0
  147.5607  135.3798  160.3023 C   0  0  0  0  0  0  0  0  0  0  0  0
  146.9836  135.6463  161.9877 S   0  0  0  0  0  0  0  0  0  0  0  0
  147.2990  134.4635  162.8041 O   0  0  0  0  0  0  0  0  0  0  0  0
  147.4413  136.9763  162.4189 O   0  0  0  0  0  0  0  0  0  0  0  0
  145.2632  135.6939  161.7975 N   0  0  0  0  0  0  0  0  0  0  0  0
  144.5696  136.9910  161.7536 C   0  0  0  0  0  0  0  0  0  0  0  0
  143.1580  136.8402  161.1623 C   0  0  0  0  0  0  0  0  0  0  0  0
  142.4432  135.8184  161.8412 O   0  0  0  0  0  0  0  0  0  0  0  0
  143.0668  134.5533  161.6796 C   0  0  0  0  0  0  0  0  0  0  0  0
  144.4667  134.5706  162.3127 C   0  0  0  0  0  0  0  0  0  0  0  0
  145.6500  132.7263  159.1338 H   0  0  0  0  0  0  0  0  0  0  0  0
  145.0880  133.9135  160.2946 H   0  0  0  0  0  0  0  0  0  0  0  0
  146.3383  132.7405  160.7475 H   0  0  0  0  0  0  0  0  0  0  0  0
  147.1805  133.4162  157.5274 H   0  0  0  0  0  0  0  0  0  0  0  0
  148.9052  134.9147  156.6741 H   0  0  0  0  0  0  0  0  0  0  0  0
  149.9723  137.3554  157.1552 H   0  0  0  0  0  0  0  0  0  0  0  0
  152.9717  137.9336  157.7657 H   0  0  0  0  0  0  0  0  0  0  0  0
  151.5815  138.6337  157.0357 H   0  0  0  0  0  0  0  0  0  0  0  0
  153.0185  142.9700  160.6447 H   0  0  0  0  0  0  0  0  0  0  0  0
  150.0509  143.0647  158.7516 H   0  0  0  0  0  0  0  0  0  0  0  0
  151.9833  143.0685  156.7369 H   0  0  0  0  0  0  0  0  0  0  0  0
  150.7698  144.3557  156.8857 H   0  0  0  0  0  0  0  0  0  0  0  0
  153.5913  144.3693  158.0219 H   0  0  0  0  0  0  0  0  0  0  0  0
  152.8236  145.6411  157.0641 H   0  0  0  0  0  0  0  0  0  0  0  0
  152.7795  145.8420  159.7682 H   0  0  0  0  0  0  0  0  0  0  0  0
  151.2961  146.1818  158.8718 H   0  0  0  0  0  0  0  0  0  0  0  0
  148.9551  137.0302  160.4376 H   0  0  0  0  0  0  0  0  0  0  0  0
  144.5149  137.3922  162.7661 H   0  0  0  0  0  0  0  0  0  0  0  0
  145.1397  137.7012  161.1554 H   0  0  0  0  0  0  0  0  0  0  0  0
  142.6113  137.7784  161.2586 H   0  0  0  0  0  0  0  0  0  0  0  0
  143.2088  136.6144  160.0959 H   0  0  0  0  0  0  0  0  0  0  0  0
  142.4511  133.7918  162.1581 H   0  0  0  0  0  0  0  0  0  0  0  0
  143.1236  134.2942  160.6211 H   0  0  0  0  0  0  0  0  0  0  0  0
  144.9806  133.6310  162.1089 H   0  0  0  0  0  0  0  0  0  0  0  0
  144.3877  134.6649  163.3961 H   0  0  0  0  0  0  0  0  0  0  0  0
  1  2  1  0  0  0  0
  1 35  1  0  0  0  0
  1 36  1  0  0  0  0
  1 37  1  0  0  0  0
  2 25  1  0  0  0  0
  2  3  2  0  0  0  0
  3  4  1  0  0  0  0
  3 38  1  0  0  0  0
  4  5  2  0  0  0  0
  4 39  1  0  0  0  0
  5  6  1  0  0  0  0
  5 24  1  0  0  0  0
  6  7  1  0  0  0  0
  6 40  1  0  0  0  0
  7  8  2  0  0  0  0
  7  9  1  0  0  0  0
  9 10  1  0  0  0  0
  9 41  1  0  0  0  0
  9 42  1  0  0  0  0
 10 22  1  0  0  0  0
 10 11  1  0  0  0  0
 11 12  2  0  0  0  0
 11 13  1  0  0  0  0
 13 14  1  0  0  0  0
 13 15  2  0  0  0  0
 15 16  1  0  0  0  0
 15 43  1  0  0  0  0
 16 17  1  0  0  0  0
 16 22  1  0  0  0  0
 17 21  1  0  0  0  0
 17 18  1  0  0  0  0
 17 44  1  0  0  0  0
 18 19  1  0  0  0  0
 18 45  1  0  0  0  0
 18 46  1  0  0  0  0
 19 20  1  0  0  0  0
 19 47  1  0  0  0  0
 19 48  1  0  0  0  0
 20 21  1  0  0  0  0
 20 49  1  0  0  0  0
 20 50  1  0  0  0  0
 22 23  2  0  0  0  0
 24 25  2  0  0  0  0
 24 51  1  0  0  0  0
 25 26  1  0  0  0  0
 26 27  2  0  0  0  0
 26 28  2  0  0  0  0
 26 29  1  0  0  0  0
 29 34  1  0  0  0  0
 29 30  1  0  0  0  0
 30 31  1  0  0  0  0
 30 52  1  0  0  0  0
 30 53  1  0  0  0  0
 31 32  1  0  0  0  0
 31 54  1  0  0  0  0
 31 55  1  0  0  0  0
 32 33  1  0  0  0  0
 33 34  1  0  0  0  0
 33 56  1  0  0  0  0
 33 57  1  0  0  0  0
 34 58  1  0  0  0  0
 34 59  1  0  0  0  0
M  END
> <s_m_source_file>
AV-unprocessed.smi

> <i_m_source_file_index>
125

> <i_lp_mmshare_version>
43012

> <i_f3d_flags>
0

> <s_epik_input>
W0NIMl0xW0NIMl1PW0NIMl1bQ0gyXU4xUyg9TykoPU8pYzJbY0hdYyhbY0hdW2NIXWMyW0NIM10pW05IXUMoPU8pW0NIMl1uM2MoPU8pYyhGKVtjSF1uKGMzPU8pW0NAQEhdNFtDSDJdW0NIMl1bQ0gyXU80

> <s_epik_cmdline>
J2VwaWtfcHl0aG9uJywgJy1waCcsICc3LjAnLCAnLXRuJywgJzgnLCAnLW1hJywgJzIwMCcsICctbWV0YWxfYmluZGluZycsICctaW1hZScsICc8aW5maWxlLm1hZT4nLCAnLW9tYWUnLCAnPG91dGZpbGUubWFlPic=

> <r_lp_tautomer_probability>
1

> <r_epik_Ionization_Penalty>
4.12263e-06

> <r_epik_Ionization_Penalty_Charging>
3.88729e-08

> <r_epik_Ionization_Penalty_Neutral>
4.08376e-06

> <r_epik_State_Penalty>
-0

> <r_epik_Charging_Adjusted_Penalty>
3.88729e-08

> <i_epik_Tot_Q>
0

> <i_epik_Tot_abs_Q>
0

> <r_epik_Metal_State_Penalty>
-0

> <b_epik_Metal_Only>
0

> <s_epik_Chemistry_Notes>
This compound contains an acetal/aminal-like group ( X-CH(R)-Y where X, Y are N, S, or O) that may be acid/base labile, releasing an aldehyde.

> <s_lp_Force_Field>
OPLS_2005

> <r_lp_Energy>
38.613

> <b_lp_Chiralities_Consistent>
1

> <s_lp_Variant>
AV-unprocessed.smi:125-1

> <Gold.Version>
5.8.1

> <Gold.Id.Protein>
6NUR|6NUR_protein|mol2

> <Gold.PLP.Fitness>
63.8039

> <Gold.PLP.PLP>
-60.6551

> <Gold.PLP.part.hbond>
-2.5245

> <Gold.PLP.part.metal>
0.0000

> <Gold.PLP.part.buried>
-9.8701

> <Gold.PLP.part.nonpolar>
-48.1010

> <Gold.PLP.part.repulsive>
0.2751

> <Gold.PLP.ligand.clash>
0.0000

> <Gold.PLP.ligand.torsion>
3.0278

> <Gold.PLP.Chemscore.Hbond>
1.7104

> <Gold.PLP.Chemscore.CHOScore>
0.0000

> <Gold.PLP.Chemscore.Metal>
0.0000

> <Gold.Chemscore.Hbonds>
donor molecule, donor type, donor heavy atom, donor atom, acceptor molecule, acceptor atom, score
      P1  H  6896  6908       L1     8  0.84
      P1  H  6931  6943       L1    28  0.77

> <Gold.PLP.Chemscore.Internal.Correction>
4.0732

> <Gold.Rescore>
     Score         DG    S(hbond)    S(metal)    S(lipo)     H(rot)  DE(clash)    DE(int)     intcor
     14.83     -20.05       1.79        0.00     109.61       1.65       0.11       5.10       ----

> <Gold.Chemscore.Fitness>
14.8301

> <Gold.Chemscore.DG>
-20.0491

> <Gold.Chemscore.ZeroCoef>
-5.4800

> <Gold.Chemscore.Hbond>
1.7876

> <Gold.Chemscore.Metal>
0.0000

> <Gold.Chemscore.Lipo>
109.6148

> <Gold.Chemscore.Internal_Hbond>
0.0000

> <Gold.Chemscore.DEClash>
0.1140

> <Gold.Chemscore.DEInternal>
5.1049

> <Gold.Chemscore.Rot>
1.6510

> <Gold.Chemscore.Internal.Correction>
   9.000000E+99

> <Gold.Chemscore.Hbonds>
donor molecule, donor type, donor heavy atom, donor atom, acceptor molecule, acceptor atom, score
      P1  H  6896  6908       L1     8  0.29
      P1  H  6931  6943       L1    28  0.75

> <Gold.Chemscore.Hbond.Weighted>
-5.9706

> <Gold.Chemscore.Metal.Weighted>
-0.0000

> <Gold.Chemscore.Lipo.Weighted>
-12.8249

> <Gold.Chemscore.Internal_Hbond.Weighted>
0.0000

> <Gold.Chemscore.DEClash.Weighted>
0.1140

> <Gold.Chemscore.DEInternal.Weighted>
5.1049

> <Gold.Chemscore.Rot.Weighted>
4.2265

> <Gold.Chemscore.Internal.Correction.Weighted>
   9.000000E+99

> <Gold.Protein.RotatedTorsions>
[ 6907 6896 6895 6894 ] final -124.47 input  -60.11 | X-H torsion
[ 7974 7965 7964 7962 ] final  106.71 input  175.53 | X-H torsion
[ 8008 7997 7996 7995 ] final   14.37 input   59.86 | X-H torsion
[ 10167 10162 10161 10158 ] final -170.36 input  -65.29 | X-H torsion
[ 10718 10713 10712 10709 ] final  -49.94 input   66.30 | X-H torsion
[ 10763 10752 10751 10750 ] final   70.26 input  -60.55 | X-H torsion
[ 11005 11000 10999 10996 ] final  156.77 input  -57.11 | X-H torsion

> <Gold.Protein.ActiveResidues>
 VAL166  LYS551  ARG553  GLY616  TRP617  ASP618  TYR619  PRO620  LYS621  CYS622 
 ASP623  PHE694  ASN695  SER759  ASP760  ASP761  ALA762  ILE779  LEU786  VAL792 
 PHE793  MET794  SER795  GLU796  ALA797  LYS798  CYS799  TRP800  GLU811  SER814 

> <Gold.Protein.RotatedAtoms>
  150.8771  133.7423  159.2943 H   0  0  0  0  0  0  0  0  0  0  0  0  # atno 6907 bound_to 6896
  151.5016  135.1060  159.9840 H   0  0  0  0  0  0  0  0  0  0  0  0  # atno 6908 bound_to 6896
  152.4735  133.8039  159.7023 H   0  0  0  0  0  0  0  0  0  0  0  0  # atno 6909 bound_to 6896
  145.3031  139.2563  143.3803 H   0  0  0  0  0  0  0  0  0  0  0  0  # atno 7974 bound_to 7965
  154.8475  140.2924  155.5619 H   0  0  0  0  0  0  0  0  0  0  0  0  # atno 8008 bound_to 7997
  156.3015  140.2502  156.3360 H   0  0  0  0  0  0  0  0  0  0  0  0  # atno 8009 bound_to 7997
  154.9057  140.0390  157.1907 H   0  0  0  0  0  0  0  0  0  0  0  0  # atno 8010 bound_to 7997
  139.5867  144.1304  152.1584 H   0  0  0  0  0  0  0  0  0  0  0  0  # atno 10167 bound_to 10162
  156.1846  130.4151  149.9457 H   0  0  0  0  0  0  0  0  0  0  0  0  # atno 10718 bound_to 10713
  153.0332  135.5180  154.7415 H   0  0  0  0  0  0  0  0  0  0  0  0  # atno 10763 bound_to 10752
  154.6413  135.2912  155.0103 H   0  0  0  0  0  0  0  0  0  0  0  0  # atno 10764 bound_to 10752
  154.1020  135.6635  153.4922 H   0  0  0  0  0  0  0  0  0  0  0  0  # atno 10765 bound_to 10752
  140.1706  134.8545  157.2686 H   0  0  0  0  0  0  0  0  0  0  0  0  # atno 11005 bound_to 11000
  146.3145  140.3549  142.8659 LP  0  0  0  0  0  0  0  0  0  0  0  0  # atno 17320 bound_to 7965
  144.9077  140.7720  143.5827 LP  0  0  0  0  0  0  0  0  0  0  0  0  # atno 17321 bound_to 7965
  140.0869  144.5654  150.7082 LP  0  0  0  0  0  0  0  0  0  0  0  0  # atno 17342 bound_to 10162
  140.7137  143.2526  151.4501 LP  0  0  0  0  0  0  0  0  0  0  0  0  # atno 17343 bound_to 10162
  156.7217  130.9009  151.3618 LP  0  0  0  0  0  0  0  0  0  0  0  0  # atno 17370 bound_to 10713
  157.6890  130.9215  150.0464 LP  0  0  0  0  0  0  0  0  0  0  0  0  # atno 17371 bound_to 10713
  140.2381  134.3828  155.7492 LP  0  0  0  0  0  0  0  0  0  0  0  0  # atno 17394 bound_to 11000
  141.2217  133.7250  156.8746 LP  0  0  0  0  0  0  0  0  0  0  0  0  # atno 17395 bound_to 11000

$$$$
