AV-unprocessed.smi:2578|AV-procd|sdf|10122|dock2
  -GOLD-   2272014143D 1   1.00000     0.00000
 Structure written by MMmdl.
 41 42  0  0  0  0  0  0  0  0  1 V2000
  150.8814  144.8991  158.4144 C   0  0  0  0  0  0  0  0  0  0  0  0
  151.5229  143.5318  158.5841 C   0  0  0  0  0  0  0  0  0  0  0  0
  152.4734  143.3495  159.5276 C   0  0  0  0  0  0  0  0  0  0  0  0
  153.1336  142.0621  159.7486 C   0  0  0  0  0  0  0  0  0  0  0  0
  153.9996  141.9065  160.6099 O   0  0  0  0  0  0  0  0  0  0  0  0
  152.7261  141.0474  158.9382 N   0  0  0  0  0  0  0  0  0  0  0  0
  153.3254  139.7173  159.0795 C   0  0  0  0  0  0  0  0  0  0  0  0
  151.7420  141.2239  157.9509 C   0  0  0  0  0  0  0  0  0  0  0  0
  151.1276  142.4098  157.7409 C   0  0  0  0  0  0  0  0  0  0  0  0
  150.1380  142.6364  156.7677 N   0  0  0  0  0  0  0  0  0  0  0  0
  149.4717  141.7610  155.9908 C   0  0  0  0  0  0  0  0  0  0  0  0
  149.6155  140.5390  155.9857 O   0  0  0  0  0  0  0  0  0  0  0  0
  148.5964  142.3973  155.1990 N   0  0  0  0  0  0  0  0  0  0  0  0
  147.6992  141.7462  154.2513 C   0  0  0  0  0  0  0  0  0  0  0  0
  146.2249  142.0168  154.5964 C   0  0  0  0  0  0  0  0  0  0  0  0
  145.6817  143.2560  153.9131 C   0  0  0  0  0  0  0  0  0  0  0  0
  146.2004  143.8676  152.8492 C   0  0  0  0  0  0  0  0  0  0  0  0
  145.4213  145.0890  152.4449 C   0  0  0  0  0  0  0  0  0  0  0  0
  144.2789  145.1646  153.4826 C   0  0  0  0  0  0  0  0  0  0  0  0
  144.4533  143.9582  154.4323 C   0  0  0  0  0  0  0  0  0  0  0  0
  151.2813  145.6250  159.1232 H   0  0  0  0  0  0  0  0  0  0  0  0
  149.8047  144.8348  158.5728 H   0  0  0  0  0  0  0  0  0  0  0  0
  151.0607  145.2793  157.4085 H   0  0  0  0  0  0  0  0  0  0  0  0
  152.7668  144.1815  160.1513 H   0  0  0  0  0  0  0  0  0  0  0  0
  152.8819  138.9783  158.4116 H   0  0  0  0  0  0  0  0  0  0  0  0
  153.2023  139.3455  160.0978 H   0  0  0  0  0  0  0  0  0  0  0  0
  154.3930  139.7566  158.8591 H   0  0  0  0  0  0  0  0  0  0  0  0
  151.5397  140.3259  157.3914 H   0  0  0  0  0  0  0  0  0  0  0  0
  149.8919  143.6077  156.6453 H   0  0  0  0  0  0  0  0  0  0  0  0
  148.5401  143.4033  155.2611 H   0  0  0  0  0  0  0  0  0  0  0  0
  147.9232  142.1292  153.2553 H   0  0  0  0  0  0  0  0  0  0  0  0
  147.9035  140.6748  154.2255 H   0  0  0  0  0  0  0  0  0  0  0  0
  145.6034  141.1681  154.3087 H   0  0  0  0  0  0  0  0  0  0  0  0
  146.1155  142.1327  155.6756 H   0  0  0  0  0  0  0  0  0  0  0  0
  147.0846  143.5496  152.3165 H   0  0  0  0  0  0  0  0  0  0  0  0
  146.0593  145.9725  152.4810 H   0  0  0  0  0  0  0  0  0  0  0  0
  145.0402  144.9737  151.4299 H   0  0  0  0  0  0  0  0  0  0  0  0
  144.3268  146.1012  154.0392 H   0  0  0  0  0  0  0  0  0  0  0  0
  143.3065  145.1309  152.9898 H   0  0  0  0  0  0  0  0  0  0  0  0
  143.5876  143.2965  154.3981 H   0  0  0  0  0  0  0  0  0  0  0  0
  144.6073  144.2765  155.4640 H   0  0  0  0  0  0  0  0  0  0  0  0
  1  2  1  0  0  0  0
  1 21  1  0  0  0  0
  1 22  1  0  0  0  0
  1 23  1  0  0  0  0
  2  9  1  0  0  0  0
  2  3  2  0  0  0  0
  3  4  1  0  0  0  0
  3 24  1  0  0  0  0
  4  5  2  0  0  0  0
  4  6  1  0  0  0  0
  6  7  1  0  0  0  0
  6  8  1  0  0  0  0
  7 25  1  0  0  0  0
  7 26  1  0  0  0  0
  7 27  1  0  0  0  0
  8  9  2  0  0  0  0
  8 28  1  0  0  0  0
  9 10  1  0  0  0  0
 10 11  1  0  0  0  0
 10 29  1  0  0  0  0
 11 12  2  0  0  0  0
 11 13  1  0  0  0  0
 13 14  1  0  0  0  0
 13 30  1  0  0  0  0
 14 15  1  0  0  0  0
 14 31  1  0  0  0  0
 14 32  1  0  0  0  0
 15 16  1  0  0  0  0
 15 33  1  0  0  0  0
 15 34  1  0  0  0  0
 16 20  1  0  0  0  0
 16 17  2  0  0  0  0
 17 18  1  0  0  0  0
 17 35  1  0  0  0  0
 18 19  1  0  0  0  0
 18 36  1  0  0  0  0
 18 37  1  0  0  0  0
 19 20  1  0  0  0  0
 19 38  1  0  0  0  0
 19 39  1  0  0  0  0
 20 40  1  0  0  0  0
 20 41  1  0  0  0  0
M  END
> <s_m_source_file>
AV-unprocessed.smi

> <i_m_source_file_index>
2578

> <i_lp_mmshare_version>
43012

> <i_f3d_flags>
0

> <s_epik_input>
W0NIM11jMVtjSF1jKD1PKW4oW0NIM10pW2NIXWMxW05IXUMoPU8pW05IXVtDSDJdW0NIMl1DMj1bQ0hdW0NIMl1bQ0gyXVtDSDJdMg==

> <s_epik_cmdline>
J2VwaWtfcHl0aG9uJywgJy1waCcsICc3LjAnLCAnLXRuJywgJzgnLCAnLW1hJywgJzIwMCcsICctbWV0YWxfYmluZGluZycsICctaW1hZScsICc8aW5maWxlLm1hZT4nLCAnLW9tYWUnLCAnPG91dGZpbGUubWFlPic=

> <r_lp_tautomer_probability>
1

> <r_epik_Ionization_Penalty>
2.83926e-05

> <r_epik_Ionization_Penalty_Charging>
8.15285e-06

> <r_epik_Ionization_Penalty_Neutral>
2.02397e-05

> <r_epik_State_Penalty>
-0

> <r_epik_Charging_Adjusted_Penalty>
8.15285e-06

> <i_epik_Tot_Q>
0

> <i_epik_Tot_abs_Q>
0

> <r_epik_Metal_State_Penalty>
-0

> <b_epik_Metal_Only>
0

> <s_lp_Force_Field>
OPLS_2005

> <r_lp_Energy>
31.0137

> <b_lp_Chiralities_Consistent>
1

> <s_lp_Variant>
AV-unprocessed.smi:2578-1

> <Gold.Version>
5.8.1

> <Gold.Id.Protein>
6NUR|6NUR_protein|mol2

> <Gold.PLP.Fitness>
49.8518

> <Gold.PLP.PLP>
-44.9781

> <Gold.PLP.part.hbond>
-1.9623

> <Gold.PLP.part.metal>
0.0000

> <Gold.PLP.part.buried>
-6.8923

> <Gold.PLP.part.nonpolar>
-36.6740

> <Gold.PLP.part.repulsive>
0.1276

> <Gold.PLP.ligand.clash>
0.0000

> <Gold.PLP.ligand.torsion>
0.4853

> <Gold.PLP.Chemscore.Hbond>
1.9440

> <Gold.PLP.Chemscore.CHOScore>
0.0000

> <Gold.PLP.Chemscore.Metal>
0.0000

> <Gold.Chemscore.Hbonds>
donor molecule, donor type, donor heavy atom, donor atom, acceptor molecule, acceptor atom, score
      L1  H    10    29       P1  8028  0.88
      L1  H    13    30       P1  8028  0.67

> <Gold.PLP.Chemscore.Internal.Correction>
0.0124

> <Gold.Rescore>
     Score         DG    S(hbond)    S(metal)    S(lipo)     H(rot)  DE(clash)    DE(int)     intcor
     18.36     -20.14       1.88        0.00     101.22       1.35       0.20       1.59       ----

> <Gold.Chemscore.Fitness>
18.3589

> <Gold.Chemscore.DG>
-20.1405

> <Gold.Chemscore.ZeroCoef>
-5.4800

> <Gold.Chemscore.Hbond>
1.8777

> <Gold.Chemscore.Metal>
0.0000

> <Gold.Chemscore.Lipo>
101.2233

> <Gold.Chemscore.Internal_Hbond>
0.0000

> <Gold.Chemscore.DEClash>
0.1956

> <Gold.Chemscore.DEInternal>
1.5860

> <Gold.Chemscore.Rot>
1.3493

> <Gold.Chemscore.Internal.Correction>
   9.000000E+99

> <Gold.Chemscore.Hbonds>
donor molecule, donor type, donor heavy atom, donor atom, acceptor molecule, acceptor atom, score
      L1  H    10    29       P1  8028  0.86
      L1  H    13    30       P1  8028  0.66

> <Gold.Chemscore.Hbond.Weighted>
-6.2715

> <Gold.Chemscore.Metal.Weighted>
-0.0000

> <Gold.Chemscore.Lipo.Weighted>
-11.8431

> <Gold.Chemscore.Internal_Hbond.Weighted>
0.0000

> <Gold.Chemscore.DEClash.Weighted>
0.1956

> <Gold.Chemscore.DEInternal.Weighted>
1.5860

> <Gold.Chemscore.Rot.Weighted>
3.4541

> <Gold.Chemscore.Internal.Correction.Weighted>
   9.000000E+99

> <Gold.Protein.RotatedTorsions>
[ 6907 6896 6895 6894 ] final -119.49 input  -60.11 | X-H torsion
[ 7974 7965 7964 7962 ] final -164.97 input  175.53 | X-H torsion
[ 8008 7997 7996 7995 ] final  117.21 input   59.86 | X-H torsion
[ 10167 10162 10161 10158 ] final -147.04 input  -65.29 | X-H torsion
[ 10718 10713 10712 10709 ] final  116.17 input   66.30 | X-H torsion
[ 10763 10752 10751 10750 ] final -141.98 input  -60.55 | X-H torsion
[ 11005 11000 10999 10996 ] final  162.90 input  -57.11 | X-H torsion

> <Gold.Protein.ActiveResidues>
 VAL166  LYS551  ARG553  GLY616  TRP617  ASP618  TYR619  PRO620  LYS621  CYS622 
 ASP623  PHE694  ASN695  SER759  ASP760  ASP761  ALA762  ILE779  LEU786  VAL792 
 PHE793  MET794  SER795  GLU796  ALA797  LYS798  CYS799  TRP800  GLU811  SER814 

> <Gold.Protein.RotatedAtoms>
  150.8310  133.8091  159.3098 H   0  0  0  0  0  0  0  0  0  0  0  0  # atno 6907 bound_to 6896
  151.5821  135.1056  160.0029 H   0  0  0  0  0  0  0  0  0  0  0  0  # atno 6908 bound_to 6896
  152.4389  133.7371  159.6676 H   0  0  0  0  0  0  0  0  0  0  0  0  # atno 6909 bound_to 6896
  144.7282  140.2883  143.6225 H   0  0  0  0  0  0  0  0  0  0  0  0  # atno 7974 bound_to 7965
  156.2481  140.2901  156.0642 H   0  0  0  0  0  0  0  0  0  0  0  0  # atno 8008 bound_to 7997
  155.1742  140.0402  157.2886 H   0  0  0  0  0  0  0  0  0  0  0  0  # atno 8009 bound_to 7997
  154.6305  140.2498  155.7447 H   0  0  0  0  0  0  0  0  0  0  0  0  # atno 8010 bound_to 7997
  139.7658  143.8310  152.2616 H   0  0  0  0  0  0  0  0  0  0  0  0  # atno 10167 bound_to 10162
  157.6177  131.1022  150.7434 H   0  0  0  0  0  0  0  0  0  0  0  0  # atno 10718 bound_to 10713
  154.8526  135.3509  154.5954 H   0  0  0  0  0  0  0  0  0  0  0  0  # atno 10763 bound_to 10752
  153.6563  135.6992  153.5196 H   0  0  0  0  0  0  0  0  0  0  0  0  # atno 10764 bound_to 10752
  153.2853  135.4251  155.1074 H   0  0  0  0  0  0  0  0  0  0  0  0  # atno 10765 bound_to 10752
  140.2303  134.8129  157.3310 H   0  0  0  0  0  0  0  0  0  0  0  0  # atno 11005 bound_to 11000
  145.7881  139.1916  143.2119 LP  0  0  0  0  0  0  0  0  0  0  0  0  # atno 17320 bound_to 7965
  146.0779  140.7797  142.9656 LP  0  0  0  0  0  0  0  0  0  0  0  0  # atno 17321 bound_to 7965
  139.8329  144.7245  150.9427 LP  0  0  0  0  0  0  0  0  0  0  0  0  # atno 17342 bound_to 10162
  140.7810  143.4053  151.1081 LP  0  0  0  0  0  0  0  0  0  0  0  0  # atno 17343 bound_to 10162
  156.7798  130.4855  149.5403 LP  0  0  0  0  0  0  0  0  0  0  0  0  # atno 17370 bound_to 10713
  156.1307  130.6176  151.0329 LP  0  0  0  0  0  0  0  0  0  0  0  0  # atno 17371 bound_to 10713
  140.1757  134.4553  155.7803 LP  0  0  0  0  0  0  0  0  0  0  0  0  # atno 17394 bound_to 11000
  141.2218  133.6961  156.7783 LP  0  0  0  0  0  0  0  0  0  0  0  0  # atno 17395 bound_to 11000

$$$$
