AV-unprocessed.smi:2639|AV-procd|sdf|10264|dock4
  -GOLD-   2272014273D 1   1.00000     0.00000
 Structure written by MMmdl.
 43 44  0  0  0  0  0  0  0  0  1 V2000
  146.7308  134.0907  155.9257 C   0  0  0  0  0  0  0  0  0  0  0  0
  146.3719  135.1399  154.8425 C   0  0  1  0  0  0  0  0  0  0  0  0
  145.3681  136.1602  155.4568 C   0  0  0  0  0  0  0  0  0  0  0  0
  145.2818  137.3521  154.7015 O   0  0  0  0  0  0  0  0  0  0  0  0
  147.5885  135.8494  154.4155 N   0  0  0  0  0  0  0  0  0  0  0  0
  148.4631  136.5498  155.1575 C   0  0  0  0  0  0  0  0  0  0  0  0
  148.3699  136.6982  156.3753 O   0  0  0  0  0  0  0  0  0  0  0  0
  149.4524  137.0425  154.3916 N   0  0  0  0  0  0  0  0  0  0  0  0
  150.5506  137.8599  154.7748 C   0  0  0  0  0  0  0  0  0  0  0  0
  150.3833  138.7033  155.8927 C   0  0  0  0  0  0  0  0  0  0  0  0
  151.4633  139.5105  156.3027 C   0  0  0  0  0  0  0  0  0  0  0  0
  152.6631  139.5136  155.6848 N   0  0  0  0  0  0  0  0  0  0  0  0
  152.8268  138.6944  154.6245 C   0  0  0  0  0  0  0  0  0  0  0  0
  151.8125  137.8484  154.1329 C   0  0  0  0  0  0  0  0  0  0  0  0
  145.7734  134.4322  153.5747 C   0  0  0  0  0  0  0  0  0  0  0  0
  146.6626  133.2825  153.0270 C   0  0  0  0  0  0  0  0  0  0  0  0
  146.0240  132.5745  151.8212 C   0  0  0  0  0  0  0  0  0  0  0  0
  145.7051  133.5660  150.6956 C   0  0  0  0  0  0  0  0  0  0  0  0
  144.8097  134.6989  151.2113 C   0  0  0  0  0  0  0  0  0  0  0  0
  145.4461  135.4119  152.4151 C   0  0  0  0  0  0  0  0  0  0  0  0
  145.8943  133.4176  156.1160 H   0  0  0  0  0  0  0  0  0  0  0  0
  146.9828  134.5581  156.8777 H   0  0  0  0  0  0  0  0  0  0  0  0
  147.5879  133.4810  155.6411 H   0  0  0  0  0  0  0  0  0  0  0  0
  144.3641  135.7400  155.5136 H   0  0  0  0  0  0  0  0  0  0  0  0
  145.6415  136.4173  156.4803 H   0  0  0  0  0  0  0  0  0  0  0  0
  144.6612  137.9284  155.1206 H   0  0  0  0  0  0  0  0  0  0  0  0
  147.7841  135.7958  153.4267 H   0  0  0  0  0  0  0  0  0  0  0  0
  149.4426  136.7619  153.4221 H   0  0  0  0  0  0  0  0  0  0  0  0
  149.4447  138.7385  156.4265 H   0  0  0  0  0  0  0  0  0  0  0  0
  151.3608  140.1699  157.1518 H   0  0  0  0  0  0  0  0  0  0  0  0
  153.7996  138.7077  154.1555 H   0  0  0  0  0  0  0  0  0  0  0  0
  152.0266  137.2069  153.2922 H   0  0  0  0  0  0  0  0  0  0  0  0
  144.8309  133.9711  153.8733 H   0  0  0  0  0  0  0  0  0  0  0  0
  147.6412  133.6650  152.7355 H   0  0  0  0  0  0  0  0  0  0  0  0
  146.8424  132.5325  153.7959 H   0  0  0  0  0  0  0  0  0  0  0  0
  146.6931  131.7973  151.4511 H   0  0  0  0  0  0  0  0  0  0  0  0
  145.1092  132.0705  152.1357 H   0  0  0  0  0  0  0  0  0  0  0  0
  146.6314  133.9812  150.2966 H   0  0  0  0  0  0  0  0  0  0  0  0
  145.2147  133.0489  149.8704 H   0  0  0  0  0  0  0  0  0  0  0  0
  144.6231  135.4166  150.4118 H   0  0  0  0  0  0  0  0  0  0  0  0
  143.8373  134.2960  151.4979 H   0  0  0  0  0  0  0  0  0  0  0  0
  144.7549  136.1859  152.7454 H   0  0  0  0  0  0  0  0  0  0  0  0
  146.3502  135.9264  152.0882 H   0  0  0  0  0  0  0  0  0  0  0  0
  1  2  1  0  0  0  0
  1 21  1  0  0  0  0
  1 22  1  0  0  0  0
  1 23  1  0  0  0  0
  2  3  1  0  0  0  0
  2  5  1  0  0  0  0
  2 15  1  0  0  0  0
  3  4  1  0  0  0  0
  3 24  1  0  0  0  0
  3 25  1  0  0  0  0
  4 26  1  0  0  0  0
  5  6  1  0  0  0  0
  5 27  1  0  0  0  0
  6  7  2  0  0  0  0
  6  8  1  0  0  0  0
  8  9  1  0  0  0  0
  8 28  1  0  0  0  0
  9 14  1  0  0  0  0
  9 10  2  0  0  0  0
 10 11  1  0  0  0  0
 10 29  1  0  0  0  0
 11 12  2  0  0  0  0
 11 30  1  0  0  0  0
 12 13  1  0  0  0  0
 13 14  2  0  0  0  0
 13 31  1  0  0  0  0
 14 32  1  0  0  0  0
 15 20  1  0  0  0  0
 15 16  1  0  0  0  0
 15 33  1  0  0  0  0
 16 17  1  0  0  0  0
 16 34  1  0  0  0  0
 16 35  1  0  0  0  0
 17 18  1  0  0  0  0
 17 36  1  0  0  0  0
 17 37  1  0  0  0  0
 18 19  1  0  0  0  0
 18 38  1  0  0  0  0
 18 39  1  0  0  0  0
 19 20  1  0  0  0  0
 19 40  1  0  0  0  0
 19 41  1  0  0  0  0
 20 42  1  0  0  0  0
 20 43  1  0  0  0  0
M  END
> <s_m_source_file>
AV-unprocessed.smi

> <i_m_source_file_index>
2639

> <i_lp_mmshare_version>
43012

> <i_f3d_flags>
0

> <s_epik_input>
W0NIMl0xW0NIMl1bQ0gyXVtDSDJdW0NIMl1bQ0hdMVtDQF0oW0NIM10pKFtDSDJdW09IXSlbTkhdQyg9TylbTkhdYzJbY0hdW2NIXW5bY0hdW2NIXTI=

> <s_epik_cmdline>
J2VwaWtfcHl0aG9uJywgJy1waCcsICc3LjAnLCAnLXRuJywgJzgnLCAnLW1hJywgJzIwMCcsICctbWV0YWxfYmluZGluZycsICctaW1hZScsICc8aW5maWxlLm1hZT4nLCAnLW9tYWUnLCAnPG91dGZpbGUubWFlPic=

> <r_epik_Ionization_Penalty>
0.119032

> <r_epik_Ionization_Penalty_Charging>
0

> <r_epik_Ionization_Penalty_Neutral>
0.119032

> <r_epik_State_Penalty>
0.108564

> <r_epik_Charging_Adjusted_Penalty>
0.108564

> <i_epik_Tot_Q>
0

> <i_epik_Tot_abs_Q>
0

> <r_epik_Metal_State_Penalty>
0.0902516

> <b_epik_Metal_Only>
0

> <s_lp_Force_Field>
OPLS_2005

> <r_lp_Energy>
25.5212

> <b_lp_Chiralities_Consistent>
1

> <s_lp_Variant>
AV-unprocessed.smi:2639-1

> <Gold.Version>
5.8.1

> <Gold.Id.Protein>
6NUR|6NUR_protein|mol2

> <Gold.PLP.Fitness>
41.7875

> <Gold.PLP.PLP>
-30.6224

> <Gold.PLP.part.hbond>
-4.8867

> <Gold.PLP.part.metal>
0.0000

> <Gold.PLP.part.buried>
-2.7649

> <Gold.PLP.part.nonpolar>
-23.4685

> <Gold.PLP.part.repulsive>
0.0262

> <Gold.PLP.ligand.clash>
0.0000

> <Gold.PLP.ligand.torsion>
0.4286

> <Gold.PLP.Chemscore.Hbond>
3.9920

> <Gold.PLP.Chemscore.CHOScore>
0.0000

> <Gold.PLP.Chemscore.Metal>
0.0000

> <Gold.Chemscore.Hbonds>
donor molecule, donor type, donor heavy atom, donor atom, acceptor molecule, acceptor atom, score
      L1  H     5    27       P1  7948  1.00
      L1  H     8    28       P1  7948  1.00
      P1  H  7997  8009       L1    12  1.00

> <Gold.PLP.Chemscore.Internal.Correction>
0.0463

> <Gold.Rescore>
     Score         DG    S(hbond)    S(metal)    S(lipo)     H(rot)  DE(clash)    DE(int)     intcor
     18.79     -20.97       3.71        0.00      69.90       1.98       0.14       2.04       ----

> <Gold.Chemscore.Fitness>
18.7912

> <Gold.Chemscore.DG>
-20.9697

> <Gold.Chemscore.ZeroCoef>
-5.4800

> <Gold.Chemscore.Hbond>
3.7063

> <Gold.Chemscore.Metal>
0.0000

> <Gold.Chemscore.Lipo>
69.9036

> <Gold.Chemscore.Internal_Hbond>
0.0000

> <Gold.Chemscore.DEClash>
0.1429

> <Gold.Chemscore.DEInternal>
2.0356

> <Gold.Chemscore.Rot>
1.9798

> <Gold.Chemscore.Internal.Correction>
   9.000000E+99

> <Gold.Chemscore.Hbonds>
donor molecule, donor type, donor heavy atom, donor atom, acceptor molecule, acceptor atom, score
      L1  H     5    27       P1  7948  0.92
      L1  H     8    28       P1  7948  0.85
      P1  H  7997  8009       L1    12  0.60

> <Gold.Chemscore.Hbond.Weighted>
-12.3792

> <Gold.Chemscore.Metal.Weighted>
-0.0000

> <Gold.Chemscore.Lipo.Weighted>
-8.1787

> <Gold.Chemscore.Internal_Hbond.Weighted>
0.0000

> <Gold.Chemscore.DEClash.Weighted>
0.1429

> <Gold.Chemscore.DEInternal.Weighted>
2.0356

> <Gold.Chemscore.Rot.Weighted>
5.0682

> <Gold.Chemscore.Internal.Correction.Weighted>
   9.000000E+99

> <Gold.Protein.RotatedTorsions>
[ 6907 6896 6895 6894 ] final -124.96 input  -60.11 | X-H torsion
[ 7974 7965 7964 7962 ] final  -57.79 input  175.53 | X-H torsion
[ 8008 7997 7996 7995 ] final -150.42 input   59.86 | X-H torsion
[ 10167 10162 10161 10158 ] final   -1.71 input  -65.29 | X-H torsion
[ 10718 10713 10712 10709 ] final  178.95 input   66.30 | X-H torsion
[ 10763 10752 10751 10750 ] final  137.33 input  -60.55 | X-H torsion
[ 11005 11000 10999 10996 ] final   99.44 input  -57.11 | X-H torsion

> <Gold.Protein.ActiveResidues>
 VAL166  LYS551  ARG553  GLY616  TRP617  ASP618  TYR619  PRO620  LYS621  CYS622 
 ASP623  PHE694  ASN695  SER759  ASP760  ASP761  ALA762  ILE779  LEU786  VAL792 
 PHE793  MET794  SER795  GLU796  ALA797  LYS798  CYS799  TRP800  GLU811  SER814 

> <Gold.Protein.RotatedAtoms>
  150.8820  133.7359  159.2929 H   0  0  0  0  0  0  0  0  0  0  0  0  # atno 6907 bound_to 6896
  151.4937  135.1057  159.9820 H   0  0  0  0  0  0  0  0  0  0  0  0  # atno 6908 bound_to 6896
  152.4766  133.8106  159.7057 H   0  0  0  0  0  0  0  0  0  0  0  0  # atno 6909 bound_to 6896
  145.8469  140.8379  143.0006 H   0  0  0  0  0  0  0  0  0  0  0  0  # atno 7974 bound_to 7965
  155.6232  140.0683  157.2672 H   0  0  0  0  0  0  0  0  0  0  0  0  # atno 8008 bound_to 7997
  154.4224  140.1780  156.1442 H   0  0  0  0  0  0  0  0  0  0  0  0  # atno 8009 bound_to 7997
  155.9993  140.3337  155.6832 H   0  0  0  0  0  0  0  0  0  0  0  0  # atno 8010 bound_to 7997
  140.6821  143.6743  150.8159 H   0  0  0  0  0  0  0  0  0  0  0  0  # atno 10167 bound_to 10162
  156.8830  130.9822  151.3059 H   0  0  0  0  0  0  0  0  0  0  0  0  # atno 10718 bound_to 10713
  153.8713  135.3055  155.3442 H   0  0  0  0  0  0  0  0  0  0  0  0  # atno 10763 bound_to 10752
  154.7804  135.4838  153.9836 H   0  0  0  0  0  0  0  0  0  0  0  0  # atno 10764 bound_to 10752
  153.1404  135.6823  153.9131 H   0  0  0  0  0  0  0  0  0  0  0  0  # atno 10765 bound_to 10752
  139.8771  134.9095  156.4606 H   0  0  0  0  0  0  0  0  0  0  0  0  # atno 11005 bound_to 11000
  144.6731  140.0895  143.7466 LP  0  0  0  0  0  0  0  0  0  0  0  0  # atno 17320 bound_to 7965
  145.9402  139.2664  143.1273 LP  0  0  0  0  0  0  0  0  0  0  0  0  # atno 17321 bound_to 7965
  140.0444  143.5313  152.2703 LP  0  0  0  0  0  0  0  0  0  0  0  0  # atno 17342 bound_to 10162
  139.6152  144.7618  151.2863 LP  0  0  0  0  0  0  0  0  0  0  0  0  # atno 17343 bound_to 10162
  157.6129  130.8596  149.8981 LP  0  0  0  0  0  0  0  0  0  0  0  0  # atno 17370 bound_to 10713
  156.0667  130.3691  150.0862 LP  0  0  0  0  0  0  0  0  0  0  0  0  # atno 17371 bound_to 10713
  140.8866  133.7878  155.9526 LP  0  0  0  0  0  0  0  0  0  0  0  0  # atno 17394 bound_to 11000
  140.8797  134.2626  157.5150 LP  0  0  0  0  0  0  0  0  0  0  0  0  # atno 17395 bound_to 11000

$$$$
