AV-unprocessed.smi:232|AV-procd|sdf|1771|dock3
  -GOLD-   2262020313D 1   1.00000     0.00000
 Structure written by MMmdl.
 52 55  0  0  0  0  0  0  0  0  1 V2000
  151.0236  140.7227  156.6613 C   0  0  0  0  0  0  0  0  0  0  0  0
  149.5053  140.7865  156.8727 C   0  0  0  0  0  0  0  0  0  0  0  0
  148.7047  140.2760  155.6586 C   0  0  2  0  0  0  0  0  0  0  0  0
  149.1930  140.9006  154.3317 C   0  0  0  0  0  0  0  0  0  0  0  0
  148.0150  141.7263  153.8042 C   0  0  0  0  0  0  0  0  0  0  0  0
  147.1159  141.8701  155.0301 C   0  0  1  0  0  0  0  0  0  0  0  0
  145.6629  142.2780  154.7187 C   0  0  0  0  0  0  0  0  0  0  0  0
  147.2860  140.6217  155.7718 N   0  0  0  0  0  0  0  0  0  0  0  0
  146.4100  139.6213  155.5033 C   0  0  0  0  0  0  0  0  0  0  0  0
  145.5962  139.1283  156.4751 N   0  0  0  0  0  0  0  0  0  0  0  0
  144.7548  138.1272  156.1990 C   0  0  0  0  0  0  0  0  0  0  0  0
  144.5720  137.4850  155.0429 N   0  0  0  0  0  0  0  0  0  0  0  0
  145.3883  137.9782  154.0679 C   0  0  0  0  0  0  0  0  0  0  0  0
  146.3281  139.0361  154.2124 C   0  0  0  0  0  0  0  0  0  0  0  0
  146.9828  139.2620  153.0082 N   0  0  0  0  0  0  0  0  0  0  0  0
  146.4603  138.3836  152.1958 C   0  0  0  0  0  0  0  0  0  0  0  0
  145.4975  137.5707  152.7502 N   0  0  0  0  0  0  0  0  0  0  0  0
  144.7650  136.5131  152.0761 C   0  0  0  0  0  0  0  0  0  0  0  0
  145.6992  135.4870  151.4053 C   0  0  1  0  0  0  0  0  0  0  0  0
  146.4927  134.8606  152.3949 O   0  0  0  0  0  0  0  0  0  0  0  0
  144.9187  134.4052  150.6364 C   0  0  2  0  0  0  0  0  0  0  0  0
  143.8319  133.7016  151.4523 C   0  0  0  0  0  0  0  0  0  0  0  0
  143.6997  132.3409  150.7849 C   0  0  0  0  0  0  0  0  0  0  0  0
  144.9410  132.2398  149.8950 C   0  0  0  0  0  0  0  0  0  0  0  0
  145.7697  133.3217  150.2948 O   0  0  0  0  0  0  0  0  0  0  0  0
  151.5521  141.1183  157.5286 H   0  0  0  0  0  0  0  0  0  0  0  0
  151.3244  141.3084  155.7924 H   0  0  0  0  0  0  0  0  0  0  0  0
  151.3621  139.6975  156.5080 H   0  0  0  0  0  0  0  0  0  0  0  0
  149.2370  140.2255  157.7686 H   0  0  0  0  0  0  0  0  0  0  0  0
  149.2304  141.8231  157.0705 H   0  0  0  0  0  0  0  0  0  0  0  0
  148.8350  139.1935  155.6071 H   0  0  0  0  0  0  0  0  0  0  0  0
  150.0646  141.5369  154.4900 H   0  0  0  0  0  0  0  0  0  0  0  0
  149.4801  140.1332  153.6121 H   0  0  0  0  0  0  0  0  0  0  0  0
  148.3228  142.6889  153.3954 H   0  0  0  0  0  0  0  0  0  0  0  0
  147.4996  141.1761  153.0158 H   0  0  0  0  0  0  0  0  0  0  0  0
  147.5348  142.6530  155.6637 H   0  0  0  0  0  0  0  0  0  0  0  0
  145.6344  143.2537  154.2333 H   0  0  0  0  0  0  0  0  0  0  0  0
  145.0699  142.3485  155.6311 H   0  0  0  0  0  0  0  0  0  0  0  0
  145.1728  141.5687  154.0507 H   0  0  0  0  0  0  0  0  0  0  0  0
  144.1424  137.7909  157.0225 H   0  0  0  0  0  0  0  0  0  0  0  0
  146.7669  138.3015  151.1629 H   0  0  0  0  0  0  0  0  0  0  0  0
  144.1093  136.0230  152.7972 H   0  0  0  0  0  0  0  0  0  0  0  0
  144.1158  136.9757  151.3319 H   0  0  0  0  0  0  0  0  0  0  0  0
  146.3684  136.0056  150.7173 H   0  0  0  0  0  0  0  0  0  0  0  0
  147.3496  135.2590  152.3882 H   0  0  0  0  0  0  0  0  0  0  0  0
  144.4891  134.8191  149.7217 H   0  0  0  0  0  0  0  0  0  0  0  0
  144.1596  133.5694  152.4844 H   0  0  0  0  0  0  0  0  0  0  0  0
  142.8942  134.2578  151.4679 H   0  0  0  0  0  0  0  0  0  0  0  0
  143.6728  131.5454  151.5302 H   0  0  0  0  0  0  0  0  0  0  0  0
  142.7899  132.2727  150.1874 H   0  0  0  0  0  0  0  0  0  0  0  0
  145.4586  131.2867  150.0034 H   0  0  0  0  0  0  0  0  0  0  0  0
  144.6714  132.3640  148.8453 H   0  0  0  0  0  0  0  0  0  0  0  0
  1  2  1  0  0  0  0
  1 26  1  0  0  0  0
  1 27  1  0  0  0  0
  1 28  1  0  0  0  0
  2  3  1  0  0  0  0
  2 29  1  0  0  0  0
  2 30  1  0  0  0  0
  3  8  1  0  0  0  0
  3  4  1  0  0  0  0
  3 31  1  0  0  0  0
  4  5  1  0  0  0  0
  4 32  1  0  0  0  0
  4 33  1  0  0  0  0
  5  6  1  0  0  0  0
  5 34  1  0  0  0  0
  5 35  1  0  0  0  0
  6  7  1  0  0  0  0
  6  8  1  0  0  0  0
  6 36  1  0  0  0  0
  7 37  1  0  0  0  0
  7 38  1  0  0  0  0
  7 39  1  0  0  0  0
  8  9  1  0  0  0  0
  9 14  1  0  0  0  0
  9 10  2  0  0  0  0
 10 11  1  0  0  0  0
 11 12  2  0  0  0  0
 11 40  1  0  0  0  0
 12 13  1  0  0  0  0
 13 17  1  0  0  0  0
 13 14  2  0  0  0  0
 14 15  1  0  0  0  0
 15 16  2  0  0  0  0
 16 17  1  0  0  0  0
 16 41  1  0  0  0  0
 17 18  1  0  0  0  0
 18 19  1  0  0  0  0
 18 42  1  0  0  0  0
 18 43  1  0  0  0  0
 19 20  1  0  0  0  0
 19 21  1  0  0  0  0
 19 44  1  0  0  0  0
 20 45  1  0  0  0  0
 21 25  1  0  0  0  0
 21 22  1  0  0  0  0
 21 46  1  0  0  0  0
 22 23  1  0  0  0  0
 22 47  1  0  0  0  0
 22 48  1  0  0  0  0
 23 24  1  0  0  0  0
 23 49  1  0  0  0  0
 23 50  1  0  0  0  0
 24 25  1  0  0  0  0
 24 51  1  0  0  0  0
 24 52  1  0  0  0  0
M  END
> <s_m_source_file>
AV-unprocessed.smi

> <i_m_source_file_index>
232

> <i_lp_mmshare_version>
43012

> <i_f3d_flags>
0

> <s_epik_input>
W0NIM11bQ0gyXVtDQEBIXTFbQ0gyXVtDSDJdW0NAQEhdKFtDSDNdKU4xYyhuW2NIXW4yKWMoYzIzKW5bY0hdbjNbQ0gyXVtDQEhdKFtPSF0pW0NAQEhdNFtDSDJdW0NIMl1bQ0gyXU80

> <s_epik_cmdline>
J2VwaWtfcHl0aG9uJywgJy1waCcsICc3LjAnLCAnLXRuJywgJzgnLCAnLW1hJywgJzIwMCcsICctbWV0YWxfYmluZGluZycsICctaW1hZScsICc8aW5maWxlLm1hZT4nLCAnLW9tYWUnLCAnPG91dGZpbGUubWFlPic=

> <r_lp_tautomer_probability>
1

> <r_epik_Ionization_Penalty>
0.00258048

> <r_epik_Ionization_Penalty_Charging>
0

> <r_epik_Ionization_Penalty_Neutral>
0.00258048

> <r_epik_State_Penalty>
0.00168551

> <r_epik_Charging_Adjusted_Penalty>
0.00168551

> <i_epik_Tot_Q>
0

> <i_epik_Tot_abs_Q>
0

> <r_epik_Metal_State_Penalty>
-0

> <b_epik_Metal_Only>
0

> <s_lp_Force_Field>
OPLS_2005

> <r_lp_Energy>
56.5001

> <b_lp_Chiralities_Consistent>
1

> <s_lp_Variant>
AV-unprocessed.smi:232-5

> <Gold.Version>
5.8.1

> <Gold.Id.Protein>
6NUR|6NUR_protein|mol2

> <Gold.PLP.Fitness>
39.7784

> <Gold.PLP.PLP>
-37.2049

> <Gold.PLP.part.hbond>
-1.0000

> <Gold.PLP.part.metal>
0.0000

> <Gold.PLP.part.buried>
-5.0208

> <Gold.PLP.part.nonpolar>
-32.4505

> <Gold.PLP.part.repulsive>
0.8451

> <Gold.PLP.ligand.clash>
0.0000

> <Gold.PLP.ligand.torsion>
0.2573

> <Gold.PLP.Chemscore.Hbond>
1.0000

> <Gold.PLP.Chemscore.CHOScore>
0.0000

> <Gold.PLP.Chemscore.Metal>
0.0000

> <Gold.Chemscore.Hbonds>
donor molecule, donor type, donor heavy atom, donor atom, acceptor molecule, acceptor atom, score
      L1  H    20    45       P1  7948  1.00

> <Gold.PLP.Chemscore.Internal.Correction>
0.0881

> <Gold.Rescore>
     Score         DG    S(hbond)    S(metal)    S(lipo)     H(rot)  DE(clash)    DE(int)     intcor
     10.69     -12.41       1.00        0.00      83.86       2.43       0.04       1.68       ----

> <Gold.Chemscore.Fitness>
10.6939

> <Gold.Chemscore.DG>
-12.4082

> <Gold.Chemscore.ZeroCoef>
-5.4800

> <Gold.Chemscore.Hbond>
0.9963

> <Gold.Chemscore.Metal>
0.0000

> <Gold.Chemscore.Lipo>
83.8574

> <Gold.Chemscore.Internal_Hbond>
0.0000

> <Gold.Chemscore.DEClash>
0.0357

> <Gold.Chemscore.DEInternal>
1.6786

> <Gold.Chemscore.Rot>
2.4260

> <Gold.Chemscore.Internal.Correction>
   9.000000E+99

> <Gold.Chemscore.Hbonds>
donor molecule, donor type, donor heavy atom, donor atom, acceptor molecule, acceptor atom, score
      L1  H    20    45       P1  7948  0.99

> <Gold.Chemscore.Hbond.Weighted>
-3.3276

> <Gold.Chemscore.Metal.Weighted>
-0.0000

> <Gold.Chemscore.Lipo.Weighted>
-9.8113

> <Gold.Chemscore.Internal_Hbond.Weighted>
0.0000

> <Gold.Chemscore.DEClash.Weighted>
0.0357

> <Gold.Chemscore.DEInternal.Weighted>
1.6786

> <Gold.Chemscore.Rot.Weighted>
6.2107

> <Gold.Chemscore.Internal.Correction.Weighted>
   9.000000E+99

> <Gold.Protein.RotatedTorsions>
[ 6907 6896 6895 6894 ] final -145.65 input  -60.11 | X-H torsion
[ 7974 7965 7964 7962 ] final  -91.47 input  175.53 | X-H torsion
[ 8008 7997 7996 7995 ] final  -97.83 input   59.86 | X-H torsion
[ 10167 10162 10161 10158 ] final -157.68 input  -65.29 | X-H torsion
[ 10718 10713 10712 10709 ] final -175.32 input   66.30 | X-H torsion
[ 10763 10752 10751 10750 ] final  -60.88 input  -60.55 | X-H torsion
[ 11005 11000 10999 10996 ] final -143.39 input  -57.11 | X-H torsion

> <Gold.Protein.ActiveResidues>
 VAL166  LYS551  ARG553  GLY616  TRP617  ASP618  TYR619  PRO620  LYS621  CYS622 
 ASP623  PHE694  ASN695  SER759  ASP760  ASP761  ALA762  ILE779  LEU786  VAL792 
 PHE793  MET794  SER795  GLU796  ALA797  LYS798  CYS799  TRP800  GLU811  SER814 

> <Gold.Protein.RotatedAtoms>
  151.1306  133.5039  159.2599 H   0  0  0  0  0  0  0  0  0  0  0  0  # atno 6907 bound_to 6896
  151.1761  135.0339  159.8782 H   0  0  0  0  0  0  0  0  0  0  0  0  # atno 6908 bound_to 6896
  152.5459  134.1164  159.8433 H   0  0  0  0  0  0  0  0  0  0  0  0  # atno 6909 bound_to 6896
  145.4126  140.9546  143.2225 H   0  0  0  0  0  0  0  0  0  0  0  0  # atno 7974 bound_to 7965
  154.7930  140.0460  157.1215 H   0  0  0  0  0  0  0  0  0  0  0  0  # atno 8008 bound_to 7997
  154.9569  140.3072  155.5029 H   0  0  0  0  0  0  0  0  0  0  0  0  # atno 8009 bound_to 7997
  156.2952  140.2278  156.4651 H   0  0  0  0  0  0  0  0  0  0  0  0  # atno 8010 bound_to 7997
  139.6752  143.9677  152.2306 H   0  0  0  0  0  0  0  0  0  0  0  0  # atno 10167 bound_to 10162
  156.7981  130.9542  151.3119 H   0  0  0  0  0  0  0  0  0  0  0  0  # atno 10718 bound_to 10713
  154.2760  135.6281  153.5328 H   0  0  0  0  0  0  0  0  0  0  0  0  # atno 10763 bound_to 10752
  152.9873  135.5621  154.5548 H   0  0  0  0  0  0  0  0  0  0  0  0  # atno 10764 bound_to 10752
  154.5128  135.2878  155.1304 H   0  0  0  0  0  0  0  0  0  0  0  0  # atno 10765 bound_to 10752
  140.8130  134.2721  157.4933 H   0  0  0  0  0  0  0  0  0  0  0  0  # atno 11005 bound_to 11000
  144.8298  139.5647  143.6949 LP  0  0  0  0  0  0  0  0  0  0  0  0  # atno 17320 bound_to 7965
  146.2697  139.6605  142.9305 LP  0  0  0  0  0  0  0  0  0  0  0  0  # atno 17321 bound_to 7965
  139.9452  144.6656  150.8227 LP  0  0  0  0  0  0  0  0  0  0  0  0  # atno 17342 bound_to 10162
  140.7632  143.3218  151.2604 LP  0  0  0  0  0  0  0  0  0  0  0  0  # atno 17343 bound_to 10162
  157.6567  130.8931  149.9744 LP  0  0  0  0  0  0  0  0  0  0  0  0  # atno 17370 bound_to 10713
  156.1118  130.3649  150.0036 LP  0  0  0  0  0  0  0  0  0  0  0  0  # atno 17371 bound_to 10713
  139.8713  134.9494  156.4023 LP  0  0  0  0  0  0  0  0  0  0  0  0  # atno 17394 bound_to 11000
  140.9178  133.7666  155.9869 LP  0  0  0  0  0  0  0  0  0  0  0  0  # atno 17395 bound_to 11000

$$$$
