AV-unprocessed.smi:460|AV-procd|sdf|2628|dock7
  -GOLD-   2262023 33D 1   1.00000     0.00000
 Structure written by MMmdl.
 47 49  0  0  0  0  0  0  0  0  2 V2000
  146.0142  137.4937  153.4337 C   0  0  0  0  0  0  0  0  0  0  0  0
  146.7077  138.6790  152.7433 C   0  0  0  0  0  0  0  0  0  0  0  0
  147.2251  139.7654  153.7101 C   0  0  2  0  0  0  0  0  0  0  0  0
  147.1194  141.0191  153.0710 O   0  0  0  0  0  0  0  0  0  0  0  0
  148.6264  139.5077  154.1794 C   0  0  0  0  0  0  0  0  0  0  0  0
  149.4229  138.4743  153.7807 N   0  3  0  0  0  0  0  0  0  0  0  0
  150.6601  138.5528  154.4184 C   0  0  0  0  0  0  0  0  0  0  0  0
  151.7759  137.7250  154.3458 C   0  0  0  0  0  0  0  0  0  0  0  0
  152.8866  138.0900  155.1345 C   0  0  0  0  0  0  0  0  0  0  0  0
  152.8596  139.2377  155.9533 C   0  0  0  0  0  0  0  0  0  0  0  0
  151.7226  140.0701  156.0165 C   0  0  0  0  0  0  0  0  0  0  0  0
  150.6290  139.7036  155.2315 C   0  0  0  0  0  0  0  0  0  0  0  0
  149.3659  140.2752  155.0345 N   0  0  0  0  0  0  0  0  0  0  0  0
  149.0387  141.5322  155.7259 C   0  0  0  0  0  0  0  0  0  0  0  0
  148.6866  141.3184  157.2044 C   0  0  0  0  0  0  0  0  0  0  0  0
  149.8252  140.7937  157.8710 O   0  0  0  0  0  0  0  0  0  0  0  0
  150.7330  141.6750  158.4170 C   0  0  0  0  0  0  0  0  0  0  0  0
  150.5727  143.0826  158.3839 C   0  0  0  0  0  0  0  0  0  0  0  0
  151.5462  143.9243  158.9518 C   0  0  0  0  0  0  0  0  0  0  0  0
  152.6878  143.3702  159.5554 C   0  0  0  0  0  0  0  0  0  0  0  0
  152.8557  141.9739  159.5942 C   0  0  0  0  0  0  0  0  0  0  0  0
  151.8796  141.1160  159.0273 C   0  0  0  0  0  0  0  0  0  0  0  0
  151.9698  139.7393  159.0425 O   0  0  0  0  0  0  0  0  0  0  0  0
  153.0407  139.1405  159.7561 C   0  0  0  0  0  0  0  0  0  0  0  0
  145.5888  136.8138  152.6953 H   0  0  0  0  0  0  0  0  0  0  0  0
  145.2038  137.8262  154.0797 H   0  0  0  0  0  0  0  0  0  0  0  0
  146.7082  136.9177  154.0451 H   0  0  0  0  0  0  0  0  0  0  0  0
  147.5309  138.2984  152.1370 H   0  0  0  0  0  0  0  0  0  0  0  0
  146.0049  139.1339  152.0441 H   0  0  0  0  0  0  0  0  0  0  0  0
  146.5641  139.7941  154.5751 H   0  0  0  0  0  0  0  0  0  0  0  0
  147.7801  141.0678  152.3969 H   0  0  0  0  0  0  0  0  0  0  0  0
  151.7973  136.8449  153.7201 H   0  0  0  0  0  0  0  0  0  0  0  0
  153.7761  137.4774  155.1118 H   0  0  0  0  0  0  0  0  0  0  0  0
  153.7290  139.4851  156.5451 H   0  0  0  0  0  0  0  0  0  0  0  0
  151.7141  140.9449  156.6495 H   0  0  0  0  0  0  0  0  0  0  0  0
  149.8778  142.2203  155.6248 H   0  0  0  0  0  0  0  0  0  0  0  0
  148.2041  141.9982  155.2010 H   0  0  0  0  0  0  0  0  0  0  0  0
  148.3729  142.2606  157.6561 H   0  0  0  0  0  0  0  0  0  0  0  0
  147.8560  140.6148  157.2779 H   0  0  0  0  0  0  0  0  0  0  0  0
  149.7123  143.5414  157.9216 H   0  0  0  0  0  0  0  0  0  0  0  0
  151.4175  144.9962  158.9216 H   0  0  0  0  0  0  0  0  0  0  0  0
  153.4356  144.0168  159.9906 H   0  0  0  0  0  0  0  0  0  0  0  0
  153.7428  141.5845  160.0700 H   0  0  0  0  0  0  0  0  0  0  0  0
  152.9867  138.0584  159.6396 H   0  0  0  0  0  0  0  0  0  0  0  0
  152.9821  139.3610  160.8228 H   0  0  0  0  0  0  0  0  0  0  0  0
  154.0082  139.4651  159.3708 H   0  0  0  0  0  0  0  0  0  0  0  0
  149.1300  137.7618  153.1248 H   0  0  0  0  0  0  0  0  0  0  0  0
  1  2  1  0  0  0  0
  1 25  1  0  0  0  0
  1 26  1  0  0  0  0
  1 27  1  0  0  0  0
  2  3  1  0  0  0  0
  2 28  1  0  0  0  0
  2 29  1  0  0  0  0
  3  4  1  0  0  0  0
  3  5  1  0  0  0  0
  3 30  1  0  0  0  0
  4 31  1  0  0  0  0
  5 13  1  0  0  0  0
  5  6  2  0  0  0  0
  6  7  1  0  0  0  0
  6 47  1  0  0  0  0
  7 12  2  0  0  0  0
  7  8  1  0  0  0  0
  8  9  2  0  0  0  0
  8 32  1  0  0  0  0
  9 10  1  0  0  0  0
  9 33  1  0  0  0  0
 10 11  2  0  0  0  0
 10 34  1  0  0  0  0
 11 12  1  0  0  0  0
 11 35  1  0  0  0  0
 12 13  1  0  0  0  0
 13 14  1  0  0  0  0
 14 15  1  0  0  0  0
 14 36  1  0  0  0  0
 14 37  1  0  0  0  0
 15 16  1  0  0  0  0
 15 38  1  0  0  0  0
 15 39  1  0  0  0  0
 16 17  1  0  0  0  0
 17 22  1  0  0  0  0
 17 18  2  0  0  0  0
 18 19  1  0  0  0  0
 18 40  1  0  0  0  0
 19 20  2  0  0  0  0
 19 41  1  0  0  0  0
 20 21  1  0  0  0  0
 20 42  1  0  0  0  0
 21 22  2  0  0  0  0
 21 43  1  0  0  0  0
 22 23  1  0  0  0  0
 23 24  1  0  0  0  0
 24 44  1  0  0  0  0
 24 45  1  0  0  0  0
 24 46  1  0  0  0  0
M  CHG  1   6   1
M  END
> <s_m_source_file>
AV-unprocessed.smi

> <i_m_source_file_index>
460

> <i_lp_mmshare_version>
43012

> <i_f3d_flags>
0

> <s_epik_input>
W2NIXTFbY0hdW2NIXVtjSF1jKGMxMiluKGMobjIpW0NAQEhdKFtPSF0pW0NIMl1bQ0gzXSlbQ0gyXVtDSDJdT2MzW2NIXVtjSF1bY0hdW2NIXWMzT1tDSDNd

> <s_epik_cmdline>
J2VwaWtfcHl0aG9uJywgJy1waCcsICc3LjAnLCAnLXRuJywgJzgnLCAnLW1hJywgJzIwMCcsICctbWV0YWxfYmluZGluZycsICctaW1hZScsICc8aW5maWxlLm1hZT4nLCAnLW9tYWUnLCAnPG91dGZpbGUubWFlPic=

> <r_lp_tautomer_probability>
1

> <r_epik_Ionization_Penalty>
1.48085

> <r_epik_Ionization_Penalty_Charging>
1.48083

> <r_epik_Ionization_Penalty_Neutral>
1.80167e-05

> <r_epik_State_Penalty>
1.56944

> <r_epik_Charging_Adjusted_Penalty>
3.05027

> <i_epik_Tot_Q>
1

> <i_epik_Tot_abs_Q>
1

> <r_epik_Metal_State_Penalty>
5.61877

> <b_epik_Metal_Only>
0

> <s_lp_Force_Field>
OPLS_2005

> <r_lp_Energy>
23.3046

> <b_lp_Chiralities_Consistent>
1

> <s_lp_Variant>
AV-unprocessed.smi:460-3

> <Gold.Version>
5.8.1

> <Gold.Id.Protein>
6NUR|6NUR_protein|mol2

> <Gold.PLP.Fitness>
51.9984

> <Gold.PLP.PLP>
-44.6721

> <Gold.PLP.part.hbond>
-3.0000

> <Gold.PLP.part.metal>
0.0000

> <Gold.PLP.part.buried>
8.0500

> <Gold.PLP.part.nonpolar>
-49.4779

> <Gold.PLP.part.repulsive>
0.1026

> <Gold.PLP.ligand.clash>
0.0000

> <Gold.PLP.ligand.torsion>
0.8620

> <Gold.PLP.Chemscore.Hbond>
2.9913

> <Gold.PLP.Chemscore.CHOScore>
0.0000

> <Gold.PLP.Chemscore.Metal>
0.0000

> <Gold.Chemscore.Hbonds>
donor molecule, donor type, donor heavy atom, donor atom, acceptor molecule, acceptor atom, score
      L1  H     4    31       P1  7957  0.05
      L1  H     6    47       P1  7948  2.00

> <Gold.PLP.Chemscore.Internal.Correction>
0.0767

> <Gold.Rescore>
     Score         DG    S(hbond)    S(metal)    S(lipo)     H(rot)  DE(clash)    DE(int)     intcor
     15.94     -21.17       1.81        0.00     135.95       2.45       2.69       2.55       ----

> <Gold.Chemscore.Fitness>
15.9425

> <Gold.Chemscore.DG>
-21.1739

> <Gold.Chemscore.ZeroCoef>
-5.4800

> <Gold.Chemscore.Hbond>
1.8105

> <Gold.Chemscore.Metal>
0.0000

> <Gold.Chemscore.Lipo>
135.9498

> <Gold.Chemscore.Internal_Hbond>
0.0000

> <Gold.Chemscore.DEClash>
2.6850

> <Gold.Chemscore.DEInternal>
2.5463

> <Gold.Chemscore.Rot>
2.4450

> <Gold.Chemscore.Internal.Correction>
   9.000000E+99

> <Gold.Chemscore.Hbonds>
donor molecule, donor type, donor heavy atom, donor atom, acceptor molecule, acceptor atom, score
      L1  H     4    31       P1  7957  0.09
      L1  H     6    47       P1  7948  0.98

> <Gold.Chemscore.Hbond.Weighted>
-6.0470

> <Gold.Chemscore.Metal.Weighted>
-0.0000

> <Gold.Chemscore.Lipo.Weighted>
-15.9061

> <Gold.Chemscore.Internal_Hbond.Weighted>
0.0000

> <Gold.Chemscore.DEClash.Weighted>
2.6850

> <Gold.Chemscore.DEInternal.Weighted>
2.5463

> <Gold.Chemscore.Rot.Weighted>
6.2593

> <Gold.Chemscore.Internal.Correction.Weighted>
   9.000000E+99

> <Gold.Protein.RotatedTorsions>
[ 6907 6896 6895 6894 ] final  150.23 input  -60.11 | X-H torsion
[ 7974 7965 7964 7962 ] final   88.38 input  175.53 | X-H torsion
[ 8008 7997 7996 7995 ] final   67.33 input   59.86 | X-H torsion
[ 10167 10162 10161 10158 ] final -155.02 input  -65.29 | X-H torsion
[ 10718 10713 10712 10709 ] final   51.35 input   66.30 | X-H torsion
[ 10763 10752 10751 10750 ] final   21.76 input  -60.55 | X-H torsion
[ 11005 11000 10999 10996 ] final -138.18 input  -57.11 | X-H torsion

> <Gold.Protein.ActiveResidues>
 VAL166  LYS551  ARG553  GLY616  TRP617  ASP618  TYR619  PRO620  LYS621  CYS622 
 ASP623  PHE694  ASN695  SER759  ASP760  ASP761  ALA762  ILE779  LEU786  VAL792 
 PHE793  MET794  SER795  GLU796  ALA797  LYS798  CYS799  TRP800  GLU811  SER814 

> <Gold.Protein.RotatedAtoms>
  152.1172  133.4333  159.4658 H   0  0  0  0  0  0  0  0  0  0  0  0  # atno 6907 bound_to 6896
  150.6870  134.2578  159.4546 H   0  0  0  0  0  0  0  0  0  0  0  0  # atno 6908 bound_to 6896
  152.0451  134.9687  160.0625 H   0  0  0  0  0  0  0  0  0  0  0  0  # atno 6909 bound_to 6896
  145.5464  139.2292  143.2537 H   0  0  0  0  0  0  0  0  0  0  0  0  # atno 7974 bound_to 7965
  155.6912  140.3496  155.4894 H   0  0  0  0  0  0  0  0  0  0  0  0  # atno 8008 bound_to 7997
  155.9523  140.1121  157.0989 H   0  0  0  0  0  0  0  0  0  0  0  0  # atno 8009 bound_to 7997
  154.4124  140.1192  156.5055 H   0  0  0  0  0  0  0  0  0  0  0  0  # atno 8010 bound_to 7997
  139.6965  143.9334  152.2409 H   0  0  0  0  0  0  0  0  0  0  0  0  # atno 10167 bound_to 10162
  157.4973  130.8414  149.8273 H   0  0  0  0  0  0  0  0  0  0  0  0  # atno 10718 bound_to 10713
  153.0969  135.6662  153.9746 H   0  0  0  0  0  0  0  0  0  0  0  0  # atno 10763 bound_to 10752
  153.9327  135.3002  155.3446 H   0  0  0  0  0  0  0  0  0  0  0  0  # atno 10764 bound_to 10752
  154.7388  135.5089  153.9162 H   0  0  0  0  0  0  0  0  0  0  0  0  # atno 10765 bound_to 10752
  140.8640  134.2133  157.4690 H   0  0  0  0  0  0  0  0  0  0  0  0  # atno 11005 bound_to 11000
  146.1946  140.6286  142.9130 LP  0  0  0  0  0  0  0  0  0  0  0  0  # atno 17320 bound_to 7965
  144.7551  140.5287  143.6774 LP  0  0  0  0  0  0  0  0  0  0  0  0  # atno 17321 bound_to 7965
  139.9164  144.6826  150.8507 LP  0  0  0  0  0  0  0  0  0  0  0  0  # atno 17342 bound_to 10162
  140.7698  143.3406  151.2216 LP  0  0  0  0  0  0  0  0  0  0  0  0  # atno 17343 bound_to 10162
  156.0208  130.3796  150.1969 LP  0  0  0  0  0  0  0  0  0  0  0  0  # atno 17370 bound_to 10713
  157.0158  130.9964  151.3353 LP  0  0  0  0  0  0  0  0  0  0  0  0  # atno 17371 bound_to 10713
  139.8708  134.9743  156.4841 LP  0  0  0  0  0  0  0  0  0  0  0  0  # atno 17394 bound_to 11000
  140.8650  133.8031  155.9304 LP  0  0  0  0  0  0  0  0  0  0  0  0  # atno 17395 bound_to 11000

$$$$
