AV-unprocessed.smi:177|AV-procd|sdf|1437|dock3
  -GOLD-   2262019223D 1   1.00000     0.00000
 Structure written by MMmdl.
 61 65  0  0  0  0  0  0  0  0  1 V2000
  155.2791  139.0796  161.9985 C   0  0  0  0  0  0  0  0  0  0  0  0
  154.2777  138.8330  161.0235 O   0  0  0  0  0  0  0  0  0  0  0  0
  154.0270  139.9258  160.1482 C   0  0  2  0  0  0  0  0  0  0  0  0
  153.6536  141.1352  161.0228 C   0  0  0  0  0  0  0  0  0  0  0  0
  153.2760  142.3524  160.1659 C   0  0  0  0  0  0  0  0  0  0  0  0
  152.1387  141.9998  159.1964 C   0  0  1  0  0  0  0  0  0  0  0  0
  151.8252  143.1418  158.4078 O   0  0  0  0  0  0  0  0  0  0  0  0
  150.7074  142.9012  157.5619 C   0  0  0  0  0  0  0  0  0  0  0  0
  151.0397  141.7598  156.5888 C   0  0  0  0  0  0  0  0  0  0  0  0
  151.4630  140.5646  157.3134 N   0  0  0  0  0  0  0  0  0  0  0  0
  151.6169  139.5300  156.4515 C   0  0  0  0  0  0  0  0  0  0  0  0
  152.6677  139.5017  155.5884 N   0  0  0  0  0  0  0  0  0  0  0  0
  152.8024  138.4865  154.7299 C   0  0  0  0  0  0  0  0  0  0  0  0
  152.0107  137.4252  154.5606 N   0  0  0  0  0  0  0  0  0  0  0  0
  150.9454  137.4606  155.4123 C   0  0  0  0  0  0  0  0  0  0  0  0
  150.6767  138.4674  156.3812 C   0  0  0  0  0  0  0  0  0  0  0  0
  149.5091  138.1669  157.0703 N   0  0  0  0  0  0  0  0  0  0  0  0
  149.1105  137.0426  156.5400 C   0  0  0  0  0  0  0  0  0  0  0  0
  149.9045  136.5543  155.5257 N   0  0  0  0  0  0  0  0  0  0  0  0
  149.7010  135.3231  154.7747 C   0  0  0  0  0  0  0  0  0  0  0  0
  149.8103  133.9999  155.5944 C   0  0  0  0  0  0  0  0  0  0  0  0
  148.7023  134.0352  156.6861 C   0  0  0  0  0  0  0  0  0  0  0  0
  147.4013  134.0972  156.1357 O   0  0  0  0  0  0  0  0  0  0  0  0
  149.6674  132.7508  154.6853 C   0  0  0  0  0  0  0  0  0  0  0  0
  149.9623  131.4379  155.4336 C   0  0  0  0  0  0  0  0  0  0  0  0
  151.2722  131.4804  155.9863 O   0  0  0  0  0  0  0  0  0  0  0  0
  151.4409  132.5230  156.9388 C   0  0  0  0  0  0  0  0  0  0  0  0
  151.2012  133.8910  156.2722 C   0  0  0  0  0  0  0  0  0  0  0  0
  152.5422  140.8243  158.2751 C   0  0  2  0  0  0  0  0  0  0  0  0
  152.8936  139.5966  159.1518 C   0  0  0  0  0  0  0  0  0  0  0  0
  155.3614  138.2159  162.6579 H   0  0  0  0  0  0  0  0  0  0  0  0
  155.0281  139.9442  162.6139 H   0  0  0  0  0  0  0  0  0  0  0  0
  156.2569  139.2433  161.5466 H   0  0  0  0  0  0  0  0  0  0  0  0
  154.9370  140.1733  159.5984 H   0  0  0  0  0  0  0  0  0  0  0  0
  152.8153  140.8748  161.6705 H   0  0  0  0  0  0  0  0  0  0  0  0
  154.4846  141.3896  161.6815 H   0  0  0  0  0  0  0  0  0  0  0  0
  152.9749  143.1795  160.8092 H   0  0  0  0  0  0  0  0  0  0  0  0
  154.1477  142.6943  159.6065 H   0  0  0  0  0  0  0  0  0  0  0  0
  151.2589  141.7255  159.7827 H   0  0  0  0  0  0  0  0  0  0  0  0
  149.8258  142.6607  158.1582 H   0  0  0  0  0  0  0  0  0  0  0  0
  150.4781  143.8120  157.0088 H   0  0  0  0  0  0  0  0  0  0  0  0
  150.1652  141.5422  155.9741 H   0  0  0  0  0  0  0  0  0  0  0  0
  151.8366  142.0718  155.9117 H   0  0  0  0  0  0  0  0  0  0  0  0
  153.6676  138.5326  154.0850 H   0  0  0  0  0  0  0  0  0  0  0  0
  148.2164  136.5360  156.8733 H   0  0  0  0  0  0  0  0  0  0  0  0
  148.7204  135.3831  154.3002 H   0  0  0  0  0  0  0  0  0  0  0  0
  150.4242  135.3219  153.9585 H   0  0  0  0  0  0  0  0  0  0  0  0
  148.7368  133.1647  157.3382 H   0  0  0  0  0  0  0  0  0  0  0  0
  148.8379  134.9028  157.3327 H   0  0  0  0  0  0  0  0  0  0  0  0
  146.8646  134.6386  156.6943 H   0  0  0  0  0  0  0  0  0  0  0  0
  148.6753  132.7100  154.2349 H   0  0  0  0  0  0  0  0  0  0  0  0
  150.3704  132.8098  153.8553 H   0  0  0  0  0  0  0  0  0  0  0  0
  149.2267  131.2437  156.2146 H   0  0  0  0  0  0  0  0  0  0  0  0
  149.9073  130.5978  154.7411 H   0  0  0  0  0  0  0  0  0  0  0  0
  150.7827  132.3648  157.7929 H   0  0  0  0  0  0  0  0  0  0  0  0
  152.4595  132.4761  157.3241 H   0  0  0  0  0  0  0  0  0  0  0  0
  151.9907  134.0224  155.5331 H   0  0  0  0  0  0  0  0  0  0  0  0
  151.3326  134.6906  157.0019 H   0  0  0  0  0  0  0  0  0  0  0  0
  153.4302  141.1204  157.7137 H   0  0  0  0  0  0  0  0  0  0  0  0
  153.1949  138.7571  158.5279 H   0  0  0  0  0  0  0  0  0  0  0  0
  152.0082  139.2691  159.6984 H   0  0  0  0  0  0  0  0  0  0  0  0
  1  2  1  0  0  0  0
  1 31  1  0  0  0  0
  1 32  1  0  0  0  0
  1 33  1  0  0  0  0
  2  3  1  0  0  0  0
  3 30  1  0  0  0  0
  3  4  1  0  0  0  0
  3 34  1  0  0  0  0
  4  5  1  0  0  0  0
  4 35  1  0  0  0  0
  4 36  1  0  0  0  0
  5  6  1  0  0  0  0
  5 37  1  0  0  0  0
  5 38  1  0  0  0  0
  6 29  1  0  0  0  0
  6  7  1  0  0  0  0
  6 39  1  0  0  0  0
  7  8  1  0  0  0  0
  8  9  1  0  0  0  0
  8 40  1  0  0  0  0
  8 41  1  0  0  0  0
  9 10  1  0  0  0  0
  9 42  1  0  0  0  0
  9 43  1  0  0  0  0
 10 11  1  0  0  0  0
 10 29  1  0  0  0  0
 11 16  1  0  0  0  0
 11 12  2  0  0  0  0
 12 13  1  0  0  0  0
 13 14  2  0  0  0  0
 13 44  1  0  0  0  0
 14 15  1  0  0  0  0
 15 19  1  0  0  0  0
 15 16  2  0  0  0  0
 16 17  1  0  0  0  0
 17 18  2  0  0  0  0
 18 19  1  0  0  0  0
 18 45  1  0  0  0  0
 19 20  1  0  0  0  0
 20 21  1  0  0  0  0
 20 46  1  0  0  0  0
 20 47  1  0  0  0  0
 21 28  1  0  0  0  0
 21 22  1  0  0  0  0
 21 24  1  0  0  0  0
 22 23  1  0  0  0  0
 22 48  1  0  0  0  0
 22 49  1  0  0  0  0
 23 50  1  0  0  0  0
 24 25  1  0  0  0  0
 24 51  1  0  0  0  0
 24 52  1  0  0  0  0
 25 26  1  0  0  0  0
 25 53  1  0  0  0  0
 25 54  1  0  0  0  0
 26 27  1  0  0  0  0
 27 28  1  0  0  0  0
 27 55  1  0  0  0  0
 27 56  1  0  0  0  0
 28 57  1  0  0  0  0
 28 58  1  0  0  0  0
 29 30  1  0  0  0  0
 29 59  1  0  0  0  0
 30 60  1  0  0  0  0
 30 61  1  0  0  0  0
M  END
> <s_m_source_file>
AV-unprocessed.smi

> <i_m_source_file_index>
177

> <i_lp_mmshare_version>
43012

> <i_f3d_flags>
0

> <s_epik_input>
W0NIM11PW0NASF0oW0NIMl1bQ0gyXTEpW0NIMl1bQ0BIXShbQ0BASF0xMilOKFtDSDJdW0NIMl1PMiljKG5bY0hdbjMpYyhjMzQpbltjSF1uNFtDSDJdQzUoW0NIMl1bT0hdKVtDSDJdW0NIMl1PW0NIMl1bQ0gyXTU=

> <s_epik_cmdline>
J2VwaWtfcHl0aG9uJywgJy1waCcsICc3LjAnLCAnLXRuJywgJzgnLCAnLW1hJywgJzIwMCcsICctbWV0YWxfYmluZGluZycsICctaW1hZScsICc8aW5maWxlLm1hZT4nLCAnLW9tYWUnLCAnPG91dGZpbGUubWFlPic=

> <r_lp_tautomer_probability>
1

> <r_epik_Ionization_Penalty>
0.0065899

> <r_epik_Ionization_Penalty_Charging>
0

> <r_epik_Ionization_Penalty_Neutral>
0.0065899

> <r_epik_State_Penalty>
0.00470042

> <r_epik_Charging_Adjusted_Penalty>
0.00470042

> <i_epik_Tot_Q>
0

> <i_epik_Tot_abs_Q>
0

> <r_epik_Metal_State_Penalty>
-0

> <b_epik_Metal_Only>
0

> <s_lp_Force_Field>
OPLS_2005

> <r_lp_Energy>
44.8058

> <b_lp_Chiralities_Consistent>
1

> <s_lp_Variant>
AV-unprocessed.smi:177-1

> <Gold.Version>
5.8.1

> <Gold.Id.Protein>
6NUR|6NUR_protein|mol2

> <Gold.PLP.Fitness>
49.2863

> <Gold.PLP.PLP>
-44.0251

> <Gold.PLP.part.hbond>
-2.0000

> <Gold.PLP.part.metal>
0.0000

> <Gold.PLP.part.buried>
-5.9433

> <Gold.PLP.part.nonpolar>
-35.5104

> <Gold.PLP.part.repulsive>
0.1572

> <Gold.PLP.ligand.clash>
0.0000

> <Gold.PLP.ligand.torsion>
0.2047

> <Gold.PLP.Chemscore.Hbond>
1.8320

> <Gold.PLP.Chemscore.CHOScore>
0.0000

> <Gold.PLP.Chemscore.Metal>
0.0000

> <Gold.Chemscore.Hbonds>
donor molecule, donor type, donor heavy atom, donor atom, acceptor molecule, acceptor atom, score
      P1  H  7997  8009       L1    12  1.00
      P1  H 10752 10763       L1    14  0.85

> <Gold.PLP.Chemscore.Internal.Correction>
0.1746

> <Gold.Rescore>
     Score         DG    S(hbond)    S(metal)    S(lipo)     H(rot)  DE(clash)    DE(int)     intcor
     16.42     -16.75       1.45        0.00     111.43       2.58       0.04       0.28       ----

> <Gold.Chemscore.Fitness>
16.4178

> <Gold.Chemscore.DG>
-16.7464

> <Gold.Chemscore.ZeroCoef>
-5.4800

> <Gold.Chemscore.Hbond>
1.4479

> <Gold.Chemscore.Metal>
0.0000

> <Gold.Chemscore.Lipo>
111.4258

> <Gold.Chemscore.Internal_Hbond>
0.0000

> <Gold.Chemscore.DEClash>
0.0442

> <Gold.Chemscore.DEInternal>
0.2843

> <Gold.Chemscore.Rot>
2.5806

> <Gold.Chemscore.Internal.Correction>
   9.000000E+99

> <Gold.Chemscore.Hbonds>
donor molecule, donor type, donor heavy atom, donor atom, acceptor molecule, acceptor atom, score
      P1  H  7997  8009       L1    12  0.75
      P1  H 10752 10763       L1    14  0.70

> <Gold.Chemscore.Hbond.Weighted>
-4.8359

> <Gold.Chemscore.Metal.Weighted>
-0.0000

> <Gold.Chemscore.Lipo.Weighted>
-13.0368

> <Gold.Chemscore.Internal_Hbond.Weighted>
0.0000

> <Gold.Chemscore.DEClash.Weighted>
0.0442

> <Gold.Chemscore.DEInternal.Weighted>
0.2843

> <Gold.Chemscore.Rot.Weighted>
6.6062

> <Gold.Chemscore.Internal.Correction.Weighted>
   9.000000E+99

> <Gold.Protein.RotatedTorsions>
[ 6907 6896 6895 6894 ] final  154.26 input  -60.11 | X-H torsion
[ 7974 7965 7964 7962 ] final  -83.10 input  175.53 | X-H torsion
[ 8008 7997 7996 7995 ] final -167.19 input   59.86 | X-H torsion
[ 10167 10162 10161 10158 ] final  106.43 input  -65.29 | X-H torsion
[ 10718 10713 10712 10709 ] final -175.99 input   66.30 | X-H torsion
[ 10763 10752 10751 10750 ] final   37.10 input  -60.55 | X-H torsion
[ 11005 11000 10999 10996 ] final   99.11 input  -57.11 | X-H torsion

> <Gold.Protein.ActiveResidues>
 VAL166  LYS551  ARG553  GLY616  TRP617  ASP618  TYR619  PRO620  LYS621  CYS622 
 ASP623  PHE694  ASN695  SER759  ASP760  ASP761  ALA762  ILE779  LEU786  VAL792 
 PHE793  MET794  SER795  GLU796  ALA797  LYS798  CYS799  TRP800  GLU811  SER814 

> <Gold.Protein.RotatedAtoms>
  152.0611  133.4062  159.4417 H   0  0  0  0  0  0  0  0  0  0  0  0  # atno 6907 bound_to 6896
  150.6866  134.3200  159.4791 H   0  0  0  0  0  0  0  0  0  0  0  0  # atno 6908 bound_to 6896
  152.1021  134.9334  160.0620 H   0  0  0  0  0  0  0  0  0  0  0  0  # atno 6909 bound_to 6896
  145.5245  140.9528  143.1637 H   0  0  0  0  0  0  0  0  0  0  0  0  # atno 7974 bound_to 7965
  155.8743  140.0998  157.1529 H   0  0  0  0  0  0  0  0  0  0  0  0  # atno 8008 bound_to 7997
  154.3999  140.1341  156.4180 H   0  0  0  0  0  0  0  0  0  0  0  0  # atno 8009 bound_to 7997
  155.7715  140.3461  155.5252 H   0  0  0  0  0  0  0  0  0  0  0  0  # atno 8010 bound_to 7997
  139.7010  144.7094  151.1186 H   0  0  0  0  0  0  0  0  0  0  0  0  # atno 10167 bound_to 10162
  156.8081  130.9576  151.3117 H   0  0  0  0  0  0  0  0  0  0  0  0  # atno 10718 bound_to 10713
  153.0051  135.6287  154.2090 H   0  0  0  0  0  0  0  0  0  0  0  0  # atno 10763 bound_to 10752
  154.1834  135.2812  155.3046 H   0  0  0  0  0  0  0  0  0  0  0  0  # atno 10764 bound_to 10752
  154.5817  135.5645  153.7251 H   0  0  0  0  0  0  0  0  0  0  0  0  # atno 10765 bound_to 10752
  139.8771  134.9080  156.4557 H   0  0  0  0  0  0  0  0  0  0  0  0  # atno 11005 bound_to 11000
  144.7658  139.6848  143.7215 LP  0  0  0  0  0  0  0  0  0  0  0  0  # atno 17320 bound_to 7965
  146.2084  139.5424  142.9697 LP  0  0  0  0  0  0  0  0  0  0  0  0  # atno 17321 bound_to 7965
  140.7709  143.5424  150.9297 LP  0  0  0  0  0  0  0  0  0  0  0  0  # atno 17342 bound_to 10162
  139.9106  143.6725  152.3116 LP  0  0  0  0  0  0  0  0  0  0  0  0  # atno 17343 bound_to 10162
  157.6520  130.8892  149.9652 LP  0  0  0  0  0  0  0  0  0  0  0  0  # atno 17370 bound_to 10713
  156.1061  130.3652  150.0131 LP  0  0  0  0  0  0  0  0  0  0  0  0  # atno 17371 bound_to 10713
  140.8900  133.7855  155.9561 LP  0  0  0  0  0  0  0  0  0  0  0  0  # atno 17394 bound_to 11000
  140.8764  134.2665  157.5166 LP  0  0  0  0  0  0  0  0  0  0  0  0  # atno 17395 bound_to 11000

$$$$
