AV-unprocessed.smi:1702|AV-procd|sdf|6847|dock5
  -GOLD-   22720 8 23D 1   1.00000     0.00000
 Structure written by MMmdl.
 44 46  0  0  0  0  0  0  0  0  2 V2000
  143.5669  141.5488  155.7492 C   0  0  0  0  0  0  0  0  0  0  0  0
  144.5066  142.7557  155.5832 C   0  0  2  0  0  0  0  0  0  0  0  0
  145.4287  142.6272  154.3568 C   0  0  0  0  0  0  0  0  0  0  0  0
  146.5620  141.6097  154.5824 C   0  0  0  0  0  0  0  0  0  0  0  0
  147.3501  141.9450  155.7959 N   0  3  2  0  0  0  0  0  0  0  0  0
  148.5414  141.0717  155.9572 C   0  0  0  0  0  0  0  0  0  0  0  0
  149.7529  141.5709  155.1449 C   0  0  2  0  0  0  0  0  0  0  0  0
  149.6736  141.0370  153.8366 O   0  0  0  0  0  0  0  0  0  0  0  0
  151.0879  141.1505  155.7901 C   0  0  0  0  0  0  0  0  0  0  0  0
  151.4288  141.9639  156.9441 N   0  0  0  0  0  0  0  0  0  0  0  0
  150.9962  143.2115  157.2098 C   0  0  0  0  0  0  0  0  0  0  0  0
  151.4333  143.7832  158.3277 N   0  0  0  0  0  0  0  0  0  0  0  0
  152.2428  142.7903  158.8519 C   0  0  0  0  0  0  0  0  0  0  0  0
  153.0095  142.7638  160.0387 C   0  0  0  0  0  0  0  0  0  0  0  0
  153.7689  141.6237  160.3741 C   0  0  0  0  0  0  0  0  0  0  0  0
  154.4977  141.6148  161.5152 F   0  0  0  0  0  0  0  0  0  0  0  0
  153.7735  140.4945  159.5284 C   0  0  0  0  0  0  0  0  0  0  0  0
  154.5050  139.4037  159.8574 F   0  0  0  0  0  0  0  0  0  0  0  0
  153.0180  140.4978  158.3402 C   0  0  0  0  0  0  0  0  0  0  0  0
  152.2610  141.6372  158.0100 C   0  0  0  0  0  0  0  0  0  0  0  0
  146.4894  141.9979  157.0074 C   0  0  0  0  0  0  0  0  0  0  0  0
  145.3571  143.0267  156.8376 C   0  0  0  0  0  0  0  0  0  0  0  0
  144.1134  140.6196  155.9077 H   0  0  0  0  0  0  0  0  0  0  0  0
  142.9434  141.4163  154.8645 H   0  0  0  0  0  0  0  0  0  0  0  0
  142.8997  141.6878  156.6001 H   0  0  0  0  0  0  0  0  0  0  0  0
  143.8664  143.6249  155.4255 H   0  0  0  0  0  0  0  0  0  0  0  0
  144.8494  142.3537  153.4743 H   0  0  0  0  0  0  0  0  0  0  0  0
  145.8682  143.6013  154.1381 H   0  0  0  0  0  0  0  0  0  0  0  0
  146.1611  140.5993  154.6714 H   0  0  0  0  0  0  0  0  0  0  0  0
  147.2151  141.6120  153.7089 H   0  0  0  0  0  0  0  0  0  0  0  0
  148.7921  140.9992  157.0167 H   0  0  0  0  0  0  0  0  0  0  0  0
  148.3059  140.0565  155.6335 H   0  0  0  0  0  0  0  0  0  0  0  0
  149.7354  142.6576  155.0669 H   0  0  0  0  0  0  0  0  0  0  0  0
  149.0908  140.2928  153.8462 H   0  0  0  0  0  0  0  0  0  0  0  0
  151.0376  140.1097  156.1130 H   0  0  0  0  0  0  0  0  0  0  0  0
  151.9014  141.2110  155.0659 H   0  0  0  0  0  0  0  0  0  0  0  0
  150.3237  143.7305  156.5424 H   0  0  0  0  0  0  0  0  0  0  0  0
  153.0140  143.6223  160.6937 H   0  0  0  0  0  0  0  0  0  0  0  0
  153.0220  139.6341  157.6927 H   0  0  0  0  0  0  0  0  0  0  0  0
  146.0776  141.0081  157.2086 H   0  0  0  0  0  0  0  0  0  0  0  0
  147.0804  142.2700  157.8808 H   0  0  0  0  0  0  0  0  0  0  0  0
  145.7947  144.0232  156.7634 H   0  0  0  0  0  0  0  0  0  0  0  0
  144.7261  143.0406  157.7270 H   0  0  0  0  0  0  0  0  0  0  0  0
  147.7066  142.8786  155.6472 H   0  0  0  0  0  0  0  0  0  0  0  0
  1  2  1  0  0  0  0
  1 23  1  0  0  0  0
  1 24  1  0  0  0  0
  1 25  1  0  0  0  0
  2 22  1  0  0  0  0
  2  3  1  0  0  0  0
  2 26  1  0  0  0  0
  3  4  1  0  0  0  0
  3 27  1  0  0  0  0
  3 28  1  0  0  0  0
  4  5  1  0  0  0  0
  4 29  1  0  0  0  0
  4 30  1  0  0  0  0
  5  6  1  0  0  0  0
  5 21  1  0  0  0  0
  5 44  1  0  0  0  0
  6  7  1  0  0  0  0
  6 31  1  0  0  0  0
  6 32  1  0  0  0  0
  7  8  1  0  0  0  0
  7  9  1  0  0  0  0
  7 33  1  0  0  0  0
  8 34  1  0  0  0  0
  9 10  1  0  0  0  0
  9 35  1  0  0  0  0
  9 36  1  0  0  0  0
 10 20  1  0  0  0  0
 10 11  1  0  0  0  0
 11 12  2  0  0  0  0
 11 37  1  0  0  0  0
 12 13  1  0  0  0  0
 13 20  2  0  0  0  0
 13 14  1  0  0  0  0
 14 15  2  0  0  0  0
 14 38  1  0  0  0  0
 15 16  1  0  0  0  0
 15 17  1  0  0  0  0
 17 18  1  0  0  0  0
 17 19  2  0  0  0  0
 19 20  1  0  0  0  0
 19 39  1  0  0  0  0
 21 22  1  0  0  0  0
 21 40  1  0  0  0  0
 21 41  1  0  0  0  0
 22 42  1  0  0  0  0
 22 43  1  0  0  0  0
M  CHG  1   5   1
M  END
> <s_m_source_file>
AV-unprocessed.smi

> <i_m_source_file_index>
1702

> <i_lp_mmshare_version>
43012

> <i_f3d_flags>
0

> <s_epik_input>
W0NIM11bQ0hdMVtDSDJdW0NIMl1OKFtDSDJdW0NIMl0xKVtDSDJdW0NASF0oW09IXSlbQ0gyXW4oW2NIXW4yKWMoYzIzKVtjSF1jKEYpYyhGKVtjSF0z

> <s_epik_cmdline>
J2VwaWtfcHl0aG9uJywgJy1waCcsICc3LjAnLCAnLXRuJywgJzgnLCAnLW1hJywgJzIwMCcsICctbWV0YWxfYmluZGluZycsICctaW1hZScsICc8aW5maWxlLm1hZT4nLCAnLW9tYWUnLCAnPG91dGZpbGUubWFlPic=

> <r_epik_Ionization_Penalty>
0.0135195

> <r_epik_Ionization_Penalty_Charging>
0.00181365

> <r_epik_Ionization_Penalty_Neutral>
0.0117059

> <r_epik_State_Penalty>
0.00902283

> <r_epik_Charging_Adjusted_Penalty>
0.0108365

> <i_epik_Tot_Q>
1

> <i_epik_Tot_abs_Q>
1

> <r_epik_Metal_State_Penalty>
9.09181e-06

> <b_epik_Metal_Only>
0

> <s_lp_Force_Field>
OPLS_2005

> <r_lp_Energy>
24.0829

> <b_lp_Chiralities_Consistent>
1

> <s_lp_Variant>
AV-unprocessed.smi:1702-3

> <Gold.Version>
5.8.1

> <Gold.Id.Protein>
6NUR|6NUR_protein|mol2

> <Gold.PLP.Fitness>
57.2522

> <Gold.PLP.PLP>
-46.7727

> <Gold.PLP.part.hbond>
-4.0000

> <Gold.PLP.part.metal>
0.0000

> <Gold.PLP.part.buried>
-2.7574

> <Gold.PLP.part.nonpolar>
-38.1771

> <Gold.PLP.part.repulsive>
0.1577

> <Gold.PLP.ligand.clash>
0.0000

> <Gold.PLP.ligand.torsion>
1.1344

> <Gold.PLP.Chemscore.Hbond>
3.2285

> <Gold.PLP.Chemscore.CHOScore>
1.0000

> <Gold.PLP.Chemscore.Metal>
0.0000

> <Gold.Chemscore.Hbonds>
donor molecule, donor type, donor heavy atom, donor atom, acceptor molecule, acceptor atom, score
      L1  H     5    44       P1  8028  1.37
      P1  H  7989  7998       L1     8  0.33
      P1  H  8011  8017       L1     8  0.89
      L1  C    11    37       P1  8028  0.78

> <Gold.PLP.Chemscore.Internal.Correction>
0.0628

> <Gold.Rescore>
     Score         DG    S(hbond)    S(metal)    S(lipo)     H(rot)  DE(clash)    DE(int)     intcor
     16.03     -17.07       1.80        0.00      97.27       2.26       0.18       0.86       ----

> <Gold.Chemscore.Fitness>
16.0324

> <Gold.Chemscore.DG>
-17.0728

> <Gold.Chemscore.ZeroCoef>
-5.4800

> <Gold.Chemscore.Hbond>
1.7973

> <Gold.Chemscore.Metal>
0.0000

> <Gold.Chemscore.Lipo>
97.2659

> <Gold.Chemscore.Internal_Hbond>
0.0000

> <Gold.Chemscore.DEClash>
0.1815

> <Gold.Chemscore.DEInternal>
0.8589

> <Gold.Chemscore.Rot>
2.2619

> <Gold.Chemscore.Internal.Correction>
   9.000000E+99

> <Gold.Chemscore.Hbonds>
donor molecule, donor type, donor heavy atom, donor atom, acceptor molecule, acceptor atom, score
      L1  H     5    44       P1  8028  0.33
      P1  H  7989  7998       L1     8  0.07
      P1  H  8011  8017       L1     8  0.73

> <Gold.Chemscore.Hbond.Weighted>
-6.0031

> <Gold.Chemscore.Metal.Weighted>
-0.0000

> <Gold.Chemscore.Lipo.Weighted>
-11.3801

> <Gold.Chemscore.Internal_Hbond.Weighted>
0.0000

> <Gold.Chemscore.DEClash.Weighted>
0.1815

> <Gold.Chemscore.DEInternal.Weighted>
0.8589

> <Gold.Chemscore.Rot.Weighted>
5.7904

> <Gold.Chemscore.Internal.Correction.Weighted>
   9.000000E+99

> <Gold.Protein.RotatedTorsions>
[ 6907 6896 6895 6894 ] final  -45.72 input  -60.11 | X-H torsion
[ 7974 7965 7964 7962 ] final   72.35 input  175.53 | X-H torsion
[ 8008 7997 7996 7995 ] final  163.37 input   59.86 | X-H torsion
[ 10167 10162 10161 10158 ] final  116.72 input  -65.29 | X-H torsion
[ 10718 10713 10712 10709 ] final   56.78 input   66.30 | X-H torsion
[ 10763 10752 10751 10750 ] final -143.99 input  -60.55 | X-H torsion
[ 11005 11000 10999 10996 ] final   24.39 input  -57.11 | X-H torsion

> <Gold.Protein.ActiveResidues>
 VAL166  LYS551  ARG553  GLY616  TRP617  ASP618  TYR619  PRO620  LYS621  CYS622 
 ASP623  PHE694  ASN695  SER759  ASP760  ASP761  ALA762  ILE779  LEU786  VAL792 
 PHE793  MET794  SER795  GLU796  ALA797  LYS798  CYS799  TRP800  GLU811  SER814 

> <Gold.Protein.RotatedAtoms>
  150.9189  134.8607  159.7475 H   0  0  0  0  0  0  0  0  0  0  0  0  # atno 6907 bound_to 6896
  152.4983  134.4247  159.9502 H   0  0  0  0  0  0  0  0  0  0  0  0  # atno 6908 bound_to 6896
  151.4283  133.3638  159.2800 H   0  0  0  0  0  0  0  0  0  0  0  0  # atno 6909 bound_to 6896
  145.7544  139.2774  143.1412 H   0  0  0  0  0  0  0  0  0  0  0  0  # atno 7974 bound_to 7965
  156.1962  140.1725  156.7993 H   0  0  0  0  0  0  0  0  0  0  0  0  # atno 8008 bound_to 7997
  154.5532  140.0713  156.8733 H   0  0  0  0  0  0  0  0  0  0  0  0  # atno 8009 bound_to 7997
  155.2988  140.3360  155.4251 H   0  0  0  0  0  0  0  0  0  0  0  0  # atno 8010 bound_to 7997
  139.6228  144.7103  151.2598 H   0  0  0  0  0  0  0  0  0  0  0  0  # atno 10167 bound_to 10162
  157.5460  130.8731  149.8891 H   0  0  0  0  0  0  0  0  0  0  0  0  # atno 10718 bound_to 10713
  154.8447  135.3452  154.6276 H   0  0  0  0  0  0  0  0  0  0  0  0  # atno 10763 bound_to 10752
  153.6885  135.6976  153.5101 H   0  0  0  0  0  0  0  0  0  0  0  0  # atno 10764 bound_to 10752
  153.2613  135.4322  155.0852 H   0  0  0  0  0  0  0  0  0  0  0  0  # atno 10765 bound_to 10752
  140.3593  134.2143  155.7673 H   0  0  0  0  0  0  0  0  0  0  0  0  # atno 11005 bound_to 11000
  146.0325  140.8244  142.9869 LP  0  0  0  0  0  0  0  0  0  0  0  0  # atno 17320 bound_to 7965
  144.6843  140.2790  143.7295 LP  0  0  0  0  0  0  0  0  0  0  0  0  # atno 17321 bound_to 7965
  140.7392  143.6624  150.8152 LP  0  0  0  0  0  0  0  0  0  0  0  0  # atno 17342 bound_to 10162
  140.0238  143.5515  152.2789 LP  0  0  0  0  0  0  0  0  0  0  0  0  # atno 17343 bound_to 10162
  156.0536  130.3713  150.1144 LP  0  0  0  0  0  0  0  0  0  0  0  0  # atno 17370 bound_to 10713
  156.9320  130.9717  151.3531 LP  0  0  0  0  0  0  0  0  0  0  0  0  # atno 17371 bound_to 10713
  141.1989  133.8024  157.0561 LP  0  0  0  0  0  0  0  0  0  0  0  0  # atno 17394 bound_to 11000
  140.0640  134.9739  157.1354 LP  0  0  0  0  0  0  0  0  0  0  0  0  # atno 17395 bound_to 11000

$$$$
