AV-unprocessed.smi:840|AV-procd|sdf|3913|dock1
  -GOLD-   22720 1373D 1   1.00000     0.00000
 Structure written by MMmdl.
 36 37  0  0  0  0  0  0  0  0  2 V2000
  151.3873  137.8604  158.7522 C   0  0  0  0  0  0  0  0  0  0  0  0
  151.0189  139.3096  158.3932 C   0  0  2  0  0  0  0  0  0  0  0  0
  150.8259  139.3831  156.9452 N   0  0  0  0  0  0  0  0  0  0  0  0
  150.6689  140.5051  156.2260 C   0  0  0  0  0  0  0  0  0  0  0  0
  150.6811  141.6028  156.7887 O   0  0  0  0  0  0  0  0  0  0  0  0
  150.5050  140.2849  154.9016 N   0  5  0  0  0  0  0  0  0  0  0  0
  149.2696  140.1939  154.3830 C   0  0  0  0  0  0  0  0  0  0  0  0
  148.7003  139.0279  154.0566 N   0  0  0  0  0  0  0  0  0  0  0  0
  147.4096  139.1648  153.5428 C   0  0  0  0  0  0  0  0  0  0  0  0
  146.9825  140.4649  153.4840 C   0  0  0  0  0  0  0  0  0  0  0  0
  148.1969  141.5626  154.0752 S   0  0  0  0  0  0  0  0  0  0  0  0
  152.1739  140.2230  158.8332 C   0  0  0  0  0  0  0  0  0  0  0  0
  153.3423  139.9301  158.5736 O   0  0  0  0  0  0  0  0  0  0  0  0
  151.8264  141.3247  159.5152 N   0  0  0  0  0  0  0  0  0  0  0  0
  152.7563  142.3315  160.0184 C   0  0  0  0  0  0  0  0  0  0  0  0
  152.6181  142.4897  161.5451 C   0  0  0  0  0  0  0  0  0  0  0  0
  152.4945  143.9921  161.8078 C   0  0  0  0  0  0  0  0  0  0  0  0
  151.8444  144.5451  160.5438 C   0  0  0  0  0  0  0  0  0  0  0  0
  152.4631  143.7199  159.4155 C   0  0  0  0  0  0  0  0  0  0  0  0
  151.5429  137.7455  159.8258 H   0  0  0  0  0  0  0  0  0  0  0  0
  152.2972  137.5345  158.2460 H   0  0  0  0  0  0  0  0  0  0  0  0
  150.5889  137.1753  158.4655 H   0  0  0  0  0  0  0  0  0  0  0  0
  150.0961  139.5879  158.9064 H   0  0  0  0  0  0  0  0  0  0  0  0
  150.8198  138.5079  156.4426 H   0  0  0  0  0  0  0  0  0  0  0  0
  146.8659  138.2808  153.2449 H   0  0  0  0  0  0  0  0  0  0  0  0
  146.0342  140.8422  153.1325 H   0  0  0  0  0  0  0  0  0  0  0  0
  150.8437  141.4862  159.6808 H   0  0  0  0  0  0  0  0  0  0  0  0
  153.7793  142.0378  159.7751 H   0  0  0  0  0  0  0  0  0  0  0  0
  151.7159  141.9919  161.9047 H   0  0  0  0  0  0  0  0  0  0  0  0
  153.4609  142.0525  162.0815 H   0  0  0  0  0  0  0  0  0  0  0  0
  151.9209  144.2153  162.7079 H   0  0  0  0  0  0  0  0  0  0  0  0
  153.4878  144.4267  161.9286 H   0  0  0  0  0  0  0  0  0  0  0  0
  150.7679  144.3720  160.5777 H   0  0  0  0  0  0  0  0  0  0  0  0
  152.0073  145.6161  160.4194 H   0  0  0  0  0  0  0  0  0  0  0  0
  153.4021  144.1812  159.1070 H   0  0  0  0  0  0  0  0  0  0  0  0
  151.8200  143.6865  158.5345 H   0  0  0  0  0  0  0  0  0  0  0  0
  1  2  1  0  0  0  0
  1 20  1  0  0  0  0
  1 21  1  0  0  0  0
  1 22  1  0  0  0  0
  2  3  1  0  0  0  0
  2 12  1  0  0  0  0
  2 23  1  0  0  0  0
  3  4  1  0  0  0  0
  3 24  1  0  0  0  0
  4  5  2  0  0  0  0
  4  6  1  0  0  0  0
  6  7  1  0  0  0  0
  7 11  1  0  0  0  0
  7  8  2  0  0  0  0
  8  9  1  0  0  0  0
  9 10  2  0  0  0  0
  9 25  1  0  0  0  0
 10 11  1  0  0  0  0
 10 26  1  0  0  0  0
 12 13  2  0  0  0  0
 12 14  1  0  0  0  0
 14 15  1  0  0  0  0
 14 27  1  0  0  0  0
 15 19  1  0  0  0  0
 15 16  1  0  0  0  0
 15 28  1  0  0  0  0
 16 17  1  0  0  0  0
 16 29  1  0  0  0  0
 16 30  1  0  0  0  0
 17 18  1  0  0  0  0
 17 31  1  0  0  0  0
 17 32  1  0  0  0  0
 18 19  1  0  0  0  0
 18 33  1  0  0  0  0
 18 34  1  0  0  0  0
 19 35  1  0  0  0  0
 19 36  1  0  0  0  0
M  CHG  1   6  -1
M  END
> <s_m_source_file>
AV-unprocessed.smi

> <i_m_source_file_index>
840

> <i_lp_mmshare_version>
43012

> <i_f3d_flags>
0

> <s_epik_input>
W0NIMl0xW0NIMl1bQ0gyXVtDSDJdW0NIXTFbTkhdQyg9TylbQ0BIXShbQ0gzXSlbTkhdQyg9TylbTkhdYzJuW2NIXVtjSF1zMg==

> <s_epik_cmdline>
J2VwaWtfcHl0aG9uJywgJy1waCcsICc3LjAnLCAnLXRuJywgJzgnLCAnLW1hJywgJzIwMCcsICctbWV0YWxfYmluZGluZycsICctaW1hZScsICc8aW5maWxlLm1hZT4nLCAnLW9tYWUnLCAnPG91dGZpbGUubWFlPic=

> <r_lp_tautomer_probability>
1

> <r_epik_Ionization_Penalty>
6.35467

> <r_epik_Ionization_Penalty_Charging>
5.47395

> <r_epik_Ionization_Penalty_Neutral>
0.880717

> <r_epik_State_Penalty>
5.4739

> <r_epik_Charging_Adjusted_Penalty>
10.9479

> <i_epik_Tot_Q>
-1

> <i_epik_Tot_abs_Q>
1

> <r_epik_Metal_State_Penalty>
1.48639

> <b_epik_Metal_Only>
1

> <s_lp_Force_Field>
OPLS_2005

> <r_lp_Energy>
14.0087

> <b_lp_Chiralities_Consistent>
1

> <s_lp_Variant>
AV-unprocessed.smi:840-3

> <Gold.Version>
5.8.1

> <Gold.Id.Protein>
6NUR|6NUR_protein|mol2

> <Gold.PLP.Fitness>
46.0033

> <Gold.PLP.PLP>
-40.4338

> <Gold.PLP.part.hbond>
-2.0000

> <Gold.PLP.part.metal>
0.0000

> <Gold.PLP.part.buried>
-5.8068

> <Gold.PLP.part.nonpolar>
-33.0867

> <Gold.PLP.part.repulsive>
0.5166

> <Gold.PLP.ligand.clash>
0.0000

> <Gold.PLP.ligand.torsion>
1.7997

> <Gold.PLP.Chemscore.Hbond>
2.0000

> <Gold.PLP.Chemscore.CHOScore>
0.9838

> <Gold.PLP.Chemscore.Metal>
0.0000

> <Gold.Chemscore.Hbonds>
donor molecule, donor type, donor heavy atom, donor atom, acceptor molecule, acceptor atom, score
      P1  H  7989  7998       L1     6  1.00
      P1  H  7997  8009       L1    13  0.99
      L1  C    10    26       P1 10175  1.00

> <Gold.PLP.Chemscore.Internal.Correction>
0.2173

> <Gold.Rescore>
     Score         DG    S(hbond)    S(metal)    S(lipo)     H(rot)  DE(clash)    DE(int)     intcor
     14.48     -16.95       1.66        0.00      86.12       1.62       0.01       2.46       ----

> <Gold.Chemscore.Fitness>
14.4776

> <Gold.Chemscore.DG>
-16.9484

> <Gold.Chemscore.ZeroCoef>
-5.4800

> <Gold.Chemscore.Hbond>
1.6588

> <Gold.Chemscore.Metal>
0.0000

> <Gold.Chemscore.Lipo>
86.1199

> <Gold.Chemscore.Internal_Hbond>
0.0000

> <Gold.Chemscore.DEClash>
0.0133

> <Gold.Chemscore.DEInternal>
2.4575

> <Gold.Chemscore.Rot>
1.6204

> <Gold.Chemscore.Internal.Correction>
   9.000000E+99

> <Gold.Chemscore.Hbonds>
donor molecule, donor type, donor heavy atom, donor atom, acceptor molecule, acceptor atom, score
      P1  H  7989  7998       L1     6  0.54
      P1  H  7997  8009       L1    13  0.90

> <Gold.Chemscore.Hbond.Weighted>
-5.5405

> <Gold.Chemscore.Metal.Weighted>
-0.0000

> <Gold.Chemscore.Lipo.Weighted>
-10.0760

> <Gold.Chemscore.Internal_Hbond.Weighted>
0.0000

> <Gold.Chemscore.DEClash.Weighted>
0.0133

> <Gold.Chemscore.DEInternal.Weighted>
2.4575

> <Gold.Chemscore.Rot.Weighted>
4.1481

> <Gold.Chemscore.Internal.Correction.Weighted>
   9.000000E+99

> <Gold.Protein.RotatedTorsions>
[ 6907 6896 6895 6894 ] final   82.90 input  -60.11 | X-H torsion
[ 7974 7965 7964 7962 ] final    5.23 input  175.53 | X-H torsion
[ 8008 7997 7996 7995 ] final  136.36 input   59.86 | X-H torsion
[ 10167 10162 10161 10158 ] final  135.58 input  -65.29 | X-H torsion
[ 10718 10713 10712 10709 ] final  -35.69 input   66.30 | X-H torsion
[ 10763 10752 10751 10750 ] final  164.92 input  -60.55 | X-H torsion
[ 11005 11000 10999 10996 ] final  157.25 input  -57.11 | X-H torsion

> <Gold.Protein.ActiveResidues>
 VAL166  LYS551  ARG553  GLY616  TRP617  ASP618  TYR619  PRO620  LYS621  CYS622 
 ASP623  PHE694  ASN695  SER759  ASP760  ASP761  ALA762  ILE779  LEU786  VAL792 
 PHE793  MET794  SER795  GLU796  ALA797  LYS798  CYS799  TRP800  GLU811  SER814 

> <Gold.Protein.RotatedAtoms>
  152.5312  134.2978  159.9066 H   0  0  0  0  0  0  0  0  0  0  0  0  # atno 6907 bound_to 6896
  151.2929  133.4150  159.2642 H   0  0  0  0  0  0  0  0  0  0  0  0  # atno 6908 bound_to 6896
  151.0185  134.9467  159.8103 H   0  0  0  0  0  0  0  0  0  0  0  0  # atno 6909 bound_to 6896
  146.2441  140.0415  142.8382 H   0  0  0  0  0  0  0  0  0  0  0  0  # atno 7974 bound_to 7965
  156.3004  140.2447  156.3732 H   0  0  0  0  0  0  0  0  0  0  0  0  # atno 8008 bound_to 7997
  154.8769  140.0414  157.1778 H   0  0  0  0  0  0  0  0  0  0  0  0  # atno 8009 bound_to 7997
  154.8736  140.2939  155.5470 H   0  0  0  0  0  0  0  0  0  0  0  0  # atno 8010 bound_to 7997
  139.5212  144.6510  151.5303 H   0  0  0  0  0  0  0  0  0  0  0  0  # atno 10167 bound_to 10162
  156.3356  130.4286  149.7833 H   0  0  0  0  0  0  0  0  0  0  0  0  # atno 10718 bound_to 10713
  154.3163  135.2756  155.2541 H   0  0  0  0  0  0  0  0  0  0  0  0  # atno 10763 bound_to 10752
  154.4915  135.5832  153.6466 H   0  0  0  0  0  0  0  0  0  0  0  0  # atno 10764 bound_to 10752
  152.9882  135.6135  154.3344 H   0  0  0  0  0  0  0  0  0  0  0  0  # atno 10765 bound_to 10752
  140.1752  134.8515  157.2738 H   0  0  0  0  0  0  0  0  0  0  0  0  # atno 11005 bound_to 11000
  145.1065  140.9379  143.4681 LP  0  0  0  0  0  0  0  0  0  0  0  0  # atno 17320 bound_to 7965
  145.0619  139.3099  143.5876 LP  0  0  0  0  0  0  0  0  0  0  0  0  # atno 17321 bound_to 7965
  140.6314  143.9068  150.6609 LP  0  0  0  0  0  0  0  0  0  0  0  0  # atno 17342 bound_to 10162
  140.2373  143.3690  152.1516 LP  0  0  0  0  0  0  0  0  0  0  0  0  # atno 17343 bound_to 10162
  156.5089  130.8163  151.3161 LP  0  0  0  0  0  0  0  0  0  0  0  0  # atno 17370 bound_to 10713
  157.7438  130.9920  150.2622 LP  0  0  0  0  0  0  0  0  0  0  0  0  # atno 17371 bound_to 10713
  140.2331  134.3885  155.7513 LP  0  0  0  0  0  0  0  0  0  0  0  0  # atno 17394 bound_to 11000
  141.2220  133.7225  156.8672 LP  0  0  0  0  0  0  0  0  0  0  0  0  # atno 17395 bound_to 11000

$$$$
