AV-unprocessed.smi:1648|AV-procd|sdf|6630|dock7
  -GOLD-   22720 7333D 1   1.00000     0.00000
 Structure written by MMmdl.
 42 42  0  0  0  0  0  0  0  0  2 V2000
  150.5272  137.8481  154.3862 C   0  0  0  0  0  0  0  0  0  0  0  0
  150.0455  136.6544  155.2130 C   0  0  0  0  0  0  0  0  0  0  0  0
  150.2182  136.6554  156.4294 O   0  0  0  0  0  0  0  0  0  0  0  0
  149.4386  135.6264  154.5948 N   0  0  0  0  0  0  0  0  0  0  0  0
  148.9128  134.4055  155.2107 C   0  0  1  0  0  0  0  0  0  0  0  0
  147.5810  134.0804  154.5109 C   0  0  0  0  0  0  0  0  0  0  0  0
  146.7924  133.2783  155.0134 O   0  0  0  0  0  0  0  0  0  0  0  0
  147.3539  134.7014  153.3425 N   0  0  0  0  0  0  0  0  0  0  0  0
  146.1822  134.5095  152.4891 C   0  0  1  0  0  0  0  0  0  0  0  0
  145.9727  135.7740  151.6460 C   0  0  0  0  0  0  0  0  0  0  0  0
  146.3441  133.2612  151.5929 C   0  0  0  0  0  0  0  0  0  0  0  0
  145.2162  133.0572  150.6759 N   0  0  0  0  0  0  0  0  0  0  0  0
  145.2253  132.3757  149.4856 C   0  0  0  0  0  0  0  0  0  0  0  0
  143.9550  132.4602  148.9766 C   0  0  0  0  0  0  0  0  0  0  0  0
  143.2215  133.1791  149.8818 N   0  3  0  0  0  0  0  0  0  0  0  0
  143.9875  133.5325  150.9185 C   0  0  0  0  0  0  0  0  0  0  0  0
  149.9286  133.2469  154.9878 C   0  0  0  0  0  0  0  0  0  0  0  0
  149.2417  131.8848  154.7567 C   0  0  0  0  0  0  0  0  0  0  0  0
  150.9177  133.1192  156.1632 C   0  0  0  0  0  0  0  0  0  0  0  0
  151.1812  137.5304  153.5749 H   0  0  0  0  0  0  0  0  0  0  0  0
  151.0841  138.5478  155.0103 H   0  0  0  0  0  0  0  0  0  0  0  0
  149.6773  138.3814  153.9597 H   0  0  0  0  0  0  0  0  0  0  0  0
  149.2781  135.7215  153.6022 H   0  0  0  0  0  0  0  0  0  0  0  0
  148.7583  134.5420  156.2825 H   0  0  0  0  0  0  0  0  0  0  0  0
  148.0531  135.3513  153.0126 H   0  0  0  0  0  0  0  0  0  0  0  0
  145.2924  134.3867  153.1093 H   0  0  0  0  0  0  0  0  0  0  0  0
  145.0845  135.6849  151.0198 H   0  0  0  0  0  0  0  0  0  0  0  0
  146.8241  135.9614  150.9903 H   0  0  0  0  0  0  0  0  0  0  0  0
  145.8403  136.6518  152.2794 H   0  0  0  0  0  0  0  0  0  0  0  0
  147.2397  133.3540  150.9772 H   0  0  0  0  0  0  0  0  0  0  0  0
  146.4704  132.3625  152.1990 H   0  0  0  0  0  0  0  0  0  0  0  0
  146.1144  131.9027  149.0945 H   0  0  0  0  0  0  0  0  0  0  0  0
  143.5295  132.0723  148.0624 H   0  0  0  0  0  0  0  0  0  0  0  0
  143.6743  134.0989  151.7769 H   0  0  0  0  0  0  0  0  0  0  0  0
  150.5207  133.4659  154.0975 H   0  0  0  0  0  0  0  0  0  0  0  0
  148.6001  131.6193  155.5975 H   0  0  0  0  0  0  0  0  0  0  0  0
  149.9789  131.0899  154.6405 H   0  0  0  0  0  0  0  0  0  0  0  0
  148.6294  131.8788  153.8547 H   0  0  0  0  0  0  0  0  0  0  0  0
  150.3940  132.9280  157.1003 H   0  0  0  0  0  0  0  0  0  0  0  0
  151.5154  134.0214  156.2940 H   0  0  0  0  0  0  0  0  0  0  0  0
  151.6160  132.2976  156.0012 H   0  0  0  0  0  0  0  0  0  0  0  0
  142.2406  133.4096  149.7839 H   0  0  0  0  0  0  0  0  0  0  0  0
  1  2  1  0  0  0  0
  1 20  1  0  0  0  0
  1 21  1  0  0  0  0
  1 22  1  0  0  0  0
  2  3  2  0  0  0  0
  2  4  1  0  0  0  0
  4  5  1  0  0  0  0
  4 23  1  0  0  0  0
  5  6  1  0  0  0  0
  5 17  1  0  0  0  0
  5 24  1  0  0  0  0
  6  7  2  0  0  0  0
  6  8  1  0  0  0  0
  8  9  1  0  0  0  0
  8 25  1  0  0  0  0
  9 10  1  0  0  0  0
  9 11  1  0  0  0  0
  9 26  1  0  0  0  0
 10 27  1  0  0  0  0
 10 28  1  0  0  0  0
 10 29  1  0  0  0  0
 11 12  1  0  0  0  0
 11 30  1  0  0  0  0
 11 31  1  0  0  0  0
 12 16  1  0  0  0  0
 12 13  1  0  0  0  0
 13 14  2  0  0  0  0
 13 32  1  0  0  0  0
 14 15  1  0  0  0  0
 14 33  1  0  0  0  0
 15 16  2  0  0  0  0
 15 42  1  0  0  0  0
 16 34  1  0  0  0  0
 17 18  1  0  0  0  0
 17 19  1  0  0  0  0
 17 35  1  0  0  0  0
 18 36  1  0  0  0  0
 18 37  1  0  0  0  0
 18 38  1  0  0  0  0
 19 39  1  0  0  0  0
 19 40  1  0  0  0  0
 19 41  1  0  0  0  0
M  CHG  1  15   1
M  END
> <s_m_source_file>
AV-unprocessed.smi

> <i_m_source_file_index>
1648

> <i_lp_mmshare_version>
43012

> <i_f3d_flags>
0

> <s_epik_input>
W0NIM11DKD1PKVtOSF1bQ0BASF0oW0NIXShbQ0gzXSlbQ0gzXSlDKD1PKVtOSF1bQ0BIXShbQ0gzXSlbQ0gyXW4xW2NIXVtjSF1uW2NIXTE=

> <s_epik_cmdline>
J2VwaWtfcHl0aG9uJywgJy1waCcsICc3LjAnLCAnLXRuJywgJzgnLCAnLW1hJywgJzIwMCcsICctbWV0YWxfYmluZGluZycsICctaW1hZScsICc8aW5maWxlLm1hZT4nLCAnLW9tYWUnLCAnPG91dGZpbGUubWFlPic=

> <r_lp_tautomer_probability>
1

> <r_epik_Ionization_Penalty>
0.251562

> <r_epik_Ionization_Penalty_Charging>
0

> <r_epik_Ionization_Penalty_Neutral>
0.251562

> <r_epik_State_Penalty>
0.242926

> <r_epik_Charging_Adjusted_Penalty>
0.242926

> <i_epik_Tot_Q>
1

> <i_epik_Tot_abs_Q>
1

> <r_epik_Metal_State_Penalty>
0.53388

> <b_epik_Metal_Only>
0

> <s_lp_Force_Field>
OPLS_2005

> <r_lp_Energy>
9.97271

> <b_lp_Chiralities_Consistent>
1

> <s_lp_Variant>
AV-unprocessed.smi:1648-4

> <Gold.Version>
5.8.1

> <Gold.Id.Protein>
6NUR|6NUR_protein|mol2

> <Gold.PLP.Fitness>
39.9512

> <Gold.PLP.PLP>
-32.4010

> <Gold.PLP.part.hbond>
-3.0000

> <Gold.PLP.part.metal>
0.0000

> <Gold.PLP.part.buried>
-3.1577

> <Gold.PLP.part.nonpolar>
-26.7293

> <Gold.PLP.part.repulsive>
0.1415

> <Gold.PLP.ligand.clash>
0.0000

> <Gold.PLP.ligand.torsion>
2.2577

> <Gold.PLP.Chemscore.Hbond>
4.0000

> <Gold.PLP.Chemscore.CHOScore>
0.0000

> <Gold.PLP.Chemscore.Metal>
0.0000

> <Gold.Chemscore.Hbonds>
donor molecule, donor type, donor heavy atom, donor atom, acceptor molecule, acceptor atom, score
      L1  H     4    23       P1  7948  1.00
      L1  H     8    25       P1  7948  1.00
      L1  H    15    42       P1 10186  2.00

> <Gold.PLP.Chemscore.Internal.Correction>
0.0655

> <Gold.Rescore>
     Score         DG    S(hbond)    S(metal)    S(lipo)     H(rot)  DE(clash)    DE(int)     intcor
     12.58     -16.33       2.85        0.00      68.57       2.61       0.17       3.58       ----

> <Gold.Chemscore.Fitness>
12.5840

> <Gold.Chemscore.DG>
-16.3336

> <Gold.Chemscore.ZeroCoef>
-5.4800

> <Gold.Chemscore.Hbond>
2.8508

> <Gold.Chemscore.Metal>
0.0000

> <Gold.Chemscore.Lipo>
68.5686

> <Gold.Chemscore.Internal_Hbond>
0.0000

> <Gold.Chemscore.DEClash>
0.1654

> <Gold.Chemscore.DEInternal>
3.5842

> <Gold.Chemscore.Rot>
2.6135

> <Gold.Chemscore.Internal.Correction>
   9.000000E+99

> <Gold.Chemscore.Hbonds>
donor molecule, donor type, donor heavy atom, donor atom, acceptor molecule, acceptor atom, score
      L1  H     4    23       P1  7948  0.55
      L1  H     8    25       P1  7948  0.98
      L1  H    15    42       P1 10186  0.97

> <Gold.Chemscore.Hbond.Weighted>
-9.5217

> <Gold.Chemscore.Metal.Weighted>
-0.0000

> <Gold.Chemscore.Lipo.Weighted>
-8.0225

> <Gold.Chemscore.Internal_Hbond.Weighted>
0.0000

> <Gold.Chemscore.DEClash.Weighted>
0.1654

> <Gold.Chemscore.DEInternal.Weighted>
3.5842

> <Gold.Chemscore.Rot.Weighted>
6.6906

> <Gold.Chemscore.Internal.Correction.Weighted>
   9.000000E+99

> <Gold.Protein.RotatedTorsions>
[ 6907 6896 6895 6894 ] final  -30.05 input  -60.11 | X-H torsion
[ 7974 7965 7964 7962 ] final -125.36 input  175.53 | X-H torsion
[ 8008 7997 7996 7995 ] final  103.14 input   59.86 | X-H torsion
[ 10167 10162 10161 10158 ] final  162.27 input  -65.29 | X-H torsion
[ 10718 10713 10712 10709 ] final  -84.06 input   66.30 | X-H torsion
[ 10763 10752 10751 10750 ] final  112.57 input  -60.55 | X-H torsion
[ 11005 11000 10999 10996 ] final -120.08 input  -57.11 | X-H torsion

> <Gold.Protein.ActiveResidues>
 VAL166  LYS551  ARG553  GLY616  TRP617  ASP618  TYR619  PRO620  LYS621  CYS622 
 ASP623  PHE694  ASN695  SER759  ASP760  ASP761  ALA762  ILE779  LEU786  VAL792 
 PHE793  MET794  SER795  GLU796  ALA797  LYS798  CYS799  TRP800  GLU811  SER814 

> <Gold.Protein.RotatedAtoms>
  151.1108  135.0025  159.8492 H   0  0  0  0  0  0  0  0  0  0  0  0  # atno 6907 bound_to 6896
  152.5443  134.1839  159.8656 H   0  0  0  0  0  0  0  0  0  0  0  0  # atno 6908 bound_to 6896
  151.1889  133.4635  159.2628 H   0  0  0  0  0  0  0  0  0  0  0  0  # atno 6909 bound_to 6896
  144.9984  140.7798  143.4511 H   0  0  0  0  0  0  0  0  0  0  0  0  # atno 7974 bound_to 7965
  156.1457  140.3169  155.8566 H   0  0  0  0  0  0  0  0  0  0  0  0  # atno 8008 bound_to 7997
  155.4069  140.0503  157.3051 H   0  0  0  0  0  0  0  0  0  0  0  0  # atno 8009 bound_to 7997
  154.5014  140.2131  155.9350 H   0  0  0  0  0  0  0  0  0  0  0  0  # atno 8010 bound_to 7997
  139.4859  144.4454  151.8899 H   0  0  0  0  0  0  0  0  0  0  0  0  # atno 10167 bound_to 10162
  156.0010  130.4685  150.4352 H   0  0  0  0  0  0  0  0  0  0  0  0  # atno 10718 bound_to 10713
  153.4798  135.3682  155.2436 H   0  0  0  0  0  0  0  0  0  0  0  0  # atno 10763 bound_to 10752
  154.8755  135.3951  154.3713 H   0  0  0  0  0  0  0  0  0  0  0  0  # atno 10764 bound_to 10752
  153.4315  135.7082  153.6293 H   0  0  0  0  0  0  0  0  0  0  0  0  # atno 10765 bound_to 10752
  141.0169  134.0182  157.3337 H   0  0  0  0  0  0  0  0  0  0  0  0  # atno 11005 bound_to 11000
  145.2187  139.2169  143.5104 LP  0  0  0  0  0  0  0  0  0  0  0  0  # atno 17320 bound_to 7965
  146.3447  140.2040  142.8589 LP  0  0  0  0  0  0  0  0  0  0  0  0  # atno 17321 bound_to 7965
  140.3908  144.2618  150.5900 LP  0  0  0  0  0  0  0  0  0  0  0  0  # atno 17342 bound_to 10162
  140.5148  143.2281  151.8480 LP  0  0  0  0  0  0  0  0  0  0  0  0  # atno 17343 bound_to 10162
  157.2398  131.0523  151.2443 LP  0  0  0  0  0  0  0  0  0  0  0  0  # atno 17370 bound_to 10713
  157.3631  130.7142  149.6515 LP  0  0  0  0  0  0  0  0  0  0  0  0  # atno 17371 bound_to 10713
  139.9122  135.0192  156.7739 LP  0  0  0  0  0  0  0  0  0  0  0  0  # atno 17394 bound_to 11000
  140.6639  133.9620  155.7820 LP  0  0  0  0  0  0  0  0  0  0  0  0  # atno 17395 bound_to 11000

$$$$
