AV-unprocessed.smi:3313|AV-procd|sdf|12729|dock6
  -GOLD-   2272019 73D 1   1.00000     0.00000
 Structure written by MMmdl.
 43 43  0  0  0  0  0  0  0  0  2 V2000
  147.0476  140.4728  153.4704 C   0  0  0  0  0  0  0  0  0  0  0  0
  147.8712  139.1801  153.5976 C   0  0  2  0  0  0  0  0  0  0  0  0
  149.3753  139.4604  153.8247 C   0  0  0  0  0  0  0  0  0  0  0  0
  149.6261  140.2766  154.9988 N   0  0  0  0  0  0  0  0  0  0  0  0
  150.4033  139.9854  156.1005 C   0  0  0  0  0  0  0  0  0  0  0  0
  150.3258  141.0552  156.9456 C   0  0  0  0  0  0  0  0  0  0  0  0
  149.4618  141.9603  156.2677 C   0  0  0  0  0  0  0  0  0  0  0  0
  149.0431  141.4902  155.1037 N   0  0  0  0  0  0  0  0  0  0  0  0
  147.6540  138.3419  152.3965 N   0  3  0  0  0  0  0  0  0  0  0  0
  146.2399  138.0898  152.0461 C   0  0  0  0  0  0  0  0  0  0  0  0
  146.1304  137.0620  150.9069 C   0  0  0  0  0  0  0  0  0  0  0  0
  145.8101  135.6522  151.4131 C   0  0  0  0  0  0  0  0  0  0  0  0
  145.6646  135.4494  152.6182 O   0  0  0  0  0  0  0  0  0  0  0  0
  145.7103  134.6944  150.4736 N   0  0  0  0  0  0  0  0  0  0  0  0
  145.4168  133.2670  150.6529 C   0  0  0  0  0  0  0  0  0  0  0  0
  144.0827  133.1771  151.4148 C   0  0  0  0  0  0  0  0  0  0  0  0
  146.5186  132.5837  151.4909 C   0  0  0  0  0  0  0  0  0  0  0  0
  145.2615  132.5684  149.2858 C   0  0  0  0  0  0  0  0  0  0  0  0
  147.0991  141.0736  154.3788 H   0  0  0  0  0  0  0  0  0  0  0  0
  145.9949  140.2511  153.2927 H   0  0  0  0  0  0  0  0  0  0  0  0
  147.4020  141.0894  152.6435 H   0  0  0  0  0  0  0  0  0  0  0  0
  147.4806  138.6326  154.4567 H   0  0  0  0  0  0  0  0  0  0  0  0
  149.9336  138.5318  153.9451 H   0  0  0  0  0  0  0  0  0  0  0  0
  149.7993  139.9673  152.9566 H   0  0  0  0  0  0  0  0  0  0  0  0
  150.9427  139.0539  156.1900 H   0  0  0  0  0  0  0  0  0  0  0  0
  150.8106  141.1731  157.9034 H   0  0  0  0  0  0  0  0  0  0  0  0
  149.1278  142.9374  156.5846 H   0  0  0  0  0  0  0  0  0  0  0  0
  148.0720  138.8247  151.6140 H   0  0  0  0  0  0  0  0  0  0  0  0
  145.7070  137.7306  152.9267 H   0  0  0  0  0  0  0  0  0  0  0  0
  145.7715  139.0275  151.7434 H   0  0  0  0  0  0  0  0  0  0  0  0
  145.3590  137.3774  150.2025 H   0  0  0  0  0  0  0  0  0  0  0  0
  147.0666  137.0196  150.3490 H   0  0  0  0  0  0  0  0  0  0  0  0
  145.8550  134.9852  149.5175 H   0  0  0  0  0  0  0  0  0  0  0  0
  143.7945  132.1399  151.5905 H   0  0  0  0  0  0  0  0  0  0  0  0
  143.2726  133.6512  150.8592 H   0  0  0  0  0  0  0  0  0  0  0  0
  144.1454  133.6677  152.3871 H   0  0  0  0  0  0  0  0  0  0  0  0
  146.6655  133.0915  152.4450 H   0  0  0  0  0  0  0  0  0  0  0  0
  147.4782  132.5680  150.9741 H   0  0  0  0  0  0  0  0  0  0  0  0
  146.2588  131.5471  151.7090 H   0  0  0  0  0  0  0  0  0  0  0  0
  144.9502  131.5305  149.4089 H   0  0  0  0  0  0  0  0  0  0  0  0
  146.1945  132.5563  148.7224 H   0  0  0  0  0  0  0  0  0  0  0  0
  144.5105  133.0637  148.6693 H   0  0  0  0  0  0  0  0  0  0  0  0
  148.1306  137.4599  152.5191 H   0  0  0  0  0  0  0  0  0  0  0  0
  1  2  1  0  0  0  0
  1 19  1  0  0  0  0
  1 20  1  0  0  0  0
  1 21  1  0  0  0  0
  2  3  1  0  0  0  0
  2  9  1  0  0  0  0
  2 22  1  0  0  0  0
  3  4  1  0  0  0  0
  3 23  1  0  0  0  0
  3 24  1  0  0  0  0
  4  8  1  0  0  0  0
  4  5  1  0  0  0  0
  5  6  2  0  0  0  0
  5 25  1  0  0  0  0
  6  7  1  0  0  0  0
  6 26  1  0  0  0  0
  7  8  2  0  0  0  0
  7 27  1  0  0  0  0
  9 10  1  0  0  0  0
  9 28  1  0  0  0  0
  9 43  1  0  0  0  0
 10 11  1  0  0  0  0
 10 29  1  0  0  0  0
 10 30  1  0  0  0  0
 11 12  1  0  0  0  0
 11 31  1  0  0  0  0
 11 32  1  0  0  0  0
 12 13  2  0  0  0  0
 12 14  1  0  0  0  0
 14 15  1  0  0  0  0
 14 33  1  0  0  0  0
 15 16  1  0  0  0  0
 15 17  1  0  0  0  0
 15 18  1  0  0  0  0
 16 34  1  0  0  0  0
 16 35  1  0  0  0  0
 16 36  1  0  0  0  0
 17 37  1  0  0  0  0
 17 38  1  0  0  0  0
 17 39  1  0  0  0  0
 18 40  1  0  0  0  0
 18 41  1  0  0  0  0
 18 42  1  0  0  0  0
M  CHG  1   9   1
M  END
> <s_m_source_file>
AV-unprocessed.smi

> <i_m_source_file_index>
3313

> <i_lp_mmshare_version>
43012

> <i_f3d_flags>
0

> <s_epik_input>
bjFbY0hdW2NIXVtjSF1uMVtDSDJdW0NAQEhdKFtDSDNdKVtOSF1bQ0gyXVtDSDJdQyg9TylbTkhdQyhbQ0gzXSkoW0NIM10pW0NIM10=

> <s_epik_cmdline>
J2VwaWtfcHl0aG9uJywgJy1waCcsICc3LjAnLCAnLXRuJywgJzgnLCAnLW1hJywgJzIwMCcsICctbWV0YWxfYmluZGluZycsICctaW1hZScsICc8aW5maWxlLm1hZT4nLCAnLW9tYWUnLCAnPG91dGZpbGUubWFlPic=

> <r_lp_tautomer_probability>
1

> <r_epik_Ionization_Penalty>
0.0056766

> <r_epik_Ionization_Penalty_Charging>
0.00567288

> <r_epik_Ionization_Penalty_Neutral>
3.71277e-06

> <r_epik_State_Penalty>
0.0041598

> <r_epik_Charging_Adjusted_Penalty>
0.00983268

> <i_epik_Tot_Q>
1

> <i_epik_Tot_abs_Q>
1

> <r_epik_Metal_State_Penalty>
-0

> <b_epik_Metal_Only>
0

> <s_lp_Force_Field>
OPLS_2005

> <r_lp_Energy>
7.49453

> <b_lp_Chiralities_Consistent>
1

> <s_lp_Variant>
AV-unprocessed.smi:3313-1

> <Gold.Version>
5.8.1

> <Gold.Id.Protein>
6NUR|6NUR_protein|mol2

> <Gold.PLP.Fitness>
45.6688

> <Gold.PLP.PLP>
-32.0141

> <Gold.PLP.part.hbond>
-2.7728

> <Gold.PLP.part.metal>
0.0000

> <Gold.PLP.part.buried>
5.6427

> <Gold.PLP.part.nonpolar>
-35.2436

> <Gold.PLP.part.repulsive>
0.3729

> <Gold.PLP.ligand.clash>
0.0000

> <Gold.PLP.ligand.torsion>
0.3492

> <Gold.PLP.Chemscore.Hbond>
3.7593

> <Gold.PLP.Chemscore.CHOScore>
1.0000

> <Gold.PLP.Chemscore.Metal>
0.0000

> <Gold.Chemscore.Hbonds>
donor molecule, donor type, donor heavy atom, donor atom, acceptor molecule, acceptor atom, score
      L1  H     9    28       P1  7957  0.86
      L1  H     9    43       P1  7948  1.89
      L1  H    14    33       P1  7921  1.00
      L1  C     7    27       P1  8028  0.97

> <Gold.PLP.Chemscore.Internal.Correction>
0.0753

> <Gold.Rescore>
     Score         DG    S(hbond)    S(metal)    S(lipo)     H(rot)  DE(clash)    DE(int)     intcor
     12.64     -17.75       2.37        0.00      85.50       2.20       3.21       1.90       ----

> <Gold.Chemscore.Fitness>
12.6402

> <Gold.Chemscore.DG>
-17.7527

> <Gold.Chemscore.ZeroCoef>
-5.4800

> <Gold.Chemscore.Hbond>
2.3676

> <Gold.Chemscore.Metal>
0.0000

> <Gold.Chemscore.Lipo>
85.5030

> <Gold.Chemscore.Internal_Hbond>
0.0000

> <Gold.Chemscore.DEClash>
3.2102

> <Gold.Chemscore.DEInternal>
1.9024

> <Gold.Chemscore.Rot>
2.2027

> <Gold.Chemscore.Internal.Correction>
   9.000000E+99

> <Gold.Chemscore.Hbonds>
donor molecule, donor type, donor heavy atom, donor atom, acceptor molecule, acceptor atom, score
      L1  H     9    28       P1  7957  0.62
      L1  H     9    43       P1  7948  0.90
      L1  H    14    33       P1  7921  0.90

> <Gold.Chemscore.Hbond.Weighted>
-7.9079

> <Gold.Chemscore.Metal.Weighted>
-0.0000

> <Gold.Chemscore.Lipo.Weighted>
-10.0039

> <Gold.Chemscore.Internal_Hbond.Weighted>
0.0000

> <Gold.Chemscore.DEClash.Weighted>
3.2102

> <Gold.Chemscore.DEInternal.Weighted>
1.9024

> <Gold.Chemscore.Rot.Weighted>
5.6390

> <Gold.Chemscore.Internal.Correction.Weighted>
   9.000000E+99

> <Gold.Protein.RotatedTorsions>
[ 6907 6896 6895 6894 ] final  -73.44 input  -60.11 | X-H torsion
[ 7974 7965 7964 7962 ] final   84.49 input  175.53 | X-H torsion
[ 8008 7997 7996 7995 ] final   64.37 input   59.86 | X-H torsion
[ 10167 10162 10161 10158 ] final  -22.51 input  -65.29 | X-H torsion
[ 10718 10713 10712 10709 ] final   18.76 input   66.30 | X-H torsion
[ 10763 10752 10751 10750 ] final -164.74 input  -60.55 | X-H torsion
[ 11005 11000 10999 10996 ] final  -20.90 input  -57.11 | X-H torsion

> <Gold.Protein.ActiveResidues>
 VAL166  LYS551  ARG553  GLY616  TRP617  ASP618  TYR619  PRO620  LYS621  CYS622 
 ASP623  PHE694  ASN695  SER759  ASP760  ASP761  ALA762  ILE779  LEU786  VAL792 
 PHE793  MET794  SER795  GLU796  ALA797  LYS798  CYS799  TRP800  GLU811  SER814 

> <Gold.Protein.RotatedAtoms>
  150.7130  134.5016  159.5563 H   0  0  0  0  0  0  0  0  0  0  0  0  # atno 6907 bound_to 6896
  152.2612  134.8029  160.0439 H   0  0  0  0  0  0  0  0  0  0  0  0  # atno 6908 bound_to 6896
  151.8742  133.3446  159.3781 H   0  0  0  0  0  0  0  0  0  0  0  0  # atno 6909 bound_to 6896
  145.5981  139.2348  143.2261 H   0  0  0  0  0  0  0  0  0  0  0  0  # atno 7974 bound_to 7965
  155.6449  140.3497  155.4728 H   0  0  0  0  0  0  0  0  0  0  0  0  # atno 8008 bound_to 7997
  155.9896  140.1191  157.0674 H   0  0  0  0  0  0  0  0  0  0  0  0  # atno 8009 bound_to 7997
  154.4215  140.1122  156.5533 H   0  0  0  0  0  0  0  0  0  0  0  0  # atno 8010 bound_to 7997
  140.7286  143.4528  151.0492 H   0  0  0  0  0  0  0  0  0  0  0  0  # atno 10167 bound_to 10162
  157.1009  130.6467  149.5872 H   0  0  0  0  0  0  0  0  0  0  0  0  # atno 10718 bound_to 10713
  154.6999  135.2986  154.9357 H   0  0  0  0  0  0  0  0  0  0  0  0  # atno 10763 bound_to 10752
  154.0292  135.6672  153.4783 H   0  0  0  0  0  0  0  0  0  0  0  0  # atno 10764 bound_to 10752
  153.0673  135.5081  154.8137 H   0  0  0  0  0  0  0  0  0  0  0  0  # atno 10765 bound_to 10752
  140.8509  133.7857  155.9965 H   0  0  0  0  0  0  0  0  0  0  0  0  # atno 11005 bound_to 11000
  146.1597  140.6806  142.9283 LP  0  0  0  0  0  0  0  0  0  0  0  0  # atno 17320 bound_to 7965
  144.7322  140.4704  143.6930 LP  0  0  0  0  0  0  0  0  0  0  0  0  # atno 17321 bound_to 7965
  139.8205  143.7826  152.3176 LP  0  0  0  0  0  0  0  0  0  0  0  0  # atno 17342 bound_to 10162
  139.7907  144.7411  150.9959 LP  0  0  0  0  0  0  0  0  0  0  0  0  # atno 17343 bound_to 10162
  155.9874  130.4913  150.7123 LP  0  0  0  0  0  0  0  0  0  0  0  0  # atno 17370 bound_to 10713
  157.4642  131.0886  151.0713 LP  0  0  0  0  0  0  0  0  0  0  0  0  # atno 17371 bound_to 10713
  140.8791  134.2634  157.5153 LP  0  0  0  0  0  0  0  0  0  0  0  0  # atno 17394 bound_to 11000
  139.8704  134.9606  156.4368 LP  0  0  0  0  0  0  0  0  0  0  0  0  # atno 17395 bound_to 11000

$$$$
