AV-unprocessed.smi:1100|AV-procd|sdf|4761|dock3
  -GOLD-   22720 3293D 1   1.00000     0.00000
 Structure written by MMmdl.
 44 45  0  0  0  0  0  0  0  0  2 V2000
  146.3735  142.6106  153.8635 C   0  0  0  0  0  0  0  0  0  0  0  0
  146.9231  141.1923  154.1517 C   0  0  2  0  0  0  0  0  0  0  0  0
  148.4713  141.1866  154.0427 C   0  0  0  0  0  0  0  0  0  0  0  0
  149.1179  142.0634  155.0147 N   0  0  0  0  0  0  0  0  0  0  0  0
  149.8049  141.6445  156.0870 C   0  0  0  0  0  0  0  0  0  0  0  0
  149.9616  140.4548  156.3588 O   0  0  0  0  0  0  0  0  0  0  0  0
  150.2658  142.6879  156.8004 N   0  0  0  0  0  0  0  0  0  0  0  0
  151.0422  142.6869  157.9678 C   0  0  0  0  0  0  0  0  0  0  0  0
  151.7118  141.5250  158.5353 C   0  0  0  0  0  0  0  0  0  0  0  0
  152.4334  141.6293  159.6689 C   0  0  0  0  0  0  0  0  0  0  0  0
  152.5785  142.9040  160.3760 C   0  0  0  0  0  0  0  0  0  0  0  0
  153.2241  143.0077  161.4192 O   0  0  0  0  0  0  0  0  0  0  0  0
  151.9522  143.9708  159.8006 N   0  0  0  0  0  0  0  0  0  0  0  0
  152.0406  145.2930  160.4250 C   0  0  0  0  0  0  0  0  0  0  0  0
  151.1974  143.8542  158.6185 C   0  0  0  0  0  0  0  0  0  0  0  0
  146.3404  140.1314  153.2667 N   0  3  0  0  0  0  0  0  0  0  0  0
  147.0514  140.0240  151.9633 C   0  0  0  0  0  0  0  0  0  0  0  0
  146.3702  138.9981  151.0437 C   0  0  0  0  0  0  0  0  0  0  0  0
  146.3305  137.7350  151.6910 O   0  0  0  0  0  0  0  0  0  0  0  0
  145.5704  137.7873  152.8891 C   0  0  0  0  0  0  0  0  0  0  0  0
  146.2135  138.7780  153.8748 C   0  0  0  0  0  0  0  0  0  0  0  0
  146.8323  143.3598  154.5084 H   0  0  0  0  0  0  0  0  0  0  0  0
  145.3019  142.6799  154.0507 H   0  0  0  0  0  0  0  0  0  0  0  0
  146.5615  142.9100  152.8319 H   0  0  0  0  0  0  0  0  0  0  0  0
  146.6401  140.9519  155.1779 H   0  0  0  0  0  0  0  0  0  0  0  0
  148.8862  140.1865  154.1626 H   0  0  0  0  0  0  0  0  0  0  0  0
  148.7693  141.5167  153.0470 H   0  0  0  0  0  0  0  0  0  0  0  0
  149.0337  143.0578  154.8607 H   0  0  0  0  0  0  0  0  0  0  0  0
  150.0212  143.6059  156.4593 H   0  0  0  0  0  0  0  0  0  0  0  0
  151.6637  140.5566  158.0653 H   0  0  0  0  0  0  0  0  0  0  0  0
  152.9238  140.7519  160.0646 H   0  0  0  0  0  0  0  0  0  0  0  0
  151.5975  146.0783  159.8117 H   0  0  0  0  0  0  0  0  0  0  0  0
  153.0808  145.5718  160.5995 H   0  0  0  0  0  0  0  0  0  0  0  0
  151.5229  145.2938  161.3850 H   0  0  0  0  0  0  0  0  0  0  0  0
  150.7452  144.7750  158.2787 H   0  0  0  0  0  0  0  0  0  0  0  0
  147.0803  140.9831  151.4495 H   0  0  0  0  0  0  0  0  0  0  0  0
  148.0880  139.7301  152.1364 H   0  0  0  0  0  0  0  0  0  0  0  0
  145.3625  139.3200  150.7764 H   0  0  0  0  0  0  0  0  0  0  0  0
  146.9295  138.8988  150.1133 H   0  0  0  0  0  0  0  0  0  0  0  0
  144.5397  138.0709  152.6685 H   0  0  0  0  0  0  0  0  0  0  0  0
  145.5370  136.7901  153.3287 H   0  0  0  0  0  0  0  0  0  0  0  0
  147.1975  138.4183  154.1799 H   0  0  0  0  0  0  0  0  0  0  0  0
  145.5840  138.8074  154.7637 H   0  0  0  0  0  0  0  0  0  0  0  0
  145.3964  140.4262  153.0618 H   0  0  0  0  0  0  0  0  0  0  0  0
  1  2  1  0  0  0  0
  1 22  1  0  0  0  0
  1 23  1  0  0  0  0
  1 24  1  0  0  0  0
  2  3  1  0  0  0  0
  2 16  1  0  0  0  0
  2 25  1  0  0  0  0
  3  4  1  0  0  0  0
  3 26  1  0  0  0  0
  3 27  1  0  0  0  0
  4  5  1  0  0  0  0
  4 28  1  0  0  0  0
  5  6  2  0  0  0  0
  5  7  1  0  0  0  0
  7  8  1  0  0  0  0
  7 29  1  0  0  0  0
  8 15  2  0  0  0  0
  8  9  1  0  0  0  0
  9 10  2  0  0  0  0
  9 30  1  0  0  0  0
 10 11  1  0  0  0  0
 10 31  1  0  0  0  0
 11 12  2  0  0  0  0
 11 13  1  0  0  0  0
 13 14  1  0  0  0  0
 13 15  1  0  0  0  0
 14 32  1  0  0  0  0
 14 33  1  0  0  0  0
 14 34  1  0  0  0  0
 15 35  1  0  0  0  0
 16 21  1  0  0  0  0
 16 17  1  0  0  0  0
 16 44  1  0  0  0  0
 17 18  1  0  0  0  0
 17 36  1  0  0  0  0
 17 37  1  0  0  0  0
 18 19  1  0  0  0  0
 18 38  1  0  0  0  0
 18 39  1  0  0  0  0
 19 20  1  0  0  0  0
 20 21  1  0  0  0  0
 20 40  1  0  0  0  0
 20 41  1  0  0  0  0
 21 42  1  0  0  0  0
 21 43  1  0  0  0  0
M  CHG  1  16   1
M  END
> <s_m_source_file>
AV-unprocessed.smi

> <i_m_source_file_index>
1100

> <i_lp_mmshare_version>
43012

> <i_f3d_flags>
0

> <s_epik_input>
W0NIMl0xW0NIMl1PW0NIMl1bQ0gyXU4xW0NASF0oW0NIM10pW0NIMl1bTkhdQyg9TylbTkhdYzJbY0hdW2NIXWMoPU8pbihbQ0gzXSlbY0hdMg==

> <s_epik_cmdline>
J2VwaWtfcHl0aG9uJywgJy1waCcsICc3LjAnLCAnLXRuJywgJzgnLCAnLW1hJywgJzIwMCcsICctbWV0YWxfYmluZGluZycsICctaW1hZScsICc8aW5maWxlLm1hZT4nLCAnLW9tYWUnLCAnPG91dGZpbGUubWFlPic=

> <r_lp_tautomer_probability>
1

> <r_epik_Ionization_Penalty>
0.602556

> <r_epik_Ionization_Penalty_Charging>
0.602536

> <r_epik_Ionization_Penalty_Neutral>
1.99507e-05

> <r_epik_State_Penalty>
0.617039

> <r_epik_Charging_Adjusted_Penalty>
1.21958

> <i_epik_Tot_Q>
1

> <i_epik_Tot_abs_Q>
1

> <r_epik_Metal_State_Penalty>
0.619464

> <b_epik_Metal_Only>
0

> <s_lp_Force_Field>
OPLS_2005

> <r_lp_Energy>
33.1854

> <b_lp_Chiralities_Consistent>
1

> <s_lp_Variant>
AV-unprocessed.smi:1100-3

> <Gold.Version>
5.8.1

> <Gold.Id.Protein>
6NUR|6NUR_protein|mol2

> <Gold.PLP.Fitness>
50.9653

> <Gold.PLP.PLP>
-40.5253

> <Gold.PLP.part.hbond>
-3.0000

> <Gold.PLP.part.metal>
0.0000

> <Gold.PLP.part.buried>
0.2282

> <Gold.PLP.part.nonpolar>
-39.7517

> <Gold.PLP.part.repulsive>
1.8571

> <Gold.PLP.ligand.clash>
0.0000

> <Gold.PLP.ligand.torsion>
0.7038

> <Gold.PLP.Chemscore.Hbond>
3.9280

> <Gold.PLP.Chemscore.CHOScore>
0.0000

> <Gold.PLP.Chemscore.Metal>
0.0000

> <Gold.Chemscore.Hbonds>
donor molecule, donor type, donor heavy atom, donor atom, acceptor molecule, acceptor atom, score
      L1  H     4    28       P1  8028  0.94
      L1  H     7    29       P1  8028  1.00
      L1  H    16    44       P1 10175  2.00

> <Gold.PLP.Chemscore.Internal.Correction>
0.0636

> <Gold.Rescore>
     Score         DG    S(hbond)    S(metal)    S(lipo)     H(rot)  DE(clash)    DE(int)     intcor
     18.16     -23.29       2.95        0.00     101.65       1.54       3.66       1.46       ----

> <Gold.Chemscore.Fitness>
18.1623

> <Gold.Chemscore.DG>
-23.2915

> <Gold.Chemscore.ZeroCoef>
-5.4800

> <Gold.Chemscore.Hbond>
2.9521

> <Gold.Chemscore.Metal>
0.0000

> <Gold.Chemscore.Lipo>
101.6544

> <Gold.Chemscore.Internal_Hbond>
0.0000

> <Gold.Chemscore.DEClash>
3.6647

> <Gold.Chemscore.DEInternal>
1.4645

> <Gold.Chemscore.Rot>
1.5398

> <Gold.Chemscore.Internal.Correction>
   9.000000E+99

> <Gold.Chemscore.Hbonds>
donor molecule, donor type, donor heavy atom, donor atom, acceptor molecule, acceptor atom, score
      L1  H     4    28       P1  8028  0.91
      L1  H     7    29       P1  8028  0.96
      L1  H    16    44       P1 10175  0.94

> <Gold.Chemscore.Hbond.Weighted>
-9.8599

> <Gold.Chemscore.Metal.Weighted>
-0.0000

> <Gold.Chemscore.Lipo.Weighted>
-11.8936

> <Gold.Chemscore.Internal_Hbond.Weighted>
0.0000

> <Gold.Chemscore.DEClash.Weighted>
3.6647

> <Gold.Chemscore.DEInternal.Weighted>
1.4645

> <Gold.Chemscore.Rot.Weighted>
3.9420

> <Gold.Chemscore.Internal.Correction.Weighted>
   9.000000E+99

> <Gold.Protein.RotatedTorsions>
[ 6907 6896 6895 6894 ] final  168.86 input  -60.11 | X-H torsion
[ 7974 7965 7964 7962 ] final  114.02 input  175.53 | X-H torsion
[ 8008 7997 7996 7995 ] final  140.09 input   59.86 | X-H torsion
[ 10167 10162 10161 10158 ] final  -92.52 input  -65.29 | X-H torsion
[ 10718 10713 10712 10709 ] final  119.87 input   66.30 | X-H torsion
[ 10763 10752 10751 10750 ] final -140.34 input  -60.55 | X-H torsion
[ 11005 11000 10999 10996 ] final   39.86 input  -57.11 | X-H torsion

> <Gold.Protein.ActiveResidues>
 VAL166  LYS551  ARG553  GLY616  TRP617  ASP618  TYR619  PRO620  LYS621  CYS622 
 ASP623  PHE694  ASN695  SER759  ASP760  ASP761  ALA762  ILE779  LEU786  VAL792 
 PHE793  MET794  SER795  GLU796  ALA797  LYS798  CYS799  TRP800  GLU811  SER814 

> <Gold.Protein.RotatedAtoms>
  151.8411  133.3424  159.3642 H   0  0  0  0  0  0  0  0  0  0  0  0  # atno 6907 bound_to 6896
  150.7235  134.5391  159.5747 H   0  0  0  0  0  0  0  0  0  0  0  0  # atno 6908 bound_to 6896
  152.2864  134.7771  160.0437 H   0  0  0  0  0  0  0  0  0  0  0  0  # atno 6909 bound_to 6896
  145.2097  139.2912  143.4275 H   0  0  0  0  0  0  0  0  0  0  0  0  # atno 7974 bound_to 7965
  156.2983  140.2350  156.4344 H   0  0  0  0  0  0  0  0  0  0  0  0  # atno 8008 bound_to 7997
  154.8242  140.0436  157.1452 H   0  0  0  0  0  0  0  0  0  0  0  0  # atno 8009 bound_to 7997
  154.9281  140.3013  155.5185 H   0  0  0  0  0  0  0  0  0  0  0  0  # atno 8010 bound_to 7997
  140.3340  143.2979  151.9910 H   0  0  0  0  0  0  0  0  0  0  0  0  # atno 10167 bound_to 10162
  157.5931  131.1061  150.7956 H   0  0  0  0  0  0  0  0  0  0  0  0  # atno 10718 bound_to 10713
  154.8582  135.3556  154.5691 H   0  0  0  0  0  0  0  0  0  0  0  0  # atno 10763 bound_to 10752
  153.6304  135.7002  153.5282 H   0  0  0  0  0  0  0  0  0  0  0  0  # atno 10764 bound_to 10752
  153.3054  135.4194  155.1249 H   0  0  0  0  0  0  0  0  0  0  0  0  # atno 10765 bound_to 10752
  140.1986  134.3898  155.8108 H   0  0  0  0  0  0  0  0  0  0  0  0  # atno 11005 bound_to 11000
  146.3400  140.2368  142.8594 LP  0  0  0  0  0  0  0  0  0  0  0  0  # atno 17320 bound_to 7965
  144.9868  140.8510  143.5364 LP  0  0  0  0  0  0  0  0  0  0  0  0  # atno 17321 bound_to 7965
  139.4851  144.6212  151.7252 LP  0  0  0  0  0  0  0  0  0  0  0  0  # atno 17342 bound_to 10162
  140.5371  144.0638  150.6074 LP  0  0  0  0  0  0  0  0  0  0  0  0  # atno 17343 bound_to 10162
  156.8373  130.5036  149.5325 LP  0  0  0  0  0  0  0  0  0  0  0  0  # atno 17370 bound_to 10713
  156.0989  130.5954  150.9861 LP  0  0  0  0  0  0  0  0  0  0  0  0  # atno 17371 bound_to 10713
  141.2227  133.7083  156.8220 LP  0  0  0  0  0  0  0  0  0  0  0  0  # atno 17394 bound_to 11000
  140.2079  134.8849  157.3242 LP  0  0  0  0  0  0  0  0  0  0  0  0  # atno 17395 bound_to 11000

$$$$
