AV-unprocessed.smi:1818|AV-procd|sdf|7380|dock7
  -GOLD-   22720 9 43D 1   1.00000     0.00000
 Structure written by MMmdl.
 36 37  0  0  0  0  0  0  0  0  1 V2000
  151.0696  136.9800  159.1739 N   0  0  0  0  0  0  0  0  0  0  0  0
  150.9163  137.9920  158.6339 C   0  0  0  0  0  0  0  0  0  0  0  0
  150.7205  139.2837  157.9463 C   0  0  0  0  0  0  0  0  0  0  0  0
  151.2414  140.3805  158.7686 N   0  0  0  0  0  0  0  0  0  0  0  0
  152.5298  140.6635  159.0255 C   0  0  0  0  0  0  0  0  0  0  0  0
  153.4738  139.9940  158.6082 O   0  0  0  0  0  0  0  0  0  0  0  0
  152.7949  141.9028  159.8792 C   0  0  0  0  0  0  0  0  0  0  0  0
  152.4087  143.1082  159.1707 N   0  0  0  0  0  0  0  0  0  0  0  0
  151.8345  143.1935  157.9085 C   0  0  0  0  0  0  0  0  0  0  0  0
  151.6532  144.5333  157.6491 C   0  0  0  0  0  0  0  0  0  0  0  0
  152.1068  145.2856  158.7300 N   0  0  0  0  0  0  0  0  0  0  0  0
  152.5413  144.3742  159.5906 C   0  0  0  0  0  0  0  0  0  0  0  0
  151.5623  139.2411  156.6467 C   0  0  0  0  0  0  0  0  0  0  0  0
  151.1447  140.2218  155.5361 C   0  0  0  0  0  0  0  0  0  0  0  0
  150.0844  139.6257  154.5924 C   0  0  0  0  0  0  0  0  0  0  0  0
  148.6758  139.5033  155.1942 C   0  0  0  0  0  0  0  0  0  0  0  0
  148.6024  138.7242  156.5191 C   0  0  0  0  0  0  0  0  0  0  0  0
  149.2071  139.5119  157.6934 C   0  0  0  0  0  0  0  0  0  0  0  0
  150.5487  140.9979  159.1662 H   0  0  0  0  0  0  0  0  0  0  0  0
  152.2435  141.8490  160.8190 H   0  0  0  0  0  0  0  0  0  0  0  0
  153.8552  141.9606  160.1295 H   0  0  0  0  0  0  0  0  0  0  0  0
  151.6105  142.3195  157.3147 H   0  0  0  0  0  0  0  0  0  0  0  0
  151.2365  145.0102  156.7742 H   0  0  0  0  0  0  0  0  0  0  0  0
  152.9683  144.6336  160.5486 H   0  0  0  0  0  0  0  0  0  0  0  0
  152.6083  139.4218  156.9002 H   0  0  0  0  0  0  0  0  0  0  0  0
  151.5558  138.2296  156.2375 H   0  0  0  0  0  0  0  0  0  0  0  0
  150.8166  141.1755  155.9508 H   0  0  0  0  0  0  0  0  0  0  0  0
  152.0275  140.4470  154.9370 H   0  0  0  0  0  0  0  0  0  0  0  0
  150.0198  140.2507  153.7013 H   0  0  0  0  0  0  0  0  0  0  0  0
  150.4158  138.6484  154.2396 H   0  0  0  0  0  0  0  0  0  0  0  0
  148.2514  140.4986  155.3316 H   0  0  0  0  0  0  0  0  0  0  0  0
  148.0337  139.0108  154.4631 H   0  0  0  0  0  0  0  0  0  0  0  0
  147.5493  138.5457  156.7385 H   0  0  0  0  0  0  0  0  0  0  0  0
  149.0586  137.7381  156.4264 H   0  0  0  0  0  0  0  0  0  0  0  0
  148.6625  139.2367  158.5977 H   0  0  0  0  0  0  0  0  0  0  0  0
  148.9997  140.5743  157.5554 H   0  0  0  0  0  0  0  0  0  0  0  0
  1  2  3  0  0  0  0
  2  3  1  0  0  0  0
  3 18  1  0  0  0  0
  3  4  1  0  0  0  0
  3 13  1  0  0  0  0
  4  5  1  0  0  0  0
  4 19  1  0  0  0  0
  5  6  2  0  0  0  0
  5  7  1  0  0  0  0
  7  8  1  0  0  0  0
  7 20  1  0  0  0  0
  7 21  1  0  0  0  0
  8 12  1  0  0  0  0
  8  9  1  0  0  0  0
  9 10  2  0  0  0  0
  9 22  1  0  0  0  0
 10 11  1  0  0  0  0
 10 23  1  0  0  0  0
 11 12  2  0  0  0  0
 12 24  1  0  0  0  0
 13 14  1  0  0  0  0
 13 25  1  0  0  0  0
 13 26  1  0  0  0  0
 14 15  1  0  0  0  0
 14 27  1  0  0  0  0
 14 28  1  0  0  0  0
 15 16  1  0  0  0  0
 15 29  1  0  0  0  0
 15 30  1  0  0  0  0
 16 17  1  0  0  0  0
 16 31  1  0  0  0  0
 16 32  1  0  0  0  0
 17 18  1  0  0  0  0
 17 33  1  0  0  0  0
 17 34  1  0  0  0  0
 18 35  1  0  0  0  0
 18 36  1  0  0  0  0
M  END
> <s_m_source_file>
AV-unprocessed.smi

> <i_m_source_file_index>
1818

> <i_lp_mmshare_version>
43012

> <i_f3d_flags>
0

> <s_epik_input>
W0NIMl0xW0NIMl1bQ0gyXVtDSDJdW0NIMl1bQ0gyXUMxKEMjTilbTkhdQyg9TylbQ0gyXW4yW2NIXVtjSF1uW2NIXTI=

> <s_epik_cmdline>
J2VwaWtfcHl0aG9uJywgJy1waCcsICc3LjAnLCAnLXRuJywgJzgnLCAnLW1hJywgJzIwMCcsICctbWV0YWxfYmluZGluZycsICctaW1hZScsICc8aW5maWxlLm1hZT4nLCAnLW9tYWUnLCAnPG91dGZpbGUubWFlPic=

> <r_lp_tautomer_probability>
1

> <r_epik_Ionization_Penalty>
0.21493

> <r_epik_Ionization_Penalty_Charging>
0.214927

> <r_epik_Ionization_Penalty_Neutral>
2.56273e-06

> <r_epik_State_Penalty>
0.205117

> <r_epik_Charging_Adjusted_Penalty>
0.420044

> <i_epik_Tot_Q>
0

> <i_epik_Tot_abs_Q>
0

> <r_epik_Metal_State_Penalty>
0.148888

> <b_epik_Metal_Only>
0

> <s_lp_Force_Field>
OPLS_2005

> <r_lp_Energy>
17.7076

> <b_lp_Chiralities_Consistent>
1

> <s_lp_Variant>
AV-unprocessed.smi:1818-1

> <Gold.Version>
5.8.1

> <Gold.Id.Protein>
6NUR|6NUR_protein|mol2

> <Gold.PLP.Fitness>
42.7166

> <Gold.PLP.PLP>
-34.2252

> <Gold.PLP.part.hbond>
-2.0000

> <Gold.PLP.part.metal>
0.0000

> <Gold.PLP.part.buried>
-3.8120

> <Gold.PLP.part.nonpolar>
-27.7835

> <Gold.PLP.part.repulsive>
0.2472

> <Gold.PLP.ligand.clash>
0.0000

> <Gold.PLP.ligand.torsion>
0.2602

> <Gold.PLP.Chemscore.Hbond>
2.0000

> <Gold.PLP.Chemscore.CHOScore>
1.0000

> <Gold.PLP.Chemscore.Metal>
0.0000

> <Gold.Chemscore.Hbonds>
donor molecule, donor type, donor heavy atom, donor atom, acceptor molecule, acceptor atom, score
      P1  H  6896  6907       L1     1  1.00
      P1  H  7997  8008       L1     6  1.00
      L1  C    10    23       P1  8028  0.90

> <Gold.PLP.Chemscore.Internal.Correction>
0.0118

> <Gold.Rescore>
     Score         DG    S(hbond)    S(metal)    S(lipo)     H(rot)  DE(clash)    DE(int)     intcor
     13.38     -15.07       1.95        0.00      62.30       1.65       0.00       1.69       ----

> <Gold.Chemscore.Fitness>
13.3798

> <Gold.Chemscore.DG>
-15.0710

> <Gold.Chemscore.ZeroCoef>
-5.4800

> <Gold.Chemscore.Hbond>
1.9528

> <Gold.Chemscore.Metal>
0.0000

> <Gold.Chemscore.Lipo>
62.3041

> <Gold.Chemscore.Internal_Hbond>
0.0000

> <Gold.Chemscore.DEClash>
0.0009

> <Gold.Chemscore.DEInternal>
1.6903

> <Gold.Chemscore.Rot>
1.6488

> <Gold.Chemscore.Internal.Correction>
   9.000000E+99

> <Gold.Chemscore.Hbonds>
donor molecule, donor type, donor heavy atom, donor atom, acceptor molecule, acceptor atom, score
      P1  H  6896  6907       L1     1  0.91
      P1  H  7997  8008       L1     6  0.97

> <Gold.Chemscore.Hbond.Weighted>
-6.5224

> <Gold.Chemscore.Metal.Weighted>
-0.0000

> <Gold.Chemscore.Lipo.Weighted>
-7.2896

> <Gold.Chemscore.Internal_Hbond.Weighted>
0.0000

> <Gold.Chemscore.DEClash.Weighted>
0.0009

> <Gold.Chemscore.DEInternal.Weighted>
1.6903

> <Gold.Chemscore.Rot.Weighted>
4.2210

> <Gold.Chemscore.Internal.Correction.Weighted>
   9.000000E+99

> <Gold.Protein.RotatedTorsions>
[ 6907 6896 6895 6894 ] final   -2.51 input  -60.11 | X-H torsion
[ 7974 7965 7964 7962 ] final   50.14 input  175.53 | X-H torsion
[ 8008 7997 7996 7995 ] final  -91.65 input   59.86 | X-H torsion
[ 10167 10162 10161 10158 ] final   69.29 input  -65.29 | X-H torsion
[ 10718 10713 10712 10709 ] final   80.59 input   66.30 | X-H torsion
[ 10763 10752 10751 10750 ] final -157.89 input  -60.55 | X-H torsion
[ 11005 11000 10999 10996 ] final   74.54 input  -57.11 | X-H torsion

> <Gold.Protein.ActiveResidues>
 VAL166  LYS551  ARG553  GLY616  TRP617  ASP618  TYR619  PRO620  LYS621  CYS622 
 ASP623  PHE694  ASN695  SER759  ASP760  ASP761  ALA762  ILE779  LEU786  VAL792 
 PHE793  MET794  SER795  GLU796  ALA797  LYS798  CYS799  TRP800  GLU811  SER814 

> <Gold.Protein.RotatedAtoms>
  151.5288  135.1068  159.9897 H   0  0  0  0  0  0  0  0  0  0  0  0  # atno 6907 bound_to 6896
  152.4588  133.7774  159.6842 H   0  0  0  0  0  0  0  0  0  0  0  0  # atno 6908 bound_to 6896
  150.8541  133.7676  159.3040 H   0  0  0  0  0  0  0  0  0  0  0  0  # atno 6909 bound_to 6896
  146.0041  139.4471  142.9996 H   0  0  0  0  0  0  0  0  0  0  0  0  # atno 7974 bound_to 7965
  154.7133  140.0517  157.0571 H   0  0  0  0  0  0  0  0  0  0  0  0  # atno 8008 bound_to 7997
  155.0525  140.3180  155.4668 H   0  0  0  0  0  0  0  0  0  0  0  0  # atno 8009 bound_to 7997
  156.2796  140.2113  156.5651 H   0  0  0  0  0  0  0  0  0  0  0  0  # atno 8010 bound_to 7997
  140.0694  144.5165  150.7238 H   0  0  0  0  0  0  0  0  0  0  0  0  # atno 10167 bound_to 10162
  157.6810  130.9966  150.2101 H   0  0  0  0  0  0  0  0  0  0  0  0  # atno 10718 bound_to 10713
  154.7601  135.3115  154.8395 H   0  0  0  0  0  0  0  0  0  0  0  0  # atno 10763 bound_to 10752
  153.9159  135.6801  153.4753 H   0  0  0  0  0  0  0  0  0  0  0  0  # atno 10764 bound_to 10752
  153.1201  135.4826  154.9111 H   0  0  0  0  0  0  0  0  0  0  0  0  # atno 10765 bound_to 10752
  139.9386  134.7441  156.1160 H   0  0  0  0  0  0  0  0  0  0  0  0  # atno 11005 bound_to 11000
  145.7442  140.9997  143.1285 LP  0  0  0  0  0  0  0  0  0  0  0  0  # atno 17320 bound_to 7965
  144.6929  139.9136  143.7464 LP  0  0  0  0  0  0  0  0  0  0  0  0  # atno 17321 bound_to 7965
  140.7133  143.2523  151.4514 LP  0  0  0  0  0  0  0  0  0  0  0  0  # atno 17342 bound_to 10162
  139.5845  144.1635  152.2011 LP  0  0  0  0  0  0  0  0  0  0  0  0  # atno 17343 bound_to 10162
  156.2774  130.3729  149.7970 LP  0  0  0  0  0  0  0  0  0  0  0  0  # atno 17370 bound_to 10713
  156.5668  130.8407  151.3345 LP  0  0  0  0  0  0  0  0  0  0  0  0  # atno 17371 bound_to 10713
  141.1011  133.6677  156.2757 LP  0  0  0  0  0  0  0  0  0  0  0  0  # atno 17394 bound_to 11000
  140.6010  134.5555  157.5517 LP  0  0  0  0  0  0  0  0  0  0  0  0  # atno 17395 bound_to 11000

$$$$
