AV-unprocessed.smi:835|AV-procd|sdf|3889|dock2
  -GOLD-   22720 1343D 1   1.00000     0.00000
 Structure written by MMmdl.
 41 43  0  0  0  0  0  0  0  0  2 V2000
  153.8780  141.2626  161.2117 C   0  0  0  0  0  0  0  0  0  0  0  0
  153.0268  142.0098  160.2281 C   0  0  0  0  0  0  0  0  0  0  0  0
  152.1008  141.4760  159.2852 C   0  0  0  0  0  0  0  0  0  0  0  0
  151.6214  142.5977  158.6661 C   0  0  0  0  0  0  0  0  0  0  0  0
  150.7108  142.6944  157.6613 N   0  0  0  0  0  0  0  0  0  0  0  0
  150.0398  141.7065  157.0434 C   0  0  0  0  0  0  0  0  0  0  0  0
  150.1337  140.5070  157.3038 O   0  0  0  0  0  0  0  0  0  0  0  0
  149.2260  142.1903  156.0943 N   0  0  0  0  0  0  0  0  0  0  0  0
  148.3457  141.3740  155.2653 C   0  0  1  0  0  0  0  0  0  0  0  0
  147.5652  142.1534  154.2116 C   0  0  0  0  0  0  0  0  0  0  0  0
  147.1799  141.0616  153.2074 C   0  0  0  0  0  0  0  0  0  0  0  0
  148.2239  140.0102  153.2974 N   0  3  2  0  0  0  0  0  0  0  0  0
  147.6755  138.6401  153.3986 C   0  0  0  0  0  0  0  0  0  0  0  0
  146.4663  138.4072  152.5247 C   0  0  0  0  0  0  0  0  0  0  0  0
  146.2995  138.5851  154.0183 C   0  0  0  0  0  0  0  0  0  0  0  0
  149.1250  140.3726  154.4139 C   0  0  0  0  0  0  0  0  0  0  0  0
  152.2354  143.7037  159.2103 N   0  0  0  0  0  0  0  0  0  0  0  0
  152.0643  145.1063  158.8846 C   0  0  0  0  0  0  0  0  0  0  0  0
  153.1022  143.3352  160.1783 N   0  0  0  0  0  0  0  0  0  0  0  0
  153.6882  140.1901  161.1622 H   0  0  0  0  0  0  0  0  0  0  0  0
  153.6766  141.5874  162.2326 H   0  0  0  0  0  0  0  0  0  0  0  0
  154.9383  141.4210  161.0132 H   0  0  0  0  0  0  0  0  0  0  0  0
  151.8496  140.4412  159.1068 H   0  0  0  0  0  0  0  0  0  0  0  0
  150.4998  143.6348  157.3618 H   0  0  0  0  0  0  0  0  0  0  0  0
  149.2104  143.1882  155.9412 H   0  0  0  0  0  0  0  0  0  0  0  0
  147.6475  140.8253  155.9014 H   0  0  0  0  0  0  0  0  0  0  0  0
  146.6992  142.6750  154.6209 H   0  0  0  0  0  0  0  0  0  0  0  0
  148.2087  142.8918  153.7307 H   0  0  0  0  0  0  0  0  0  0  0  0
  146.2063  140.6493  153.4779 H   0  0  0  0  0  0  0  0  0  0  0  0
  147.1000  141.4492  152.1914 H   0  0  0  0  0  0  0  0  0  0  0  0
  148.3939  137.8408  153.5730 H   0  0  0  0  0  0  0  0  0  0  0  0
  146.1324  139.2183  151.8804 H   0  0  0  0  0  0  0  0  0  0  0  0
  146.3225  137.4059  152.1237 H   0  0  0  0  0  0  0  0  0  0  0  0
  146.0460  137.7013  154.6003 H   0  0  0  0  0  0  0  0  0  0  0  0
  145.8539  139.5150  154.3674 H   0  0  0  0  0  0  0  0  0  0  0  0
  150.0117  140.8442  153.9873 H   0  0  0  0  0  0  0  0  0  0  0  0
  149.4580  139.5069  154.9887 H   0  0  0  0  0  0  0  0  0  0  0  0
  151.0090  145.3721  158.9494 H   0  0  0  0  0  0  0  0  0  0  0  0
  152.4175  145.2917  157.8702 H   0  0  0  0  0  0  0  0  0  0  0  0
  152.6281  145.7330  159.5769 H   0  0  0  0  0  0  0  0  0  0  0  0
  148.7739  140.0475  152.4509 H   0  0  0  0  0  0  0  0  0  0  0  0
  1  2  1  0  0  0  0
  1 20  1  0  0  0  0
  1 21  1  0  0  0  0
  1 22  1  0  0  0  0
  2 19  2  0  0  0  0
  2  3  1  0  0  0  0
  3  4  2  0  0  0  0
  3 23  1  0  0  0  0
  4  5  1  0  0  0  0
  4 17  1  0  0  0  0
  5  6  1  0  0  0  0
  5 24  1  0  0  0  0
  6  7  2  0  0  0  0
  6  8  1  0  0  0  0
  8  9  1  0  0  0  0
  8 25  1  0  0  0  0
  9 16  1  0  0  0  0
  9 10  1  0  0  0  0
  9 26  1  0  0  0  0
 10 11  1  0  0  0  0
 10 27  1  0  0  0  0
 10 28  1  0  0  0  0
 11 12  1  0  0  0  0
 11 29  1  0  0  0  0
 11 30  1  0  0  0  0
 12 13  1  0  0  0  0
 12 16  1  0  0  0  0
 12 41  1  0  0  0  0
 13 15  1  0  0  0  0
 13 14  1  0  0  0  0
 13 31  1  0  0  0  0
 14 15  1  0  0  0  0
 14 32  1  0  0  0  0
 14 33  1  0  0  0  0
 15 34  1  0  0  0  0
 15 35  1  0  0  0  0
 16 36  1  0  0  0  0
 16 37  1  0  0  0  0
 17 18  1  0  0  0  0
 17 19  1  0  0  0  0
 18 38  1  0  0  0  0
 18 39  1  0  0  0  0
 18 40  1  0  0  0  0
M  CHG  1  12   1
M  END
> <s_m_source_file>
AV-unprocessed.smi

> <i_m_source_file_index>
835

> <i_lp_mmshare_version>
43012

> <i_f3d_flags>
0

> <s_epik_input>
W0NIM11jMVtjSF1jKG4objEpW0NIM10pW05IXUMoPU8pW05IXVtDQEBIXTJbQ0gyXVtDSDJdTihbQ0gyXTIpW0NIXTNbQ0gyXVtDSDJdMw==

> <s_epik_cmdline>
J2VwaWtfcHl0aG9uJywgJy1waCcsICc3LjAnLCAnLXRuJywgJzgnLCAnLW1hJywgJzIwMCcsICctbWV0YWxfYmluZGluZycsICctaW1hZScsICc8aW5maWxlLm1hZT4nLCAnLW9tYWUnLCAnPG91dGZpbGUubWFlPic=

> <r_lp_tautomer_probability>
1

> <r_epik_Ionization_Penalty>
0.000700689

> <r_epik_Ionization_Penalty_Charging>
0.000627528

> <r_epik_Ionization_Penalty_Neutral>
7.31611e-05

> <r_epik_State_Penalty>
0.00039643

> <r_epik_Charging_Adjusted_Penalty>
0.00102396

> <i_epik_Tot_Q>
1

> <i_epik_Tot_abs_Q>
1

> <r_epik_Metal_State_Penalty>
-0

> <b_epik_Metal_Only>
0

> <s_lp_Force_Field>
OPLS_2005

> <r_lp_Energy>
38.983

> <b_lp_Chiralities_Consistent>
1

> <s_lp_Variant>
AV-unprocessed.smi:835-4

> <Gold.Version>
5.8.1

> <Gold.Id.Protein>
6NUR|6NUR_protein|mol2

> <Gold.PLP.Fitness>
46.6668

> <Gold.PLP.PLP>
-40.7118

> <Gold.PLP.part.hbond>
-2.0000

> <Gold.PLP.part.metal>
0.0000

> <Gold.PLP.part.buried>
-5.2828

> <Gold.PLP.part.nonpolar>
-34.4854

> <Gold.PLP.part.repulsive>
0.2398

> <Gold.PLP.ligand.clash>
0.0000

> <Gold.PLP.ligand.torsion>
0.6429

> <Gold.PLP.Chemscore.Hbond>
1.9913

> <Gold.PLP.Chemscore.CHOScore>
0.0000

> <Gold.PLP.Chemscore.Metal>
0.0000

> <Gold.Chemscore.Hbonds>
donor molecule, donor type, donor heavy atom, donor atom, acceptor molecule, acceptor atom, score
      L1  H     8    25       P1  8028  1.00
      L1  H    12    41       P1  7957  1.00

> <Gold.PLP.Chemscore.Internal.Correction>
1.2671

> <Gold.Rescore>
     Score         DG    S(hbond)    S(metal)    S(lipo)     H(rot)  DE(clash)    DE(int)     intcor
     17.44     -19.40       1.99        0.00      88.87       1.22       0.11       1.85       ----

> <Gold.Chemscore.Fitness>
17.4422

> <Gold.Chemscore.DG>
-19.3984

> <Gold.Chemscore.ZeroCoef>
-5.4800

> <Gold.Chemscore.Hbond>
1.9891

> <Gold.Chemscore.Metal>
0.0000

> <Gold.Chemscore.Lipo>
88.8655

> <Gold.Chemscore.Internal_Hbond>
0.0000

> <Gold.Chemscore.DEClash>
0.1067

> <Gold.Chemscore.DEInternal>
1.8495

> <Gold.Chemscore.Rot>
1.2196

> <Gold.Chemscore.Internal.Correction>
   9.000000E+99

> <Gold.Chemscore.Hbonds>
donor molecule, donor type, donor heavy atom, donor atom, acceptor molecule, acceptor atom, score
      L1  H     8    25       P1  8028  0.98
      L1  H    12    41       P1  7957  0.93

> <Gold.Chemscore.Hbond.Weighted>
-6.6434

> <Gold.Chemscore.Metal.Weighted>
-0.0000

> <Gold.Chemscore.Lipo.Weighted>
-10.3973

> <Gold.Chemscore.Internal_Hbond.Weighted>
0.0000

> <Gold.Chemscore.DEClash.Weighted>
0.1067

> <Gold.Chemscore.DEInternal.Weighted>
1.8495

> <Gold.Chemscore.Rot.Weighted>
3.1223

> <Gold.Chemscore.Internal.Correction.Weighted>
   9.000000E+99

> <Gold.Protein.RotatedTorsions>
[ 6907 6896 6895 6894 ] final  -78.23 input  -60.11 | X-H torsion
[ 7974 7965 7964 7962 ] final  -77.88 input  175.53 | X-H torsion
[ 8008 7997 7996 7995 ] final  -60.19 input   59.86 | X-H torsion
[ 10167 10162 10161 10158 ] final  153.17 input  -65.29 | X-H torsion
[ 10718 10713 10712 10709 ] final  -82.45 input   66.30 | X-H torsion
[ 10763 10752 10751 10750 ] final   21.88 input  -60.55 | X-H torsion
[ 11005 11000 10999 10996 ] final  112.69 input  -57.11 | X-H torsion

> <Gold.Protein.ActiveResidues>
 VAL166  LYS551  ARG553  GLY616  TRP617  ASP618  TYR619  PRO620  LYS621  CYS622 
 ASP623  PHE694  ASN695  SER759  ASP760  ASP761  ALA762  ILE779  LEU786  VAL792 
 PHE793  MET794  SER795  GLU796  ALA797  LYS798  CYS799  TRP800  GLU811  SER814 

> <Gold.Protein.RotatedAtoms>
  150.6978  134.4303  159.5244 H   0  0  0  0  0  0  0  0  0  0  0  0  # atno 6907 bound_to 6896
  152.2030  134.8567  160.0515 H   0  0  0  0  0  0  0  0  0  0  0  0  # atno 6908 bound_to 6896
  151.9480  133.3622  159.4026 H   0  0  0  0  0  0  0  0  0  0  0  0  # atno 6909 bound_to 6896
  145.5938  140.9423  143.1278 H   0  0  0  0  0  0  0  0  0  0  0  0  # atno 7974 bound_to 7965
  154.4387  140.1045  156.6235 H   0  0  0  0  0  0  0  0  0  0  0  0  # atno 8008 bound_to 7997
  155.5682  140.3489  155.4490 H   0  0  0  0  0  0  0  0  0  0  0  0  # atno 8009 bound_to 7997
  156.0409  140.1282  157.0146 H   0  0  0  0  0  0  0  0  0  0  0  0  # atno 8010 bound_to 7997
  139.4828  144.5295  151.7745 H   0  0  0  0  0  0  0  0  0  0  0  0  # atno 10167 bound_to 10162
  156.0033  130.4635  150.4107 H   0  0  0  0  0  0  0  0  0  0  0  0  # atno 10718 bound_to 10713
  153.0959  135.6659  153.9764 H   0  0  0  0  0  0  0  0  0  0  0  0  # atno 10763 bound_to 10752
  153.9347  135.3000  155.3446 H   0  0  0  0  0  0  0  0  0  0  0  0  # atno 10764 bound_to 10752
  154.7378  135.5093  153.9145 H   0  0  0  0  0  0  0  0  0  0  0  0  # atno 10765 bound_to 10752
  139.8934  134.9535  156.6624 H   0  0  0  0  0  0  0  0  0  0  0  0  # atno 11005 bound_to 11000
  144.7339  139.7642  143.7336 LP  0  0  0  0  0  0  0  0  0  0  0  0  # atno 17320 bound_to 7965
  146.1627  139.4747  142.9978 LP  0  0  0  0  0  0  0  0  0  0  0  0  # atno 17321 bound_to 7965
  140.4820  144.1436  150.5934 LP  0  0  0  0  0  0  0  0  0  0  0  0  # atno 17342 bound_to 10162
  140.4267  143.2586  151.9647 LP  0  0  0  0  0  0  0  0  0  0  0  0  # atno 17343 bound_to 10162
  157.2170  131.0473  151.2568 LP  0  0  0  0  0  0  0  0  0  0  0  0  # atno 17370 bound_to 10713
  157.3836  130.7244  149.6647 LP  0  0  0  0  0  0  0  0  0  0  0  0  # atno 17371 bound_to 10713
  140.7436  133.8956  155.8296 LP  0  0  0  0  0  0  0  0  0  0  0  0  # atno 17394 bound_to 11000
  141.0057  134.1089  157.4272 LP  0  0  0  0  0  0  0  0  0  0  0  0  # atno 17395 bound_to 11000

$$$$
