AV-unprocessed.smi:3193|AV-procd|sdf|12201|dock3
  -GOLD-   2272018 33D 1   1.00000     0.00000
 Structure written by MMmdl.
 40 41  0  0  0  0  0  0  0  0  2 V2000
  151.2954  145.5664  159.8267 C   0  0  0  0  0  0  0  0  0  0  0  0
  151.6051  144.0675  159.9997 C   0  0  2  0  0  0  0  0  0  0  0  0
  152.4790  143.8699  161.2569 C   0  0  0  0  0  0  0  0  0  0  0  0
  152.8082  142.3931  161.5081 C   0  0  0  0  0  0  0  0  0  0  0  0
  153.4892  141.7741  160.2837 C   0  0  0  0  0  0  0  0  0  0  0  0
  152.6187  141.9443  159.0312 C   0  0  0  0  0  0  0  0  0  0  0  0
  152.2774  143.4280  158.7502 C   0  0  1  0  0  0  0  0  0  0  0  0
  151.4102  143.5522  157.4765 C   0  0  0  0  0  0  0  0  0  0  0  0
  150.1300  142.8276  157.6096 N   0  3  0  0  0  0  0  0  0  0  0  0
  150.1860  141.4214  157.1664 C   0  0  0  0  0  0  0  0  0  0  0  0
  150.5741  141.3246  155.6850 C   0  0  0  0  0  0  0  0  0  0  0  0
  151.0588  140.0008  155.3508 N   0  0  0  0  0  0  0  0  0  0  0  0
  150.5960  139.1687  154.3398 C   0  0  0  0  0  0  0  0  0  0  0  0
  151.3580  138.0234  154.3943 C   0  0  0  0  0  0  0  0  0  0  0  0
  152.2891  138.1288  155.4252 N   0  0  0  0  0  0  0  0  0  0  0  0
  152.0508  139.3250  155.9468 C   0  0  0  0  0  0  0  0  0  0  0  0
  152.1853  146.1242  159.5334 H   0  0  0  0  0  0  0  0  0  0  0  0
  150.9282  145.9993  160.7579 H   0  0  0  0  0  0  0  0  0  0  0  0
  150.5229  145.7422  159.0793 H   0  0  0  0  0  0  0  0  0  0  0  0
  150.6572  143.5556  160.1743 H   0  0  0  0  0  0  0  0  0  0  0  0
  153.4069  144.4344  161.1528 H   0  0  0  0  0  0  0  0  0  0  0  0
  151.9708  144.2763  162.1324 H   0  0  0  0  0  0  0  0  0  0  0  0
  153.4541  142.2989  162.3816 H   0  0  0  0  0  0  0  0  0  0  0  0
  151.8932  141.8455  161.7379 H   0  0  0  0  0  0  0  0  0  0  0  0
  154.4602  142.2450  160.1246 H   0  0  0  0  0  0  0  0  0  0  0  0
  153.6832  140.7160  160.4621 H   0  0  0  0  0  0  0  0  0  0  0  0
  153.1424  141.5043  158.1825 H   0  0  0  0  0  0  0  0  0  0  0  0
  151.6982  141.3714  159.1522 H   0  0  0  0  0  0  0  0  0  0  0  0
  153.2130  143.9604  158.5708 H   0  0  0  0  0  0  0  0  0  0  0  0
  151.2167  144.6016  157.2497 H   0  0  0  0  0  0  0  0  0  0  0  0
  151.9259  143.1294  156.6156 H   0  0  0  0  0  0  0  0  0  0  0  0
  149.8503  142.8475  158.5800 H   0  0  0  0  0  0  0  0  0  0  0  0
  150.9090  140.8798  157.7782 H   0  0  0  0  0  0  0  0  0  0  0  0
  149.2126  140.9557  157.3281 H   0  0  0  0  0  0  0  0  0  0  0  0
  149.7174  141.5522  155.0489 H   0  0  0  0  0  0  0  0  0  0  0  0
  151.3528  142.0496  155.4438 H   0  0  0  0  0  0  0  0  0  0  0  0
  149.7869  139.4510  153.6821 H   0  0  0  0  0  0  0  0  0  0  0  0
  151.3091  137.1392  153.7757 H   0  0  0  0  0  0  0  0  0  0  0  0
  152.6138  139.7201  156.7799 H   0  0  0  0  0  0  0  0  0  0  0  0
  149.4315  143.3100  157.0620 H   0  0  0  0  0  0  0  0  0  0  0  0
  1  2  1  0  0  0  0
  1 17  1  0  0  0  0
  1 18  1  0  0  0  0
  1 19  1  0  0  0  0
  2  7  1  0  0  0  0
  2  3  1  0  0  0  0
  2 20  1  0  0  0  0
  3  4  1  0  0  0  0
  3 21  1  0  0  0  0
  3 22  1  0  0  0  0
  4  5  1  0  0  0  0
  4 23  1  0  0  0  0
  4 24  1  0  0  0  0
  5  6  1  0  0  0  0
  5 25  1  0  0  0  0
  5 26  1  0  0  0  0
  6  7  1  0  0  0  0
  6 27  1  0  0  0  0
  6 28  1  0  0  0  0
  7  8  1  0  0  0  0
  7 29  1  0  0  0  0
  8  9  1  0  0  0  0
  8 30  1  0  0  0  0
  8 31  1  0  0  0  0
  9 10  1  0  0  0  0
  9 32  1  0  0  0  0
  9 40  1  0  0  0  0
 10 11  1  0  0  0  0
 10 33  1  0  0  0  0
 10 34  1  0  0  0  0
 11 12  1  0  0  0  0
 11 35  1  0  0  0  0
 11 36  1  0  0  0  0
 12 16  1  0  0  0  0
 12 13  1  0  0  0  0
 13 14  2  0  0  0  0
 13 37  1  0  0  0  0
 14 15  1  0  0  0  0
 14 38  1  0  0  0  0
 15 16  2  0  0  0  0
 16 39  1  0  0  0  0
M  CHG  1   9   1
M  END
> <s_m_source_file>
AV-unprocessed.smi

> <i_m_source_file_index>
3193

> <i_lp_mmshare_version>
43012

> <i_f3d_flags>
0

> <s_epik_input>
W0NIM11bQ0BASF0xW0NIMl1bQ0gyXVtDSDJdW0NIMl1bQ0BIXTFbQ0gyXVtOSF1bQ0gyXVtDSDJdbjJbY0hdW2NIXW5bY0hdMg==

> <s_epik_cmdline>
J2VwaWtfcHl0aG9uJywgJy1waCcsICc3LjAnLCAnLXRuJywgJzgnLCAnLW1hJywgJzIwMCcsICctbWV0YWxfYmluZGluZycsICctaW1hZScsICc8aW5maWxlLm1hZT4nLCAnLW9tYWUnLCAnPG91dGZpbGUubWFlPic=

> <r_lp_tautomer_probability>
1

> <r_epik_Ionization_Penalty>
0.0503046

> <r_epik_Ionization_Penalty_Charging>
0.0503046

> <r_epik_Ionization_Penalty_Neutral>
0

> <r_epik_State_Penalty>
0.0981804

> <r_epik_Charging_Adjusted_Penalty>
0.148485

> <i_epik_Tot_Q>
1

> <i_epik_Tot_abs_Q>
1

> <r_epik_Metal_State_Penalty>
0.000105854

> <b_epik_Metal_Only>
0

> <s_lp_Force_Field>
OPLS_2005

> <r_lp_Energy>
18.7855

> <b_lp_Chiralities_Consistent>
1

> <s_lp_Variant>
AV-unprocessed.smi:3193-1

> <Gold.Version>
5.8.1

> <Gold.Id.Protein>
6NUR|6NUR_protein|mol2

> <Gold.PLP.Fitness>
56.4152

> <Gold.PLP.PLP>
-44.7743

> <Gold.PLP.part.hbond>
-1.0000

> <Gold.PLP.part.metal>
0.0000

> <Gold.PLP.part.buried>
-1.9813

> <Gold.PLP.part.nonpolar>
-40.4220

> <Gold.PLP.part.repulsive>
0.0515

> <Gold.PLP.ligand.clash>
0.0000

> <Gold.PLP.ligand.torsion>
0.3066

> <Gold.PLP.Chemscore.Hbond>
2.0000

> <Gold.PLP.Chemscore.CHOScore>
2.0527

> <Gold.PLP.Chemscore.Metal>
0.0000

> <Gold.Chemscore.Hbonds>
donor molecule, donor type, donor heavy atom, donor atom, acceptor molecule, acceptor atom, score
      L1  H     9    40       P1  8028  1.89
      L1  C    13    37       P1  7957  0.85
      L1  C    14    38       P1  7949  0.92

> <Gold.PLP.Chemscore.Internal.Correction>
0.0961

> <Gold.Rescore>
     Score         DG    S(hbond)    S(metal)    S(lipo)     H(rot)  DE(clash)    DE(int)     intcor
     17.60     -17.96       0.95        0.00     120.80       1.89       0.07       0.29       ----

> <Gold.Chemscore.Fitness>
17.6008

> <Gold.Chemscore.DG>
-17.9612

> <Gold.Chemscore.ZeroCoef>
-5.4800

> <Gold.Chemscore.Hbond>
0.9533

> <Gold.Chemscore.Metal>
0.0000

> <Gold.Chemscore.Lipo>
120.8050

> <Gold.Chemscore.Internal_Hbond>
0.0000

> <Gold.Chemscore.DEClash>
0.0675

> <Gold.Chemscore.DEInternal>
0.2929

> <Gold.Chemscore.Rot>
1.8895

> <Gold.Chemscore.Internal.Correction>
   9.000000E+99

> <Gold.Chemscore.Hbonds>
donor molecule, donor type, donor heavy atom, donor atom, acceptor molecule, acceptor atom, score
      L1  H     9    40       P1  8028  0.82

> <Gold.Chemscore.Hbond.Weighted>
-3.1841

> <Gold.Chemscore.Metal.Weighted>
-0.0000

> <Gold.Chemscore.Lipo.Weighted>
-14.1342

> <Gold.Chemscore.Internal_Hbond.Weighted>
0.0000

> <Gold.Chemscore.DEClash.Weighted>
0.0675

> <Gold.Chemscore.DEInternal.Weighted>
0.2929

> <Gold.Chemscore.Rot.Weighted>
4.8371

> <Gold.Chemscore.Internal.Correction.Weighted>
   9.000000E+99

> <Gold.Protein.RotatedTorsions>
[ 6907 6896 6895 6894 ] final -119.69 input  -60.11 | X-H torsion
[ 7974 7965 7964 7962 ] final   22.18 input  175.53 | X-H torsion
[ 8008 7997 7996 7995 ] final  -47.60 input   59.86 | X-H torsion
[ 10167 10162 10161 10158 ] final   37.62 input  -65.29 | X-H torsion
[ 10718 10713 10712 10709 ] final  -74.56 input   66.30 | X-H torsion
[ 10763 10752 10751 10750 ] final  -20.21 input  -60.55 | X-H torsion
[ 11005 11000 10999 10996 ] final  -28.60 input  -57.11 | X-H torsion

> <Gold.Protein.ActiveResidues>
 VAL166  LYS551  ARG553  GLY616  TRP617  ASP618  TYR619  PRO620  LYS621  CYS622 
 ASP623  PHE694  ASN695  SER759  ASP760  ASP761  ALA762  ILE779  LEU786  VAL792 
 PHE793  MET794  SER795  GLU796  ALA797  LYS798  CYS799  TRP800  GLU811  SER814 

> <Gold.Protein.RotatedAtoms>
  150.8328  133.8063  159.3091 H   0  0  0  0  0  0  0  0  0  0  0  0  # atno 6907 bound_to 6896
  151.5788  135.1058  160.0022 H   0  0  0  0  0  0  0  0  0  0  0  0  # atno 6908 bound_to 6896
  152.4405  133.7397  159.6690 H   0  0  0  0  0  0  0  0  0  0  0  0  # atno 6909 bound_to 6896
  146.2040  139.7922  142.8740 H   0  0  0  0  0  0  0  0  0  0  0  0  # atno 7974 bound_to 7965
  154.4018  140.1342  156.4201 H   0  0  0  0  0  0  0  0  0  0  0  0  # atno 8008 bound_to 7997
  155.7651  140.3485  155.5197 H   0  0  0  0  0  0  0  0  0  0  0  0  # atno 8009 bound_to 7997
  155.8822  140.0989  157.1468 H   0  0  0  0  0  0  0  0  0  0  0  0  # atno 8010 bound_to 7997
  140.4015  144.1717  150.6134 H   0  0  0  0  0  0  0  0  0  0  0  0  # atno 10167 bound_to 10162
  156.0238  130.4420  150.2910 H   0  0  0  0  0  0  0  0  0  0  0  0  # atno 10718 bound_to 10713
  153.6169  135.6994  153.5325 H   0  0  0  0  0  0  0  0  0  0  0  0  # atno 10763 bound_to 10752
  153.2970  135.4140  155.1218 H   0  0  0  0  0  0  0  0  0  0  0  0  # atno 10764 bound_to 10752
  154.8551  135.3639  154.5709 H   0  0  0  0  0  0  0  0  0  0  0  0  # atno 10765 bound_to 10752
  140.9222  133.7391  156.0818 H   0  0  0  0  0  0  0  0  0  0  0  0  # atno 11005 bound_to 11000
  145.3385  141.0282  143.3406 LP  0  0  0  0  0  0  0  0  0  0  0  0  # atno 17320 bound_to 7965
  144.8748  139.4986  143.6750 LP  0  0  0  0  0  0  0  0  0  0  0  0  # atno 17321 bound_to 7965
  140.4735  143.2404  151.9056 LP  0  0  0  0  0  0  0  0  0  0  0  0  # atno 17342 bound_to 10162
  139.4784  144.5345  151.8618 LP  0  0  0  0  0  0  0  0  0  0  0  0  # atno 17343 bound_to 10162
  157.1013  131.0196  151.3084 LP  0  0  0  0  0  0  0  0  0  0  0  0  # atno 17370 bound_to 10713
  157.4777  130.7746  149.7384 LP  0  0  0  0  0  0  0  0  0  0  0  0  # atno 17371 bound_to 10713
  140.7972  134.3550  157.5449 LP  0  0  0  0  0  0  0  0  0  0  0  0  # atno 17394 bound_to 11000
  139.8778  134.9176  156.3182 LP  0  0  0  0  0  0  0  0  0  0  0  0  # atno 17395 bound_to 11000

$$$$
