AV-unprocessed.smi:34|AV-procd|sdf|242|dock2
  -GOLD-   2262015593D 1   1.00000     0.00000
 Structure written by MMmdl.
 54 58  0  0  0  0  0  0  0  0  2 V2000
  143.6395  143.9898  158.5092 O   0  0  0  0  0  0  0  0  0  0  0  0
  143.6172  144.9025  157.6808 C   0  0  0  0  0  0  0  0  0  0  0  0
  143.1520  144.8595  156.4065 N   0  5  0  0  0  0  0  0  0  0  0  0
  143.9948  144.5841  155.3993 C   0  0  0  0  0  0  0  0  0  0  0  0
  144.0119  145.3609  154.2859 N   0  0  0  0  0  0  0  0  0  0  0  0
  144.8584  145.0904  153.2850 C   0  0  0  0  0  0  0  0  0  0  0  0
  145.7563  144.1048  153.1864 N   0  0  0  0  0  0  0  0  0  0  0  0
  145.7374  143.3092  154.2948 C   0  0  0  0  0  0  0  0  0  0  0  0
  144.8923  143.4817  155.4287 C   0  0  0  0  0  0  0  0  0  0  0  0
  145.1376  142.5003  156.3772 N   0  0  0  0  0  0  0  0  0  0  0  0
  146.1044  141.7963  155.7919 C   0  0  0  0  0  0  0  0  0  0  0  0
  146.5087  142.1925  154.5660 N   0  0  0  0  0  0  0  0  0  0  0  0
  147.5784  141.6226  153.6845 C   0  0  1  0  0  0  0  0  0  0  0  0
  148.8077  141.7610  154.3332 O   0  0  0  0  0  0  0  0  0  0  0  0
  149.0835  140.5699  155.0574 C   0  0  2  0  0  0  0  0  0  0  0  0
  150.5736  140.4979  155.4077 C   0  0  0  0  0  0  0  0  0  0  0  0
  150.8535  141.3885  156.4750 O   0  0  0  0  0  0  0  0  0  0  0  0
  151.7521  141.0474  157.4189 C   0  0  0  0  0  0  0  0  0  0  0  0
  152.4164  140.0097  157.3842 O   0  0  0  0  0  0  0  0  0  0  0  0
  151.8616  142.0585  158.5096 C   0  0  0  0  0  0  0  0  0  0  0  0
  152.4937  141.7019  159.7240 C   0  0  0  0  0  0  0  0  0  0  0  0
  152.6149  142.6359  160.7711 C   0  0  0  0  0  0  0  0  0  0  0  0
  152.1038  143.9377  160.6177 C   0  0  0  0  0  0  0  0  0  0  0  0
  151.4707  144.3041  159.4156 C   0  0  0  0  0  0  0  0  0  0  0  0
  151.3492  143.3717  158.3666 C   0  0  0  0  0  0  0  0  0  0  0  0
  148.6070  139.4955  154.0839 C   0  0  1  0  0  0  0  0  0  0  0  0
  148.3405  138.3452  154.7038 F   0  0  0  0  0  0  0  0  0  0  0  0
  147.3512  140.1109  153.4794 C   0  0  2  0  0  0  0  0  0  0  0  0
  147.2392  139.7639  152.1145 O   0  0  0  0  0  0  0  0  0  0  0  0
  144.2225  146.2300  158.0500 C   0  0  0  0  0  0  0  0  0  0  0  0
  144.7130  146.4353  159.3597 C   0  0  0  0  0  0  0  0  0  0  0  0
  145.2572  147.6793  159.7340 C   0  0  0  0  0  0  0  0  0  0  0  0
  145.3076  148.7350  158.8047 C   0  0  0  0  0  0  0  0  0  0  0  0
  144.8102  148.5467  157.5016 C   0  0  0  0  0  0  0  0  0  0  0  0
  144.2665  147.3026  157.1260 C   0  0  0  0  0  0  0  0  0  0  0  0
  144.8099  145.7620  152.4408 H   0  0  0  0  0  0  0  0  0  0  0  0
  146.5424  140.9441  156.2901 H   0  0  0  0  0  0  0  0  0  0  0  0
  147.5311  142.2245  152.7757 H   0  0  0  0  0  0  0  0  0  0  0  0
  148.4787  140.5554  155.9657 H   0  0  0  0  0  0  0  0  0  0  0  0
  150.8501  139.4788  155.6817 H   0  0  0  0  0  0  0  0  0  0  0  0
  151.1718  140.7782  154.5396 H   0  0  0  0  0  0  0  0  0  0  0  0
  152.8942  140.7081  159.8652 H   0  0  0  0  0  0  0  0  0  0  0  0
  153.1013  142.3525  161.6929 H   0  0  0  0  0  0  0  0  0  0  0  0
  152.1970  144.6540  161.4206 H   0  0  0  0  0  0  0  0  0  0  0  0
  151.0775  145.3031  159.2971 H   0  0  0  0  0  0  0  0  0  0  0  0
  150.8567  143.6855  157.4578 H   0  0  0  0  0  0  0  0  0  0  0  0
  149.3663  139.3052  153.3237 H   0  0  0  0  0  0  0  0  0  0  0  0
  146.4609  139.7849  154.0199 H   0  0  0  0  0  0  0  0  0  0  0  0
  148.0428  140.0005  151.6773 H   0  0  0  0  0  0  0  0  0  0  0  0
  144.6795  145.6356  160.0856 H   0  0  0  0  0  0  0  0  0  0  0  0
  145.6338  147.8232  160.7358 H   0  0  0  0  0  0  0  0  0  0  0  0
  145.7233  149.6893  159.0922 H   0  0  0  0  0  0  0  0  0  0  0  0
  144.8413  149.3580  156.7893 H   0  0  0  0  0  0  0  0  0  0  0  0
  143.8794  147.1823  156.1244 H   0  0  0  0  0  0  0  0  0  0  0  0
  1  2  2  0  0  0  0
  2  3  1  0  0  0  0
  2 30  1  0  0  0  0
  3  4  1  0  0  0  0
  4  9  1  0  0  0  0
  4  5  2  0  0  0  0
  5  6  1  0  0  0  0
  6  7  2  0  0  0  0
  6 36  1  0  0  0  0
  7  8  1  0  0  0  0
  8 12  1  0  0  0  0
  8  9  2  0  0  0  0
  9 10  1  0  0  0  0
 10 11  2  0  0  0  0
 11 12  1  0  0  0  0
 11 37  1  0  0  0  0
 12 13  1  0  0  0  0
 13 28  1  0  0  0  0
 13 14  1  0  0  0  0
 13 38  1  0  0  0  0
 14 15  1  0  0  0  0
 15 16  1  0  0  0  0
 15 26  1  0  0  0  0
 15 39  1  0  0  0  0
 16 17  1  0  0  0  0
 16 40  1  0  0  0  0
 16 41  1  0  0  0  0
 17 18  1  0  0  0  0
 18 19  2  0  0  0  0
 18 20  1  0  0  0  0
 20 25  1  0  0  0  0
 20 21  2  0  0  0  0
 21 22  1  0  0  0  0
 21 42  1  0  0  0  0
 22 23  2  0  0  0  0
 22 43  1  0  0  0  0
 23 24  1  0  0  0  0
 23 44  1  0  0  0  0
 24 25  2  0  0  0  0
 24 45  1  0  0  0  0
 25 46  1  0  0  0  0
 26 27  1  0  0  0  0
 26 28  1  0  0  0  0
 26 47  1  0  0  0  0
 28 29  1  0  0  0  0
 28 48  1  0  0  0  0
 29 49  1  0  0  0  0
 30 35  1  0  0  0  0
 30 31  2  0  0  0  0
 31 32  1  0  0  0  0
 31 50  1  0  0  0  0
 32 33  2  0  0  0  0
 32 51  1  0  0  0  0
 33 34  1  0  0  0  0
 33 52  1  0  0  0  0
 34 35  2  0  0  0  0
 34 53  1  0  0  0  0
 35 54  1  0  0  0  0
M  CHG  1   3  -1
M  END
> <s_m_source_file>
AV-unprocessed.smi

> <i_m_source_file_index>
34

> <i_lp_mmshare_version>
43012

> <i_f3d_flags>
0

> <s_epik_input>
W2NIXTFbY0hdW2NIXVtjSF1bY0hdYzFDKD1PKVtOSF1jKG5bY0hdbjIpYyhjMjMpbltjSF1uM1tDQEBIXTRPW0NASF0oW0NAQEhdKEYpW0NASF00W09IXSlbQ0gyXU9DKD1PKWM1W2NIXVtjSF1bY0hdW2NIXVtjSF01

> <s_epik_cmdline>
J2VwaWtfcHl0aG9uJywgJy1waCcsICc3LjAnLCAnLXRuJywgJzgnLCAnLW1hJywgJzIwMCcsICctbWV0YWxfYmluZGluZycsICctaW1hZScsICc8aW5maWxlLm1hZT4nLCAnLW9tYWUnLCAnPG91dGZpbGUubWFlPic=

> <r_lp_tautomer_probability>
1

> <r_epik_Ionization_Penalty>
4.33227

> <r_epik_Ionization_Penalty_Charging>
3.41027

> <r_epik_Ionization_Penalty_Neutral>
0.922001

> <r_epik_State_Penalty>
3.41358

> <r_epik_Charging_Adjusted_Penalty>
6.82385

> <i_epik_Tot_Q>
-1

> <i_epik_Tot_abs_Q>
1

> <r_epik_Metal_State_Penalty>
0.496292

> <b_epik_Metal_Only>
1

> <s_epik_Chemistry_Notes>
This compound has an ester and may undergo hydrolysis at high or low pH. This compound contains an acetal/aminal-like group ( X-CH(R)-Y where X, Y are N, S, or O) that may be acid/base labile, releasing an aldehyde.

> <s_lp_Force_Field>
OPLS_2005

> <r_lp_Energy>
39.213

> <b_lp_Chiralities_Consistent>
1

> <s_lp_Variant>
AV-unprocessed.smi:34-28

> <Gold.Version>
5.8.1

> <Gold.Id.Protein>
6NUR|6NUR_protein|mol2

> <Gold.PLP.Fitness>
78.3491

> <Gold.PLP.PLP>
-73.7260

> <Gold.PLP.part.hbond>
-4.0000

> <Gold.PLP.part.metal>
0.0000

> <Gold.PLP.part.buried>
-9.2463

> <Gold.PLP.part.nonpolar>
-59.6366

> <Gold.PLP.part.repulsive>
0.6912

> <Gold.PLP.ligand.clash>
0.0000

> <Gold.PLP.ligand.torsion>
1.7169

> <Gold.PLP.Chemscore.Hbond>
2.2271

> <Gold.PLP.Chemscore.CHOScore>
0.0000

> <Gold.PLP.Chemscore.Metal>
0.0000

> <Gold.Chemscore.Hbonds>
donor molecule, donor type, donor heavy atom, donor atom, acceptor molecule, acceptor atom, score
      L1  H    29    49       P1  7957  1.00
      P1  H  7997  8009       L1    19  0.84
      P1  H  8011  8017       L1    14  0.07

> <Gold.PLP.Chemscore.Internal.Correction>
1.3754

> <Gold.Rescore>
     Score         DG    S(hbond)    S(metal)    S(lipo)     H(rot)  DE(clash)    DE(int)     intcor
     17.29     -21.05       1.89        0.00     138.19       2.69       0.92       2.84       ----

> <Gold.Chemscore.Fitness>
17.2930

> <Gold.Chemscore.DG>
-21.0473

> <Gold.Chemscore.ZeroCoef>
-5.4800

> <Gold.Chemscore.Hbond>
1.8850

> <Gold.Chemscore.Metal>
0.0000

> <Gold.Chemscore.Lipo>
138.1949

> <Gold.Chemscore.Internal_Hbond>
0.0000

> <Gold.Chemscore.DEClash>
0.9158

> <Gold.Chemscore.DEInternal>
2.8385

> <Gold.Chemscore.Rot>
2.6944

> <Gold.Chemscore.Internal.Correction>
   9.000000E+99

> <Gold.Chemscore.Hbonds>
donor molecule, donor type, donor heavy atom, donor atom, acceptor molecule, acceptor atom, score
      L1  H    29    49       P1  7957  0.99
      P1  H  7997  8009       L1    19  0.80

> <Gold.Chemscore.Hbond.Weighted>
-6.2960

> <Gold.Chemscore.Metal.Weighted>
-0.0000

> <Gold.Chemscore.Lipo.Weighted>
-16.1688

> <Gold.Chemscore.Internal_Hbond.Weighted>
0.0000

> <Gold.Chemscore.DEClash.Weighted>
0.9158

> <Gold.Chemscore.DEInternal.Weighted>
2.8385

> <Gold.Chemscore.Rot.Weighted>
6.8975

> <Gold.Chemscore.Internal.Correction.Weighted>
   9.000000E+99

> <Gold.Protein.RotatedTorsions>
[ 6907 6896 6895 6894 ] final  -83.78 input  -60.11 | X-H torsion
[ 7974 7965 7964 7962 ] final -145.99 input  175.53 | X-H torsion
[ 8008 7997 7996 7995 ] final  175.53 input   59.86 | X-H torsion
[ 10167 10162 10161 10158 ] final  132.96 input  -65.29 | X-H torsion
[ 10718 10713 10712 10709 ] final  -61.28 input   66.30 | X-H torsion
[ 10763 10752 10751 10750 ] final  136.12 input  -60.55 | X-H torsion
[ 11005 11000 10999 10996 ] final -172.64 input  -57.11 | X-H torsion

> <Gold.Protein.ActiveResidues>
 VAL166  LYS551  ARG553  GLY616  TRP617  ASP618  TYR619  PRO620  LYS621  CYS622 
 ASP623  PHE694  ASN695  SER759  ASP760  ASP761  ALA762  ILE779  LEU786  VAL792 
 PHE793  MET794  SER795  GLU796  ALA797  LYS798  CYS799  TRP800  GLU811  SER814 

> <Gold.Protein.RotatedAtoms>
  150.6882  134.3459  159.4887 H   0  0  0  0  0  0  0  0  0  0  0  0  # atno 6907 bound_to 6896
  152.1306  134.9135  160.0568 H   0  0  0  0  0  0  0  0  0  0  0  0  # atno 6908 bound_to 6896
  152.0306  133.3901  159.4333 H   0  0  0  0  0  0  0  0  0  0  0  0  # atno 6909 bound_to 6896
  144.8190  140.5514  143.5591 H   0  0  0  0  0  0  0  0  0  0  0  0  # atno 7974 bound_to 7965
  156.0860  140.1406  156.9652 H   0  0  0  0  0  0  0  0  0  0  0  0  # atno 8008 bound_to 7997
  154.4613  140.0942  156.6949 H   0  0  0  0  0  0  0  0  0  0  0  0  # atno 8009 bound_to 7997
  155.4998  140.3450  155.4371 H   0  0  0  0  0  0  0  0  0  0  0  0  # atno 8010 bound_to 7997
  139.5317  144.6638  151.4927 H   0  0  0  0  0  0  0  0  0  0  0  0  # atno 10167 bound_to 10162
  156.0932  130.4197  150.0972 H   0  0  0  0  0  0  0  0  0  0  0  0  # atno 10718 bound_to 10713
  153.8513  135.3079  155.3432 H   0  0  0  0  0  0  0  0  0  0  0  0  # atno 10763 bound_to 10752
  154.7890  135.4793  154.0013 H   0  0  0  0  0  0  0  0  0  0  0  0  # atno 10764 bound_to 10752
  153.1517  135.6844  153.8966 H   0  0  0  0  0  0  0  0  0  0  0  0  # atno 10765 bound_to 10752
  140.4948  134.5950  157.4967 H   0  0  0  0  0  0  0  0  0  0  0  0  # atno 11005 bound_to 11000
  145.5148  139.1478  143.3584 LP  0  0  0  0  0  0  0  0  0  0  0  0  # atno 17320 bound_to 7965
  146.2494  140.5289  142.8900 LP  0  0  0  0  0  0  0  0  0  0  0  0  # atno 17321 bound_to 7965
  140.6499  143.8718  150.6775 LP  0  0  0  0  0  0  0  0  0  0  0  0  # atno 17342 bound_to 10162
  140.2079  143.3907  152.1741 LP  0  0  0  0  0  0  0  0  0  0  0  0  # atno 17343 bound_to 10162
  156.8977  130.9610  151.3580 LP  0  0  0  0  0  0  0  0  0  0  0  0  # atno 17370 bound_to 10713
  157.6087  130.8567  149.8917 LP  0  0  0  0  0  0  0  0  0  0  0  0  # atno 17371 bound_to 10713
  139.9748  134.7233  155.9971 LP  0  0  0  0  0  0  0  0  0  0  0  0  # atno 17394 bound_to 11000
  141.1466  133.6555  156.3886 LP  0  0  0  0  0  0  0  0  0  0  0  0  # atno 17395 bound_to 11000

$$$$
