AV-unprocessed.smi:623|AV-procd|sdf|3096|dock2
  -GOLD-   22720 0 13D 1   1.00000     0.00000
 Structure written by MMmdl.
 44 46  0  0  0  0  0  0  0  0  2 V2000
  149.3588  141.4281  154.6489 C   0  0  0  0  0  0  0  0  0  0  0  0
  149.7103  140.3152  155.6761 C   0  0  0  0  0  0  0  0  0  0  0  0
  149.2863  138.9845  154.9930 C   0  0  0  0  0  0  0  0  0  0  0  0
  151.1732  140.3397  156.1631 C   0  0  1  0  0  0  0  0  0  0  0  0
  151.2910  141.7015  156.8844 C   0  0  0  0  0  0  0  0  0  0  0  0
  149.9000  141.8584  157.5340 C   0  0  0  0  0  0  0  0  0  0  0  0
  149.1785  140.5501  157.1183 C   0  0  1  0  0  0  0  0  0  0  0  0
  147.6465  140.6471  157.2648 C   0  0  0  0  0  0  0  0  0  0  0  0
  149.8553  139.4328  157.9704 C   0  0  1  0  0  0  0  0  0  0  0  0
  149.0619  138.2112  158.0263 N   0  0  0  0  0  0  0  0  0  0  0  0
  149.4516  137.0195  158.5038 C   0  0  0  0  0  0  0  0  0  0  0  0
  150.5654  136.8246  158.9890 O   0  0  0  0  0  0  0  0  0  0  0  0
  148.4494  135.8551  158.4078 C   0  0  0  0  0  0  0  0  0  0  0  0
  147.8553  135.4622  159.7001 N   0  0  0  0  0  0  0  0  0  0  0  0
  147.7476  134.0865  159.9702 C   0  0  0  0  0  0  0  0  0  0  0  0
  147.1731  133.6258  161.0974 C   0  0  0  0  0  0  0  0  0  0  0  0
  146.6552  134.5961  162.0539 C   0  0  0  0  0  0  0  0  0  0  0  0
  146.1238  134.1939  163.0868 O   0  0  0  0  0  0  0  0  0  0  0  0
  146.7865  135.9202  161.7488 N   0  5  0  0  0  0  0  0  0  0  0  0
  147.3688  136.3740  160.5959 C   0  0  0  0  0  0  0  0  0  0  0  0
  147.4576  137.5728  160.3304 O   0  0  0  0  0  0  0  0  0  0  0  0
  151.2164  139.2505  157.2593 C   0  0  0  0  0  0  0  0  0  0  0  0
  149.9007  141.2738  153.7154 H   0  0  0  0  0  0  0  0  0  0  0  0
  149.5844  142.4425  154.9691 H   0  0  0  0  0  0  0  0  0  0  0  0
  148.2954  141.4089  154.4080 H   0  0  0  0  0  0  0  0  0  0  0  0
  149.5446  138.0794  155.5352 H   0  0  0  0  0  0  0  0  0  0  0  0
  149.7589  138.8884  154.0153 H   0  0  0  0  0  0  0  0  0  0  0  0
  148.2085  138.9562  154.8311 H   0  0  0  0  0  0  0  0  0  0  0  0
  151.9213  140.1967  155.3827 H   0  0  0  0  0  0  0  0  0  0  0  0
  152.0926  141.7095  157.6239 H   0  0  0  0  0  0  0  0  0  0  0  0
  151.4946  142.5112  156.1833 H   0  0  0  0  0  0  0  0  0  0  0  0
  149.9637  141.9788  158.6162 H   0  0  0  0  0  0  0  0  0  0  0  0
  149.3877  142.7434  157.1558 H   0  0  0  0  0  0  0  0  0  0  0  0
  147.3631  140.7828  158.3089 H   0  0  0  0  0  0  0  0  0  0  0  0
  147.1441  139.7505  156.9011 H   0  0  0  0  0  0  0  0  0  0  0  0
  147.2478  141.4919  156.7035 H   0  0  0  0  0  0  0  0  0  0  0  0
  150.0025  139.7716  158.9977 H   0  0  0  0  0  0  0  0  0  0  0  0
  148.1235  138.2727  157.6573 H   0  0  0  0  0  0  0  0  0  0  0  0
  147.6607  136.1407  157.7106 H   0  0  0  0  0  0  0  0  0  0  0  0
  148.9474  135.0050  157.9390 H   0  0  0  0  0  0  0  0  0  0  0  0
  148.1460  133.4362  159.2053 H   0  0  0  0  0  0  0  0  0  0  0  0
  147.0922  132.5655  161.2862 H   0  0  0  0  0  0  0  0  0  0  0  0
  151.3291  138.2558  156.8276 H   0  0  0  0  0  0  0  0  0  0  0  0
  152.0530  139.3882  157.9453 H   0  0  0  0  0  0  0  0  0  0  0  0
  1  2  1  0  0  0  0
  1 23  1  0  0  0  0
  1 24  1  0  0  0  0
  1 25  1  0  0  0  0
  2  7  1  0  0  0  0
  2  3  1  0  0  0  0
  2  4  1  0  0  0  0
  3 26  1  0  0  0  0
  3 27  1  0  0  0  0
  3 28  1  0  0  0  0
  4 22  1  0  0  0  0
  4  5  1  0  0  0  0
  4 29  1  0  0  0  0
  5  6  1  0  0  0  0
  5 30  1  0  0  0  0
  5 31  1  0  0  0  0
  6  7  1  0  0  0  0
  6 32  1  0  0  0  0
  6 33  1  0  0  0  0
  7  8  1  0  0  0  0
  7  9  1  0  0  0  0
  8 34  1  0  0  0  0
  8 35  1  0  0  0  0
  8 36  1  0  0  0  0
  9 10  1  0  0  0  0
  9 22  1  0  0  0  0
  9 37  1  0  0  0  0
 10 11  1  0  0  0  0
 10 38  1  0  0  0  0
 11 12  2  0  0  0  0
 11 13  1  0  0  0  0
 13 14  1  0  0  0  0
 13 39  1  0  0  0  0
 13 40  1  0  0  0  0
 14 20  1  0  0  0  0
 14 15  1  0  0  0  0
 15 16  2  0  0  0  0
 15 41  1  0  0  0  0
 16 17  1  0  0  0  0
 16 42  1  0  0  0  0
 17 18  2  0  0  0  0
 17 19  1  0  0  0  0
 19 20  1  0  0  0  0
 20 21  2  0  0  0  0
 22 43  1  0  0  0  0
 22 44  1  0  0  0  0
M  CHG  1  19  -1
M  END
> <s_m_source_file>
AV-unprocessed.smi

> <i_m_source_file_index>
623

> <i_lp_mmshare_version>
43012

> <i_f3d_flags>
0

> <s_epik_input>
W0NIM11bQ0BdMTJDKFtDSDNdKShbQ0gzXSlbQ0BIXShbQ0gyXVtDSDJdMSlbQ0gyXVtDQEBIXTJbTkhdQyg9TylbQ0gyXW4zW2NIXVtjSF1jKD1PKVtuSF1jMz1P

> <s_epik_cmdline>
J2VwaWtfcHl0aG9uJywgJy1waCcsICc3LjAnLCAnLXRuJywgJzgnLCAnLW1hJywgJzIwMCcsICctbWV0YWxfYmluZGluZycsICctaW1hZScsICc8aW5maWxlLm1hZT4nLCAnLW9tYWUnLCAnPG91dGZpbGUubWFlPic=

> <r_lp_tautomer_probability>
0.999537

> <r_epik_Ionization_Penalty>
3.12624

> <r_epik_Ionization_Penalty_Charging>
3.01273e-08

> <r_epik_Ionization_Penalty_Neutral>
3.12624

> <r_epik_State_Penalty>
3.12534

> <r_epik_Charging_Adjusted_Penalty>
3.12534

> <i_epik_Tot_Q>
-1

> <i_epik_Tot_abs_Q>
1

> <r_epik_Metal_State_Penalty>
0.46406

> <b_epik_Metal_Only>
1

> <s_lp_Force_Field>
OPLS_2005

> <r_lp_Energy>
63.0449

> <b_lp_Chiralities_Consistent>
1

> <s_lp_Variant>
AV-unprocessed.smi:623-6

> <Gold.Version>
5.8.1

> <Gold.Id.Protein>
6NUR|6NUR_protein|mol2

> <Gold.PLP.Fitness>
39.0541

> <Gold.PLP.PLP>
-32.7646

> <Gold.PLP.part.hbond>
-3.8102

> <Gold.PLP.part.metal>
0.0000

> <Gold.PLP.part.buried>
-5.2540

> <Gold.PLP.part.nonpolar>
-24.7683

> <Gold.PLP.part.repulsive>
0.1341

> <Gold.PLP.ligand.clash>
0.0000

> <Gold.PLP.ligand.torsion>
0.4161

> <Gold.PLP.Chemscore.Hbond>
2.3694

> <Gold.PLP.Chemscore.CHOScore>
0.0000

> <Gold.PLP.Chemscore.Metal>
0.0000

> <Gold.Chemscore.Hbonds>
donor molecule, donor type, donor heavy atom, donor atom, acceptor molecule, acceptor atom, score
      P1  H  6896  6908       L1    12  1.00
      P1  H  6931  6943       L1    21  0.15
      P1  H  6934  6947       L1    21  0.98

> <Gold.PLP.Chemscore.Internal.Correction>
0.0134

> <Gold.Rescore>
     Score         DG    S(hbond)    S(metal)    S(lipo)     H(rot)  DE(clash)    DE(int)     intcor
     13.97     -15.28       1.99        0.00      62.80       1.63       0.11       1.20       ----

> <Gold.Chemscore.Fitness>
13.9708

> <Gold.Chemscore.DG>
-15.2797

> <Gold.Chemscore.ZeroCoef>
-5.4800

> <Gold.Chemscore.Hbond>
1.9852

> <Gold.Chemscore.Metal>
0.0000

> <Gold.Chemscore.Lipo>
62.7984

> <Gold.Chemscore.Internal_Hbond>
0.0000

> <Gold.Chemscore.DEClash>
0.1054

> <Gold.Chemscore.DEInternal>
1.2036

> <Gold.Chemscore.Rot>
1.6322

> <Gold.Chemscore.Internal.Correction>
   9.000000E+99

> <Gold.Chemscore.Hbonds>
donor molecule, donor type, donor heavy atom, donor atom, acceptor molecule, acceptor atom, score
      P1  H  6896  6908       L1    12  0.91
      P1  H  6931  6943       L1    21  0.05
      P1  H  6934  6947       L1    21  0.91

> <Gold.Chemscore.Hbond.Weighted>
-6.6306

> <Gold.Chemscore.Metal.Weighted>
-0.0000

> <Gold.Chemscore.Lipo.Weighted>
-7.3474

> <Gold.Chemscore.Internal_Hbond.Weighted>
0.0000

> <Gold.Chemscore.DEClash.Weighted>
0.1054

> <Gold.Chemscore.DEInternal.Weighted>
1.2036

> <Gold.Chemscore.Rot.Weighted>
4.1783

> <Gold.Chemscore.Internal.Correction.Weighted>
   9.000000E+99

> <Gold.Protein.RotatedTorsions>
[ 6907 6896 6895 6894 ] final -155.65 input  -60.11 | X-H torsion
[ 7974 7965 7964 7962 ] final -139.94 input  175.53 | X-H torsion
[ 8008 7997 7996 7995 ] final  171.03 input   59.86 | X-H torsion
[ 10167 10162 10161 10158 ] final  -44.97 input  -65.29 | X-H torsion
[ 10718 10713 10712 10709 ] final   63.65 input   66.30 | X-H torsion
[ 10763 10752 10751 10750 ] final   22.17 input  -60.55 | X-H torsion
[ 11005 11000 10999 10996 ] final   38.86 input  -57.11 | X-H torsion

> <Gold.Protein.ActiveResidues>
 VAL166  LYS551  ARG553  GLY616  TRP617  ASP618  TYR619  PRO620  LYS621  CYS622 
 ASP623  PHE694  ASN695  SER759  ASP760  ASP761  ALA762  ILE779  LEU786  VAL792 
 PHE793  MET794  SER795  GLU796  ALA797  LYS798  CYS799  TRP800  GLU811  SER814 

> <Gold.Protein.RotatedAtoms>
  151.2757  133.4234  159.2623 H   0  0  0  0  0  0  0  0  0  0  0  0  # atno 6907 bound_to 6896
  151.0405  134.9604  159.8169 H   0  0  0  0  0  0  0  0  0  0  0  0  # atno 6908 bound_to 6896
  152.5364  134.2715  159.9026 H   0  0  0  0  0  0  0  0  0  0  0  0  # atno 6909 bound_to 6896
  144.8637  140.6260  143.5312 H   0  0  0  0  0  0  0  0  0  0  0  0  # atno 7974 bound_to 7965
  156.1309  140.1522  156.9066 H   0  0  0  0  0  0  0  0  0  0  0  0  # atno 8008 bound_to 7997
  154.4909  140.0852  156.7631 H   0  0  0  0  0  0  0  0  0  0  0  0  # atno 8009 bound_to 7997
  155.4257  140.3425  155.4277 H   0  0  0  0  0  0  0  0  0  0  0  0  # atno 8010 bound_to 7997
  140.6876  143.2903  151.3572 H   0  0  0  0  0  0  0  0  0  0  0  0  # atno 10167 bound_to 10162
  157.5985  130.9117  149.9743 H   0  0  0  0  0  0  0  0  0  0  0  0  # atno 10718 bound_to 10713
  153.0936  135.6653  153.9806 H   0  0  0  0  0  0  0  0  0  0  0  0  # atno 10763 bound_to 10752
  153.9396  135.2995  155.3444 H   0  0  0  0  0  0  0  0  0  0  0  0  # atno 10764 bound_to 10752
  154.7353  135.5104  153.9105 H   0  0  0  0  0  0  0  0  0  0  0  0  # atno 10765 bound_to 10752
  140.2085  134.3784  155.8061 H   0  0  0  0  0  0  0  0  0  0  0  0  # atno 11005 bound_to 11000
  145.4263  139.1556  143.4047 LP  0  0  0  0  0  0  0  0  0  0  0  0  # atno 17320 bound_to 7965
  146.2880  140.4376  142.8750 LP  0  0  0  0  0  0  0  0  0  0  0  0  # atno 17321 bound_to 7965
  139.6249  144.0834  152.2425 LP  0  0  0  0  0  0  0  0  0  0  0  0  # atno 17342 bound_to 10162
  140.0290  144.6095  150.7503 LP  0  0  0  0  0  0  0  0  0  0  0  0  # atno 17343 bound_to 10162
  156.1053  130.3653  150.0144 LP  0  0  0  0  0  0  0  0  0  0  0  0  # atno 17370 bound_to 10713
  156.8252  130.9373  151.3639 LP  0  0  0  0  0  0  0  0  0  0  0  0  # atno 17371 bound_to 10713
  141.2226  133.7130  156.8377 LP  0  0  0  0  0  0  0  0  0  0  0  0  # atno 17394 bound_to 11000
  140.1977  134.8920  157.3133 LP  0  0  0  0  0  0  0  0  0  0  0  0  # atno 17395 bound_to 11000

$$$$
