AV-unprocessed.smi:2609|AV-procd|sdf|10207|dock9
  -GOLD-   2272014213D 1   1.00000     0.00000
 Structure written by MMmdl.
 24 25  0  0  0  0  0  0  0  0  2 V2000
  152.9298  137.8072  154.7669 O   0  0  0  0  0  0  0  0  0  0  0  0
  152.1675  138.7128  155.0983 C   0  0  0  0  0  0  0  0  0  0  0  0
  150.8862  138.8638  154.4096 C   0  0  0  0  0  0  0  0  0  0  0  0
  150.0695  139.8699  154.7973 C   0  0  0  0  0  0  0  0  0  0  0  0
  150.4163  140.7567  155.8264 N   0  0  0  0  0  0  0  0  0  0  0  0
  151.5471  140.6022  156.4149 C   0  0  0  0  0  0  0  0  0  0  0  0
  151.9459  141.5560  157.5383 C   0  0  0  0  0  0  0  0  0  0  0  0
  152.2132  140.8209  158.8644 C   0  0  0  0  0  0  0  0  0  0  0  0
  152.5699  141.8265  159.9713 C   0  0  0  0  0  0  0  0  0  0  0  0
  151.5277  142.7869  160.1135 O   0  0  0  0  0  0  0  0  0  0  0  0
  151.3238  143.5649  158.9379 C   0  0  0  0  0  0  0  0  0  0  0  0
  150.8966  142.6577  157.7725 C   0  0  0  0  0  0  0  0  0  0  0  0
  152.4511  139.6059  156.0924 N   0  5  0  0  0  0  0  0  0  0  0  0
  150.6016  138.1906  153.6145 H   0  0  0  0  0  0  0  0  0  0  0  0
  149.1108  140.0348  154.3290 H   0  0  0  0  0  0  0  0  0  0  0  0
  152.8756  142.0510  157.2500 H   0  0  0  0  0  0  0  0  0  0  0  0
  151.3323  140.2541  159.1698 H   0  0  0  0  0  0  0  0  0  0  0  0
  153.0229  140.1004  158.7422 H   0  0  0  0  0  0  0  0  0  0  0  0
  152.7016  141.3065  160.9203 H   0  0  0  0  0  0  0  0  0  0  0  0
  153.5132  142.3289  159.7515 H   0  0  0  0  0  0  0  0  0  0  0  0
  150.5506  144.3072  159.1365 H   0  0  0  0  0  0  0  0  0  0  0  0
  152.2339  144.1135  158.6907 H   0  0  0  0  0  0  0  0  0  0  0  0
  150.7630  143.2530  156.8682 H   0  0  0  0  0  0  0  0  0  0  0  0
  149.9258  142.2163  158.0035 H   0  0  0  0  0  0  0  0  0  0  0  0
  1  2  2  0  0  0  0
  2  3  1  0  0  0  0
  2 13  1  0  0  0  0
  3 14  1  0  0  0  0
  3  4  2  0  0  0  0
  4 15  1  0  0  0  0
  4  5  1  0  0  0  0
  5  6  2  0  0  0  0
  6  7  1  0  0  0  0
  6 13  1  0  0  0  0
  7 12  1  0  0  0  0
  7  8  1  0  0  0  0
  7 16  1  0  0  0  0
  8  9  1  0  0  0  0
  8 17  1  0  0  0  0
  8 18  1  0  0  0  0
  9 10  1  0  0  0  0
  9 19  1  0  0  0  0
  9 20  1  0  0  0  0
 10 11  1  0  0  0  0
 11 12  1  0  0  0  0
 11 21  1  0  0  0  0
 11 22  1  0  0  0  0
 12 23  1  0  0  0  0
 12 24  1  0  0  0  0
M  CHG  1  13  -1
M  END
> <s_m_source_file>
AV-unprocessed.smi

> <i_m_source_file_index>
2609

> <i_lp_mmshare_version>
43012

> <i_f3d_flags>
0

> <s_epik_input>
Tz1jMVtjSF1bY0hdW25IXWMobjEpW0NIXTJbQ0gyXVtDSDJdT1tDSDJdW0NIMl0y

> <s_epik_cmdline>
J2VwaWtfcHl0aG9uJywgJy1waCcsICc3LjAnLCAnLXRuJywgJzgnLCAnLW1hJywgJzIwMCcsICctbWV0YWxfYmluZGluZycsICctaW1hZScsICc8aW5maWxlLm1hZT4nLCAnLW9tYWUnLCAnPG91dGZpbGUubWFlPic=

> <r_lp_tautomer_probability>
0.839158

> <r_epik_Ionization_Penalty>
6.39496

> <r_epik_Ionization_Penalty_Charging>
1.06807e-07

> <r_epik_Ionization_Penalty_Neutral>
6.39496

> <r_epik_State_Penalty>
4.27873

> <r_epik_Charging_Adjusted_Penalty>
4.27873

> <i_epik_Tot_Q>
-1

> <i_epik_Tot_abs_Q>
1

> <r_epik_Metal_State_Penalty>
0.734171

> <b_epik_Metal_Only>
1

> <s_lp_Force_Field>
OPLS_2005

> <r_lp_Energy>
16.3076

> <b_lp_Chiralities_Consistent>
1

> <s_lp_Variant>
AV-unprocessed.smi:2609-3

> <Gold.Version>
5.8.1

> <Gold.Id.Protein>
6NUR|6NUR_protein|mol2

> <Gold.PLP.Fitness>
33.2771

> <Gold.PLP.PLP>
-26.5917

> <Gold.PLP.part.hbond>
-2.6737

> <Gold.PLP.part.metal>
0.0000

> <Gold.PLP.part.buried>
-4.7492

> <Gold.PLP.part.nonpolar>
-18.8858

> <Gold.PLP.part.repulsive>
0.1136

> <Gold.PLP.ligand.clash>
0.0000

> <Gold.PLP.ligand.torsion>
0.0075

> <Gold.PLP.Chemscore.Hbond>
2.2288

> <Gold.PLP.Chemscore.CHOScore>
0.0000

> <Gold.PLP.Chemscore.Metal>
0.0000

> <Gold.Chemscore.Hbonds>
donor molecule, donor type, donor heavy atom, donor atom, acceptor molecule, acceptor atom, score
      P1  H  7997  8010       L1    13  2.00
      P1  H 10752 10765       L1     1  0.23

> <Gold.PLP.Chemscore.Internal.Correction>
0.0139

> <Gold.Rescore>
     Score         DG    S(hbond)    S(metal)    S(lipo)     H(rot)  DE(clash)    DE(int)     intcor
     13.25     -13.33       1.07        0.00      58.49       1.00       0.07       0.01       ----

> <Gold.Chemscore.Fitness>
13.2465

> <Gold.Chemscore.DG>
-13.3264

> <Gold.Chemscore.ZeroCoef>
-5.4800

> <Gold.Chemscore.Hbond>
1.0668

> <Gold.Chemscore.Metal>
0.0000

> <Gold.Chemscore.Lipo>
58.4895

> <Gold.Chemscore.Internal_Hbond>
0.0000

> <Gold.Chemscore.DEClash>
0.0727

> <Gold.Chemscore.DEInternal>
0.0071

> <Gold.Chemscore.Rot>
1.0000

> <Gold.Chemscore.Internal.Correction>
   9.000000E+99

> <Gold.Chemscore.Hbonds>
donor molecule, donor type, donor heavy atom, donor atom, acceptor molecule, acceptor atom, score
      P1  H  7997  8010       L1    13  0.83
      P1  H 10752 10765       L1     1  0.22

> <Gold.Chemscore.Hbond.Weighted>
-3.5631

> <Gold.Chemscore.Metal.Weighted>
-0.0000

> <Gold.Chemscore.Lipo.Weighted>
-6.8433

> <Gold.Chemscore.Internal_Hbond.Weighted>
0.0000

> <Gold.Chemscore.DEClash.Weighted>
0.0727

> <Gold.Chemscore.DEInternal.Weighted>
0.0071

> <Gold.Chemscore.Rot.Weighted>
2.5600

> <Gold.Chemscore.Internal.Correction.Weighted>
   9.000000E+99

> <Gold.Protein.RotatedTorsions>
[ 6907 6896 6895 6894 ] final  -58.65 input  -60.11 | X-H torsion
[ 7974 7965 7964 7962 ] final  -71.75 input  175.53 | X-H torsion
[ 8008 7997 7996 7995 ] final   76.10 input   59.86 | X-H torsion
[ 10167 10162 10161 10158 ] final -168.49 input  -65.29 | X-H torsion
[ 10718 10713 10712 10709 ] final -165.95 input   66.30 | X-H torsion
[ 10763 10752 10751 10750 ] final  167.68 input  -60.55 | X-H torsion
[ 11005 11000 10999 10996 ] final -169.42 input  -57.11 | X-H torsion

> <Gold.Protein.ActiveResidues>
 VAL166  LYS551  ARG553  GLY616  TRP617  ASP618  TYR619  PRO620  LYS621  CYS622 
 ASP623  PHE694  ASN695  SER759  ASP760  ASP761  ALA762  ILE779  LEU786  VAL792 
 PHE793  MET794  SER795  GLU796  ALA797  LYS798  CYS799  TRP800  GLU811  SER814 

> <Gold.Protein.RotatedAtoms>
  150.7990  134.7071  159.6582 H   0  0  0  0  0  0  0  0  0  0  0  0  # atno 6907 bound_to 6896
  152.4105  134.6128  160.0040 H   0  0  0  0  0  0  0  0  0  0  0  0  # atno 6908 bound_to 6896
  151.6373  133.3291  159.3158 H   0  0  0  0  0  0  0  0  0  0  0  0  # atno 6909 bound_to 6896
  145.6741  140.9211  143.0867 H   0  0  0  0  0  0  0  0  0  0  0  0  # atno 7974 bound_to 7965
  155.8225  140.3469  155.5523 H   0  0  0  0  0  0  0  0  0  0  0  0  # atno 8008 bound_to 7997
  155.8327  140.0929  157.1803 H   0  0  0  0  0  0  0  0  0  0  0  0  # atno 8009 bound_to 7997
  154.4004  140.1409  156.3621 H   0  0  0  0  0  0  0  0  0  0  0  0  # atno 8010 bound_to 7997
  139.5982  144.1067  152.1713 H   0  0  0  0  0  0  0  0  0  0  0  0  # atno 10167 bound_to 10162
  156.6609  130.9045  151.3029 H   0  0  0  0  0  0  0  0  0  0  0  0  # atno 10718 bound_to 10713
  154.3575  135.2753  155.2338 H   0  0  0  0  0  0  0  0  0  0  0  0  # atno 10763 bound_to 10752
  154.4541  135.5923  153.6215 H   0  0  0  0  0  0  0  0  0  0  0  0  # atno 10764 bound_to 10752
  152.9845  135.6049  154.3792 H   0  0  0  0  0  0  0  0  0  0  0  0  # atno 10765 bound_to 10752
  140.5310  134.5617  157.5074 H   0  0  0  0  0  0  0  0  0  0  0  0  # atno 11005 bound_to 11000
  144.7047  139.8610  143.7433 LP  0  0  0  0  0  0  0  0  0  0  0  0  # atno 17320 bound_to 7965
  146.1020  139.4017  143.0340 LP  0  0  0  0  0  0  0  0  0  0  0  0  # atno 17321 bound_to 7965
  140.0657  144.5820  150.7229 LP  0  0  0  0  0  0  0  0  0  0  0  0  # atno 17342 bound_to 10162
  140.7229  143.2606  151.4220 LP  0  0  0  0  0  0  0  0  0  0  0  0  # atno 17343 bound_to 10162
  157.7110  130.9440  150.1089 LP  0  0  0  0  0  0  0  0  0  0  0  0  # atno 17370 bound_to 10713
  156.2012  130.3660  149.8786 LP  0  0  0  0  0  0  0  0  0  0  0  0  # atno 17371 bound_to 10713
  139.9554  134.7543  156.0353 LP  0  0  0  0  0  0  0  0  0  0  0  0  # atno 17394 bound_to 11000
  141.1281  133.6593  156.3392 LP  0  0  0  0  0  0  0  0  0  0  0  0  # atno 17395 bound_to 11000

$$$$
