AV-unprocessed.smi:2089|AV-procd|sdf|8528|dock1
  -GOLD-   2272011243D 1   1.00000     0.00000
 Structure written by MMmdl.
 39 40  0  0  0  0  0  0  0  0  1 V2000
  150.0004  134.7269  155.2378 C   0  0  0  0  0  0  0  0  0  0  0  0
  150.9048  135.5159  156.6306 S   0  0  0  0  0  0  0  0  0  0  0  0
  150.0561  135.4449  157.8300 O   0  0  0  0  0  0  0  0  0  0  0  0
  152.2788  134.9926  156.6732 O   0  0  0  0  0  0  0  0  0  0  0  0
  150.9854  137.1754  156.1454 N   0  0  0  0  0  0  0  0  0  0  0  0
  150.0723  137.6483  155.0950 C   0  0  0  0  0  0  0  0  0  0  0  0
  150.7694  138.8413  154.4451 C   0  0  0  0  0  0  0  0  0  0  0  0
  152.2452  138.5085  154.6139 C   0  0  0  0  0  0  0  0  0  0  0  0
  152.3101  137.7954  155.9761 C   0  0  1  0  0  0  0  0  0  0  0  0
  152.6811  138.7228  157.1432 C   0  0  0  0  0  0  0  0  0  0  0  0
  153.7509  138.5947  157.7400 O   0  0  0  0  0  0  0  0  0  0  0  0
  151.7821  139.6677  157.4526 N   0  0  0  0  0  0  0  0  0  0  0  0
  151.9502  140.6523  158.5116 C   0  0  0  0  0  0  0  0  0  0  0  0
  150.7696  141.6327  158.5311 C   0  0  0  0  0  0  0  0  0  0  0  0
  151.2077  143.0517  158.8416 C   0  0  0  0  0  0  0  0  0  0  0  0
  152.1708  143.6998  158.0390 C   0  0  0  0  0  0  0  0  0  0  0  0
  152.5341  145.0215  158.3623 C   0  0  0  0  0  0  0  0  0  0  0  0
  151.9234  145.6416  159.4694 C   0  0  0  0  0  0  0  0  0  0  0  0
  150.9718  144.9090  160.2069 C   0  0  0  0  0  0  0  0  0  0  0  0
  150.6160  143.6415  159.9050 N   0  0  0  0  0  0  0  0  0  0  0  0
  149.8487  133.6703  155.4576 H   0  0  0  0  0  0  0  0  0  0  0  0
  150.5806  134.8239  154.3206 H   0  0  0  0  0  0  0  0  0  0  0  0
  149.0333  135.2127  155.1102 H   0  0  0  0  0  0  0  0  0  0  0  0
  149.9233  136.8575  154.3589 H   0  0  0  0  0  0  0  0  0  0  0  0
  149.1011  137.9109  155.5147 H   0  0  0  0  0  0  0  0  0  0  0  0
  150.4829  138.9823  153.4027 H   0  0  0  0  0  0  0  0  0  0  0  0
  150.5279  139.7559  154.9880 H   0  0  0  0  0  0  0  0  0  0  0  0
  152.5610  137.8219  153.8272 H   0  0  0  0  0  0  0  0  0  0  0  0
  152.8808  139.3923  154.5435 H   0  0  0  0  0  0  0  0  0  0  0  0
  153.0706  137.0147  155.9152 H   0  0  0  0  0  0  0  0  0  0  0  0
  150.9347  139.7178  156.9051 H   0  0  0  0  0  0  0  0  0  0  0  0
  152.0272  140.1424  159.4732 H   0  0  0  0  0  0  0  0  0  0  0  0
  152.8857  141.1919  158.3549 H   0  0  0  0  0  0  0  0  0  0  0  0
  150.2586  141.6226  157.5670 H   0  0  0  0  0  0  0  0  0  0  0  0
  150.0334  141.3157  159.2710 H   0  0  0  0  0  0  0  0  0  0  0  0
  152.6192  143.1992  157.1933 H   0  0  0  0  0  0  0  0  0  0  0  0
  153.2666  145.5507  157.7708 H   0  0  0  0  0  0  0  0  0  0  0  0
  152.1774  146.6540  159.7460 H   0  0  0  0  0  0  0  0  0  0  0  0
  150.4830  145.3533  161.0613 H   0  0  0  0  0  0  0  0  0  0  0  0
  1  2  1  0  0  0  0
  1 21  1  0  0  0  0
  1 22  1  0  0  0  0
  1 23  1  0  0  0  0
  2  3  2  0  0  0  0
  2  4  2  0  0  0  0
  2  5  1  0  0  0  0
  5  9  1  0  0  0  0
  5  6  1  0  0  0  0
  6  7  1  0  0  0  0
  6 24  1  0  0  0  0
  6 25  1  0  0  0  0
  7  8  1  0  0  0  0
  7 26  1  0  0  0  0
  7 27  1  0  0  0  0
  8  9  1  0  0  0  0
  8 28  1  0  0  0  0
  8 29  1  0  0  0  0
  9 10  1  0  0  0  0
  9 30  1  0  0  0  0
 10 11  2  0  0  0  0
 10 12  1  0  0  0  0
 12 13  1  0  0  0  0
 12 31  1  0  0  0  0
 13 14  1  0  0  0  0
 13 32  1  0  0  0  0
 13 33  1  0  0  0  0
 14 15  1  0  0  0  0
 14 34  1  0  0  0  0
 14 35  1  0  0  0  0
 15 20  1  0  0  0  0
 15 16  2  0  0  0  0
 16 17  1  0  0  0  0
 16 36  1  0  0  0  0
 17 18  2  0  0  0  0
 17 37  1  0  0  0  0
 18 19  1  0  0  0  0
 18 38  1  0  0  0  0
 19 20  2  0  0  0  0
 19 39  1  0  0  0  0
M  END
> <s_m_source_file>
AV-unprocessed.smi

> <i_m_source_file_index>
2089

> <i_lp_mmshare_version>
43012

> <i_f3d_flags>
0

> <s_epik_input>
W0NIM11TKD1PKSg9TylOMVtDSDJdW0NIMl1bQ0gyXVtDQEhdMUMoPU8pW05IXVtDSDJdW0NIMl1jMltjSF1bY0hdW2NIXVtjSF1uMg==

> <s_epik_cmdline>
J2VwaWtfcHl0aG9uJywgJy1waCcsICc3LjAnLCAnLXRuJywgJzgnLCAnLW1hJywgJzIwMCcsICctbWV0YWxfYmluZGluZycsICctaW1hZScsICc8aW5maWxlLm1hZT4nLCAnLW9tYWUnLCAnPG91dGZpbGUubWFlPic=

> <r_epik_Ionization_Penalty>
0.0244371

> <r_epik_Ionization_Penalty_Charging>
0

> <r_epik_Ionization_Penalty_Neutral>
0.0244371

> <r_epik_State_Penalty>
0.0198365

> <r_epik_Charging_Adjusted_Penalty>
0.0198365

> <i_epik_Tot_Q>
0

> <i_epik_Tot_abs_Q>
0

> <r_epik_Metal_State_Penalty>
0.0190441

> <b_epik_Metal_Only>
0

> <s_lp_Force_Field>
OPLS_2005

> <r_lp_Energy>
6.09758

> <b_lp_Chiralities_Consistent>
1

> <s_lp_Variant>
AV-unprocessed.smi:2089-1

> <Gold.Version>
5.8.1

> <Gold.Id.Protein>
6NUR|6NUR_protein|mol2

> <Gold.PLP.Fitness>
46.5057

> <Gold.PLP.PLP>
-39.5784

> <Gold.PLP.part.hbond>
-4.0333

> <Gold.PLP.part.metal>
0.0000

> <Gold.PLP.part.buried>
-5.0807

> <Gold.PLP.part.nonpolar>
-30.9254

> <Gold.PLP.part.repulsive>
0.1691

> <Gold.PLP.ligand.clash>
0.0000

> <Gold.PLP.ligand.torsion>
0.7720

> <Gold.PLP.Chemscore.Hbond>
2.6418

> <Gold.PLP.Chemscore.CHOScore>
0.0000

> <Gold.PLP.Chemscore.Metal>
0.0000

> <Gold.Chemscore.Hbonds>
donor molecule, donor type, donor heavy atom, donor atom, acceptor molecule, acceptor atom, score
      P1  H  6896  6909       L1     3  0.65
      P1  H  7997  8008       L1    11  0.82
      P1  H 10752 10764       L1     4  1.00

> <Gold.PLP.Chemscore.Internal.Correction>
0.5458

> <Gold.Rescore>
     Score         DG    S(hbond)    S(metal)    S(lipo)     H(rot)  DE(clash)    DE(int)     intcor
     19.44     -20.26       2.30        0.00     102.23       1.90       0.00       0.82       ----

> <Gold.Chemscore.Fitness>
19.4356

> <Gold.Chemscore.DG>
-20.2629

> <Gold.Chemscore.ZeroCoef>
-5.4800

> <Gold.Chemscore.Hbond>
2.3005

> <Gold.Chemscore.Metal>
0.0000

> <Gold.Chemscore.Lipo>
102.2277

> <Gold.Chemscore.Internal_Hbond>
0.0000

> <Gold.Chemscore.DEClash>
0.0025

> <Gold.Chemscore.DEInternal>
0.8248

> <Gold.Chemscore.Rot>
1.8990

> <Gold.Chemscore.Internal.Correction>
   9.000000E+99

> <Gold.Chemscore.Hbonds>
donor molecule, donor type, donor heavy atom, donor atom, acceptor molecule, acceptor atom, score
      P1  H  6896  6909       L1     3  0.59
      P1  H  7997  8008       L1    11  0.60
      P1  H 10752 10764       L1     4  0.88

> <Gold.Chemscore.Hbond.Weighted>
-7.6836

> <Gold.Chemscore.Metal.Weighted>
-0.0000

> <Gold.Chemscore.Lipo.Weighted>
-11.9606

> <Gold.Chemscore.Internal_Hbond.Weighted>
0.0000

> <Gold.Chemscore.DEClash.Weighted>
0.0025

> <Gold.Chemscore.DEInternal.Weighted>
0.8248

> <Gold.Chemscore.Rot.Weighted>
4.8613

> <Gold.Chemscore.Internal.Correction.Weighted>
   9.000000E+99

> <Gold.Protein.RotatedTorsions>
[ 6907 6896 6895 6894 ] final   26.90 input  -60.11 | X-H torsion
[ 7974 7965 7964 7962 ] final   33.75 input  175.53 | X-H torsion
[ 8008 7997 7996 7995 ] final -111.65 input   59.86 | X-H torsion
[ 10167 10162 10161 10158 ] final  -96.22 input  -65.29 | X-H torsion
[ 10718 10713 10712 10709 ] final -114.67 input   66.30 | X-H torsion
[ 10763 10752 10751 10750 ] final  -15.96 input  -60.55 | X-H torsion
[ 11005 11000 10999 10996 ] final   22.51 input  -57.11 | X-H torsion

> <Gold.Protein.ActiveResidues>
 VAL166  LYS551  ARG553  GLY616  TRP617  ASP618  TYR619  PRO620  LYS621  CYS622 
 ASP623  PHE694  ASN695  SER759  ASP760  ASP761  ALA762  ILE779  LEU786  VAL792 
 PHE793  MET794  SER795  GLU796  ALA797  LYS798  CYS799  TRP800  GLU811  SER814 

> <Gold.Protein.RotatedAtoms>
  151.9943  134.9962  160.0562 H   0  0  0  0  0  0  0  0  0  0  0  0  # atno 6907 bound_to 6896
  152.1579  133.4558  159.4854 H   0  0  0  0  0  0  0  0  0  0  0  0  # atno 6908 bound_to 6896
  150.6884  134.2026  159.4371 H   0  0  0  0  0  0  0  0  0  0  0  0  # atno 6909 bound_to 6896
  146.1400  139.6357  142.9169 H   0  0  0  0  0  0  0  0  0  0  0  0  # atno 7974 bound_to 7965
  154.9931  140.0395  157.2328 H   0  0  0  0  0  0  0  0  0  0  0  0  # atno 8008 bound_to 7997
  154.7611  140.2784  155.6191 H   0  0  0  0  0  0  0  0  0  0  0  0  # atno 8009 bound_to 7997
  156.2904  140.2628  156.2390 H   0  0  0  0  0  0  0  0  0  0  0  0  # atno 8010 bound_to 7997
  140.2961  143.3191  152.0296 H   0  0  0  0  0  0  0  0  0  0  0  0  # atno 10167 bound_to 10162
  156.0845  130.6039  150.8805 H   0  0  0  0  0  0  0  0  0  0  0  0  # atno 10718 bound_to 10713
  153.5513  135.7011  153.5590 H   0  0  0  0  0  0  0  0  0  0  0  0  # atno 10763 bound_to 10752
  153.3513  135.3994  155.1648 H   0  0  0  0  0  0  0  0  0  0  0  0  # atno 10764 bound_to 10752
  154.8661  135.3766  154.5024 H   0  0  0  0  0  0  0  0  0  0  0  0  # atno 10765 bound_to 10752
  140.3797  134.1933  155.7664 H   0  0  0  0  0  0  0  0  0  0  0  0  # atno 11005 bound_to 11000
  145.5069  141.0436  143.2509 LP  0  0  0  0  0  0  0  0  0  0  0  0  # atno 17320 bound_to 7965
  144.7781  139.6584  143.7166 LP  0  0  0  0  0  0  0  0  0  0  0  0  # atno 17321 bound_to 7965
  139.4926  144.6490  151.6717 LP  0  0  0  0  0  0  0  0  0  0  0  0  # atno 17342 bound_to 10162
  140.5691  144.0139  150.6207 LP  0  0  0  0  0  0  0  0  0  0  0  0  # atno 17343 bound_to 10162
  157.5974  131.0942  150.9018 LP  0  0  0  0  0  0  0  0  0  0  0  0  # atno 17370 bound_to 10713
  156.9182  130.5305  149.5279 LP  0  0  0  0  0  0  0  0  0  0  0  0  # atno 17371 bound_to 10713
  141.1927  133.8166  157.0827 LP  0  0  0  0  0  0  0  0  0  0  0  0  # atno 17394 bound_to 11000
  140.0488  134.9816  157.1097 LP  0  0  0  0  0  0  0  0  0  0  0  0  # atno 17395 bound_to 11000

$$$$
