AV-unprocessed.smi:1723|AV-procd|sdf|6947|dock10
  -GOLD-   22720 8153D 1   1.00000     0.00000
 Structure written by MMmdl.
 37 37  0  0  0  0  0  0  0  0  2 V2000
  144.2520  144.9391  155.8000 C   0  0  0  0  0  0  0  0  0  0  0  0
  145.1413  143.7278  155.4985 C   0  0  0  0  0  0  0  0  0  0  0  0
  145.7352  143.7703  154.0821 C   0  0  0  0  0  0  0  0  0  0  0  0
  146.2686  142.4094  153.6182 C   0  0  0  0  0  0  0  0  0  0  0  0
  147.4415  142.0918  154.3596 O   0  0  0  0  0  0  0  0  0  0  0  0
  148.2981  141.1221  153.7621 C   0  0  2  0  0  0  0  0  0  0  0  0
  147.4681  139.8505  153.5335 C   0  0  0  0  0  0  0  0  0  0  0  0
  149.5042  140.8441  154.6740 C   0  0  0  0  0  0  0  0  0  0  0  0
  150.3581  140.0349  154.3125 O   0  0  0  0  0  0  0  0  0  0  0  0
  149.5061  141.5123  155.8444 N   0  0  0  0  0  0  0  0  0  0  0  0
  150.4400  141.4924  156.8948 C   0  0  0  0  0  0  0  0  0  0  0  0
  150.8916  142.5904  157.5631 C   0  0  0  0  0  0  0  0  0  0  0  0
  151.8582  142.5003  158.6501 C   0  0  0  0  0  0  0  0  0  0  0  0
  152.3231  143.6956  159.4634 C   0  0  0  0  0  0  0  0  0  0  0  0
  153.1519  143.3218  160.4387 F   0  0  0  0  0  0  0  0  0  0  0  0
  152.9679  144.5555  158.6765 F   0  0  0  0  0  0  0  0  0  0  0  0
  151.2876  144.3311  160.0121 F   0  0  0  0  0  0  0  0  0  0  0  0
  152.2189  141.1953  158.9239 C   0  0  0  0  0  0  0  0  0  0  0  0
  151.8281  140.0579  158.3085 N   0  5  0  0  0  0  0  0  0  0  0  0
  150.9308  140.1548  157.2874 C   0  0  0  0  0  0  0  0  0  0  0  0
  150.5248  139.1568  156.6906 O   0  0  0  0  0  0  0  0  0  0  0  0
  143.8452  144.8806  156.8096 H   0  0  0  0  0  0  0  0  0  0  0  0
  143.4129  144.9939  155.1061 H   0  0  0  0  0  0  0  0  0  0  0  0
  144.8138  145.8701  155.7215 H   0  0  0  0  0  0  0  0  0  0  0  0
  145.9470  143.6825  156.2320 H   0  0  0  0  0  0  0  0  0  0  0  0
  144.5581  142.8150  155.6258 H   0  0  0  0  0  0  0  0  0  0  0  0
  144.9860  144.1281  153.3748 H   0  0  0  0  0  0  0  0  0  0  0  0
  146.5501  144.4946  154.0588 H   0  0  0  0  0  0  0  0  0  0  0  0
  145.5124  141.6420  153.7891 H   0  0  0  0  0  0  0  0  0  0  0  0
  146.4647  142.4382  152.5458 H   0  0  0  0  0  0  0  0  0  0  0  0
  148.6387  141.4881  152.7914 H   0  0  0  0  0  0  0  0  0  0  0  0
  148.0730  139.0561  153.0947 H   0  0  0  0  0  0  0  0  0  0  0  0
  146.6397  140.0477  152.8527 H   0  0  0  0  0  0  0  0  0  0  0  0
  147.0442  139.4744  154.4656 H   0  0  0  0  0  0  0  0  0  0  0  0
  148.7038  142.1002  156.0197 H   0  0  0  0  0  0  0  0  0  0  0  0
  150.5383  143.5772  157.3161 H   0  0  0  0  0  0  0  0  0  0  0  0
  152.9258  141.0408  159.7669 H   0  0  0  0  0  0  0  0  0  0  0  0
  1  2  1  0  0  0  0
  1 22  1  0  0  0  0
  1 23  1  0  0  0  0
  1 24  1  0  0  0  0
  2  3  1  0  0  0  0
  2 25  1  0  0  0  0
  2 26  1  0  0  0  0
  3  4  1  0  0  0  0
  3 27  1  0  0  0  0
  3 28  1  0  0  0  0
  4  5  1  0  0  0  0
  4 29  1  0  0  0  0
  4 30  1  0  0  0  0
  5  6  1  0  0  0  0
  6  7  1  0  0  0  0
  6  8  1  0  0  0  0
  6 31  1  0  0  0  0
  7 32  1  0  0  0  0
  7 33  1  0  0  0  0
  7 34  1  0  0  0  0
  8  9  2  0  0  0  0
  8 10  1  0  0  0  0
 10 11  1  0  0  0  0
 10 35  1  0  0  0  0
 11 20  1  0  0  0  0
 11 12  2  0  0  0  0
 12 13  1  0  0  0  0
 12 36  1  0  0  0  0
 13 14  1  0  0  0  0
 13 18  2  0  0  0  0
 14 15  1  0  0  0  0
 14 16  1  0  0  0  0
 14 17  1  0  0  0  0
 18 19  1  0  0  0  0
 18 37  1  0  0  0  0
 19 20  1  0  0  0  0
 20 21  2  0  0  0  0
M  CHG  1  19  -1
M  END
> <s_m_source_file>
AV-unprocessed.smi

> <i_m_source_file_index>
1723

> <i_lp_mmshare_version>
43012

> <i_f3d_flags>
0

> <s_epik_input>
W0NIM11bQ0gyXVtDSDJdW0NIMl1PW0NASF0oW0NIM10pQyg9TylbTkhdYzFbY0hdYyhDKEYpKEYpRilbY0hdW25IXWMxPU8=

> <s_epik_cmdline>
J2VwaWtfcHl0aG9uJywgJy1waCcsICc3LjAnLCAnLXRuJywgJzgnLCAnLW1hJywgJzIwMCcsICctbWV0YWxfYmluZGluZycsICctaW1hZScsICc8aW5maWxlLm1hZT4nLCAnLW9tYWUnLCAnPG91dGZpbGUubWFlPic=

> <r_lp_tautomer_probability>
0.999

> <r_epik_Ionization_Penalty>
2.64397

> <r_epik_Ionization_Penalty_Charging>
0.0618254

> <r_epik_Ionization_Penalty_Neutral>
2.58215

> <r_epik_State_Penalty>
2.58023

> <r_epik_Charging_Adjusted_Penalty>
2.64205

> <i_epik_Tot_Q>
-1

> <i_epik_Tot_abs_Q>
1

> <r_epik_Metal_State_Penalty>
0.429101

> <b_epik_Metal_Only>
1

> <s_lp_Force_Field>
OPLS_2005

> <r_lp_Energy>
21.4098

> <b_lp_Chiralities_Consistent>
1

> <s_lp_Variant>
AV-unprocessed.smi:1723-3

> <Gold.Version>
5.8.1

> <Gold.Id.Protein>
6NUR|6NUR_protein|mol2

> <Gold.PLP.Fitness>
44.5995

> <Gold.PLP.PLP>
-42.6099

> <Gold.PLP.part.hbond>
-1.1141

> <Gold.PLP.part.metal>
0.0000

> <Gold.PLP.part.buried>
-6.0766

> <Gold.PLP.part.nonpolar>
-35.2653

> <Gold.PLP.part.repulsive>
0.3623

> <Gold.PLP.ligand.clash>
0.0000

> <Gold.PLP.ligand.torsion>
0.5884

> <Gold.PLP.Chemscore.Hbond>
1.0000

> <Gold.PLP.Chemscore.CHOScore>
0.0000

> <Gold.PLP.Chemscore.Metal>
0.0000

> <Gold.Chemscore.Hbonds>
donor molecule, donor type, donor heavy atom, donor atom, acceptor molecule, acceptor atom, score
      P1  H  7989  7998       L1     9  1.00

> <Gold.PLP.Chemscore.Internal.Correction>
0.1665

> <Gold.Rescore>
     Score         DG    S(hbond)    S(metal)    S(lipo)     H(rot)  DE(clash)    DE(int)     intcor
      9.51     -12.91       0.96        0.00      78.70       1.95       0.06       3.34       ----

> <Gold.Chemscore.Fitness>
9.5091

> <Gold.Chemscore.DG>
-12.9078

> <Gold.Chemscore.ZeroCoef>
-5.4800

> <Gold.Chemscore.Hbond>
0.9622

> <Gold.Chemscore.Metal>
0.0000

> <Gold.Chemscore.Lipo>
78.6998

> <Gold.Chemscore.Internal_Hbond>
0.0000

> <Gold.Chemscore.DEClash>
0.0620

> <Gold.Chemscore.DEInternal>
3.3367

> <Gold.Chemscore.Rot>
1.9507

> <Gold.Chemscore.Internal.Correction>
   9.000000E+99

> <Gold.Chemscore.Hbonds>
donor molecule, donor type, donor heavy atom, donor atom, acceptor molecule, acceptor atom, score
      P1  H  7989  7998       L1     9  0.69

> <Gold.Chemscore.Hbond.Weighted>
-3.2138

> <Gold.Chemscore.Metal.Weighted>
-0.0000

> <Gold.Chemscore.Lipo.Weighted>
-9.2079

> <Gold.Chemscore.Internal_Hbond.Weighted>
0.0000

> <Gold.Chemscore.DEClash.Weighted>
0.0620

> <Gold.Chemscore.DEInternal.Weighted>
3.3367

> <Gold.Chemscore.Rot.Weighted>
4.9939

> <Gold.Chemscore.Internal.Correction.Weighted>
   9.000000E+99

> <Gold.Protein.RotatedTorsions>
[ 6907 6896 6895 6894 ] final -174.76 input  -60.11 | X-H torsion
[ 7974 7965 7964 7962 ] final  127.49 input  175.53 | X-H torsion
[ 8008 7997 7996 7995 ] final   -1.31 input   59.86 | X-H torsion
[ 10167 10162 10161 10158 ] final  136.78 input  -65.29 | X-H torsion
[ 10718 10713 10712 10709 ] final   98.20 input   66.30 | X-H torsion
[ 10763 10752 10751 10750 ] final  101.26 input  -60.55 | X-H torsion
[ 11005 11000 10999 10996 ] final  -64.99 input  -57.11 | X-H torsion

> <Gold.Protein.ActiveResidues>
 VAL166  LYS551  ARG553  GLY616  TRP617  ASP618  TYR619  PRO620  LYS621  CYS622 
 ASP623  PHE694  ASN695  SER759  ASP760  ASP761  ALA762  ILE779  LEU786  VAL792 
 PHE793  MET794  SER795  GLU796  ALA797  LYS798  CYS799  TRP800  GLU811  SER814 

> <Gold.Protein.RotatedAtoms>
  151.5775  133.3382  159.3001 H   0  0  0  0  0  0  0  0  0  0  0  0  # atno 6907 bound_to 6896
  150.8332  134.7597  159.6882 H   0  0  0  0  0  0  0  0  0  0  0  0  # atno 6908 bound_to 6896
  152.4412  134.5593  159.9941 H   0  0  0  0  0  0  0  0  0  0  0  0  # atno 6909 bound_to 6896
  145.0500  139.3891  143.5059 H   0  0  0  0  0  0  0  0  0  0  0  0  # atno 7974 bound_to 7965
  154.6482  140.2562  155.7244 H   0  0  0  0  0  0  0  0  0  0  0  0  # atno 8008 bound_to 7997
  156.2562  140.2873  156.0825 H   0  0  0  0  0  0  0  0  0  0  0  0  # atno 8009 bound_to 7997
  155.1492  140.0382  157.2807 H   0  0  0  0  0  0  0  0  0  0  0  0  # atno 8010 bound_to 7997
  139.5167  144.6446  151.5476 H   0  0  0  0  0  0  0  0  0  0  0  0  # atno 10167 bound_to 10162
  157.6900  131.0633  150.4760 H   0  0  0  0  0  0  0  0  0  0  0  0  # atno 10718 bound_to 10713
  153.3244  135.4051  155.1443 H   0  0  0  0  0  0  0  0  0  0  0  0  # atno 10763 bound_to 10752
  154.8608  135.3595  154.5554 H   0  0  0  0  0  0  0  0  0  0  0  0  # atno 10764 bound_to 10752
  153.5989  135.7071  153.5451 H   0  0  0  0  0  0  0  0  0  0  0  0  # atno 10765 bound_to 10752
  141.1441  133.6674  156.5918 H   0  0  0  0  0  0  0  0  0  0  0  0  # atno 11005 bound_to 11000
  146.3517  140.0145  142.8664 LP  0  0  0  0  0  0  0  0  0  0  0  0  # atno 17320 bound_to 7965
  145.1539  140.9638  143.4416 LP  0  0  0  0  0  0  0  0  0  0  0  0  # atno 17321 bound_to 7965
  140.6225  143.9231  150.6538 LP  0  0  0  0  0  0  0  0  0  0  0  0  # atno 17342 bound_to 10162
  140.2509  143.3594  152.1407 LP  0  0  0  0  0  0  0  0  0  0  0  0  # atno 17343 bound_to 10162
  156.5095  130.4136  149.6309 LP  0  0  0  0  0  0  0  0  0  0  0  0  # atno 17370 bound_to 10713
  156.3254  130.7303  151.2223 LP  0  0  0  0  0  0  0  0  0  0  0  0  # atno 17371 bound_to 10713
  140.3757  134.7567  157.4628 LP  0  0  0  0  0  0  0  0  0  0  0  0  # atno 17394 bound_to 11000
  140.0676  134.5907  155.8678 LP  0  0  0  0  0  0  0  0  0  0  0  0  # atno 17395 bound_to 11000

$$$$
