AV-unprocessed.smi:2190|AV-procd|sdf|8891|dock6
  -GOLD-   2272012 93D 1   1.00000     0.00000
 Structure written by MMmdl.
 47 49  0  0  0  0  0  0  0  0  2 V2000
  147.2208  132.4781  159.3495 C   0  0  0  0  0  0  0  0  0  0  0  0
  147.3160  133.6587  160.2941 C   0  0  0  0  0  0  0  0  0  0  0  0
  146.8345  133.5535  161.6129 C   0  0  0  0  0  0  0  0  0  0  0  0
  146.9242  134.6548  162.4830 C   0  0  0  0  0  0  0  0  0  0  0  0
  147.4938  135.8668  162.0410 C   0  0  0  0  0  0  0  0  0  0  0  0
  147.5812  137.0445  162.9935 C   0  0  0  0  0  0  0  0  0  0  0  0
  147.9807  135.9867  160.7184 C   0  0  0  0  0  0  0  0  0  0  0  0
  148.5259  137.1995  160.3494 O   0  0  0  0  0  0  0  0  0  0  0  0
  149.0506  137.3363  159.0356 C   0  0  0  0  0  0  0  0  0  0  0  0
  150.1373  138.4224  159.0470 C   0  0  1  0  0  0  0  0  0  0  0  0
  151.3023  137.8837  159.6404 O   0  0  0  0  0  0  0  0  0  0  0  0
  150.4731  138.9107  157.6238 C   0  0  0  0  0  0  0  0  0  0  0  0
  150.5614  140.3779  157.5270 N   0  0  0  0  0  0  0  0  0  0  0  0
  149.8584  141.2509  156.7482 C   0  0  0  0  0  0  0  0  0  0  0  0
  148.7773  140.9200  155.7723 C   0  0  0  0  0  0  0  0  0  0  0  0
  148.3079  142.0599  155.0875 O   0  0  0  0  0  0  0  0  0  0  0  0
  150.3133  142.5033  157.0331 N   0  3  0  0  0  0  0  0  0  0  0  0
  151.3132  142.4343  158.0033 C   0  0  0  0  0  0  0  0  0  0  0  0
  152.0654  143.4374  158.6070 C   0  0  0  0  0  0  0  0  0  0  0  0
  153.0074  143.0274  159.5728 C   0  0  0  0  0  0  0  0  0  0  0  0
  153.1716  141.6675  159.9065 C   0  0  0  0  0  0  0  0  0  0  0  0
  152.4041  140.6597  159.2864 C   0  0  0  0  0  0  0  0  0  0  0  0
  151.4766  141.0720  158.3292 C   0  0  0  0  0  0  0  0  0  0  0  0
  147.8844  134.8695  159.8497 C   0  0  0  0  0  0  0  0  0  0  0  0
  147.0109  131.5544  159.8898 H   0  0  0  0  0  0  0  0  0  0  0  0
  148.1569  132.3465  158.8062 H   0  0  0  0  0  0  0  0  0  0  0  0
  146.4225  132.6402  158.6251 H   0  0  0  0  0  0  0  0  0  0  0  0
  146.3949  132.6305  161.9617 H   0  0  0  0  0  0  0  0  0  0  0  0
  146.5525  134.5641  163.4931 H   0  0  0  0  0  0  0  0  0  0  0  0
  148.6201  137.3480  163.1264 H   0  0  0  0  0  0  0  0  0  0  0  0
  147.1729  136.7971  163.9738 H   0  0  0  0  0  0  0  0  0  0  0  0
  147.0223  137.8932  162.5987 H   0  0  0  0  0  0  0  0  0  0  0  0
  149.4507  136.3929  158.6589 H   0  0  0  0  0  0  0  0  0  0  0  0
  148.2398  137.6444  158.3731 H   0  0  0  0  0  0  0  0  0  0  0  0
  149.7987  139.2714  159.6420 H   0  0  0  0  0  0  0  0  0  0  0  0
  151.6662  138.5326  160.2235 H   0  0  0  0  0  0  0  0  0  0  0  0
  151.4002  138.4654  157.2634 H   0  0  0  0  0  0  0  0  0  0  0  0
  149.6995  138.5869  156.9273 H   0  0  0  0  0  0  0  0  0  0  0  0
  149.1550  140.2005  155.0456 H   0  0  0  0  0  0  0  0  0  0  0  0
  147.9441  140.4436  156.2882 H   0  0  0  0  0  0  0  0  0  0  0  0
  148.7083  142.8267  155.4687 H   0  0  0  0  0  0  0  0  0  0  0  0
  151.9385  144.4801  158.3557 H   0  0  0  0  0  0  0  0  0  0  0  0
  153.6137  143.7711  160.0697 H   0  0  0  0  0  0  0  0  0  0  0  0
  153.8998  141.3908  160.6550 H   0  0  0  0  0  0  0  0  0  0  0  0
  152.5353  139.6227  159.5570 H   0  0  0  0  0  0  0  0  0  0  0  0
  148.2404  134.9171  158.8319 H   0  0  0  0  0  0  0  0  0  0  0  0
  149.9572  143.3444  156.5976 H   0  0  0  0  0  0  0  0  0  0  0  0
  1  2  1  0  0  0  0
  1 25  1  0  0  0  0
  1 26  1  0  0  0  0
  1 27  1  0  0  0  0
  2 24  1  0  0  0  0
  2  3  2  0  0  0  0
  3  4  1  0  0  0  0
  3 28  1  0  0  0  0
  4  5  2  0  0  0  0
  4 29  1  0  0  0  0
  5  6  1  0  0  0  0
  5  7  1  0  0  0  0
  6 30  1  0  0  0  0
  6 31  1  0  0  0  0
  6 32  1  0  0  0  0
  7  8  1  0  0  0  0
  7 24  2  0  0  0  0
  8  9  1  0  0  0  0
  9 10  1  0  0  0  0
  9 33  1  0  0  0  0
  9 34  1  0  0  0  0
 10 11  1  0  0  0  0
 10 12  1  0  0  0  0
 10 35  1  0  0  0  0
 11 36  1  0  0  0  0
 12 13  1  0  0  0  0
 12 37  1  0  0  0  0
 12 38  1  0  0  0  0
 13 23  1  0  0  0  0
 13 14  1  0  0  0  0
 14 15  1  0  0  0  0
 14 17  2  0  0  0  0
 15 16  1  0  0  0  0
 15 39  1  0  0  0  0
 15 40  1  0  0  0  0
 16 41  1  0  0  0  0
 17 18  1  0  0  0  0
 17 47  1  0  0  0  0
 18 23  2  0  0  0  0
 18 19  1  0  0  0  0
 19 20  2  0  0  0  0
 19 42  1  0  0  0  0
 20 21  1  0  0  0  0
 20 43  1  0  0  0  0
 21 22  2  0  0  0  0
 21 44  1  0  0  0  0
 22 23  1  0  0  0  0
 22 45  1  0  0  0  0
 24 46  1  0  0  0  0
M  CHG  1  17   1
M  END
> <s_m_source_file>
AV-unprocessed.smi

> <i_m_source_file_index>
2190

> <i_lp_mmshare_version>
43012

> <i_f3d_flags>
0

> <s_epik_input>
W0NIM11jMVtjSF1bY0hdYyhbQ0gzXSljKFtjSF0xKU9bQ0gyXVtDQEhdKFtPSF0pW0NIMl1uKGMobjIpW0NIMl1bT0hdKWMoYzIzKVtjSF1bY0hdW2NIXVtjSF0z

> <s_epik_cmdline>
J2VwaWtfcHl0aG9uJywgJy1waCcsICc3LjAnLCAnLXRuJywgJzgnLCAnLW1hJywgJzIwMCcsICctbWV0YWxfYmluZGluZycsICctaW1hZScsICc8aW5maWxlLm1hZT4nLCAnLW9tYWUnLCAnPG91dGZpbGUubWFlPic=

> <r_lp_tautomer_probability>
1

> <r_epik_Ionization_Penalty>
1.43125

> <r_epik_Ionization_Penalty_Charging>
1.43039

> <r_epik_Ionization_Penalty_Neutral>
0.000858184

> <r_epik_State_Penalty>
1.51493

> <r_epik_Charging_Adjusted_Penalty>
2.94531

> <i_epik_Tot_Q>
1

> <i_epik_Tot_abs_Q>
1

> <r_epik_Metal_State_Penalty>
5.5599

> <b_epik_Metal_Only>
0

> <s_lp_Force_Field>
OPLS_2005

> <r_lp_Energy>
19.5123

> <b_lp_Chiralities_Consistent>
1

> <s_lp_Variant>
AV-unprocessed.smi:2190-4

> <Gold.Version>
5.8.1

> <Gold.Id.Protein>
6NUR|6NUR_protein|mol2

> <Gold.PLP.Fitness>
56.7969

> <Gold.PLP.PLP>
-47.5271

> <Gold.PLP.part.hbond>
-4.0141

> <Gold.PLP.part.metal>
0.0000

> <Gold.PLP.part.buried>
-3.3065

> <Gold.PLP.part.nonpolar>
-41.3228

> <Gold.PLP.part.repulsive>
0.0189

> <Gold.PLP.ligand.clash>
0.0000

> <Gold.PLP.ligand.torsion>
0.9359

> <Gold.PLP.Chemscore.Hbond>
3.6876

> <Gold.PLP.Chemscore.CHOScore>
0.0000

> <Gold.PLP.Chemscore.Metal>
0.0000

> <Gold.Chemscore.Hbonds>
donor molecule, donor type, donor heavy atom, donor atom, acceptor molecule, acceptor atom, score
      L1  H    16    41       P1  8028  1.00
      L1  H    17    47       P1  8028  2.00
      P1  H  6931  6943       L1     8  0.67
      P1  H  6934  6947       L1     8  0.14

> <Gold.PLP.Chemscore.Internal.Correction>
0.0789

> <Gold.Rescore>
     Score         DG    S(hbond)    S(metal)    S(lipo)     H(rot)  DE(clash)    DE(int)     intcor
     20.22     -21.25       2.60        0.00     127.13       3.05       0.09       0.93       ----

> <Gold.Chemscore.Fitness>
20.2227

> <Gold.Chemscore.DG>
-21.2452

> <Gold.Chemscore.ZeroCoef>
-5.4800

> <Gold.Chemscore.Hbond>
2.6025

> <Gold.Chemscore.Metal>
0.0000

> <Gold.Chemscore.Lipo>
127.1321

> <Gold.Chemscore.Internal_Hbond>
0.0000

> <Gold.Chemscore.DEClash>
0.0934

> <Gold.Chemscore.DEInternal>
0.9291

> <Gold.Chemscore.Rot>
3.0476

> <Gold.Chemscore.Internal.Correction>
   9.000000E+99

> <Gold.Chemscore.Hbonds>
donor molecule, donor type, donor heavy atom, donor atom, acceptor molecule, acceptor atom, score
      L1  H    16    41       P1  8028  0.95
      L1  H    17    47       P1  8028  0.98
      P1  H  6931  6943       L1     8  0.54
      P1  H  6934  6947       L1     8  0.10

> <Gold.Chemscore.Hbond.Weighted>
-8.6925

> <Gold.Chemscore.Metal.Weighted>
-0.0000

> <Gold.Chemscore.Lipo.Weighted>
-14.8745

> <Gold.Chemscore.Internal_Hbond.Weighted>
0.0000

> <Gold.Chemscore.DEClash.Weighted>
0.0934

> <Gold.Chemscore.DEInternal.Weighted>
0.9291

> <Gold.Chemscore.Rot.Weighted>
7.8018

> <Gold.Chemscore.Internal.Correction.Weighted>
   9.000000E+99

> <Gold.Protein.RotatedTorsions>
[ 6907 6896 6895 6894 ] final -106.60 input  -60.11 | X-H torsion
[ 7974 7965 7964 7962 ] final  -31.21 input  175.53 | X-H torsion
[ 8008 7997 7996 7995 ] final    7.81 input   59.86 | X-H torsion
[ 10167 10162 10161 10158 ] final -151.62 input  -65.29 | X-H torsion
[ 10718 10713 10712 10709 ] final  166.51 input   66.30 | X-H torsion
[ 10763 10752 10751 10750 ] final   91.99 input  -60.55 | X-H torsion
[ 11005 11000 10999 10996 ] final  -23.73 input  -57.11 | X-H torsion

> <Gold.Protein.ActiveResidues>
 VAL166  LYS551  ARG553  GLY616  TRP617  ASP618  TYR619  PRO620  LYS621  CYS622 
 ASP623  PHE694  ASN695  SER759  ASP760  ASP761  ALA762  ILE779  LEU786  VAL792 
 PHE793  MET794  SER795  GLU796  ALA797  LYS798  CYS799  TRP800  GLU811  SER814 

> <Gold.Protein.RotatedAtoms>
  150.7398  133.9952  159.3619 H   0  0  0  0  0  0  0  0  0  0  0  0  # atno 6907 bound_to 6896
  151.7903  135.0735  160.0395 H   0  0  0  0  0  0  0  0  0  0  0  0  # atno 6908 bound_to 6896
  152.3213  133.5820  159.5782 H   0  0  0  0  0  0  0  0  0  0  0  0  # atno 6909 bound_to 6896
  146.1085  140.5638  142.8789 H   0  0  0  0  0  0  0  0  0  0  0  0  # atno 7974 bound_to 7965
  154.7586  140.2780  155.6233 H   0  0  0  0  0  0  0  0  0  0  0  0  # atno 8008 bound_to 7997
  156.2911  140.2664  156.2286 H   0  0  0  0  0  0  0  0  0  0  0  0  # atno 8009 bound_to 7997
  155.0046  140.0372  157.2364 H   0  0  0  0  0  0  0  0  0  0  0  0  # atno 8010 bound_to 7997
  139.7252  143.8895  152.2517 H   0  0  0  0  0  0  0  0  0  0  0  0  # atno 10167 bound_to 10162
  157.0649  131.0350  151.2633 H   0  0  0  0  0  0  0  0  0  0  0  0  # atno 10718 bound_to 10713
  153.2143  135.4377  155.0416 H   0  0  0  0  0  0  0  0  0  0  0  0  # atno 10763 bound_to 10752
  154.8217  135.3341  154.7022 H   0  0  0  0  0  0  0  0  0  0  0  0  # atno 10764 bound_to 10752
  153.7457  135.7001  153.5012 H   0  0  0  0  0  0  0  0  0  0  0  0  # atno 10765 bound_to 10752
  140.8779  133.7674  156.0266 H   0  0  0  0  0  0  0  0  0  0  0  0  # atno 11005 bound_to 11000
  144.7491  140.5144  143.6815 LP  0  0  0  0  0  0  0  0  0  0  0  0  # atno 17320 bound_to 7965
  145.5713  139.1483  143.3287 LP  0  0  0  0  0  0  0  0  0  0  0  0  # atno 17321 bound_to 7965
  139.8802  144.7021  150.8886 LP  0  0  0  0  0  0  0  0  0  0  0  0  # atno 17342 bound_to 10162
  140.7761  143.3667  151.1725 LP  0  0  0  0  0  0  0  0  0  0  0  0  # atno 17343 bound_to 10162
  157.4925  130.7831  149.7522 LP  0  0  0  0  0  0  0  0  0  0  0  0  # atno 17370 bound_to 10713
  155.9967  130.3904  150.2767 LP  0  0  0  0  0  0  0  0  0  0  0  0  # atno 17371 bound_to 10713
  140.8496  134.2970  157.5281 LP  0  0  0  0  0  0  0  0  0  0  0  0  # atno 17394 bound_to 11000
  139.8717  134.9460  156.3927 LP  0  0  0  0  0  0  0  0  0  0  0  0  # atno 17395 bound_to 11000

$$$$
