AV-unprocessed.smi:502|AV-procd|sdf|2744|dock8
  -GOLD-   2262023203D 1   1.00000     0.00000
 Structure written by MMmdl.
 48 50  0  0  0  0  0  0  0  0  1 V2000
  158.0911  135.2030  156.3324 C   0  0  0  0  0  0  0  0  0  0  0  0
  156.8219  135.9857  156.6484 C   0  0  0  0  0  0  0  0  0  0  0  0
  156.1119  136.4071  155.7361 O   0  0  0  0  0  0  0  0  0  0  0  0
  156.5544  136.1825  157.9476 N   0  0  0  0  0  0  0  0  0  0  0  0
  155.4006  136.9130  158.4627 C   0  0  0  0  0  0  0  0  0  0  0  0
  154.0593  136.2977  158.0200 C   0  0  0  0  0  0  0  0  0  0  0  0
  153.1974  137.2343  157.2215 C   0  0  0  0  0  0  0  0  0  0  0  0
  152.8565  136.9570  155.9621 N   0  0  0  0  0  0  0  0  0  0  0  0
  152.0953  138.0511  155.6024 C   0  0  0  0  0  0  0  0  0  0  0  0
  151.4471  138.3589  154.3847 C   0  0  0  0  0  0  0  0  0  0  0  0
  150.7212  139.5601  154.2460 C   0  0  0  0  0  0  0  0  0  0  0  0
  150.6320  140.4680  155.3209 C   0  0  0  0  0  0  0  0  0  0  0  0
  151.2684  140.1792  156.5432 C   0  0  0  0  0  0  0  0  0  0  0  0
  151.9918  138.9785  156.6767 C   0  0  0  0  0  0  0  0  0  0  0  0
  152.7234  138.4078  157.7143 N   0  0  0  0  0  0  0  0  0  0  0  0
  152.9313  138.9937  159.0313 C   0  0  0  0  0  0  0  0  0  0  0  0
  153.7266  140.3046  158.9573 C   0  0  0  0  0  0  0  0  0  0  0  0
  153.4216  141.0945  160.0986 O   0  0  0  0  0  0  0  0  0  0  0  0
  152.8418  142.3308  159.9114 C   0  0  0  0  0  0  0  0  0  0  0  0
  152.5795  142.8916  158.6357 C   0  0  0  0  0  0  0  0  0  0  0  0
  151.9872  144.1638  158.5224 C   0  0  0  0  0  0  0  0  0  0  0  0
  151.6509  144.8910  159.6783 C   0  0  0  0  0  0  0  0  0  0  0  0
  151.9065  144.3441  160.9489 C   0  0  0  0  0  0  0  0  0  0  0  0
  152.4991  143.0694  161.0679 C   0  0  0  0  0  0  0  0  0  0  0  0
  152.7619  142.4887  162.4452 C   0  0  0  0  0  0  0  0  0  0  0  0
  158.0185  134.1870  156.7215 H   0  0  0  0  0  0  0  0  0  0  0  0
  158.9581  135.6864  156.7837 H   0  0  0  0  0  0  0  0  0  0  0  0
  158.2539  135.1464  155.2555 H   0  0  0  0  0  0  0  0  0  0  0  0
  157.1968  135.8042  158.6289 H   0  0  0  0  0  0  0  0  0  0  0  0
  155.4455  136.9754  159.5511 H   0  0  0  0  0  0  0  0  0  0  0  0
  155.4694  137.9377  158.0970 H   0  0  0  0  0  0  0  0  0  0  0  0
  154.2389  135.3785  157.4646 H   0  0  0  0  0  0  0  0  0  0  0  0
  153.4975  135.9943  158.9041 H   0  0  0  0  0  0  0  0  0  0  0  0
  151.5112  137.6708  153.5549 H   0  0  0  0  0  0  0  0  0  0  0  0
  150.2316  139.7867  153.3103 H   0  0  0  0  0  0  0  0  0  0  0  0
  150.0761  141.3870  155.2063 H   0  0  0  0  0  0  0  0  0  0  0  0
  151.2070  140.8760  157.3659 H   0  0  0  0  0  0  0  0  0  0  0  0
  151.9570  139.1780  159.4849 H   0  0  0  0  0  0  0  0  0  0  0  0
  153.4320  138.2766  159.6790 H   0  0  0  0  0  0  0  0  0  0  0  0
  154.7940  140.0831  158.9224 H   0  0  0  0  0  0  0  0  0  0  0  0
  153.4630  140.8438  158.0462 H   0  0  0  0  0  0  0  0  0  0  0  0
  152.8270  142.3659  157.7262 H   0  0  0  0  0  0  0  0  0  0  0  0
  151.7920  144.5825  157.5462 H   0  0  0  0  0  0  0  0  0  0  0  0
  151.1973  145.8672  159.5902 H   0  0  0  0  0  0  0  0  0  0  0  0
  151.6442  144.9075  161.8325 H   0  0  0  0  0  0  0  0  0  0  0  0
  152.4236  143.1609  163.2342 H   0  0  0  0  0  0  0  0  0  0  0  0
  153.8286  142.3111  162.5841 H   0  0  0  0  0  0  0  0  0  0  0  0
  152.2383  141.5393  162.5625 H   0  0  0  0  0  0  0  0  0  0  0  0
  1  2  1  0  0  0  0
  1 26  1  0  0  0  0
  1 27  1  0  0  0  0
  1 28  1  0  0  0  0
  2  3  2  0  0  0  0
  2  4  1  0  0  0  0
  4  5  1  0  0  0  0
  4 29  1  0  0  0  0
  5  6  1  0  0  0  0
  5 30  1  0  0  0  0
  5 31  1  0  0  0  0
  6  7  1  0  0  0  0
  6 32  1  0  0  0  0
  6 33  1  0  0  0  0
  7 15  1  0  0  0  0
  7  8  2  0  0  0  0
  8  9  1  0  0  0  0
  9 14  2  0  0  0  0
  9 10  1  0  0  0  0
 10 11  2  0  0  0  0
 10 34  1  0  0  0  0
 11 12  1  0  0  0  0
 11 35  1  0  0  0  0
 12 13  2  0  0  0  0
 12 36  1  0  0  0  0
 13 14  1  0  0  0  0
 13 37  1  0  0  0  0
 14 15  1  0  0  0  0
 15 16  1  0  0  0  0
 16 17  1  0  0  0  0
 16 38  1  0  0  0  0
 16 39  1  0  0  0  0
 17 18  1  0  0  0  0
 17 40  1  0  0  0  0
 17 41  1  0  0  0  0
 18 19  1  0  0  0  0
 19 24  1  0  0  0  0
 19 20  2  0  0  0  0
 20 21  1  0  0  0  0
 20 42  1  0  0  0  0
 21 22  2  0  0  0  0
 21 43  1  0  0  0  0
 22 23  1  0  0  0  0
 22 44  1  0  0  0  0
 23 24  2  0  0  0  0
 23 45  1  0  0  0  0
 24 25  1  0  0  0  0
 25 46  1  0  0  0  0
 25 47  1  0  0  0  0
 25 48  1  0  0  0  0
M  END
> <s_m_source_file>
AV-unprocessed.smi

> <i_m_source_file_index>
502

> <i_lp_mmshare_version>
43012

> <i_f3d_flags>
0

> <s_epik_input>
W0NIM11DKD1PKVtOSF1bQ0gyXVtDSDJdYyhuMSluKGMoYzEyKVtjSF1bY0hdW2NIXVtjSF0yKVtDSDJdW0NIMl1PYzNbY0hdW2NIXVtjSF1bY0hdYzNbQ0gzXQ==

> <s_epik_cmdline>
J2VwaWtfcHl0aG9uJywgJy1waCcsICc3LjAnLCAnLXRuJywgJzgnLCAnLW1hJywgJzIwMCcsICctbWV0YWxfYmluZGluZycsICctaW1hZScsICc8aW5maWxlLm1hZT4nLCAnLW9tYWUnLCAnPG91dGZpbGUubWFlPic=

> <r_lp_tautomer_probability>
1

> <r_epik_Ionization_Penalty>
0.0991824

> <r_epik_Ionization_Penalty_Charging>
0

> <r_epik_Ionization_Penalty_Neutral>
0.0991824

> <r_epik_State_Penalty>
0.0892428

> <r_epik_Charging_Adjusted_Penalty>
0.0892428

> <i_epik_Tot_Q>
0

> <i_epik_Tot_abs_Q>
0

> <r_epik_Metal_State_Penalty>
0.076345

> <b_epik_Metal_Only>
0

> <s_lp_Force_Field>
OPLS_2005

> <r_lp_Energy>
12.9543

> <b_lp_Chiralities_Consistent>
1

> <s_lp_Variant>
AV-unprocessed.smi:502-1

> <Gold.Version>
5.8.1

> <Gold.Id.Protein>
6NUR|6NUR_protein|mol2

> <Gold.PLP.Fitness>
53.8147

> <Gold.PLP.PLP>
-50.2905

> <Gold.PLP.part.hbond>
-2.0000

> <Gold.PLP.part.metal>
0.0000

> <Gold.PLP.part.buried>
-4.0357

> <Gold.PLP.part.nonpolar>
-43.0533

> <Gold.PLP.part.repulsive>
0.0291

> <Gold.PLP.ligand.clash>
0.0000

> <Gold.PLP.ligand.torsion>
0.9162

> <Gold.PLP.Chemscore.Hbond>
1.7520

> <Gold.PLP.Chemscore.CHOScore>
0.0000

> <Gold.PLP.Chemscore.Metal>
0.0000

> <Gold.Chemscore.Hbonds>
donor molecule, donor type, donor heavy atom, donor atom, acceptor molecule, acceptor atom, score
      P1  H 10752 10763       L1     8  0.69
      P1  H 10752 10764       L1     3  1.00

> <Gold.PLP.Chemscore.Internal.Correction>
0.1005

> <Gold.Rescore>
     Score         DG    S(hbond)    S(metal)    S(lipo)     H(rot)  DE(clash)    DE(int)     intcor
     21.94     -23.08       1.79        0.00     145.52       2.11       0.21       0.93       ----

> <Gold.Chemscore.Fitness>
21.9359

> <Gold.Chemscore.DG>
-23.0785

> <Gold.Chemscore.ZeroCoef>
-5.4800

> <Gold.Chemscore.Hbond>
1.7870

> <Gold.Chemscore.Metal>
0.0000

> <Gold.Chemscore.Lipo>
145.5200

> <Gold.Chemscore.Internal_Hbond>
0.0000

> <Gold.Chemscore.DEClash>
0.2098

> <Gold.Chemscore.DEInternal>
0.9328

> <Gold.Chemscore.Rot>
2.1078

> <Gold.Chemscore.Internal.Correction>
   9.000000E+99

> <Gold.Chemscore.Hbonds>
donor molecule, donor type, donor heavy atom, donor atom, acceptor molecule, acceptor atom, score
      P1  H 10752 10763       L1     8  0.70
      P1  H 10752 10764       L1     3  0.96

> <Gold.Chemscore.Hbond.Weighted>
-5.9687

> <Gold.Chemscore.Metal.Weighted>
-0.0000

> <Gold.Chemscore.Lipo.Weighted>
-17.0258

> <Gold.Chemscore.Internal_Hbond.Weighted>
0.0000

> <Gold.Chemscore.DEClash.Weighted>
0.2098

> <Gold.Chemscore.DEInternal.Weighted>
0.9328

> <Gold.Chemscore.Rot.Weighted>
5.3961

> <Gold.Chemscore.Internal.Correction.Weighted>
   9.000000E+99

> <Gold.Protein.RotatedTorsions>
[ 6907 6896 6895 6894 ] final -107.08 input  -60.11 | X-H torsion
[ 7974 7965 7964 7962 ] final -109.96 input  175.53 | X-H torsion
[ 8008 7997 7996 7995 ] final -166.98 input   59.86 | X-H torsion
[ 10167 10162 10161 10158 ] final  124.11 input  -65.29 | X-H torsion
[ 10718 10713 10712 10709 ] final  -58.37 input   66.30 | X-H torsion
[ 10763 10752 10751 10750 ] final   88.02 input  -60.55 | X-H torsion
[ 11005 11000 10999 10996 ] final  -71.92 input  -57.11 | X-H torsion

> <Gold.Protein.ActiveResidues>
 VAL166  LYS551  ARG553  GLY616  TRP617  ASP618  TYR619  PRO620  LYS621  CYS622 
 ASP623  PHE694  ASN695  SER759  ASP760  ASP761  ALA762  ILE779  LEU786  VAL792 
 PHE793  MET794  SER795  GLU796  ALA797  LYS798  CYS799  TRP800  GLU811  SER814 

> <Gold.Protein.RotatedAtoms>
  150.7424  133.9880  159.3597 H   0  0  0  0  0  0  0  0  0  0  0  0  # atno 6907 bound_to 6896
  151.7826  135.0755  160.0385 H   0  0  0  0  0  0  0  0  0  0  0  0  # atno 6908 bound_to 6896
  152.3263  133.5872  159.5815 H   0  0  0  0  0  0  0  0  0  0  0  0  # atno 6909 bound_to 6896
  145.1741  140.8940  143.3518 H   0  0  0  0  0  0  0  0  0  0  0  0  # atno 7974 bound_to 7965
  155.8714  140.0994  157.1547 H   0  0  0  0  0  0  0  0  0  0  0  0  # atno 8008 bound_to 7997
  154.3997  140.1346  156.4146 H   0  0  0  0  0  0  0  0  0  0  0  0  # atno 8009 bound_to 7997
  155.7746  140.3460  155.5267 H   0  0  0  0  0  0  0  0  0  0  0  0  # atno 8010 bound_to 7997
  139.5761  144.6964  151.3651 H   0  0  0  0  0  0  0  0  0  0  0  0  # atno 10167 bound_to 10162
  156.1140  130.4172  150.0568 H   0  0  0  0  0  0  0  0  0  0  0  0  # atno 10718 bound_to 10713
  153.1727  135.4522  154.9923 H   0  0  0  0  0  0  0  0  0  0  0  0  # atno 10763 bound_to 10752
  154.7977  135.3243  154.7630 H   0  0  0  0  0  0  0  0  0  0  0  0  # atno 10764 bound_to 10752
  153.8104  135.6955  153.4896 H   0  0  0  0  0  0  0  0  0  0  0  0  # atno 10765 bound_to 10752
  141.1600  133.6831  156.6980 H   0  0  0  0  0  0  0  0  0  0  0  0  # atno 11005 bound_to 11000
  145.0203  139.3430  143.6076 LP  0  0  0  0  0  0  0  0  0  0  0  0  # atno 17320 bound_to 7965
  146.3464  139.9500  142.8730 LP  0  0  0  0  0  0  0  0  0  0  0  0  # atno 17321 bound_to 7965
  140.7043  143.7553  150.7455 LP  0  0  0  0  0  0  0  0  0  0  0  0  # atno 17342 bound_to 10162
  140.1073  143.4732  152.2390 LP  0  0  0  0  0  0  0  0  0  0  0  0  # atno 17343 bound_to 10162
  156.8524  130.9463  151.3624 LP  0  0  0  0  0  0  0  0  0  0  0  0  # atno 17370 bound_to 10713
  157.6323  130.8739  149.9295 LP  0  0  0  0  0  0  0  0  0  0  0  0  # atno 17371 bound_to 10713
  140.2980  134.8187  157.4073 LP  0  0  0  0  0  0  0  0  0  0  0  0  # atno 17394 bound_to 11000
  140.1287  134.5123  155.8123 LP  0  0  0  0  0  0  0  0  0  0  0  0  # atno 17395 bound_to 11000

$$$$
