AV-unprocessed.smi:460|AV-procd|sdf|2626|dock5
  -GOLD-   2262023 33D 1   1.00000     0.00000
 Structure written by MMmdl.
 46 48  0  0  0  0  0  0  0  0  1 V2000
  143.8086  132.1314  150.4920 C   0  0  0  0  0  0  0  0  0  0  0  0
  144.9174  133.1505  150.1966 C   0  0  0  0  0  0  0  0  0  0  0  0
  145.4236  133.8868  151.4517 C   0  0  2  0  0  0  0  0  0  0  0  0
  145.9603  132.9415  152.3561 O   0  0  0  0  0  0  0  0  0  0  0  0
  144.3370  134.7135  152.0868 C   0  0  0  0  0  0  0  0  0  0  0  0
  143.1695  134.1740  152.4453 N   0  0  0  0  0  0  0  0  0  0  0  0
  142.4741  135.2523  152.9530 C   0  0  0  0  0  0  0  0  0  0  0  0
  141.1707  135.3303  153.4941 C   0  0  0  0  0  0  0  0  0  0  0  0
  140.6620  136.5617  153.9557 C   0  0  0  0  0  0  0  0  0  0  0  0
  141.4472  137.7303  153.8816 C   0  0  0  0  0  0  0  0  0  0  0  0
  142.7484  137.6741  153.3459 C   0  0  0  0  0  0  0  0  0  0  0  0
  143.2531  136.4414  152.8881 C   0  0  0  0  0  0  0  0  0  0  0  0
  144.4626  136.0470  152.3221 N   0  0  0  0  0  0  0  0  0  0  0  0
  145.6002  136.9165  152.0565 C   0  0  0  0  0  0  0  0  0  0  0  0
  146.2470  137.4286  153.3492 C   0  0  0  0  0  0  0  0  0  0  0  0
  146.4337  138.8318  153.2357 O   0  0  0  0  0  0  0  0  0  0  0  0
  147.5954  139.3836  153.7360 C   0  0  0  0  0  0  0  0  0  0  0  0
  148.7338  138.6205  154.1013 C   0  0  0  0  0  0  0  0  0  0  0  0
  149.8855  139.2515  154.6051 C   0  0  0  0  0  0  0  0  0  0  0  0
  149.9139  140.6486  154.7498 C   0  0  0  0  0  0  0  0  0  0  0  0
  148.7907  141.4155  154.3911 C   0  0  0  0  0  0  0  0  0  0  0  0
  147.6241  140.7904  153.8817 C   0  0  0  0  0  0  0  0  0  0  0  0
  146.4888  141.4811  153.5092 O   0  0  0  0  0  0  0  0  0  0  0  0
  146.4160  142.8680  153.8060 C   0  0  0  0  0  0  0  0  0  0  0  0
  143.5095  131.6115  149.5816 H   0  0  0  0  0  0  0  0  0  0  0  0
  142.9219  132.6146  150.9029 H   0  0  0  0  0  0  0  0  0  0  0  0
  144.1450  131.3803  151.2075 H   0  0  0  0  0  0  0  0  0  0  0  0
  145.7485  132.6150  149.7365 H   0  0  0  0  0  0  0  0  0  0  0  0
  144.5751  133.8696  149.4509 H   0  0  0  0  0  0  0  0  0  0  0  0
  146.2507  134.5317  151.1623 H   0  0  0  0  0  0  0  0  0  0  0  0
  146.9012  132.9474  152.2715 H   0  0  0  0  0  0  0  0  0  0  0  0
  140.5617  134.4403  153.5540 H   0  0  0  0  0  0  0  0  0  0  0  0
  139.6649  136.6100  154.3683 H   0  0  0  0  0  0  0  0  0  0  0  0
  141.0502  138.6699  154.2373 H   0  0  0  0  0  0  0  0  0  0  0  0
  143.3495  138.5694  153.2890 H   0  0  0  0  0  0  0  0  0  0  0  0
  146.3361  136.3616  151.4741 H   0  0  0  0  0  0  0  0  0  0  0  0
  145.2838  137.7433  151.4207 H   0  0  0  0  0  0  0  0  0  0  0  0
  145.6046  137.2069  154.2014 H   0  0  0  0  0  0  0  0  0  0  0  0
  147.2064  136.9318  153.5037 H   0  0  0  0  0  0  0  0  0  0  0  0
  148.7506  137.5458  154.0044 H   0  0  0  0  0  0  0  0  0  0  0  0
  150.7480  138.6624  154.8802 H   0  0  0  0  0  0  0  0  0  0  0  0
  150.7984  141.1336  155.1363 H   0  0  0  0  0  0  0  0  0  0  0  0
  148.8504  142.4857  154.5166 H   0  0  0  0  0  0  0  0  0  0  0  0
  145.4673  143.2640  153.4440 H   0  0  0  0  0  0  0  0  0  0  0  0
  147.2140  143.4247  153.3132 H   0  0  0  0  0  0  0  0  0  0  0  0
  146.4590  143.0479  154.8810 H   0  0  0  0  0  0  0  0  0  0  0  0
  1  2  1  0  0  0  0
  1 25  1  0  0  0  0
  1 26  1  0  0  0  0
  1 27  1  0  0  0  0
  2  3  1  0  0  0  0
  2 28  1  0  0  0  0
  2 29  1  0  0  0  0
  3  4  1  0  0  0  0
  3  5  1  0  0  0  0
  3 30  1  0  0  0  0
  4 31  1  0  0  0  0
  5 13  1  0  0  0  0
  5  6  2  0  0  0  0
  6  7  1  0  0  0  0
  7 12  2  0  0  0  0
  7  8  1  0  0  0  0
  8  9  2  0  0  0  0
  8 32  1  0  0  0  0
  9 10  1  0  0  0  0
  9 33  1  0  0  0  0
 10 11  2  0  0  0  0
 10 34  1  0  0  0  0
 11 12  1  0  0  0  0
 11 35  1  0  0  0  0
 12 13  1  0  0  0  0
 13 14  1  0  0  0  0
 14 15  1  0  0  0  0
 14 36  1  0  0  0  0
 14 37  1  0  0  0  0
 15 16  1  0  0  0  0
 15 38  1  0  0  0  0
 15 39  1  0  0  0  0
 16 17  1  0  0  0  0
 17 22  1  0  0  0  0
 17 18  2  0  0  0  0
 18 19  1  0  0  0  0
 18 40  1  0  0  0  0
 19 20  2  0  0  0  0
 19 41  1  0  0  0  0
 20 21  1  0  0  0  0
 20 42  1  0  0  0  0
 21 22  2  0  0  0  0
 21 43  1  0  0  0  0
 22 23  1  0  0  0  0
 23 24  1  0  0  0  0
 24 44  1  0  0  0  0
 24 45  1  0  0  0  0
 24 46  1  0  0  0  0
M  END
> <s_m_source_file>
AV-unprocessed.smi

> <i_m_source_file_index>
460

> <i_lp_mmshare_version>
43012

> <i_f3d_flags>
0

> <s_epik_input>
W2NIXTFbY0hdW2NIXVtjSF1jKGMxMiluKGMobjIpW0NAQEhdKFtPSF0pW0NIMl1bQ0gzXSlbQ0gyXVtDSDJdT2MzW2NIXVtjSF1bY0hdW2NIXWMzT1tDSDNd

> <s_epik_cmdline>
J2VwaWtfcHl0aG9uJywgJy1waCcsICc3LjAnLCAnLXRuJywgJzgnLCAnLW1hJywgJzIwMCcsICctbWV0YWxfYmluZGluZycsICctaW1hZScsICc8aW5maWxlLm1hZT4nLCAnLW9tYWUnLCAnPG91dGZpbGUubWFlPic=

> <r_lp_tautomer_probability>
1

> <r_epik_Ionization_Penalty>
0.0507825

> <r_epik_Ionization_Penalty_Charging>
0

> <r_epik_Ionization_Penalty_Neutral>
0.0507825

> <r_epik_State_Penalty>
0.0434615

> <r_epik_Charging_Adjusted_Penalty>
0.0434615

> <i_epik_Tot_Q>
0

> <i_epik_Tot_abs_Q>
0

> <r_epik_Metal_State_Penalty>
4.50935e-05

> <b_epik_Metal_Only>
0

> <s_lp_Force_Field>
OPLS_2005

> <r_lp_Energy>
20.8142

> <b_lp_Chiralities_Consistent>
1

> <s_lp_Variant>
AV-unprocessed.smi:460-1

> <Gold.Version>
5.8.1

> <Gold.Id.Protein>
6NUR|6NUR_protein|mol2

> <Gold.PLP.Fitness>
42.2777

> <Gold.PLP.PLP>
-44.0831

> <Gold.PLP.part.hbond>
0.0000

> <Gold.PLP.part.metal>
0.0000

> <Gold.PLP.part.buried>
-5.3029

> <Gold.PLP.part.nonpolar>
-39.1152

> <Gold.PLP.part.repulsive>
0.6398

> <Gold.PLP.ligand.clash>
0.0000

> <Gold.PLP.ligand.torsion>
0.9702

> <Gold.PLP.Chemscore.Hbond>
0.0000

> <Gold.PLP.Chemscore.CHOScore>
0.0000

> <Gold.PLP.Chemscore.Metal>
0.0000

> <Gold.PLP.Chemscore.Internal.Correction>
0.1351

> <Gold.Rescore>
     Score         DG    S(hbond)    S(metal)    S(lipo)     H(rot)  DE(clash)    DE(int)     intcor
      9.64     -12.44       0.00        0.00     111.07       2.36       0.60       2.20       ----

> <Gold.Chemscore.Fitness>
9.6359

> <Gold.Chemscore.DG>
-12.4363

> <Gold.Chemscore.ZeroCoef>
-5.4800

> <Gold.Chemscore.Hbond>
0.0000

> <Gold.Chemscore.Metal>
0.0000

> <Gold.Chemscore.Lipo>
111.0656

> <Gold.Chemscore.Internal_Hbond>
0.0000

> <Gold.Chemscore.DEClash>
0.5961

> <Gold.Chemscore.DEInternal>
2.2043

> <Gold.Chemscore.Rot>
2.3587

> <Gold.Chemscore.Internal.Correction>
   9.000000E+99

> <Gold.Chemscore.Hbond.Weighted>
-0.0000

> <Gold.Chemscore.Metal.Weighted>
-0.0000

> <Gold.Chemscore.Lipo.Weighted>
-12.9947

> <Gold.Chemscore.Internal_Hbond.Weighted>
0.0000

> <Gold.Chemscore.DEClash.Weighted>
0.5961

> <Gold.Chemscore.DEInternal.Weighted>
2.2043

> <Gold.Chemscore.Rot.Weighted>
6.0384

> <Gold.Chemscore.Internal.Correction.Weighted>
   9.000000E+99

> <Gold.Protein.RotatedTorsions>
[ 6907 6896 6895 6894 ] final  113.71 input  -60.11 | X-H torsion
[ 7974 7965 7964 7962 ] final   92.30 input  175.53 | X-H torsion
[ 8008 7997 7996 7995 ] final -131.00 input   59.86 | X-H torsion
[ 10167 10162 10161 10158 ] final   19.81 input  -65.29 | X-H torsion
[ 10718 10713 10712 10709 ] final   23.78 input   66.30 | X-H torsion
[ 10763 10752 10751 10750 ] final  177.91 input  -60.55 | X-H torsion
[ 11005 11000 10999 10996 ] final    2.25 input  -57.11 | X-H torsion

> <Gold.Protein.ActiveResidues>
 VAL166  LYS551  ARG553  GLY616  TRP617  ASP618  TYR619  PRO620  LYS621  CYS622 
 ASP623  PHE694  ASN695  SER759  ASP760  ASP761  ALA762  ILE779  LEU786  VAL792 
 PHE793  MET794  SER795  GLU796  ALA797  LYS798  CYS799  TRP800  GLU811  SER814 

> <Gold.Protein.RotatedAtoms>
  152.4845  133.8338  159.7116 H   0  0  0  0  0  0  0  0  0  0  0  0  # atno 6907 bound_to 6896
  150.8920  133.7221  159.2908 H   0  0  0  0  0  0  0  0  0  0  0  0  # atno 6908 bound_to 6896
  151.4690  135.1048  159.9798 H   0  0  0  0  0  0  0  0  0  0  0  0  # atno 6909 bound_to 6896
  145.4941  139.2276  143.2813 H   0  0  0  0  0  0  0  0  0  0  0  0  # atno 7974 bound_to 7965
  155.3050  140.0454  157.3032 H   0  0  0  0  0  0  0  0  0  0  0  0  # atno 8008 bound_to 7997
  154.5465  140.2304  155.8522 H   0  0  0  0  0  0  0  0  0  0  0  0  # atno 8009 bound_to 7997
  156.1928  140.3046  155.9374 H   0  0  0  0  0  0  0  0  0  0  0  0  # atno 8010 bound_to 7997
  140.5551  143.9439  150.6604 H   0  0  0  0  0  0  0  0  0  0  0  0  # atno 10167 bound_to 10162
  157.1708  130.6759  149.6077 H   0  0  0  0  0  0  0  0  0  0  0  0  # atno 10718 bound_to 10713
  154.5007  135.2783  155.1423 H   0  0  0  0  0  0  0  0  0  0  0  0  # atno 10763 bound_to 10752
  154.3057  135.6239  153.5447 H   0  0  0  0  0  0  0  0  0  0  0  0  # atno 10764 bound_to 10752
  152.9902  135.5707  154.5449 H   0  0  0  0  0  0  0  0  0  0  0  0  # atno 10765 bound_to 10752
  140.6064  133.9788  155.8156 H   0  0  0  0  0  0  0  0  0  0  0  0  # atno 11005 bound_to 11000
  146.2266  140.5737  142.8994 LP  0  0  0  0  0  0  0  0  0  0  0  0  # atno 17320 bound_to 7965
  144.7817  140.5854  143.6601 LP  0  0  0  0  0  0  0  0  0  0  0  0  # atno 17321 bound_to 7965
  140.2875  143.3347  152.1094 LP  0  0  0  0  0  0  0  0  0  0  0  0  # atno 17342 bound_to 10162
  139.5044  144.6775  151.6091 LP  0  0  0  0  0  0  0  0  0  0  0  0  # atno 17343 bound_to 10162
  155.9738  130.4679  150.6343 LP  0  0  0  0  0  0  0  0  0  0  0  0  # atno 17370 bound_to 10713
  157.4045  131.0814  151.1278 LP  0  0  0  0  0  0  0  0  0  0  0  0  # atno 17371 bound_to 10713
  141.0837  134.0022  157.3346 LP  0  0  0  0  0  0  0  0  0  0  0  0  # atno 17394 bound_to 11000
  139.9210  135.0200  156.8065 LP  0  0  0  0  0  0  0  0  0  0  0  0  # atno 17395 bound_to 11000

$$$$
