AV-unprocessed.smi:2190|AV-procd|sdf|8889|dock9
  -GOLD-   2272012 93D 1   1.00000     0.00000
 Structure written by MMmdl.
 46 48  0  0  0  0  0  0  0  0  1 V2000
  154.3579  140.1605  159.9513 C   0  0  0  0  0  0  0  0  0  0  0  0
  153.3680  141.2861  159.7315 C   0  0  0  0  0  0  0  0  0  0  0  0
  153.1972  142.2842  160.7102 C   0  0  0  0  0  0  0  0  0  0  0  0
  152.2744  143.3245  160.4992 C   0  0  0  0  0  0  0  0  0  0  0  0
  151.5162  143.3729  159.3111 C   0  0  0  0  0  0  0  0  0  0  0  0
  150.5256  144.5025  159.0987 C   0  0  0  0  0  0  0  0  0  0  0  0
  151.6760  142.3757  158.3212 C   0  0  0  0  0  0  0  0  0  0  0  0
  150.8994  142.4805  157.1862 O   0  0  0  0  0  0  0  0  0  0  0  0
  151.3357  141.8337  155.9974 C   0  0  0  0  0  0  0  0  0  0  0  0
  150.2168  140.9273  155.4574 C   0  0  1  0  0  0  0  0  0  0  0  0
  148.9849  141.6177  155.5259 O   0  0  0  0  0  0  0  0  0  0  0  0
  150.4878  140.3871  154.0378 C   0  0  0  0  0  0  0  0  0  0  0  0
  151.3263  139.1958  154.0458 N   0  0  0  0  0  0  0  0  0  0  0  0
  152.6797  139.1173  154.1162 C   0  0  0  0  0  0  0  0  0  0  0  0
  153.5344  140.3503  154.2063 C   0  0  0  0  0  0  0  0  0  0  0  0
  154.9214  140.0852  154.2689 O   0  0  0  0  0  0  0  0  0  0  0  0
  153.1853  137.8810  154.1097 N   0  0  0  0  0  0  0  0  0  0  0  0
  152.0579  137.0883  154.0251 C   0  0  0  0  0  0  0  0  0  0  0  0
  151.9248  135.6821  153.9777 C   0  0  0  0  0  0  0  0  0  0  0  0
  150.6481  135.0884  153.8934 C   0  0  0  0  0  0  0  0  0  0  0  0
  149.4889  135.8905  153.8557 C   0  0  0  0  0  0  0  0  0  0  0  0
  149.5997  137.2937  153.9017 C   0  0  0  0  0  0  0  0  0  0  0  0
  150.8765  137.8808  153.9853 C   0  0  0  0  0  0  0  0  0  0  0  0
  152.6110  141.3325  158.5434 C   0  0  0  0  0  0  0  0  0  0  0  0
  154.9878  140.3494  160.8211 H   0  0  0  0  0  0  0  0  0  0  0  0
  155.0061  140.0485  159.0818 H   0  0  0  0  0  0  0  0  0  0  0  0
  153.8293  139.2202  160.1097 H   0  0  0  0  0  0  0  0  0  0  0  0
  153.7711  142.2564  161.6249 H   0  0  0  0  0  0  0  0  0  0  0  0
  152.1512  144.0858  161.2555 H   0  0  0  0  0  0  0  0  0  0  0  0
  150.7467  145.0327  158.1719 H   0  0  0  0  0  0  0  0  0  0  0  0
  150.5592  145.2229  159.9165 H   0  0  0  0  0  0  0  0  0  0  0  0
  149.5112  144.1076  159.0351 H   0  0  0  0  0  0  0  0  0  0  0  0
  151.5672  142.5915  155.2470 H   0  0  0  0  0  0  0  0  0  0  0  0
  152.2422  141.2518  156.1734 H   0  0  0  0  0  0  0  0  0  0  0  0
  150.1225  140.0804  156.1381 H   0  0  0  0  0  0  0  0  0  0  0  0
  149.1551  142.5129  155.7764 H   0  0  0  0  0  0  0  0  0  0  0  0
  149.5547  140.1696  153.5181 H   0  0  0  0  0  0  0  0  0  0  0  0
  150.9915  141.1499  153.4428 H   0  0  0  0  0  0  0  0  0  0  0  0
  153.3500  140.9856  153.3403 H   0  0  0  0  0  0  0  0  0  0  0  0
  153.2471  140.9155  155.0933 H   0  0  0  0  0  0  0  0  0  0  0  0
  155.2580  140.0389  153.3874 H   0  0  0  0  0  0  0  0  0  0  0  0
  152.8068  135.0595  154.0068 H   0  0  0  0  0  0  0  0  0  0  0  0
  150.5580  134.0126  153.8583 H   0  0  0  0  0  0  0  0  0  0  0  0
  148.5151  135.4279  153.7917 H   0  0  0  0  0  0  0  0  0  0  0  0
  148.7144  137.9112  153.8731 H   0  0  0  0  0  0  0  0  0  0  0  0
  152.7641  140.5515  157.8142 H   0  0  0  0  0  0  0  0  0  0  0  0
  1  2  1  0  0  0  0
  1 25  1  0  0  0  0
  1 26  1  0  0  0  0
  1 27  1  0  0  0  0
  2 24  1  0  0  0  0
  2  3  2  0  0  0  0
  3  4  1  0  0  0  0
  3 28  1  0  0  0  0
  4  5  2  0  0  0  0
  4 29  1  0  0  0  0
  5  6  1  0  0  0  0
  5  7  1  0  0  0  0
  6 30  1  0  0  0  0
  6 31  1  0  0  0  0
  6 32  1  0  0  0  0
  7  8  1  0  0  0  0
  7 24  2  0  0  0  0
  8  9  1  0  0  0  0
  9 10  1  0  0  0  0
  9 33  1  0  0  0  0
  9 34  1  0  0  0  0
 10 11  1  0  0  0  0
 10 12  1  0  0  0  0
 10 35  1  0  0  0  0
 11 36  1  0  0  0  0
 12 13  1  0  0  0  0
 12 37  1  0  0  0  0
 12 38  1  0  0  0  0
 13 23  1  0  0  0  0
 13 14  1  0  0  0  0
 14 15  1  0  0  0  0
 14 17  2  0  0  0  0
 15 16  1  0  0  0  0
 15 39  1  0  0  0  0
 15 40  1  0  0  0  0
 16 41  1  0  0  0  0
 17 18  1  0  0  0  0
 18 23  2  0  0  0  0
 18 19  1  0  0  0  0
 19 20  2  0  0  0  0
 19 42  1  0  0  0  0
 20 21  1  0  0  0  0
 20 43  1  0  0  0  0
 21 22  2  0  0  0  0
 21 44  1  0  0  0  0
 22 23  1  0  0  0  0
 22 45  1  0  0  0  0
 24 46  1  0  0  0  0
M  END
> <s_m_source_file>
AV-unprocessed.smi

> <i_m_source_file_index>
2190

> <i_lp_mmshare_version>
43012

> <i_f3d_flags>
0

> <s_epik_input>
W0NIM11jMVtjSF1bY0hdYyhbQ0gzXSljKFtjSF0xKU9bQ0gyXVtDQEhdKFtPSF0pW0NIMl1uKGMobjIpW0NIMl1bT0hdKWMoYzIzKVtjSF1bY0hdW2NIXVtjSF0z

> <s_epik_cmdline>
J2VwaWtfcHl0aG9uJywgJy1waCcsICc3LjAnLCAnLXRuJywgJzgnLCAnLW1hJywgJzIwMCcsICctbWV0YWxfYmluZGluZycsICctaW1hZScsICc8aW5maWxlLm1hZT4nLCAnLW9tYWUnLCAnPG91dGZpbGUubWFlPic=

> <r_lp_tautomer_probability>
1

> <r_epik_Ionization_Penalty>
0.0555874

> <r_epik_Ionization_Penalty_Charging>
0

> <r_epik_Ionization_Penalty_Neutral>
0.0555874

> <r_epik_State_Penalty>
0.0478234

> <r_epik_Charging_Adjusted_Penalty>
0.0478234

> <i_epik_Tot_Q>
0

> <i_epik_Tot_abs_Q>
0

> <r_epik_Metal_State_Penalty>
4.98044e-05

> <b_epik_Metal_Only>
0

> <s_lp_Force_Field>
OPLS_2005

> <r_lp_Energy>
17.5395

> <b_lp_Chiralities_Consistent>
1

> <s_lp_Variant>
AV-unprocessed.smi:2190-2

> <Gold.Version>
5.8.1

> <Gold.Id.Protein>
6NUR|6NUR_protein|mol2

> <Gold.PLP.Fitness>
53.4431

> <Gold.PLP.PLP>
-48.7543

> <Gold.PLP.part.hbond>
-3.0000

> <Gold.PLP.part.metal>
0.0000

> <Gold.PLP.part.buried>
-5.8247

> <Gold.PLP.part.nonpolar>
-40.0829

> <Gold.PLP.part.repulsive>
0.2113

> <Gold.PLP.ligand.clash>
0.0000

> <Gold.PLP.ligand.torsion>
1.3949

> <Gold.PLP.Chemscore.Hbond>
2.4800

> <Gold.PLP.Chemscore.CHOScore>
0.0000

> <Gold.PLP.Chemscore.Metal>
0.0000

> <Gold.Chemscore.Hbonds>
donor molecule, donor type, donor heavy atom, donor atom, acceptor molecule, acceptor atom, score
      L1  H    11    36       P1  8028  0.52
      P1  H  7997  8008       L1    16  0.07

> <Gold.PLP.Chemscore.Internal.Correction>
0.0388

> <Gold.Rescore>
     Score         DG    S(hbond)    S(metal)    S(lipo)     H(rot)  DE(clash)    DE(int)     intcor
     17.81     -19.25       1.80        0.00     130.99       2.96       0.19       1.24       ----

> <Gold.Chemscore.Fitness>
17.8144

> <Gold.Chemscore.DG>
-19.2494

> <Gold.Chemscore.ZeroCoef>
-5.4800

> <Gold.Chemscore.Hbond>
1.7998

> <Gold.Chemscore.Metal>
0.0000

> <Gold.Chemscore.Lipo>
130.9881

> <Gold.Chemscore.Internal_Hbond>
0.0000

> <Gold.Chemscore.DEClash>
0.1918

> <Gold.Chemscore.DEInternal>
1.2432

> <Gold.Chemscore.Rot>
2.9561

> <Gold.Chemscore.Internal.Correction>
   9.000000E+99

> <Gold.Chemscore.Hbonds>
donor molecule, donor type, donor heavy atom, donor atom, acceptor molecule, acceptor atom, score
      L1  H    11    36       P1  8028  0.51
      P1  H  7997  8008       L1    16  0.01

> <Gold.Chemscore.Hbond.Weighted>
-6.0114

> <Gold.Chemscore.Metal.Weighted>
-0.0000

> <Gold.Chemscore.Lipo.Weighted>
-15.3256

> <Gold.Chemscore.Internal_Hbond.Weighted>
0.0000

> <Gold.Chemscore.DEClash.Weighted>
0.1918

> <Gold.Chemscore.DEInternal.Weighted>
1.2432

> <Gold.Chemscore.Rot.Weighted>
7.5677

> <Gold.Chemscore.Internal.Correction.Weighted>
   9.000000E+99

> <Gold.Protein.RotatedTorsions>
[ 6907 6896 6895 6894 ] final  -53.12 input  -60.11 | X-H torsion
[ 7974 7965 7964 7962 ] final    4.67 input  175.53 | X-H torsion
[ 8008 7997 7996 7995 ] final   25.44 input   59.86 | X-H torsion
[ 10167 10162 10161 10158 ] final  146.63 input  -65.29 | X-H torsion
[ 10718 10713 10712 10709 ] final  173.41 input   66.30 | X-H torsion
[ 10763 10752 10751 10750 ] final  -59.41 input  -60.55 | X-H torsion
[ 11005 11000 10999 10996 ] final -116.88 input  -57.11 | X-H torsion

> <Gold.Protein.ActiveResidues>
 VAL166  LYS551  ARG553  GLY616  TRP617  ASP618  TYR619  PRO620  LYS621  CYS622 
 ASP623  PHE694  ASN695  SER759  ASP760  ASP761  ALA762  ILE779  LEU786  VAL792 
 PHE793  MET794  SER795  GLU796  ALA797  LYS798  CYS799  TRP800  GLU811  SER814 

> <Gold.Protein.RotatedAtoms>
  150.8455  134.7763  159.6966 H   0  0  0  0  0  0  0  0  0  0  0  0  # atno 6907 bound_to 6896
  152.4533  134.5343  159.9830 H   0  0  0  0  0  0  0  0  0  0  0  0  # atno 6908 bound_to 6896
  151.5474  133.3385  159.2982 H   0  0  0  0  0  0  0  0  0  0  0  0  # atno 6909 bound_to 6896
  146.2443  140.0499  142.8376 H   0  0  0  0  0  0  0  0  0  0  0  0  # atno 7974 bound_to 7965
  155.0118  140.3137  155.4827 H   0  0  0  0  0  0  0  0  0  0  0  0  # atno 8008 bound_to 7997
  156.2908  140.2213  156.5174 H   0  0  0  0  0  0  0  0  0  0  0  0  # atno 8009 bound_to 7997
  154.7528  140.0465  157.0896 H   0  0  0  0  0  0  0  0  0  0  0  0  # atno 8010 bound_to 7997
  139.4904  144.5815  151.6861 H   0  0  0  0  0  0  0  0  0  0  0  0  # atno 10167 bound_to 10162
  156.9647  131.0071  151.2919 H   0  0  0  0  0  0  0  0  0  0  0  0  # atno 10718 bound_to 10713
  154.2533  135.6322  153.5248 H   0  0  0  0  0  0  0  0  0  0  0  0  # atno 10763 bound_to 10752
  152.9908  135.5570  154.5784 H   0  0  0  0  0  0  0  0  0  0  0  0  # atno 10764 bound_to 10752
  154.5316  135.2889  155.1150 H   0  0  0  0  0  0  0  0  0  0  0  0  # atno 10765 bound_to 10752
  141.0392  133.9862  157.3022 H   0  0  0  0  0  0  0  0  0  0  0  0  # atno 11005 bound_to 11000
  145.0993  140.9335  143.4722 LP  0  0  0  0  0  0  0  0  0  0  0  0  # atno 17320 bound_to 7965
  145.0689  139.3047  143.5842 LP  0  0  0  0  0  0  0  0  0  0  0  0  # atno 17321 bound_to 7965
  140.5423  144.0560  150.6093 LP  0  0  0  0  0  0  0  0  0  0  0  0  # atno 17342 bound_to 10162
  140.3586  143.2921  152.0409 LP  0  0  0  0  0  0  0  0  0  0  0  0  # atno 17343 bound_to 10162
  157.5634  130.8261  149.8295 LP  0  0  0  0  0  0  0  0  0  0  0  0  # atno 17370 bound_to 10713
  156.0307  130.3765  150.1695 LP  0  0  0  0  0  0  0  0  0  0  0  0  # atno 17371 bound_to 10713
  139.9263  135.0201  156.8246 LP  0  0  0  0  0  0  0  0  0  0  0  0  # atno 17394 bound_to 11000
  140.6266  133.9945  155.7642 LP  0  0  0  0  0  0  0  0  0  0  0  0  # atno 17395 bound_to 11000

$$$$
