AV-unprocessed.smi:862|AV-procd|sdf|3983|dock3
  -GOLD-   22720 1463D 1   1.00000     0.00000
 Structure written by MMmdl.
 45 47  0  0  0  0  0  0  0  0  3 V2000
  147.7612  132.4247  158.0905 N   0  0  0  0  0  0  0  0  0  0  0  0
  148.7396  132.7834  157.2535 C   0  0  0  0  0  0  0  0  0  0  0  0
  149.7287  133.3907  157.6594 O   0  0  0  0  0  0  0  0  0  0  0  0
  148.5726  132.3916  155.9649 N   0  0  0  0  0  0  0  0  0  0  0  0
  147.3393  131.8420  155.3774 C   0  0  0  0  0  0  0  0  0  0  0  0
  146.6873  132.9178  154.4889 C   0  0  0  0  0  0  0  0  0  0  0  0
  147.6650  133.4075  153.3955 C   0  0  0  0  0  0  0  0  0  0  0  0
  147.1019  134.5459  152.6343 N   0  3  0  0  0  0  0  0  0  0  0  0
  146.0707  134.2104  151.6237 C   0  0  1  0  0  0  0  0  0  0  0  0
  146.2513  132.8233  151.0005 C   0  0  0  0  0  0  0  0  0  0  0  0
  144.8702  132.4566  150.4473 C   0  0  0  0  0  0  0  0  0  0  0  0
  143.8470  133.2568  151.2684 C   0  0  0  0  0  0  0  0  0  0  0  0
  144.6656  134.1253  152.2403 C   0  0  2  0  0  0  0  0  0  0  0  0
  144.0522  135.4334  152.5244 N   0  0  0  0  0  0  0  0  0  0  0  0
  142.7981  135.6580  153.0341 C   0  0  0  0  0  0  0  0  0  0  0  0
  142.6491  137.0177  153.1297 C   0  0  0  0  0  0  0  0  0  0  0  0
  143.8168  137.5683  152.6754 N   0  3  0  0  0  0  0  0  0  0  0  0
  144.6683  136.6054  152.3084 C   0  0  0  0  0  0  0  0  0  0  0  0
  149.0154  133.8137  154.0213 C   0  0  0  0  0  0  0  0  0  0  0  0
  149.5655  132.6978  154.9277 C   0  0  0  0  0  0  0  0  0  0  0  0
  147.8240  132.6748  159.0667 H   0  0  0  0  0  0  0  0  0  0  0  0
  146.9698  131.8994  157.7491 H   0  0  0  0  0  0  0  0  0  0  0  0
  147.5893  130.9651  154.7783 H   0  0  0  0  0  0  0  0  0  0  0  0
  146.6181  131.4905  156.1150 H   0  0  0  0  0  0  0  0  0  0  0  0
  145.7797  132.5122  154.0446 H   0  0  0  0  0  0  0  0  0  0  0  0
  146.3761  133.7580  155.1115 H   0  0  0  0  0  0  0  0  0  0  0  0
  147.8623  132.5827  152.7086 H   0  0  0  0  0  0  0  0  0  0  0  0
  146.7388  135.2312  153.2815 H   0  0  0  0  0  0  0  0  0  0  0  0
  146.0782  134.9605  150.8311 H   0  0  0  0  0  0  0  0  0  0  0  0
  147.0172  132.8066  150.2247 H   0  0  0  0  0  0  0  0  0  0  0  0
  146.5358  132.1013  151.7677 H   0  0  0  0  0  0  0  0  0  0  0  0
  144.8024  132.7450  149.3974 H   0  0  0  0  0  0  0  0  0  0  0  0
  144.6894  131.3823  150.5003 H   0  0  0  0  0  0  0  0  0  0  0  0
  143.2345  133.8582  150.5955 H   0  0  0  0  0  0  0  0  0  0  0  0
  143.1689  132.5985  151.8130 H   0  0  0  0  0  0  0  0  0  0  0  0
  144.7346  133.5869  153.1877 H   0  0  0  0  0  0  0  0  0  0  0  0
  142.1174  134.8559  153.2822 H   0  0  0  0  0  0  0  0  0  0  0  0
  141.8204  137.6188  153.4756 H   0  0  0  0  0  0  0  0  0  0  0  0
  145.6568  136.7502  151.9096 H   0  0  0  0  0  0  0  0  0  0  0  0
  149.7381  134.0418  153.2371 H   0  0  0  0  0  0  0  0  0  0  0  0
  148.8963  134.7262  154.6081 H   0  0  0  0  0  0  0  0  0  0  0  0
  150.5291  132.9950  155.3442 H   0  0  0  0  0  0  0  0  0  0  0  0
  149.7638  131.7994  154.3414 H   0  0  0  0  0  0  0  0  0  0  0  0
  147.8717  134.9643  152.1319 H   0  0  0  0  0  0  0  0  0  0  0  0
  144.0082  138.5611  152.6185 H   0  0  0  0  0  0  0  0  0  0  0  0
  1  2  1  0  0  0  0
  1 21  1  0  0  0  0
  1 22  1  0  0  0  0
  2  3  2  0  0  0  0
  2  4  1  0  0  0  0
  4 20  1  0  0  0  0
  4  5  1  0  0  0  0
  5  6  1  0  0  0  0
  5 23  1  0  0  0  0
  5 24  1  0  0  0  0
  6  7  1  0  0  0  0
  6 25  1  0  0  0  0
  6 26  1  0  0  0  0
  7  8  1  0  0  0  0
  7 19  1  0  0  0  0
  7 27  1  0  0  0  0
  8  9  1  0  0  0  0
  8 28  1  0  0  0  0
  8 44  1  0  0  0  0
  9 13  1  0  0  0  0
  9 10  1  0  0  0  0
  9 29  1  0  0  0  0
 10 11  1  0  0  0  0
 10 30  1  0  0  0  0
 10 31  1  0  0  0  0
 11 12  1  0  0  0  0
 11 32  1  0  0  0  0
 11 33  1  0  0  0  0
 12 13  1  0  0  0  0
 12 34  1  0  0  0  0
 12 35  1  0  0  0  0
 13 14  1  0  0  0  0
 13 36  1  0  0  0  0
 14 18  1  0  0  0  0
 14 15  1  0  0  0  0
 15 16  2  0  0  0  0
 15 37  1  0  0  0  0
 16 17  1  0  0  0  0
 16 38  1  0  0  0  0
 17 18  2  0  0  0  0
 17 45  1  0  0  0  0
 18 39  1  0  0  0  0
 19 20  1  0  0  0  0
 19 40  1  0  0  0  0
 19 41  1  0  0  0  0
 20 42  1  0  0  0  0
 20 43  1  0  0  0  0
M  CHG  1   8   1
M  CHG  1  17   1
M  END
> <s_m_source_file>
AV-unprocessed.smi

> <i_m_source_file_index>
862

> <i_lp_mmshare_version>
43012

> <i_f3d_flags>
0

> <s_epik_input>
W05IMl1DKD1PKU4xW0NIMl1bQ0gyXVtDSF0oW0NIMl1bQ0gyXTEpW05IXVtDQEBIXTJbQ0gyXVtDSDJdW0NIMl1bQ0BIXTJuM1tjSF1bY0hdbltjSF0z

> <s_epik_cmdline>
J2VwaWtfcHl0aG9uJywgJy1waCcsICc3LjAnLCAnLXRuJywgJzgnLCAnLW1hJywgJzIwMCcsICctbWV0YWxfYmluZGluZycsICctaW1hZScsICc8aW5maWxlLm1hZT4nLCAnLW9tYWUnLCAnPG91dGZpbGUubWFlPic=

> <r_lp_tautomer_probability>
1

> <r_epik_Ionization_Penalty>
1.30217

> <r_epik_Ionization_Penalty_Charging>
0.00439521

> <r_epik_Ionization_Penalty_Neutral>
1.29777

> <r_epik_State_Penalty>
0.977606

> <r_epik_Charging_Adjusted_Penalty>
0.982001

> <i_epik_Tot_Q>
2

> <i_epik_Tot_abs_Q>
2

> <r_epik_Metal_State_Penalty>
1.03289

> <b_epik_Metal_Only>
0

> <s_lp_Force_Field>
OPLS_2005

> <r_lp_Energy>
66.2462

> <b_lp_Chiralities_Consistent>
1

> <s_lp_Variant>
AV-unprocessed.smi:862-8

> <Gold.Version>
5.8.1

> <Gold.Id.Protein>
6NUR|6NUR_protein|mol2

> <Gold.PLP.Fitness>
45.5325

> <Gold.PLP.PLP>
-31.5209

> <Gold.PLP.part.hbond>
-4.0000

> <Gold.PLP.part.metal>
0.0000

> <Gold.PLP.part.buried>
-4.8319

> <Gold.PLP.part.nonpolar>
-22.7728

> <Gold.PLP.part.repulsive>
0.0636

> <Gold.PLP.ligand.clash>
0.0000

> <Gold.PLP.ligand.torsion>
0.5198

> <Gold.PLP.Chemscore.Hbond>
5.0000

> <Gold.PLP.Chemscore.CHOScore>
0.0000

> <Gold.PLP.Chemscore.Metal>
0.0000

> <Gold.Chemscore.Hbonds>
donor molecule, donor type, donor heavy atom, donor atom, acceptor molecule, acceptor atom, score
      L1  H     8    44       P1  7948  2.00
      L1  H    17    45       P1 10175  2.00
      P1  H  6896  6907       L1     3  1.00

> <Gold.PLP.Chemscore.Internal.Correction>
0.0512

> <Gold.Rescore>
     Score         DG    S(hbond)    S(metal)    S(lipo)     H(rot)  DE(clash)    DE(int)     intcor
     17.51     -18.10       2.95        0.00      60.28       1.68       0.01       0.58       ----

> <Gold.Chemscore.Fitness>
17.5107

> <Gold.Chemscore.DG>
-18.0955

> <Gold.Chemscore.ZeroCoef>
-5.4800

> <Gold.Chemscore.Hbond>
2.9541

> <Gold.Chemscore.Metal>
0.0000

> <Gold.Chemscore.Lipo>
60.2830

> <Gold.Chemscore.Internal_Hbond>
0.0000

> <Gold.Chemscore.DEClash>
0.0089

> <Gold.Chemscore.DEInternal>
0.5759

> <Gold.Chemscore.Rot>
1.6814

> <Gold.Chemscore.Internal.Correction>
   9.000000E+99

> <Gold.Chemscore.Hbonds>
donor molecule, donor type, donor heavy atom, donor atom, acceptor molecule, acceptor atom, score
      L1  H     8    44       P1  7948  0.72
      L1  H    17    45       P1 10175  0.99
      P1  H  6896  6907       L1     3  0.97

> <Gold.Chemscore.Hbond.Weighted>
-9.8667

> <Gold.Chemscore.Metal.Weighted>
-0.0000

> <Gold.Chemscore.Lipo.Weighted>
-7.0531

> <Gold.Chemscore.Internal_Hbond.Weighted>
0.0000

> <Gold.Chemscore.DEClash.Weighted>
0.0089

> <Gold.Chemscore.DEInternal.Weighted>
0.5759

> <Gold.Chemscore.Rot.Weighted>
4.3043

> <Gold.Chemscore.Internal.Correction.Weighted>
   9.000000E+99

> <Gold.Protein.RotatedTorsions>
[ 6907 6896 6895 6894 ] final -133.03 input  -60.11 | X-H torsion
[ 7974 7965 7964 7962 ] final -117.09 input  175.53 | X-H torsion
[ 8008 7997 7996 7995 ] final -167.47 input   59.86 | X-H torsion
[ 10167 10162 10161 10158 ] final -160.03 input  -65.29 | X-H torsion
[ 10718 10713 10712 10709 ] final -134.89 input   66.30 | X-H torsion
[ 10763 10752 10751 10750 ] final   93.78 input  -60.55 | X-H torsion
[ 11005 11000 10999 10996 ] final  103.76 input  -57.11 | X-H torsion

> <Gold.Protein.ActiveResidues>
 VAL166  LYS551  ARG553  GLY616  TRP617  ASP618  TYR619  PRO620  LYS621  CYS622 
 ASP623  PHE694  ASN695  SER759  ASP760  ASP761  ALA762  ILE779  LEU786  VAL792 
 PHE793  MET794  SER795  GLU796  ALA797  LYS798  CYS799  TRP800  GLU811  SER814 

> <Gold.Protein.RotatedAtoms>
  150.9692  133.6362  159.2740 H   0  0  0  0  0  0  0  0  0  0  0  0  # atno 6907 bound_to 6896
  151.3657  135.0911  159.9458 H   0  0  0  0  0  0  0  0  0  0  0  0  # atno 6908 bound_to 6896
  152.5177  133.9257  159.7610 H   0  0  0  0  0  0  0  0  0  0  0  0  # atno 6909 bound_to 6896
  145.0893  140.8479  143.3992 H   0  0  0  0  0  0  0  0  0  0  0  0  # atno 7974 bound_to 7965
  155.8782  140.1004  157.1504 H   0  0  0  0  0  0  0  0  0  0  0  0  # atno 8008 bound_to 7997
  154.4003  140.1334  156.4226 H   0  0  0  0  0  0  0  0  0  0  0  0  # atno 8009 bound_to 7997
  155.7673  140.3461  155.5231 H   0  0  0  0  0  0  0  0  0  0  0  0  # atno 8010 bound_to 7997
  139.6570  143.9981  152.2200 H   0  0  0  0  0  0  0  0  0  0  0  0  # atno 10167 bound_to 10162
  156.2602  130.7205  151.1137 H   0  0  0  0  0  0  0  0  0  0  0  0  # atno 10718 bound_to 10713
  153.2342  135.4313  155.0628 H   0  0  0  0  0  0  0  0  0  0  0  0  # atno 10763 bound_to 10752
  154.8311  135.3387  154.6743 H   0  0  0  0  0  0  0  0  0  0  0  0  # atno 10764 bound_to 10752
  153.7169  135.7019  153.5079 H   0  0  0  0  0  0  0  0  0  0  0  0  # atno 10765 bound_to 10752
  139.8786  134.9275  156.5259 H   0  0  0  0  0  0  0  0  0  0  0  0  # atno 11005 bound_to 11000
  145.1085  139.2773  143.5649 LP  0  0  0  0  0  0  0  0  0  0  0  0  # atno 17320 bound_to 7965
  146.3531  140.0674  142.8625 LP  0  0  0  0  0  0  0  0  0  0  0  0  # atno 17321 bound_to 7965
  139.9710  144.6494  150.7989 LP  0  0  0  0  0  0  0  0  0  0  0  0  # atno 17342 bound_to 10162
  140.7563  143.3064  151.2952 LP  0  0  0  0  0  0  0  0  0  0  0  0  # atno 17343 bound_to 10162
  157.7248  131.0657  150.5981 LP  0  0  0  0  0  0  0  0  0  0  0  0  # atno 17370 bound_to 10713
  156.6068  130.4369  149.5875 LP  0  0  0  0  0  0  0  0  0  0  0  0  # atno 17371 bound_to 10713
  140.8416  133.8200  155.9081 LP  0  0  0  0  0  0  0  0  0  0  0  0  # atno 17394 bound_to 11000
  140.9231  134.2116  157.4913 LP  0  0  0  0  0  0  0  0  0  0  0  0  # atno 17395 bound_to 11000

$$$$
