AV-unprocessed.smi:3151|AV-procd|sdf|12016|dock10
  -GOLD-   2272017423D 1   1.00000     0.00000
 Structure written by MMmdl.
 35 36  0  0  0  0  0  0  0  0  1 V2000
  151.8602  141.4169  157.5373 O   0  0  0  0  0  0  0  0  0  0  0  0
  151.2873  142.4867  157.3292 C   0  0  0  0  0  0  0  0  0  0  0  0
  151.5733  143.7037  158.2154 C   0  0  0  0  0  0  0  0  0  0  0  0
  151.6596  143.3619  159.7177 C   0  0  0  0  0  0  0  0  0  0  0  0
  151.9097  144.5634  160.6372 C   0  0  0  0  0  0  0  0  0  0  0  0
  152.4774  143.9705  161.9324 C   0  0  0  0  0  0  0  0  0  0  0  0
  153.0144  142.5769  161.5725 C   0  0  0  0  0  0  0  0  0  0  0  0
  152.8142  142.4187  160.0621 C   0  0  0  0  0  0  0  0  0  0  0  0
  150.4012  142.6647  156.3374 N   0  0  0  0  0  0  0  0  0  0  0  0
  149.9889  141.6350  155.3910 C   0  0  0  0  0  0  0  0  0  0  0  0
  149.8306  140.2678  156.0762 C   0  0  0  0  0  0  0  0  0  0  0  0
  150.7244  139.2823  155.5030 N   0  0  0  0  0  0  0  0  0  0  0  0
  150.6845  138.7605  154.2168 C   0  0  0  0  0  0  0  0  0  0  0  0
  151.7209  137.8589  154.1267 C   0  0  0  0  0  0  0  0  0  0  0  0
  152.4063  137.8096  155.3386 N   0  0  0  0  0  0  0  0  0  0  0  0
  151.7590  138.6789  156.1039 C   0  0  0  0  0  0  0  0  0  0  0  0
  152.5158  144.1425  157.8863 H   0  0  0  0  0  0  0  0  0  0  0  0
  150.8068  144.4634  158.0532 H   0  0  0  0  0  0  0  0  0  0  0  0
  150.7329  142.8780  160.0319 H   0  0  0  0  0  0  0  0  0  0  0  0
  152.6510  145.2259  160.1875 H   0  0  0  0  0  0  0  0  0  0  0  0
  151.0080  145.1511  160.8131 H   0  0  0  0  0  0  0  0  0  0  0  0
  153.2561  144.6098  162.3493 H   0  0  0  0  0  0  0  0  0  0  0  0
  151.6925  143.8816  162.6844 H   0  0  0  0  0  0  0  0  0  0  0  0
  154.0608  142.4546  161.8535 H   0  0  0  0  0  0  0  0  0  0  0  0
  152.4429  141.8158  162.1050 H   0  0  0  0  0  0  0  0  0  0  0  0
  152.6108  141.3864  159.7753 H   0  0  0  0  0  0  0  0  0  0  0  0
  153.7201  142.7335  159.5419 H   0  0  0  0  0  0  0  0  0  0  0  0
  149.9779  143.5757  156.2355 H   0  0  0  0  0  0  0  0  0  0  0  0
  149.0583  141.9293  154.9020 H   0  0  0  0  0  0  0  0  0  0  0  0
  150.7443  141.5729  154.6073 H   0  0  0  0  0  0  0  0  0  0  0  0
  150.0399  140.3480  157.1437 H   0  0  0  0  0  0  0  0  0  0  0  0
  148.8075  139.9014  155.9795 H   0  0  0  0  0  0  0  0  0  0  0  0
  149.9429  139.0646  153.4927 H   0  0  0  0  0  0  0  0  0  0  0  0
  152.0232  137.2461  153.2902 H   0  0  0  0  0  0  0  0  0  0  0  0
  152.0429  138.8803  157.1267 H   0  0  0  0  0  0  0  0  0  0  0  0
  1  2  2  0  0  0  0
  2  3  1  0  0  0  0
  2  9  1  0  0  0  0
  3  4  1  0  0  0  0
  3 17  1  0  0  0  0
  3 18  1  0  0  0  0
  4  8  1  0  0  0  0
  4  5  1  0  0  0  0
  4 19  1  0  0  0  0
  5  6  1  0  0  0  0
  5 20  1  0  0  0  0
  5 21  1  0  0  0  0
  6  7  1  0  0  0  0
  6 22  1  0  0  0  0
  6 23  1  0  0  0  0
  7  8  1  0  0  0  0
  7 24  1  0  0  0  0
  7 25  1  0  0  0  0
  8 26  1  0  0  0  0
  8 27  1  0  0  0  0
  9 10  1  0  0  0  0
  9 28  1  0  0  0  0
 10 11  1  0  0  0  0
 10 29  1  0  0  0  0
 10 30  1  0  0  0  0
 11 12  1  0  0  0  0
 11 31  1  0  0  0  0
 11 32  1  0  0  0  0
 12 16  1  0  0  0  0
 12 13  1  0  0  0  0
 13 14  2  0  0  0  0
 13 33  1  0  0  0  0
 14 15  1  0  0  0  0
 14 34  1  0  0  0  0
 15 16  2  0  0  0  0
 16 35  1  0  0  0  0
M  END
> <s_m_source_file>
AV-unprocessed.smi

> <i_m_source_file_index>
3151

> <i_lp_mmshare_version>
43012

> <i_f3d_flags>
0

> <s_epik_input>
W0NIMl0xW0NIMl1bQ0gyXVtDSDJdW0NIXTFbQ0gyXUMoPU8pW05IXVtDSDJdW0NIMl1uMltjSF1bY0hdbltjSF0y

> <s_epik_cmdline>
J2VwaWtfcHl0aG9uJywgJy1waCcsICc3LjAnLCAnLXRuJywgJzgnLCAnLW1hJywgJzIwMCcsICctbWV0YWxfYmluZGluZycsICctaW1hZScsICc8aW5maWxlLm1hZT4nLCAnLW9tYWUnLCAnPG91dGZpbGUubWFlPic=

> <r_lp_tautomer_probability>
1

> <r_epik_Ionization_Penalty>
0.596413

> <r_epik_Ionization_Penalty_Charging>
0.596413

> <r_epik_Ionization_Penalty_Neutral>
2.16921e-08

> <r_epik_State_Penalty>
0.610423

> <r_epik_Charging_Adjusted_Penalty>
1.20684

> <i_epik_Tot_Q>
0

> <i_epik_Tot_abs_Q>
0

> <r_epik_Metal_State_Penalty>
0.300145

> <b_epik_Metal_Only>
0

> <s_lp_Force_Field>
OPLS_2005

> <r_lp_Energy>
20.9474

> <b_lp_Chiralities_Consistent>
1

> <s_lp_Variant>
AV-unprocessed.smi:3151-2

> <Gold.Version>
5.8.1

> <Gold.Id.Protein>
6NUR|6NUR_protein|mol2

> <Gold.PLP.Fitness>
46.3717

> <Gold.PLP.PLP>
-38.9576

> <Gold.PLP.part.hbond>
-1.7286

> <Gold.PLP.part.metal>
0.0000

> <Gold.PLP.part.buried>
-4.0500

> <Gold.PLP.part.nonpolar>
-31.7217

> <Gold.PLP.part.repulsive>
0.1273

> <Gold.PLP.ligand.clash>
0.0000

> <Gold.PLP.ligand.torsion>
0.8041

> <Gold.PLP.Chemscore.Hbond>
1.0000

> <Gold.PLP.Chemscore.CHOScore>
1.9929

> <Gold.PLP.Chemscore.Metal>
0.0000

> <Gold.Chemscore.Hbonds>
donor molecule, donor type, donor heavy atom, donor atom, acceptor molecule, acceptor atom, score
      L1  H     9    28       P1  8028  1.00
      L1  C    13    33       P1  7957  0.97
      L1  C    14    34       P1  7949  1.00

> <Gold.PLP.Chemscore.Internal.Correction>
0.0436

> <Gold.Rescore>
     Score         DG    S(hbond)    S(metal)    S(lipo)     H(rot)  DE(clash)    DE(int)     intcor
     12.04     -15.36       0.99        0.00      99.82       1.99       0.01       3.31       ----

> <Gold.Chemscore.Fitness>
12.0385

> <Gold.Chemscore.DG>
-15.3571

> <Gold.Chemscore.ZeroCoef>
-5.4800

> <Gold.Chemscore.Hbond>
0.9875

> <Gold.Chemscore.Metal>
0.0000

> <Gold.Chemscore.Lipo>
99.8155

> <Gold.Chemscore.Internal_Hbond>
0.0000

> <Gold.Chemscore.DEClash>
0.0072

> <Gold.Chemscore.DEInternal>
3.3115

> <Gold.Chemscore.Rot>
1.9920

> <Gold.Chemscore.Internal.Correction>
   9.000000E+99

> <Gold.Chemscore.Hbonds>
donor molecule, donor type, donor heavy atom, donor atom, acceptor molecule, acceptor atom, score
      L1  H     9    28       P1  8028  0.99

> <Gold.Chemscore.Hbond.Weighted>
-3.2983

> <Gold.Chemscore.Metal.Weighted>
-0.0000

> <Gold.Chemscore.Lipo.Weighted>
-11.6784

> <Gold.Chemscore.Internal_Hbond.Weighted>
0.0000

> <Gold.Chemscore.DEClash.Weighted>
0.0072

> <Gold.Chemscore.DEInternal.Weighted>
3.3115

> <Gold.Chemscore.Rot.Weighted>
5.0996

> <Gold.Chemscore.Internal.Correction.Weighted>
   9.000000E+99

> <Gold.Protein.RotatedTorsions>
[ 6907 6896 6895 6894 ] final   58.35 input  -60.11 | X-H torsion
[ 7974 7965 7964 7962 ] final -163.50 input  175.53 | X-H torsion
[ 8008 7997 7996 7995 ] final  -33.74 input   59.86 | X-H torsion
[ 10167 10162 10161 10158 ] final  -37.07 input  -65.29 | X-H torsion
[ 10718 10713 10712 10709 ] final   65.21 input   66.30 | X-H torsion
[ 10763 10752 10751 10750 ] final  -90.37 input  -60.55 | X-H torsion
[ 11005 11000 10999 10996 ] final  132.85 input  -57.11 | X-H torsion

> <Gold.Protein.ActiveResidues>
 VAL166  LYS551  ARG553  GLY616  TRP617  ASP618  TYR619  PRO620  LYS621  CYS622 
 ASP623  PHE694  ASN695  SER759  ASP760  ASP761  ALA762  ILE779  LEU786  VAL792 
 PHE793  MET794  SER795  GLU796  ALA797  LYS798  CYS799  TRP800  GLU811  SER814 

> <Gold.Protein.RotatedAtoms>
  152.3816  134.6582  160.0140 H   0  0  0  0  0  0  0  0  0  0  0  0  # atno 6907 bound_to 6896
  151.6843  133.3306  159.3235 H   0  0  0  0  0  0  0  0  0  0  0  0  # atno 6908 bound_to 6896
  150.7752  134.6689  159.6425 H   0  0  0  0  0  0  0  0  0  0  0  0  # atno 6909 bound_to 6896
  144.7324  140.3098  143.6190 H   0  0  0  0  0  0  0  0  0  0  0  0  # atno 7974 bound_to 7965
  154.4140  140.1702  156.1937 H   0  0  0  0  0  0  0  0  0  0  0  0  # atno 8008 bound_to 7997
  155.9582  140.3395  155.6443 H   0  0  0  0  0  0  0  0  0  0  0  0  # atno 8009 bound_to 7997
  155.6783  140.0719  157.2485 H   0  0  0  0  0  0  0  0  0  0  0  0  # atno 8010 bound_to 7997
  140.7127  143.3366  151.2449 H   0  0  0  0  0  0  0  0  0  0  0  0  # atno 10167 bound_to 10162
  157.6090  130.9202  149.9946 H   0  0  0  0  0  0  0  0  0  0  0  0  # atno 10718 bound_to 10713
  154.6651  135.5307  153.8066 H   0  0  0  0  0  0  0  0  0  0  0  0  # atno 10763 bound_to 10752
  153.0466  135.6515  154.0812 H   0  0  0  0  0  0  0  0  0  0  0  0  # atno 10764 bound_to 10752
  154.0717  135.2954  155.3287 H   0  0  0  0  0  0  0  0  0  0  0  0  # atno 10765 bound_to 10752
  139.9815  134.9546  156.9641 H   0  0  0  0  0  0  0  0  0  0  0  0  # atno 11005 bound_to 11000
  145.7676  139.1846  143.2231 LP  0  0  0  0  0  0  0  0  0  0  0  0  # atno 17320 bound_to 7965
  146.0936  140.7626  142.9583 LP  0  0  0  0  0  0  0  0  0  0  0  0  # atno 17321 bound_to 7965
  139.6863  143.9768  152.2836 LP  0  0  0  0  0  0  0  0  0  0  0  0  # atno 17342 bound_to 10162
  139.9415  144.6679  150.8262 LP  0  0  0  0  0  0  0  0  0  0  0  0  # atno 17343 bound_to 10162
  156.1187  130.3647  149.9925 LP  0  0  0  0  0  0  0  0  0  0  0  0  # atno 17370 bound_to 10713
  156.8009  130.9290  151.3646 LP  0  0  0  0  0  0  0  0  0  0  0  0  # atno 17371 bound_to 10713
  140.5087  134.1024  155.7265 LP  0  0  0  0  0  0  0  0  0  0  0  0  # atno 17394 bound_to 11000
  141.1486  133.9009  157.2153 LP  0  0  0  0  0  0  0  0  0  0  0  0  # atno 17395 bound_to 11000

$$$$
