AV-unprocessed.smi:3149|AV-procd|sdf|12005|dock10
  -GOLD-   2272017413D 1   1.00000     0.00000
 Structure written by MMmdl.
 37 38  0  0  0  0  0  0  0  0  1 V2000
  152.2551  139.6260  155.6358 C   0  0  0  0  0  0  0  0  0  0  0  0
  150.8618  140.2906  155.5856 C   0  0  2  0  0  0  0  0  0  0  0  0
  150.2750  140.2928  156.9236 N   0  0  0  0  0  0  0  0  0  0  0  0
  151.2284  140.6552  157.9813 C   0  0  0  0  0  0  0  0  0  0  0  0
  151.2609  142.1684  158.2197 C   0  0  0  0  0  0  0  0  0  0  0  0
  150.4294  142.8972  157.6793 O   0  0  0  0  0  0  0  0  0  0  0  0
  152.1956  142.6682  159.1318 N   0  0  0  0  0  0  0  0  0  0  0  0
  151.9633  143.9145  159.8449 C   0  0  0  0  0  0  0  0  0  0  0  0
  152.8315  143.3111  160.9543 C   0  0  0  0  0  0  0  0  0  0  0  0
  152.5666  141.9359  160.3332 C   0  0  0  0  0  0  0  0  0  0  0  0
  149.8771  139.5679  154.6256 C   0  0  1  0  0  0  0  0  0  0  0  0
  149.3908  138.2144  155.1810 C   0  0  0  0  0  0  0  0  0  0  0  0
  148.7328  140.4034  154.2812 N   0  0  0  0  0  0  0  0  0  0  0  0
  148.4860  141.7081  154.6559 C   0  0  0  0  0  0  0  0  0  0  0  0
  147.2935  142.0749  154.1014 C   0  0  0  0  0  0  0  0  0  0  0  0
  146.8798  140.9141  153.3909 C   0  0  0  0  0  0  0  0  0  0  0  0
  147.7420  139.9166  153.4990 N   0  0  0  0  0  0  0  0  0  0  0  0
  152.7375  139.6292  154.6584 H   0  0  0  0  0  0  0  0  0  0  0  0
  152.1879  138.5891  155.9662 H   0  0  0  0  0  0  0  0  0  0  0  0
  152.9329  140.1471  156.3107 H   0  0  0  0  0  0  0  0  0  0  0  0
  150.9760  141.3191  155.2394 H   0  0  0  0  0  0  0  0  0  0  0  0
  149.8263  139.4067  157.1066 H   0  0  0  0  0  0  0  0  0  0  0  0
  150.9570  140.1592  158.9129 H   0  0  0  0  0  0  0  0  0  0  0  0
  152.2310  140.3146  157.7216 H   0  0  0  0  0  0  0  0  0  0  0  0
  152.3898  144.7916  159.3577 H   0  0  0  0  0  0  0  0  0  0  0  0
  150.9232  144.0600  160.1439 H   0  0  0  0  0  0  0  0  0  0  0  0
  153.8781  143.6161  160.8995 H   0  0  0  0  0  0  0  0  0  0  0  0
  152.4250  143.4346  161.9586 H   0  0  0  0  0  0  0  0  0  0  0  0
  151.7328  141.4102  160.8028 H   0  0  0  0  0  0  0  0  0  0  0  0
  153.4516  141.3096  160.2193 H   0  0  0  0  0  0  0  0  0  0  0  0
  150.4036  139.3679  153.6905 H   0  0  0  0  0  0  0  0  0  0  0  0
  150.2170  137.5154  155.3099 H   0  0  0  0  0  0  0  0  0  0  0  0
  148.6770  137.7466  154.5024 H   0  0  0  0  0  0  0  0  0  0  0  0
  148.9022  138.3302  156.1490 H   0  0  0  0  0  0  0  0  0  0  0  0
  149.1713  142.2607  155.2818 H   0  0  0  0  0  0  0  0  0  0  0  0
  146.7928  143.0278  154.1890 H   0  0  0  0  0  0  0  0  0  0  0  0
  145.9852  140.7678  152.8040 H   0  0  0  0  0  0  0  0  0  0  0  0
  1  2  1  0  0  0  0
  1 18  1  0  0  0  0
  1 19  1  0  0  0  0
  1 20  1  0  0  0  0
  2  3  1  0  0  0  0
  2 11  1  0  0  0  0
  2 21  1  0  0  0  0
  3  4  1  0  0  0  0
  3 22  1  0  0  0  0
  4  5  1  0  0  0  0
  4 23  1  0  0  0  0
  4 24  1  0  0  0  0
  5  6  2  0  0  0  0
  5  7  1  0  0  0  0
  7 10  1  0  0  0  0
  7  8  1  0  0  0  0
  8  9  1  0  0  0  0
  8 25  1  0  0  0  0
  8 26  1  0  0  0  0
  9 10  1  0  0  0  0
  9 27  1  0  0  0  0
  9 28  1  0  0  0  0
 10 29  1  0  0  0  0
 10 30  1  0  0  0  0
 11 12  1  0  0  0  0
 11 13  1  0  0  0  0
 11 31  1  0  0  0  0
 12 32  1  0  0  0  0
 12 33  1  0  0  0  0
 12 34  1  0  0  0  0
 13 17  1  0  0  0  0
 13 14  1  0  0  0  0
 14 15  2  0  0  0  0
 14 35  1  0  0  0  0
 15 16  1  0  0  0  0
 15 36  1  0  0  0  0
 16 17  2  0  0  0  0
 16 37  1  0  0  0  0
M  END
> <s_m_source_file>
AV-unprocessed.smi

> <i_m_source_file_index>
3149

> <i_lp_mmshare_version>
43012

> <i_f3d_flags>
0

> <s_epik_input>
bjFbY0hdW2NIXVtjSF1uMVtDQEBIXShbQ0gzXSlbQ0BIXShbQ0gzXSlbTkhdW0NIMl1DKD1PKU4yW0NIMl1bQ0gyXVtDSDJdMg==

> <s_epik_cmdline>
J2VwaWtfcHl0aG9uJywgJy1waCcsICc3LjAnLCAnLXRuJywgJzgnLCAnLW1hJywgJzIwMCcsICctbWV0YWxfYmluZGluZycsICctaW1hZScsICc8aW5maWxlLm1hZT4nLCAnLW9tYWUnLCAnPG91dGZpbGUubWFlPic=

> <r_lp_tautomer_probability>
1

> <r_epik_Ionization_Penalty>
0.918674

> <r_epik_Ionization_Penalty_Charging>
0

> <r_epik_Ionization_Penalty_Neutral>
0.918674

> <r_epik_State_Penalty>
0.958258

> <r_epik_Charging_Adjusted_Penalty>
0.958258

> <i_epik_Tot_Q>
0

> <i_epik_Tot_abs_Q>
0

> <r_epik_Metal_State_Penalty>
0.956881

> <b_epik_Metal_Only>
0

> <s_lp_Force_Field>
OPLS_2005

> <r_lp_Energy>
23.4504

> <b_lp_Chiralities_Consistent>
1

> <s_lp_Variant>
AV-unprocessed.smi:3149-7

> <Gold.Version>
5.8.1

> <Gold.Id.Protein>
6NUR|6NUR_protein|mol2

> <Gold.PLP.Fitness>
41.7285

> <Gold.PLP.PLP>
-37.4394

> <Gold.PLP.part.hbond>
0.0000

> <Gold.PLP.part.metal>
0.0000

> <Gold.PLP.part.buried>
-3.9662

> <Gold.PLP.part.nonpolar>
-35.1604

> <Gold.PLP.part.repulsive>
1.3888

> <Gold.PLP.ligand.clash>
0.0000

> <Gold.PLP.ligand.torsion>
1.0352

> <Gold.PLP.Chemscore.Hbond>
0.0000

> <Gold.PLP.Chemscore.CHOScore>
1.8226

> <Gold.PLP.Chemscore.Metal>
0.0000

> <Gold.Chemscore.Hbonds>
donor molecule, donor type, donor heavy atom, donor atom, acceptor molecule, acceptor atom, score
      L1  C    14    35       P1  8028  0.81
      L1  C    16    37       P1 10175  1.00

> <Gold.PLP.Chemscore.Internal.Correction>
0.8919

> <Gold.Rescore>
     Score         DG    S(hbond)    S(metal)    S(lipo)     H(rot)  DE(clash)    DE(int)     intcor
      9.65     -10.93       0.00        0.00      85.71       1.79       0.21       1.07       ----

> <Gold.Chemscore.Fitness>
9.6466

> <Gold.Chemscore.DG>
-10.9319

> <Gold.Chemscore.ZeroCoef>
-5.4800

> <Gold.Chemscore.Hbond>
0.0000

> <Gold.Chemscore.Metal>
0.0000

> <Gold.Chemscore.Lipo>
85.7073

> <Gold.Chemscore.Internal_Hbond>
0.0000

> <Gold.Chemscore.DEClash>
0.2145

> <Gold.Chemscore.DEInternal>
1.0708

> <Gold.Chemscore.Rot>
1.7874

> <Gold.Chemscore.Internal.Correction>
   9.000000E+99

> <Gold.Chemscore.Hbond.Weighted>
-0.0000

> <Gold.Chemscore.Metal.Weighted>
-0.0000

> <Gold.Chemscore.Lipo.Weighted>
-10.0278

> <Gold.Chemscore.Internal_Hbond.Weighted>
0.0000

> <Gold.Chemscore.DEClash.Weighted>
0.2145

> <Gold.Chemscore.DEInternal.Weighted>
1.0708

> <Gold.Chemscore.Rot.Weighted>
4.5758

> <Gold.Chemscore.Internal.Correction.Weighted>
   9.000000E+99

> <Gold.Protein.RotatedTorsions>
[ 6907 6896 6895 6894 ] final   35.69 input  -60.11 | X-H torsion
[ 7974 7965 7964 7962 ] final -123.80 input  175.53 | X-H torsion
[ 8008 7997 7996 7995 ] final  -15.03 input   59.86 | X-H torsion
[ 10167 10162 10161 10158 ] final -148.26 input  -65.29 | X-H torsion
[ 10718 10713 10712 10709 ] final -112.69 input   66.30 | X-H torsion
[ 10763 10752 10751 10750 ] final -156.54 input  -60.55 | X-H torsion
[ 11005 11000 10999 10996 ] final -165.66 input  -57.11 | X-H torsion

> <Gold.Protein.ActiveResidues>
 VAL166  LYS551  ARG553  GLY616  TRP617  ASP618  TYR619  PRO620  LYS621  CYS622 
 ASP623  PHE694  ASN695  SER759  ASP760  ASP761  ALA762  ILE779  LEU786  VAL792 
 PHE793  MET794  SER795  GLU796  ALA797  LYS798  CYS799  TRP800  GLU811  SER814 

> <Gold.Protein.RotatedAtoms>
  152.1196  134.9215  160.0563 H   0  0  0  0  0  0  0  0  0  0  0  0  # atno 6907 bound_to 6896
  152.0361  133.3952  159.4325 H   0  0  0  0  0  0  0  0  0  0  0  0  # atno 6908 bound_to 6896
  150.6848  134.3388  159.4902 H   0  0  0  0  0  0  0  0  0  0  0  0  # atno 6909 bound_to 6896
  145.0149  140.7938  143.4416 H   0  0  0  0  0  0  0  0  0  0  0  0  # atno 7974 bound_to 7965
  154.5162  140.2207  155.9061 H   0  0  0  0  0  0  0  0  0  0  0  0  # atno 8008 bound_to 7997
  156.1610  140.3142  155.8773 H   0  0  0  0  0  0  0  0  0  0  0  0  # atno 8009 bound_to 7997
  155.3751  140.0469  157.3035 H   0  0  0  0  0  0  0  0  0  0  0  0  # atno 8010 bound_to 7997
  139.7548  143.8465  152.2594 H   0  0  0  0  0  0  0  0  0  0  0  0  # atno 10167 bound_to 10162
  156.0721  130.5933  150.8542 H   0  0  0  0  0  0  0  0  0  0  0  0  # atno 10718 bound_to 10713
  154.7705  135.3143  154.8200 H   0  0  0  0  0  0  0  0  0  0  0  0  # atno 10763 bound_to 10752
  153.8937  135.6823  153.4763 H   0  0  0  0  0  0  0  0  0  0  0  0  # atno 10764 bound_to 10752
  153.1317  135.4777  154.9294 H   0  0  0  0  0  0  0  0  0  0  0  0  # atno 10765 bound_to 10752
  140.5732  134.5216  157.5165 H   0  0  0  0  0  0  0  0  0  0  0  0  # atno 11005 bound_to 11000
  145.1973  139.2270  143.5211 LP  0  0  0  0  0  0  0  0  0  0  0  0  # atno 17320 bound_to 7965
  146.3476  140.1783  142.8589 LP  0  0  0  0  0  0  0  0  0  0  0  0  # atno 17321 bound_to 7965
  139.8454  144.7190  150.9280 LP  0  0  0  0  0  0  0  0  0  0  0  0  # atno 17342 bound_to 10162
  140.7801  143.3946  151.1251 LP  0  0  0  0  0  0  0  0  0  0  0  0  # atno 17343 bound_to 10162
  157.5797  131.0946  150.9291 LP  0  0  0  0  0  0  0  0  0  0  0  0  # atno 17370 bound_to 10713
  156.9489  130.5412  149.5282 LP  0  0  0  0  0  0  0  0  0  0  0  0  # atno 17371 bound_to 10713
  139.9352  134.7889  156.0823 LP  0  0  0  0  0  0  0  0  0  0  0  0  # atno 17394 bound_to 11000
  141.1043  133.6666  156.2827 LP  0  0  0  0  0  0  0  0  0  0  0  0  # atno 17395 bound_to 11000

$$$$
