AV-unprocessed.smi:2789|AV-procd|sdf|10764|dock4
  -GOLD-   2272015193D 1   1.00000     0.00000
 Structure written by MMmdl.
 35 36  0  0  0  0  0  0  0  0  1 V2000
  146.4083  133.4003  150.6752 C   0  0  0  0  0  0  0  0  0  0  0  0
  146.4344  134.5646  151.4847 O   0  0  0  0  0  0  0  0  0  0  0  0
  145.4275  134.5852  152.4931 C   0  0  2  0  0  0  0  0  0  0  0  0
  144.0820  134.4763  151.7719 C   0  0  0  0  0  0  0  0  0  0  0  0
  143.7499  135.9101  151.3716 C   0  0  0  0  0  0  0  0  0  0  0  0
  144.2376  136.7540  152.5496 C   0  0  0  0  0  0  0  0  0  0  0  0
  145.3754  135.9547  153.2147 C   0  0  2  0  0  0  0  0  0  0  0  0
  146.6367  136.6893  153.1371 N   0  0  0  0  0  0  0  0  0  0  0  0
  146.9312  137.7951  153.8346 C   0  0  0  0  0  0  0  0  0  0  0  0
  146.1489  138.3312  154.6197 O   0  0  0  0  0  0  0  0  0  0  0  0
  148.1810  138.2132  153.5700 N   0  0  0  0  0  0  0  0  0  0  0  0
  148.8416  139.2911  154.0702 C   0  0  0  0  0  0  0  0  0  0  0  0
  148.3775  140.5627  154.2718 C   0  0  0  0  0  0  0  0  0  0  0  0
  149.5197  141.2279  154.8016 C   0  0  0  0  0  0  0  0  0  0  0  0
  150.5788  140.4359  154.9102 N   0  0  0  0  0  0  0  0  0  0  0  0
  150.1649  139.2334  154.4551 N   0  0  0  0  0  0  0  0  0  0  0  0
  151.0960  138.1214  154.4390 C   0  0  0  0  0  0  0  0  0  0  0  0
  147.2270  133.4350  149.9568 H   0  0  0  0  0  0  0  0  0  0  0  0
  145.4736  133.3339  150.1170 H   0  0  0  0  0  0  0  0  0  0  0  0
  146.5221  132.4959  151.2730 H   0  0  0  0  0  0  0  0  0  0  0  0
  145.5485  133.7625  153.2010 H   0  0  0  0  0  0  0  0  0  0  0  0
  144.1091  133.7949  150.9208 H   0  0  0  0  0  0  0  0  0  0  0  0
  143.3234  134.1090  152.4644 H   0  0  0  0  0  0  0  0  0  0  0  0
  144.3062  136.1770  150.4723 H   0  0  0  0  0  0  0  0  0  0  0  0
  142.6894  136.0538  151.1625 H   0  0  0  0  0  0  0  0  0  0  0  0
  144.5414  137.7509  152.2275 H   0  0  0  0  0  0  0  0  0  0  0  0
  143.4236  136.8851  153.2638 H   0  0  0  0  0  0  0  0  0  0  0  0
  145.1016  135.7976  154.2599 H   0  0  0  0  0  0  0  0  0  0  0  0
  147.3420  136.3112  152.5223 H   0  0  0  0  0  0  0  0  0  0  0  0
  148.7095  137.6482  152.9219 H   0  0  0  0  0  0  0  0  0  0  0  0
  147.3959  140.9688  154.0793 H   0  0  0  0  0  0  0  0  0  0  0  0
  149.6120  142.2593  155.1089 H   0  0  0  0  0  0  0  0  0  0  0  0
  150.6750  137.2738  153.8984 H   0  0  0  0  0  0  0  0  0  0  0  0
  151.3159  137.8142  155.4617 H   0  0  0  0  0  0  0  0  0  0  0  0
  152.0229  138.4221  153.9497 H   0  0  0  0  0  0  0  0  0  0  0  0
  1  2  1  0  0  0  0
  1 18  1  0  0  0  0
  1 19  1  0  0  0  0
  1 20  1  0  0  0  0
  2  3  1  0  0  0  0
  3  7  1  0  0  0  0
  3  4  1  0  0  0  0
  3 21  1  0  0  0  0
  4  5  1  0  0  0  0
  4 22  1  0  0  0  0
  4 23  1  0  0  0  0
  5  6  1  0  0  0  0
  5 24  1  0  0  0  0
  5 25  1  0  0  0  0
  6  7  1  0  0  0  0
  6 26  1  0  0  0  0
  6 27  1  0  0  0  0
  7  8  1  0  0  0  0
  7 28  1  0  0  0  0
  8  9  1  0  0  0  0
  8 29  1  0  0  0  0
  9 10  2  0  0  0  0
  9 11  1  0  0  0  0
 11 12  1  0  0  0  0
 11 30  1  0  0  0  0
 12 16  1  0  0  0  0
 12 13  2  0  0  0  0
 13 14  1  0  0  0  0
 13 31  1  0  0  0  0
 14 15  2  0  0  0  0
 14 32  1  0  0  0  0
 15 16  1  0  0  0  0
 16 17  1  0  0  0  0
 17 33  1  0  0  0  0
 17 34  1  0  0  0  0
 17 35  1  0  0  0  0
M  END
> <s_m_source_file>
AV-unprocessed.smi

> <i_m_source_file_index>
2789

> <i_lp_mmshare_version>
43012

> <i_f3d_flags>
0

> <s_epik_input>
W0NIM11PW0NAQEhdMVtDSDJdW0NIMl1bQ0gyXVtDQEhdMVtOSF1DKD1PKVtOSF1jMltjSF1bY0hdbm4yW0NIM10=

> <s_epik_cmdline>
J2VwaWtfcHl0aG9uJywgJy1waCcsICc3LjAnLCAnLXRuJywgJzgnLCAnLW1hJywgJzIwMCcsICctbWV0YWxfYmluZGluZycsICctaW1hZScsICc8aW5maWxlLm1hZT4nLCAnLW9tYWUnLCAnPG91dGZpbGUubWFlPic=

> <r_lp_tautomer_probability>
1

> <r_epik_Ionization_Penalty>
4.40608e-05

> <r_epik_Ionization_Penalty_Charging>
0

> <r_epik_Ionization_Penalty_Neutral>
4.40608e-05

> <r_epik_State_Penalty>
-0

> <r_epik_Charging_Adjusted_Penalty>
0

> <i_epik_Tot_Q>
0

> <i_epik_Tot_abs_Q>
0

> <r_epik_Metal_State_Penalty>
-0

> <b_epik_Metal_Only>
0

> <s_lp_Force_Field>
OPLS_2005

> <r_lp_Energy>
23.3685

> <b_lp_Chiralities_Consistent>
1

> <s_lp_Variant>
AV-unprocessed.smi:2789-3

> <Gold.Version>
5.8.1

> <Gold.Id.Protein>
6NUR|6NUR_protein|mol2

> <Gold.PLP.Fitness>
37.7722

> <Gold.PLP.PLP>
-27.1689

> <Gold.PLP.part.hbond>
-3.0000

> <Gold.PLP.part.metal>
0.0000

> <Gold.PLP.part.buried>
-2.5011

> <Gold.PLP.part.nonpolar>
-21.5134

> <Gold.PLP.part.repulsive>
1.2444

> <Gold.PLP.ligand.clash>
0.0000

> <Gold.PLP.ligand.torsion>
0.4659

> <Gold.PLP.Chemscore.Hbond>
2.9000

> <Gold.PLP.Chemscore.CHOScore>
0.9400

> <Gold.PLP.Chemscore.Metal>
0.0000

> <Gold.Chemscore.Hbonds>
donor molecule, donor type, donor heavy atom, donor atom, acceptor molecule, acceptor atom, score
      L1  H     8    29       P1  7948  1.00
      L1  H    11    30       P1  7948  1.00
      P1  H  7989  7998       L1    15  0.90
      L1  C    14    32       P1  8028  0.78

> <Gold.PLP.Chemscore.Internal.Correction>
0.0150

> <Gold.Rescore>
     Score         DG    S(hbond)    S(metal)    S(lipo)     H(rot)  DE(clash)    DE(int)     intcor
     15.79     -16.23       2.53        0.00      47.57       1.27       0.04       0.40       ----

> <Gold.Chemscore.Fitness>
15.7911

> <Gold.Chemscore.DG>
-16.2254

> <Gold.Chemscore.ZeroCoef>
-5.4800

> <Gold.Chemscore.Hbond>
2.5251

> <Gold.Chemscore.Metal>
0.0000

> <Gold.Chemscore.Lipo>
47.5724

> <Gold.Chemscore.Internal_Hbond>
0.0000

> <Gold.Chemscore.DEClash>
0.0352

> <Gold.Chemscore.DEInternal>
0.3990

> <Gold.Chemscore.Rot>
1.2712

> <Gold.Chemscore.Internal.Correction>
   9.000000E+99

> <Gold.Chemscore.Hbonds>
donor molecule, donor type, donor heavy atom, donor atom, acceptor molecule, acceptor atom, score
      L1  H     8    29       P1  7948  0.98
      L1  H    11    30       P1  7948  0.98
      P1  H  7989  7998       L1    15  0.08

> <Gold.Chemscore.Hbond.Weighted>
-8.4338

> <Gold.Chemscore.Metal.Weighted>
-0.0000

> <Gold.Chemscore.Lipo.Weighted>
-5.5660

> <Gold.Chemscore.Internal_Hbond.Weighted>
0.0000

> <Gold.Chemscore.DEClash.Weighted>
0.0352

> <Gold.Chemscore.DEInternal.Weighted>
0.3990

> <Gold.Chemscore.Rot.Weighted>
3.2544

> <Gold.Chemscore.Internal.Correction.Weighted>
   9.000000E+99

> <Gold.Protein.RotatedTorsions>
[ 6907 6896 6895 6894 ] final   43.20 input  -60.11 | X-H torsion
[ 7974 7965 7964 7962 ] final  134.49 input  175.53 | X-H torsion
[ 8008 7997 7996 7995 ] final  -53.30 input   59.86 | X-H torsion
[ 10167 10162 10161 10158 ] final -171.06 input  -65.29 | X-H torsion
[ 10718 10713 10712 10709 ] final  177.61 input   66.30 | X-H torsion
[ 10763 10752 10751 10750 ] final  -50.62 input  -60.55 | X-H torsion
[ 11005 11000 10999 10996 ] final   54.91 input  -57.11 | X-H torsion

> <Gold.Protein.ActiveResidues>
 VAL166  LYS551  ARG553  GLY616  TRP617  ASP618  TYR619  PRO620  LYS621  CYS622 
 ASP623  PHE694  ASN695  SER759  ASP760  ASP761  ALA762  ILE779  LEU786  VAL792 
 PHE793  MET794  SER795  GLU796  ALA797  LYS798  CYS799  TRP800  GLU811  SER814 

> <Gold.Protein.RotatedAtoms>
  152.2174  134.8445  160.0489 H   0  0  0  0  0  0  0  0  0  0  0  0  # atno 6907 bound_to 6896
  151.9242  133.3588  159.3916 H   0  0  0  0  0  0  0  0  0  0  0  0  # atno 6908 bound_to 6896
  150.6991  134.4529  159.5389 H   0  0  0  0  0  0  0  0  0  0  0  0  # atno 6909 bound_to 6896
  144.9758  139.4556  143.5410 H   0  0  0  0  0  0  0  0  0  0  0  0  # atno 7974 bound_to 7965
  154.4129  140.1203  156.5131 H   0  0  0  0  0  0  0  0  0  0  0  0  # atno 8008 bound_to 7997
  155.6779  140.3496  155.4824 H   0  0  0  0  0  0  0  0  0  0  0  0  # atno 8009 bound_to 7997
  155.9577  140.1117  157.0913 H   0  0  0  0  0  0  0  0  0  0  0  0  # atno 8010 bound_to 7997
  139.5825  144.1392  152.1533 H   0  0  0  0  0  0  0  0  0  0  0  0  # atno 10167 bound_to 10162
  156.9027  130.9884  151.3033 H   0  0  0  0  0  0  0  0  0  0  0  0  # atno 10718 bound_to 10713
  154.1133  135.6546  153.4889 H   0  0  0  0  0  0  0  0  0  0  0  0  # atno 10763 bound_to 10752
  153.0249  135.5253  154.7170 H   0  0  0  0  0  0  0  0  0  0  0  0  # atno 10764 bound_to 10752
  154.6357  135.2982  155.0134 H   0  0  0  0  0  0  0  0  0  0  0  0  # atno 10765 bound_to 10752
  140.0649  134.5551  155.9111 H   0  0  0  0  0  0  0  0  0  0  0  0  # atno 11005 bound_to 11000
  146.3395  139.9000  142.8796 LP  0  0  0  0  0  0  0  0  0  0  0  0  # atno 17320 bound_to 7965
  145.2492  141.0038  143.3891 LP  0  0  0  0  0  0  0  0  0  0  0  0  # atno 17321 bound_to 7965
  140.0948  144.5589  150.7029 LP  0  0  0  0  0  0  0  0  0  0  0  0  # atno 17342 bound_to 10162
  140.7101  143.2498  151.4607 LP  0  0  0  0  0  0  0  0  0  0  0  0  # atno 17343 bound_to 10162
  157.6016  130.8516  149.8811 LP  0  0  0  0  0  0  0  0  0  0  0  0  # atno 17370 bound_to 10713
  156.0574  130.3706  150.1060 LP  0  0  0  0  0  0  0  0  0  0  0  0  # atno 17371 bound_to 10713
  141.1988  133.6603  156.5813 LP  0  0  0  0  0  0  0  0  0  0  0  0  # atno 17394 bound_to 11000
  140.3714  134.7602  157.4601 LP  0  0  0  0  0  0  0  0  0  0  0  0  # atno 17395 bound_to 11000

$$$$
