AV-unprocessed.smi:2248|AV-procd|sdf|9097|dock5
  -GOLD-   2272012293D 1   1.00000     0.00000
 Structure written by MMmdl.
 35 36  0  0  0  0  0  0  0  0  1 V2000
  146.7830  142.7866  153.5063 C   0  0  0  0  0  0  0  0  0  0  0  0
  147.6452  141.5497  153.6453 C   0  0  0  0  0  0  0  0  0  0  0  0
  148.9106  141.6145  154.2609 C   0  0  0  0  0  0  0  0  0  0  0  0
  149.6595  140.4286  154.3624 C   0  0  0  0  0  0  0  0  0  0  0  0
  149.1160  139.2353  153.8491 C   0  0  0  0  0  0  0  0  0  0  0  0
  147.8384  139.2565  153.2455 C   0  0  0  0  0  0  0  0  0  0  0  0
  147.3798  138.0023  152.7624 N   0  0  0  0  0  0  0  0  0  0  0  0
  146.1178  137.5405  152.7154 C   0  0  0  0  0  0  0  0  0  0  0  0
  145.1164  138.1614  153.0735 O   0  0  0  0  0  0  0  0  0  0  0  0
  146.0761  136.2948  152.2219 N   0  0  0  0  0  0  0  0  0  0  0  0
  144.8632  135.5010  152.0614 C   0  0  1  0  0  0  0  0  0  0  0  0
  144.5810  135.2665  150.6016 C   0  0  0  0  0  0  0  0  0  0  0  0
  144.5268  133.9740  150.2875 C   0  0  0  0  0  0  0  0  0  0  0  0
  144.7734  133.0785  151.4741 C   0  0  1  0  0  0  0  0  0  0  0  0
  145.9243  132.0793  151.2498 C   0  0  0  0  0  0  0  0  0  0  0  0
  147.1379  132.7370  150.9421 O   0  0  0  0  0  0  0  0  0  0  0  0
  145.0050  134.0691  152.6440 C   0  0  0  0  0  0  0  0  0  0  0  0
  147.1238  140.4056  153.1528 N   0  0  0  0  0  0  0  0  0  0  0  0
  144.0100  136.0197  152.5017 H   0  0  0  0  0  0  0  0  0  0  0  0
  143.8553  132.5188  151.6561 H   0  0  0  0  0  0  0  0  0  0  0  0
  147.3593  143.6921  153.6987 H   0  0  0  0  0  0  0  0  0  0  0  0
  145.9559  142.7501  154.2155 H   0  0  0  0  0  0  0  0  0  0  0  0
  146.3703  142.8557  152.4993 H   0  0  0  0  0  0  0  0  0  0  0  0
  149.2987  142.5462  154.6460 H   0  0  0  0  0  0  0  0  0  0  0  0
  150.6344  140.4331  154.8272 H   0  0  0  0  0  0  0  0  0  0  0  0
  149.6782  138.3154  153.9200 H   0  0  0  0  0  0  0  0  0  0  0  0
  148.0973  137.3802  152.4210 H   0  0  0  0  0  0  0  0  0  0  0  0
  146.9450  135.8562  151.9544 H   0  0  0  0  0  0  0  0  0  0  0  0
  144.4320  136.0803  149.9071 H   0  0  0  0  0  0  0  0  0  0  0  0
  144.3303  133.5813  149.3008 H   0  0  0  0  0  0  0  0  0  0  0  0
  146.0710  131.4668  152.1400 H   0  0  0  0  0  0  0  0  0  0  0  0
  145.6799  131.3998  150.4330 H   0  0  0  0  0  0  0  0  0  0  0  0
  147.8496  132.1285  151.0690 H   0  0  0  0  0  0  0  0  0  0  0  0
  145.9817  133.9167  153.1056 H   0  0  0  0  0  0  0  0  0  0  0  0
  144.2664  133.9074  153.4299 H   0  0  0  0  0  0  0  0  0  0  0  0
  1  2  1  0  0  0  0
  1 21  1  0  0  0  0
  1 22  1  0  0  0  0
  1 23  1  0  0  0  0
  2 18  1  0  0  0  0
  2  3  2  0  0  0  0
  3  4  1  0  0  0  0
  3 24  1  0  0  0  0
  4  5  2  0  0  0  0
  4 25  1  0  0  0  0
  5  6  1  0  0  0  0
  5 26  1  0  0  0  0
  6  7  1  0  0  0  0
  6 18  2  0  0  0  0
  7  8  1  0  0  0  0
  7 27  1  0  0  0  0
  8  9  2  0  0  0  0
  8 10  1  0  0  0  0
 10 11  1  0  0  0  0
 10 28  1  0  0  0  0
 11 19  1  0  0  0  0
 11 17  1  0  0  0  0
 11 12  1  0  0  0  0
 12 13  2  0  0  0  0
 12 29  1  0  0  0  0
 13 14  1  0  0  0  0
 13 30  1  0  0  0  0
 14 20  1  0  0  0  0
 14 15  1  0  0  0  0
 14 17  1  0  0  0  0
 15 16  1  0  0  0  0
 15 31  1  0  0  0  0
 15 32  1  0  0  0  0
 16 33  1  0  0  0  0
 17 34  1  0  0  0  0
 17 35  1  0  0  0  0
M  END
> <s_m_source_file>
AV-unprocessed.smi

> <i_m_source_file_index>
2248

> <i_lp_mmshare_version>
43012

> <i_f3d_flags>
0

> <s_epik_input>
W0NIM11jMVtjSF1bY0hdW2NIXWMobjEpW05IXUMoPU8pW05IXVtDQEBIXTJbQ0hdPVtDSF1bQ0BASF0oW0NIMl0yKVtDSDJdW09IXQ==

> <s_epik_cmdline>
J2VwaWtfcHl0aG9uJywgJy1waCcsICc3LjAnLCAnLXRuJywgJzgnLCAnLW1hJywgJzIwMCcsICctbWV0YWxfYmluZGluZycsICctaW1hZScsICc8aW5maWxlLm1hZT4nLCAnLW9tYWUnLCAnPG91dGZpbGUubWFlPic=

> <r_lp_tautomer_probability>
1

> <r_epik_Ionization_Penalty>
8.36606e-05

> <r_epik_Ionization_Penalty_Charging>
0

> <r_epik_Ionization_Penalty_Neutral>
8.36606e-05

> <r_epik_State_Penalty>
-0

> <r_epik_Charging_Adjusted_Penalty>
0

> <i_epik_Tot_Q>
0

> <i_epik_Tot_abs_Q>
0

> <r_epik_Metal_State_Penalty>
-0

> <b_epik_Metal_Only>
0

> <s_lp_Force_Field>
OPLS_2005

> <r_lp_Energy>
18.8307

> <b_lp_Chiralities_Consistent>
1

> <s_lp_Variant>
AV-unprocessed.smi:2248-4

> <Gold.Version>
5.8.1

> <Gold.Id.Protein>
6NUR|6NUR_protein|mol2

> <Gold.PLP.Fitness>
40.6585

> <Gold.PLP.PLP>
-32.7211

> <Gold.PLP.part.hbond>
-3.0000

> <Gold.PLP.part.metal>
0.0000

> <Gold.PLP.part.buried>
-2.8298

> <Gold.PLP.part.nonpolar>
-27.5760

> <Gold.PLP.part.repulsive>
1.6144

> <Gold.PLP.ligand.clash>
0.0000

> <Gold.PLP.ligand.torsion>
0.2979

> <Gold.PLP.Chemscore.Hbond>
2.8406

> <Gold.PLP.Chemscore.CHOScore>
0.0000

> <Gold.PLP.Chemscore.Metal>
0.0000

> <Gold.Chemscore.Hbonds>
donor molecule, donor type, donor heavy atom, donor atom, acceptor molecule, acceptor atom, score
      L1  H     7    27       P1  7948  0.98
      L1  H    10    28       P1  7948  0.85
      L1  H    16    33       P1 10747  0.93

> <Gold.PLP.Chemscore.Internal.Correction>
0.0114

> <Gold.Rescore>
     Score         DG    S(hbond)    S(metal)    S(lipo)     H(rot)  DE(clash)    DE(int)     intcor
     16.65     -18.56       2.87        0.00      69.54       1.82       0.67       1.24       ----

> <Gold.Chemscore.Fitness>
16.6461

> <Gold.Chemscore.DG>
-18.5556

> <Gold.Chemscore.ZeroCoef>
-5.4800

> <Gold.Chemscore.Hbond>
2.8725

> <Gold.Chemscore.Metal>
0.0000

> <Gold.Chemscore.Lipo>
69.5435

> <Gold.Chemscore.Internal_Hbond>
0.0000

> <Gold.Chemscore.DEClash>
0.6695

> <Gold.Chemscore.DEInternal>
1.2400

> <Gold.Chemscore.Rot>
1.8184

> <Gold.Chemscore.Internal.Correction>
   9.000000E+99

> <Gold.Chemscore.Hbonds>
donor molecule, donor type, donor heavy atom, donor atom, acceptor molecule, acceptor atom, score
      L1  H     7    27       P1  7948  0.92
      L1  H    10    28       P1  7948  0.79
      L1  H    16    33       P1 10747  0.90

> <Gold.Chemscore.Hbond.Weighted>
-9.5941

> <Gold.Chemscore.Metal.Weighted>
-0.0000

> <Gold.Chemscore.Lipo.Weighted>
-8.1366

> <Gold.Chemscore.Internal_Hbond.Weighted>
0.0000

> <Gold.Chemscore.DEClash.Weighted>
0.6695

> <Gold.Chemscore.DEInternal.Weighted>
1.2400

> <Gold.Chemscore.Rot.Weighted>
4.6551

> <Gold.Chemscore.Internal.Correction.Weighted>
   9.000000E+99

> <Gold.Protein.RotatedTorsions>
[ 6907 6896 6895 6894 ] final  124.50 input  -60.11 | X-H torsion
[ 7974 7965 7964 7962 ] final  112.05 input  175.53 | X-H torsion
[ 8008 7997 7996 7995 ] final  159.84 input   59.86 | X-H torsion
[ 10167 10162 10161 10158 ] final -106.33 input  -65.29 | X-H torsion
[ 10718 10713 10712 10709 ] final   30.34 input   66.30 | X-H torsion
[ 10763 10752 10751 10750 ] final  170.50 input  -60.55 | X-H torsion
[ 11005 11000 10999 10996 ] final  146.78 input  -57.11 | X-H torsion

> <Gold.Protein.ActiveResidues>
 VAL166  LYS551  ARG553  GLY616  TRP617  ASP618  TYR619  PRO620  LYS621  CYS622 
 ASP623  PHE694  ASN695  SER759  ASP760  ASP761  ALA762  ILE779  LEU786  VAL792 
 PHE793  MET794  SER795  GLU796  ALA797  LYS798  CYS799  TRP800  GLU811  SER814 

> <Gold.Protein.RotatedAtoms>
  152.4073  133.6908  159.6366 H   0  0  0  0  0  0  0  0  0  0  0  0  # atno 6907 bound_to 6896
  150.7956  133.8687  159.3261 H   0  0  0  0  0  0  0  0  0  0  0  0  # atno 6908 bound_to 6896
  151.6438  135.1011  160.0198 H   0  0  0  0  0  0  0  0  0  0  0  0  # atno 6909 bound_to 6896
  145.2344  139.2805  143.4151 H   0  0  0  0  0  0  0  0  0  0  0  0  # atno 7974 bound_to 7965
  156.2212  140.1820  156.7472 H   0  0  0  0  0  0  0  0  0  0  0  0  # atno 8008 bound_to 7997
  154.5869  140.0657  156.9212 H   0  0  0  0  0  0  0  0  0  0  0  0  # atno 8009 bound_to 7997
  155.2405  140.3321  155.4295 H   0  0  0  0  0  0  0  0  0  0  0  0  # atno 8010 bound_to 7997
  140.1890  143.3907  152.1222 H   0  0  0  0  0  0  0  0  0  0  0  0  # atno 10167 bound_to 10162
  157.2584  130.7149  149.6441 H   0  0  0  0  0  0  0  0  0  0  0  0  # atno 10718 bound_to 10713
  154.3985  135.2754  155.2111 H   0  0  0  0  0  0  0  0  0  0  0  0  # atno 10763 bound_to 10752
  154.4147  135.6014  153.5977 H   0  0  0  0  0  0  0  0  0  0  0  0  # atno 10764 bound_to 10752
  152.9831  135.5958  154.4250 H   0  0  0  0  0  0  0  0  0  0  0  0  # atno 10765 bound_to 10752
  140.0821  134.9091  157.1517 H   0  0  0  0  0  0  0  0  0  0  0  0  # atno 11005 bound_to 11000
  146.3345  140.2689  142.8605 LP  0  0  0  0  0  0  0  0  0  0  0  0  # atno 17320 bound_to 7965
  144.9647  140.8309  143.5492 LP  0  0  0  0  0  0  0  0  0  0  0  0  # atno 17321 bound_to 7965
  139.5264  144.7107  151.5214 LP  0  0  0  0  0  0  0  0  0  0  0  0  # atno 17342 bound_to 10162
  140.6469  143.8776  150.6746 LP  0  0  0  0  0  0  0  0  0  0  0  0  # atno 17343 bound_to 10162
  155.9664  130.4405  150.5303 LP  0  0  0  0  0  0  0  0  0  0  0  0  # atno 17370 bound_to 10713
  157.3203  131.0680  151.1937 LP  0  0  0  0  0  0  0  0  0  0  0  0  # atno 17371 bound_to 10713
  140.3472  134.2638  155.7203 LP  0  0  0  0  0  0  0  0  0  0  0  0  # atno 17394 bound_to 11000
  141.2050  133.7871  157.0255 LP  0  0  0  0  0  0  0  0  0  0  0  0  # atno 17395 bound_to 11000

$$$$
