AV-unprocessed.smi:3292|AV-procd|sdf|12624|dock2
  -GOLD-   2272018553D 1   1.00000     0.00000
 Structure written by MMmdl.
 39 40  0  0  0  0  0  0  0  0  2 V2000
  145.5375  134.1634  154.1337 C   0  0  0  0  0  0  0  0  0  0  0  0
  146.8222  133.5565  153.5466 C   0  0  1  0  0  0  0  0  0  0  0  0
  146.6486  133.0568  152.0958 C   0  0  0  0  0  0  0  0  0  0  0  0
  145.7268  133.8868  151.3152 N   0  0  0  0  0  0  0  0  0  0  0  0
  145.8770  135.2116  150.9952 C   0  0  0  0  0  0  0  0  0  0  0  0
  144.7732  135.5642  150.2624 C   0  0  0  0  0  0  0  0  0  0  0  0
  143.9948  134.4415  150.1695 N   0  3  0  0  0  0  0  0  0  0  0  0
  144.5748  133.4231  150.8130 C   0  0  0  0  0  0  0  0  0  0  0  0
  147.8958  134.5437  153.6129 N   0  0  0  0  0  0  0  0  0  0  0  0
  148.6008  134.8400  154.7143 C   0  0  0  0  0  0  0  0  0  0  0  0
  148.4168  134.3111  155.8109 O   0  0  0  0  0  0  0  0  0  0  0  0
  149.5363  135.7690  154.4733 N   0  0  0  0  0  0  0  0  0  0  0  0
  150.4818  136.2889  155.4561 C   0  0  0  0  0  0  0  0  0  0  0  0
  150.4294  137.8260  155.5466 C   0  0  1  0  0  0  0  0  0  0  0  0
  151.6343  138.4391  156.2295 C   0  0  0  0  0  0  0  0  0  0  0  0
  151.5460  139.8948  155.7806 C   0  0  0  0  0  0  0  0  0  0  0  0
  150.9471  139.8681  154.4882 O   0  0  0  0  0  0  0  0  0  0  0  0
  150.4552  138.5620  154.2051 C   0  0  0  0  0  0  0  0  0  0  0  0
  144.7352  133.4273  154.1865 H   0  0  0  0  0  0  0  0  0  0  0  0
  145.1831  135.0008  153.5318 H   0  0  0  0  0  0  0  0  0  0  0  0
  145.7052  134.5296  155.1470 H   0  0  0  0  0  0  0  0  0  0  0  0
  147.0972  132.7081  154.1766 H   0  0  0  0  0  0  0  0  0  0  0  0
  147.6100  133.0284  151.5800 H   0  0  0  0  0  0  0  0  0  0  0  0
  146.2539  132.0398  152.0817 H   0  0  0  0  0  0  0  0  0  0  0  0
  146.7370  135.7883  151.3045 H   0  0  0  0  0  0  0  0  0  0  0  0
  144.4903  136.5051  149.8134 H   0  0  0  0  0  0  0  0  0  0  0  0
  144.1896  132.4230  150.9048 H   0  0  0  0  0  0  0  0  0  0  0  0
  148.1207  135.0322  152.7583 H   0  0  0  0  0  0  0  0  0  0  0  0
  149.6065  136.1410  153.5372 H   0  0  0  0  0  0  0  0  0  0  0  0
  150.2195  135.8600  156.4235 H   0  0  0  0  0  0  0  0  0  0  0  0
  151.4959  135.9490  155.2379 H   0  0  0  0  0  0  0  0  0  0  0  0
  149.5343  138.1264  156.0942 H   0  0  0  0  0  0  0  0  0  0  0  0
  151.6155  138.3284  157.3141 H   0  0  0  0  0  0  0  0  0  0  0  0
  152.5550  137.9886  155.8557 H   0  0  0  0  0  0  0  0  0  0  0  0
  150.8971  140.4605  156.4502 H   0  0  0  0  0  0  0  0  0  0  0  0
  152.5200  140.3840  155.7595 H   0  0  0  0  0  0  0  0  0  0  0  0
  151.1465  138.0795  153.5128 H   0  0  0  0  0  0  0  0  0  0  0  0
  149.4745  138.6023  153.7306 H   0  0  0  0  0  0  0  0  0  0  0  0
  143.1073  134.3874  149.6854 H   0  0  0  0  0  0  0  0  0  0  0  0
  1  2  1  0  0  0  0
  1 19  1  0  0  0  0
  1 20  1  0  0  0  0
  1 21  1  0  0  0  0
  2  3  1  0  0  0  0
  2  9  1  0  0  0  0
  2 22  1  0  0  0  0
  3  4  1  0  0  0  0
  3 23  1  0  0  0  0
  3 24  1  0  0  0  0
  4  8  1  0  0  0  0
  4  5  1  0  0  0  0
  5  6  2  0  0  0  0
  5 25  1  0  0  0  0
  6  7  1  0  0  0  0
  6 26  1  0  0  0  0
  7  8  2  0  0  0  0
  7 39  1  0  0  0  0
  8 27  1  0  0  0  0
  9 10  1  0  0  0  0
  9 28  1  0  0  0  0
 10 11  2  0  0  0  0
 10 12  1  0  0  0  0
 12 13  1  0  0  0  0
 12 29  1  0  0  0  0
 13 14  1  0  0  0  0
 13 30  1  0  0  0  0
 13 31  1  0  0  0  0
 14 18  1  0  0  0  0
 14 15  1  0  0  0  0
 14 32  1  0  0  0  0
 15 16  1  0  0  0  0
 15 33  1  0  0  0  0
 15 34  1  0  0  0  0
 16 17  1  0  0  0  0
 16 35  1  0  0  0  0
 16 36  1  0  0  0  0
 17 18  1  0  0  0  0
 18 37  1  0  0  0  0
 18 38  1  0  0  0  0
M  CHG  1   7   1
M  END
> <s_m_source_file>
AV-unprocessed.smi

> <i_m_source_file_index>
3292

> <i_lp_mmshare_version>
43012

> <i_f3d_flags>
0

> <s_epik_input>
W2NIXTFuW2NIXVtjSF1uMVtDSDJdW0NAQEhdKFtDSDNdKVtOSF1DKD1PKVtOSF1bQ0gyXVtDQEBIXTJbQ0gyXVtDSDJdT1tDSDJdMg==

> <s_epik_cmdline>
J2VwaWtfcHl0aG9uJywgJy1waCcsICc3LjAnLCAnLXRuJywgJzgnLCAnLW1hJywgJzIwMCcsICctbWV0YWxfYmluZGluZycsICctaW1hZScsICc8aW5maWxlLm1hZT4nLCAnLW9tYWUnLCAnPG91dGZpbGUubWFlPic=

> <r_lp_tautomer_probability>
1

> <r_epik_Ionization_Penalty>
0.255703

> <r_epik_Ionization_Penalty_Charging>
0

> <r_epik_Ionization_Penalty_Neutral>
0.255703

> <r_epik_State_Penalty>
0.247169

> <r_epik_Charging_Adjusted_Penalty>
0.247169

> <i_epik_Tot_Q>
1

> <i_epik_Tot_abs_Q>
1

> <r_epik_Metal_State_Penalty>
0.536791

> <b_epik_Metal_Only>
0

> <s_lp_Force_Field>
OPLS_2005

> <r_lp_Energy>
19.2817

> <b_lp_Chiralities_Consistent>
1

> <s_lp_Variant>
AV-unprocessed.smi:3292-4

> <Gold.Version>
5.8.1

> <Gold.Id.Protein>
6NUR|6NUR_protein|mol2

> <Gold.PLP.Fitness>
46.7332

> <Gold.PLP.PLP>
-30.0363

> <Gold.PLP.part.hbond>
-4.1281

> <Gold.PLP.part.metal>
0.0000

> <Gold.PLP.part.buried>
-3.9121

> <Gold.PLP.part.nonpolar>
-21.3837

> <Gold.PLP.part.repulsive>
0.1911

> <Gold.PLP.ligand.clash>
0.0000

> <Gold.PLP.ligand.torsion>
0.7419

> <Gold.PLP.Chemscore.Hbond>
5.0000

> <Gold.PLP.Chemscore.CHOScore>
1.0000

> <Gold.PLP.Chemscore.Metal>
0.0000

> <Gold.Chemscore.Hbonds>
donor molecule, donor type, donor heavy atom, donor atom, acceptor molecule, acceptor atom, score
      L1  H     7    39       P1 10186  1.66
      L1  H     9    28       P1  7948  1.00
      L1  H    12    29       P1  7948  0.99
      P1  H  7989  7998       L1    17  1.00
      L1  C     5    25       P1  7948  1.00

> <Gold.PLP.Chemscore.Internal.Correction>
0.1806

> <Gold.Rescore>
     Score         DG    S(hbond)    S(metal)    S(lipo)     H(rot)  DE(clash)    DE(int)     intcor
     16.90     -17.52       3.62        0.00      48.67       2.24       0.00       0.62       ----

> <Gold.Chemscore.Fitness>
16.9017

> <Gold.Chemscore.DG>
-17.5238

> <Gold.Chemscore.ZeroCoef>
-5.4800

> <Gold.Chemscore.Hbond>
3.6153

> <Gold.Chemscore.Metal>
0.0000

> <Gold.Chemscore.Lipo>
48.6723

> <Gold.Chemscore.Internal_Hbond>
0.0000

> <Gold.Chemscore.DEClash>
0.0000

> <Gold.Chemscore.DEInternal>
0.6222

> <Gold.Chemscore.Rot>
2.2367

> <Gold.Chemscore.Internal.Correction>
   9.000000E+99

> <Gold.Chemscore.Hbonds>
donor molecule, donor type, donor heavy atom, donor atom, acceptor molecule, acceptor atom, score
      L1  H     7    39       P1 10186  0.79
      L1  H     9    28       P1  7948  0.88
      L1  H    12    29       P1  7948  0.33
      P1  H  7989  7998       L1    17  0.79

> <Gold.Chemscore.Hbond.Weighted>
-12.0751

> <Gold.Chemscore.Metal.Weighted>
-0.0000

> <Gold.Chemscore.Lipo.Weighted>
-5.6947

> <Gold.Chemscore.Internal_Hbond.Weighted>
0.0000

> <Gold.Chemscore.DEClash.Weighted>
0.0000

> <Gold.Chemscore.DEInternal.Weighted>
0.6222

> <Gold.Chemscore.Rot.Weighted>
5.7259

> <Gold.Chemscore.Internal.Correction.Weighted>
   9.000000E+99

> <Gold.Protein.RotatedTorsions>
[ 6907 6896 6895 6894 ] final   -0.22 input  -60.11 | X-H torsion
[ 7974 7965 7964 7962 ] final  171.56 input  175.53 | X-H torsion
[ 8008 7997 7996 7995 ] final   49.43 input   59.86 | X-H torsion
[ 10167 10162 10161 10158 ] final -109.40 input  -65.29 | X-H torsion
[ 10718 10713 10712 10709 ] final  121.22 input   66.30 | X-H torsion
[ 10763 10752 10751 10750 ] final  -39.46 input  -60.55 | X-H torsion
[ 11005 11000 10999 10996 ] final   17.44 input  -57.11 | X-H torsion

> <Gold.Protein.ActiveResidues>
 VAL166  LYS551  ARG553  GLY616  TRP617  ASP618  TYR619  PRO620  LYS621  CYS622 
 ASP623  PHE694  ASN695  SER759  ASP760  ASP761  ALA762  ILE779  LEU786  VAL792 
 PHE793  MET794  SER795  GLU796  ALA797  LYS798  CYS799  TRP800  GLU811  SER814 

> <Gold.Protein.RotatedAtoms>
  151.5658  135.1064  159.9983 H   0  0  0  0  0  0  0  0  0  0  0  0  # atno 6907 bound_to 6896
  152.4424  133.7469  159.6683 H   0  0  0  0  0  0  0  0  0  0  0  0  # atno 6908 bound_to 6896
  150.8333  133.7987  159.3113 H   0  0  0  0  0  0  0  0  0  0  0  0  # atno 6909 bound_to 6896
  144.7291  139.9368  143.6427 H   0  0  0  0  0  0  0  0  0  0  0  0  # atno 7974 bound_to 7965
  155.4021  140.3438  155.4257 H   0  0  0  0  0  0  0  0  0  0  0  0  # atno 8008 bound_to 7997
  156.1497  140.1567  156.8821 H   0  0  0  0  0  0  0  0  0  0  0  0  # atno 8009 bound_to 7997
  154.5042  140.0806  156.7841 H   0  0  0  0  0  0  0  0  0  0  0  0  # atno 8010 bound_to 7997
  140.1558  143.4161  152.1462 H   0  0  0  0  0  0  0  0  0  0  0  0  # atno 10167 bound_to 10162
  157.5833  131.1072  150.8144 H   0  0  0  0  0  0  0  0  0  0  0  0  # atno 10718 bound_to 10713
  153.9297  135.6773  153.4746 H   0  0  0  0  0  0  0  0  0  0  0  0  # atno 10763 bound_to 10752
  153.0986  135.4839  154.8821 H   0  0  0  0  0  0  0  0  0  0  0  0  # atno 10764 bound_to 10752
  154.7434  135.3166  154.8645 H   0  0  0  0  0  0  0  0  0  0  0  0  # atno 10765 bound_to 10752
  140.4359  134.1372  155.7685 H   0  0  0  0  0  0  0  0  0  0  0  0  # atno 11005 bound_to 11000
  146.0815  139.3803  143.0461 LP  0  0  0  0  0  0  0  0  0  0  0  0  # atno 17320 bound_to 7965
  145.7834  140.9846  143.1087 LP  0  0  0  0  0  0  0  0  0  0  0  0  # atno 17321 bound_to 7965
  139.5404  144.7251  151.4752 LP  0  0  0  0  0  0  0  0  0  0  0  0  # atno 17342 bound_to 10162
  140.6674  143.8368  150.6958 LP  0  0  0  0  0  0  0  0  0  0  0  0  # atno 17343 bound_to 10162
  156.8584  130.5104  149.5306 LP  0  0  0  0  0  0  0  0  0  0  0  0  # atno 17370 bound_to 10713
  156.0881  130.5874  150.9683 LP  0  0  0  0  0  0  0  0  0  0  0  0  # atno 17371 bound_to 10713
  141.1726  133.8578  157.1523 LP  0  0  0  0  0  0  0  0  0  0  0  0  # atno 17394 bound_to 11000
  140.0103  134.9991  157.0380 LP  0  0  0  0  0  0  0  0  0  0  0  0  # atno 17395 bound_to 11000

$$$$
