AV-unprocessed.smi:1873|AV-procd|sdf|7607|dock3
  -GOLD-   22720 9323D 1   1.00000     0.00000
 Structure written by MMmdl.
 36 38  0  0  0  0  0  0  0  0  1 V2000
  151.0238  135.4304  155.1122 O   0  0  0  0  0  0  0  0  0  0  0  0
  150.5397  136.7066  155.4858 C   0  0  2  0  0  0  0  0  0  0  0  0
  151.6297  137.7690  155.2456 C   0  0  0  0  0  0  0  0  0  0  0  0
  151.1072  139.1221  155.3024 N   0  0  0  0  0  0  0  0  0  0  0  0
  150.2710  139.7106  154.4256 C   0  0  0  0  0  0  0  0  0  0  0  0
  149.9156  140.9684  154.6732 N   0  0  0  0  0  0  0  0  0  0  0  0
  150.6014  141.2266  155.8478 C   0  0  0  0  0  0  0  0  0  0  0  0
  150.6521  142.3934  156.6438 C   0  0  0  0  0  0  0  0  0  0  0  0
  151.4323  142.4237  157.8186 C   0  0  0  0  0  0  0  0  0  0  0  0
  152.1729  141.2909  158.2150 C   0  0  0  0  0  0  0  0  0  0  0  0
  152.1385  140.1170  157.4381 C   0  0  0  0  0  0  0  0  0  0  0  0
  151.3583  140.0911  156.2670 C   0  0  0  0  0  0  0  0  0  0  0  0
  150.0440  136.7401  156.9230 C   0  0  0  0  0  0  0  0  0  0  0  0
  150.7118  137.5095  157.8998 C   0  0  0  0  0  0  0  0  0  0  0  0
  150.2359  137.5423  159.2245 C   0  0  0  0  0  0  0  0  0  0  0  0
  149.0925  136.8067  159.5955 C   0  0  0  0  0  0  0  0  0  0  0  0
  148.6686  136.8940  160.9023 O   0  0  0  0  0  0  0  0  0  0  0  0
  147.5176  136.2730  161.2743 C   0  0  0  0  0  0  0  0  0  0  0  0
  147.7155  134.9336  161.3226 F   0  0  0  0  0  0  0  0  0  0  0  0
  147.1411  136.6755  162.5130 F   0  0  0  0  0  0  0  0  0  0  0  0
  148.4161  136.0467  158.6111 C   0  0  0  0  0  0  0  0  0  0  0  0
  148.8913  136.0132  157.2860 C   0  0  0  0  0  0  0  0  0  0  0  0
  150.6041  134.7804  155.6546 H   0  0  0  0  0  0  0  0  0  0  0  0
  149.6925  136.9193  154.8325 H   0  0  0  0  0  0  0  0  0  0  0  0
  152.4143  137.6797  155.9981 H   0  0  0  0  0  0  0  0  0  0  0  0
  152.1072  137.6171  154.2763 H   0  0  0  0  0  0  0  0  0  0  0  0
  149.8998  139.1847  153.5580 H   0  0  0  0  0  0  0  0  0  0  0  0
  150.0886  143.2667  156.3501 H   0  0  0  0  0  0  0  0  0  0  0  0
  151.4625  143.3211  158.4189 H   0  0  0  0  0  0  0  0  0  0  0  0
  152.7673  141.3238  159.1163 H   0  0  0  0  0  0  0  0  0  0  0  0
  152.7034  139.2469  157.7380 H   0  0  0  0  0  0  0  0  0  0  0  0
  151.5893  138.0817  157.6359 H   0  0  0  0  0  0  0  0  0  0  0  0
  150.7538  138.1369  159.9626 H   0  0  0  0  0  0  0  0  0  0  0  0
  146.7092  136.4643  160.5683 H   0  0  0  0  0  0  0  0  0  0  0  0
  147.5244  135.4897  158.8566 H   0  0  0  0  0  0  0  0  0  0  0  0
  148.3614  135.4300  156.5469 H   0  0  0  0  0  0  0  0  0  0  0  0
  1  2  1  0  0  0  0
  1 23  1  0  0  0  0
  2  3  1  0  0  0  0
  2 13  1  0  0  0  0
  2 24  1  0  0  0  0
  3  4  1  0  0  0  0
  3 25  1  0  0  0  0
  3 26  1  0  0  0  0
  4 12  1  0  0  0  0
  4  5  1  0  0  0  0
  5  6  2  0  0  0  0
  5 27  1  0  0  0  0
  6  7  1  0  0  0  0
  7 12  2  0  0  0  0
  7  8  1  0  0  0  0
  8  9  2  0  0  0  0
  8 28  1  0  0  0  0
  9 10  1  0  0  0  0
  9 29  1  0  0  0  0
 10 11  2  0  0  0  0
 10 30  1  0  0  0  0
 11 12  1  0  0  0  0
 11 31  1  0  0  0  0
 13 22  1  0  0  0  0
 13 14  2  0  0  0  0
 14 15  1  0  0  0  0
 14 32  1  0  0  0  0
 15 16  2  0  0  0  0
 15 33  1  0  0  0  0
 16 17  1  0  0  0  0
 16 21  1  0  0  0  0
 17 18  1  0  0  0  0
 18 19  1  0  0  0  0
 18 20  1  0  0  0  0
 18 34  1  0  0  0  0
 21 22  2  0  0  0  0
 21 35  1  0  0  0  0
 22 36  1  0  0  0  0
M  END
> <s_m_source_file>
AV-unprocessed.smi

> <i_m_source_file_index>
1873

> <i_lp_mmshare_version>
43012

> <i_f3d_flags>
0

> <s_epik_input>
RltDSF0oRilPYyhbY0hdW2NIXTEpW2NIXVtjSF1jMVtDQEhdKFtPSF0pW0NIMl1uKFtjSF1uMiljKGMyMylbY0hdW2NIXVtjSF1bY0hdMw==

> <s_epik_cmdline>
J2VwaWtfcHl0aG9uJywgJy1waCcsICc3LjAnLCAnLXRuJywgJzgnLCAnLW1hJywgJzIwMCcsICctbWV0YWxfYmluZGluZycsICctaW1hZScsICc8aW5maWxlLm1hZT4nLCAnLW9tYWUnLCAnPG91dGZpbGUubWFlPic=

> <r_lp_tautomer_probability>
1

> <r_epik_Ionization_Penalty>
0.0696507

> <r_epik_Ionization_Penalty_Charging>
0

> <r_epik_Ionization_Penalty_Neutral>
0.0696507

> <r_epik_State_Penalty>
0.0610247

> <r_epik_Charging_Adjusted_Penalty>
0.0610247

> <i_epik_Tot_Q>
0

> <i_epik_Tot_abs_Q>
0

> <r_epik_Metal_State_Penalty>
6.42746e-05

> <b_epik_Metal_Only>
0

> <s_lp_Force_Field>
OPLS_2005

> <r_lp_Energy>
11.1273

> <b_lp_Chiralities_Consistent>
1

> <s_lp_Variant>
AV-unprocessed.smi:1873-1

> <Gold.Version>
5.8.1

> <Gold.Id.Protein>
6NUR|6NUR_protein|mol2

> <Gold.PLP.Fitness>
47.3192

> <Gold.PLP.PLP>
-39.0857

> <Gold.PLP.part.hbond>
-3.0000

> <Gold.PLP.part.metal>
0.0000

> <Gold.PLP.part.buried>
-2.6134

> <Gold.PLP.part.nonpolar>
-32.7778

> <Gold.PLP.part.repulsive>
0.1226

> <Gold.PLP.ligand.clash>
0.0000

> <Gold.PLP.ligand.torsion>
0.3778

> <Gold.PLP.Chemscore.Hbond>
1.9920

> <Gold.PLP.Chemscore.CHOScore>
0.9771

> <Gold.PLP.Chemscore.Metal>
0.0000

> <Gold.Chemscore.Hbonds>
donor molecule, donor type, donor heavy atom, donor atom, acceptor molecule, acceptor atom, score
      P1  H  6931  6943       L1    17  0.99
      P1  H 10752 10763       L1     1  0.98
      L1  C     5    27       P1  7957  0.92

> <Gold.PLP.Chemscore.Internal.Correction>
0.0818

> <Gold.Rescore>
     Score         DG    S(hbond)    S(metal)    S(lipo)     H(rot)  DE(clash)    DE(int)     intcor
     14.38     -15.23       1.79        0.00      84.79       2.40       0.51       0.33       ----

> <Gold.Chemscore.Fitness>
14.3822

> <Gold.Chemscore.DG>
-15.2271

> <Gold.Chemscore.ZeroCoef>
-5.4800

> <Gold.Chemscore.Hbond>
1.7865

> <Gold.Chemscore.Metal>
0.0000

> <Gold.Chemscore.Lipo>
84.7927

> <Gold.Chemscore.Internal_Hbond>
0.0000

> <Gold.Chemscore.DEClash>
0.5123

> <Gold.Chemscore.DEInternal>
0.3326

> <Gold.Chemscore.Rot>
2.3986

> <Gold.Chemscore.Internal.Correction>
   9.000000E+99

> <Gold.Chemscore.Hbonds>
donor molecule, donor type, donor heavy atom, donor atom, acceptor molecule, acceptor atom, score
      P1  H  6931  6943       L1    17  0.80
      P1  H 10752 10763       L1     1  0.67

> <Gold.Chemscore.Hbond.Weighted>
-5.9668

> <Gold.Chemscore.Metal.Weighted>
-0.0000

> <Gold.Chemscore.Lipo.Weighted>
-9.9207

> <Gold.Chemscore.Internal_Hbond.Weighted>
0.0000

> <Gold.Chemscore.DEClash.Weighted>
0.5123

> <Gold.Chemscore.DEInternal.Weighted>
0.3326

> <Gold.Chemscore.Rot.Weighted>
6.1405

> <Gold.Chemscore.Internal.Correction.Weighted>
   9.000000E+99

> <Gold.Protein.RotatedTorsions>
[ 6907 6896 6895 6894 ] final  120.61 input  -60.11 | X-H torsion
[ 7974 7965 7964 7962 ] final  132.71 input  175.53 | X-H torsion
[ 8008 7997 7996 7995 ] final  101.97 input   59.86 | X-H torsion
[ 10167 10162 10161 10158 ] final   49.29 input  -65.29 | X-H torsion
[ 10718 10713 10712 10709 ] final  -37.77 input   66.30 | X-H torsion
[ 10763 10752 10751 10750 ] final   51.84 input  -60.55 | X-H torsion
[ 11005 11000 10999 10996 ] final -100.74 input  -57.11 | X-H torsion

> <Gold.Protein.ActiveResidues>
 VAL166  LYS551  ARG553  GLY616  TRP617  ASP618  TYR619  PRO620  LYS621  CYS622 
 ASP623  PHE694  ASN695  SER759  ASP760  ASP761  ALA762  ILE779  LEU786  VAL792 
 PHE793  MET794  SER795  GLU796  ALA797  LYS798  CYS799  TRP800  GLU811  SER814 

> <Gold.Protein.RotatedAtoms>
  152.4385  133.7404  159.6637 H   0  0  0  0  0  0  0  0  0  0  0  0  # atno 6907 bound_to 6896
  150.8272  133.8141  159.3120 H   0  0  0  0  0  0  0  0  0  0  0  0  # atno 6908 bound_to 6896
  151.5806  135.1061  160.0068 H   0  0  0  0  0  0  0  0  0  0  0  0  # atno 6909 bound_to 6896
  144.9940  139.4377  143.5325 H   0  0  0  0  0  0  0  0  0  0  0  0  # atno 7974 bound_to 7965
  156.1349  140.3189  155.8405 H   0  0  0  0  0  0  0  0  0  0  0  0  # atno 8008 bound_to 7997
  155.4263  140.0515  157.3039 H   0  0  0  0  0  0  0  0  0  0  0  0  # atno 8009 bound_to 7997
  154.4929  140.2099  155.9523 H   0  0  0  0  0  0  0  0  0  0  0  0  # atno 8010 bound_to 7997
  140.2844  144.3118  150.6256 H   0  0  0  0  0  0  0  0  0  0  0  0  # atno 10167 bound_to 10162
  156.3114  130.4253  149.8046 H   0  0  0  0  0  0  0  0  0  0  0  0  # atno 10718 bound_to 10713
  152.9786  135.5832  154.4480 H   0  0  0  0  0  0  0  0  0  0  0  0  # atno 10763 bound_to 10752
  154.4073  135.2769  155.2061 H   0  0  0  0  0  0  0  0  0  0  0  0  # atno 10764 bound_to 10752
  154.3866  135.6134  153.5874 H   0  0  0  0  0  0  0  0  0  0  0  0  # atno 10765 bound_to 10752
  141.1259  133.8422  157.1141 H   0  0  0  0  0  0  0  0  0  0  0  0  # atno 11005 bound_to 11000
  146.3438  139.9289  142.8756 LP  0  0  0  0  0  0  0  0  0  0  0  0  # atno 17320 bound_to 7965
  145.2245  140.9948  143.4026 LP  0  0  0  0  0  0  0  0  0  0  0  0  # atno 17321 bound_to 7965
  140.5784  143.2174  151.7472 LP  0  0  0  0  0  0  0  0  0  0  0  0  # atno 17342 bound_to 10162
  139.4954  144.4115  152.0075 LP  0  0  0  0  0  0  0  0  0  0  0  0  # atno 17343 bound_to 10162
  156.5388  130.8290  151.3262 LP  0  0  0  0  0  0  0  0  0  0  0  0  # atno 17370 bound_to 10713
  157.7392  130.9827  150.2298 LP  0  0  0  0  0  0  0  0  0  0  0  0  # atno 17371 bound_to 10713
  140.0257  134.9925  157.0681 LP  0  0  0  0  0  0  0  0  0  0  0  0  # atno 17394 bound_to 11000
  140.4367  134.1724  155.7171 LP  0  0  0  0  0  0  0  0  0  0  0  0  # atno 17395 bound_to 11000

$$$$
