AV-unprocessed.smi:2137|AV-procd|sdf|8707|dock10
  -GOLD-   2272011473D 1   1.00000     0.00000
 Structure written by MMmdl.
 50 51  0  0  0  0  0  0  0  0  2 V2000
  143.7004  132.7558  148.9402 C   0  0  0  0  0  0  0  0  0  0  0  0
  143.7503  133.0145  150.4561 C   0  0  1  0  0  0  0  0  0  0  0  0
  144.7615  132.1097  151.1841 C   0  0  0  0  0  0  0  0  0  0  0  0
  146.2049  132.5580  150.9149 C   0  0  0  0  0  0  0  0  0  0  0  0
  146.3904  134.0484  151.2413 C   0  0  0  0  0  0  0  0  0  0  0  0
  145.4229  134.8857  150.4865 N   0  3  2  0  0  0  0  0  0  0  0  0
  145.6788  136.3380  150.6589 C   0  0  0  0  0  0  0  0  0  0  0  0
  145.9397  136.7146  152.1270 C   0  0  0  0  0  0  0  0  0  0  0  0
  146.3900  138.1765  152.2850 C   0  0  0  0  0  0  0  0  0  0  0  0
  147.7666  138.2634  152.7580 N   0  0  0  0  0  0  0  0  0  0  0  0
  148.1678  138.9581  153.8333 C   0  0  0  0  0  0  0  0  0  0  0  0
  147.3933  139.5824  154.5600 O   0  0  0  0  0  0  0  0  0  0  0  0
  149.6723  138.9282  154.1347 C   0  0  0  0  0  0  0  0  0  0  0  0
  149.9813  138.3535  155.4507 N   0  0  0  0  0  0  0  0  0  0  0  0
  149.3941  138.8837  156.5854 C   0  0  0  0  0  0  0  0  0  0  0  0
  149.6350  138.4245  157.8328 C   0  0  0  0  0  0  0  0  0  0  0  0
  150.5499  137.3119  158.0562 C   0  0  0  0  0  0  0  0  0  0  0  0
  150.8186  136.8743  159.1757 O   0  0  0  0  0  0  0  0  0  0  0  0
  151.1230  136.7760  156.8788 N   0  0  0  0  0  0  0  0  0  0  0  0
  152.0585  135.6805  157.0292 C   0  0  0  0  0  0  0  0  0  0  0  0
  150.8817  137.2730  155.5774 C   0  0  0  0  0  0  0  0  0  0  0  0
  151.4340  136.8006  154.5806 O   0  0  0  0  0  0  0  0  0  0  0  0
  144.0169  134.4980  150.7848 C   0  0  0  0  0  0  0  0  0  0  0  0
  144.6438  133.0012  148.4527 H   0  0  0  0  0  0  0  0  0  0  0  0
  142.9216  133.3553  148.4679 H   0  0  0  0  0  0  0  0  0  0  0  0
  143.4797  131.7092  148.7284 H   0  0  0  0  0  0  0  0  0  0  0  0
  142.7601  132.7677  150.8413 H   0  0  0  0  0  0  0  0  0  0  0  0
  144.5714  132.1510  152.2574 H   0  0  0  0  0  0  0  0  0  0  0  0
  144.6262  131.0680  150.8907 H   0  0  0  0  0  0  0  0  0  0  0  0
  146.8951  131.9594  151.5100 H   0  0  0  0  0  0  0  0  0  0  0  0
  146.4642  132.3742  149.8717 H   0  0  0  0  0  0  0  0  0  0  0  0
  146.2644  134.2199  152.3117 H   0  0  0  0  0  0  0  0  0  0  0  0
  147.4107  134.3414  150.9903 H   0  0  0  0  0  0  0  0  0  0  0  0
  146.5096  136.6476  150.0232 H   0  0  0  0  0  0  0  0  0  0  0  0
  144.8072  136.9001  150.3201 H   0  0  0  0  0  0  0  0  0  0  0  0
  145.0326  136.5505  152.7103 H   0  0  0  0  0  0  0  0  0  0  0  0
  146.7003  136.0606  152.5519 H   0  0  0  0  0  0  0  0  0  0  0  0
  146.2860  138.7143  151.3412 H   0  0  0  0  0  0  0  0  0  0  0  0
  145.7519  138.6878  153.0063 H   0  0  0  0  0  0  0  0  0  0  0  0
  148.4675  137.7718  152.2221 H   0  0  0  0  0  0  0  0  0  0  0  0
  150.1640  138.3528  153.3494 H   0  0  0  0  0  0  0  0  0  0  0  0
  150.0863  139.9359  154.0657 H   0  0  0  0  0  0  0  0  0  0  0  0
  148.7113  139.7134  156.4730 H   0  0  0  0  0  0  0  0  0  0  0  0
  149.1471  138.8891  158.6772 H   0  0  0  0  0  0  0  0  0  0  0  0
  152.0726  135.0751  156.1220 H   0  0  0  0  0  0  0  0  0  0  0  0
  151.7339  135.0426  157.8526 H   0  0  0  0  0  0  0  0  0  0  0  0
  153.0353  136.1238  157.2276 H   0  0  0  0  0  0  0  0  0  0  0  0
  143.3178  135.1196  150.2267 H   0  0  0  0  0  0  0  0  0  0  0  0
  143.8152  134.6824  151.8413 H   0  0  0  0  0  0  0  0  0  0  0  0
  145.5816  134.6836  149.5096 H   0  0  0  0  0  0  0  0  0  0  0  0
  1  2  1  0  0  0  0
  1 24  1  0  0  0  0
  1 25  1  0  0  0  0
  1 26  1  0  0  0  0
  2 23  1  0  0  0  0
  2  3  1  0  0  0  0
  2 27  1  0  0  0  0
  3  4  1  0  0  0  0
  3 28  1  0  0  0  0
  3 29  1  0  0  0  0
  4  5  1  0  0  0  0
  4 30  1  0  0  0  0
  4 31  1  0  0  0  0
  5  6  1  0  0  0  0
  5 32  1  0  0  0  0
  5 33  1  0  0  0  0
  6  7  1  0  0  0  0
  6 23  1  0  0  0  0
  6 50  1  0  0  0  0
  7  8  1  0  0  0  0
  7 34  1  0  0  0  0
  7 35  1  0  0  0  0
  8  9  1  0  0  0  0
  8 36  1  0  0  0  0
  8 37  1  0  0  0  0
  9 10  1  0  0  0  0
  9 38  1  0  0  0  0
  9 39  1  0  0  0  0
 10 11  1  0  0  0  0
 10 40  1  0  0  0  0
 11 12  2  0  0  0  0
 11 13  1  0  0  0  0
 13 14  1  0  0  0  0
 13 41  1  0  0  0  0
 13 42  1  0  0  0  0
 14 21  1  0  0  0  0
 14 15  1  0  0  0  0
 15 16  2  0  0  0  0
 15 43  1  0  0  0  0
 16 17  1  0  0  0  0
 16 44  1  0  0  0  0
 17 18  2  0  0  0  0
 17 19  1  0  0  0  0
 19 20  1  0  0  0  0
 19 21  1  0  0  0  0
 20 45  1  0  0  0  0
 20 46  1  0  0  0  0
 20 47  1  0  0  0  0
 21 22  2  0  0  0  0
 23 48  1  0  0  0  0
 23 49  1  0  0  0  0
M  CHG  1   6   1
M  END
> <s_m_source_file>
AV-unprocessed.smi

> <i_m_source_file_index>
2137

> <i_lp_mmshare_version>
43012

> <i_f3d_flags>
0

> <s_epik_input>
W0NIM11bQ0BASF0xW0NIMl1bQ0gyXVtDSDJdTihbQ0gyXTEpW0NIMl1bQ0gyXVtDSDJdW05IXUMoPU8pW0NIMl1uMltjSF1bY0hdYyg9TyluKFtDSDNdKWMyPU8=

> <s_epik_cmdline>
J2VwaWtfcHl0aG9uJywgJy1waCcsICc3LjAnLCAnLXRuJywgJzgnLCAnLW1hJywgJzIwMCcsICctbWV0YWxfYmluZGluZycsICctaW1hZScsICc8aW5maWxlLm1hZT4nLCAnLW9tYWUnLCAnPG91dGZpbGUubWFlPic=

> <r_lp_tautomer_probability>
1

> <r_epik_Ionization_Penalty>
0.000384839

> <r_epik_Ionization_Penalty_Charging>
0.000384812

> <r_epik_Ionization_Penalty_Neutral>
2.6907e-08

> <r_epik_State_Penalty>
0.000235226

> <r_epik_Charging_Adjusted_Penalty>
0.000620038

> <i_epik_Tot_Q>
1

> <i_epik_Tot_abs_Q>
1

> <r_epik_Metal_State_Penalty>
-0

> <b_epik_Metal_Only>
0

> <s_lp_Force_Field>
OPLS_2005

> <r_lp_Energy>
27.4749

> <b_lp_Chiralities_Consistent>
1

> <s_lp_Variant>
AV-unprocessed.smi:2137-2

> <Gold.Version>
5.8.1

> <Gold.Id.Protein>
6NUR|6NUR_protein|mol2

> <Gold.PLP.Fitness>
46.0698

> <Gold.PLP.PLP>
-35.8164

> <Gold.PLP.part.hbond>
-4.9633

> <Gold.PLP.part.metal>
0.0000

> <Gold.PLP.part.buried>
-0.2451

> <Gold.PLP.part.nonpolar>
-31.0436

> <Gold.PLP.part.repulsive>
0.4022

> <Gold.PLP.ligand.clash>
0.0000

> <Gold.PLP.ligand.torsion>
0.5902

> <Gold.PLP.Chemscore.Hbond>
3.8000

> <Gold.PLP.Chemscore.CHOScore>
0.0000

> <Gold.PLP.Chemscore.Metal>
0.0000

> <Gold.Chemscore.Hbonds>
donor molecule, donor type, donor heavy atom, donor atom, acceptor molecule, acceptor atom, score
      L1  H     6    50       P1  7921  1.00
      L1  H    10    40       P1  7948  0.85
      P1  H  6896  6907       L1    18  1.00
      P1  H 10752 10764       L1    22  1.00

> <Gold.PLP.Chemscore.Internal.Correction>
0.0339

> <Gold.Rescore>
     Score         DG    S(hbond)    S(metal)    S(lipo)     H(rot)  DE(clash)    DE(int)     intcor
     19.45     -22.44       3.72        0.00      88.50       2.27       1.31       1.68       ----

> <Gold.Chemscore.Fitness>
19.4497

> <Gold.Chemscore.DG>
-22.4383

> <Gold.Chemscore.ZeroCoef>
-5.4800

> <Gold.Chemscore.Hbond>
3.7206

> <Gold.Chemscore.Metal>
0.0000

> <Gold.Chemscore.Lipo>
88.5036

> <Gold.Chemscore.Internal_Hbond>
0.0000

> <Gold.Chemscore.DEClash>
1.3098

> <Gold.Chemscore.DEInternal>
1.6788

> <Gold.Chemscore.Rot>
2.2748

> <Gold.Chemscore.Internal.Correction>
   9.000000E+99

> <Gold.Chemscore.Hbonds>
donor molecule, donor type, donor heavy atom, donor atom, acceptor molecule, acceptor atom, score
      L1  H     6    50       P1  7921  0.94
      L1  H    10    40       P1  7948  0.83
      P1  H  6896  6907       L1    18  0.99
      P1  H 10752 10764       L1    22  1.00

> <Gold.Chemscore.Hbond.Weighted>
-12.4268

> <Gold.Chemscore.Metal.Weighted>
-0.0000

> <Gold.Chemscore.Lipo.Weighted>
-10.3549

> <Gold.Chemscore.Internal_Hbond.Weighted>
0.0000

> <Gold.Chemscore.DEClash.Weighted>
1.3098

> <Gold.Chemscore.DEInternal.Weighted>
1.6788

> <Gold.Chemscore.Rot.Weighted>
5.8234

> <Gold.Chemscore.Internal.Correction.Weighted>
   9.000000E+99

> <Gold.Protein.RotatedTorsions>
[ 6907 6896 6895 6894 ] final  -24.68 input  -60.11 | X-H torsion
[ 7974 7965 7964 7962 ] final -156.16 input  175.53 | X-H torsion
[ 8008 7997 7996 7995 ] final   -9.64 input   59.86 | X-H torsion
[ 10167 10162 10161 10158 ] final  -45.63 input  -65.29 | X-H torsion
[ 10718 10713 10712 10709 ] final  -46.79 input   66.30 | X-H torsion
[ 10763 10752 10751 10750 ] final  -69.98 input  -60.55 | X-H torsion
[ 11005 11000 10999 10996 ] final  -68.55 input  -57.11 | X-H torsion

> <Gold.Protein.ActiveResidues>
 VAL166  LYS551  ARG553  GLY616  TRP617  ASP618  TYR619  PRO620  LYS621  CYS622 
 ASP623  PHE694  ASN695  SER759  ASP760  ASP761  ALA762  ILE779  LEU786  VAL792 
 PHE793  MET794  SER795  GLU796  ALA797  LYS798  CYS799  TRP800  GLU811  SER814 

> <Gold.Protein.RotatedAtoms>
  151.1861  135.0382  159.8812 H   0  0  0  0  0  0  0  0  0  0  0  0  # atno 6907 bound_to 6896
  152.5442  134.1009  159.8327 H   0  0  0  0  0  0  0  0  0  0  0  0  # atno 6908 bound_to 6896
  151.1132  133.5111  159.2637 H   0  0  0  0  0  0  0  0  0  0  0  0  # atno 6909 bound_to 6896
  144.7606  140.4149  143.5979 H   0  0  0  0  0  0  0  0  0  0  0  0  # atno 7974 bound_to 7965
  154.5628  140.2350  155.8309 H   0  0  0  0  0  0  0  0  0  0  0  0  # atno 8008 bound_to 7997
  156.2043  140.3044  155.9553 H   0  0  0  0  0  0  0  0  0  0  0  0  # atno 8009 bound_to 7997
  155.2857  140.0424  157.3009 H   0  0  0  0  0  0  0  0  0  0  0  0  # atno 8010 bound_to 7997
  140.6850  143.2870  151.3666 H   0  0  0  0  0  0  0  0  0  0  0  0  # atno 10167 bound_to 10162
  156.2148  130.4162  149.9068 H   0  0  0  0  0  0  0  0  0  0  0  0  # atno 10718 bound_to 10713
  154.4112  135.6008  153.5954 H   0  0  0  0  0  0  0  0  0  0  0  0  # atno 10763 bound_to 10752
  152.9790  135.5930  154.4068 H   0  0  0  0  0  0  0  0  0  0  0  0  # atno 10764 bound_to 10752
  154.3880  135.2841  155.2150 H   0  0  0  0  0  0  0  0  0  0  0  0  # atno 10765 bound_to 10752
  141.1534  133.6743  156.6463 H   0  0  0  0  0  0  0  0  0  0  0  0  # atno 11005 bound_to 11000
  145.6632  139.1585  143.2796 LP  0  0  0  0  0  0  0  0  0  0  0  0  # atno 17320 bound_to 7965
  146.1665  140.6711  142.9253 LP  0  0  0  0  0  0  0  0  0  0  0  0  # atno 17321 bound_to 7965
  139.6202  144.0922  152.2384 LP  0  0  0  0  0  0  0  0  0  0  0  0  # atno 17342 bound_to 10162
  140.0364  144.6041  150.7446 LP  0  0  0  0  0  0  0  0  0  0  0  0  # atno 17343 bound_to 10162
  156.6735  130.8829  151.3565 LP  0  0  0  0  0  0  0  0  0  0  0  0  # atno 17370 bound_to 10713
  157.7057  130.9382  150.0924 LP  0  0  0  0  0  0  0  0  0  0  0  0  # atno 17371 bound_to 10713
  140.3354  134.7893  157.4358 LP  0  0  0  0  0  0  0  0  0  0  0  0  # atno 17394 bound_to 11000
  140.0982  134.5509  155.8378 LP  0  0  0  0  0  0  0  0  0  0  0  0  # atno 17395 bound_to 11000

$$$$
