AV-unprocessed.smi:1005|AV-procd|sdf|4377|dock10
  -GOLD-   22720 2293D 1   1.00000     0.00000
 Structure written by MMmdl.
 57 59  0  0  0  0  0  0  0  0  3 V2000
  152.5194  143.4906  161.4415 C   0  0  0  0  0  0  0  0  0  0  0  0
  152.2595  142.7341  160.1499 C   0  0  0  0  0  0  0  0  0  0  0  0
  151.3012  143.2490  159.2481 C   0  0  0  0  0  0  0  0  0  0  0  0
  151.0844  142.5341  158.0762 C   0  0  0  0  0  0  0  0  0  0  0  0
  150.2184  142.7739  157.0074 N   0  3  0  0  0  0  0  0  0  0  0  0
  150.3572  141.7869  156.0800 C   0  0  0  0  0  0  0  0  0  0  0  0
  151.2989  140.9193  156.5405 N   0  0  0  0  0  0  0  0  0  0  0  0
  151.8173  139.6913  155.9209 C   0  0  0  0  0  0  0  0  0  0  0  0
  150.7131  138.8422  155.2612 C   0  0  1  0  0  0  0  0  0  0  0  0
  150.4388  139.4106  153.9974 O   0  0  0  0  0  0  0  0  0  0  0  0
  151.1086  137.3614  155.0640 C   0  0  0  0  0  0  0  0  0  0  0  0
  150.2425  136.3817  155.7216 N   0  0  0  0  0  0  0  0  0  0  0  0
  150.2171  136.5366  157.1748 C   0  0  0  0  0  0  0  0  0  0  0  0
  149.3327  135.4745  157.8492 C   0  0  0  0  0  0  0  0  0  0  0  0
  149.7764  134.1748  157.4740 O   0  0  0  0  0  0  0  0  0  0  0  0
  149.7527  133.9642  156.0646 C   0  0  2  0  0  0  0  0  0  0  0  0
  150.2434  132.5326  155.7836 C   0  0  0  0  0  0  0  0  0  0  0  0
  150.3211  132.2255  154.3323 N   0  3  0  0  0  0  0  0  0  0  0  0
  150.3275  130.7745  154.0337 C   0  0  0  0  0  0  0  0  0  0  0  0
  149.2766  132.9326  153.5587 C   0  0  0  0  0  0  0  0  0  0  0  0
  150.6576  135.0207  155.3993 C   0  0  0  0  0  0  0  0  0  0  0  0
  151.7835  141.3465  157.7833 C   0  0  0  0  0  0  0  0  0  0  0  0
  152.7320  140.8264  158.6617 C   0  0  0  0  0  0  0  0  0  0  0  0
  152.9653  141.5377  159.8603 C   0  0  0  0  0  0  0  0  0  0  0  0
  153.9913  140.9911  160.8387 C   0  0  0  0  0  0  0  0  0  0  0  0
  151.8919  144.3790  161.5169 H   0  0  0  0  0  0  0  0  0  0  0  0
  153.5599  143.8125  161.4939 H   0  0  0  0  0  0  0  0  0  0  0  0
  152.3074  142.8595  162.3048 H   0  0  0  0  0  0  0  0  0  0  0  0
  150.7594  144.1589  159.4620 H   0  0  0  0  0  0  0  0  0  0  0  0
  149.8172  141.7067  155.1474 H   0  0  0  0  0  0  0  0  0  0  0  0
  152.5443  140.0013  155.1688 H   0  0  0  0  0  0  0  0  0  0  0  0
  152.3740  139.1158  156.6603 H   0  0  0  0  0  0  0  0  0  0  0  0
  149.8143  138.9257  155.8709 H   0  0  0  0  0  0  0  0  0  0  0  0
  149.5615  139.7615  154.0071 H   0  0  0  0  0  0  0  0  0  0  0  0
  151.1296  137.1609  153.9918 H   0  0  0  0  0  0  0  0  0  0  0  0
  152.1299  137.2064  155.4121 H   0  0  0  0  0  0  0  0  0  0  0  0
  151.2305  136.4672  157.5728 H   0  0  0  0  0  0  0  0  0  0  0  0
  149.8405  137.5212  157.4482 H   0  0  0  0  0  0  0  0  0  0  0  0
  149.3856  135.5705  158.9337 H   0  0  0  0  0  0  0  0  0  0  0  0
  148.2870  135.6056  157.5666 H   0  0  0  0  0  0  0  0  0  0  0  0
  148.7353  134.0953  155.6953 H   0  0  0  0  0  0  0  0  0  0  0  0
  151.2187  132.3642  156.2428 H   0  0  0  0  0  0  0  0  0  0  0  0
  149.5537  131.8366  156.2636 H   0  0  0  0  0  0  0  0  0  0  0  0
  149.4138  130.2974  154.3904 H   0  0  0  0  0  0  0  0  0  0  0  0
  151.1783  130.2727  154.4926 H   0  0  0  0  0  0  0  0  0  0  0  0
  150.3991  130.6064  152.9586 H   0  0  0  0  0  0  0  0  0  0  0  0
  148.2803  132.5996  153.8531 H   0  0  0  0  0  0  0  0  0  0  0  0
  149.3965  132.7500  152.4902 H   0  0  0  0  0  0  0  0  0  0  0  0
  149.3386  134.0101  153.7159 H   0  0  0  0  0  0  0  0  0  0  0  0
  150.6379  134.8783  154.3179 H   0  0  0  0  0  0  0  0  0  0  0  0
  151.6909  134.8663  155.7147 H   0  0  0  0  0  0  0  0  0  0  0  0
  153.2691  139.9149  158.4464 H   0  0  0  0  0  0  0  0  0  0  0  0
  154.4476  140.0728  160.4679 H   0  0  0  0  0  0  0  0  0  0  0  0
  153.5242  140.7667  161.7978 H   0  0  0  0  0  0  0  0  0  0  0  0
  154.7892  141.7159  161.0024 H   0  0  0  0  0  0  0  0  0  0  0  0
  151.2045  132.5958  154.0102 H   0  0  0  0  0  0  0  0  0  0  0  0
  149.5791  143.5531  156.9148 H   0  0  0  0  0  0  0  0  0  0  0  0
  1  2  1  0  0  0  0
  1 26  1  0  0  0  0
  1 27  1  0  0  0  0
  1 28  1  0  0  0  0
  2 24  1  0  0  0  0
  2  3  2  0  0  0  0
  3  4  1  0  0  0  0
  3 29  1  0  0  0  0
  4 22  2  0  0  0  0
  4  5  1  0  0  0  0
  5  6  2  0  0  0  0
  5 57  1  0  0  0  0
  6  7  1  0  0  0  0
  6 30  1  0  0  0  0
  7  8  1  0  0  0  0
  7 22  1  0  0  0  0
  8  9  1  0  0  0  0
  8 31  1  0  0  0  0
  8 32  1  0  0  0  0
  9 10  1  0  0  0  0
  9 11  1  0  0  0  0
  9 33  1  0  0  0  0
 10 34  1  0  0  0  0
 11 12  1  0  0  0  0
 11 35  1  0  0  0  0
 11 36  1  0  0  0  0
 12 21  1  0  0  0  0
 12 13  1  0  0  0  0
 13 14  1  0  0  0  0
 13 37  1  0  0  0  0
 13 38  1  0  0  0  0
 14 15  1  0  0  0  0
 14 39  1  0  0  0  0
 14 40  1  0  0  0  0
 15 16  1  0  0  0  0
 16 17  1  0  0  0  0
 16 21  1  0  0  0  0
 16 41  1  0  0  0  0
 17 18  1  0  0  0  0
 17 42  1  0  0  0  0
 17 43  1  0  0  0  0
 18 19  1  0  0  0  0
 18 20  1  0  0  0  0
 18 56  1  0  0  0  0
 19 44  1  0  0  0  0
 19 45  1  0  0  0  0
 19 46  1  0  0  0  0
 20 47  1  0  0  0  0
 20 48  1  0  0  0  0
 20 49  1  0  0  0  0
 21 50  1  0  0  0  0
 21 51  1  0  0  0  0
 22 23  1  0  0  0  0
 23 24  2  0  0  0  0
 23 52  1  0  0  0  0
 24 25  1  0  0  0  0
 25 53  1  0  0  0  0
 25 54  1  0  0  0  0
 25 55  1  0  0  0  0
M  CHG  1   5   1
M  CHG  1  18   1
M  END
> <s_m_source_file>
AV-unprocessed.smi

> <i_m_source_file_index>
1005

> <i_lp_mmshare_version>
43012

> <i_f3d_flags>
0

> <s_epik_input>
W0NIM11jKFtjSF0xKWMoW0NIM10pW2NIXWMoYzEyKW4oW2NIXW4yKVtDSDJdW0NASF0oW09IXSlbQ0gyXU4zW0NIMl1bQ0gyXU9bQ0BIXShbQ0gyXTMpW0NIMl1OKFtDSDNdKVtDSDNd

> <s_epik_cmdline>
J2VwaWtfcHl0aG9uJywgJy1waCcsICc3LjAnLCAnLXRuJywgJzgnLCAnLW1hJywgJzIwMCcsICctbWV0YWxfYmluZGluZycsICctaW1hZScsICc8aW5maWxlLm1hZT4nLCAnLW9tYWUnLCAnPG91dGZpbGUubWFlPic=

> <r_epik_Ionization_Penalty>
1.3281

> <r_epik_Ionization_Penalty_Charging>
1.21988

> <r_epik_Ionization_Penalty_Neutral>
0.10822

> <r_epik_State_Penalty>
1.32886

> <r_epik_Charging_Adjusted_Penalty>
2.54875

> <i_epik_Tot_Q>
2

> <i_epik_Tot_abs_Q>
2

> <r_epik_Metal_State_Penalty>
5.33912

> <b_epik_Metal_Only>
0

> <s_lp_Force_Field>
OPLS_2005

> <r_lp_Energy>
45.9182

> <b_lp_Chiralities_Consistent>
1

> <s_lp_Variant>
AV-unprocessed.smi:1005-16

> <Gold.Version>
5.8.1

> <Gold.Id.Protein>
6NUR|6NUR_protein|mol2

> <Gold.PLP.Fitness>
58.2406

> <Gold.PLP.PLP>
-49.0362

> <Gold.PLP.part.hbond>
-4.0000

> <Gold.PLP.part.metal>
0.0000

> <Gold.PLP.part.buried>
-5.6428

> <Gold.PLP.part.nonpolar>
-39.4441

> <Gold.PLP.part.repulsive>
0.1176

> <Gold.PLP.ligand.clash>
0.0000

> <Gold.PLP.ligand.torsion>
1.4729

> <Gold.PLP.Chemscore.Hbond>
4.0000

> <Gold.PLP.Chemscore.CHOScore>
0.0000

> <Gold.PLP.Chemscore.Metal>
0.0000

> <Gold.Chemscore.Hbonds>
donor molecule, donor type, donor heavy atom, donor atom, acceptor molecule, acceptor atom, score
      L1  H     5    57       P1  8028  1.70
      P1  H  6896  6907       L1    15  0.42
      P1  H  7989  7998       L1    10  1.00

> <Gold.PLP.Chemscore.Internal.Correction>
0.1503

> <Gold.Rescore>
     Score         DG    S(hbond)    S(metal)    S(lipo)     H(rot)  DE(clash)    DE(int)     intcor
     21.74     -22.96       2.80        0.00     123.96       2.49       0.00       1.23       ----

> <Gold.Chemscore.Fitness>
21.7370

> <Gold.Chemscore.DG>
-22.9629

> <Gold.Chemscore.ZeroCoef>
-5.4800

> <Gold.Chemscore.Hbond>
2.8005

> <Gold.Chemscore.Metal>
0.0000

> <Gold.Chemscore.Lipo>
123.9559

> <Gold.Chemscore.Internal_Hbond>
0.0000

> <Gold.Chemscore.DEClash>
0.0000

> <Gold.Chemscore.DEInternal>
1.2260

> <Gold.Chemscore.Rot>
2.4897

> <Gold.Chemscore.Internal.Correction>
   9.000000E+99

> <Gold.Chemscore.Hbonds>
donor molecule, donor type, donor heavy atom, donor atom, acceptor molecule, acceptor atom, score
      L1  H     5    57       P1  8028  0.82
      P1  H  6896  6907       L1    15  0.01
      P1  H  7989  7998       L1    10  0.53

> <Gold.Chemscore.Hbond.Weighted>
-9.3538

> <Gold.Chemscore.Metal.Weighted>
-0.0000

> <Gold.Chemscore.Lipo.Weighted>
-14.5028

> <Gold.Chemscore.Internal_Hbond.Weighted>
0.0000

> <Gold.Chemscore.DEClash.Weighted>
0.0000

> <Gold.Chemscore.DEInternal.Weighted>
1.2260

> <Gold.Chemscore.Rot.Weighted>
6.3737

> <Gold.Chemscore.Internal.Correction.Weighted>
   9.000000E+99

> <Gold.Protein.RotatedTorsions>
[ 6907 6896 6895 6894 ] final -105.36 input  -60.11 | X-H torsion
[ 7974 7965 7964 7962 ] final  -42.07 input  175.53 | X-H torsion
[ 8008 7997 7996 7995 ] final  -79.83 input   59.86 | X-H torsion
[ 10167 10162 10161 10158 ] final  -97.09 input  -65.29 | X-H torsion
[ 10718 10713 10712 10709 ] final  -14.17 input   66.30 | X-H torsion
[ 10763 10752 10751 10750 ] final -178.07 input  -60.55 | X-H torsion
[ 11005 11000 10999 10996 ] final  144.07 input  -57.11 | X-H torsion

> <Gold.Protein.ActiveResidues>
 VAL166  LYS551  ARG553  GLY616  TRP617  ASP618  TYR619  PRO620  LYS621  CYS622 
 ASP623  PHE694  ASN695  SER759  ASP760  ASP761  ALA762  ILE779  LEU786  VAL792 
 PHE793  MET794  SER795  GLU796  ALA797  LYS798  CYS799  TRP800  GLU811  SER814 

> <Gold.Protein.RotatedAtoms>
  150.7333  134.0138  159.3678 H   0  0  0  0  0  0  0  0  0  0  0  0  # atno 6907 bound_to 6896
  151.8099  135.0682  160.0421 H   0  0  0  0  0  0  0  0  0  0  0  0  # atno 6908 bound_to 6896
  152.3080  133.5687  159.5698 H   0  0  0  0  0  0  0  0  0  0  0  0  # atno 6909 bound_to 6896
  146.0151  140.6918  142.9205 H   0  0  0  0  0  0  0  0  0  0  0  0  # atno 7974 bound_to 7965
  154.5823  140.0672  156.9122 H   0  0  0  0  0  0  0  0  0  0  0  0  # atno 8008 bound_to 7997
  155.2441  140.3347  155.4271 H   0  0  0  0  0  0  0  0  0  0  0  0  # atno 8009 bound_to 7997
  156.2198  140.1794  156.7488 H   0  0  0  0  0  0  0  0  0  0  0  0  # atno 8010 bound_to 7997
  140.2870  143.3245  152.0384 H   0  0  0  0  0  0  0  0  0  0  0  0  # atno 10167 bound_to 10162
  156.6198  130.4872  149.6169 H   0  0  0  0  0  0  0  0  0  0  0  0  # atno 10718 bound_to 10713
  154.5522  135.2814  155.0998 H   0  0  0  0  0  0  0  0  0  0  0  0  # atno 10763 bound_to 10752
  154.2439  135.6352  153.5220 H   0  0  0  0  0  0  0  0  0  0  0  0  # atno 10764 bound_to 10752
  153.0006  135.5566  154.6092 H   0  0  0  0  0  0  0  0  0  0  0  0  # atno 10765 bound_to 10752
  140.0603  134.9208  157.1173 H   0  0  0  0  0  0  0  0  0  0  0  0  # atno 11005 bound_to 11000
  144.6968  140.3466  143.7189 LP  0  0  0  0  0  0  0  0  0  0  0  0  # atno 17320 bound_to 7965
  145.7282  139.1728  143.2446 LP  0  0  0  0  0  0  0  0  0  0  0  0  # atno 17321 bound_to 7965
  139.4947  144.6551  151.6589 LP  0  0  0  0  0  0  0  0  0  0  0  0  # atno 17342 bound_to 10162
  140.5764  144.0021  150.6244 LP  0  0  0  0  0  0  0  0  0  0  0  0  # atno 17343 bound_to 10162
  156.2321  130.6801  151.1474 LP  0  0  0  0  0  0  0  0  0  0  0  0  # atno 17370 bound_to 10713
  157.7231  131.0668  150.6051 LP  0  0  0  0  0  0  0  0  0  0  0  0  # atno 17371 bound_to 10713
  140.3780  134.2318  155.7173 LP  0  0  0  0  0  0  0  0  0  0  0  0  # atno 17394 bound_to 11000
  141.1970  133.8069  157.0646 LP  0  0  0  0  0  0  0  0  0  0  0  0  # atno 17395 bound_to 11000

$$$$
