AV-unprocessed.smi:192|AV-procd|sdf|1495|dock6
  -GOLD-   2262019323D 1   1.00000     0.00000
 Structure written by MMmdl.
 58 60  0  0  0  0  0  0  0  0  1 V2000
  154.6349  131.3413  157.7081 C   0  0  0  0  0  0  0  0  0  0  0  0
  153.4031  131.6699  156.8519 C   0  0  0  0  0  0  0  0  0  0  0  0
  152.5192  130.4469  156.5109 C   0  0  0  0  0  0  0  0  0  0  0  0
  153.3236  129.3579  155.7661 C   0  0  0  0  0  0  0  0  0  0  0  0
  154.3889  129.9128  154.8085 C   0  0  0  0  0  0  0  0  0  0  0  0
  151.2839  130.8815  155.6804 C   0  0  0  0  0  0  0  0  0  0  0  0
  150.3785  129.7846  155.3323 N   0  0  0  0  0  0  0  0  0  0  0  0
  150.1974  128.6941  156.2883 C   0  0  0  0  0  0  0  0  0  0  0  0
  150.2456  127.2939  155.6503 C   0  0  0  0  0  0  0  0  0  0  0  0
  151.6016  126.7390  155.5189 C   0  0  0  0  0  0  0  0  0  0  0  0
  152.6680  126.3022  155.4161 N   0  0  0  0  0  0  0  0  0  0  0  0
  149.2764  130.0623  154.5945 C   0  0  0  0  0  0  0  0  0  0  0  0
  148.4720  129.0198  154.2675 N   0  0  0  0  0  0  0  0  0  0  0  0
  147.3835  129.2202  153.5193 C   0  0  0  0  0  0  0  0  0  0  0  0
  146.9186  130.3631  153.0118 N   0  0  0  0  0  0  0  0  0  0  0  0
  147.7102  131.4186  153.3577 C   0  0  0  0  0  0  0  0  0  0  0  0
  148.8991  131.3593  154.1390 C   0  0  0  0  0  0  0  0  0  0  0  0
  149.4324  132.6352  154.2796 N   0  0  0  0  0  0  0  0  0  0  0  0
  148.6191  133.3997  153.6047 C   0  0  0  0  0  0  0  0  0  0  0  0
  147.5420  132.7552  153.0407 N   0  0  0  0  0  0  0  0  0  0  0  0
  146.5280  133.3450  152.2172 C   0  0  0  0  0  0  0  0  0  0  0  0
  145.1018  133.5393  152.7357 C   0  0  0  0  0  0  0  0  0  0  0  0
  144.5613  133.3267  151.3029 C   0  0  0  0  0  0  0  0  0  0  0  0
  143.2994  132.4562  151.1706 C   0  0  0  0  0  0  0  0  0  0  0  0
  143.0584  132.0750  149.8318 O   0  0  0  0  0  0  0  0  0  0  0  0
  144.4009  134.5924  150.4338 C   0  0  0  0  0  0  0  0  0  0  0  0
  144.0808  134.2856  149.0926 O   0  0  0  0  0  0  0  0  0  0  0  0
  145.8868  132.5689  151.0643 C   0  0  0  0  0  0  0  0  0  0  0  0
  155.1681  132.2536  157.9758 H   0  0  0  0  0  0  0  0  0  0  0  0
  155.3401  130.6974  157.1841 H   0  0  0  0  0  0  0  0  0  0  0  0
  154.3481  130.8440  158.6350 H   0  0  0  0  0  0  0  0  0  0  0  0
  152.8158  132.4022  157.4063 H   0  0  0  0  0  0  0  0  0  0  0  0
  153.7138  132.1714  155.9346 H   0  0  0  0  0  0  0  0  0  0  0  0
  152.1826  130.0092  157.4509 H   0  0  0  0  0  0  0  0  0  0  0  0
  153.7908  128.6835  156.4848 H   0  0  0  0  0  0  0  0  0  0  0  0
  152.6501  128.7412  155.1730 H   0  0  0  0  0  0  0  0  0  0  0  0
  154.8538  129.1053  154.2426 H   0  0  0  0  0  0  0  0  0  0  0  0
  155.1846  130.4348  155.3386 H   0  0  0  0  0  0  0  0  0  0  0  0
  153.9501  130.6078  154.0920 H   0  0  0  0  0  0  0  0  0  0  0  0
  150.7241  131.6300  156.2422 H   0  0  0  0  0  0  0  0  0  0  0  0
  151.5926  131.3769  154.7633 H   0  0  0  0  0  0  0  0  0  0  0  0
  150.9646  128.7663  157.0600 H   0  0  0  0  0  0  0  0  0  0  0  0
  149.2456  128.8289  156.8029 H   0  0  0  0  0  0  0  0  0  0  0  0
  149.6363  126.5836  156.2093 H   0  0  0  0  0  0  0  0  0  0  0  0
  149.8279  127.3398  154.6446 H   0  0  0  0  0  0  0  0  0  0  0  0
  146.8027  128.3383  153.2927 H   0  0  0  0  0  0  0  0  0  0  0  0
  148.7817  134.4632  153.5058 H   0  0  0  0  0  0  0  0  0  0  0  0
  146.9420  134.2908  151.8640 H   0  0  0  0  0  0  0  0  0  0  0  0
  144.7950  132.7488  153.4234 H   0  0  0  0  0  0  0  0  0  0  0  0
  144.9079  134.5232  153.1635 H   0  0  0  0  0  0  0  0  0  0  0  0
  143.3700  131.5592  151.7866 H   0  0  0  0  0  0  0  0  0  0  0  0
  142.4176  132.9958  151.5173 H   0  0  0  0  0  0  0  0  0  0  0  0
  142.3298  131.4737  149.8163 H   0  0  0  0  0  0  0  0  0  0  0  0
  143.6089  135.2358  150.8176 H   0  0  0  0  0  0  0  0  0  0  0  0
  145.3095  135.1952  150.4462 H   0  0  0  0  0  0  0  0  0  0  0  0
  144.8849  134.1593  148.6129 H   0  0  0  0  0  0  0  0  0  0  0  0
  146.3488  132.7434  150.0919 H   0  0  0  0  0  0  0  0  0  0  0  0
  145.8180  131.4998  151.2742 H   0  0  0  0  0  0  0  0  0  0  0  0
  1  2  1  0  0  0  0
  1 29  1  0  0  0  0
  1 30  1  0  0  0  0
  1 31  1  0  0  0  0
  2  3  1  0  0  0  0
  2 32  1  0  0  0  0
  2 33  1  0  0  0  0
  3  4  1  0  0  0  0
  3  6  1  0  0  0  0
  3 34  1  0  0  0  0
  4  5  1  0  0  0  0
  4 35  1  0  0  0  0
  4 36  1  0  0  0  0
  5 37  1  0  0  0  0
  5 38  1  0  0  0  0
  5 39  1  0  0  0  0
  6  7  1  0  0  0  0
  6 40  1  0  0  0  0
  6 41  1  0  0  0  0
  7  8  1  0  0  0  0
  7 12  1  0  0  0  0
  8  9  1  0  0  0  0
  8 42  1  0  0  0  0
  8 43  1  0  0  0  0
  9 10  1  0  0  0  0
  9 44  1  0  0  0  0
  9 45  1  0  0  0  0
 10 11  3  0  0  0  0
 12 17  1  0  0  0  0
 12 13  2  0  0  0  0
 13 14  1  0  0  0  0
 14 15  2  0  0  0  0
 14 46  1  0  0  0  0
 15 16  1  0  0  0  0
 16 20  1  0  0  0  0
 16 17  2  0  0  0  0
 17 18  1  0  0  0  0
 18 19  2  0  0  0  0
 19 20  1  0  0  0  0
 19 47  1  0  0  0  0
 20 21  1  0  0  0  0
 21 28  1  0  0  0  0
 21 22  1  0  0  0  0
 21 48  1  0  0  0  0
 22 23  1  0  0  0  0
 22 49  1  0  0  0  0
 22 50  1  0  0  0  0
 23 24  1  0  0  0  0
 23 26  1  0  0  0  0
 23 28  1  0  0  0  0
 24 25  1  0  0  0  0
 24 51  1  0  0  0  0
 24 52  1  0  0  0  0
 25 53  1  0  0  0  0
 26 27  1  0  0  0  0
 26 54  1  0  0  0  0
 26 55  1  0  0  0  0
 27 56  1  0  0  0  0
 28 57  1  0  0  0  0
 28 58  1  0  0  0  0
M  END
> <s_m_source_file>
AV-unprocessed.smi

> <i_m_source_file_index>
192

> <i_lp_mmshare_version>
43012

> <i_f3d_flags>
0

> <s_epik_input>
W0NIM11bQ0gyXVtDSF0oW0NIMl1bQ0gzXSlbQ0gyXU4oW0NIMl1bQ0gyXUMjTiljKG5bY0hdbjEpYyhjMTIpbltjSF1uMltDSF0oW0NIMl0zKVtDSDJdQzMoW0NIMl1bT0hdKVtDSDJdW09IXQ==

> <s_epik_cmdline>
J2VwaWtfcHl0aG9uJywgJy1waCcsICc3LjAnLCAnLXRuJywgJzgnLCAnLW1hJywgJzIwMCcsICctbWV0YWxfYmluZGluZycsICctaW1hZScsICc8aW5maWxlLm1hZT4nLCAnLW9tYWUnLCAnPG91dGZpbGUubWFlPic=

> <r_lp_tautomer_probability>
1

> <r_epik_Ionization_Penalty>
0.000545077

> <r_epik_Ionization_Penalty_Charging>
0

> <r_epik_Ionization_Penalty_Neutral>
0.000545077

> <r_epik_State_Penalty>
0.000259443

> <r_epik_Charging_Adjusted_Penalty>
0.000259443

> <i_epik_Tot_Q>
0

> <i_epik_Tot_abs_Q>
0

> <r_epik_Metal_State_Penalty>
-0

> <b_epik_Metal_Only>
0

> <s_lp_Force_Field>
OPLS_2005

> <r_lp_Energy>
36.5324

> <b_lp_Chiralities_Consistent>
1

> <s_lp_Variant>
AV-unprocessed.smi:192-1

> <Gold.Version>
5.8.1

> <Gold.Id.Protein>
6NUR|6NUR_protein|mol2

> <Gold.PLP.Fitness>
53.9930

> <Gold.PLP.PLP>
-46.5020

> <Gold.PLP.part.hbond>
-4.0380

> <Gold.PLP.part.metal>
0.0000

> <Gold.PLP.part.buried>
-6.1160

> <Gold.PLP.part.nonpolar>
-37.1164

> <Gold.PLP.part.repulsive>
1.1735

> <Gold.PLP.ligand.clash>
0.0000

> <Gold.PLP.ligand.torsion>
1.7586

> <Gold.PLP.Chemscore.Hbond>
2.0000

> <Gold.PLP.Chemscore.CHOScore>
0.9857

> <Gold.PLP.Chemscore.Metal>
0.0000

> <Gold.Chemscore.Hbonds>
donor molecule, donor type, donor heavy atom, donor atom, acceptor molecule, acceptor atom, score
      L1  H    25    53       P1 10952  1.00
      L1  H    27    56       P1  7921  0.99
      L1  C    19    47       P1  7948  0.98

> <Gold.PLP.Chemscore.Internal.Correction>
2.0509

> <Gold.Rescore>
     Score         DG    S(hbond)    S(metal)    S(lipo)     H(rot)  DE(clash)    DE(int)     intcor
      6.24     -10.50       1.99        0.00      79.47       4.27       0.00       4.26       ----

> <Gold.Chemscore.Fitness>
6.2402

> <Gold.Chemscore.DG>
-10.5018

> <Gold.Chemscore.ZeroCoef>
-5.4800

> <Gold.Chemscore.Hbond>
1.9898

> <Gold.Chemscore.Metal>
0.0000

> <Gold.Chemscore.Lipo>
79.4688

> <Gold.Chemscore.Internal_Hbond>
0.0000

> <Gold.Chemscore.DEClash>
0.0004

> <Gold.Chemscore.DEInternal>
4.2612

> <Gold.Chemscore.Rot>
4.2663

> <Gold.Chemscore.Internal.Correction>
   9.000000E+99

> <Gold.Chemscore.Hbonds>
donor molecule, donor type, donor heavy atom, donor atom, acceptor molecule, acceptor atom, score
      L1  H    25    53       P1 10952  0.98
      L1  H    27    56       P1  7921  0.93

> <Gold.Chemscore.Hbond.Weighted>
-6.6458

> <Gold.Chemscore.Metal.Weighted>
-0.0000

> <Gold.Chemscore.Lipo.Weighted>
-9.2978

> <Gold.Chemscore.Internal_Hbond.Weighted>
0.0000

> <Gold.Chemscore.DEClash.Weighted>
0.0004

> <Gold.Chemscore.DEInternal.Weighted>
4.2612

> <Gold.Chemscore.Rot.Weighted>
10.9218

> <Gold.Chemscore.Internal.Correction.Weighted>
   9.000000E+99

> <Gold.Protein.RotatedTorsions>
[ 6907 6896 6895 6894 ] final -107.08 input  -60.11 | X-H torsion
[ 7974 7965 7964 7962 ] final -134.18 input  175.53 | X-H torsion
[ 8008 7997 7996 7995 ] final   86.87 input   59.86 | X-H torsion
[ 10167 10162 10161 10158 ] final  -78.80 input  -65.29 | X-H torsion
[ 10718 10713 10712 10709 ] final   78.02 input   66.30 | X-H torsion
[ 10763 10752 10751 10750 ] final  -25.16 input  -60.55 | X-H torsion
[ 11005 11000 10999 10996 ] final -121.12 input  -57.11 | X-H torsion

> <Gold.Protein.ActiveResidues>
 VAL166  LYS551  ARG553  GLY616  TRP617  ASP618  TYR619  PRO620  LYS621  CYS622 
 ASP623  PHE694  ASN695  SER759  ASP760  ASP761  ALA762  ILE779  LEU786  VAL792 
 PHE793  MET794  SER795  GLU796  ALA797  LYS798  CYS799  TRP800  GLU811  SER814 

> <Gold.Protein.RotatedAtoms>
  150.7424  133.9880  159.3597 H   0  0  0  0  0  0  0  0  0  0  0  0  # atno 6907 bound_to 6896
  151.7826  135.0755  160.0385 H   0  0  0  0  0  0  0  0  0  0  0  0  # atno 6908 bound_to 6896
  152.3263  133.5872  159.5815 H   0  0  0  0  0  0  0  0  0  0  0  0  # atno 6909 bound_to 6896
  144.9126  140.6914  143.5015 H   0  0  0  0  0  0  0  0  0  0  0  0  # atno 7974 bound_to 7965
  155.9683  140.3387  155.6552 H   0  0  0  0  0  0  0  0  0  0  0  0  # atno 8008 bound_to 7997
  155.6708  140.0726  157.2539 H   0  0  0  0  0  0  0  0  0  0  0  0  # atno 8009 bound_to 7997
  154.4160  140.1692  156.1864 H   0  0  0  0  0  0  0  0  0  0  0  0  # atno 8010 bound_to 7997
  140.4650  143.2443  151.8292 H   0  0  0  0  0  0  0  0  0  0  0  0  # atno 10167 bound_to 10162
  157.6731  130.9849  150.1726 H   0  0  0  0  0  0  0  0  0  0  0  0  # atno 10718 bound_to 10713
  153.6954  135.6959  153.5078 H   0  0  0  0  0  0  0  0  0  0  0  0  # atno 10763 bound_to 10752
  153.2382  135.4315  155.0668 H   0  0  0  0  0  0  0  0  0  0  0  0  # atno 10764 bound_to 10752
  154.8360  135.3501  154.6494 H   0  0  0  0  0  0  0  0  0  0  0  0  # atno 10765 bound_to 10752
  141.0094  134.0287  157.3434 H   0  0  0  0  0  0  0  0  0  0  0  0  # atno 11005 bound_to 11000
  145.3429  139.1727  143.4476 LP  0  0  0  0  0  0  0  0  0  0  0  0  # atno 17320 bound_to 7965
  146.3166  140.3472  142.8653 LP  0  0  0  0  0  0  0  0  0  0  0  0  # atno 17321 bound_to 7965
  139.4811  144.4962  151.9121 LP  0  0  0  0  0  0  0  0  0  0  0  0  # atno 17342 bound_to 10162
  140.4047  144.2447  150.5891 LP  0  0  0  0  0  0  0  0  0  0  0  0  # atno 17343 bound_to 10162
  156.2477  130.3697  149.8267 LP  0  0  0  0  0  0  0  0  0  0  0  0  # atno 17370 bound_to 10713
  156.6048  130.8562  151.3440 LP  0  0  0  0  0  0  0  0  0  0  0  0  # atno 17371 bound_to 10713
  139.9081  135.0184  156.7574 LP  0  0  0  0  0  0  0  0  0  0  0  0  # atno 17394 bound_to 11000
  140.6759  133.9518  155.7883 LP  0  0  0  0  0  0  0  0  0  0  0  0  # atno 17395 bound_to 11000

$$$$
