AV-unprocessed.smi:1434|AV-procd|sdf|5851|dock7
  -GOLD-   22720 5523D 1   1.00000     0.00000
 Structure written by MMmdl.
 45 46  0  0  0  0  0  0  0  0  2 V2000
  146.8261  134.8505  161.7669 C   0  0  0  0  0  0  0  0  0  0  0  0
  147.6065  136.4446  161.2911 S   0  0  0  0  0  0  0  0  0  0  0  0
  146.6342  137.2248  160.5106 O   0  0  0  0  0  0  0  0  0  0  0  0
  148.2507  137.0363  162.4732 O   0  0  0  0  0  0  0  0  0  0  0  0
  148.8599  135.9399  160.2195 N   0  0  0  0  0  0  0  0  0  0  0  0
  149.0577  136.6855  158.9757 C   0  0  2  0  0  0  0  0  0  0  0  0
  148.6595  135.8185  157.7624 C   0  0  0  0  0  0  0  0  0  0  0  0
  149.0410  136.4931  156.4309 C   0  0  0  0  0  0  0  0  0  0  0  0
  150.5085  136.9587  156.4473 C   0  0  0  0  0  0  0  0  0  0  0  0
  150.7069  137.8561  157.5988 N   0  0  0  0  0  0  0  0  0  0  0  0
  150.8069  139.2085  157.5522 C   0  0  0  0  0  0  0  0  0  0  0  0
  150.8161  139.9203  158.5575 O   0  0  0  0  0  0  0  0  0  0  0  0
  150.9298  139.7226  156.3163 N   0  0  0  0  0  0  0  0  0  0  0  0
  151.0622  141.1417  156.0081 C   0  0  0  0  0  0  0  0  0  0  0  0
  150.1356  141.9989  156.8866 C   0  0  0  0  0  0  0  0  0  0  0  0
  150.9091  142.9474  157.7818 C   0  0  0  0  0  0  0  0  0  0  0  0
  151.9409  142.4986  158.6348 C   0  0  0  0  0  0  0  0  0  0  0  0
  152.6262  143.4332  159.4385 C   0  0  0  0  0  0  0  0  0  0  0  0
  152.2672  144.7954  159.3716 C   0  0  0  0  0  0  0  0  0  0  0  0
  151.2306  145.1890  158.5010 C   0  0  0  0  0  0  0  0  0  0  0  0
  150.5973  144.2633  157.7471 N   0  3  0  0  0  0  0  0  0  0  0  0
  150.5268  137.1381  158.8669 C   0  0  0  0  0  0  0  0  0  0  0  0
  146.0092  135.0413  162.4624 H   0  0  0  0  0  0  0  0  0  0  0  0
  147.5659  134.2090  162.2450 H   0  0  0  0  0  0  0  0  0  0  0  0
  146.4357  134.3565  160.8773 H   0  0  0  0  0  0  0  0  0  0  0  0
  149.7413  135.8216  160.7183 H   0  0  0  0  0  0  0  0  0  0  0  0
  148.4274  137.5763  159.0008 H   0  0  0  0  0  0  0  0  0  0  0  0
  149.1670  134.8547  157.8249 H   0  0  0  0  0  0  0  0  0  0  0  0
  147.5907  135.6043  157.7784 H   0  0  0  0  0  0  0  0  0  0  0  0
  148.8740  135.8033  155.6031 H   0  0  0  0  0  0  0  0  0  0  0  0
  148.3892  137.3501  156.2566 H   0  0  0  0  0  0  0  0  0  0  0  0
  151.1700  136.0969  156.5476 H   0  0  0  0  0  0  0  0  0  0  0  0
  150.7648  137.4062  155.4871 H   0  0  0  0  0  0  0  0  0  0  0  0
  150.9299  139.0812  155.5365 H   0  0  0  0  0  0  0  0  0  0  0  0
  152.1010  141.4534  156.1306 H   0  0  0  0  0  0  0  0  0  0  0  0
  150.8180  141.2846  154.9552 H   0  0  0  0  0  0  0  0  0  0  0  0
  149.4546  142.5770  156.2603 H   0  0  0  0  0  0  0  0  0  0  0  0
  149.5092  141.3604  157.5112 H   0  0  0  0  0  0  0  0  0  0  0  0
  152.2064  141.4519  158.6729 H   0  0  0  0  0  0  0  0  0  0  0  0
  153.4182  143.1087  160.0977 H   0  0  0  0  0  0  0  0  0  0  0  0
  152.7801  145.5273  159.9788 H   0  0  0  0  0  0  0  0  0  0  0  0
  150.8914  146.2081  158.3854 H   0  0  0  0  0  0  0  0  0  0  0  0
  150.8014  137.7440  159.7321 H   0  0  0  0  0  0  0  0  0  0  0  0
  151.1939  136.2749  158.8894 H   0  0  0  0  0  0  0  0  0  0  0  0
  149.8505  144.5712  157.1237 H   0  0  0  0  0  0  0  0  0  0  0  0
  1  2  1  0  0  0  0
  1 23  1  0  0  0  0
  1 24  1  0  0  0  0
  1 25  1  0  0  0  0
  2  3  2  0  0  0  0
  2  4  2  0  0  0  0
  2  5  1  0  0  0  0
  5  6  1  0  0  0  0
  5 26  1  0  0  0  0
  6 22  1  0  0  0  0
  6  7  1  0  0  0  0
  6 27  1  0  0  0  0
  7  8  1  0  0  0  0
  7 28  1  0  0  0  0
  7 29  1  0  0  0  0
  8  9  1  0  0  0  0
  8 30  1  0  0  0  0
  8 31  1  0  0  0  0
  9 10  1  0  0  0  0
  9 32  1  0  0  0  0
  9 33  1  0  0  0  0
 10 11  1  0  0  0  0
 10 22  1  0  0  0  0
 11 12  2  0  0  0  0
 11 13  1  0  0  0  0
 13 14  1  0  0  0  0
 13 34  1  0  0  0  0
 14 15  1  0  0  0  0
 14 35  1  0  0  0  0
 14 36  1  0  0  0  0
 15 16  1  0  0  0  0
 15 37  1  0  0  0  0
 15 38  1  0  0  0  0
 16 21  1  0  0  0  0
 16 17  2  0  0  0  0
 17 18  1  0  0  0  0
 17 39  1  0  0  0  0
 18 19  2  0  0  0  0
 18 40  1  0  0  0  0
 19 20  1  0  0  0  0
 19 41  1  0  0  0  0
 20 21  2  0  0  0  0
 20 42  1  0  0  0  0
 21 45  1  0  0  0  0
 22 43  1  0  0  0  0
 22 44  1  0  0  0  0
M  CHG  1  21   1
M  END
> <s_m_source_file>
AV-unprocessed.smi

> <i_m_source_file_index>
1434

> <i_lp_mmshare_version>
43012

> <i_f3d_flags>
0

> <s_epik_input>
W0NIM11TKD1PKSg9TylbTkhdW0NAQEhdMVtDSDJdW0NIMl1bQ0gyXU4oW0NIMl0xKUMoPU8pW05IXVtDSDJdW0NIMl1jMltjSF1bY0hdW2NIXVtjSF1uMg==

> <s_epik_cmdline>
J2VwaWtfcHl0aG9uJywgJy1waCcsICc3LjAnLCAnLXRuJywgJzgnLCAnLW1hJywgJzIwMCcsICctbWV0YWxfYmluZGluZycsICctaW1hZScsICc8aW5maWxlLm1hZT4nLCAnLW9tYWUnLCAnPG91dGZpbGUubWFlPic=

> <r_epik_Ionization_Penalty>
1.55113

> <r_epik_Ionization_Penalty_Charging>
1.55107

> <r_epik_Ionization_Penalty_Neutral>
6.01346e-05

> <r_epik_State_Penalty>
1.64529

> <r_epik_Charging_Adjusted_Penalty>
3.19637

> <i_epik_Tot_Q>
1

> <i_epik_Tot_abs_Q>
1

> <r_epik_Metal_State_Penalty>
1.69621

> <b_epik_Metal_Only>
0

> <s_lp_Force_Field>
OPLS_2005

> <r_lp_Energy>
27.1225

> <b_lp_Chiralities_Consistent>
1

> <s_lp_Variant>
AV-unprocessed.smi:1434-3

> <Gold.Version>
5.8.1

> <Gold.Id.Protein>
6NUR|6NUR_protein|mol2

> <Gold.PLP.Fitness>
45.6961

> <Gold.PLP.PLP>
-36.7454

> <Gold.PLP.part.hbond>
-3.3869

> <Gold.PLP.part.metal>
0.0000

> <Gold.PLP.part.buried>
-6.1669

> <Gold.PLP.part.nonpolar>
-27.7655

> <Gold.PLP.part.repulsive>
0.1143

> <Gold.PLP.ligand.clash>
0.0000

> <Gold.PLP.ligand.torsion>
1.6063

> <Gold.PLP.Chemscore.Hbond>
4.0000

> <Gold.PLP.Chemscore.CHOScore>
0.0000

> <Gold.PLP.Chemscore.Metal>
0.0000

> <Gold.Chemscore.Hbonds>
donor molecule, donor type, donor heavy atom, donor atom, acceptor molecule, acceptor atom, score
      L1  H    21    45       P1  8028  2.00
      P1  H  6931  6943       L1     4  1.00
      P1  H  6934  6947       L1     3  1.00

> <Gold.PLP.Chemscore.Internal.Correction>
0.1635

> <Gold.Rescore>
     Score         DG    S(hbond)    S(metal)    S(lipo)     H(rot)  DE(clash)    DE(int)     intcor
     15.40     -18.60       2.28        0.00      93.79       2.13       0.05       3.15       ----

> <Gold.Chemscore.Fitness>
15.3975

> <Gold.Chemscore.DG>
-18.6000

> <Gold.Chemscore.ZeroCoef>
-5.4800

> <Gold.Chemscore.Hbond>
2.2772

> <Gold.Chemscore.Metal>
0.0000

> <Gold.Chemscore.Lipo>
93.7916

> <Gold.Chemscore.Internal_Hbond>
0.0000

> <Gold.Chemscore.DEClash>
0.0532

> <Gold.Chemscore.DEInternal>
3.1494

> <Gold.Chemscore.Rot>
2.1326

> <Gold.Chemscore.Internal.Correction>
   9.000000E+99

> <Gold.Chemscore.Hbonds>
donor molecule, donor type, donor heavy atom, donor atom, acceptor molecule, acceptor atom, score
      L1  H    21    45       P1  8028  0.26
      P1  H  6931  6943       L1     4  0.50
      P1  H  6934  6947       L1     3  0.35

> <Gold.Chemscore.Hbond.Weighted>
-7.6060

> <Gold.Chemscore.Metal.Weighted>
-0.0000

> <Gold.Chemscore.Lipo.Weighted>
-10.9736

> <Gold.Chemscore.Internal_Hbond.Weighted>
0.0000

> <Gold.Chemscore.DEClash.Weighted>
0.0532

> <Gold.Chemscore.DEInternal.Weighted>
3.1494

> <Gold.Chemscore.Rot.Weighted>
5.4595

> <Gold.Chemscore.Internal.Correction.Weighted>
   9.000000E+99

> <Gold.Protein.RotatedTorsions>
[ 6907 6896 6895 6894 ] final  -78.31 input  -60.11 | X-H torsion
[ 7974 7965 7964 7962 ] final  151.70 input  175.53 | X-H torsion
[ 8008 7997 7996 7995 ] final  -79.86 input   59.86 | X-H torsion
[ 10167 10162 10161 10158 ] final  -37.39 input  -65.29 | X-H torsion
[ 10718 10713 10712 10709 ] final  157.56 input   66.30 | X-H torsion
[ 10763 10752 10751 10750 ] final   53.94 input  -60.55 | X-H torsion
[ 11005 11000 10999 10996 ] final  -86.12 input  -57.11 | X-H torsion

> <Gold.Protein.ActiveResidues>
 VAL166  LYS551  ARG553  GLY616  TRP617  ASP618  TYR619  PRO620  LYS621  CYS622 
 ASP623  PHE694  ASN695  SER759  ASP760  ASP761  ALA762  ILE779  LEU786  VAL792 
 PHE793  MET794  SER795  GLU796  ALA797  LYS798  CYS799  TRP800  GLU811  SER814 

> <Gold.Protein.RotatedAtoms>
  150.6976  134.4291  159.5239 H   0  0  0  0  0  0  0  0  0  0  0  0  # atno 6907 bound_to 6896
  152.2021  134.8576  160.0516 H   0  0  0  0  0  0  0  0  0  0  0  0  # atno 6908 bound_to 6896
  151.9492  133.3626  159.4030 H   0  0  0  0  0  0  0  0  0  0  0  0  # atno 6909 bound_to 6896
  144.8274  139.6572  143.6074 H   0  0  0  0  0  0  0  0  0  0  0  0  # atno 7974 bound_to 7965
  154.5826  140.0672  156.9126 H   0  0  0  0  0  0  0  0  0  0  0  0  # atno 8008 bound_to 7997
  155.2436  140.3346  155.4271 H   0  0  0  0  0  0  0  0  0  0  0  0  # atno 8009 bound_to 7997
  156.2200  140.1794  156.7484 H   0  0  0  0  0  0  0  0  0  0  0  0  # atno 8010 bound_to 7997
  140.7119  143.3345  151.2493 H   0  0  0  0  0  0  0  0  0  0  0  0  # atno 10167 bound_to 10162
  157.1898  131.0652  151.2085 H   0  0  0  0  0  0  0  0  0  0  0  0  # atno 10718 bound_to 10713
  152.9800  135.5762  154.4823 H   0  0  0  0  0  0  0  0  0  0  0  0  # atno 10763 bound_to 10752
  154.4370  135.2775  155.1876 H   0  0  0  0  0  0  0  0  0  0  0  0  # atno 10764 bound_to 10752
  154.3560  135.6199  153.5720 H   0  0  0  0  0  0  0  0  0  0  0  0  # atno 10765 bound_to 10752
  141.1634  133.7436  156.9114 H   0  0  0  0  0  0  0  0  0  0  0  0  # atno 11005 bound_to 11000
  146.2579  139.6343  142.9382 LP  0  0  0  0  0  0  0  0  0  0  0  0  # atno 17320 bound_to 7965
  145.4970  141.0438  143.2561 LP  0  0  0  0  0  0  0  0  0  0  0  0  # atno 17321 bound_to 7965
  139.6836  143.9811  152.2822 LP  0  0  0  0  0  0  0  0  0  0  0  0  # atno 17342 bound_to 10162
  139.9449  144.6657  150.8229 LP  0  0  0  0  0  0  0  0  0  0  0  0  # atno 17343 bound_to 10162
  157.3871  130.7262  149.6671 LP  0  0  0  0  0  0  0  0  0  0  0  0  # atno 17370 bound_to 10713
  155.9713  130.4156  150.4192 LP  0  0  0  0  0  0  0  0  0  0  0  0  # atno 17371 bound_to 10713
  140.1514  134.9227  157.2597 LP  0  0  0  0  0  0  0  0  0  0  0  0  # atno 17394 bound_to 11000
  140.2718  134.3451  155.7371 LP  0  0  0  0  0  0  0  0  0  0  0  0  # atno 17395 bound_to 11000

$$$$
