AV-unprocessed.smi:196|AV-procd|sdf|1542|dock2
  -GOLD-   2262019403D 1   1.00000     0.00000
 Structure written by MMmdl.
 47 50  0  0  0  0  0  0  0  0  1 V2000
  144.3064  131.4746  150.6110 C   0  0  0  0  0  0  0  0  0  0  0  0
  145.4636  132.4846  150.6734 C   0  0  2  0  0  0  0  0  0  0  0  0
  146.6959  131.8258  150.9647 O   0  0  0  0  0  0  0  0  0  0  0  0
  147.3075  132.4113  152.1057 C   0  0  0  0  0  0  0  0  0  0  0  0
  146.7590  133.8317  152.1454 C   0  0  0  0  0  0  0  0  0  0  0  0
  145.3198  133.6411  151.6892 C   0  0  2  0  0  0  0  0  0  0  0  0
  144.5443  133.2403  152.8083 O   0  0  0  0  0  0  0  0  0  0  0  0
  144.6783  134.9082  151.0765 C   0  0  0  0  0  0  0  0  0  0  0  0
  145.4168  136.1278  151.3638 N   0  0  0  0  0  0  0  0  0  0  0  0
  145.9856  136.9820  150.4450 C   0  0  0  0  0  0  0  0  0  0  0  0
  146.6012  138.0158  150.9507 N   0  0  0  0  0  0  0  0  0  0  0  0
  146.4541  137.8546  152.3219 C   0  0  0  0  0  0  0  0  0  0  0  0
  146.8825  138.5965  153.4523 C   0  0  0  0  0  0  0  0  0  0  0  0
  147.5963  139.7370  153.3257 N   0  0  0  0  0  0  0  0  0  0  0  0
  146.8087  140.9481  153.1195 C   0  0  0  0  0  0  0  0  0  0  0  0
  147.4583  142.0335  153.9822 C   0  0  1  0  0  0  0  0  0  0  0  0
  146.8115  142.1197  155.1458 F   0  0  0  0  0  0  0  0  0  0  0  0
  148.8677  141.5012  154.2230 C   0  0  0  0  0  0  0  0  0  0  0  0
  148.6536  139.9847  154.3074 C   0  0  2  0  0  0  0  0  0  0  0  0
  149.9361  139.2020  153.9883 C   0  0  0  0  0  0  0  0  0  0  0  0
  149.8366  138.2292  153.0797 N   0  0  0  0  0  0  0  0  0  0  0  0
  150.9961  139.4585  154.5570 O   0  0  0  0  0  0  0  0  0  0  0  0
  146.5464  138.1338  154.6848 N   0  0  0  0  0  0  0  0  0  0  0  0
  145.8412  137.0044  154.8020 C   0  0  0  0  0  0  0  0  0  0  0  0
  145.3812  136.2032  153.8379 N   0  0  0  0  0  0  0  0  0  0  0  0
  145.7131  136.6733  152.6008 C   0  0  0  0  0  0  0  0  0  0  0  0
  147.4389  143.0216  153.5217 H   0  0  0  0  0  0  0  0  0  0  0  0
  148.3081  139.7298  155.3113 H   0  0  0  0  0  0  0  0  0  0  0  0
  143.3596  131.9744  150.4053 H   0  0  0  0  0  0  0  0  0  0  0  0
  144.2027  130.9234  151.5462 H   0  0  0  0  0  0  0  0  0  0  0  0
  144.4748  130.7445  149.8190 H   0  0  0  0  0  0  0  0  0  0  0  0
  145.5943  132.9102  149.6774 H   0  0  0  0  0  0  0  0  0  0  0  0
  147.0056  131.8566  152.9949 H   0  0  0  0  0  0  0  0  0  0  0  0
  148.3951  132.3816  152.0375 H   0  0  0  0  0  0  0  0  0  0  0  0
  146.8541  134.3032  153.1244 H   0  0  0  0  0  0  0  0  0  0  0  0
  147.3046  134.4424  151.4252 H   0  0  0  0  0  0  0  0  0  0  0  0
  144.0191  133.9751  153.0862 H   0  0  0  0  0  0  0  0  0  0  0  0
  144.5993  134.8069  149.9932 H   0  0  0  0  0  0  0  0  0  0  0  0
  143.6589  135.0300  151.4452 H   0  0  0  0  0  0  0  0  0  0  0  0
  145.9257  136.8149  149.3792 H   0  0  0  0  0  0  0  0  0  0  0  0
  146.8803  141.2143  152.0645 H   0  0  0  0  0  0  0  0  0  0  0  0
  145.7495  140.8253  153.3541 H   0  0  0  0  0  0  0  0  0  0  0  0
  149.5034  141.7582  153.3737 H   0  0  0  0  0  0  0  0  0  0  0  0
  149.3263  141.9151  155.1217 H   0  0  0  0  0  0  0  0  0  0  0  0
  150.6492  137.6822  152.8347 H   0  0  0  0  0  0  0  0  0  0  0  0
  148.9459  138.0428  152.6420 H   0  0  0  0  0  0  0  0  0  0  0  0
  145.6134  136.6986  155.8123 H   0  0  0  0  0  0  0  0  0  0  0  0
  1  2  1  0  0  0  0
  1 29  1  0  0  0  0
  1 30  1  0  0  0  0
  1 31  1  0  0  0  0
  2  6  1  0  0  0  0
  2  3  1  0  0  0  0
  2 32  1  0  0  0  0
  3  4  1  0  0  0  0
  4  5  1  0  0  0  0
  4 33  1  0  0  0  0
  4 34  1  0  0  0  0
  5  6  1  0  0  0  0
  5 35  1  0  0  0  0
  5 36  1  0  0  0  0
  6  7  1  0  0  0  0
  6  8  1  0  0  0  0
  7 37  1  0  0  0  0
  8  9  1  0  0  0  0
  8 38  1  0  0  0  0
  8 39  1  0  0  0  0
  9 26  1  0  0  0  0
  9 10  1  0  0  0  0
 10 11  2  0  0  0  0
 10 40  1  0  0  0  0
 11 12  1  0  0  0  0
 12 26  2  0  0  0  0
 12 13  1  0  0  0  0
 13 14  1  0  0  0  0
 13 23  2  0  0  0  0
 14 19  1  0  0  0  0
 14 15  1  0  0  0  0
 15 16  1  0  0  0  0
 15 41  1  0  0  0  0
 15 42  1  0  0  0  0
 16 27  1  0  0  0  0
 16 17  1  0  0  0  0
 16 18  1  0  0  0  0
 18 19  1  0  0  0  0
 18 43  1  0  0  0  0
 18 44  1  0  0  0  0
 19 28  1  0  0  0  0
 19 20  1  0  0  0  0
 20 21  1  0  0  0  0
 20 22  2  0  0  0  0
 21 45  1  0  0  0  0
 21 46  1  0  0  0  0
 23 24  1  0  0  0  0
 24 25  2  0  0  0  0
 24 47  1  0  0  0  0
 25 26  1  0  0  0  0
M  END
> <s_m_source_file>
AV-unprocessed.smi

> <i_m_source_file_index>
196

> <i_lp_mmshare_version>
43012

> <i_f3d_flags>
0

> <s_epik_input>
W0NIMl0xW0NIMl1PW0NAQEhdKFtDSDNdKVtDQEBdMShbT0hdKVtDSDJdbihbY0hdbjIpYyhjMjMpbltjSF1uYzNONFtDSDJdW0NASF0oRilbQ0gyXVtDQEhdNEMoPU8pW05IMl0=

> <s_epik_cmdline>
J2VwaWtfcHl0aG9uJywgJy1waCcsICc3LjAnLCAnLXRuJywgJzgnLCAnLW1hJywgJzIwMCcsICctbWV0YWxfYmluZGluZycsICctaW1hZScsICc8aW5maWxlLm1hZT4nLCAnLW9tYWUnLCAnPG91dGZpbGUubWFlPic=

> <r_lp_tautomer_probability>
1

> <r_epik_Ionization_Penalty>
0.000857933

> <r_epik_Ionization_Penalty_Charging>
0

> <r_epik_Ionization_Penalty_Neutral>
0.000857933

> <r_epik_State_Penalty>
0.000462053

> <r_epik_Charging_Adjusted_Penalty>
0.000462053

> <i_epik_Tot_Q>
0

> <i_epik_Tot_abs_Q>
0

> <r_epik_Metal_State_Penalty>
-0

> <b_epik_Metal_Only>
0

> <s_lp_Force_Field>
OPLS_2005

> <r_lp_Energy>
44.722

> <b_lp_Chiralities_Consistent>
1

> <s_lp_Variant>
AV-unprocessed.smi:196-15

> <Gold.Version>
5.8.1

> <Gold.Id.Protein>
6NUR|6NUR_protein|mol2

> <Gold.PLP.Fitness>
42.7455

> <Gold.PLP.PLP>
-37.2283

> <Gold.PLP.part.hbond>
-5.4301

> <Gold.PLP.part.metal>
0.0000

> <Gold.PLP.part.buried>
0.0066

> <Gold.PLP.part.nonpolar>
-37.4399

> <Gold.PLP.part.repulsive>
5.0775

> <Gold.PLP.ligand.clash>
0.0000

> <Gold.PLP.ligand.torsion>
1.8846

> <Gold.PLP.Chemscore.Hbond>
2.1597

> <Gold.PLP.Chemscore.CHOScore>
0.8726

> <Gold.PLP.Chemscore.Metal>
0.0000

> <Gold.Chemscore.Hbonds>
donor molecule, donor type, donor heavy atom, donor atom, acceptor molecule, acceptor atom, score
      L1  H    21    45       P1  7949  0.24
      L1  H    21    46       P1  7948  0.18
      P1  H  7954  7966       L1    11  0.80
      P1  H  7989  7998       L1    22  1.00
      L1  C    10    40       P1  7921  0.76

> <Gold.PLP.Chemscore.Internal.Correction>
0.1895

> <Gold.Rescore>
     Score         DG    S(hbond)    S(metal)    S(lipo)     H(rot)  DE(clash)    DE(int)     intcor
      1.11      -7.47       0.26        0.00      76.29       3.04       3.42       2.94       ----

> <Gold.Chemscore.Fitness>
1.1097

> <Gold.Chemscore.DG>
-7.4719

> <Gold.Chemscore.ZeroCoef>
-5.4800

> <Gold.Chemscore.Hbond>
0.2550

> <Gold.Chemscore.Metal>
0.0000

> <Gold.Chemscore.Lipo>
76.2878

> <Gold.Chemscore.Internal_Hbond>
0.0000

> <Gold.Chemscore.DEClash>
3.4174

> <Gold.Chemscore.DEInternal>
2.9447

> <Gold.Chemscore.Rot>
3.0413

> <Gold.Chemscore.Internal.Correction>
   9.000000E+99

> <Gold.Chemscore.Hbonds>
donor molecule, donor type, donor heavy atom, donor atom, acceptor molecule, acceptor atom, score
      L1  H    21    45       P1  7949  0.02
      L1  H    21    46       P1  7948  0.18
      P1  H  7954  7966       L1    11  0.12
      P1  H  7989  7998       L1    22  0.30

> <Gold.Chemscore.Hbond.Weighted>
-0.8518

> <Gold.Chemscore.Metal.Weighted>
-0.0000

> <Gold.Chemscore.Lipo.Weighted>
-8.9257

> <Gold.Chemscore.Internal_Hbond.Weighted>
0.0000

> <Gold.Chemscore.DEClash.Weighted>
3.4174

> <Gold.Chemscore.DEInternal.Weighted>
2.9447

> <Gold.Chemscore.Rot.Weighted>
7.7856

> <Gold.Chemscore.Internal.Correction.Weighted>
   9.000000E+99

> <Gold.Protein.RotatedTorsions>
[ 6907 6896 6895 6894 ] final    1.06 input  -60.11 | X-H torsion
[ 7974 7965 7964 7962 ] final   68.03 input  175.53 | X-H torsion
[ 8008 7997 7996 7995 ] final   52.49 input   59.86 | X-H torsion
[ 10167 10162 10161 10158 ] final  151.03 input  -65.29 | X-H torsion
[ 10718 10713 10712 10709 ] final    3.18 input   66.30 | X-H torsion
[ 10763 10752 10751 10750 ] final -119.85 input  -60.55 | X-H torsion
[ 11005 11000 10999 10996 ] final  152.44 input  -57.11 | X-H torsion

> <Gold.Protein.ActiveResidues>
 VAL166  LYS551  ARG553  GLY616  TRP617  ASP618  TYR619  PRO620  LYS621  CYS622 
 ASP623  PHE694  ASN695  SER759  ASP760  ASP761  ALA762  ILE779  LEU786  VAL792 
 PHE793  MET794  SER795  GLU796  ALA797  LYS798  CYS799  TRP800  GLU811  SER814 

> <Gold.Protein.RotatedAtoms>
  151.5865  135.1056  160.0029 H   0  0  0  0  0  0  0  0  0  0  0  0  # atno 6907 bound_to 6896
  152.4328  133.7303  159.6594 H   0  0  0  0  0  0  0  0  0  0  0  0  # atno 6908 bound_to 6896
  150.8222  133.8163  159.3157 H   0  0  0  0  0  0  0  0  0  0  0  0  # atno 6909 bound_to 6896
  145.8075  139.3015  143.1118 H   0  0  0  0  0  0  0  0  0  0  0  0  # atno 7974 bound_to 7965
  155.4527  140.3459  155.4303 H   0  0  0  0  0  0  0  0  0  0  0  0  # atno 8008 bound_to 7997
  156.1210  140.1487  156.9234 H   0  0  0  0  0  0  0  0  0  0  0  0  # atno 8009 bound_to 7997
  154.4823  140.0866  156.7386 H   0  0  0  0  0  0  0  0  0  0  0  0  # atno 8010 bound_to 7997
  139.4844  144.5474  151.7460 H   0  0  0  0  0  0  0  0  0  0  0  0  # atno 10167 bound_to 10162
  156.8740  130.5630  149.5656 H   0  0  0  0  0  0  0  0  0  0  0  0  # atno 10718 bound_to 10713
  154.8628  135.4224  154.2365 H   0  0  0  0  0  0  0  0  0  0  0  0  # atno 10763 bound_to 10752
  153.3339  135.6990  153.6930 H   0  0  0  0  0  0  0  0  0  0  0  0  # atno 10764 bound_to 10752
  153.5935  135.3550  155.2893 H   0  0  0  0  0  0  0  0  0  0  0  0  # atno 10765 bound_to 10752
  140.1308  134.8803  157.2201 H   0  0  0  0  0  0  0  0  0  0  0  0  # atno 11005 bound_to 11000
  145.9812  140.8681  143.0113 LP  0  0  0  0  0  0  0  0  0  0  0  0  # atno 17320 bound_to 7965
  144.6761  140.2083  143.7380 LP  0  0  0  0  0  0  0  0  0  0  0  0  # atno 17321 bound_to 7965
  140.5023  144.1150  150.5974 LP  0  0  0  0  0  0  0  0  0  0  0  0  # atno 17342 bound_to 10162
  140.4048  143.2686  151.9904 LP  0  0  0  0  0  0  0  0  0  0  0  0  # atno 17343 bound_to 10162
  156.0711  130.5744  150.9386 LP  0  0  0  0  0  0  0  0  0  0  0  0  # atno 17370 bound_to 10713
  157.6179  131.0932  150.8677 LP  0  0  0  0  0  0  0  0  0  0  0  0  # atno 17371 bound_to 10713
  140.2845  134.3312  155.7333 LP  0  0  0  0  0  0  0  0  0  0  0  0  # atno 17394 bound_to 11000
  141.2170  133.7498  156.9412 LP  0  0  0  0  0  0  0  0  0  0  0  0  # atno 17395 bound_to 11000

$$$$
