AV-unprocessed.smi:34|AV-procd|sdf|238|dock7
  -GOLD-   2262015583D 1   1.00000     0.00000
 Structure written by MMmdl.
 54 58  0  0  0  0  0  0  0  0  2 V2000
  151.2911  140.7574  155.4719 O   0  0  0  0  0  0  0  0  0  0  0  0
  151.3216  140.5366  156.6845 C   0  0  0  0  0  0  0  0  0  0  0  0
  151.0592  139.3698  157.3258 N   0  5  0  0  0  0  0  0  0  0  0  0
  149.7976  139.0537  157.6549 C   0  0  0  0  0  0  0  0  0  0  0  0
  148.7646  139.8230  157.2272 N   0  0  0  0  0  0  0  0  0  0  0  0
  147.5077  139.5144  157.5654 C   0  0  0  0  0  0  0  0  0  0  0  0
  147.0649  138.5015  158.3159 N   0  0  0  0  0  0  0  0  0  0  0  0
  148.0935  137.7219  158.7595 C   0  0  0  0  0  0  0  0  0  0  0  0
  149.4739  137.9365  158.4729 C   0  0  0  0  0  0  0  0  0  0  0  0
  150.2597  136.9656  159.0752 N   0  0  0  0  0  0  0  0  0  0  0  0
  149.3425  136.2192  159.6850 C   0  0  0  0  0  0  0  0  0  0  0  0
  148.0516  136.5847  159.5538 N   0  0  0  0  0  0  0  0  0  0  0  0
  146.8629  135.8952  160.1542 C   0  0  1  0  0  0  0  0  0  0  0  0
  147.1616  134.5454  160.3639 O   0  0  0  0  0  0  0  0  0  0  0  0
  147.0939  134.2405  161.7538 C   0  0  2  0  0  0  0  0  0  0  0  0
  146.7150  132.7703  161.9693 C   0  0  0  0  0  0  0  0  0  0  0  0
  145.4401  132.5222  161.3985 O   0  0  0  0  0  0  0  0  0  0  0  0
  145.0410  131.2567  161.1639 C   0  0  0  0  0  0  0  0  0  0  0  0
  145.7383  130.2671  161.3965 O   0  0  0  0  0  0  0  0  0  0  0  0
  143.6686  131.1787  160.5857 C   0  0  0  0  0  0  0  0  0  0  0  0
  142.9455  129.9665  160.6793 C   0  0  0  0  0  0  0  0  0  0  0  0
  141.6483  129.8612  160.1407 C   0  0  0  0  0  0  0  0  0  0  0  0
  141.0572  130.9679  159.5036 C   0  0  0  0  0  0  0  0  0  0  0  0
  141.7653  132.1799  159.4053 C   0  0  0  0  0  0  0  0  0  0  0  0
  143.0635  132.2865  159.9419 C   0  0  0  0  0  0  0  0  0  0  0  0
  146.1003  135.2591  162.3145 C   0  0  2  0  0  0  0  0  0  0  0  0
  144.8441  134.8796  162.0701 F   0  0  0  0  0  0  0  0  0  0  0  0
  146.4163  136.5013  161.5017 C   0  0  1  0  0  0  0  0  0  0  0  0
  147.3951  137.2952  162.1483 O   0  0  0  0  0  0  0  0  0  0  0  0
  151.6202  141.6757  157.6227 C   0  0  0  0  0  0  0  0  0  0  0  0
  152.1743  141.4086  158.8956 C   0  0  0  0  0  0  0  0  0  0  0  0
  152.4371  142.4584  159.7972 C   0  0  0  0  0  0  0  0  0  0  0  0
  152.1402  143.7868  159.4391 C   0  0  0  0  0  0  0  0  0  0  0  0
  151.5755  144.0640  158.1802 C   0  0  0  0  0  0  0  0  0  0  0  0
  151.3124  143.0147  157.2780 C   0  0  0  0  0  0  0  0  0  0  0  0
  146.7463  140.1758  157.1793 H   0  0  0  0  0  0  0  0  0  0  0  0
  149.6273  135.3520  160.2625 H   0  0  0  0  0  0  0  0  0  0  0  0
  146.0902  135.9632  159.3874 H   0  0  0  0  0  0  0  0  0  0  0  0
  148.0748  134.4256  162.1915 H   0  0  0  0  0  0  0  0  0  0  0  0
  147.4691  132.1160  161.5297 H   0  0  0  0  0  0  0  0  0  0  0  0
  146.6747  132.5494  163.0366 H   0  0  0  0  0  0  0  0  0  0  0  0
  143.3794  129.1028  161.1626 H   0  0  0  0  0  0  0  0  0  0  0  0
  141.1070  128.9296  160.2169 H   0  0  0  0  0  0  0  0  0  0  0  0
  140.0622  130.8873  159.0911 H   0  0  0  0  0  0  0  0  0  0  0  0
  141.3124  133.0305  158.9173 H   0  0  0  0  0  0  0  0  0  0  0  0
  143.5787  133.2316  159.8505 H   0  0  0  0  0  0  0  0  0  0  0  0
  146.1904  135.4022  163.3921 H   0  0  0  0  0  0  0  0  0  0  0  0
  145.5316  137.1201  161.3462 H   0  0  0  0  0  0  0  0  0  0  0  0
  147.2140  137.3002  163.0760 H   0  0  0  0  0  0  0  0  0  0  0  0
  152.4067  140.3941  159.1867 H   0  0  0  0  0  0  0  0  0  0  0  0
  152.8655  142.2434  160.7650 H   0  0  0  0  0  0  0  0  0  0  0  0
  152.3412  144.5915  160.1305 H   0  0  0  0  0  0  0  0  0  0  0  0
  151.3408  145.0819  157.9062 H   0  0  0  0  0  0  0  0  0  0  0  0
  150.8685  143.2485  156.3210 H   0  0  0  0  0  0  0  0  0  0  0  0
  1  2  2  0  0  0  0
  2  3  1  0  0  0  0
  2 30  1  0  0  0  0
  3  4  1  0  0  0  0
  4  9  1  0  0  0  0
  4  5  2  0  0  0  0
  5  6  1  0  0  0  0
  6  7  2  0  0  0  0
  6 36  1  0  0  0  0
  7  8  1  0  0  0  0
  8 12  1  0  0  0  0
  8  9  2  0  0  0  0
  9 10  1  0  0  0  0
 10 11  2  0  0  0  0
 11 12  1  0  0  0  0
 11 37  1  0  0  0  0
 12 13  1  0  0  0  0
 13 28  1  0  0  0  0
 13 14  1  0  0  0  0
 13 38  1  0  0  0  0
 14 15  1  0  0  0  0
 15 16  1  0  0  0  0
 15 26  1  0  0  0  0
 15 39  1  0  0  0  0
 16 17  1  0  0  0  0
 16 40  1  0  0  0  0
 16 41  1  0  0  0  0
 17 18  1  0  0  0  0
 18 19  2  0  0  0  0
 18 20  1  0  0  0  0
 20 25  1  0  0  0  0
 20 21  2  0  0  0  0
 21 22  1  0  0  0  0
 21 42  1  0  0  0  0
 22 23  2  0  0  0  0
 22 43  1  0  0  0  0
 23 24  1  0  0  0  0
 23 44  1  0  0  0  0
 24 25  2  0  0  0  0
 24 45  1  0  0  0  0
 25 46  1  0  0  0  0
 26 27  1  0  0  0  0
 26 28  1  0  0  0  0
 26 47  1  0  0  0  0
 28 29  1  0  0  0  0
 28 48  1  0  0  0  0
 29 49  1  0  0  0  0
 30 35  1  0  0  0  0
 30 31  2  0  0  0  0
 31 32  1  0  0  0  0
 31 50  1  0  0  0  0
 32 33  2  0  0  0  0
 32 51  1  0  0  0  0
 33 34  1  0  0  0  0
 33 52  1  0  0  0  0
 34 35  2  0  0  0  0
 34 53  1  0  0  0  0
 35 54  1  0  0  0  0
M  CHG  1   3  -1
M  END
> <s_m_source_file>
AV-unprocessed.smi

> <i_m_source_file_index>
34

> <i_lp_mmshare_version>
43012

> <i_f3d_flags>
0

> <s_epik_input>
W2NIXTFbY0hdW2NIXVtjSF1bY0hdYzFDKD1PKVtOSF1jKG5bY0hdbjIpYyhjMjMpbltjSF1uM1tDQEBIXTRPW0NASF0oW0NAQEhdKEYpW0NASF00W09IXSlbQ0gyXU9DKD1PKWM1W2NIXVtjSF1bY0hdW2NIXVtjSF01

> <s_epik_cmdline>
J2VwaWtfcHl0aG9uJywgJy1waCcsICc3LjAnLCAnLXRuJywgJzgnLCAnLW1hJywgJzIwMCcsICctbWV0YWxfYmluZGluZycsICctaW1hZScsICc8aW5maWxlLm1hZT4nLCAnLW9tYWUnLCAnPG91dGZpbGUubWFlPic=

> <r_lp_tautomer_probability>
1

> <r_epik_Ionization_Penalty>
4.33227

> <r_epik_Ionization_Penalty_Charging>
3.41027

> <r_epik_Ionization_Penalty_Neutral>
0.922001

> <r_epik_State_Penalty>
3.41358

> <r_epik_Charging_Adjusted_Penalty>
6.82385

> <i_epik_Tot_Q>
-1

> <i_epik_Tot_abs_Q>
1

> <r_epik_Metal_State_Penalty>
0.496292

> <b_epik_Metal_Only>
1

> <s_epik_Chemistry_Notes>
This compound has an ester and may undergo hydrolysis at high or low pH. This compound contains an acetal/aminal-like group ( X-CH(R)-Y where X, Y are N, S, or O) that may be acid/base labile, releasing an aldehyde.

> <s_lp_Force_Field>
OPLS_2005

> <r_lp_Energy>
49.908

> <b_lp_Chiralities_Consistent>
1

> <s_lp_Variant>
AV-unprocessed.smi:34-24

> <Gold.Version>
5.8.1

> <Gold.Id.Protein>
6NUR|6NUR_protein|mol2

> <Gold.PLP.Fitness>
57.8198

> <Gold.PLP.PLP>
-55.0582

> <Gold.PLP.part.hbond>
-4.0433

> <Gold.PLP.part.metal>
0.0000

> <Gold.PLP.part.buried>
-5.8260

> <Gold.PLP.part.nonpolar>
-44.9556

> <Gold.PLP.part.repulsive>
0.1488

> <Gold.PLP.ligand.clash>
0.0000

> <Gold.PLP.ligand.torsion>
2.0356

> <Gold.PLP.Chemscore.Hbond>
2.1175

> <Gold.PLP.Chemscore.CHOScore>
0.0000

> <Gold.PLP.Chemscore.Metal>
0.0000

> <Gold.Chemscore.Hbonds>
donor molecule, donor type, donor heavy atom, donor atom, acceptor molecule, acceptor atom, score
      P1  H  6931  6943       L1    29  0.83
      P1  H  6934  6947       L1    29  0.46
      P1  H  7989  7998       L1     1  0.75

> <Gold.PLP.Chemscore.Internal.Correction>
0.4803

> <Gold.Rescore>
     Score         DG    S(hbond)    S(metal)    S(lipo)     H(rot)  DE(clash)    DE(int)     intcor
     14.63     -18.48       1.45        0.00     128.71       2.69       0.07       3.78       ----

> <Gold.Chemscore.Fitness>
14.6349

> <Gold.Chemscore.DG>
-18.4834

> <Gold.Chemscore.ZeroCoef>
-5.4800

> <Gold.Chemscore.Hbond>
1.4495

> <Gold.Chemscore.Metal>
0.0000

> <Gold.Chemscore.Lipo>
128.7145

> <Gold.Chemscore.Internal_Hbond>
0.0000

> <Gold.Chemscore.DEClash>
0.0659

> <Gold.Chemscore.DEInternal>
3.7826

> <Gold.Chemscore.Rot>
2.6944

> <Gold.Chemscore.Internal.Correction>
   9.000000E+99

> <Gold.Chemscore.Hbonds>
donor molecule, donor type, donor heavy atom, donor atom, acceptor molecule, acceptor atom, score
      P1  H  6931  6943       L1    29  0.45
      P1  H  6934  6947       L1    29  0.09
      P1  H  7989  7998       L1     1  0.73

> <Gold.Chemscore.Hbond.Weighted>
-4.8414

> <Gold.Chemscore.Metal.Weighted>
-0.0000

> <Gold.Chemscore.Lipo.Weighted>
-15.0596

> <Gold.Chemscore.Internal_Hbond.Weighted>
0.0000

> <Gold.Chemscore.DEClash.Weighted>
0.0659

> <Gold.Chemscore.DEInternal.Weighted>
3.7826

> <Gold.Chemscore.Rot.Weighted>
6.8975

> <Gold.Chemscore.Internal.Correction.Weighted>
   9.000000E+99

> <Gold.Protein.RotatedTorsions>
[ 6907 6896 6895 6894 ] final  125.51 input  -60.11 | X-H torsion
[ 7974 7965 7964 7962 ] final   -5.21 input  175.53 | X-H torsion
[ 8008 7997 7996 7995 ] final   71.95 input   59.86 | X-H torsion
[ 10167 10162 10161 10158 ] final  101.02 input  -65.29 | X-H torsion
[ 10718 10713 10712 10709 ] final  -75.00 input   66.30 | X-H torsion
[ 10763 10752 10751 10750 ] final  -74.03 input  -60.55 | X-H torsion
[ 11005 11000 10999 10996 ] final  120.53 input  -57.11 | X-H torsion

> <Gold.Protein.ActiveResidues>
 VAL166  LYS551  ARG553  GLY616  TRP617  ASP618  TYR619  PRO620  LYS621  CYS622 
 ASP623  PHE694  ASN695  SER759  ASP760  ASP761  ALA762  ILE779  LEU786  VAL792 
 PHE793  MET794  SER795  GLU796  ALA797  LYS798  CYS799  TRP800  GLU811  SER814 

> <Gold.Protein.RotatedAtoms>
  152.3986  133.6783  159.6296 H   0  0  0  0  0  0  0  0  0  0  0  0  # atno 6907 bound_to 6896
  150.7881  133.8831  159.3300 H   0  0  0  0  0  0  0  0  0  0  0  0  # atno 6908 bound_to 6896
  151.6602  135.0992  160.0229 H   0  0  0  0  0  0  0  0  0  0  0  0  # atno 6909 bound_to 6896
  146.2357  140.1987  142.8333 H   0  0  0  0  0  0  0  0  0  0  0  0  # atno 7974 bound_to 7965
  155.7616  140.3486  155.5201 H   0  0  0  0  0  0  0  0  0  0  0  0  # atno 8008 bound_to 7997
  155.8908  140.1017  157.1441 H   0  0  0  0  0  0  0  0  0  0  0  0  # atno 8009 bound_to 7997
  154.4033  140.1304  156.4301 H   0  0  0  0  0  0  0  0  0  0  0  0  # atno 8010 bound_to 7997
  139.7475  144.6993  151.0481 H   0  0  0  0  0  0  0  0  0  0  0  0  # atno 10167 bound_to 10162
  156.0223  130.4430  150.2976 H   0  0  0  0  0  0  0  0  0  0  0  0  # atno 10718 bound_to 10713
  154.4676  135.5878  153.6299 H   0  0  0  0  0  0  0  0  0  0  0  0  # atno 10763 bound_to 10752
  152.9830  135.6059  154.3408 H   0  0  0  0  0  0  0  0  0  0  0  0  # atno 10764 bound_to 10752
  154.3286  135.2843  155.2462 H   0  0  0  0  0  0  0  0  0  0  0  0  # atno 10765 bound_to 10752
  139.9189  134.9635  156.7821 H   0  0  0  0  0  0  0  0  0  0  0  0  # atno 11005 bound_to 11000
  144.9799  140.8449  143.5403 LP  0  0  0  0  0  0  0  0  0  0  0  0  # atno 17320 bound_to 7965
  145.1979  139.2267  143.5208 LP  0  0  0  0  0  0  0  0  0  0  0  0  # atno 17321 bound_to 7965
  140.7794  143.4848  150.9970 LP  0  0  0  0  0  0  0  0  0  0  0  0  # atno 17342 bound_to 10162
  139.8536  143.7405  152.3177 LP  0  0  0  0  0  0  0  0  0  0  0  0  # atno 17343 bound_to 10162
  157.1079  131.0213  151.3059 LP  0  0  0  0  0  0  0  0  0  0  0  0  # atno 17370 bound_to 10713
  157.4727  130.7718  149.7339 LP  0  0  0  0  0  0  0  0  0  0  0  0  # atno 17371 bound_to 10713
  140.6536  133.9709  155.7768 LP  0  0  0  0  0  0  0  0  0  0  0  0  # atno 17394 bound_to 11000
  141.0691  134.0232  157.3551 LP  0  0  0  0  0  0  0  0  0  0  0  0  # atno 17395 bound_to 11000

$$$$
