AV-unprocessed.smi:429|AV-procd|sdf|2545|dock3
  -GOLD-   2262022503D 1   1.00000     0.00000
 Structure written by MMmdl.
 43 44  0  0  0  0  0  0  0  0  1 V2000
  146.9364  134.3328  162.4995 C   0  0  0  0  0  0  0  0  0  0  0  0
  147.4950  135.7299  162.7905 C   0  0  0  0  0  0  0  0  0  0  0  0
  147.4264  136.6587  161.5697 C   0  0  0  0  0  0  0  0  0  0  0  0
  148.2638  136.1381  160.3873 C   0  0  0  0  0  0  0  0  0  0  0  0
  148.4490  137.1780  159.2778 C   0  0  0  0  0  0  0  0  0  0  0  0
  147.6573  138.1133  159.1563 O   0  0  0  0  0  0  0  0  0  0  0  0
  149.5012  136.9969  158.4648 N   0  0  0  0  0  0  0  0  0  0  0  0
  149.8549  137.8687  157.3487 C   0  0  0  0  0  0  0  0  0  0  0  0
  150.3875  139.2331  157.7633 C   0  0  0  0  0  0  0  0  0  0  0  0
  151.5395  139.3745  158.5646 C   0  0  0  0  0  0  0  0  0  0  0  0
  151.9754  140.6668  158.9135 C   0  0  0  0  0  0  0  0  0  0  0  0
  151.2471  141.7900  158.4537 C   0  0  0  0  0  0  0  0  0  0  0  0
  151.6702  143.0962  158.7842 N   0  0  0  0  0  0  0  0  0  0  0  0
  151.0465  143.7474  159.9351 C   0  0  0  0  0  0  0  0  0  0  0  0
  151.8175  145.0231  160.3136 C   0  0  0  0  0  0  0  0  0  0  0  0
  151.9106  145.8807  159.1812 O   0  0  0  0  0  0  0  0  0  0  0  0
  152.6210  145.2673  158.1111 C   0  0  0  0  0  0  0  0  0  0  0  0
  151.8820  143.9976  157.6540 C   0  0  0  0  0  0  0  0  0  0  0  0
  150.1305  141.6480  157.6971 N   0  0  0  0  0  0  0  0  0  0  0  0
  149.7177  140.4070  157.3646 C   0  0  0  0  0  0  0  0  0  0  0  0
  146.9948  133.6990  163.3846 H   0  0  0  0  0  0  0  0  0  0  0  0
  147.4963  133.8432  161.7022 H   0  0  0  0  0  0  0  0  0  0  0  0
  145.8910  134.3822  162.1940 H   0  0  0  0  0  0  0  0  0  0  0  0
  146.9397  136.1724  163.6182 H   0  0  0  0  0  0  0  0  0  0  0  0
  148.5292  135.6404  163.1247 H   0  0  0  0  0  0  0  0  0  0  0  0
  146.3849  136.7693  161.2640 H   0  0  0  0  0  0  0  0  0  0  0  0
  147.7728  137.6534  161.8545 H   0  0  0  0  0  0  0  0  0  0  0  0
  149.2441  135.8209  160.7474 H   0  0  0  0  0  0  0  0  0  0  0  0
  147.7892  135.2567  159.9548 H   0  0  0  0  0  0  0  0  0  0  0  0
  150.1009  136.2020  158.6327 H   0  0  0  0  0  0  0  0  0  0  0  0
  150.5812  137.3659  156.7076 H   0  0  0  0  0  0  0  0  0  0  0  0
  148.9625  138.0218  156.7417 H   0  0  0  0  0  0  0  0  0  0  0  0
  152.0847  138.5099  158.9134 H   0  0  0  0  0  0  0  0  0  0  0  0
  152.8493  140.7789  159.5376 H   0  0  0  0  0  0  0  0  0  0  0  0
  150.0119  143.9950  159.6934 H   0  0  0  0  0  0  0  0  0  0  0  0
  151.0297  143.0700  160.7896 H   0  0  0  0  0  0  0  0  0  0  0  0
  151.3010  145.5496  161.1162 H   0  0  0  0  0  0  0  0  0  0  0  0
  152.8151  144.7799  160.6829 H   0  0  0  0  0  0  0  0  0  0  0  0
  152.6974  145.9743  157.2850 H   0  0  0  0  0  0  0  0  0  0  0  0
  153.6397  145.0325  158.4238 H   0  0  0  0  0  0  0  0  0  0  0  0
  152.4554  143.5233  156.8590 H   0  0  0  0  0  0  0  0  0  0  0  0
  150.9125  144.2628  157.2302 H   0  0  0  0  0  0  0  0  0  0  0  0
  148.8250  140.3519  156.7592 H   0  0  0  0  0  0  0  0  0  0  0  0
  1  2  1  0  0  0  0
  1 21  1  0  0  0  0
  1 22  1  0  0  0  0
  1 23  1  0  0  0  0
  2  3  1  0  0  0  0
  2 24  1  0  0  0  0
  2 25  1  0  0  0  0
  3  4  1  0  0  0  0
  3 26  1  0  0  0  0
  3 27  1  0  0  0  0
  4  5  1  0  0  0  0
  4 28  1  0  0  0  0
  4 29  1  0  0  0  0
  5  6  2  0  0  0  0
  5  7  1  0  0  0  0
  7  8  1  0  0  0  0
  7 30  1  0  0  0  0
  8  9  1  0  0  0  0
  8 31  1  0  0  0  0
  8 32  1  0  0  0  0
  9 20  1  0  0  0  0
  9 10  2  0  0  0  0
 10 11  1  0  0  0  0
 10 33  1  0  0  0  0
 11 12  2  0  0  0  0
 11 34  1  0  0  0  0
 12 13  1  0  0  0  0
 12 19  1  0  0  0  0
 13 18  1  0  0  0  0
 13 14  1  0  0  0  0
 14 15  1  0  0  0  0
 14 35  1  0  0  0  0
 14 36  1  0  0  0  0
 15 16  1  0  0  0  0
 15 37  1  0  0  0  0
 15 38  1  0  0  0  0
 16 17  1  0  0  0  0
 17 18  1  0  0  0  0
 17 39  1  0  0  0  0
 17 40  1  0  0  0  0
 18 41  1  0  0  0  0
 18 42  1  0  0  0  0
 19 20  2  0  0  0  0
 20 43  1  0  0  0  0
M  END
> <s_m_source_file>
AV-unprocessed.smi

> <i_m_source_file_index>
429

> <i_lp_mmshare_version>
43012

> <i_f3d_flags>
0

> <s_epik_input>
W0NIM11bQ0gyXVtDSDJdW0NIMl1DKD1PKVtOSF1bQ0gyXWMxW2NIXVtjSF1jKG5bY0hdMSlOMltDSDJdW0NIMl1PW0NIMl1bQ0gyXTI=

> <s_epik_cmdline>
J2VwaWtfcHl0aG9uJywgJy1waCcsICc3LjAnLCAnLXRuJywgJzgnLCAnLW1hJywgJzIwMCcsICctbWV0YWxfYmluZGluZycsICctaW1hZScsICc8aW5maWxlLm1hZT4nLCAnLW9tYWUnLCAnPG91dGZpbGUubWFlPic=

> <r_lp_tautomer_probability>
1

> <r_epik_Ionization_Penalty>
0.00508978

> <r_epik_Ionization_Penalty_Charging>
0

> <r_epik_Ionization_Penalty_Neutral>
0.00508978

> <r_epik_State_Penalty>
0.0037045

> <r_epik_Charging_Adjusted_Penalty>
0.0037045

> <i_epik_Tot_Q>
0

> <i_epik_Tot_abs_Q>
0

> <r_epik_Metal_State_Penalty>
-0

> <b_epik_Metal_Only>
0

> <s_lp_Force_Field>
OPLS_2005

> <r_lp_Energy>
15.7693

> <b_lp_Chiralities_Consistent>
1

> <s_lp_Variant>
AV-unprocessed.smi:429-1

> <Gold.Version>
5.8.1

> <Gold.Id.Protein>
6NUR|6NUR_protein|mol2

> <Gold.PLP.Fitness>
39.3246

> <Gold.PLP.PLP>
-39.3560

> <Gold.PLP.part.hbond>
-2.0000

> <Gold.PLP.part.metal>
0.0000

> <Gold.PLP.part.buried>
-6.3994

> <Gold.PLP.part.nonpolar>
-30.1847

> <Gold.PLP.part.repulsive>
0.3510

> <Gold.PLP.ligand.clash>
0.0000

> <Gold.PLP.ligand.torsion>
0.7693

> <Gold.PLP.Chemscore.Hbond>
0.3840

> <Gold.PLP.Chemscore.CHOScore>
0.0000

> <Gold.PLP.Chemscore.Metal>
0.0000

> <Gold.Chemscore.Hbonds>
donor molecule, donor type, donor heavy atom, donor atom, acceptor molecule, acceptor atom, score
      P1  H  6934  6947       L1     6  0.37

> <Gold.PLP.Chemscore.Internal.Correction>
0.3552

> <Gold.Rescore>
     Score         DG    S(hbond)    S(metal)    S(lipo)     H(rot)  DE(clash)    DE(int)     intcor
     14.27     -15.16       0.58        0.00     104.91       1.77       0.13       0.77       ----

> <Gold.Chemscore.Fitness>
14.2668

> <Gold.Chemscore.DG>
-15.1629

> <Gold.Chemscore.ZeroCoef>
-5.4800

> <Gold.Chemscore.Hbond>
0.5795

> <Gold.Chemscore.Metal>
0.0000

> <Gold.Chemscore.Lipo>
104.9084

> <Gold.Chemscore.Internal_Hbond>
0.0000

> <Gold.Chemscore.DEClash>
0.1310

> <Gold.Chemscore.DEInternal>
0.7651

> <Gold.Chemscore.Rot>
1.7684

> <Gold.Chemscore.Internal.Correction>
   9.000000E+99

> <Gold.Chemscore.Hbonds>
donor molecule, donor type, donor heavy atom, donor atom, acceptor molecule, acceptor atom, score
      P1  H  6934  6947       L1     6  0.33

> <Gold.Chemscore.Hbond.Weighted>
-1.9357

> <Gold.Chemscore.Metal.Weighted>
-0.0000

> <Gold.Chemscore.Lipo.Weighted>
-12.2743

> <Gold.Chemscore.Internal_Hbond.Weighted>
0.0000

> <Gold.Chemscore.DEClash.Weighted>
0.1310

> <Gold.Chemscore.DEInternal.Weighted>
0.7651

> <Gold.Chemscore.Rot.Weighted>
4.5271

> <Gold.Chemscore.Internal.Correction.Weighted>
   9.000000E+99

> <Gold.Protein.RotatedTorsions>
[ 6907 6896 6895 6894 ] final   51.87 input  -60.11 | X-H torsion
[ 7974 7965 7964 7962 ] final  -28.90 input  175.53 | X-H torsion
[ 8008 7997 7996 7995 ] final  -55.56 input   59.86 | X-H torsion
[ 10167 10162 10161 10158 ] final   50.61 input  -65.29 | X-H torsion
[ 10718 10713 10712 10709 ] final   74.18 input   66.30 | X-H torsion
[ 10763 10752 10751 10750 ] final   40.05 input  -60.55 | X-H torsion
[ 11005 11000 10999 10996 ] final  123.92 input  -57.11 | X-H torsion

> <Gold.Protein.ActiveResidues>
 VAL166  LYS551  ARG553  GLY616  TRP617  ASP618  TYR619  PRO620  LYS621  CYS622 
 ASP623  PHE694  ASN695  SER759  ASP760  ASP761  ALA762  ILE779  LEU786  VAL792 
 PHE793  MET794  SER795  GLU796  ALA797  LYS798  CYS799  TRP800  GLU811  SER814 

> <Gold.Protein.RotatedAtoms>
  152.3173  134.7424  160.0321 H   0  0  0  0  0  0  0  0  0  0  0  0  # atno 6907 bound_to 6896
  151.7884  133.3351  159.3500 H   0  0  0  0  0  0  0  0  0  0  0  0  # atno 6908 bound_to 6896
  150.7351  134.5796  159.5976 H   0  0  0  0  0  0  0  0  0  0  0  0  # atno 6909 bound_to 6896
  146.1255  140.5343  142.8716 H   0  0  0  0  0  0  0  0  0  0  0  0  # atno 7974 bound_to 7965
  154.4199  140.1150  156.5497 H   0  0  0  0  0  0  0  0  0  0  0  0  # atno 8008 bound_to 7997
  155.6423  140.3496  155.4700 H   0  0  0  0  0  0  0  0  0  0  0  0  # atno 8009 bound_to 7997
  155.9860  140.1170  157.0672 H   0  0  0  0  0  0  0  0  0  0  0  0  # atno 8010 bound_to 7997
  140.2706  144.3270  150.6291 H   0  0  0  0  0  0  0  0  0  0  0  0  # atno 10167 bound_to 10162
  157.6581  130.9665  150.1175 H   0  0  0  0  0  0  0  0  0  0  0  0  # atno 10718 bound_to 10713
  152.9948  135.6203  154.2563 H   0  0  0  0  0  0  0  0  0  0  0  0  # atno 10763 bound_to 10752
  154.2300  135.2792  155.2895 H   0  0  0  0  0  0  0  0  0  0  0  0  # atno 10764 bound_to 10752
  154.5457  135.5748  153.6936 H   0  0  0  0  0  0  0  0  0  0  0  0  # atno 10765 bound_to 10752
  139.9335  134.9640  156.8332 H   0  0  0  0  0  0  0  0  0  0  0  0  # atno 11005 bound_to 11000
  144.7638  140.5484  143.6717 LP  0  0  0  0  0  0  0  0  0  0  0  0  # atno 17320 bound_to 7965
  145.5374  139.1475  143.3466 LP  0  0  0  0  0  0  0  0  0  0  0  0  # atno 17321 bound_to 7965
  140.5892  143.2168  151.7284 LP  0  0  0  0  0  0  0  0  0  0  0  0  # atno 17342 bound_to 10162
  139.4990  144.3964  152.0227 LP  0  0  0  0  0  0  0  0  0  0  0  0  # atno 17343 bound_to 10162
  156.2055  130.3663  149.8735 LP  0  0  0  0  0  0  0  0  0  0  0  0  # atno 17370 bound_to 10713
  156.6627  130.8788  151.3550 LP  0  0  0  0  0  0  0  0  0  0  0  0  # atno 17371 bound_to 10713
  140.6139  134.0057  155.7588 LP  0  0  0  0  0  0  0  0  0  0  0  0  # atno 17394 bound_to 11000
  141.0936  133.9878  157.3197 LP  0  0  0  0  0  0  0  0  0  0  0  0  # atno 17395 bound_to 11000

$$$$
