AV-unprocessed.smi:870|AV-procd|sdf|4007|dock6
  -GOLD-   22720 1493D 1   1.00000     0.00000
 Structure written by MMmdl.
 46 48  0  0  0  0  0  0  0  0  1 V2000
  158.3606  139.9874  158.5992 C   0  0  0  0  0  0  0  0  0  0  0  0
  157.2611  140.8169  158.9291 O   0  0  0  0  0  0  0  0  0  0  0  0
  156.0358  140.3241  158.4086 C   0  0  0  0  0  0  0  0  0  0  0  0
  154.9882  141.3897  158.5650 C   0  0  0  0  0  0  0  0  0  0  0  0
  154.9406  142.2173  159.6121 N   0  0  0  0  0  0  0  0  0  0  0  0
  153.8448  143.0081  159.3294 C   0  0  0  0  0  0  0  0  0  0  0  0
  153.2708  144.0765  160.0549 C   0  0  0  0  0  0  0  0  0  0  0  0
  152.1346  144.7478  159.5574 C   0  0  0  0  0  0  0  0  0  0  0  0
  151.5578  144.3618  158.3300 C   0  0  0  0  0  0  0  0  0  0  0  0
  152.1145  143.2999  157.5915 C   0  0  0  0  0  0  0  0  0  0  0  0
  153.2482  142.6328  158.0932 C   0  0  0  0  0  0  0  0  0  0  0  0
  154.0222  141.5742  157.6293 N   0  0  0  0  0  0  0  0  0  0  0  0
  153.8118  140.8443  156.3855 C   0  0  0  0  0  0  0  0  0  0  0  0
  152.4852  140.0584  156.3758 C   0  0  2  0  0  0  0  0  0  0  0  0
  152.6499  138.8792  155.6123 O   0  0  0  0  0  0  0  0  0  0  0  0
  151.3374  140.8804  155.7684 C   0  0  0  0  0  0  0  0  0  0  0  0
  150.1221  140.5140  156.4079 O   0  0  0  0  0  0  0  0  0  0  0  0
  148.9299  140.8955  155.8272 C   0  0  0  0  0  0  0  0  0  0  0  0
  148.7878  141.2041  154.4499 C   0  0  0  0  0  0  0  0  0  0  0  0
  147.5382  141.5885  153.9274 C   0  0  0  0  0  0  0  0  0  0  0  0
  146.4157  141.6699  154.7702 C   0  0  0  0  0  0  0  0  0  0  0  0
  146.5440  141.3663  156.1376 C   0  0  0  0  0  0  0  0  0  0  0  0
  147.7938  140.9802  156.6663 C   0  0  0  0  0  0  0  0  0  0  0  0
  147.9144  140.6573  158.1439 C   0  0  0  0  0  0  0  0  0  0  0  0
  159.2753  140.4084  159.0160 H   0  0  0  0  0  0  0  0  0  0  0  0
  158.4867  139.9112  157.5186 H   0  0  0  0  0  0  0  0  0  0  0  0
  158.2338  138.9845  159.0087 H   0  0  0  0  0  0  0  0  0  0  0  0
  156.1423  140.0751  157.3517 H   0  0  0  0  0  0  0  0  0  0  0  0
  155.7302  139.4273  158.9484 H   0  0  0  0  0  0  0  0  0  0  0  0
  153.7059  144.3795  160.9958 H   0  0  0  0  0  0  0  0  0  0  0  0
  151.7039  145.5629  160.1203 H   0  0  0  0  0  0  0  0  0  0  0  0
  150.6875  144.8809  157.9561 H   0  0  0  0  0  0  0  0  0  0  0  0
  151.6747  143.0009  156.6517 H   0  0  0  0  0  0  0  0  0  0  0  0
  153.8172  141.5703  155.5713 H   0  0  0  0  0  0  0  0  0  0  0  0
  154.6545  140.1788  156.1986 H   0  0  0  0  0  0  0  0  0  0  0  0
  152.2302  139.7802  157.3994 H   0  0  0  0  0  0  0  0  0  0  0  0
  152.4258  138.1372  156.1528 H   0  0  0  0  0  0  0  0  0  0  0  0
  151.5161  141.9406  155.9556 H   0  0  0  0  0  0  0  0  0  0  0  0
  151.2861  140.7357  154.6876 H   0  0  0  0  0  0  0  0  0  0  0  0
  149.6241  141.1548  153.7696 H   0  0  0  0  0  0  0  0  0  0  0  0
  147.4417  141.8217  152.8772 H   0  0  0  0  0  0  0  0  0  0  0  0
  145.4575  141.9654  154.3690 H   0  0  0  0  0  0  0  0  0  0  0  0
  145.6774  141.4319  156.7792 H   0  0  0  0  0  0  0  0  0  0  0  0
  146.9503  140.7266  158.6485 H   0  0  0  0  0  0  0  0  0  0  0  0
  148.6011  141.3526  158.6276 H   0  0  0  0  0  0  0  0  0  0  0  0
  148.2956  139.6451  158.2813 H   0  0  0  0  0  0  0  0  0  0  0  0
  1  2  1  0  0  0  0
  1 25  1  0  0  0  0
  1 26  1  0  0  0  0
  1 27  1  0  0  0  0
  2  3  1  0  0  0  0
  3  4  1  0  0  0  0
  3 28  1  0  0  0  0
  3 29  1  0  0  0  0
  4 12  1  0  0  0  0
  4  5  2  0  0  0  0
  5  6  1  0  0  0  0
  6 11  2  0  0  0  0
  6  7  1  0  0  0  0
  7  8  2  0  0  0  0
  7 30  1  0  0  0  0
  8  9  1  0  0  0  0
  8 31  1  0  0  0  0
  9 10  2  0  0  0  0
  9 32  1  0  0  0  0
 10 11  1  0  0  0  0
 10 33  1  0  0  0  0
 11 12  1  0  0  0  0
 12 13  1  0  0  0  0
 13 14  1  0  0  0  0
 13 34  1  0  0  0  0
 13 35  1  0  0  0  0
 14 15  1  0  0  0  0
 14 16  1  0  0  0  0
 14 36  1  0  0  0  0
 15 37  1  0  0  0  0
 16 17  1  0  0  0  0
 16 38  1  0  0  0  0
 16 39  1  0  0  0  0
 17 18  1  0  0  0  0
 18 23  1  0  0  0  0
 18 19  2  0  0  0  0
 19 20  1  0  0  0  0
 19 40  1  0  0  0  0
 20 21  2  0  0  0  0
 20 41  1  0  0  0  0
 21 22  1  0  0  0  0
 21 42  1  0  0  0  0
 22 23  2  0  0  0  0
 22 43  1  0  0  0  0
 23 24  1  0  0  0  0
 24 44  1  0  0  0  0
 24 45  1  0  0  0  0
 24 46  1  0  0  0  0
M  END
> <s_m_source_file>
AV-unprocessed.smi

> <i_m_source_file_index>
870

> <i_lp_mmshare_version>
43012

> <i_f3d_flags>
0

> <s_epik_input>
W2NIXTFbY0hdW2NIXVtjSF1jKGMxMiluKGMobjIpW0NIMl1PW0NIM10pW0NIMl1bQ0BIXShbT0hdKVtDSDJdT2MzW2NIXVtjSF1bY0hdW2NIXWMzW0NIM10=

> <s_epik_cmdline>
J2VwaWtfcHl0aG9uJywgJy1waCcsICc3LjAnLCAnLXRuJywgJzgnLCAnLW1hJywgJzIwMCcsICctbWV0YWxfYmluZGluZycsICctaW1hZScsICc8aW5maWxlLm1hZT4nLCAnLW9tYWUnLCAnPG91dGZpbGUubWFlPic=

> <r_lp_tautomer_probability>
1

> <r_epik_Ionization_Penalty>
0.0447032

> <r_epik_Ionization_Penalty_Charging>
0

> <r_epik_Ionization_Penalty_Neutral>
0.0447032

> <r_epik_State_Penalty>
0.0379025

> <r_epik_Charging_Adjusted_Penalty>
0.0379025

> <i_epik_Tot_Q>
0

> <i_epik_Tot_abs_Q>
0

> <r_epik_Metal_State_Penalty>
3.91398e-05

> <b_epik_Metal_Only>
0

> <s_lp_Force_Field>
OPLS_2005

> <r_lp_Energy>
17.6925

> <b_lp_Chiralities_Consistent>
1

> <s_lp_Variant>
AV-unprocessed.smi:870-1

> <Gold.Version>
5.8.1

> <Gold.Id.Protein>
6NUR|6NUR_protein|mol2

> <Gold.PLP.Fitness>
49.9179

> <Gold.PLP.PLP>
-52.9642

> <Gold.PLP.part.hbond>
-1.0000

> <Gold.PLP.part.metal>
0.0000

> <Gold.PLP.part.buried>
-5.1969

> <Gold.PLP.part.nonpolar>
-45.5257

> <Gold.PLP.part.repulsive>
0.0867

> <Gold.PLP.ligand.clash>
0.0000

> <Gold.PLP.ligand.torsion>
1.6034

> <Gold.PLP.Chemscore.Hbond>
0.0000

> <Gold.PLP.Chemscore.CHOScore>
0.0000

> <Gold.PLP.Chemscore.Metal>
0.0000

> <Gold.PLP.Chemscore.Internal.Correction>
0.1606

> <Gold.Rescore>
     Score         DG    S(hbond)    S(metal)    S(lipo)     H(rot)  DE(clash)    DE(int)     intcor
     13.67     -15.76       0.00        0.00     139.43       2.36       0.34       1.74       ----

> <Gold.Chemscore.Fitness>
13.6736

> <Gold.Chemscore.DG>
-15.7557

> <Gold.Chemscore.ZeroCoef>
-5.4800

> <Gold.Chemscore.Hbond>
0.0000

> <Gold.Chemscore.Metal>
0.0000

> <Gold.Chemscore.Lipo>
139.4317

> <Gold.Chemscore.Internal_Hbond>
0.0000

> <Gold.Chemscore.DEClash>
0.3379

> <Gold.Chemscore.DEInternal>
1.7442

> <Gold.Chemscore.Rot>
2.3585

> <Gold.Chemscore.Internal.Correction>
   9.000000E+99

> <Gold.Chemscore.Hbond.Weighted>
-0.0000

> <Gold.Chemscore.Metal.Weighted>
-0.0000

> <Gold.Chemscore.Lipo.Weighted>
-16.3135

> <Gold.Chemscore.Internal_Hbond.Weighted>
0.0000

> <Gold.Chemscore.DEClash.Weighted>
0.3379

> <Gold.Chemscore.DEInternal.Weighted>
1.7442

> <Gold.Chemscore.Rot.Weighted>
6.0378

> <Gold.Chemscore.Internal.Correction.Weighted>
   9.000000E+99

> <Gold.Protein.RotatedTorsions>
[ 6907 6896 6895 6894 ] final  109.11 input  -60.11 | X-H torsion
[ 7974 7965 7964 7962 ] final -163.80 input  175.53 | X-H torsion
[ 8008 7997 7996 7995 ] final  -71.26 input   59.86 | X-H torsion
[ 10167 10162 10161 10158 ] final  126.62 input  -65.29 | X-H torsion
[ 10718 10713 10712 10709 ] final   -1.28 input   66.30 | X-H torsion
[ 10763 10752 10751 10750 ] final   25.01 input  -60.55 | X-H torsion
[ 11005 11000 10999 10996 ] final  -86.24 input  -57.11 | X-H torsion

> <Gold.Protein.ActiveResidues>
 VAL166  LYS551  ARG553  GLY616  TRP617  ASP618  TYR619  PRO620  LYS621  CYS622 
 ASP623  PHE694  ASN695  SER759  ASP760  ASP761  ALA762  ILE779  LEU786  VAL792 
 PHE793  MET794  SER795  GLU796  ALA797  LYS798  CYS799  TRP800  GLU811  SER814 

> <Gold.Protein.RotatedAtoms>
  152.5082  133.8991  159.7431 H   0  0  0  0  0  0  0  0  0  0  0  0  # atno 6907 bound_to 6896
  150.9411  133.6646  159.2797 H   0  0  0  0  0  0  0  0  0  0  0  0  # atno 6908 bound_to 6896
  151.3957  135.0968  159.9593 H   0  0  0  0  0  0  0  0  0  0  0  0  # atno 6909 bound_to 6896
  144.7315  140.3055  143.6197 H   0  0  0  0  0  0  0  0  0  0  0  0  # atno 7974 bound_to 7965
  154.5074  140.0819  156.7922 H   0  0  0  0  0  0  0  0  0  0  0  0  # atno 8008 bound_to 7997
  155.3862  140.3430  155.4231 H   0  0  0  0  0  0  0  0  0  0  0  0  # atno 8009 bound_to 7997
  156.1532  140.1565  156.8722 H   0  0  0  0  0  0  0  0  0  0  0  0  # atno 8010 bound_to 7997
  139.5621  144.6888  151.4012 H   0  0  0  0  0  0  0  0  0  0  0  0  # atno 10167 bound_to 10162
  156.8080  130.5415  149.5712 H   0  0  0  0  0  0  0  0  0  0  0  0  # atno 10718 bound_to 10713
  153.0722  135.6592  154.0222 H   0  0  0  0  0  0  0  0  0  0  0  0  # atno 10763 bound_to 10752
  153.9865  135.2950  155.3417 H   0  0  0  0  0  0  0  0  0  0  0  0  # atno 10764 bound_to 10752
  154.7100  135.5209  153.8722 H   0  0  0  0  0  0  0  0  0  0  0  0  # atno 10765 bound_to 10752
  141.1632  133.7443  156.9132 H   0  0  0  0  0  0  0  0  0  0  0  0  # atno 11005 bound_to 11000
  145.7718  139.1860  143.2208 LP  0  0  0  0  0  0  0  0  0  0  0  0  # atno 17320 bound_to 7965
  146.0905  140.7661  142.9597 LP  0  0  0  0  0  0  0  0  0  0  0  0  # atno 17321 bound_to 7965
  140.6902  143.7879  150.7244 LP  0  0  0  0  0  0  0  0  0  0  0  0  # atno 17342 bound_to 10162
  140.1359  143.4484  152.2225 LP  0  0  0  0  0  0  0  0  0  0  0  0  # atno 17343 bound_to 10162
  156.1061  130.6006  150.9974 LP  0  0  0  0  0  0  0  0  0  0  0  0  # atno 17370 bound_to 10713
  157.6520  131.0895  150.8029 LP  0  0  0  0  0  0  0  0  0  0  0  0  # atno 17371 bound_to 10713
  140.1502  134.9235  157.2583 LP  0  0  0  0  0  0  0  0  0  0  0  0  # atno 17394 bound_to 11000
  140.2731  134.3436  155.7367 LP  0  0  0  0  0  0  0  0  0  0  0  0  # atno 17395 bound_to 11000

$$$$
