AV-unprocessed.smi:2129|AV-procd|sdf|8683|dock7
  -GOLD-   2272011433D 1   1.00000     0.00000
 Structure written by MMmdl.
 34 34  0  0  0  0  0  0  0  0  1 V2000
  153.3399  141.9120  160.7180 C   0  0  0  0  0  0  0  0  0  0  0  0
  153.3636  143.1255  159.7716 C   0  0  0  0  0  0  0  0  0  0  0  0
  151.9780  143.7335  159.4209 C   0  0  0  0  0  0  0  0  0  0  0  0
  151.2636  144.2058  160.7023 C   0  0  0  0  0  0  0  0  0  0  0  0
  152.1596  144.9563  158.4953 C   0  0  0  0  0  0  0  0  0  0  0  0
  151.1009  142.7423  158.7875 N   0  0  0  0  0  0  0  0  0  0  0  0
  150.9277  142.4793  157.4775 C   0  0  0  0  0  0  0  0  0  0  0  0
  151.5069  143.0918  156.5821 O   0  0  0  0  0  0  0  0  0  0  0  0
  149.9611  141.3446  157.0963 C   0  0  0  0  0  0  0  0  0  0  0  0
  150.5585  140.2793  156.2736 N   0  0  0  0  0  0  0  0  0  0  0  0
  149.8899  139.8021  155.1552 C   0  0  0  0  0  0  0  0  0  0  0  0
  150.3719  138.8152  154.3631 C   0  0  0  0  0  0  0  0  0  0  0  0
  151.6560  138.1898  154.6608 C   0  0  0  0  0  0  0  0  0  0  0  0
  152.1753  137.2897  154.0048 O   0  0  0  0  0  0  0  0  0  0  0  0
  152.2977  138.6964  155.7942 N   0  0  0  0  0  0  0  0  0  0  0  0
  151.8064  139.7125  156.6152 C   0  0  0  0  0  0  0  0  0  0  0  0
  152.4495  140.0780  157.5982 O   0  0  0  0  0  0  0  0  0  0  0  0
  153.1899  138.2927  156.0406 H   0  0  0  0  0  0  0  0  0  0  0  0
  154.3517  141.5458  160.8915 H   0  0  0  0  0  0  0  0  0  0  0  0
  152.7630  141.0855  160.3030 H   0  0  0  0  0  0  0  0  0  0  0  0
  152.9167  142.1643  161.6898 H   0  0  0  0  0  0  0  0  0  0  0  0
  153.9922  143.8991  160.2142 H   0  0  0  0  0  0  0  0  0  0  0  0
  153.8766  142.8302  158.8558 H   0  0  0  0  0  0  0  0  0  0  0  0
  151.8728  144.9205  161.2569 H   0  0  0  0  0  0  0  0  0  0  0  0
  151.0375  143.3761  161.3726 H   0  0  0  0  0  0  0  0  0  0  0  0
  150.3167  144.6948  160.4693 H   0  0  0  0  0  0  0  0  0  0  0  0
  152.7207  145.7462  158.9958 H   0  0  0  0  0  0  0  0  0  0  0  0
  151.1985  145.3767  158.1967 H   0  0  0  0  0  0  0  0  0  0  0  0
  152.7057  144.7072  157.5856 H   0  0  0  0  0  0  0  0  0  0  0  0
  150.5717  142.1674  159.4269 H   0  0  0  0  0  0  0  0  0  0  0  0
  149.5617  140.9212  158.0188 H   0  0  0  0  0  0  0  0  0  0  0  0
  149.0974  141.7760  156.5867 H   0  0  0  0  0  0  0  0  0  0  0  0
  148.9321  140.2330  154.8998 H   0  0  0  0  0  0  0  0  0  0  0  0
  149.8031  138.4855  153.5057 H   0  0  0  0  0  0  0  0  0  0  0  0
  1  2  1  0  0  0  0
  1 19  1  0  0  0  0
  1 20  1  0  0  0  0
  1 21  1  0  0  0  0
  2  3  1  0  0  0  0
  2 22  1  0  0  0  0
  2 23  1  0  0  0  0
  3  4  1  0  0  0  0
  3  5  1  0  0  0  0
  3  6  1  0  0  0  0
  4 24  1  0  0  0  0
  4 25  1  0  0  0  0
  4 26  1  0  0  0  0
  5 27  1  0  0  0  0
  5 28  1  0  0  0  0
  5 29  1  0  0  0  0
  6  7  1  0  0  0  0
  6 30  1  0  0  0  0
  7  8  2  0  0  0  0
  7  9  1  0  0  0  0
  9 10  1  0  0  0  0
  9 31  1  0  0  0  0
  9 32  1  0  0  0  0
 10 16  1  0  0  0  0
 10 11  1  0  0  0  0
 11 12  2  0  0  0  0
 11 33  1  0  0  0  0
 12 13  1  0  0  0  0
 12 34  1  0  0  0  0
 13 14  2  0  0  0  0
 13 15  1  0  0  0  0
 15 18  1  0  0  0  0
 15 16  1  0  0  0  0
 16 17  2  0  0  0  0
M  END
> <s_m_source_file>
AV-unprocessed.smi

> <i_m_source_file_index>
2129

> <i_lp_mmshare_version>
43012

> <i_f3d_flags>
0

> <s_epik_input>
W0NIM11bQ0gyXUMoW0NIM10pKFtDSDNdKVtOSF1DKD1PKVtDSDJdbjFbY0hdW2NIXWMoPU8pW25IXWMxPU8=

> <s_epik_cmdline>
J2VwaWtfcHl0aG9uJywgJy1waCcsICc3LjAnLCAnLXRuJywgJzgnLCAnLW1hJywgJzIwMCcsICctbWV0YWxfYmluZGluZycsICctaW1hZScsICc8aW5maWxlLm1hZT4nLCAnLW9tYWUnLCAnPG91dGZpbGUubWFlPic=

> <r_lp_tautomer_probability>
0.999537

> <r_epik_Ionization_Penalty>
0.00293907

> <r_epik_Ionization_Penalty_Charging>
0.00293905

> <r_epik_Ionization_Penalty_Neutral>
1.95902e-08

> <r_epik_State_Penalty>
0.0020607

> <r_epik_Charging_Adjusted_Penalty>
0.00499975

> <i_epik_Tot_Q>
0

> <i_epik_Tot_abs_Q>
0

> <r_epik_Metal_State_Penalty>
0.360223

> <b_epik_Metal_Only>
0

> <s_lp_Force_Field>
OPLS_2005

> <r_lp_Energy>
5.65175

> <b_lp_Chiralities_Consistent>
1

> <s_lp_Variant>
AV-unprocessed.smi:2129-1

> <Gold.Version>
5.8.1

> <Gold.Id.Protein>
6NUR|6NUR_protein|mol2

> <Gold.PLP.Fitness>
38.9554

> <Gold.PLP.PLP>
-34.7566

> <Gold.PLP.part.hbond>
-2.0000

> <Gold.PLP.part.metal>
0.0000

> <Gold.PLP.part.buried>
-2.9407

> <Gold.PLP.part.nonpolar>
-32.1299

> <Gold.PLP.part.repulsive>
1.5538

> <Gold.PLP.ligand.clash>
0.0000

> <Gold.PLP.ligand.torsion>
0.7291

> <Gold.PLP.Chemscore.Hbond>
1.8800

> <Gold.PLP.Chemscore.CHOScore>
0.0000

> <Gold.PLP.Chemscore.Metal>
0.0000

> <Gold.Chemscore.Hbonds>
donor molecule, donor type, donor heavy atom, donor atom, acceptor molecule, acceptor atom, score
      P1  H  7997  8008       L1    17  0.73
      P1  H 10752 10763       L1    14  0.91

> <Gold.PLP.Chemscore.Internal.Correction>
0.0170

> <Gold.Rescore>
     Score         DG    S(hbond)    S(metal)    S(lipo)     H(rot)  DE(clash)    DE(int)     intcor
     10.24     -16.00       1.86        0.00      79.41       1.95       2.49       3.28       ----

> <Gold.Chemscore.Fitness>
10.2387

> <Gold.Chemscore.DG>
-16.0036

> <Gold.Chemscore.ZeroCoef>
-5.4800

> <Gold.Chemscore.Hbond>
1.8625

> <Gold.Chemscore.Metal>
0.0000

> <Gold.Chemscore.Lipo>
79.4053

> <Gold.Chemscore.Internal_Hbond>
0.0000

> <Gold.Chemscore.DEClash>
2.4850

> <Gold.Chemscore.DEInternal>
3.2798

> <Gold.Chemscore.Rot>
1.9483

> <Gold.Chemscore.Internal.Correction>
   9.000000E+99

> <Gold.Chemscore.Hbonds>
donor molecule, donor type, donor heavy atom, donor atom, acceptor molecule, acceptor atom, score
      P1  H  7997  8008       L1    17  0.21
      P1  H 10752 10763       L1    14  0.90

> <Gold.Chemscore.Hbond.Weighted>
-6.2208

> <Gold.Chemscore.Metal.Weighted>
-0.0000

> <Gold.Chemscore.Lipo.Weighted>
-9.2904

> <Gold.Chemscore.Internal_Hbond.Weighted>
0.0000

> <Gold.Chemscore.DEClash.Weighted>
2.4850

> <Gold.Chemscore.DEInternal.Weighted>
3.2798

> <Gold.Chemscore.Rot.Weighted>
4.9876

> <Gold.Chemscore.Internal.Correction.Weighted>
   9.000000E+99

> <Gold.Protein.RotatedTorsions>
[ 6907 6896 6895 6894 ] final  -56.64 input  -60.11 | X-H torsion
[ 7974 7965 7964 7962 ] final   77.16 input  175.53 | X-H torsion
[ 8008 7997 7996 7995 ] final  -70.22 input   59.86 | X-H torsion
[ 10167 10162 10161 10158 ] final  -23.17 input  -65.29 | X-H torsion
[ 10718 10713 10712 10709 ] final -126.19 input   66.30 | X-H torsion
[ 10763 10752 10751 10750 ] final   27.72 input  -60.55 | X-H torsion
[ 11005 11000 10999 10996 ] final -169.22 input  -57.11 | X-H torsion

> <Gold.Protein.ActiveResidues>
 VAL166  LYS551  ARG553  GLY616  TRP617  ASP618  TYR619  PRO620  LYS621  CYS622 
 ASP623  PHE694  ASN695  SER759  ASP760  ASP761  ALA762  ILE779  LEU786  VAL792 
 PHE793  MET794  SER795  GLU796  ALA797  LYS798  CYS799  TRP800  GLU811  SER814 

> <Gold.Protein.RotatedAtoms>
  150.8151  134.7328  159.6722 H   0  0  0  0  0  0  0  0  0  0  0  0  # atno 6907 bound_to 6896
  152.4270  134.5847  159.9967 H   0  0  0  0  0  0  0  0  0  0  0  0  # atno 6908 bound_to 6896
  151.6046  133.3316  159.3090 H   0  0  0  0  0  0  0  0  0  0  0  0  # atno 6909 bound_to 6896
  145.6936  139.2560  143.1745 H   0  0  0  0  0  0  0  0  0  0  0  0  # atno 7974 bound_to 7965
  154.4995  140.0838  156.7768 H   0  0  0  0  0  0  0  0  0  0  0  0  # atno 8008 bound_to 7997
  155.4036  140.3438  155.4240 H   0  0  0  0  0  0  0  0  0  0  0  0  # atno 8009 bound_to 7997
  156.1438  140.1537  156.8866 H   0  0  0  0  0  0  0  0  0  0  0  0  # atno 8010 bound_to 7997
  140.7287  143.4467  151.0576 H   0  0  0  0  0  0  0  0  0  0  0  0  # atno 10167 bound_to 10162
  156.1743  130.6689  151.0221 H   0  0  0  0  0  0  0  0  0  0  0  0  # atno 10718 bound_to 10713
  153.0537  135.6530  154.0629 H   0  0  0  0  0  0  0  0  0  0  0  0  # atno 10763 bound_to 10752
  154.0312  135.2911  155.3369 H   0  0  0  0  0  0  0  0  0  0  0  0  # atno 10764 bound_to 10752
  154.6841  135.5308  153.8369 H   0  0  0  0  0  0  0  0  0  0  0  0  # atno 10765 bound_to 10752
  140.5332  134.5595  157.5080 H   0  0  0  0  0  0  0  0  0  0  0  0  # atno 11005 bound_to 11000
  146.0860  140.7711  142.9618 LP  0  0  0  0  0  0  0  0  0  0  0  0  # atno 17320 bound_to 7965
  144.6989  140.3562  143.7172 LP  0  0  0  0  0  0  0  0  0  0  0  0  # atno 17321 bound_to 7965
  139.8140  143.7912  152.3173 LP  0  0  0  0  0  0  0  0  0  0  0  0  # atno 17342 bound_to 10162
  139.7971  144.7388  150.9875 LP  0  0  0  0  0  0  0  0  0  0  0  0  # atno 17343 bound_to 10162
  157.6825  131.0834  150.7332 LP  0  0  0  0  0  0  0  0  0  0  0  0  # atno 17370 bound_to 10713
  156.7391  130.4733  149.5482 LP  0  0  0  0  0  0  0  0  0  0  0  0  # atno 17371 bound_to 10713
  139.9543  134.7563  156.0377 LP  0  0  0  0  0  0  0  0  0  0  0  0  # atno 17394 bound_to 11000
  141.1269  133.6597  156.3361 LP  0  0  0  0  0  0  0  0  0  0  0  0  # atno 17395 bound_to 11000

$$$$
