AV-unprocessed.smi:66|AV-procd|sdf|620|dock1
  -GOLD-   2262016513D 1   1.00000     0.00000
 Structure written by MMmdl.
 28 30  0  0  0  0  0  0  0  0  2 V2000
  150.8716  139.6684  155.0603 O   0  0  0  0  0  0  0  0  0  0  0  0
  151.6844  139.6587  156.0103 C   0  0  0  0  0  0  0  0  0  0  0  0
  152.9117  139.8842  155.9141 O   0  5  0  0  0  0  0  0  0  0  0  0
  151.1173  139.3370  157.4026 C   0  0  1  0  0  0  0  0  0  0  0  0
  150.5920  137.8936  157.5060 C   0  0  0  0  0  0  0  0  0  0  0  0
  151.7757  137.1058  158.0648 C   0  0  2  0  0  0  0  0  0  0  0  0
  151.3796  135.9179  158.7180 O   0  0  0  0  0  0  0  0  0  0  0  0
  152.4286  138.1057  159.0184 C   0  0  0  0  0  0  0  0  0  0  0  0
  152.1503  139.4143  158.4410 N   0  0  0  0  0  0  0  0  0  0  0  0
  152.4912  140.5791  159.0589 C   0  0  0  0  0  0  0  0  0  0  0  0
  153.4522  140.5454  160.0212 N   0  0  0  0  0  0  0  0  0  0  0  0
  153.8238  141.6577  160.6601 C   0  0  0  0  0  0  0  0  0  0  0  0
  153.3736  142.9025  160.4979 N   0  0  0  0  0  0  0  0  0  0  0  0
  152.4098  142.9483  159.5377 C   0  0  0  0  0  0  0  0  0  0  0  0
  151.7119  144.0524  159.0970 N   0  0  0  0  0  0  0  0  0  0  0  0
  150.8543  143.5960  158.1285 C   0  0  0  0  0  0  0  0  0  0  0  0
  150.9273  142.3132  157.8988 N   0  0  0  0  0  0  0  0  0  0  0  0
  151.9094  141.8525  158.7746 C   0  0  0  0  0  0  0  0  0  0  0  0
  151.8493  144.9857  159.4568 H   0  0  0  0  0  0  0  0  0  0  0  0
  150.2990  140.0257  157.6179 H   0  0  0  0  0  0  0  0  0  0  0  0
  149.7591  137.8677  158.2104 H   0  0  0  0  0  0  0  0  0  0  0  0
  150.2306  137.4909  156.5586 H   0  0  0  0  0  0  0  0  0  0  0  0
  152.4664  136.8589  157.2574 H   0  0  0  0  0  0  0  0  0  0  0  0
  150.4747  135.7485  158.5052 H   0  0  0  0  0  0  0  0  0  0  0  0
  151.9811  138.0522  160.0122 H   0  0  0  0  0  0  0  0  0  0  0  0
  153.4986  137.9152  159.1040 H   0  0  0  0  0  0  0  0  0  0  0  0
  154.5921  141.5301  161.4084 H   0  0  0  0  0  0  0  0  0  0  0  0
  150.1724  144.2450  157.5986 H   0  0  0  0  0  0  0  0  0  0  0  0
  1  2  2  0  0  0  0
  2  3  1  0  0  0  0
  2  4  1  0  0  0  0
  4  5  1  0  0  0  0
  4 20  1  0  0  0  0
  4  9  1  0  0  0  0
  5  6  1  0  0  0  0
  5 21  1  0  0  0  0
  5 22  1  0  0  0  0
  6  7  1  0  0  0  0
  6  8  1  0  0  0  0
  6 23  1  0  0  0  0
  7 24  1  0  0  0  0
  8 25  1  0  0  0  0
  8 26  1  0  0  0  0
  8  9  1  0  0  0  0
  9 10  1  0  0  0  0
 10 11  1  0  0  0  0
 10 18  2  0  0  0  0
 11 12  2  0  0  0  0
 12 27  1  0  0  0  0
 12 13  1  0  0  0  0
 13 14  2  0  0  0  0
 14 15  1  0  0  0  0
 14 18  1  0  0  0  0
 15 16  1  0  0  0  0
 15 19  1  0  0  0  0
 16 17  2  0  0  0  0
 16 28  1  0  0  0  0
 17 18  1  0  0  0  0
M  CHG  1   3  -1
M  END
> <s_m_source_file>
AV-unprocessed.smi

> <i_m_source_file_index>
66

> <i_lp_mmshare_version>
43012

> <i_f3d_flags>
0

> <s_epik_input>
Tz1DKFtPSF0pW0NAQEhdMVtDSDJdW0NAQEhdKFtPSF0pW0NIMl1OMWMobltjSF1uMiljKGMyMylbbkhdW2NIXW4z

> <s_epik_cmdline>
J2VwaWtfcHl0aG9uJywgJy1waCcsICc3LjAnLCAnLXRuJywgJzgnLCAnLW1hJywgJzIwMCcsICctbWV0YWxfYmluZGluZycsICctaW1hZScsICc8aW5maWxlLm1hZT4nLCAnLW9tYWUnLCAnPG91dGZpbGUubWFlPic=

> <r_lp_tautomer_probability>
0.955585

> <r_epik_Ionization_Penalty>
0.00455415

> <r_epik_Ionization_Penalty_Charging>
0.000248217

> <r_epik_Ionization_Penalty_Neutral>
0.00430593

> <r_epik_State_Penalty>
0.0207074

> <r_epik_Charging_Adjusted_Penalty>
0.0209557

> <i_epik_Tot_Q>
-1

> <i_epik_Tot_abs_Q>
1

> <r_epik_Metal_State_Penalty>
0.337372

> <b_epik_Metal_Only>
0

> <s_lp_Force_Field>
OPLS_2005

> <r_lp_Energy>
24.8219

> <b_lp_Chiralities_Consistent>
1

> <s_lp_Variant>
AV-unprocessed.smi:66-4

> <Gold.Version>
5.8.1

> <Gold.Id.Protein>
6NUR|6NUR_protein|mol2

> <Gold.PLP.Fitness>
45.3018

> <Gold.PLP.PLP>
-30.4571

> <Gold.PLP.part.hbond>
-3.0000

> <Gold.PLP.part.metal>
0.0000

> <Gold.PLP.part.buried>
-6.0892

> <Gold.PLP.part.nonpolar>
-21.6443

> <Gold.PLP.part.repulsive>
0.1637

> <Gold.PLP.ligand.clash>
0.0000

> <Gold.PLP.ligand.torsion>
0.1324

> <Gold.PLP.Chemscore.Hbond>
4.0000

> <Gold.PLP.Chemscore.CHOScore>
1.0000

> <Gold.PLP.Chemscore.Metal>
0.0000

> <Gold.Chemscore.Hbonds>
donor molecule, donor type, donor heavy atom, donor atom, acceptor molecule, acceptor atom, score
      P1  H  7989  7998       L1     1  0.80
      P1  H  7997  8010       L1     3  1.79
      L1  C    16    28       P1  8028  1.00
      L1  C    16    28       P1  8029  0.02

> <Gold.PLP.Chemscore.Internal.Correction>
0.1094

> <Gold.Rescore>
     Score         DG    S(hbond)    S(metal)    S(lipo)     H(rot)  DE(clash)    DE(int)     intcor
     12.93     -13.47       2.97        0.00      22.67       1.78       0.00       0.54       ----

> <Gold.Chemscore.Fitness>
12.9277

> <Gold.Chemscore.DG>
-13.4722

> <Gold.Chemscore.ZeroCoef>
-5.4800

> <Gold.Chemscore.Hbond>
2.9664

> <Gold.Chemscore.Metal>
0.0000

> <Gold.Chemscore.Lipo>
22.6663

> <Gold.Chemscore.Internal_Hbond>
0.0000

> <Gold.Chemscore.DEClash>
0.0000

> <Gold.Chemscore.DEInternal>
0.5444

> <Gold.Chemscore.Rot>
1.7842

> <Gold.Chemscore.Internal.Correction>
   9.000000E+99

> <Gold.Chemscore.Hbonds>
donor molecule, donor type, donor heavy atom, donor atom, acceptor molecule, acceptor atom, score
      P1  H  7989  7998       L1     1  0.55
      P1  H  7997  8010       L1     3  0.87

> <Gold.Chemscore.Hbond.Weighted>
-9.9078

> <Gold.Chemscore.Metal.Weighted>
-0.0000

> <Gold.Chemscore.Lipo.Weighted>
-2.6520

> <Gold.Chemscore.Internal_Hbond.Weighted>
0.0000

> <Gold.Chemscore.DEClash.Weighted>
0.0000

> <Gold.Chemscore.DEInternal.Weighted>
0.5444

> <Gold.Chemscore.Rot.Weighted>
4.5676

> <Gold.Chemscore.Internal.Correction.Weighted>
   9.000000E+99

> <Gold.Protein.RotatedTorsions>
[ 6907 6896 6895 6894 ] final  -60.10 input  -60.11 | X-H torsion
[ 7974 7965 7964 7962 ] final   98.51 input  175.53 | X-H torsion
[ 8008 7997 7996 7995 ] final   89.59 input   59.86 | X-H torsion
[ 10167 10162 10161 10158 ] final  -50.22 input  -65.29 | X-H torsion
[ 10718 10713 10712 10709 ] final   -7.15 input   66.30 | X-H torsion
[ 10763 10752 10751 10750 ] final   -6.21 input  -60.55 | X-H torsion
[ 11005 11000 10999 10996 ] final   34.40 input  -57.11 | X-H torsion

> <Gold.Protein.ActiveResidues>
 VAL166  LYS551  ARG553  GLY616  TRP617  ASP618  TYR619  PRO620  LYS621  CYS622 
 ASP623  PHE694  ASN695  SER759  ASP760  ASP761  ALA762  ILE779  LEU786  VAL792 
 PHE793  MET794  SER795  GLU796  ALA797  LYS798  CYS799  TRP800  GLU811  SER814 

> <Gold.Protein.RotatedAtoms>
  150.7881  134.6882  159.6481 H   0  0  0  0  0  0  0  0  0  0  0  0  # atno 6907 bound_to 6896
  152.3981  134.6328  160.0090 H   0  0  0  0  0  0  0  0  0  0  0  0  # atno 6908 bound_to 6896
  151.6608  133.3280  159.3209 H   0  0  0  0  0  0  0  0  0  0  0  0  # atno 6909 bound_to 6896
  145.4112  139.2333  143.3247 H   0  0  0  0  0  0  0  0  0  0  0  0  # atno 7974 bound_to 7965
  156.0017  140.3359  155.6852 H   0  0  0  0  0  0  0  0  0  0  0  0  # atno 8008 bound_to 7997
  155.6280  140.0682  157.2675 H   0  0  0  0  0  0  0  0  0  0  0  0  # atno 8009 bound_to 7997
  154.4251  140.1764  156.1430 H   0  0  0  0  0  0  0  0  0  0  0  0  # atno 8010 bound_to 7997
  140.6648  143.2666  151.4328 H   0  0  0  0  0  0  0  0  0  0  0  0  # atno 10167 bound_to 10162
  156.7215  130.5152  149.5867 H   0  0  0  0  0  0  0  0  0  0  0  0  # atno 10718 bound_to 10713
  153.4092  135.7007  153.6371 H   0  0  0  0  0  0  0  0  0  0  0  0  # atno 10763 bound_to 10752
  153.4872  135.3680  155.2473 H   0  0  0  0  0  0  0  0  0  0  0  0  # atno 10764 bound_to 10752
  154.8716  135.4080  154.3441 H   0  0  0  0  0  0  0  0  0  0  0  0  # atno 10765 bound_to 10752
  140.2532  134.3278  155.7883 H   0  0  0  0  0  0  0  0  0  0  0  0  # atno 11005 bound_to 11000
  146.2704  140.4823  142.8817 LP  0  0  0  0  0  0  0  0  0  0  0  0  # atno 17320 bound_to 7965
  144.8308  140.6703  143.6292 LP  0  0  0  0  0  0  0  0  0  0  0  0  # atno 17321 bound_to 7965
  139.5893  144.1535  152.2068 LP  0  0  0  0  0  0  0  0  0  0  0  0  # atno 17342 bound_to 10162
  140.0884  144.5641  150.7072 LP  0  0  0  0  0  0  0  0  0  0  0  0  # atno 17343 bound_to 10162
  156.1591  130.6362  151.0696 LP  0  0  0  0  0  0  0  0  0  0  0  0  # atno 17370 bound_to 10713
  157.6896  131.0814  150.7146 LP  0  0  0  0  0  0  0  0  0  0  0  0  # atno 17371 bound_to 10713
  141.2199  133.7366  156.9071 LP  0  0  0  0  0  0  0  0  0  0  0  0  # atno 17394 bound_to 11000
  140.1537  134.9213  157.2626 LP  0  0  0  0  0  0  0  0  0  0  0  0  # atno 17395 bound_to 11000

$$$$
