AV-unprocessed.smi:2510|AV-procd|sdf|9884|dock8
  -GOLD-   2272013523D 1   1.00000     0.00000
 Structure written by MMmdl.
 48 49  0  0  0  0  0  0  0  0  1 V2000
  152.8177  138.6792  153.9308 C   0  0  0  0  0  0  0  0  0  0  0  0
  152.1847  139.8382  154.7239 C   0  0  0  0  0  0  0  0  0  0  0  0
  150.7522  139.6101  155.2866 C   0  0  0  0  0  0  0  0  0  0  0  0
  150.7603  138.3763  156.2153 C   0  0  0  0  0  0  0  0  0  0  0  0
  150.7946  137.0226  155.4874 C   0  0  0  0  0  0  0  0  0  0  0  0
  149.9783  140.8416  155.8363 C   0  0  1  0  0  0  0  0  0  0  0  0
  150.8044  141.9341  156.3363 N   0  0  0  0  0  0  0  0  0  0  0  0
  150.7313  142.4338  157.5790 C   0  0  0  0  0  0  0  0  0  0  0  0
  149.9721  141.9965  158.4435 O   0  0  0  0  0  0  0  0  0  0  0  0
  151.6594  143.6056  157.8967 C   0  0  0  0  0  0  0  0  0  0  0  0
  152.3735  143.3795  159.1902 C   0  0  0  0  0  0  0  0  0  0  0  0
  153.1967  142.3687  159.6011 C   0  0  0  0  0  0  0  0  0  0  0  0
  153.5517  142.7230  160.9356 C   0  0  0  0  0  0  0  0  0  0  0  0
  154.4370  141.9746  161.8882 C   0  0  0  0  0  0  0  0  0  0  0  0
  152.9991  143.8639  161.3204 N   0  0  0  0  0  0  0  0  0  0  0  0
  152.2855  144.2558  160.2487 N   0  0  0  0  0  0  0  0  0  0  0  0
  149.4394  141.1148  154.4290 C   0  0  2  0  0  0  0  0  0  0  0  0
  148.0638  141.7486  154.2600 C   0  0  0  0  0  0  0  0  0  0  0  0
  149.6577  139.6111  154.1801 C   0  0  2  0  0  0  0  0  0  0  0  0
  148.5237  138.8297  154.5430 O   0  0  0  0  0  0  0  0  0  0  0  0
  147.5005  138.8439  153.5619 C   0  0  0  0  0  0  0  0  0  0  0  0
  151.7485  145.1110  160.2552 H   0  0  0  0  0  0  0  0  0  0  0  0
  153.8565  138.9081  153.6928 H   0  0  0  0  0  0  0  0  0  0  0  0
  152.3087  138.5086  152.9826 H   0  0  0  0  0  0  0  0  0  0  0  0
  152.8125  137.7442  154.4867 H   0  0  0  0  0  0  0  0  0  0  0  0
  152.8690  140.0843  155.5355 H   0  0  0  0  0  0  0  0  0  0  0  0
  152.1924  140.7245  154.0893 H   0  0  0  0  0  0  0  0  0  0  0  0
  151.5843  138.4306  156.9258 H   0  0  0  0  0  0  0  0  0  0  0  0
  149.8713  138.3872  156.8466 H   0  0  0  0  0  0  0  0  0  0  0  0
  150.7222  136.2023  156.2016 H   0  0  0  0  0  0  0  0  0  0  0  0
  151.7201  136.8847  154.9293 H   0  0  0  0  0  0  0  0  0  0  0  0
  149.9632  136.9243  154.7894 H   0  0  0  0  0  0  0  0  0  0  0  0
  149.1696  140.5568  156.5143 H   0  0  0  0  0  0  0  0  0  0  0  0
  151.4600  142.3484  155.6900 H   0  0  0  0  0  0  0  0  0  0  0  0
  152.3812  143.7191  157.0872 H   0  0  0  0  0  0  0  0  0  0  0  0
  151.0881  144.5344  157.9349 H   0  0  0  0  0  0  0  0  0  0  0  0
  153.4981  141.5009  159.0333 H   0  0  0  0  0  0  0  0  0  0  0  0
  154.8006  141.0480  161.4437 H   0  0  0  0  0  0  0  0  0  0  0  0
  153.9009  141.7152  162.8015 H   0  0  0  0  0  0  0  0  0  0  0  0
  155.3054  142.5712  162.1677 H   0  0  0  0  0  0  0  0  0  0  0  0
  150.1747  141.6752  153.8488 H   0  0  0  0  0  0  0  0  0  0  0  0
  147.3032  141.2169  154.8320 H   0  0  0  0  0  0  0  0  0  0  0  0
  147.7544  141.7493  153.2149 H   0  0  0  0  0  0  0  0  0  0  0  0
  148.0655  142.7832  154.6030 H   0  0  0  0  0  0  0  0  0  0  0  0
  150.0510  139.3715  153.1903 H   0  0  0  0  0  0  0  0  0  0  0  0
  146.6480  138.2632  153.9138 H   0  0  0  0  0  0  0  0  0  0  0  0
  147.8489  138.3966  152.6302 H   0  0  0  0  0  0  0  0  0  0  0  0
  147.1556  139.8565  153.3534 H   0  0  0  0  0  0  0  0  0  0  0  0
  1  2  1  0  0  0  0
  1 23  1  0  0  0  0
  1 24  1  0  0  0  0
  1 25  1  0  0  0  0
  2  3  1  0  0  0  0
  2 26  1  0  0  0  0
  2 27  1  0  0  0  0
  3 19  1  0  0  0  0
  3  4  1  0  0  0  0
  3  6  1  0  0  0  0
  4  5  1  0  0  0  0
  4 28  1  0  0  0  0
  4 29  1  0  0  0  0
  5 30  1  0  0  0  0
  5 31  1  0  0  0  0
  5 32  1  0  0  0  0
  6  7  1  0  0  0  0
  6 17  1  0  0  0  0
  6 33  1  0  0  0  0
  7  8  1  0  0  0  0
  7 34  1  0  0  0  0
  8  9  2  0  0  0  0
  8 10  1  0  0  0  0
 10 35  1  0  0  0  0
 10 36  1  0  0  0  0
 10 11  1  0  0  0  0
 11 16  1  0  0  0  0
 11 12  2  0  0  0  0
 12 13  1  0  0  0  0
 12 37  1  0  0  0  0
 13 14  1  0  0  0  0
 13 15  2  0  0  0  0
 14 38  1  0  0  0  0
 14 39  1  0  0  0  0
 14 40  1  0  0  0  0
 15 16  1  0  0  0  0
 16 22  1  0  0  0  0
 17 18  1  0  0  0  0
 17 19  1  0  0  0  0
 17 41  1  0  0  0  0
 18 42  1  0  0  0  0
 18 43  1  0  0  0  0
 18 44  1  0  0  0  0
 19 20  1  0  0  0  0
 19 45  1  0  0  0  0
 20 21  1  0  0  0  0
 21 46  1  0  0  0  0
 21 47  1  0  0  0  0
 21 48  1  0  0  0  0
M  END
> <s_m_source_file>
AV-unprocessed.smi

> <i_m_source_file_index>
2510

> <i_lp_mmshare_version>
43012

> <i_f3d_flags>
0

> <s_epik_input>
W0NIM11PW0NAQEhdMVtDQEhdKFtDSDNdKVtDQEBIXShDMShbQ0gyXVtDSDNdKVtDSDJdW0NIM10pW05IXUMoPU8pW0NIMl1jMltjSF1jKFtDSDNdKVtuSF1uMg==

> <s_epik_cmdline>
J2VwaWtfcHl0aG9uJywgJy1waCcsICc3LjAnLCAnLXRuJywgJzgnLCAnLW1hJywgJzIwMCcsICctbWV0YWxfYmluZGluZycsICctaW1hZScsICc8aW5maWxlLm1hZT4nLCAnLW9tYWUnLCAnPG91dGZpbGUubWFlPic=

> <r_lp_tautomer_probability>
0.5

> <r_epik_Ionization_Penalty>
0.000134763

> <r_epik_Ionization_Penalty_Charging>
0

> <r_epik_Ionization_Penalty_Neutral>
0.000134763

> <r_epik_State_Penalty>
0.41068

> <r_epik_Charging_Adjusted_Penalty>
0.41068

> <i_epik_Tot_Q>
0

> <i_epik_Tot_abs_Q>
0

> <r_epik_Metal_State_Penalty>
0.410661

> <b_epik_Metal_Only>
0

> <s_lp_Force_Field>
OPLS_2005

> <r_lp_Energy>
27.4462

> <b_lp_Chiralities_Consistent>
1

> <s_lp_Variant>
AV-unprocessed.smi:2510-15

> <Gold.Version>
5.8.1

> <Gold.Id.Protein>
6NUR|6NUR_protein|mol2

> <Gold.PLP.Fitness>
42.5550

> <Gold.PLP.PLP>
-43.2882

> <Gold.PLP.part.hbond>
-0.1012

> <Gold.PLP.part.metal>
0.0000

> <Gold.PLP.part.buried>
-3.8299

> <Gold.PLP.part.nonpolar>
-40.0990

> <Gold.PLP.part.repulsive>
0.5593

> <Gold.PLP.ligand.clash>
0.0000

> <Gold.PLP.ligand.torsion>
0.7005

> <Gold.PLP.Chemscore.Hbond>
0.0000

> <Gold.PLP.Chemscore.CHOScore>
0.0000

> <Gold.PLP.Chemscore.Metal>
0.0000

> <Gold.PLP.Chemscore.Internal.Correction>
0.6678

> <Gold.Rescore>
     Score         DG    S(hbond)    S(metal)    S(lipo)     H(rot)  DE(clash)    DE(int)     intcor
     13.43     -14.17       0.00        0.00     113.92       1.81       0.06       0.68       ----

> <Gold.Chemscore.Fitness>
13.4339

> <Gold.Chemscore.DG>
-14.1743

> <Gold.Chemscore.ZeroCoef>
-5.4800

> <Gold.Chemscore.Hbond>
0.0000

> <Gold.Chemscore.Metal>
0.0000

> <Gold.Chemscore.Lipo>
113.9181

> <Gold.Chemscore.Internal_Hbond>
0.0000

> <Gold.Chemscore.DEClash>
0.0605

> <Gold.Chemscore.DEInternal>
0.6799

> <Gold.Chemscore.Rot>
1.8102

> <Gold.Chemscore.Internal.Correction>
   9.000000E+99

> <Gold.Chemscore.Hbond.Weighted>
-0.0000

> <Gold.Chemscore.Metal.Weighted>
-0.0000

> <Gold.Chemscore.Lipo.Weighted>
-13.3284

> <Gold.Chemscore.Internal_Hbond.Weighted>
0.0000

> <Gold.Chemscore.DEClash.Weighted>
0.0605

> <Gold.Chemscore.DEInternal.Weighted>
0.6799

> <Gold.Chemscore.Rot.Weighted>
4.6341

> <Gold.Chemscore.Internal.Correction.Weighted>
   9.000000E+99

> <Gold.Protein.RotatedTorsions>
[ 6907 6896 6895 6894 ] final  -54.69 input  -60.11 | X-H torsion
[ 7974 7965 7964 7962 ] final   67.88 input  175.53 | X-H torsion
[ 8008 7997 7996 7995 ] final   44.23 input   59.86 | X-H torsion
[ 10167 10162 10161 10158 ] final   86.55 input  -65.29 | X-H torsion
[ 10718 10713 10712 10709 ] final   -7.76 input   66.30 | X-H torsion
[ 10763 10752 10751 10750 ] final   -2.12 input  -60.55 | X-H torsion
[ 11005 11000 10999 10996 ] final -163.97 input  -57.11 | X-H torsion

> <Gold.Protein.ActiveResidues>
 VAL166  LYS551  ARG553  GLY616  TRP617  ASP618  TYR619  PRO620  LYS621  CYS622 
 ASP623  PHE694  ASN695  SER759  ASP760  ASP761  ALA762  ILE779  LEU786  VAL792 
 PHE793  MET794  SER795  GLU796  ALA797  LYS798  CYS799  TRP800  GLU811  SER814 

> <Gold.Protein.RotatedAtoms>
  150.8316  134.7572  159.6858 H   0  0  0  0  0  0  0  0  0  0  0  0  # atno 6907 bound_to 6896
  152.4420  134.5569  159.9893 H   0  0  0  0  0  0  0  0  0  0  0  0  # atno 6908 bound_to 6896
  151.5729  133.3350  159.3029 H   0  0  0  0  0  0  0  0  0  0  0  0  # atno 6909 bound_to 6896
  145.8093  139.3024  143.1108 H   0  0  0  0  0  0  0  0  0  0  0  0  # atno 7974 bound_to 7965
  155.3158  140.3394  155.4242 H   0  0  0  0  0  0  0  0  0  0  0  0  # atno 8008 bound_to 7997
  156.1933  140.1705  156.8086 H   0  0  0  0  0  0  0  0  0  0  0  0  # atno 8009 bound_to 7997
  154.5468  140.0713  156.8586 H   0  0  0  0  0  0  0  0  0  0  0  0  # atno 8010 bound_to 7997
  139.8864  144.6411  150.8787 H   0  0  0  0  0  0  0  0  0  0  0  0  # atno 10167 bound_to 10162
  156.7125  130.5126  149.5888 H   0  0  0  0  0  0  0  0  0  0  0  0  # atno 10718 bound_to 10713
  153.3538  135.6987  153.6767 H   0  0  0  0  0  0  0  0  0  0  0  0  # atno 10763 bound_to 10752
  153.5483  135.3559  155.2749 H   0  0  0  0  0  0  0  0  0  0  0  0  # atno 10764 bound_to 10752
  154.8657  135.4220  154.2779 H   0  0  0  0  0  0  0  0  0  0  0  0  # atno 10765 bound_to 10752
  140.5921  134.5034  157.5194 H   0  0  0  0  0  0  0  0  0  0  0  0  # atno 11005 bound_to 11000
  145.9794  140.8695  143.0122 LP  0  0  0  0  0  0  0  0  0  0  0  0  # atno 17320 bound_to 7965
  144.6759  140.2058  143.7382 LP  0  0  0  0  0  0  0  0  0  0  0  0  # atno 17321 bound_to 7965
  140.7735  143.3545  151.1949 LP  0  0  0  0  0  0  0  0  0  0  0  0  # atno 17342 bound_to 10162
  139.7149  143.9316  152.2963 LP  0  0  0  0  0  0  0  0  0  0  0  0  # atno 17343 bound_to 10162
  156.1651  130.6400  151.0768 LP  0  0  0  0  0  0  0  0  0  0  0  0  # atno 17370 bound_to 10713
  157.6930  131.0803  150.7051 LP  0  0  0  0  0  0  0  0  0  0  0  0  # atno 17371 bound_to 10713
  139.9269  134.8038  156.1041 LP  0  0  0  0  0  0  0  0  0  0  0  0  # atno 17394 bound_to 11000
  141.0928  133.6707  156.2578 LP  0  0  0  0  0  0  0  0  0  0  0  0  # atno 17395 bound_to 11000

$$$$
