AV-unprocessed.smi:1803|AV-procd|sdf|7280|dock1
  -GOLD-   22720 8543D 1   1.00000     0.00000
 Structure written by MMmdl.
 36 38  0  0  0  0  0  0  0  0  2 V2000
  145.6286  138.0466  154.1527 O   0  0  0  0  0  0  0  0  0  0  0  0
  146.4969  137.3998  153.5700 C   0  0  0  0  0  0  0  0  0  0  0  0
  147.7394  137.8958  153.3923 N   0  0  0  0  0  0  0  0  0  0  0  0
  148.3137  139.1413  153.7794 C   0  0  0  0  0  0  0  0  0  0  0  0
  149.5927  139.2992  154.1588 N   0  0  0  0  0  0  0  0  0  0  0  0
  149.8759  140.6123  154.5079 N   0  0  0  0  0  0  0  0  0  0  0  0
  148.7981  141.3930  154.3922 C   0  0  0  0  0  0  0  0  0  0  0  0
  147.3320  140.5983  153.8457 S   0  0  0  0  0  0  0  0  0  0  0  0
  146.2748  136.1709  153.0753 N   0  0  0  0  0  0  0  0  0  0  0  0
  145.0338  135.4178  153.2232 C   0  0  1  0  0  0  0  0  0  0  0  0
  143.8998  135.9454  152.3538 C   0  0  0  0  0  0  0  0  0  0  0  0
  142.9293  134.7612  152.2981 C   0  0  0  0  0  0  0  0  0  0  0  0
  143.7383  133.5326  152.4912 N   0  3  1  0  0  0  0  0  0  0  0  0
  143.5905  132.5332  151.3993 C   0  0  0  0  0  0  0  0  0  0  0  0
  144.7209  131.4947  151.4472 C   0  0  0  0  0  0  0  0  0  0  0  0
  146.0990  132.1517  151.2435 C   0  0  0  0  0  0  0  0  0  0  0  0
  146.1040  133.6436  151.6272 C   0  0  0  0  0  0  0  0  0  0  0  0
  145.1383  133.9399  152.8016 C   0  0  1  0  0  0  0  0  0  0  0  0
  148.3398  137.3250  152.8147 H   0  0  0  0  0  0  0  0  0  0  0  0
  148.8660  142.4433  154.6343 H   0  0  0  0  0  0  0  0  0  0  0  0
  147.0384  135.7083  152.6024 H   0  0  0  0  0  0  0  0  0  0  0  0
  144.7043  135.4661  154.2633 H   0  0  0  0  0  0  0  0  0  0  0  0
  143.4399  136.8484  152.7568 H   0  0  0  0  0  0  0  0  0  0  0  0
  144.2646  136.1720  151.3507 H   0  0  0  0  0  0  0  0  0  0  0  0
  142.2166  134.8237  153.1212 H   0  0  0  0  0  0  0  0  0  0  0  0
  142.3540  134.7571  151.3713 H   0  0  0  0  0  0  0  0  0  0  0  0
  142.6185  132.0479  151.4920 H   0  0  0  0  0  0  0  0  0  0  0  0
  143.6037  133.0310  150.4281 H   0  0  0  0  0  0  0  0  0  0  0  0
  144.6969  130.9894  152.4135 H   0  0  0  0  0  0  0  0  0  0  0  0
  144.5627  130.7209  150.6956 H   0  0  0  0  0  0  0  0  0  0  0  0
  146.8405  131.6114  151.8331 H   0  0  0  0  0  0  0  0  0  0  0  0
  146.4104  132.0544  150.2029 H   0  0  0  0  0  0  0  0  0  0  0  0
  147.1245  133.9423  151.8679 H   0  0  0  0  0  0  0  0  0  0  0  0
  145.8121  134.2400  150.7617 H   0  0  0  0  0  0  0  0  0  0  0  0
  145.4763  133.3548  153.6583 H   0  0  0  0  0  0  0  0  0  0  0  0
  143.3889  133.0943  153.3316 H   0  0  0  0  0  0  0  0  0  0  0  0
  1  2  2  0  0  0  0
  2  3  1  0  0  0  0
  2  9  1  0  0  0  0
  3  4  1  0  0  0  0
  3 19  1  0  0  0  0
  4  8  1  0  0  0  0
  4  5  2  0  0  0  0
  5  6  1  0  0  0  0
  6  7  2  0  0  0  0
  7  8  1  0  0  0  0
  7 20  1  0  0  0  0
  9 10  1  0  0  0  0
  9 21  1  0  0  0  0
 10 18  1  0  0  0  0
 10 11  1  0  0  0  0
 10 22  1  0  0  0  0
 11 12  1  0  0  0  0
 11 23  1  0  0  0  0
 11 24  1  0  0  0  0
 12 13  1  0  0  0  0
 12 25  1  0  0  0  0
 12 26  1  0  0  0  0
 13 18  1  0  0  0  0
 13 14  1  0  0  0  0
 13 36  1  0  0  0  0
 14 15  1  0  0  0  0
 14 27  1  0  0  0  0
 14 28  1  0  0  0  0
 15 16  1  0  0  0  0
 15 29  1  0  0  0  0
 15 30  1  0  0  0  0
 16 17  1  0  0  0  0
 16 31  1  0  0  0  0
 16 32  1  0  0  0  0
 17 18  1  0  0  0  0
 17 33  1  0  0  0  0
 17 34  1  0  0  0  0
 18 35  1  0  0  0  0
M  CHG  1  13   1
M  END
> <s_m_source_file>
AV-unprocessed.smi

> <i_m_source_file_index>
1803

> <i_lp_mmshare_version>
43012

> <i_f3d_flags>
0

> <s_epik_input>
czFbY0hdbm5jMVtOSF1DKD1PKVtOSF1bQ0BIXShbQ0gyXVtDSDJdMilbQ0BASF0oTjIzKVtDSDJdW0NIMl1bQ0gyXVtDSDJdMw==

> <s_epik_cmdline>
J2VwaWtfcHl0aG9uJywgJy1waCcsICc3LjAnLCAnLXRuJywgJzgnLCAnLW1hJywgJzIwMCcsICctbWV0YWxfYmluZGluZycsICctaW1hZScsICc8aW5maWxlLm1hZT4nLCAnLW9tYWUnLCAnPG91dGZpbGUubWFlPic=

> <r_lp_tautomer_probability>
1

> <r_epik_Ionization_Penalty>
0.00213286

> <r_epik_Ionization_Penalty_Charging>
0.00107044

> <r_epik_Ionization_Penalty_Neutral>
0.00106242

> <r_epik_State_Penalty>
-0

> <r_epik_Charging_Adjusted_Penalty>
0.00107044

> <i_epik_Tot_Q>
1

> <i_epik_Tot_abs_Q>
1

> <r_epik_Metal_State_Penalty>
0.292783

> <b_epik_Metal_Only>
0

> <s_lp_Force_Field>
OPLS_2005

> <r_lp_Energy>
41.8675

> <b_lp_Chiralities_Consistent>
1

> <s_lp_Variant>
AV-unprocessed.smi:1803-2

> <Gold.Version>
5.8.1

> <Gold.Id.Protein>
6NUR|6NUR_protein|mol2

> <Gold.PLP.Fitness>
41.5026

> <Gold.PLP.PLP>
-26.7604

> <Gold.PLP.part.hbond>
-3.8472

> <Gold.PLP.part.metal>
0.0000

> <Gold.PLP.part.buried>
-4.7489

> <Gold.PLP.part.nonpolar>
-19.6970

> <Gold.PLP.part.repulsive>
0.7012

> <Gold.PLP.ligand.clash>
0.0000

> <Gold.PLP.ligand.torsion>
0.3692

> <Gold.PLP.Chemscore.Hbond>
4.1590

> <Gold.PLP.Chemscore.CHOScore>
1.0000

> <Gold.PLP.Chemscore.Metal>
0.0000

> <Gold.Chemscore.Hbonds>
donor molecule, donor type, donor heavy atom, donor atom, acceptor molecule, acceptor atom, score
      L1  H     3    19       P1  7948  1.00
      L1  H     9    21       P1  7948  0.62
      L1  H    13    36       P1 10957  1.69
      P1  H  7989  7998       L1     6  0.78
      L1  C     7    20       P1  8028  1.00

> <Gold.PLP.Chemscore.Internal.Correction>
0.0038

> <Gold.Rescore>
     Score         DG    S(hbond)    S(metal)    S(lipo)     H(rot)  DE(clash)    DE(int)     intcor
     18.21     -18.94       2.74        0.00      58.71       1.00       0.33       0.40       ----

> <Gold.Chemscore.Fitness>
18.2109

> <Gold.Chemscore.DG>
-18.9428

> <Gold.Chemscore.ZeroCoef>
-5.4800

> <Gold.Chemscore.Hbond>
2.7406

> <Gold.Chemscore.Metal>
0.0000

> <Gold.Chemscore.Lipo>
58.7121

> <Gold.Chemscore.Internal_Hbond>
0.0000

> <Gold.Chemscore.DEClash>
0.3269

> <Gold.Chemscore.DEInternal>
0.4050

> <Gold.Chemscore.Rot>
1.0000

> <Gold.Chemscore.Internal.Correction>
   9.000000E+99

> <Gold.Chemscore.Hbonds>
donor molecule, donor type, donor heavy atom, donor atom, acceptor molecule, acceptor atom, score
      L1  H     3    19       P1  7948  0.97
      L1  H     9    21       P1  7948  0.61
      L1  H    13    36       P1 10957  0.72
      P1  H  7989  7998       L1     6  0.18

> <Gold.Chemscore.Hbond.Weighted>
-9.1535

> <Gold.Chemscore.Metal.Weighted>
-0.0000

> <Gold.Chemscore.Lipo.Weighted>
-6.8693

> <Gold.Chemscore.Internal_Hbond.Weighted>
0.0000

> <Gold.Chemscore.DEClash.Weighted>
0.3269

> <Gold.Chemscore.DEInternal.Weighted>
0.4050

> <Gold.Chemscore.Rot.Weighted>
2.5600

> <Gold.Chemscore.Internal.Correction.Weighted>
   9.000000E+99

> <Gold.Protein.RotatedTorsions>
[ 6907 6896 6895 6894 ] final  -35.03 input  -60.11 | X-H torsion
[ 7974 7965 7964 7962 ] final -150.67 input  175.53 | X-H torsion
[ 8008 7997 7996 7995 ] final  -22.52 input   59.86 | X-H torsion
[ 10167 10162 10161 10158 ] final   51.85 input  -65.29 | X-H torsion
[ 10718 10713 10712 10709 ] final  163.79 input   66.30 | X-H torsion
[ 10763 10752 10751 10750 ] final  102.44 input  -60.55 | X-H torsion
[ 11005 11000 10999 10996 ] final   83.84 input  -57.11 | X-H torsion

> <Gold.Protein.ActiveResidues>
 VAL166  LYS551  ARG553  GLY616  TRP617  ASP618  TYR619  PRO620  LYS621  CYS622 
 ASP623  PHE694  ASN695  SER759  ASP760  ASP761  ALA762  ILE779  LEU786  VAL792 
 PHE793  MET794  SER795  GLU796  ALA797  LYS798  CYS799  TRP800  GLU811  SER814 

> <Gold.Protein.RotatedAtoms>
  151.0450  134.9633  159.8181 H   0  0  0  0  0  0  0  0  0  0  0  0  # atno 6907 bound_to 6896
  152.5371  134.2610  159.8945 H   0  0  0  0  0  0  0  0  0  0  0  0  # atno 6908 bound_to 6896
  151.2623  133.4253  159.2650 H   0  0  0  0  0  0  0  0  0  0  0  0  # atno 6909 bound_to 6896
  144.7894  140.4900  143.5783 H   0  0  0  0  0  0  0  0  0  0  0  0  # atno 7974 bound_to 7965
  154.4639  140.2005  156.0170 H   0  0  0  0  0  0  0  0  0  0  0  0  # atno 8008 bound_to 7997
  156.0891  140.3260  155.7764 H   0  0  0  0  0  0  0  0  0  0  0  0  # atno 8009 bound_to 7997
  155.4985  140.0552  157.2933 H   0  0  0  0  0  0  0  0  0  0  0  0  # atno 8010 bound_to 7997
  140.2576  144.3409  150.6328 H   0  0  0  0  0  0  0  0  0  0  0  0  # atno 10167 bound_to 10162
  157.1036  131.0449  151.2487 H   0  0  0  0  0  0  0  0  0  0  0  0  # atno 10718 bound_to 10713
  153.3396  135.4010  155.1561 H   0  0  0  0  0  0  0  0  0  0  0  0  # atno 10763 bound_to 10752
  154.8641  135.3630  154.5363 H   0  0  0  0  0  0  0  0  0  0  0  0  # atno 10764 bound_to 10752
  153.5807  135.7076  153.5524 H   0  0  0  0  0  0  0  0  0  0  0  0  # atno 10765 bound_to 10752
  139.9018  134.8173  156.2364 H   0  0  0  0  0  0  0  0  0  0  0  0  # atno 11005 bound_to 11000
  145.5835  139.1490  143.3222 LP  0  0  0  0  0  0  0  0  0  0  0  0  # atno 17320 bound_to 7965
  146.2139  140.5964  142.9047 LP  0  0  0  0  0  0  0  0  0  0  0  0  # atno 17321 bound_to 7965
  140.5991  143.2167  151.7106 LP  0  0  0  0  0  0  0  0  0  0  0  0  # atno 17342 bound_to 10162
  139.5027  144.3820  152.0366 LP  0  0  0  0  0  0  0  0  0  0  0  0  # atno 17343 bound_to 10162
  157.4620  130.7659  149.7244 LP  0  0  0  0  0  0  0  0  0  0  0  0  # atno 17370 bound_to 10713
  155.9867  130.3972  150.3197 LP  0  0  0  0  0  0  0  0  0  0  0  0  # atno 17371 bound_to 10713
  141.0313  133.6987  156.1435 LP  0  0  0  0  0  0  0  0  0  0  0  0  # atno 17394 bound_to 11000
  140.7092  134.4480  157.5582 LP  0  0  0  0  0  0  0  0  0  0  0  0  # atno 17395 bound_to 11000

$$$$
