AV-unprocessed.smi:3348|AV-procd|sdf|12930|dock3
  -GOLD-   2272019363D 1   1.00000     0.00000
 Structure written by MMmdl.
 46 47  0  0  0  0  0  0  0  0  1 V2000
  150.6727  136.6878  155.8903 C   0  0  0  0  0  0  0  0  0  0  0  0
  149.3343  137.1582  155.2951 C   0  0  1  0  0  0  0  0  0  0  0  0
  149.4528  138.5085  154.5471 C   0  0  0  0  0  0  0  0  0  0  0  0
  149.6126  139.6443  155.4373 N   0  0  0  0  0  0  0  0  0  0  0  0
  149.6474  139.6543  156.8160 C   0  0  0  0  0  0  0  0  0  0  0  0
  149.8196  140.9505  157.2086 C   0  0  0  0  0  0  0  0  0  0  0  0
  149.8858  141.6688  155.9821 C   0  0  0  0  0  0  0  0  0  0  0  0
  149.7649  140.8841  154.9236 N   0  0  0  0  0  0  0  0  0  0  0  0
  148.7997  136.1034  154.4288 N   0  0  0  0  0  0  0  0  0  0  0  0
  149.0033  134.7359  154.9044 C   0  0  0  0  0  0  0  0  0  0  0  0
  148.7831  133.7288  153.7714 C   0  0  0  0  0  0  0  0  0  0  0  0
  147.4798  133.9192  153.2399 O   0  0  0  0  0  0  0  0  0  0  0  0
  147.1173  133.0057  152.2109 C   0  0  1  0  0  0  0  0  0  0  0  0
  146.8336  131.6156  152.8212 C   0  0  0  0  0  0  0  0  0  0  0  0
  146.2985  130.6322  151.7701 C   0  0  0  0  0  0  0  0  0  0  0  0
  145.0466  131.1907  151.0802 C   0  0  0  0  0  0  0  0  0  0  0  0
  145.3286  132.5671  150.4596 C   0  0  0  0  0  0  0  0  0  0  0  0
  145.8620  133.5676  151.5045 C   0  0  2  0  0  0  0  0  0  0  0  0
  146.1360  134.9334  150.8541 C   0  0  0  0  0  0  0  0  0  0  0  0
  151.0500  137.3867  156.6369 H   0  0  0  0  0  0  0  0  0  0  0  0
  151.4344  136.5811  155.1174 H   0  0  0  0  0  0  0  0  0  0  0  0
  150.5635  135.7223  156.3854 H   0  0  0  0  0  0  0  0  0  0  0  0
  148.6484  137.2976  156.1319 H   0  0  0  0  0  0  0  0  0  0  0  0
  150.3074  138.4863  153.8691 H   0  0  0  0  0  0  0  0  0  0  0  0
  148.5716  138.6941  153.9324 H   0  0  0  0  0  0  0  0  0  0  0  0
  149.5446  138.7488  157.3957 H   0  0  0  0  0  0  0  0  0  0  0  0
  149.8884  141.3277  158.2179 H   0  0  0  0  0  0  0  0  0  0  0  0
  150.0182  142.7298  155.8308 H   0  0  0  0  0  0  0  0  0  0  0  0
  149.1985  136.1955  153.4997 H   0  0  0  0  0  0  0  0  0  0  0  0
  150.0069  134.6161  155.3146 H   0  0  0  0  0  0  0  0  0  0  0  0
  148.3032  134.5114  155.7084 H   0  0  0  0  0  0  0  0  0  0  0  0
  149.5201  133.9048  152.9868 H   0  0  0  0  0  0  0  0  0  0  0  0
  148.9299  132.7112  154.1335 H   0  0  0  0  0  0  0  0  0  0  0  0
  147.9221  132.9278  151.4771 H   0  0  0  0  0  0  0  0  0  0  0  0
  147.7355  131.1988  153.2682 H   0  0  0  0  0  0  0  0  0  0  0  0
  146.1070  131.7132  153.6288 H   0  0  0  0  0  0  0  0  0  0  0  0
  147.0709  130.4352  151.0254 H   0  0  0  0  0  0  0  0  0  0  0  0
  146.0691  129.6754  152.2397 H   0  0  0  0  0  0  0  0  0  0  0  0
  144.7059  130.4980  150.3103 H   0  0  0  0  0  0  0  0  0  0  0  0
  144.2345  131.2744  151.8038 H   0  0  0  0  0  0  0  0  0  0  0  0
  146.0531  132.4574  149.6513 H   0  0  0  0  0  0  0  0  0  0  0  0
  144.4161  132.9541  150.0049 H   0  0  0  0  0  0  0  0  0  0  0  0
  145.0855  133.7098  152.2578 H   0  0  0  0  0  0  0  0  0  0  0  0
  146.9171  134.8623  150.0967 H   0  0  0  0  0  0  0  0  0  0  0  0
  146.4553  135.6689  151.5927 H   0  0  0  0  0  0  0  0  0  0  0  0
  145.2399  135.3249  150.3719 H   0  0  0  0  0  0  0  0  0  0  0  0
  1  2  1  0  0  0  0
  1 20  1  0  0  0  0
  1 21  1  0  0  0  0
  1 22  1  0  0  0  0
  2  3  1  0  0  0  0
  2  9  1  0  0  0  0
  2 23  1  0  0  0  0
  3  4  1  0  0  0  0
  3 24  1  0  0  0  0
  3 25  1  0  0  0  0
  4  8  1  0  0  0  0
  4  5  1  0  0  0  0
  5  6  2  0  0  0  0
  5 26  1  0  0  0  0
  6  7  1  0  0  0  0
  6 27  1  0  0  0  0
  7  8  2  0  0  0  0
  7 28  1  0  0  0  0
  9 10  1  0  0  0  0
  9 29  1  0  0  0  0
 10 11  1  0  0  0  0
 10 30  1  0  0  0  0
 10 31  1  0  0  0  0
 11 12  1  0  0  0  0
 11 32  1  0  0  0  0
 11 33  1  0  0  0  0
 12 13  1  0  0  0  0
 13 18  1  0  0  0  0
 13 14  1  0  0  0  0
 13 34  1  0  0  0  0
 14 15  1  0  0  0  0
 14 35  1  0  0  0  0
 14 36  1  0  0  0  0
 15 16  1  0  0  0  0
 15 37  1  0  0  0  0
 15 38  1  0  0  0  0
 16 17  1  0  0  0  0
 16 39  1  0  0  0  0
 16 40  1  0  0  0  0
 17 18  1  0  0  0  0
 17 41  1  0  0  0  0
 17 42  1  0  0  0  0
 18 19  1  0  0  0  0
 18 43  1  0  0  0  0
 19 44  1  0  0  0  0
 19 45  1  0  0  0  0
 19 46  1  0  0  0  0
M  END
> <s_m_source_file>
AV-unprocessed.smi

> <i_m_source_file_index>
3348

> <i_lp_mmshare_version>
43012

> <i_f3d_flags>
0

> <s_epik_input>
bjFbY0hdW2NIXVtjSF1uMVtDSDJdW0NAQEhdKFtDSDNdKVtOSF1bQ0gyXVtDSDJdT1tDQEBIXTJbQ0gyXVtDSDJdW0NIMl1bQ0gyXVtDQEhdMltDSDNd

> <s_epik_cmdline>
J2VwaWtfcHl0aG9uJywgJy1waCcsICc3LjAnLCAnLXRuJywgJzgnLCAnLW1hJywgJzIwMCcsICctbWV0YWxfYmluZGluZycsICctaW1hZScsICc8aW5maWxlLm1hZT4nLCAnLW9tYWUnLCAnPG91dGZpbGUubWFlPic=

> <r_lp_tautomer_probability>
1

> <r_epik_Ionization_Penalty>
2.46945

> <r_epik_Ionization_Penalty_Charging>
0

> <r_epik_Ionization_Penalty_Neutral>
2.46945

> <r_epik_State_Penalty>
2.6322

> <r_epik_Charging_Adjusted_Penalty>
2.6322

> <i_epik_Tot_Q>
0

> <i_epik_Tot_abs_Q>
0

> <r_epik_Metal_State_Penalty>
2.63217

> <b_epik_Metal_Only>
0

> <s_lp_Force_Field>
OPLS_2005

> <r_lp_Energy>
15.3902

> <b_lp_Chiralities_Consistent>
1

> <s_lp_Variant>
AV-unprocessed.smi:3348-16

> <Gold.Version>
5.8.1

> <Gold.Id.Protein>
6NUR|6NUR_protein|mol2

> <Gold.PLP.Fitness>
40.7056

> <Gold.PLP.PLP>
-33.0381

> <Gold.PLP.part.hbond>
-2.0000

> <Gold.PLP.part.metal>
0.0000

> <Gold.PLP.part.buried>
-4.9290

> <Gold.PLP.part.nonpolar>
-26.9693

> <Gold.PLP.part.repulsive>
0.2599

> <Gold.PLP.ligand.clash>
0.0000

> <Gold.PLP.ligand.torsion>
0.4555

> <Gold.PLP.Chemscore.Hbond>
1.7680

> <Gold.PLP.Chemscore.CHOScore>
0.9983

> <Gold.PLP.Chemscore.Metal>
0.0000

> <Gold.Chemscore.Hbonds>
donor molecule, donor type, donor heavy atom, donor atom, acceptor molecule, acceptor atom, score
      L1  H     9    29       P1  7948  0.99
      P1  H  7989  7998       L1     8  0.18
      L1  C     7    28       P1  8028  1.00

> <Gold.PLP.Chemscore.Internal.Correction>
0.2797

> <Gold.Rescore>
     Score         DG    S(hbond)    S(metal)    S(lipo)     H(rot)  DE(clash)    DE(int)     intcor
     16.07     -16.93       1.78        0.00      84.78       1.72       0.03       0.83       ----

> <Gold.Chemscore.Fitness>
16.0708

> <Gold.Chemscore.DG>
-16.9314

> <Gold.Chemscore.ZeroCoef>
-5.4800

> <Gold.Chemscore.Hbond>
1.7797

> <Gold.Chemscore.Metal>
0.0000

> <Gold.Chemscore.Lipo>
84.7841

> <Gold.Chemscore.Internal_Hbond>
0.0000

> <Gold.Chemscore.DEClash>
0.0319

> <Gold.Chemscore.DEInternal>
0.8288

> <Gold.Chemscore.Rot>
1.7237

> <Gold.Chemscore.Internal.Correction>
   9.000000E+99

> <Gold.Chemscore.Hbonds>
donor molecule, donor type, donor heavy atom, donor atom, acceptor molecule, acceptor atom, score
      L1  H     9    29       P1  7948  0.85
      P1  H  7989  7998       L1     8  0.11

> <Gold.Chemscore.Hbond.Weighted>
-5.9442

> <Gold.Chemscore.Metal.Weighted>
-0.0000

> <Gold.Chemscore.Lipo.Weighted>
-9.9197

> <Gold.Chemscore.Internal_Hbond.Weighted>
0.0000

> <Gold.Chemscore.DEClash.Weighted>
0.0319

> <Gold.Chemscore.DEInternal.Weighted>
0.8288

> <Gold.Chemscore.Rot.Weighted>
4.4126

> <Gold.Chemscore.Internal.Correction.Weighted>
   9.000000E+99

> <Gold.Protein.RotatedTorsions>
[ 6907 6896 6895 6894 ] final  -40.26 input  -60.11 | X-H torsion
[ 7974 7965 7964 7962 ] final   56.10 input  175.53 | X-H torsion
[ 8008 7997 7996 7995 ] final   40.57 input   59.86 | X-H torsion
[ 10167 10162 10161 10158 ] final -171.55 input  -65.29 | X-H torsion
[ 10718 10713 10712 10709 ] final   25.80 input   66.30 | X-H torsion
[ 10763 10752 10751 10750 ] final -120.35 input  -60.55 | X-H torsion
[ 11005 11000 10999 10996 ] final -104.67 input  -57.11 | X-H torsion

> <Gold.Protein.ActiveResidues>
 VAL166  LYS551  ARG553  GLY616  TRP617  ASP618  TYR619  PRO620  LYS621  CYS622 
 ASP623  PHE694  ASN695  SER759  ASP760  ASP761  ALA762  ILE779  LEU786  VAL792 
 PHE793  MET794  SER795  GLU796  ALA797  LYS798  CYS799  TRP800  GLU811  SER814 

> <Gold.Protein.RotatedAtoms>
  150.9805  134.9161  159.7841 H   0  0  0  0  0  0  0  0  0  0  0  0  # atno 6907 bound_to 6896
  152.5220  134.3417  159.9229 H   0  0  0  0  0  0  0  0  0  0  0  0  # atno 6908 bound_to 6896
  151.3424  133.3916  159.2707 H   0  0  0  0  0  0  0  0  0  0  0  0  # atno 6909 bound_to 6896
  145.9434  139.3908  143.0350 H   0  0  0  0  0  0  0  0  0  0  0  0  # atno 7974 bound_to 7965
  155.2552  140.3355  155.4278 H   0  0  0  0  0  0  0  0  0  0  0  0  # atno 8008 bound_to 7997
  156.2198  140.1804  156.7546 H   0  0  0  0  0  0  0  0  0  0  0  0  # atno 8009 bound_to 7997
  154.5808  140.0654  156.9086 H   0  0  0  0  0  0  0  0  0  0  0  0  # atno 8010 bound_to 7997
  139.5796  144.1454  152.1497 H   0  0  0  0  0  0  0  0  0  0  0  0  # atno 10167 bound_to 10162
  157.1982  130.6877  149.6177 H   0  0  0  0  0  0  0  0  0  0  0  0  # atno 10718 bound_to 10713
  154.8642  135.4206  154.2446 H   0  0  0  0  0  0  0  0  0  0  0  0  # atno 10763 bound_to 10752
  153.3404  135.6993  153.6877 H   0  0  0  0  0  0  0  0  0  0  0  0  # atno 10764 bound_to 10752
  153.5858  135.3564  155.2865 H   0  0  0  0  0  0  0  0  0  0  0  0  # atno 10765 bound_to 10752
  141.1089  133.8743  157.1640 H   0  0  0  0  0  0  0  0  0  0  0  0  # atno 11005 bound_to 11000
  145.8269  140.9651  143.0869 LP  0  0  0  0  0  0  0  0  0  0  0  0  # atno 17320 bound_to 7965
  144.6783  140.0112  143.7484 LP  0  0  0  0  0  0  0  0  0  0  0  0  # atno 17321 bound_to 7965
  140.1004  144.5544  150.6993 LP  0  0  0  0  0  0  0  0  0  0  0  0  # atno 17342 bound_to 10162
  140.7075  143.2479  151.4681 LP  0  0  0  0  0  0  0  0  0  0  0  0  # atno 17343 bound_to 10162
  155.9703  130.4591  150.6026 LP  0  0  0  0  0  0  0  0  0  0  0  0  # atno 17370 bound_to 10713
  157.3793  131.0778  151.1490 LP  0  0  0  0  0  0  0  0  0  0  0  0  # atno 17371 bound_to 10713
  139.9973  135.0042  157.0111 LP  0  0  0  0  0  0  0  0  0  0  0  0  # atno 17394 bound_to 11000
  140.4828  134.1272  155.7219 LP  0  0  0  0  0  0  0  0  0  0  0  0  # atno 17395 bound_to 11000

$$$$
