AV-unprocessed.smi:1978|AV-procd|sdf|8001|dock8
  -GOLD-   2272010183D 1   1.00000     0.00000
 Structure written by MMmdl.
 44 45  0  0  0  0  0  0  0  0  3 V2000
  149.3536  140.7893  154.0905 C   0  0  0  0  0  0  0  0  0  0  0  0
  150.1757  139.5625  154.2937 C   0  0  0  0  0  0  0  0  0  0  0  0
  149.8502  138.2501  154.4873 C   0  0  0  0  0  0  0  0  0  0  0  0
  151.1167  137.6169  154.6155 C   0  0  0  0  0  0  0  0  0  0  0  0
  151.3269  136.3057  154.8089 N   0  5  0  0  0  0  0  0  0  0  0  0
  150.3287  135.5164  155.2656 C   0  0  0  0  0  0  0  0  0  0  0  0
  150.2421  135.0216  156.3920 O   0  0  0  0  0  0  0  0  0  0  0  0
  149.3638  135.2919  154.3621 N   0  0  0  0  0  0  0  0  0  0  0  0
  148.1548  134.5039  154.5849 C   0  0  0  0  0  0  0  0  0  0  0  0
  146.8506  135.2630  154.2033 C   0  0  1  0  0  0  0  0  0  0  0  0
  147.0046  136.7605  154.5770 C   0  0  0  0  0  0  0  0  0  0  0  0
  146.4937  135.0591  152.7558 N   0  3  1  0  0  0  0  0  0  0  0  0
  146.4165  133.6230  152.3461 C   0  0  0  0  0  0  0  0  0  0  0  0
  146.2942  133.4715  150.8208 C   0  0  0  0  0  0  0  0  0  0  0  0
  145.0876  134.2384  150.2761 C   0  0  0  0  0  0  0  0  0  0  0  0
  145.1630  135.7007  150.7287 C   0  0  0  0  0  0  0  0  0  0  0  0
  145.3047  135.8316  152.2600 C   0  0  1  0  0  0  0  0  0  0  0  0
  143.9902  135.4774  152.9932 C   0  0  0  0  0  0  0  0  0  0  0  0
  152.1220  138.4672  154.4930 N   0  0  0  0  0  0  0  0  0  0  0  0
  151.5270  139.7185  154.2922 O   0  0  0  0  0  0  0  0  0  0  0  0
  148.8822  140.7786  153.1077 H   0  0  0  0  0  0  0  0  0  0  0  0
  149.9651  141.6891  154.1626 H   0  0  0  0  0  0  0  0  0  0  0  0
  148.5676  140.8548  154.8426 H   0  0  0  0  0  0  0  0  0  0  0  0
  148.8643  137.8128  154.5335 H   0  0  0  0  0  0  0  0  0  0  0  0
  149.4778  135.7100  153.4501 H   0  0  0  0  0  0  0  0  0  0  0  0
  148.2372  133.5901  153.9958 H   0  0  0  0  0  0  0  0  0  0  0  0
  148.1767  134.1971  155.6284 H   0  0  0  0  0  0  0  0  0  0  0  0
  146.0315  134.8575  154.7982 H   0  0  0  0  0  0  0  0  0  0  0  0
  147.3072  136.8940  155.6151 H   0  0  0  0  0  0  0  0  0  0  0  0
  146.0737  137.3171  154.4823 H   0  0  0  0  0  0  0  0  0  0  0  0
  147.7559  137.2479  153.9548 H   0  0  0  0  0  0  0  0  0  0  0  0
  147.3062  133.0715  152.6354 H   0  0  0  0  0  0  0  0  0  0  0  0
  145.5817  133.1337  152.8484 H   0  0  0  0  0  0  0  0  0  0  0  0
  147.2050  133.8381  150.3452 H   0  0  0  0  0  0  0  0  0  0  0  0
  146.2127  132.4166  150.5571 H   0  0  0  0  0  0  0  0  0  0  0  0
  145.0671  134.1821  149.1874 H   0  0  0  0  0  0  0  0  0  0  0  0
  144.1630  133.7792  150.6269 H   0  0  0  0  0  0  0  0  0  0  0  0
  146.0187  136.1773  150.2485 H   0  0  0  0  0  0  0  0  0  0  0  0
  144.2829  136.2436  150.3817 H   0  0  0  0  0  0  0  0  0  0  0  0
  145.4912  136.8922  152.4209 H   0  0  0  0  0  0  0  0  0  0  0  0
  143.1683  136.0909  152.6234 H   0  0  0  0  0  0  0  0  0  0  0  0
  144.0566  135.6531  154.0662 H   0  0  0  0  0  0  0  0  0  0  0  0
  143.7013  134.4366  152.8520 H   0  0  0  0  0  0  0  0  0  0  0  0
  147.2775  135.4395  152.2451 H   0  0  0  0  0  0  0  0  0  0  0  0
  1  2  1  0  0  0  0
  1 21  1  0  0  0  0
  1 22  1  0  0  0  0
  1 23  1  0  0  0  0
  2 20  1  0  0  0  0
  2  3  2  0  0  0  0
  3  4  1  0  0  0  0
  3 24  1  0  0  0  0
  4  5  1  0  0  0  0
  4 19  2  0  0  0  0
  5  6  1  0  0  0  0
  6  7  2  0  0  0  0
  6  8  1  0  0  0  0
  8  9  1  0  0  0  0
  8 25  1  0  0  0  0
  9 10  1  0  0  0  0
  9 26  1  0  0  0  0
  9 27  1  0  0  0  0
 10 11  1  0  0  0  0
 10 12  1  0  0  0  0
 10 28  1  0  0  0  0
 11 29  1  0  0  0  0
 11 30  1  0  0  0  0
 11 31  1  0  0  0  0
 12 17  1  0  0  0  0
 12 13  1  0  0  0  0
 12 44  1  0  0  0  0
 13 14  1  0  0  0  0
 13 32  1  0  0  0  0
 13 33  1  0  0  0  0
 14 15  1  0  0  0  0
 14 34  1  0  0  0  0
 14 35  1  0  0  0  0
 15 16  1  0  0  0  0
 15 36  1  0  0  0  0
 15 37  1  0  0  0  0
 16 17  1  0  0  0  0
 16 38  1  0  0  0  0
 16 39  1  0  0  0  0
 17 18  1  0  0  0  0
 17 40  1  0  0  0  0
 18 41  1  0  0  0  0
 18 42  1  0  0  0  0
 18 43  1  0  0  0  0
 19 20  1  0  0  0  0
M  CHG  1   5  -1
M  CHG  1  12   1
M  END
> <s_m_source_file>
AV-unprocessed.smi

> <i_m_source_file_index>
1978

> <i_lp_mmshare_version>
43012

> <i_f3d_flags>
0

> <s_epik_input>
W0NIM11jMVtjSF1jKG5vMSlbTkhdQyg9TylbTkhdW0NIMl1bQ0BIXShbQ0gzXSlOMltDSDJdW0NIMl1bQ0gyXVtDSDJdW0NASF0yW0NIM10=

> <s_epik_cmdline>
J2VwaWtfcHl0aG9uJywgJy1waCcsICc3LjAnLCAnLXRuJywgJzgnLCAnLW1hJywgJzIwMCcsICctbWV0YWxfYmluZGluZycsICctaW1hZScsICc8aW5maWxlLm1hZT4nLCAnLW9tYWUnLCAnPG91dGZpbGUubWFlPic=

> <r_epik_Ionization_Penalty>
6.22372

> <r_epik_Ionization_Penalty_Charging>
6.22362

> <r_epik_Ionization_Penalty_Neutral>
9.65074e-05

> <r_epik_State_Penalty>
6.22363

> <r_epik_Charging_Adjusted_Penalty>
12.4472

> <i_epik_Tot_Q>
0

> <i_epik_Tot_abs_Q>
2

> <r_epik_Metal_State_Penalty>
2.16675

> <b_epik_Metal_Only>
1

> <s_lp_Force_Field>
OPLS_2005

> <r_lp_Energy>
13.574

> <b_lp_Chiralities_Consistent>
1

> <s_lp_Variant>
AV-unprocessed.smi:1978-10

> <Gold.Version>
5.8.1

> <Gold.Id.Protein>
6NUR|6NUR_protein|mol2

> <Gold.PLP.Fitness>
46.8847

> <Gold.PLP.PLP>
-30.9832

> <Gold.PLP.part.hbond>
-4.0000

> <Gold.PLP.part.metal>
0.0000

> <Gold.PLP.part.buried>
-3.4395

> <Gold.PLP.part.nonpolar>
-23.9389

> <Gold.PLP.part.repulsive>
0.3442

> <Gold.PLP.ligand.clash>
0.0000

> <Gold.PLP.ligand.torsion>
1.1056

> <Gold.PLP.Chemscore.Hbond>
6.0000

> <Gold.PLP.Chemscore.CHOScore>
0.0000

> <Gold.PLP.Chemscore.Metal>
0.0000

> <Gold.Chemscore.Hbonds>
donor molecule, donor type, donor heavy atom, donor atom, acceptor molecule, acceptor atom, score
      L1  H     8    25       P1  7948  0.95
      L1  H    12    44       P1  7948  2.00
      P1  H  7989  7998       L1    20  0.65
      P1  H 10752 10764       L1     5  2.00

> <Gold.PLP.Chemscore.Internal.Correction>
0.1128

> <Gold.Rescore>
     Score         DG    S(hbond)    S(metal)    S(lipo)     H(rot)  DE(clash)    DE(int)     intcor
     17.64     -19.29       3.45        0.00      52.65       1.52       0.58       1.06       ----

> <Gold.Chemscore.Fitness>
17.6370

> <Gold.Chemscore.DG>
-19.2859

> <Gold.Chemscore.ZeroCoef>
-5.4800

> <Gold.Chemscore.Hbond>
3.4534

> <Gold.Chemscore.Metal>
0.0000

> <Gold.Chemscore.Lipo>
52.6508

> <Gold.Chemscore.Internal_Hbond>
0.0000

> <Gold.Chemscore.DEClash>
0.5848

> <Gold.Chemscore.DEInternal>
1.0640

> <Gold.Chemscore.Rot>
1.5190

> <Gold.Chemscore.Internal.Correction>
   9.000000E+99

> <Gold.Chemscore.Hbonds>
donor molecule, donor type, donor heavy atom, donor atom, acceptor molecule, acceptor atom, score
      L1  H     8    25       P1  7948  0.21
      L1  H    12    44       P1  7948  1.00
      P1  H  7989  7998       L1    20  0.19
      P1  H 10752 10764       L1     5  0.95

> <Gold.Chemscore.Hbond.Weighted>
-11.5343

> <Gold.Chemscore.Metal.Weighted>
-0.0000

> <Gold.Chemscore.Lipo.Weighted>
-6.1601

> <Gold.Chemscore.Internal_Hbond.Weighted>
0.0000

> <Gold.Chemscore.DEClash.Weighted>
0.5848

> <Gold.Chemscore.DEInternal.Weighted>
1.0640

> <Gold.Chemscore.Rot.Weighted>
3.8886

> <Gold.Chemscore.Internal.Correction.Weighted>
   9.000000E+99

> <Gold.Protein.RotatedTorsions>
[ 6907 6896 6895 6894 ] final  156.19 input  -60.11 | X-H torsion
[ 7974 7965 7964 7962 ] final  -72.35 input  175.53 | X-H torsion
[ 8008 7997 7996 7995 ] final  119.48 input   59.86 | X-H torsion
[ 10167 10162 10161 10158 ] final  113.91 input  -65.29 | X-H torsion
[ 10718 10713 10712 10709 ] final -154.78 input   66.30 | X-H torsion
[ 10763 10752 10751 10750 ] final  -63.53 input  -60.55 | X-H torsion
[ 11005 11000 10999 10996 ] final   22.27 input  -57.11 | X-H torsion

> <Gold.Protein.ActiveResidues>
 VAL166  LYS551  ARG553  GLY616  TRP617  ASP618  TYR619  PRO620  LYS621  CYS622 
 ASP623  PHE694  ASN695  SER759  ASP760  ASP761  ALA762  ILE779  LEU786  VAL792 
 PHE793  MET794  SER795  GLU796  ALA797  LYS798  CYS799  TRP800  GLU811  SER814 

> <Gold.Protein.RotatedAtoms>
  152.0332  133.3946  159.4305 H   0  0  0  0  0  0  0  0  0  0  0  0  # atno 6907 bound_to 6896
  150.6880  134.3497  159.4913 H   0  0  0  0  0  0  0  0  0  0  0  0  # atno 6908 bound_to 6896
  152.1286  134.9151  160.0610 H   0  0  0  0  0  0  0  0  0  0  0  0  # atno 6909 bound_to 6896
  145.6663  140.9236  143.0907 H   0  0  0  0  0  0  0  0  0  0  0  0  # atno 7974 bound_to 7965
  156.2598  140.2852  156.0998 H   0  0  0  0  0  0  0  0  0  0  0  0  # atno 8008 bound_to 7997
  155.1372  140.0395  157.2807 H   0  0  0  0  0  0  0  0  0  0  0  0  # atno 8009 bound_to 7997
  154.6556  140.2555  155.7171 H   0  0  0  0  0  0  0  0  0  0  0  0  # atno 8010 bound_to 7997
  139.6426  144.7125  151.2205 H   0  0  0  0  0  0  0  0  0  0  0  0  # atno 10167 bound_to 10162
  156.5039  130.8404  151.2620 H   0  0  0  0  0  0  0  0  0  0  0  0  # atno 10718 bound_to 10713
  154.3164  135.6205  153.5488 H   0  0  0  0  0  0  0  0  0  0  0  0  # atno 10763 bound_to 10752
  152.9824  135.5713  154.5119 H   0  0  0  0  0  0  0  0  0  0  0  0  # atno 10764 bound_to 10752
  154.4779  135.2862  155.1570 H   0  0  0  0  0  0  0  0  0  0  0  0  # atno 10765 bound_to 10752
  140.3824  134.1906  155.7663 H   0  0  0  0  0  0  0  0  0  0  0  0  # atno 11005 bound_to 11000
  144.7072  139.8514  143.7426 LP  0  0  0  0  0  0  0  0  0  0  0  0  # atno 17320 bound_to 7965
  146.1083  139.4085  143.0304 LP  0  0  0  0  0  0  0  0  0  0  0  0  # atno 17321 bound_to 7965
  140.7499  143.6285  150.8446 LP  0  0  0  0  0  0  0  0  0  0  0  0  # atno 17342 bound_to 10162
  139.9924  143.5832  152.2905 LP  0  0  0  0  0  0  0  0  0  0  0  0  # atno 17343 bound_to 10162
  157.7459  130.9972  150.2809 LP  0  0  0  0  0  0  0  0  0  0  0  0  # atno 17370 bound_to 10713
  156.3306  130.3800  149.7494 LP  0  0  0  0  0  0  0  0  0  0  0  0  # atno 17371 bound_to 10713
  141.1919  133.8185  157.0862 LP  0  0  0  0  0  0  0  0  0  0  0  0  # atno 17394 bound_to 11000
  140.0468  134.9826  157.1063 LP  0  0  0  0  0  0  0  0  0  0  0  0  # atno 17395 bound_to 11000

$$$$
