AV-unprocessed.smi:1555|AV-procd|sdf|6264|dock5
  -GOLD-   22720 6453D 1   1.00000     0.00000
 Structure written by MMmdl.
 42 43  0  0  0  0  0  0  0  0  2 V2000
  147.2006  131.7944  152.8022 C   0  0  0  0  0  0  0  0  0  0  0  0
  147.0586  133.3177  152.9521 C   0  0  2  0  0  0  0  0  0  0  0  0
  146.8074  134.0368  151.6087 C   0  0  0  0  0  0  0  0  0  0  0  0
  145.6931  133.4581  150.8525 N   0  0  0  0  0  0  0  0  0  0  0  0
  145.7156  132.3218  150.0851 C   0  0  0  0  0  0  0  0  0  0  0  0
  144.4508  132.1678  149.5783 C   0  0  0  0  0  0  0  0  0  0  0  0
  143.7098  133.2134  150.0608 N   0  3  0  0  0  0  0  0  0  0  0  0
  144.4661  133.9950  150.8383 C   0  0  0  0  0  0  0  0  0  0  0  0
  148.2579  133.8497  153.5922 N   0  0  0  0  0  0  0  0  0  0  0  0
  148.7802  133.4201  154.7542 C   0  0  0  0  0  0  0  0  0  0  0  0
  148.2719  132.4999  155.3967 O   0  0  0  0  0  0  0  0  0  0  0  0
  149.9042  134.0710  155.1478 N   0  0  0  0  0  0  0  0  0  0  0  0
  150.3911  135.3626  154.6342 C   0  0  0  0  0  0  0  0  0  0  0  0
  150.1479  136.4439  155.7025 C   0  0  0  0  0  0  0  0  0  0  0  0
  150.8341  136.0765  157.0393 C   0  0  0  0  0  0  0  0  0  0  0  0
  150.5151  137.0855  158.1574 C   0  0  0  0  0  0  0  0  0  0  0  0
  151.2298  136.7716  159.3344 O   0  0  0  0  0  0  0  0  0  0  0  0
  150.4605  134.6384  157.4621 C   0  0  0  0  0  0  0  0  0  0  0  0
  150.6853  133.6382  156.3131 C   0  0  0  0  0  0  0  0  0  0  0  0
  146.2881  131.3436  152.4112 H   0  0  0  0  0  0  0  0  0  0  0  0
  147.4059  131.3231  153.7640 H   0  0  0  0  0  0  0  0  0  0  0  0
  148.0162  131.5372  152.1255 H   0  0  0  0  0  0  0  0  0  0  0  0
  146.2086  133.5016  153.6122 H   0  0  0  0  0  0  0  0  0  0  0  0
  146.5722  135.0897  151.7698 H   0  0  0  0  0  0  0  0  0  0  0  0
  147.7020  134.0064  150.9842 H   0  0  0  0  0  0  0  0  0  0  0  0
  146.6074  131.7244  149.9594 H   0  0  0  0  0  0  0  0  0  0  0  0
  144.0336  131.4119  148.9288 H   0  0  0  0  0  0  0  0  0  0  0  0
  144.1482  134.8859  151.3502 H   0  0  0  0  0  0  0  0  0  0  0  0
  148.7312  134.6045  153.1170 H   0  0  0  0  0  0  0  0  0  0  0  0
  151.4587  135.2834  154.4238 H   0  0  0  0  0  0  0  0  0  0  0  0
  149.9361  135.6658  153.6916 H   0  0  0  0  0  0  0  0  0  0  0  0
  150.5178  137.4036  155.3402 H   0  0  0  0  0  0  0  0  0  0  0  0
  149.0748  136.5651  155.8571 H   0  0  0  0  0  0  0  0  0  0  0  0
  151.9126  136.0910  156.8732 H   0  0  0  0  0  0  0  0  0  0  0  0
  150.7575  138.1020  157.8460 H   0  0  0  0  0  0  0  0  0  0  0  0
  149.4505  137.0664  158.3927 H   0  0  0  0  0  0  0  0  0  0  0  0
  151.5737  137.5723  159.7004 H   0  0  0  0  0  0  0  0  0  0  0  0
  151.0490  134.3398  158.3302 H   0  0  0  0  0  0  0  0  0  0  0  0
  149.4148  134.6032  157.7712 H   0  0  0  0  0  0  0  0  0  0  0  0
  150.4292  132.6304  156.6431 H   0  0  0  0  0  0  0  0  0  0  0  0
  151.7429  133.6009  156.0478 H   0  0  0  0  0  0  0  0  0  0  0  0
  142.7302  133.3729  149.8613 H   0  0  0  0  0  0  0  0  0  0  0  0
  1  2  1  0  0  0  0
  1 20  1  0  0  0  0
  1 21  1  0  0  0  0
  1 22  1  0  0  0  0
  2  3  1  0  0  0  0
  2  9  1  0  0  0  0
  2 23  1  0  0  0  0
  3  4  1  0  0  0  0
  3 24  1  0  0  0  0
  3 25  1  0  0  0  0
  4  8  1  0  0  0  0
  4  5  1  0  0  0  0
  5  6  2  0  0  0  0
  5 26  1  0  0  0  0
  6  7  1  0  0  0  0
  6 27  1  0  0  0  0
  7  8  2  0  0  0  0
  7 42  1  0  0  0  0
  8 28  1  0  0  0  0
  9 10  1  0  0  0  0
  9 29  1  0  0  0  0
 10 11  2  0  0  0  0
 10 12  1  0  0  0  0
 12 19  1  0  0  0  0
 12 13  1  0  0  0  0
 13 14  1  0  0  0  0
 13 30  1  0  0  0  0
 13 31  1  0  0  0  0
 14 15  1  0  0  0  0
 14 32  1  0  0  0  0
 14 33  1  0  0  0  0
 15 16  1  0  0  0  0
 15 18  1  0  0  0  0
 15 34  1  0  0  0  0
 16 17  1  0  0  0  0
 16 35  1  0  0  0  0
 16 36  1  0  0  0  0
 17 37  1  0  0  0  0
 18 19  1  0  0  0  0
 18 38  1  0  0  0  0
 18 39  1  0  0  0  0
 19 40  1  0  0  0  0
 19 41  1  0  0  0  0
M  CHG  1   7   1
M  END
> <s_m_source_file>
AV-unprocessed.smi

> <i_m_source_file_index>
1555

> <i_lp_mmshare_version>
43012

> <i_f3d_flags>
0

> <s_epik_input>
W2NIXTFuW2NIXVtjSF1uMVtDSDJdW0NAQEhdKFtDSDNdKVtOSF1DKD1PKU4yW0NIMl1bQ0gyXVtDSF0oW0NIMl1bT0hdKVtDSDJdW0NIMl0y

> <s_epik_cmdline>
J2VwaWtfcHl0aG9uJywgJy1waCcsICc3LjAnLCAnLXRuJywgJzgnLCAnLW1hJywgJzIwMCcsICctbWV0YWxfYmluZGluZycsICctaW1hZScsICc8aW5maWxlLm1hZT4nLCAnLW9tYWUnLCAnPG91dGZpbGUubWFlPic=

> <r_lp_tautomer_probability>
1

> <r_epik_Ionization_Penalty>
0.253261

> <r_epik_Ionization_Penalty_Charging>
0

> <r_epik_Ionization_Penalty_Neutral>
0.253261

> <r_epik_State_Penalty>
0.244619

> <r_epik_Charging_Adjusted_Penalty>
0.244619

> <i_epik_Tot_Q>
1

> <i_epik_Tot_abs_Q>
1

> <r_epik_Metal_State_Penalty>
0.535039

> <b_epik_Metal_Only>
0

> <s_lp_Force_Field>
OPLS_2005

> <r_lp_Energy>
34.4969

> <b_lp_Chiralities_Consistent>
1

> <s_lp_Variant>
AV-unprocessed.smi:1555-1

> <Gold.Version>
5.8.1

> <Gold.Id.Protein>
6NUR|6NUR_protein|mol2

> <Gold.PLP.Fitness>
40.7362

> <Gold.PLP.PLP>
-26.4274

> <Gold.PLP.part.hbond>
-3.0000

> <Gold.PLP.part.metal>
0.0000

> <Gold.PLP.part.buried>
0.2740

> <Gold.PLP.part.nonpolar>
-24.0067

> <Gold.PLP.part.repulsive>
0.0579

> <Gold.PLP.ligand.clash>
0.0000

> <Gold.PLP.ligand.torsion>
0.3958

> <Gold.PLP.Chemscore.Hbond>
4.0000

> <Gold.PLP.Chemscore.CHOScore>
0.9993

> <Gold.PLP.Chemscore.Metal>
0.0000

> <Gold.Chemscore.Hbonds>
donor molecule, donor type, donor heavy atom, donor atom, acceptor molecule, acceptor atom, score
      L1  H     7    42       P1 10186  1.95
      L1  H     9    29       P1  7948  0.90
      P1  H  6896  6908       L1    17  1.00
      L1  C     5    26       P1 10747  1.00

> <Gold.PLP.Chemscore.Internal.Correction>
0.1023

> <Gold.Rescore>
     Score         DG    S(hbond)    S(metal)    S(lipo)     H(rot)  DE(clash)    DE(int)     intcor
     10.77     -13.78       2.24        0.00      62.92       2.56       1.30       1.71       ----

> <Gold.Chemscore.Fitness>
10.7671

> <Gold.Chemscore.DG>
-13.7773

> <Gold.Chemscore.ZeroCoef>
-5.4800

> <Gold.Chemscore.Hbond>
2.2447

> <Gold.Chemscore.Metal>
0.0000

> <Gold.Chemscore.Lipo>
62.9162

> <Gold.Chemscore.Internal_Hbond>
0.0000

> <Gold.Chemscore.DEClash>
1.3003

> <Gold.Chemscore.DEInternal>
1.7099

> <Gold.Chemscore.Rot>
2.5630

> <Gold.Chemscore.Internal.Correction>
   9.000000E+99

> <Gold.Chemscore.Hbonds>
donor molecule, donor type, donor heavy atom, donor atom, acceptor molecule, acceptor atom, score
      L1  H     7    42       P1 10186  0.90
      L1  H     9    29       P1  7948  0.17
      P1  H  6896  6908       L1    17  0.95

> <Gold.Chemscore.Hbond.Weighted>
-7.4972

> <Gold.Chemscore.Metal.Weighted>
-0.0000

> <Gold.Chemscore.Lipo.Weighted>
-7.3612

> <Gold.Chemscore.Internal_Hbond.Weighted>
0.0000

> <Gold.Chemscore.DEClash.Weighted>
1.3003

> <Gold.Chemscore.DEInternal.Weighted>
1.7099

> <Gold.Chemscore.Rot.Weighted>
6.5612

> <Gold.Chemscore.Internal.Correction.Weighted>
   9.000000E+99

> <Gold.Protein.RotatedTorsions>
[ 6907 6896 6895 6894 ] final -142.71 input  -60.11 | X-H torsion
[ 7974 7965 7964 7962 ] final  -26.65 input  175.53 | X-H torsion
[ 8008 7997 7996 7995 ] final -132.95 input   59.86 | X-H torsion
[ 10167 10162 10161 10158 ] final  -44.98 input  -65.29 | X-H torsion
[ 10718 10713 10712 10709 ] final -140.62 input   66.30 | X-H torsion
[ 10763 10752 10751 10750 ] final  145.49 input  -60.55 | X-H torsion
[ 11005 11000 10999 10996 ] final   41.95 input  -57.11 | X-H torsion

> <Gold.Protein.ActiveResidues>
 VAL166  LYS551  ARG553  GLY616  TRP617  ASP618  TYR619  PRO620  LYS621  CYS622 
 ASP623  PHE694  ASN695  SER759  ASP760  ASP761  ALA762  ILE779  LEU786  VAL792 
 PHE793  MET794  SER795  GLU796  ALA797  LYS798  CYS799  TRP800  GLU811  SER814 

> <Gold.Protein.RotatedAtoms>
  151.0907  133.5318  159.2614 H   0  0  0  0  0  0  0  0  0  0  0  0  # atno 6907 bound_to 6896
  151.2187  135.0509  159.8951 H   0  0  0  0  0  0  0  0  0  0  0  0  # atno 6908 bound_to 6896
  152.5434  134.0712  159.8248 H   0  0  0  0  0  0  0  0  0  0  0  0  # atno 6909 bound_to 6896
  146.1411  140.5047  142.8651 H   0  0  0  0  0  0  0  0  0  0  0  0  # atno 7974 bound_to 7965
  155.3374  140.0470  157.3044 H   0  0  0  0  0  0  0  0  0  0  0  0  # atno 8008 bound_to 7997
  154.5295  140.2252  155.8794 H   0  0  0  0  0  0  0  0  0  0  0  0  # atno 8009 bound_to 7997
  156.1774  140.3082  155.9091 H   0  0  0  0  0  0  0  0  0  0  0  0  # atno 8010 bound_to 7997
  140.6876  143.2902  151.3573 H   0  0  0  0  0  0  0  0  0  0  0  0  # atno 10167 bound_to 10162
  156.3245  130.7552  151.1657 H   0  0  0  0  0  0  0  0  0  0  0  0  # atno 10718 bound_to 10713
  154.0062  135.2918  155.3397 H   0  0  0  0  0  0  0  0  0  0  0  0  # atno 10763 bound_to 10752
  154.7130  135.5141  153.8698 H   0  0  0  0  0  0  0  0  0  0  0  0  # atno 10764 bound_to 10752
  153.0743  135.6658  154.0298 H   0  0  0  0  0  0  0  0  0  0  0  0  # atno 10765 bound_to 10752
  140.1785  134.4133  155.8214 H   0  0  0  0  0  0  0  0  0  0  0  0  # atno 11005 bound_to 11000
  144.7794  140.5808  143.6616 LP  0  0  0  0  0  0  0  0  0  0  0  0  # atno 17320 bound_to 7965
  145.5044  139.1482  143.3639 LP  0  0  0  0  0  0  0  0  0  0  0  0  # atno 17321 bound_to 7965
  139.6248  144.0836  152.2424 LP  0  0  0  0  0  0  0  0  0  0  0  0  # atno 17342 bound_to 10162
  140.0292  144.6094  150.7502 LP  0  0  0  0  0  0  0  0  0  0  0  0  # atno 17343 bound_to 10162
  157.7418  131.0498  150.5068 LP  0  0  0  0  0  0  0  0  0  0  0  0  # atno 17370 bound_to 10713
  156.5225  130.4165  149.6243 LP  0  0  0  0  0  0  0  0  0  0  0  0  # atno 17371 bound_to 10713
  141.2222  133.6989  156.7890 LP  0  0  0  0  0  0  0  0  0  0  0  0  # atno 17394 bound_to 11000
  140.2294  134.8697  157.3461 LP  0  0  0  0  0  0  0  0  0  0  0  0  # atno 17395 bound_to 11000

$$$$
