AV-unprocessed.smi:1327|AV-procd|sdf|5477|dock10
  -GOLD-   22720 5 53D 1   1.00000     0.00000
 Structure written by MMmdl.
 40 41  0  0  0  0  0  0  0  0  1 V2000
  152.3986  137.1028  159.8825 O   0  0  0  0  0  0  0  0  0  0  0  0
  151.8878  137.9702  158.8101 S   0  0  0  0  0  0  0  0  0  0  0  0
  152.1688  137.6736  157.3969 O   0  0  0  0  0  0  0  0  0  0  0  0
  150.1810  138.1162  158.9876 N   0  0  0  0  0  0  0  0  0  0  0  0
  149.3295  137.0248  158.5176 C   0  0  0  0  0  0  0  0  0  0  0  0
  147.8551  137.2789  158.8730 C   0  0  0  0  0  0  0  0  0  0  0  0
  147.4391  136.6590  160.1974 C   0  0  0  0  0  0  0  0  0  0  0  0
  147.2782  135.2617  160.3148 C   0  0  0  0  0  0  0  0  0  0  0  0
  146.8804  134.7331  161.5580 C   0  0  0  0  0  0  0  0  0  0  0  0
  146.6577  135.6173  162.6310 C   0  0  0  0  0  0  0  0  0  0  0  0
  146.8448  136.9966  162.4123 C   0  0  0  0  0  0  0  0  0  0  0  0
  147.2275  137.5136  161.2247 N   0  0  0  0  0  0  0  0  0  0  0  0
  152.3452  139.6074  159.1548 N   0  0  0  0  0  0  0  0  0  0  0  0
  151.8915  140.6613  158.2300 C   0  0  0  0  0  0  0  0  0  0  0  0
  151.7239  142.0351  158.9084 C   0  0  0  0  0  0  0  0  0  0  0  0
  153.0557  142.7246  159.2425 C   0  0  0  0  0  0  0  0  0  0  0  0
  153.6817  142.3063  160.5847 C   0  0  0  0  0  0  0  0  0  0  0  0
  153.5177  140.8259  160.9703 C   0  0  0  0  0  0  0  0  0  0  0  0
  153.6516  139.8396  159.8007 C   0  0  0  0  0  0  0  0  0  0  0  0
  149.8424  139.0332  158.6955 H   0  0  0  0  0  0  0  0  0  0  0  0
  149.4447  136.9130  157.4390 H   0  0  0  0  0  0  0  0  0  0  0  0
  149.6710  136.0960  158.9751 H   0  0  0  0  0  0  0  0  0  0  0  0
  147.6767  138.3537  158.9196 H   0  0  0  0  0  0  0  0  0  0  0  0
  147.2083  136.9024  158.0792 H   0  0  0  0  0  0  0  0  0  0  0  0
  147.4526  134.6087  159.4722 H   0  0  0  0  0  0  0  0  0  0  0  0
  146.7475  133.6690  161.6858 H   0  0  0  0  0  0  0  0  0  0  0  0
  146.3507  135.2479  163.5982 H   0  0  0  0  0  0  0  0  0  0  0  0
  146.6820  137.7031  163.2126 H   0  0  0  0  0  0  0  0  0  0  0  0
  152.5779  140.7223  157.3848 H   0  0  0  0  0  0  0  0  0  0  0  0
  150.9260  140.3749  157.8139 H   0  0  0  0  0  0  0  0  0  0  0  0
  151.1846  142.6776  158.2114 H   0  0  0  0  0  0  0  0  0  0  0  0
  151.0884  141.9616  159.7917 H   0  0  0  0  0  0  0  0  0  0  0  0
  153.7655  142.5481  158.4332 H   0  0  0  0  0  0  0  0  0  0  0  0
  152.9045  143.8043  159.2624 H   0  0  0  0  0  0  0  0  0  0  0  0
  154.7432  142.5551  160.5567 H   0  0  0  0  0  0  0  0  0  0  0  0
  153.2589  142.9149  161.3848 H   0  0  0  0  0  0  0  0  0  0  0  0
  154.2697  140.5893  161.7237 H   0  0  0  0  0  0  0  0  0  0  0  0
  152.5575  140.6739  161.4659 H   0  0  0  0  0  0  0  0  0  0  0  0
  154.0293  138.8946  160.1907 H   0  0  0  0  0  0  0  0  0  0  0  0
  154.3875  140.1707  159.0670 H   0  0  0  0  0  0  0  0  0  0  0  0
  1  2  2  0  0  0  0
  2  3  2  0  0  0  0
  2  4  1  0  0  0  0
  2 13  1  0  0  0  0
  4  5  1  0  0  0  0
  4 20  1  0  0  0  0
  5  6  1  0  0  0  0
  5 21  1  0  0  0  0
  5 22  1  0  0  0  0
  6  7  1  0  0  0  0
  6 23  1  0  0  0  0
  6 24  1  0  0  0  0
  7 12  1  0  0  0  0
  7  8  2  0  0  0  0
  8  9  1  0  0  0  0
  8 25  1  0  0  0  0
  9 10  2  0  0  0  0
  9 26  1  0  0  0  0
 10 11  1  0  0  0  0
 10 27  1  0  0  0  0
 11 12  2  0  0  0  0
 11 28  1  0  0  0  0
 13 19  1  0  0  0  0
 13 14  1  0  0  0  0
 14 15  1  0  0  0  0
 14 29  1  0  0  0  0
 14 30  1  0  0  0  0
 15 16  1  0  0  0  0
 15 31  1  0  0  0  0
 15 32  1  0  0  0  0
 16 17  1  0  0  0  0
 16 33  1  0  0  0  0
 16 34  1  0  0  0  0
 17 18  1  0  0  0  0
 17 35  1  0  0  0  0
 17 36  1  0  0  0  0
 18 19  1  0  0  0  0
 18 37  1  0  0  0  0
 18 38  1  0  0  0  0
 19 39  1  0  0  0  0
 19 40  1  0  0  0  0
M  END
> <s_m_source_file>
AV-unprocessed.smi

> <i_m_source_file_index>
1327

> <i_lp_mmshare_version>
43012

> <i_f3d_flags>
0

> <s_epik_input>
W0NIMl0xW0NIMl1bQ0gyXVtDSDJdW0NIMl1bQ0gyXU4xUyg9TykoPU8pW05IXVtDSDJdW0NIMl1jMltjSF1bY0hdW2NIXVtjSF1uMg==

> <s_epik_cmdline>
J2VwaWtfcHl0aG9uJywgJy1waCcsICc3LjAnLCAnLXRuJywgJzgnLCAnLW1hJywgJzIwMCcsICctbWV0YWxfYmluZGluZycsICctaW1hZScsICc8aW5maWxlLm1hZT4nLCAnLW9tYWUnLCAnPG91dGZpbGUubWFlPic=

> <r_lp_tautomer_probability>
1

> <r_epik_Ionization_Penalty>
0.00665037

> <r_epik_Ionization_Penalty_Charging>
0

> <r_epik_Ionization_Penalty_Neutral>
0.00665037

> <r_epik_State_Penalty>
-0

> <r_epik_Charging_Adjusted_Penalty>
0

> <i_epik_Tot_Q>
0

> <i_epik_Tot_abs_Q>
0

> <r_epik_Metal_State_Penalty>
0.361784

> <b_epik_Metal_Only>
0

> <s_lp_Force_Field>
OPLS_2005

> <r_lp_Energy>
15.8899

> <b_lp_Chiralities_Consistent>
1

> <s_lp_Variant>
AV-unprocessed.smi:1327-1

> <Gold.Version>
5.8.1

> <Gold.Id.Protein>
6NUR|6NUR_protein|mol2

> <Gold.PLP.Fitness>
49.1233

> <Gold.PLP.PLP>
-42.6914

> <Gold.PLP.part.hbond>
-3.3628

> <Gold.PLP.part.metal>
0.0000

> <Gold.PLP.part.buried>
-5.3528

> <Gold.PLP.part.nonpolar>
-33.7422

> <Gold.PLP.part.repulsive>
0.0000

> <Gold.PLP.ligand.clash>
0.0000

> <Gold.PLP.ligand.torsion>
1.6887

> <Gold.PLP.Chemscore.Hbond>
2.5725

> <Gold.PLP.Chemscore.CHOScore>
0.0000

> <Gold.PLP.Chemscore.Metal>
0.0000

> <Gold.Chemscore.Hbonds>
donor molecule, donor type, donor heavy atom, donor atom, acceptor molecule, acceptor atom, score
      P1  H  6896  6907       L1     1  0.94
      P1  H  6931  6943       L1    12  0.51
      P1  H  6934  6947       L1    12  1.00

> <Gold.PLP.Chemscore.Internal.Correction>
2.0918

> <Gold.Rescore>
     Score         DG    S(hbond)    S(metal)    S(lipo)     H(rot)  DE(clash)    DE(int)     intcor
     18.41     -20.11       2.08        0.00      97.91       1.47       0.02       1.69       ----

> <Gold.Chemscore.Fitness>
18.4053

> <Gold.Chemscore.DG>
-20.1120

> <Gold.Chemscore.ZeroCoef>
-5.4800

> <Gold.Chemscore.Hbond>
2.0799

> <Gold.Chemscore.Metal>
0.0000

> <Gold.Chemscore.Lipo>
97.9057

> <Gold.Chemscore.Internal_Hbond>
0.0000

> <Gold.Chemscore.DEClash>
0.0174

> <Gold.Chemscore.DEInternal>
1.6893

> <Gold.Chemscore.Rot>
1.4725

> <Gold.Chemscore.Internal.Correction>
   9.000000E+99

> <Gold.Chemscore.Hbonds>
donor molecule, donor type, donor heavy atom, donor atom, acceptor molecule, acceptor atom, score
      P1  H  6896  6907       L1     1  0.89
      P1  H  6931  6943       L1    12  0.05
      P1  H  6934  6947       L1    12  0.86

> <Gold.Chemscore.Hbond.Weighted>
-6.9468

> <Gold.Chemscore.Metal.Weighted>
-0.0000

> <Gold.Chemscore.Lipo.Weighted>
-11.4550

> <Gold.Chemscore.Internal_Hbond.Weighted>
0.0000

> <Gold.Chemscore.DEClash.Weighted>
0.0174

> <Gold.Chemscore.DEInternal.Weighted>
1.6893

> <Gold.Chemscore.Rot.Weighted>
3.7697

> <Gold.Chemscore.Internal.Correction.Weighted>
   9.000000E+99

> <Gold.Protein.RotatedTorsions>
[ 6907 6896 6895 6894 ] final   17.65 input  -60.11 | X-H torsion
[ 7974 7965 7964 7962 ] final  122.43 input  175.53 | X-H torsion
[ 8008 7997 7996 7995 ] final  -51.63 input   59.86 | X-H torsion
[ 10167 10162 10161 10158 ] final  -95.65 input  -65.29 | X-H torsion
[ 10718 10713 10712 10709 ] final   12.63 input   66.30 | X-H torsion
[ 10763 10752 10751 10750 ] final  -24.02 input  -60.55 | X-H torsion
[ 11005 11000 10999 10996 ] final   10.91 input  -57.11 | X-H torsion

> <Gold.Protein.ActiveResidues>
 VAL166  LYS551  ARG553  GLY616  TRP617  ASP618  TYR619  PRO620  LYS621  CYS622 
 ASP623  PHE694  ASN695  SER759  ASP760  ASP761  ALA762  ILE779  LEU786  VAL792 
 PHE793  MET794  SER795  GLU796  ALA797  LYS798  CYS799  TRP800  GLU811  SER814 

> <Gold.Protein.RotatedAtoms>
  151.8530  135.0551  160.0460 H   0  0  0  0  0  0  0  0  0  0  0  0  # atno 6907 bound_to 6896
  152.2722  133.5388  159.5454 H   0  0  0  0  0  0  0  0  0  0  0  0  # atno 6908 bound_to 6896
  150.7156  134.0598  159.3869 H   0  0  0  0  0  0  0  0  0  0  0  0  # atno 6909 bound_to 6896
  145.1077  139.3474  143.4779 H   0  0  0  0  0  0  0  0  0  0  0  0  # atno 7974 bound_to 7965
  154.4087  140.1243  156.4860 H   0  0  0  0  0  0  0  0  0  0  0  0  # atno 8008 bound_to 7997
  155.7038  140.3494  155.4925 H   0  0  0  0  0  0  0  0  0  0  0  0  # atno 8009 bound_to 7997
  155.9361  140.1078  157.1083 H   0  0  0  0  0  0  0  0  0  0  0  0  # atno 8010 bound_to 7997
  140.3019  143.3157  152.0239 H   0  0  0  0  0  0  0  0  0  0  0  0  # atno 10167 bound_to 10162
  157.0129  130.6124  149.5710 H   0  0  0  0  0  0  0  0  0  0  0  0  # atno 10718 bound_to 10713
  153.6771  135.6969  153.5129 H   0  0  0  0  0  0  0  0  0  0  0  0  # atno 10763 bound_to 10752
  153.2513  135.4274  155.0800 H   0  0  0  0  0  0  0  0  0  0  0  0  # atno 10764 bound_to 10752
  154.8410  135.3532  154.6315 H   0  0  0  0  0  0  0  0  0  0  0  0  # atno 10765 bound_to 10752
  140.5092  134.0669  155.7813 H   0  0  0  0  0  0  0  0  0  0  0  0  # atno 11005 bound_to 11000
  146.3527  140.0982  142.8609 LP  0  0  0  0  0  0  0  0  0  0  0  0  # atno 17320 bound_to 7965
  145.0883  140.9267  143.4784 LP  0  0  0  0  0  0  0  0  0  0  0  0  # atno 17321 bound_to 7965
  139.4913  144.6449  151.6799 LP  0  0  0  0  0  0  0  0  0  0  0  0  # atno 17342 bound_to 10162
  140.5643  144.0216  150.6185 LP  0  0  0  0  0  0  0  0  0  0  0  0  # atno 17343 bound_to 10162
  156.0130  130.5222  150.8047 LP  0  0  0  0  0  0  0  0  0  0  0  0  # atno 17370 bound_to 10713
  157.5307  131.0936  150.9958 LP  0  0  0  0  0  0  0  0  0  0  0  0  # atno 17371 bound_to 10713
  141.1395  133.9164  157.2359 LP  0  0  0  0  0  0  0  0  0  0  0  0  # atno 17394 bound_to 11000
  139.9669  135.0139  156.9410 LP  0  0  0  0  0  0  0  0  0  0  0  0  # atno 17395 bound_to 11000

$$$$
