AV-unprocessed.smi:1922|AV-procd|sdf|7787|dock8
  -GOLD-   22720 9533D 1   1.00000     0.00000
 Structure written by MMmdl.
 34 35  0  0  0  0  0  0  0  0  2 V2000
  152.7994  139.8466  157.2912 O   0  0  0  0  0  0  0  0  0  0  0  0
  151.8349  140.1555  157.9929 C   0  0  0  0  0  0  0  0  0  0  0  0
  150.4323  139.5961  157.7079 C   0  0  0  0  0  0  0  0  0  0  0  0
  149.6953  140.3258  156.6656 N   0  0  0  0  0  0  0  0  0  0  0  0
  148.4067  140.8496  157.1105 N   0  5  0  0  0  0  0  0  0  0  0  0
  147.6426  141.5582  156.2376 C   0  0  0  0  0  0  0  0  0  0  0  0
  146.5574  142.0459  156.5454 O   0  0  0  0  0  0  0  0  0  0  0  0
  148.1375  141.7353  154.8826 C   0  0  0  0  0  0  0  0  0  0  0  0
  149.3189  141.2178  154.4917 C   0  0  0  0  0  0  0  0  0  0  0  0
  150.1741  140.4578  155.3953 C   0  0  0  0  0  0  0  0  0  0  0  0
  151.2493  139.9727  155.0416 O   0  0  0  0  0  0  0  0  0  0  0  0
  151.9236  140.9941  159.0367 N   0  0  0  0  0  0  0  0  0  0  0  0
  153.1459  141.6326  159.5136 C   0  0  0  0  0  0  0  0  0  0  0  0
  152.9867  143.1612  159.6151 C   0  0  0  0  0  0  0  0  0  0  0  0
  152.2064  143.6132  160.8510 C   0  0  0  0  0  0  0  0  0  0  0  0
  151.7669  145.0472  160.5375 C   0  0  0  0  0  0  0  0  0  0  0  0
  151.7407  145.1629  159.0055 C   0  0  0  0  0  0  0  0  0  0  0  0
  152.2110  143.8085  158.4625 C   0  0  0  0  0  0  0  0  0  0  0  0
  150.5160  138.5468  157.4190 H   0  0  0  0  0  0  0  0  0  0  0  0
  149.8738  139.5980  158.6456 H   0  0  0  0  0  0  0  0  0  0  0  0
  147.5437  142.2919  154.1728 H   0  0  0  0  0  0  0  0  0  0  0  0
  149.6460  141.3722  153.4746 H   0  0  0  0  0  0  0  0  0  0  0  0
  151.0773  141.1934  159.5498 H   0  0  0  0  0  0  0  0  0  0  0  0
  153.4597  141.2134  160.4711 H   0  0  0  0  0  0  0  0  0  0  0  0
  153.9390  141.3958  158.8041 H   0  0  0  0  0  0  0  0  0  0  0  0
  153.9773  143.6174  159.6579 H   0  0  0  0  0  0  0  0  0  0  0  0
  151.3246  142.9842  160.9835 H   0  0  0  0  0  0  0  0  0  0  0  0
  152.7974  143.5494  161.7651 H   0  0  0  0  0  0  0  0  0  0  0  0
  150.7979  145.2748  160.9827 H   0  0  0  0  0  0  0  0  0  0  0  0
  152.4877  145.7561  160.9466 H   0  0  0  0  0  0  0  0  0  0  0  0
  150.7466  145.4125  158.6334 H   0  0  0  0  0  0  0  0  0  0  0  0
  152.4172  145.9553  158.6828 H   0  0  0  0  0  0  0  0  0  0  0  0
  152.8110  143.9098  157.5575 H   0  0  0  0  0  0  0  0  0  0  0  0
  151.3421  143.1979  158.2129 H   0  0  0  0  0  0  0  0  0  0  0  0
  1  2  2  0  0  0  0
  2  3  1  0  0  0  0
  2 12  1  0  0  0  0
  3 19  1  0  0  0  0
  3 20  1  0  0  0  0
  3  4  1  0  0  0  0
  4  5  1  0  0  0  0
  4 10  1  0  0  0  0
  5  6  1  0  0  0  0
  6  7  2  0  0  0  0
  6  8  1  0  0  0  0
  8 21  1  0  0  0  0
  8  9  2  0  0  0  0
  9 22  1  0  0  0  0
  9 10  1  0  0  0  0
 10 11  2  0  0  0  0
 12 13  1  0  0  0  0
 12 23  1  0  0  0  0
 13 14  1  0  0  0  0
 13 24  1  0  0  0  0
 13 25  1  0  0  0  0
 14 18  1  0  0  0  0
 14 15  1  0  0  0  0
 14 26  1  0  0  0  0
 15 16  1  0  0  0  0
 15 27  1  0  0  0  0
 15 28  1  0  0  0  0
 16 17  1  0  0  0  0
 16 29  1  0  0  0  0
 16 30  1  0  0  0  0
 17 18  1  0  0  0  0
 17 31  1  0  0  0  0
 17 32  1  0  0  0  0
 18 33  1  0  0  0  0
 18 34  1  0  0  0  0
M  CHG  1   5  -1
M  END
> <s_m_source_file>
AV-unprocessed.smi

> <i_m_source_file_index>
1922

> <i_lp_mmshare_version>
43012

> <i_f3d_flags>
0

> <s_epik_input>
W0NIMl0xW0NIMl1bQ0gyXVtDSDJdW0NIXTFbQ0gyXVtOSF1DKD1PKVtDSDJdbjJbbkhdYyg9TylbY0hdW2NIXWMyPU8=

> <s_epik_cmdline>
J2VwaWtfcHl0aG9uJywgJy1waCcsICc3LjAnLCAnLXRuJywgJzgnLCAnLW1hJywgJzIwMCcsICctbWV0YWxfYmluZGluZycsICctaW1hZScsICc8aW5maWxlLm1hZT4nLCAnLW9tYWUnLCAnPG91dGZpbGUubWFlPic=

> <r_lp_tautomer_probability>
1

> <r_epik_Ionization_Penalty>
0.0984168

> <r_epik_Ionization_Penalty_Charging>
0.0984168

> <r_epik_Ionization_Penalty_Neutral>
1.97085e-08

> <r_epik_State_Penalty>
0.0346886

> <r_epik_Charging_Adjusted_Penalty>
0.133105

> <i_epik_Tot_Q>
-1

> <i_epik_Tot_abs_Q>
1

> <r_epik_Metal_State_Penalty>
0.0346886

> <b_epik_Metal_Only>
0

> <s_lp_Force_Field>
OPLS_2005

> <r_lp_Energy>
36.8816

> <b_lp_Chiralities_Consistent>
1

> <s_lp_Variant>
AV-unprocessed.smi:1922-1

> <Gold.Version>
5.8.1

> <Gold.Id.Protein>
6NUR|6NUR_protein|mol2

> <Gold.PLP.Fitness>
44.5203

> <Gold.PLP.PLP>
-39.5458

> <Gold.PLP.part.hbond>
-2.0000

> <Gold.PLP.part.metal>
0.0000

> <Gold.PLP.part.buried>
-3.1929

> <Gold.PLP.part.nonpolar>
-33.9607

> <Gold.PLP.part.repulsive>
0.3466

> <Gold.PLP.ligand.clash>
0.0000

> <Gold.PLP.ligand.torsion>
0.5178

> <Gold.PLP.Chemscore.Hbond>
2.0000

> <Gold.PLP.Chemscore.CHOScore>
0.0000

> <Gold.PLP.Chemscore.Metal>
0.0000

> <Gold.Chemscore.Hbonds>
donor molecule, donor type, donor heavy atom, donor atom, acceptor molecule, acceptor atom, score
      P1  H  7989  7998       L1    11  1.00
      P1  H  7997  8010       L1     1  1.00

> <Gold.PLP.Chemscore.Internal.Correction>
0.0102

> <Gold.Rescore>
     Score         DG    S(hbond)    S(metal)    S(lipo)     H(rot)  DE(clash)    DE(int)     intcor
     15.45     -17.29       1.93        0.00      88.23       1.94       0.00       1.84       ----

> <Gold.Chemscore.Fitness>
15.4514

> <Gold.Chemscore.DG>
-17.2873

> <Gold.Chemscore.ZeroCoef>
-5.4800

> <Gold.Chemscore.Hbond>
1.9314

> <Gold.Chemscore.Metal>
0.0000

> <Gold.Chemscore.Lipo>
88.2305

> <Gold.Chemscore.Internal_Hbond>
0.0000

> <Gold.Chemscore.DEClash>
0.0000

> <Gold.Chemscore.DEInternal>
1.8359

> <Gold.Chemscore.Rot>
1.9401

> <Gold.Chemscore.Internal.Correction>
   9.000000E+99

> <Gold.Chemscore.Hbonds>
donor molecule, donor type, donor heavy atom, donor atom, acceptor molecule, acceptor atom, score
      P1  H  7989  7998       L1    11  0.45
      P1  H  7997  8010       L1     1  0.99

> <Gold.Chemscore.Hbond.Weighted>
-6.4510

> <Gold.Chemscore.Metal.Weighted>
-0.0000

> <Gold.Chemscore.Lipo.Weighted>
-10.3230

> <Gold.Chemscore.Internal_Hbond.Weighted>
0.0000

> <Gold.Chemscore.DEClash.Weighted>
0.0000

> <Gold.Chemscore.DEInternal.Weighted>
1.8359

> <Gold.Chemscore.Rot.Weighted>
4.9666

> <Gold.Chemscore.Internal.Correction.Weighted>
   9.000000E+99

> <Gold.Protein.RotatedTorsions>
[ 6907 6896 6895 6894 ] final  -46.08 input  -60.11 | X-H torsion
[ 7974 7965 7964 7962 ] final -105.49 input  175.53 | X-H torsion
[ 8008 7997 7996 7995 ] final   45.32 input   59.86 | X-H torsion
[ 10167 10162 10161 10158 ] final  103.91 input  -65.29 | X-H torsion
[ 10718 10713 10712 10709 ] final   -2.35 input   66.30 | X-H torsion
[ 10763 10752 10751 10750 ] final   14.84 input  -60.55 | X-H torsion
[ 11005 11000 10999 10996 ] final  -98.34 input  -57.11 | X-H torsion

> <Gold.Protein.ActiveResidues>
 VAL166  LYS551  ARG553  GLY616  TRP617  ASP618  TYR619  PRO620  LYS621  CYS622 
 ASP623  PHE694  ASN695  SER759  ASP760  ASP761  ALA762  ILE779  LEU786  VAL792 
 PHE793  MET794  SER795  GLU796  ALA797  LYS798  CYS799  TRP800  GLU811  SER814 

> <Gold.Protein.RotatedAtoms>
  150.9150  134.8568  159.7450 H   0  0  0  0  0  0  0  0  0  0  0  0  # atno 6907 bound_to 6896
  152.4964  134.4302  159.9519 H   0  0  0  0  0  0  0  0  0  0  0  0  # atno 6908 bound_to 6896
  151.4341  133.3622  159.2808 H   0  0  0  0  0  0  0  0  0  0  0  0  # atno 6909 bound_to 6896
  145.2298  140.9166  143.3211 H   0  0  0  0  0  0  0  0  0  0  0  0  # atno 7974 bound_to 7965
  155.3339  140.3404  155.4239 H   0  0  0  0  0  0  0  0  0  0  0  0  # atno 8008 bound_to 7997
  156.1848  140.1676  156.8243 H   0  0  0  0  0  0  0  0  0  0  0  0  # atno 8009 bound_to 7997
  154.5373  140.0732  156.8433 H   0  0  0  0  0  0  0  0  0  0  0  0  # atno 8010 bound_to 7997
  139.7223  144.7055  151.0853 H   0  0  0  0  0  0  0  0  0  0  0  0  # atno 10167 bound_to 10162
  156.7921  130.5365  149.5734 H   0  0  0  0  0  0  0  0  0  0  0  0  # atno 10718 bound_to 10713
  153.1583  135.6791  153.8780 H   0  0  0  0  0  0  0  0  0  0  0  0  # atno 10763 bound_to 10752
  153.8184  135.3133  155.3409 H   0  0  0  0  0  0  0  0  0  0  0  0  # atno 10764 bound_to 10752
  154.7914  135.4832  154.0149 H   0  0  0  0  0  0  0  0  0  0  0  0  # atno 10765 bound_to 10752
  141.1348  133.8238  157.0827 H   0  0  0  0  0  0  0  0  0  0  0  0  # atno 11005 bound_to 11000
  144.9687  139.3903  143.6319 LP  0  0  0  0  0  0  0  0  0  0  0  0  # atno 17320 bound_to 7965
  146.3356  139.8775  142.8830 LP  0  0  0  0  0  0  0  0  0  0  0  0  # atno 17321 bound_to 7965
  140.7756  143.5150  150.9605 LP  0  0  0  0  0  0  0  0  0  0  0  0  # atno 17342 bound_to 10162
  139.8838  143.7039  152.3154 LP  0  0  0  0  0  0  0  0  0  0  0  0  # atno 17343 bound_to 10162
  156.1153  130.6070  151.0110 LP  0  0  0  0  0  0  0  0  0  0  0  0  # atno 17370 bound_to 10713
  157.6595  131.0883  150.7870 LP  0  0  0  0  0  0  0  0  0  0  0  0  # atno 17371 bound_to 10713
  140.0442  134.9839  157.1017 LP  0  0  0  0  0  0  0  0  0  0  0  0  # atno 17394 bound_to 11000
  140.4089  134.2002  155.7163 LP  0  0  0  0  0  0  0  0  0  0  0  0  # atno 17395 bound_to 11000

$$$$
