AV-unprocessed.smi:2731|AV-procd|sdf|10531|dock6
  -GOLD-   2272014573D 1   1.00000     0.00000
 Structure written by MMmdl.
 46 47  0  0  0  0  0  0  0  0  2 V2000
  149.3826  141.2029  155.0713 C   0  0  0  0  0  0  0  0  0  0  0  0
  150.2349  141.6526  156.2094 C   0  0  0  0  0  0  0  0  0  0  0  0
  150.4461  142.9541  156.5421 N   0  3  0  0  0  0  0  0  0  0  0  0
  151.2712  143.0360  157.5956 N   0  0  0  0  0  0  0  0  0  0  0  0
  151.6297  144.3572  158.1122 C   0  0  0  0  0  0  0  0  0  0  0  0
  151.6358  141.7874  158.0054 C   0  0  0  0  0  0  0  0  0  0  0  0
  152.5569  141.4940  159.1450 C   0  0  0  0  0  0  0  0  0  0  0  0
  150.9884  140.9102  157.1255 C   0  0  0  0  0  0  0  0  0  0  0  0
  151.1051  139.4092  157.1390 C   0  0  0  0  0  0  0  0  0  0  0  0
  151.0366  138.7919  158.5506 C   0  0  0  0  0  0  0  0  0  0  0  0
  149.6991  138.3057  158.8831 N   0  0  0  0  0  0  0  0  0  0  0  0
  149.3573  137.0165  159.0344 C   0  0  0  0  0  0  0  0  0  0  0  0
  150.1487  136.0871  158.8668 O   0  0  0  0  0  0  0  0  0  0  0  0
  147.9067  136.7500  159.4570 C   0  0  0  0  0  0  0  0  0  0  0  0
  147.8082  135.7937  160.5678 N   0  0  0  0  0  0  0  0  0  0  0  0
  148.0363  134.3773  160.2554 C   0  0  0  0  0  0  0  0  0  0  0  0
  146.9187  133.5035  160.8500 C   0  0  0  0  0  0  0  0  0  0  0  0
  146.7009  133.7697  162.3536 C   0  0  0  0  0  0  0  0  0  0  0  0
  147.3748  135.0579  162.8769 C   0  0  0  0  0  0  0  0  0  0  0  0
  147.4558  136.1668  161.8199 C   0  0  0  0  0  0  0  0  0  0  0  0
  147.2146  137.3299  162.1421 O   0  0  0  0  0  0  0  0  0  0  0  0
  150.0095  140.8940  154.2347 H   0  0  0  0  0  0  0  0  0  0  0  0
  148.7303  142.0103  154.7375 H   0  0  0  0  0  0  0  0  0  0  0  0
  148.7622  140.3593  155.3727 H   0  0  0  0  0  0  0  0  0  0  0  0
  151.0127  144.5772  158.9836 H   0  0  0  0  0  0  0  0  0  0  0  0
  151.4666  145.1160  157.3456 H   0  0  0  0  0  0  0  0  0  0  0  0
  152.6815  144.3594  158.3988 H   0  0  0  0  0  0  0  0  0  0  0  0
  153.5455  141.2333  158.7675 H   0  0  0  0  0  0  0  0  0  0  0  0
  152.1779  140.6590  159.7337 H   0  0  0  0  0  0  0  0  0  0  0  0
  152.6524  142.3566  159.8043 H   0  0  0  0  0  0  0  0  0  0  0  0
  150.3209  138.9663  156.5252 H   0  0  0  0  0  0  0  0  0  0  0  0
  152.0408  139.1079  156.6673 H   0  0  0  0  0  0  0  0  0  0  0  0
  151.7297  137.9529  158.6152 H   0  0  0  0  0  0  0  0  0  0  0  0
  151.3733  139.5164  159.2939 H   0  0  0  0  0  0  0  0  0  0  0  0
  148.9843  139.0043  159.0277 H   0  0  0  0  0  0  0  0  0  0  0  0
  147.4394  137.6905  159.7529 H   0  0  0  0  0  0  0  0  0  0  0  0
  147.3452  136.4038  158.5878 H   0  0  0  0  0  0  0  0  0  0  0  0
  148.0858  134.2191  159.1776 H   0  0  0  0  0  0  0  0  0  0  0  0
  149.0052  134.0780  160.6575 H   0  0  0  0  0  0  0  0  0  0  0  0
  145.9921  133.7195  160.3160 H   0  0  0  0  0  0  0  0  0  0  0  0
  147.1272  132.4474  160.6783 H   0  0  0  0  0  0  0  0  0  0  0  0
  145.6306  133.8047  162.5597 H   0  0  0  0  0  0  0  0  0  0  0  0
  147.0833  132.9242  162.9262 H   0  0  0  0  0  0  0  0  0  0  0  0
  146.8578  135.4199  163.7664 H   0  0  0  0  0  0  0  0  0  0  0  0
  148.3964  134.8329  163.1854 H   0  0  0  0  0  0  0  0  0  0  0  0
  150.0748  143.7864  156.1019 H   0  0  0  0  0  0  0  0  0  0  0  0
  1  2  1  0  0  0  0
  1 22  1  0  0  0  0
  1 23  1  0  0  0  0
  1 24  1  0  0  0  0
  2  8  1  0  0  0  0
  2  3  2  0  0  0  0
  3  4  1  0  0  0  0
  3 46  1  0  0  0  0
  4  5  1  0  0  0  0
  4  6  1  0  0  0  0
  5 25  1  0  0  0  0
  5 26  1  0  0  0  0
  5 27  1  0  0  0  0
  6  7  1  0  0  0  0
  6  8  2  0  0  0  0
  7 28  1  0  0  0  0
  7 29  1  0  0  0  0
  7 30  1  0  0  0  0
  8  9  1  0  0  0  0
  9 10  1  0  0  0  0
  9 31  1  0  0  0  0
  9 32  1  0  0  0  0
 10 11  1  0  0  0  0
 10 33  1  0  0  0  0
 10 34  1  0  0  0  0
 11 12  1  0  0  0  0
 11 35  1  0  0  0  0
 12 13  2  0  0  0  0
 12 14  1  0  0  0  0
 14 15  1  0  0  0  0
 14 36  1  0  0  0  0
 14 37  1  0  0  0  0
 15 20  1  0  0  0  0
 15 16  1  0  0  0  0
 16 17  1  0  0  0  0
 16 38  1  0  0  0  0
 16 39  1  0  0  0  0
 17 18  1  0  0  0  0
 17 40  1  0  0  0  0
 17 41  1  0  0  0  0
 18 19  1  0  0  0  0
 18 42  1  0  0  0  0
 18 43  1  0  0  0  0
 19 20  1  0  0  0  0
 19 44  1  0  0  0  0
 19 45  1  0  0  0  0
 20 21  2  0  0  0  0
M  CHG  1   3   1
M  END
> <s_m_source_file>
AV-unprocessed.smi

> <i_m_source_file_index>
2731

> <i_lp_mmshare_version>
43012

> <i_f3d_flags>
0

> <s_epik_input>
W0NIM11jMW5uKFtDSDNdKWMoW0NIM10pYzFbQ0gyXVtDSDJdW05IXUMoPU8pW0NIMl1OMltDSDJdW0NIMl1bQ0gyXVtDSDJdQzI9Tw==

> <s_epik_cmdline>
J2VwaWtfcHl0aG9uJywgJy1waCcsICc3LjAnLCAnLXRuJywgJzgnLCAnLW1hJywgJzIwMCcsICctbWV0YWxfYmluZGluZycsICctaW1hZScsICc8aW5maWxlLm1hZT4nLCAnLW9tYWUnLCAnPG91dGZpbGUubWFlPic=

> <r_lp_tautomer_probability>
1

> <r_epik_Ionization_Penalty>
2.35701

> <r_epik_Ionization_Penalty_Charging>
2.357

> <r_epik_Ionization_Penalty_Neutral>
2.49505e-07

> <r_epik_State_Penalty>
2.51177

> <r_epik_Charging_Adjusted_Penalty>
4.86877

> <i_epik_Tot_Q>
1

> <i_epik_Tot_abs_Q>
1

> <r_epik_Metal_State_Penalty>
2.52284

> <b_epik_Metal_Only>
0

> <s_lp_Force_Field>
OPLS_2005

> <r_lp_Energy>
19.064

> <b_lp_Chiralities_Consistent>
1

> <s_lp_Variant>
AV-unprocessed.smi:2731-2

> <Gold.Version>
5.8.1

> <Gold.Id.Protein>
6NUR|6NUR_protein|mol2

> <Gold.PLP.Fitness>
56.9346

> <Gold.PLP.PLP>
-45.6625

> <Gold.PLP.part.hbond>
-4.0000

> <Gold.PLP.part.metal>
0.0000

> <Gold.PLP.part.buried>
-6.0714

> <Gold.PLP.part.nonpolar>
-37.4265

> <Gold.PLP.part.repulsive>
0.3208

> <Gold.PLP.ligand.clash>
0.0000

> <Gold.PLP.ligand.torsion>
0.8210

> <Gold.PLP.Chemscore.Hbond>
4.2960

> <Gold.PLP.Chemscore.CHOScore>
0.0000

> <Gold.PLP.Chemscore.Metal>
0.0000

> <Gold.Chemscore.Hbonds>
donor molecule, donor type, donor heavy atom, donor atom, acceptor molecule, acceptor atom, score
      L1  H     3    46       P1  8028  2.00
      P1  H  6896  6908       L1    13  1.00
      P1  H  6931  6943       L1    21  0.75
      P1  H  6934  6947       L1    21  0.61

> <Gold.PLP.Chemscore.Internal.Correction>
0.0262

> <Gold.Rescore>
     Score         DG    S(hbond)    S(metal)    S(lipo)     H(rot)  DE(clash)    DE(int)     intcor
     21.64     -22.60       3.63        0.00      83.07       1.85       0.05       0.91       ----

> <Gold.Chemscore.Fitness>
21.6400

> <Gold.Chemscore.DG>
-22.5998

> <Gold.Chemscore.ZeroCoef>
-5.4800

> <Gold.Chemscore.Hbond>
3.6338

> <Gold.Chemscore.Metal>
0.0000

> <Gold.Chemscore.Lipo>
83.0682

> <Gold.Chemscore.Internal_Hbond>
0.0000

> <Gold.Chemscore.DEClash>
0.0458

> <Gold.Chemscore.DEInternal>
0.9139

> <Gold.Chemscore.Rot>
1.8501

> <Gold.Chemscore.Internal.Correction>
   9.000000E+99

> <Gold.Chemscore.Hbonds>
donor molecule, donor type, donor heavy atom, donor atom, acceptor molecule, acceptor atom, score
      L1  H     3    46       P1  8028  0.94
      P1  H  6896  6908       L1    13  0.94
      P1  H  6931  6943       L1    21  0.31
      P1  H  6934  6947       L1    21  0.59

> <Gold.Chemscore.Hbond.Weighted>
-12.1370

> <Gold.Chemscore.Metal.Weighted>
-0.0000

> <Gold.Chemscore.Lipo.Weighted>
-9.7190

> <Gold.Chemscore.Internal_Hbond.Weighted>
0.0000

> <Gold.Chemscore.DEClash.Weighted>
0.0458

> <Gold.Chemscore.DEInternal.Weighted>
0.9139

> <Gold.Chemscore.Rot.Weighted>
4.7362

> <Gold.Chemscore.Internal.Correction.Weighted>
   9.000000E+99

> <Gold.Protein.RotatedTorsions>
[ 6907 6896 6895 6894 ] final  176.67 input  -60.11 | X-H torsion
[ 7974 7965 7964 7962 ] final   64.34 input  175.53 | X-H torsion
[ 8008 7997 7996 7995 ] final   72.77 input   59.86 | X-H torsion
[ 10167 10162 10161 10158 ] final   60.89 input  -65.29 | X-H torsion
[ 10718 10713 10712 10709 ] final  151.43 input   66.30 | X-H torsion
[ 10763 10752 10751 10750 ] final  -59.90 input  -60.55 | X-H torsion
[ 11005 11000 10999 10996 ] final  145.12 input  -57.11 | X-H torsion

> <Gold.Protein.ActiveResidues>
 VAL166  LYS551  ARG553  GLY616  TRP617  ASP618  TYR619  PRO620  LYS621  CYS622 
 ASP623  PHE694  ASN695  SER759  ASP760  ASP761  ALA762  ILE779  LEU786  VAL792 
 PHE793  MET794  SER795  GLU796  ALA797  LYS798  CYS799  TRP800  GLU811  SER814 

> <Gold.Protein.RotatedAtoms>
  151.7164  133.3313  159.3303 H   0  0  0  0  0  0  0  0  0  0  0  0  # atno 6907 bound_to 6896
  150.7671  134.6487  159.6285 H   0  0  0  0  0  0  0  0  0  0  0  0  # atno 6908 bound_to 6896
  152.3679  134.6779  160.0237 H   0  0  0  0  0  0  0  0  0  0  0  0  # atno 6909 bound_to 6896
  145.8514  139.3256  143.0873 H   0  0  0  0  0  0  0  0  0  0  0  0  # atno 7974 bound_to 7965
  155.7738  140.3483  155.5261 H   0  0  0  0  0  0  0  0  0  0  0  0  # atno 8008 bound_to 7997
  155.8796  140.1000  157.1515 H   0  0  0  0  0  0  0  0  0  0  0  0  # atno 8009 bound_to 7997
  154.4023  140.1325  156.4167 H   0  0  0  0  0  0  0  0  0  0  0  0  # atno 8010 bound_to 7997
  140.1607  144.4373  150.6711 H   0  0  0  0  0  0  0  0  0  0  0  0  # atno 10167 bound_to 10162
  157.2708  131.0816  151.1601 H   0  0  0  0  0  0  0  0  0  0  0  0  # atno 10718 bound_to 10713
  154.2610  135.6308  153.5274 H   0  0  0  0  0  0  0  0  0  0  0  0  # atno 10763 bound_to 10752
  152.9896  135.5587  154.5705 H   0  0  0  0  0  0  0  0  0  0  0  0  # atno 10764 bound_to 10752
  154.5253  135.2885  155.1202 H   0  0  0  0  0  0  0  0  0  0  0  0  # atno 10765 bound_to 10752
  140.0687  134.9164  157.1308 H   0  0  0  0  0  0  0  0  0  0  0  0  # atno 11005 bound_to 11000
  145.9354  140.9019  143.0335 LP  0  0  0  0  0  0  0  0  0  0  0  0  # atno 17320 bound_to 7965
  144.6729  140.1475  143.7432 LP  0  0  0  0  0  0  0  0  0  0  0  0  # atno 17321 bound_to 7965
  140.6645  143.2263  151.5777 LP  0  0  0  0  0  0  0  0  0  0  0  0  # atno 17342 bound_to 10162
  139.5382  144.2720  152.1297 LP  0  0  0  0  0  0  0  0  0  0  0  0  # atno 17343 bound_to 10162
  157.3074  130.6872  149.6197 LP  0  0  0  0  0  0  0  0  0  0  0  0  # atno 17370 bound_to 10713
  155.9663  130.4374  150.5173 LP  0  0  0  0  0  0  0  0  0  0  0  0  # atno 17371 bound_to 10713
  140.3660  134.2442  155.7182 LP  0  0  0  0  0  0  0  0  0  0  0  0  # atno 17394 bound_to 11000
  141.2003  133.7991  157.0496 LP  0  0  0  0  0  0  0  0  0  0  0  0  # atno 17395 bound_to 11000

$$$$
