AV-unprocessed.smi:2825|AV-procd|sdf|10891|dock3
  -GOLD-   2272015333D 1   1.00000     0.00000
 Structure written by MMmdl.
 49 50  0  0  0  0  0  0  0  0  2 V2000
  152.4881  140.9271  158.8092 C   0  0  0  0  0  0  0  0  0  0  0  0
  151.0363  140.5489  158.4985 C   0  0  0  0  0  0  0  0  0  0  0  0
  150.5965  141.0117  157.1021 C   0  0  0  0  0  0  0  0  0  0  0  0
  151.0298  139.7731  155.8035 S   0  0  0  0  0  0  0  0  0  0  0  0
  150.4924  140.2252  154.5112 O   0  0  0  0  0  0  0  0  0  0  0  0
  152.4592  139.4493  155.9321 O   0  0  0  0  0  0  0  0  0  0  0  0
  150.1167  138.3769  156.2845 N   0  0  0  0  0  0  0  0  0  0  0  0
  150.6297  137.5558  157.3864 C   0  0  0  0  0  0  0  0  0  0  0  0
  148.6503  138.4214  156.1817 C   0  0  0  0  0  0  0  0  0  0  0  0
  148.1726  137.9026  154.8064 C   0  0  1  0  0  0  0  0  0  0  0  0
  149.2099  137.1323  154.2358 O   0  0  0  0  0  0  0  0  0  0  0  0
  146.9232  137.0018  154.8783 C   0  0  0  0  0  0  0  0  0  0  0  0
  146.2735  136.8339  153.5705 N   0  0  0  0  0  0  0  0  0  0  0  0
  145.6885  137.7694  152.7741 C   0  0  0  0  0  0  0  0  0  0  0  0
  145.2115  137.1310  151.6705 N   0  3  0  0  0  0  0  0  0  0  0  0
  145.5007  135.7682  151.7597 C   0  0  0  0  0  0  0  0  0  0  0  0
  145.2182  134.7211  150.8907 C   0  0  0  0  0  0  0  0  0  0  0  0
  145.6476  133.4308  151.2743 C   0  0  0  0  0  0  0  0  0  0  0  0
  145.3529  132.2631  150.3480 C   0  0  0  0  0  0  0  0  0  0  0  0
  146.3375  133.2247  152.4970 C   0  0  0  0  0  0  0  0  0  0  0  0
  146.7910  131.8325  152.9021 C   0  0  0  0  0  0  0  0  0  0  0  0
  146.6176  134.3035  153.3657 C   0  0  0  0  0  0  0  0  0  0  0  0
  146.1866  135.5695  152.9742 C   0  0  0  0  0  0  0  0  0  0  0  0
  152.7739  140.5876  159.8051 H   0  0  0  0  0  0  0  0  0  0  0  0
  152.6291  142.0077  158.7734 H   0  0  0  0  0  0  0  0  0  0  0  0
  153.1751  140.4742  158.0939 H   0  0  0  0  0  0  0  0  0  0  0  0
  150.9215  139.4682  158.5845 H   0  0  0  0  0  0  0  0  0  0  0  0
  150.3841  140.9915  159.2516 H   0  0  0  0  0  0  0  0  0  0  0  0
  149.5250  141.2043  157.0641 H   0  0  0  0  0  0  0  0  0  0  0  0
  151.1011  141.9431  156.8449 H   0  0  0  0  0  0  0  0  0  0  0  0
  150.1774  136.5637  157.3669 H   0  0  0  0  0  0  0  0  0  0  0  0
  150.4037  138.0272  158.3434 H   0  0  0  0  0  0  0  0  0  0  0  0
  151.7094  137.4357  157.3091 H   0  0  0  0  0  0  0  0  0  0  0  0
  148.1804  137.8577  156.9897 H   0  0  0  0  0  0  0  0  0  0  0  0
  148.3510  139.4560  156.3386 H   0  0  0  0  0  0  0  0  0  0  0  0
  147.9615  138.7308  154.1298 H   0  0  0  0  0  0  0  0  0  0  0  0
  148.9091  136.7847  153.4102 H   0  0  0  0  0  0  0  0  0  0  0  0
  147.2067  136.0031  155.2139 H   0  0  0  0  0  0  0  0  0  0  0  0
  146.2033  137.3739  155.6066 H   0  0  0  0  0  0  0  0  0  0  0  0
  145.6059  138.8256  152.9867 H   0  0  0  0  0  0  0  0  0  0  0  0
  144.6906  134.8856  149.9623 H   0  0  0  0  0  0  0  0  0  0  0  0
  144.7208  131.5286  150.8475 H   0  0  0  0  0  0  0  0  0  0  0  0
  146.2779  131.7741  150.0412 H   0  0  0  0  0  0  0  0  0  0  0  0
  144.8349  132.5903  149.4460 H   0  0  0  0  0  0  0  0  0  0  0  0
  147.2861  131.8404  153.8736 H   0  0  0  0  0  0  0  0  0  0  0  0
  147.4956  131.4324  152.1729 H   0  0  0  0  0  0  0  0  0  0  0  0
  145.9389  131.1557  152.9692 H   0  0  0  0  0  0  0  0  0  0  0  0
  147.1382  134.1406  154.2974 H   0  0  0  0  0  0  0  0  0  0  0  0
  144.7208  137.5936  150.9161 H   0  0  0  0  0  0  0  0  0  0  0  0
  1  2  1  0  0  0  0
  1 24  1  0  0  0  0
  1 25  1  0  0  0  0
  1 26  1  0  0  0  0
  2  3  1  0  0  0  0
  2 27  1  0  0  0  0
  2 28  1  0  0  0  0
  3  4  1  0  0  0  0
  3 29  1  0  0  0  0
  3 30  1  0  0  0  0
  4  5  2  0  0  0  0
  4  6  2  0  0  0  0
  4  7  1  0  0  0  0
  7  8  1  0  0  0  0
  7  9  1  0  0  0  0
  8 31  1  0  0  0  0
  8 32  1  0  0  0  0
  8 33  1  0  0  0  0
  9 10  1  0  0  0  0
  9 34  1  0  0  0  0
  9 35  1  0  0  0  0
 10 11  1  0  0  0  0
 10 12  1  0  0  0  0
 10 36  1  0  0  0  0
 11 37  1  0  0  0  0
 12 13  1  0  0  0  0
 12 38  1  0  0  0  0
 12 39  1  0  0  0  0
 13 23  1  0  0  0  0
 13 14  1  0  0  0  0
 14 15  2  0  0  0  0
 14 40  1  0  0  0  0
 15 16  1  0  0  0  0
 15 49  1  0  0  0  0
 16 23  2  0  0  0  0
 16 17  1  0  0  0  0
 17 18  2  0  0  0  0
 17 41  1  0  0  0  0
 18 19  1  0  0  0  0
 18 20  1  0  0  0  0
 19 42  1  0  0  0  0
 19 43  1  0  0  0  0
 19 44  1  0  0  0  0
 20 21  1  0  0  0  0
 20 22  2  0  0  0  0
 21 45  1  0  0  0  0
 21 46  1  0  0  0  0
 21 47  1  0  0  0  0
 22 23  1  0  0  0  0
 22 48  1  0  0  0  0
M  CHG  1  15   1
M  END
> <s_m_source_file>
AV-unprocessed.smi

> <i_m_source_file_index>
2825

> <i_lp_mmshare_version>
43012

> <i_f3d_flags>
0

> <s_epik_input>
W0NIM11bQ0gyXVtDSDJdUyg9TykoPU8pTihbQ0gzXSlbQ0gyXVtDQEhdKFtPSF0pW0NIMl1uKFtjSF1uMSljKGMxMilbY0hdYyhbQ0gzXSljKFtjSF0yKVtDSDNd

> <s_epik_cmdline>
J2VwaWtfcHl0aG9uJywgJy1waCcsICc3LjAnLCAnLXRuJywgJzgnLCAnLW1hJywgJzIwMCcsICctbWV0YWxfYmluZGluZycsICctaW1hZScsICc8aW5maWxlLm1hZT4nLCAnLW9tYWUnLCAnPG91dGZpbGUubWFlPic=

> <r_epik_Ionization_Penalty>
1.0773

> <r_epik_Ionization_Penalty_Charging>
1.0773

> <r_epik_Ionization_Penalty_Neutral>
1.44651e-06

> <r_epik_State_Penalty>
1.13242

> <r_epik_Charging_Adjusted_Penalty>
2.20972

> <i_epik_Tot_Q>
1

> <i_epik_Tot_abs_Q>
1

> <r_epik_Metal_State_Penalty>
5.13045

> <b_epik_Metal_Only>
0

> <s_lp_Force_Field>
OPLS_2005

> <r_lp_Energy>
14.1853

> <b_lp_Chiralities_Consistent>
1

> <s_lp_Variant>
AV-unprocessed.smi:2825-4

> <Gold.Version>
5.8.1

> <Gold.Id.Protein>
6NUR|6NUR_protein|mol2

> <Gold.PLP.Fitness>
44.2697

> <Gold.PLP.PLP>
-30.9352

> <Gold.PLP.part.hbond>
-3.7028

> <Gold.PLP.part.metal>
0.0000

> <Gold.PLP.part.buried>
-3.8965

> <Gold.PLP.part.nonpolar>
-23.3493

> <Gold.PLP.part.repulsive>
0.1571

> <Gold.PLP.ligand.clash>
0.0000

> <Gold.PLP.ligand.torsion>
2.1241

> <Gold.PLP.Chemscore.Hbond>
4.0000

> <Gold.PLP.Chemscore.CHOScore>
1.0000

> <Gold.PLP.Chemscore.Metal>
0.0000

> <Gold.Chemscore.Hbonds>
donor molecule, donor type, donor heavy atom, donor atom, acceptor molecule, acceptor atom, score
      L1  H    11    37       P1  7948  1.00
      L1  H    15    49       P1 10171  1.00
      P1  H  7989  7998       L1     5  1.00
      P1  H  7997  8008       L1     6  1.00
      L1  C    14    40       P1 10175  0.86

> <Gold.PLP.Chemscore.Internal.Correction>
2.5827

> <Gold.Rescore>
     Score         DG    S(hbond)    S(metal)    S(lipo)     H(rot)  DE(clash)    DE(int)     intcor
     17.54     -19.80       3.96        0.00      64.22       2.51       0.07       2.19       ----

> <Gold.Chemscore.Fitness>
17.5409

> <Gold.Chemscore.DG>
-19.8041

> <Gold.Chemscore.ZeroCoef>
-5.4800

> <Gold.Chemscore.Hbond>
3.9632

> <Gold.Chemscore.Metal>
0.0000

> <Gold.Chemscore.Lipo>
64.2241

> <Gold.Chemscore.Internal_Hbond>
0.0000

> <Gold.Chemscore.DEClash>
0.0726

> <Gold.Chemscore.DEInternal>
2.1906

> <Gold.Chemscore.Rot>
2.5106

> <Gold.Chemscore.Internal.Correction>
   9.000000E+99

> <Gold.Chemscore.Hbonds>
donor molecule, donor type, donor heavy atom, donor atom, acceptor molecule, acceptor atom, score
      L1  H    11    37       P1  7948  0.99
      L1  H    15    49       P1 10171  1.00
      P1  H  7989  7998       L1     5  0.90
      P1  H  7997  8008       L1     6  0.93

> <Gold.Chemscore.Hbond.Weighted>
-13.2370

> <Gold.Chemscore.Metal.Weighted>
-0.0000

> <Gold.Chemscore.Lipo.Weighted>
-7.5142

> <Gold.Chemscore.Internal_Hbond.Weighted>
0.0000

> <Gold.Chemscore.DEClash.Weighted>
0.0726

> <Gold.Chemscore.DEInternal.Weighted>
2.1906

> <Gold.Chemscore.Rot.Weighted>
6.4271

> <Gold.Chemscore.Internal.Correction.Weighted>
   9.000000E+99

> <Gold.Protein.RotatedTorsions>
[ 6907 6896 6895 6894 ] final -163.49 input  -60.11 | X-H torsion
[ 7974 7965 7964 7962 ] final  151.91 input  175.53 | X-H torsion
[ 8008 7997 7996 7995 ] final  -33.80 input   59.86 | X-H torsion
[ 10167 10162 10161 10158 ] final -143.65 input  -65.29 | X-H torsion
[ 10718 10713 10712 10709 ] final   30.76 input   66.30 | X-H torsion
[ 10763 10752 10751 10750 ] final -116.98 input  -60.55 | X-H torsion
[ 11005 11000 10999 10996 ] final   50.80 input  -57.11 | X-H torsion

> <Gold.Protein.ActiveResidues>
 VAL166  LYS551  ARG553  GLY616  TRP617  ASP618  TYR619  PRO620  LYS621  CYS622 
 ASP623  PHE694  ASN695  SER759  ASP760  ASP761  ALA762  ILE779  LEU786  VAL792 
 PHE793  MET794  SER795  GLU796  ALA797  LYS798  CYS799  TRP800  GLU811  SER814 

> <Gold.Protein.RotatedAtoms>
  151.3969  133.3770  159.2727 H   0  0  0  0  0  0  0  0  0  0  0  0  # atno 6907 bound_to 6896
  150.9463  134.8868  159.7654 H   0  0  0  0  0  0  0  0  0  0  0  0  # atno 6908 bound_to 6896
  152.5093  134.3922  159.9440 H   0  0  0  0  0  0  0  0  0  0  0  0  # atno 6909 bound_to 6896
  144.8259  139.6600  143.6080 H   0  0  0  0  0  0  0  0  0  0  0  0  # atno 7974 bound_to 7965
  154.4138  140.1701  156.1947 H   0  0  0  0  0  0  0  0  0  0  0  0  # atno 8008 bound_to 7997
  155.9574  140.3396  155.6437 H   0  0  0  0  0  0  0  0  0  0  0  0  # atno 8009 bound_to 7997
  155.6792  140.0720  157.2482 H   0  0  0  0  0  0  0  0  0  0  0  0  # atno 8010 bound_to 7997
  139.7973  143.7882  152.2655 H   0  0  0  0  0  0  0  0  0  0  0  0  # atno 10167 bound_to 10162
  157.2637  130.7174  149.6467 H   0  0  0  0  0  0  0  0  0  0  0  0  # atno 10718 bound_to 10713
  154.8539  135.4326  154.1907 H   0  0  0  0  0  0  0  0  0  0  0  0  # atno 10763 bound_to 10752
  153.2976  135.6966  153.7239 H   0  0  0  0  0  0  0  0  0  0  0  0  # atno 10764 bound_to 10752
  153.6382  135.3473  155.3037 H   0  0  0  0  0  0  0  0  0  0  0  0  # atno 10765 bound_to 10752
  140.0987  134.5111  155.8783 H   0  0  0  0  0  0  0  0  0  0  0  0  # atno 11005 bound_to 11000
  146.2564  139.6312  142.9392 LP  0  0  0  0  0  0  0  0  0  0  0  0  # atno 17320 bound_to 7965
  145.5002  141.0437  143.2545 LP  0  0  0  0  0  0  0  0  0  0  0  0  # atno 17321 bound_to 7965
  139.7991  144.7381  150.9849 LP  0  0  0  0  0  0  0  0  0  0  0  0  # atno 17342 bound_to 10162
  140.7820  143.4363  151.0618 LP  0  0  0  0  0  0  0  0  0  0  0  0  # atno 17343 bound_to 10162
  155.9663  130.4389  150.5237 LP  0  0  0  0  0  0  0  0  0  0  0  0  # atno 17370 bound_to 10713
  157.3147  131.0670  151.1975 LP  0  0  0  0  0  0  0  0  0  0  0  0  # atno 17371 bound_to 10713
  141.2099  133.6689  156.6474 LP  0  0  0  0  0  0  0  0  0  0  0  0  # atno 17394 bound_to 11000
  140.3250  134.7976  157.4282 LP  0  0  0  0  0  0  0  0  0  0  0  0  # atno 17395 bound_to 11000

$$$$
