AV-unprocessed.smi:551|AV-procd|sdf|2900|dock4
  -GOLD-   2262023393D 1   1.00000     0.00000
 Structure written by MMmdl.
 38 39  0  0  0  0  0  0  0  0  1 V2000
  148.3277  141.7029  154.1736 C   0  0  0  0  0  0  0  0  0  0  0  0
  149.5612  141.1460  154.9054 C   0  0  2  0  0  0  0  0  0  0  0  0
  149.4313  139.6343  155.2027 C   0  0  0  0  0  0  0  0  0  0  0  0
  150.6596  138.9072  154.9398 N   0  0  0  0  0  0  0  0  0  0  0  0
  151.9177  139.4462  154.7039 C   0  0  0  0  0  0  0  0  0  0  0  0
  152.7695  138.3835  154.5047 C   0  0  0  0  0  0  0  0  0  0  0  0
  152.0620  137.1886  154.6158 N   0  0  0  0  0  0  0  0  0  0  0  0
  150.8208  137.5786  154.8763 C   0  0  0  0  0  0  0  0  0  0  0  0
  149.8781  141.9369  156.0983 N   0  0  0  0  0  0  0  0  0  0  0  0
  150.7044  141.6041  157.1050 C   0  0  0  0  0  0  0  0  0  0  0  0
  151.3144  140.5362  157.1615 O   0  0  0  0  0  0  0  0  0  0  0  0
  150.8735  142.6477  158.2167 C   0  0  0  0  0  0  0  0  0  0  0  0
  151.3460  143.9968  157.6341 C   0  0  0  0  0  0  0  0  0  0  0  0
  151.5334  145.0487  158.7397 C   0  0  0  0  0  0  0  0  0  0  0  0
  152.5049  144.5524  159.8223 C   0  0  0  0  0  0  0  0  0  0  0  0
  152.0477  143.2058  160.4045 C   0  0  0  0  0  0  0  0  0  0  0  0
  151.8600  142.1553  159.2976 C   0  0  0  0  0  0  0  0  0  0  0  0
  148.1740  141.1887  153.2247 H   0  0  0  0  0  0  0  0  0  0  0  0
  148.4452  142.7647  153.9555 H   0  0  0  0  0  0  0  0  0  0  0  0
  147.4178  141.5819  154.7619 H   0  0  0  0  0  0  0  0  0  0  0  0
  150.4122  141.2769  154.2359 H   0  0  0  0  0  0  0  0  0  0  0  0
  149.1335  139.4569  156.2365 H   0  0  0  0  0  0  0  0  0  0  0  0
  148.6457  139.2007  154.5825 H   0  0  0  0  0  0  0  0  0  0  0  0
  152.0956  140.5118  154.6934 H   0  0  0  0  0  0  0  0  0  0  0  0
  153.8283  138.3872  154.2918 H   0  0  0  0  0  0  0  0  0  0  0  0
  150.0089  136.8809  155.0210 H   0  0  0  0  0  0  0  0  0  0  0  0
  149.4333  142.8415  156.1553 H   0  0  0  0  0  0  0  0  0  0  0  0
  149.9028  142.8040  158.6913 H   0  0  0  0  0  0  0  0  0  0  0  0
  152.2883  143.8666  157.0991 H   0  0  0  0  0  0  0  0  0  0  0  0
  150.6252  144.3633  156.9017 H   0  0  0  0  0  0  0  0  0  0  0  0
  151.9020  145.9799  158.3085 H   0  0  0  0  0  0  0  0  0  0  0  0
  150.5681  145.2787  159.1925 H   0  0  0  0  0  0  0  0  0  0  0  0
  153.5030  144.4456  159.3958 H   0  0  0  0  0  0  0  0  0  0  0  0
  152.5864  145.2932  160.6182 H   0  0  0  0  0  0  0  0  0  0  0  0
  152.7758  142.8507  161.1343 H   0  0  0  0  0  0  0  0  0  0  0  0
  151.1096  143.3399  160.9442 H   0  0  0  0  0  0  0  0  0  0  0  0
  151.5015  141.2236  159.7371 H   0  0  0  0  0  0  0  0  0  0  0  0
  152.8294  141.9318  158.8494 H   0  0  0  0  0  0  0  0  0  0  0  0
  1  2  1  0  0  0  0
  1 18  1  0  0  0  0
  1 19  1  0  0  0  0
  1 20  1  0  0  0  0
  2  3  1  0  0  0  0
  2  9  1  0  0  0  0
  2 21  1  0  0  0  0
  3  4  1  0  0  0  0
  3 22  1  0  0  0  0
  3 23  1  0  0  0  0
  4  8  1  0  0  0  0
  4  5  1  0  0  0  0
  5  6  2  0  0  0  0
  5 24  1  0  0  0  0
  6  7  1  0  0  0  0
  6 25  1  0  0  0  0
  7  8  2  0  0  0  0
  8 26  1  0  0  0  0
  9 10  1  0  0  0  0
  9 27  1  0  0  0  0
 10 11  2  0  0  0  0
 10 12  1  0  0  0  0
 12 17  1  0  0  0  0
 12 13  1  0  0  0  0
 12 28  1  0  0  0  0
 13 14  1  0  0  0  0
 13 29  1  0  0  0  0
 13 30  1  0  0  0  0
 14 15  1  0  0  0  0
 14 31  1  0  0  0  0
 14 32  1  0  0  0  0
 15 16  1  0  0  0  0
 15 33  1  0  0  0  0
 15 34  1  0  0  0  0
 16 17  1  0  0  0  0
 16 35  1  0  0  0  0
 16 36  1  0  0  0  0
 17 37  1  0  0  0  0
 17 38  1  0  0  0  0
M  END
> <s_m_source_file>
AV-unprocessed.smi

> <i_m_source_file_index>
551

> <i_lp_mmshare_version>
43012

> <i_f3d_flags>
0

> <s_epik_input>
W2NIXTFuW2NIXVtjSF1uMVtDSDJdW0NAQEhdKFtDSDNdKVtOSF1DKD1PKVtDSF0yW0NIMl1bQ0gyXVtDSDJdW0NIMl1bQ0gyXTI=

> <s_epik_cmdline>
J2VwaWtfcHl0aG9uJywgJy1waCcsICc3LjAnLCAnLXRuJywgJzgnLCAnLW1hJywgJzIwMCcsICctbWV0YWxfYmluZGluZycsICctaW1hZScsICc8aW5maWxlLm1hZT4nLCAnLW9tYWUnLCAnPG91dGZpbGUubWFlPic=

> <r_lp_tautomer_probability>
1

> <r_epik_Ionization_Penalty>
0.642614

> <r_epik_Ionization_Penalty_Charging>
0.642614

> <r_epik_Ionization_Penalty_Neutral>
3.29891e-08

> <r_epik_State_Penalty>
0.660429

> <r_epik_Charging_Adjusted_Penalty>
1.30304

> <i_epik_Tot_Q>
0

> <i_epik_Tot_abs_Q>
0

> <r_epik_Metal_State_Penalty>
0.31224

> <b_epik_Metal_Only>
0

> <s_lp_Force_Field>
OPLS_2005

> <r_lp_Energy>
12.8339

> <b_lp_Chiralities_Consistent>
1

> <s_lp_Variant>
AV-unprocessed.smi:551-3

> <Gold.Version>
5.8.1

> <Gold.Id.Protein>
6NUR|6NUR_protein|mol2

> <Gold.PLP.Fitness>
43.7133

> <Gold.PLP.PLP>
-39.8176

> <Gold.PLP.part.hbond>
-2.0000

> <Gold.PLP.part.metal>
0.0000

> <Gold.PLP.part.buried>
-1.6567

> <Gold.PLP.part.nonpolar>
-36.0519

> <Gold.PLP.part.repulsive>
0.2174

> <Gold.PLP.ligand.clash>
0.0000

> <Gold.PLP.ligand.torsion>
0.9304

> <Gold.PLP.Chemscore.Hbond>
1.8960

> <Gold.PLP.Chemscore.CHOScore>
0.0000

> <Gold.PLP.Chemscore.Metal>
0.0000

> <Gold.Chemscore.Hbonds>
donor molecule, donor type, donor heavy atom, donor atom, acceptor molecule, acceptor atom, score
      L1  H     9    27       P1  8028  1.00
      P1  H 10752 10763       L1     7  0.90

> <Gold.PLP.Chemscore.Internal.Correction>
0.0686

> <Gold.Rescore>
     Score         DG    S(hbond)    S(metal)    S(lipo)     H(rot)  DE(clash)    DE(int)     intcor
     13.50     -19.21       1.80        0.00     103.80       1.73       0.55       5.16       ----

> <Gold.Chemscore.Fitness>
13.4974

> <Gold.Chemscore.DG>
-19.2078

> <Gold.Chemscore.ZeroCoef>
-5.4800

> <Gold.Chemscore.Hbond>
1.8014

> <Gold.Chemscore.Metal>
0.0000

> <Gold.Chemscore.Lipo>
103.8026

> <Gold.Chemscore.Internal_Hbond>
0.0000

> <Gold.Chemscore.DEClash>
0.5546

> <Gold.Chemscore.DEInternal>
5.1558

> <Gold.Chemscore.Rot>
1.7319

> <Gold.Chemscore.Internal.Correction>
   9.000000E+99

> <Gold.Chemscore.Hbonds>
donor molecule, donor type, donor heavy atom, donor atom, acceptor molecule, acceptor atom, score
      L1  H     9    27       P1  8028  0.94
      P1  H 10752 10763       L1     7  0.84

> <Gold.Chemscore.Hbond.Weighted>
-6.0167

> <Gold.Chemscore.Metal.Weighted>
-0.0000

> <Gold.Chemscore.Lipo.Weighted>
-12.1449

> <Gold.Chemscore.Internal_Hbond.Weighted>
0.0000

> <Gold.Chemscore.DEClash.Weighted>
0.5546

> <Gold.Chemscore.DEInternal.Weighted>
5.1558

> <Gold.Chemscore.Rot.Weighted>
4.4338

> <Gold.Chemscore.Internal.Correction.Weighted>
   9.000000E+99

> <Gold.Protein.RotatedTorsions>
[ 6907 6896 6895 6894 ] final  -39.38 input  -60.11 | X-H torsion
[ 7974 7965 7964 7962 ] final  125.92 input  175.53 | X-H torsion
[ 8008 7997 7996 7995 ] final  108.65 input   59.86 | X-H torsion
[ 10167 10162 10161 10158 ] final  -86.81 input  -65.29 | X-H torsion
[ 10718 10713 10712 10709 ] final  102.40 input   66.30 | X-H torsion
[ 10763 10752 10751 10750 ] final   43.87 input  -60.55 | X-H torsion
[ 11005 11000 10999 10996 ] final  -38.02 input  -57.11 | X-H torsion

> <Gold.Protein.ActiveResidues>
 VAL166  LYS551  ARG553  GLY616  TRP617  ASP618  TYR619  PRO620  LYS621  CYS622 
 ASP623  PHE694  ASN695  SER759  ASP760  ASP761  ALA762  ILE779  LEU786  VAL792 
 PHE793  MET794  SER795  GLU796  ALA797  LYS798  CYS799  TRP800  GLU811  SER814 

> <Gold.Protein.RotatedAtoms>
  150.9911  134.9245  159.7899 H   0  0  0  0  0  0  0  0  0  0  0  0  # atno 6907 bound_to 6896
  152.5251  134.3281  159.9183 H   0  0  0  0  0  0  0  0  0  0  0  0  # atno 6908 bound_to 6896
  151.3287  133.3968  159.2695 H   0  0  0  0  0  0  0  0  0  0  0  0  # atno 6909 bound_to 6896
  145.0675  139.3756  143.4974 H   0  0  0  0  0  0  0  0  0  0  0  0  # atno 7974 bound_to 7965
  156.1919  140.3072  155.9350 H   0  0  0  0  0  0  0  0  0  0  0  0  # atno 8008 bound_to 7997
  155.3153  140.0453  157.3054 H   0  0  0  0  0  0  0  0  0  0  0  0  # atno 8009 bound_to 7997
  154.5463  140.2277  155.8567 H   0  0  0  0  0  0  0  0  0  0  0  0  # atno 8010 bound_to 7997
  140.3905  143.2707  151.9270 H   0  0  0  0  0  0  0  0  0  0  0  0  # atno 10167 bound_to 10162
  157.6803  131.0752  150.5398 H   0  0  0  0  0  0  0  0  0  0  0  0  # atno 10718 bound_to 10713
  152.9852  135.6088  154.3181 H   0  0  0  0  0  0  0  0  0  0  0  0  # atno 10763 bound_to 10752
  154.2892  135.2775  155.2664 H   0  0  0  0  0  0  0  0  0  0  0  0  # atno 10764 bound_to 10752
  154.4967  135.5878  153.6556 H   0  0  0  0  0  0  0  0  0  0  0  0  # atno 10765 bound_to 10752
  140.9996  133.6962  156.1997 H   0  0  0  0  0  0  0  0  0  0  0  0  # atno 11005 bound_to 11000
  146.3527  140.0404  142.8643 LP  0  0  0  0  0  0  0  0  0  0  0  0  # atno 17320 bound_to 7965
  145.1333  140.9530  143.4532 LP  0  0  0  0  0  0  0  0  0  0  0  0  # atno 17321 bound_to 7965
  139.4789  144.5732  151.8055 LP  0  0  0  0  0  0  0  0  0  0  0  0  # atno 17342 bound_to 10162
  140.4844  144.1402  150.5938 LP  0  0  0  0  0  0  0  0  0  0  0  0  # atno 17343 bound_to 10162
  156.5705  130.4278  149.6021 LP  0  0  0  0  0  0  0  0  0  0  0  0  # atno 17370 bound_to 10713
  156.2745  130.7035  151.1842 LP  0  0  0  0  0  0  0  0  0  0  0  0  # atno 17371 bound_to 10713
  140.6911  134.4665  157.5588 LP  0  0  0  0  0  0  0  0  0  0  0  0  # atno 17394 bound_to 11000
  139.9032  134.8509  156.1811 LP  0  0  0  0  0  0  0  0  0  0  0  0  # atno 17395 bound_to 11000

$$$$
