AV-unprocessed.smi:3343|AV-procd|sdf|12894|dock7
  -GOLD-   2272019303D 1   1.00000     0.00000
 Structure written by MMmdl.
 41 42  0  0  0  0  0  0  0  0  1 V2000
  147.2399  142.3154  153.8084 C   0  0  0  0  0  0  0  0  0  0  0  0
  148.0136  140.9826  153.7468 C   0  0  1  0  0  0  0  0  0  0  0  0
  149.1409  140.9133  154.7879 C   0  0  0  0  0  0  0  0  0  0  0  0
  150.2840  140.6032  154.4511 O   0  0  0  0  0  0  0  0  0  0  0  0
  148.7999  141.2056  156.0533 N   0  0  0  0  0  0  0  0  0  0  0  0
  149.7007  141.1739  157.2009 C   0  0  0  0  0  0  0  0  0  0  0  0
  150.9750  142.0020  156.9439 C   0  0  0  0  0  0  0  0  0  0  0  0
  151.6927  142.4441  158.1395 N   0  0  0  0  0  0  0  0  0  0  0  0
  150.9447  143.4421  158.9104 C   0  0  0  0  0  0  0  0  0  0  0  0
  151.7304  143.8974  160.1541 C   0  0  0  0  0  0  0  0  0  0  0  0
  152.0438  142.7700  161.0298 N   0  0  0  0  0  0  0  0  0  0  0  0
  152.7831  143.1979  162.2073 C   0  0  0  0  0  0  0  0  0  0  0  0
  152.7842  141.7684  160.2654 C   0  0  0  0  0  0  0  0  0  0  0  0
  151.9966  141.3168  159.0213 C   0  0  0  0  0  0  0  0  0  0  0  0
  147.1377  139.8244  153.8766 N   0  0  0  0  0  0  0  0  0  0  0  0
  147.0778  138.7099  153.1442 C   0  0  0  0  0  0  0  0  0  0  0  0
  146.1847  137.8295  153.5731 N   0  0  0  0  0  0  0  0  0  0  0  0
  145.7031  138.5044  154.6587 C   0  0  0  0  0  0  0  0  0  0  0  0
  146.2469  139.6985  154.8921 N   0  0  0  0  0  0  0  0  0  0  0  0
  147.9089  143.1635  153.6581 H   0  0  0  0  0  0  0  0  0  0  0  0
  146.7392  142.4578  154.7670 H   0  0  0  0  0  0  0  0  0  0  0  0
  146.4785  142.3583  153.0291 H   0  0  0  0  0  0  0  0  0  0  0  0
  148.4724  140.9252  152.7580 H   0  0  0  0  0  0  0  0  0  0  0  0
  147.8380  141.4491  156.2392 H   0  0  0  0  0  0  0  0  0  0  0  0
  149.1939  141.4799  158.1167 H   0  0  0  0  0  0  0  0  0  0  0  0
  149.9840  140.1331  157.3578 H   0  0  0  0  0  0  0  0  0  0  0  0
  151.6508  141.4284  156.3081 H   0  0  0  0  0  0  0  0  0  0  0  0
  150.6892  142.8757  156.3567 H   0  0  0  0  0  0  0  0  0  0  0  0
  150.7336  144.3170  158.2970 H   0  0  0  0  0  0  0  0  0  0  0  0
  149.9793  143.0345  159.2145 H   0  0  0  0  0  0  0  0  0  0  0  0
  152.6494  144.3966  159.8420 H   0  0  0  0  0  0  0  0  0  0  0  0
  151.1440  144.6366  160.7009 H   0  0  0  0  0  0  0  0  0  0  0  0
  152.9896  142.3511  162.8625 H   0  0  0  0  0  0  0  0  0  0  0  0
  152.2090  143.9278  162.7788 H   0  0  0  0  0  0  0  0  0  0  0  0
  153.7348  143.6540  161.9313 H   0  0  0  0  0  0  0  0  0  0  0  0
  153.7513  142.1710  159.9589 H   0  0  0  0  0  0  0  0  0  0  0  0
  152.9916  140.9030  160.8957 H   0  0  0  0  0  0  0  0  0  0  0  0
  151.0736  140.8232  159.3304 H   0  0  0  0  0  0  0  0  0  0  0  0
  152.5820  140.5726  158.4799 H   0  0  0  0  0  0  0  0  0  0  0  0
  147.7033  138.5375  152.2805 H   0  0  0  0  0  0  0  0  0  0  0  0
  144.9329  138.1014  155.2996 H   0  0  0  0  0  0  0  0  0  0  0  0
  1  2  1  0  0  0  0
  1 20  1  0  0  0  0
  1 21  1  0  0  0  0
  1 22  1  0  0  0  0
  2  3  1  0  0  0  0
  2 15  1  0  0  0  0
  2 23  1  0  0  0  0
  3  4  2  0  0  0  0
  3  5  1  0  0  0  0
  5  6  1  0  0  0  0
  5 24  1  0  0  0  0
  6  7  1  0  0  0  0
  6 25  1  0  0  0  0
  6 26  1  0  0  0  0
  7  8  1  0  0  0  0
  7 27  1  0  0  0  0
  7 28  1  0  0  0  0
  8 14  1  0  0  0  0
  8  9  1  0  0  0  0
  9 10  1  0  0  0  0
  9 29  1  0  0  0  0
  9 30  1  0  0  0  0
 10 11  1  0  0  0  0
 10 31  1  0  0  0  0
 10 32  1  0  0  0  0
 11 12  1  0  0  0  0
 11 13  1  0  0  0  0
 12 33  1  0  0  0  0
 12 34  1  0  0  0  0
 12 35  1  0  0  0  0
 13 14  1  0  0  0  0
 13 36  1  0  0  0  0
 13 37  1  0  0  0  0
 14 38  1  0  0  0  0
 14 39  1  0  0  0  0
 15 19  1  0  0  0  0
 15 16  1  0  0  0  0
 16 17  2  0  0  0  0
 16 40  1  0  0  0  0
 17 18  1  0  0  0  0
 18 19  2  0  0  0  0
 18 41  1  0  0  0  0
M  END
> <s_m_source_file>
AV-unprocessed.smi

> <i_m_source_file_index>
3343

> <i_lp_mmshare_version>
43012

> <i_f3d_flags>
0

> <s_epik_input>
bjFbY0hdbltjSF1uMVtDQEhdKFtDSDNdKUMoPU8pW05IXVtDSDJdW0NIMl1OMltDSDJdW0NIMl1OKFtDSDNdKVtDSDJdW0NIMl0y

> <s_epik_cmdline>
J2VwaWtfcHl0aG9uJywgJy1waCcsICc3LjAnLCAnLXRuJywgJzgnLCAnLW1hJywgJzIwMCcsICctbWV0YWxfYmluZGluZycsICctaW1hZScsICc8aW5maWxlLm1hZT4nLCAnLW9tYWUnLCAnPG91dGZpbGUubWFlPic=

> <r_lp_tautomer_probability>
1

> <r_epik_Ionization_Penalty>
1.97295

> <r_epik_Ionization_Penalty_Charging>
0

> <r_epik_Ionization_Penalty_Neutral>
1.97295

> <r_epik_State_Penalty>
1.8027

> <r_epik_Charging_Adjusted_Penalty>
1.8027

> <i_epik_Tot_Q>
0

> <i_epik_Tot_abs_Q>
0

> <r_epik_Metal_State_Penalty>
1.8027

> <b_epik_Metal_Only>
0

> <s_lp_Force_Field>
OPLS_2005

> <r_lp_Energy>
40.9653

> <b_lp_Chiralities_Consistent>
1

> <s_lp_Variant>
AV-unprocessed.smi:3343-4

> <Gold.Version>
5.8.1

> <Gold.Id.Protein>
6NUR|6NUR_protein|mol2

> <Gold.PLP.Fitness>
40.2667

> <Gold.PLP.PLP>
-33.8587

> <Gold.PLP.part.hbond>
-1.2770

> <Gold.PLP.part.metal>
0.0000

> <Gold.PLP.part.buried>
-4.5153

> <Gold.PLP.part.nonpolar>
-27.8829

> <Gold.PLP.part.repulsive>
0.5158

> <Gold.PLP.ligand.clash>
0.0000

> <Gold.PLP.ligand.torsion>
0.7377

> <Gold.PLP.Chemscore.Hbond>
0.8640

> <Gold.PLP.Chemscore.CHOScore>
1.7239

> <Gold.PLP.Chemscore.Metal>
0.0000

> <Gold.Chemscore.Hbonds>
donor molecule, donor type, donor heavy atom, donor atom, acceptor molecule, acceptor atom, score
      P1  H  7989  7998       L1     4  0.88
      L1  C    16    40       P1  7948  0.66
      L1  C    16    40       P1  7957  0.72

> <Gold.PLP.Chemscore.Internal.Correction>
0.1197

> <Gold.Rescore>
     Score         DG    S(hbond)    S(metal)    S(lipo)     H(rot)  DE(clash)    DE(int)     intcor
     10.84     -11.38       0.99        0.00      77.98       2.56       0.05       0.48       ----

> <Gold.Chemscore.Fitness>
10.8426

> <Gold.Chemscore.DG>
-11.3774

> <Gold.Chemscore.ZeroCoef>
-5.4800

> <Gold.Chemscore.Hbond>
0.9944

> <Gold.Chemscore.Metal>
0.0000

> <Gold.Chemscore.Lipo>
77.9797

> <Gold.Chemscore.Internal_Hbond>
0.0000

> <Gold.Chemscore.DEClash>
0.0536

> <Gold.Chemscore.DEInternal>
0.4811

> <Gold.Chemscore.Rot>
2.5577

> <Gold.Chemscore.Internal.Correction>
   9.000000E+99

> <Gold.Chemscore.Hbonds>
donor molecule, donor type, donor heavy atom, donor atom, acceptor molecule, acceptor atom, score
      P1  H  7989  7998       L1     4  0.86

> <Gold.Chemscore.Hbond.Weighted>
-3.3214

> <Gold.Chemscore.Metal.Weighted>
-0.0000

> <Gold.Chemscore.Lipo.Weighted>
-9.1236

> <Gold.Chemscore.Internal_Hbond.Weighted>
0.0000

> <Gold.Chemscore.DEClash.Weighted>
0.0536

> <Gold.Chemscore.DEInternal.Weighted>
0.4811

> <Gold.Chemscore.Rot.Weighted>
6.5477

> <Gold.Chemscore.Internal.Correction.Weighted>
   9.000000E+99

> <Gold.Protein.RotatedTorsions>
[ 6907 6896 6895 6894 ] final  -36.47 input  -60.11 | X-H torsion
[ 7974 7965 7964 7962 ] final -139.83 input  175.53 | X-H torsion
[ 8008 7997 7996 7995 ] final -151.83 input   59.86 | X-H torsion
[ 10167 10162 10161 10158 ] final  139.85 input  -65.29 | X-H torsion
[ 10718 10713 10712 10709 ] final  -95.40 input   66.30 | X-H torsion
[ 10763 10752 10751 10750 ] final  136.02 input  -60.55 | X-H torsion
[ 11005 11000 10999 10996 ] final  -31.10 input  -57.11 | X-H torsion

> <Gold.Protein.ActiveResidues>
 VAL166  LYS551  ARG553  GLY616  TRP617  ASP618  TYR619  PRO620  LYS621  CYS622 
 ASP623  PHE694  ASN695  SER759  ASP760  ASP761  ALA762  ILE779  LEU786  VAL792 
 PHE793  MET794  SER795  GLU796  ALA797  LYS798  CYS799  TRP800  GLU811  SER814 

> <Gold.Protein.RotatedAtoms>
  151.0268  134.9510  159.8089 H   0  0  0  0  0  0  0  0  0  0  0  0  # atno 6907 bound_to 6896
  152.5337  134.2832  159.9025 H   0  0  0  0  0  0  0  0  0  0  0  0  # atno 6908 bound_to 6896
  151.2840  133.4154  159.2663 H   0  0  0  0  0  0  0  0  0  0  0  0  # atno 6909 bound_to 6896
  144.8645  140.6272  143.5306 H   0  0  0  0  0  0  0  0  0  0  0  0  # atno 7974 bound_to 7965
  155.6456  140.0706  157.2604 H   0  0  0  0  0  0  0  0  0  0  0  0  # atno 8008 bound_to 7997
  154.4174  140.1742  156.1669 H   0  0  0  0  0  0  0  0  0  0  0  0  # atno 8009 bound_to 7997
  155.9820  140.3353  155.6675 H   0  0  0  0  0  0  0  0  0  0  0  0  # atno 8010 bound_to 7997
  139.5066  144.6270  151.5913 H   0  0  0  0  0  0  0  0  0  0  0  0  # atno 10167 bound_to 10162
  156.0043  130.5108  150.6071 H   0  0  0  0  0  0  0  0  0  0  0  0  # atno 10718 bound_to 10713
  153.8496  135.3081  155.3431 H   0  0  0  0  0  0  0  0  0  0  0  0  # atno 10763 bound_to 10752
  154.7897  135.4790  154.0027 H   0  0  0  0  0  0  0  0  0  0  0  0  # atno 10764 bound_to 10752
  153.1526  135.6846  153.8953 H   0  0  0  0  0  0  0  0  0  0  0  0  # atno 10765 bound_to 10752
  140.9439  133.7262  156.1118 H   0  0  0  0  0  0  0  0  0  0  0  0  # atno 11005 bound_to 11000
  145.4247  139.1558  143.4055 LP  0  0  0  0  0  0  0  0  0  0  0  0  # atno 17320 bound_to 7965
  146.2886  140.4360  142.8748 LP  0  0  0  0  0  0  0  0  0  0  0  0  # atno 17321 bound_to 7965
  140.5990  143.9644  150.6373 LP  0  0  0  0  0  0  0  0  0  0  0  0  # atno 17342 bound_to 10162
  140.2849  143.3363  152.1116 LP  0  0  0  0  0  0  0  0  0  0  0  0  # atno 17343 bound_to 10162
  157.3910  131.0795  151.1394 LP  0  0  0  0  0  0  0  0  0  0  0  0  # atno 17370 bound_to 10713
  157.2085  130.6427  149.5765 LP  0  0  0  0  0  0  0  0  0  0  0  0  # atno 17371 bound_to 10713
  140.7696  134.3848  157.5510 LP  0  0  0  0  0  0  0  0  0  0  0  0  # atno 17394 bound_to 11000
  139.8828  134.9013  156.2808 LP  0  0  0  0  0  0  0  0  0  0  0  0  # atno 17395 bound_to 11000

$$$$
