AV-unprocessed.smi:54|AV-procd|sdf|541|dock4
  -GOLD-   2262016423D 1   1.00000     0.00000
 Structure written by MMmdl.
 44 46  0  0  0  0  0  0  0  0  1 V2000
  152.2546  144.8452  158.8772 C   0  0  0  0  0  0  0  0  0  0  0  0
  150.8920  144.1610  158.6801 C   0  0  0  0  0  0  0  0  0  0  0  0
  150.0366  144.2426  159.9546 C   0  0  0  0  0  0  0  0  0  0  0  0
  151.0760  142.7020  158.2469 C   0  0  0  0  0  0  0  0  0  0  0  0
  151.7046  141.8930  158.9303 O   0  0  0  0  0  0  0  0  0  0  0  0
  150.4544  142.3455  156.9837 N   0  0  0  0  0  0  0  0  0  0  0  0
  150.4608  141.1368  156.3748 C   0  0  0  0  0  0  0  0  0  0  0  0
  149.3778  140.5814  155.8494 N   0  0  0  0  0  0  0  0  0  0  0  0
  149.5854  139.3542  155.2835 C   0  0  0  0  0  0  0  0  0  0  0  0
  150.7813  138.6705  155.2176 C   0  0  0  0  0  0  0  0  0  0  0  0
  150.6035  137.4551  154.5663 N   0  0  0  0  0  0  0  0  0  0  0  0
  149.3348  137.4399  154.2662 C   0  0  0  0  0  0  0  0  0  0  0  0
  148.6443  138.5620  154.6611 N   0  0  0  0  0  0  0  0  0  0  0  0
  147.1930  138.8931  154.4896 C   0  0  2  0  0  0  0  0  0  0  0  0
  146.5395  137.7177  154.1128 O   0  0  0  0  0  0  0  0  0  0  0  0
  145.8805  137.8771  152.8572 C   0  0  2  0  0  0  0  0  0  0  0  0
  145.8610  136.5534  152.0725 C   0  0  0  0  0  0  0  0  0  0  0  0
  145.8822  136.8121  150.6849 O   0  0  0  0  0  0  0  0  0  0  0  0
  146.6089  139.0440  152.1746 C   0  0  2  0  0  0  0  0  0  0  0  0
  147.7492  138.6005  151.4575 O   0  0  0  0  0  0  0  0  0  0  0  0
  146.9678  139.9218  153.3658 C   0  0  2  0  0  0  0  0  0  0  0  0
  148.0519  140.7976  153.1079 O   0  0  0  0  0  0  0  0  0  0  0  0
  151.9611  139.2555  155.7857 C   0  0  0  0  0  0  0  0  0  0  0  0
  153.0997  138.7939  155.8202 O   0  0  0  0  0  0  0  0  0  0  0  0
  151.7072  140.5103  156.3546 N   0  0  0  0  0  0  0  0  0  0  0  0
  146.8654  139.2348  155.4721 H   0  0  0  0  0  0  0  0  0  0  0  0
  144.8588  138.2032  153.0612 H   0  0  0  0  0  0  0  0  0  0  0  0
  145.9567  139.5667  151.4742 H   0  0  0  0  0  0  0  0  0  0  0  0
  146.0957  140.5156  153.6426 H   0  0  0  0  0  0  0  0  0  0  0  0
  152.8671  144.7774  157.9772 H   0  0  0  0  0  0  0  0  0  0  0  0
  152.8158  144.3943  159.6967 H   0  0  0  0  0  0  0  0  0  0  0  0
  152.1290  145.9035  159.1074 H   0  0  0  0  0  0  0  0  0  0  0  0
  150.3636  144.6884  157.8845 H   0  0  0  0  0  0  0  0  0  0  0  0
  149.0679  143.7614  159.8139 H   0  0  0  0  0  0  0  0  0  0  0  0
  149.8481  145.2802  160.2308 H   0  0  0  0  0  0  0  0  0  0  0  0
  150.5287  143.7604  160.8004 H   0  0  0  0  0  0  0  0  0  0  0  0
  149.9456  143.0832  156.5196 H   0  0  0  0  0  0  0  0  0  0  0  0
  148.8729  136.6111  153.7500 H   0  0  0  0  0  0  0  0  0  0  0  0
  146.7482  135.9643  152.3065 H   0  0  0  0  0  0  0  0  0  0  0  0
  144.9907  135.9496  152.3311 H   0  0  0  0  0  0  0  0  0  0  0  0
  145.1581  137.3814  150.4741 H   0  0  0  0  0  0  0  0  0  0  0  0
  148.4720  139.1737  151.6636 H   0  0  0  0  0  0  0  0  0  0  0  0
  148.5093  140.4830  152.3429 H   0  0  0  0  0  0  0  0  0  0  0  0
  152.4947  140.9821  156.7741 H   0  0  0  0  0  0  0  0  0  0  0  0
  1  2  1  0  0  0  0
  1 30  1  0  0  0  0
  1 31  1  0  0  0  0
  1 32  1  0  0  0  0
  2  3  1  0  0  0  0
  2  4  1  0  0  0  0
  2 33  1  0  0  0  0
  3 34  1  0  0  0  0
  3 35  1  0  0  0  0
  3 36  1  0  0  0  0
  4  5  2  0  0  0  0
  4  6  1  0  0  0  0
  6 37  1  0  0  0  0
  6  7  1  0  0  0  0
  7 25  1  0  0  0  0
  7  8  2  0  0  0  0
  8  9  1  0  0  0  0
  9 13  1  0  0  0  0
  9 10  2  0  0  0  0
 10 11  1  0  0  0  0
 10 23  1  0  0  0  0
 11 12  2  0  0  0  0
 12 13  1  0  0  0  0
 12 38  1  0  0  0  0
 13 14  1  0  0  0  0
 14 26  1  0  0  0  0
 14 21  1  0  0  0  0
 14 15  1  0  0  0  0
 15 16  1  0  0  0  0
 16 27  1  0  0  0  0
 16 17  1  0  0  0  0
 16 19  1  0  0  0  0
 17 18  1  0  0  0  0
 17 39  1  0  0  0  0
 17 40  1  0  0  0  0
 18 41  1  0  0  0  0
 19 28  1  0  0  0  0
 19 20  1  0  0  0  0
 19 21  1  0  0  0  0
 20 42  1  0  0  0  0
 21 29  1  0  0  0  0
 21 22  1  0  0  0  0
 22 43  1  0  0  0  0
 23 24  2  0  0  0  0
 23 25  1  0  0  0  0
 25 44  1  0  0  0  0
M  END
> <s_m_source_file>
AV-unprocessed.smi

> <i_m_source_file_index>
54

> <i_lp_mmshare_version>
43012

> <i_f3d_flags>
0

> <s_epik_input>
W0NIM11bQ0hdKFtDSDNdKUMoPU8pW05IXWMobjEpW25IXWMoPU8pYyhjMTIpbltjSF1uMltDQEBIXTNPW0NASF0oW0NIMl1bT0hdKVtDQEBIXShbT0hdKVtDQEhdM1tPSF0=

> <s_epik_cmdline>
J2VwaWtfcHl0aG9uJywgJy1waCcsICc3LjAnLCAnLXRuJywgJzgnLCAnLW1hJywgJzIwMCcsICctbWV0YWxfYmluZGluZycsICctaW1hZScsICc8aW5maWxlLm1hZT4nLCAnLW9tYWUnLCAnPG91dGZpbGUubWFlPic=

> <r_lp_tautomer_probability>
0.85571

> <r_epik_Ionization_Penalty>
0.0316551

> <r_epik_Ionization_Penalty_Charging>
0.0316043

> <r_epik_Ionization_Penalty_Neutral>
5.07097e-05

> <r_epik_State_Penalty>
3.15494e-07

> <r_epik_Charging_Adjusted_Penalty>
0.0316047

> <i_epik_Tot_Q>
0

> <i_epik_Tot_abs_Q>
0

> <r_epik_Metal_State_Penalty>
0.421206

> <b_epik_Metal_Only>
0

> <s_epik_Chemistry_Notes>
This compound contains an acetal/aminal-like group ( X-CH(R)-Y where X, Y are N, S, or O) that may be acid/base labile, releasing an aldehyde.

> <s_lp_Force_Field>
OPLS_2005

> <r_lp_Energy>
46.8633

> <b_lp_Chiralities_Consistent>
1

> <s_lp_Variant>
AV-unprocessed.smi:54-13

> <Gold.Version>
5.8.1

> <Gold.Id.Protein>
6NUR|6NUR_protein|mol2

> <Gold.PLP.Fitness>
55.2151

> <Gold.PLP.PLP>
-37.0736

> <Gold.PLP.part.hbond>
-6.5131

> <Gold.PLP.part.metal>
0.0000

> <Gold.PLP.part.buried>
-1.9432

> <Gold.PLP.part.nonpolar>
-29.8762

> <Gold.PLP.part.repulsive>
0.5738

> <Gold.PLP.ligand.clash>
0.0000

> <Gold.PLP.ligand.torsion>
1.1696

> <Gold.PLP.Chemscore.Hbond>
5.9272

> <Gold.PLP.Chemscore.CHOScore>
0.8244

> <Gold.PLP.Chemscore.Metal>
0.0000

> <Gold.Chemscore.Hbonds>
donor molecule, donor type, donor heavy atom, donor atom, acceptor molecule, acceptor atom, score
      L1  H     6    37       P1  8028  0.75
      L1  H    18    41       P1 10171  1.00
      L1  H    20    42       P1  7957  0.80
      L1  H    22    43       P1  7957  1.00
      P1  H  7954  7966       L1    20  0.90
      P1  H  7997  8008       L1    24  1.00
      L1  C    12    38       P1  7948  0.66

> <Gold.PLP.Chemscore.Internal.Correction>
0.2258

> <Gold.Rescore>
     Score         DG    S(hbond)    S(metal)    S(lipo)     H(rot)  DE(clash)    DE(int)     intcor
     16.86     -19.64       5.14        0.00      62.75       4.05       0.59       2.18       ----

> <Gold.Chemscore.Fitness>
16.8591

> <Gold.Chemscore.DG>
-19.6371

> <Gold.Chemscore.ZeroCoef>
-5.4800

> <Gold.Chemscore.Hbond>
5.1441

> <Gold.Chemscore.Metal>
0.0000

> <Gold.Chemscore.Lipo>
62.7512

> <Gold.Chemscore.Internal_Hbond>
0.0000

> <Gold.Chemscore.DEClash>
0.5945

> <Gold.Chemscore.DEInternal>
2.1834

> <Gold.Chemscore.Rot>
4.0493

> <Gold.Chemscore.Internal.Correction>
   9.000000E+99

> <Gold.Chemscore.Hbonds>
donor molecule, donor type, donor heavy atom, donor atom, acceptor molecule, acceptor atom, score
      L1  H     6    37       P1  8028  0.75
      L1  H    18    41       P1 10171  1.00
      L1  H    20    42       P1  7957  0.71
      L1  H    22    43       P1  7957  1.00
      P1  H  7954  7966       L1    20  0.39
      P1  H  7997  8008       L1    24  0.76

> <Gold.Chemscore.Hbond.Weighted>
-17.1814

> <Gold.Chemscore.Metal.Weighted>
-0.0000

> <Gold.Chemscore.Lipo.Weighted>
-7.3419

> <Gold.Chemscore.Internal_Hbond.Weighted>
0.0000

> <Gold.Chemscore.DEClash.Weighted>
0.5945

> <Gold.Chemscore.DEInternal.Weighted>
2.1834

> <Gold.Chemscore.Rot.Weighted>
10.3662

> <Gold.Chemscore.Internal.Correction.Weighted>
   9.000000E+99

> <Gold.Protein.RotatedTorsions>
[ 6907 6896 6895 6894 ] final  -45.66 input  -60.11 | X-H torsion
[ 7974 7965 7964 7962 ] final  100.69 input  175.53 | X-H torsion
[ 8008 7997 7996 7995 ] final  -43.30 input   59.86 | X-H torsion
[ 10167 10162 10161 10158 ] final -136.99 input  -65.29 | X-H torsion
[ 10718 10713 10712 10709 ] final   34.65 input   66.30 | X-H torsion
[ 10763 10752 10751 10750 ] final  147.47 input  -60.55 | X-H torsion
[ 11005 11000 10999 10996 ] final -105.18 input  -57.11 | X-H torsion

> <Gold.Protein.ActiveResidues>
 VAL166  LYS551  ARG553  GLY616  TRP617  ASP618  TYR619  PRO620  LYS621  CYS622 
 ASP623  PHE694  ASN695  SER759  ASP760  ASP761  ALA762  ILE779  LEU786  VAL792 
 PHE793  MET794  SER795  GLU796  ALA797  LYS798  CYS799  TRP800  GLU811  SER814 

> <Gold.Protein.RotatedAtoms>
  150.9195  134.8613  159.7479 H   0  0  0  0  0  0  0  0  0  0  0  0  # atno 6907 bound_to 6896
  152.4985  134.4239  159.9499 H   0  0  0  0  0  0  0  0  0  0  0  0  # atno 6908 bound_to 6896
  151.4274  133.3641  159.2799 H   0  0  0  0  0  0  0  0  0  0  0  0  # atno 6909 bound_to 6896
  145.3822  139.2377  143.3397 H   0  0  0  0  0  0  0  0  0  0  0  0  # atno 7974 bound_to 7965
  154.3997  140.1451  156.3496 H   0  0  0  0  0  0  0  0  0  0  0  0  # atno 8008 bound_to 7997
  155.8281  140.3467  155.5534 H   0  0  0  0  0  0  0  0  0  0  0  0  # atno 8009 bound_to 7997
  155.8217  140.0899  157.1835 H   0  0  0  0  0  0  0  0  0  0  0  0  # atno 8010 bound_to 7997
  139.8622  143.7062  152.2649 H   0  0  0  0  0  0  0  0  0  0  0  0  # atno 10167 bound_to 10162
  157.3129  130.7408  149.6736 H   0  0  0  0  0  0  0  0  0  0  0  0  # atno 10718 bound_to 10713
  154.0389  135.2891  155.3358 H   0  0  0  0  0  0  0  0  0  0  0  0  # atno 10763 bound_to 10752
  154.6941  135.5214  153.8437 H   0  0  0  0  0  0  0  0  0  0  0  0  # atno 10764 bound_to 10752
  153.0608  135.6613  154.0595 H   0  0  0  0  0  0  0  0  0  0  0  0  # atno 10765 bound_to 10752
  141.1065  133.8786  157.1703 H   0  0  0  0  0  0  0  0  0  0  0  0  # atno 11005 bound_to 11000
  146.2836  140.4492  142.8766 LP  0  0  0  0  0  0  0  0  0  0  0  0  # atno 17320 bound_to 7965
  144.8499  140.6986  143.6175 LP  0  0  0  0  0  0  0  0  0  0  0  0  # atno 17321 bound_to 7965
  139.7362  144.7570  151.0723 LP  0  0  0  0  0  0  0  0  0  0  0  0  # atno 17342 bound_to 10162
  140.7773  143.5027  150.9751 LP  0  0  0  0  0  0  0  0  0  0  0  0  # atno 17343 bound_to 10162
  155.9679  130.4246  150.4615 LP  0  0  0  0  0  0  0  0  0  0  0  0  # atno 17370 bound_to 10713
  157.2616  131.0568  151.2316 LP  0  0  0  0  0  0  0  0  0  0  0  0  # atno 17371 bound_to 10713
  139.9938  135.0054  157.0036 LP  0  0  0  0  0  0  0  0  0  0  0  0  # atno 17394 bound_to 11000
  140.4887  134.1215  155.7229 LP  0  0  0  0  0  0  0  0  0  0  0  0  # atno 17395 bound_to 11000

$$$$
