AV-unprocessed.smi:3095|AV-procd|sdf|11792|dock7
  -GOLD-   2272017173D 1   1.00000     0.00000
 Structure written by MMmdl.
 25 26  0  0  0  0  0  0  0  0  2 V2000
  153.7986  141.6933  161.8335 C   0  0  0  0  0  0  0  0  0  0  0  0
  152.8301  142.5860  161.1232 C   0  0  0  0  0  0  0  0  0  0  0  0
  152.3664  143.8049  161.5503 C   0  0  0  0  0  0  0  0  0  0  0  0
  151.2467  144.5075  160.4158 S   0  0  0  0  0  0  0  0  0  0  0  0
  151.4652  143.1048  159.3753 C   0  0  0  0  0  0  0  0  0  0  0  0
  150.7332  142.9338  158.0823 C   0  0  2  0  0  0  0  0  0  0  0  0
  149.2263  142.6881  158.2857 C   0  0  0  0  0  0  0  0  0  0  0  0
  148.5760  142.4479  156.9826 N   0  3  0  0  0  0  0  0  0  0  0  0
  149.2296  141.3485  156.2451 C   0  0  0  0  0  0  0  0  0  0  0  0
  150.7389  141.6202  156.1138 C   0  0  0  0  0  0  0  0  0  0  0  0
  151.3076  141.8187  157.4042 O   0  0  0  0  0  0  0  0  0  0  0  0
  152.3001  142.1958  159.8899 N   0  0  0  0  0  0  0  0  0  0  0  0
  154.0973  142.1132  162.7944 H   0  0  0  0  0  0  0  0  0  0  0  0
  154.7037  141.5461  161.2440 H   0  0  0  0  0  0  0  0  0  0  0  0
  153.3641  140.7120  162.0245 H   0  0  0  0  0  0  0  0  0  0  0  0
  152.6130  144.3291  162.4621 H   0  0  0  0  0  0  0  0  0  0  0  0
  150.8885  143.8350  157.4863 H   0  0  0  0  0  0  0  0  0  0  0  0
  149.0634  141.8232  158.9308 H   0  0  0  0  0  0  0  0  0  0  0  0
  148.7569  143.5448  158.7699 H   0  0  0  0  0  0  0  0  0  0  0  0
  147.6019  142.2234  157.1284 H   0  0  0  0  0  0  0  0  0  0  0  0
  149.0607  140.4106  156.7759 H   0  0  0  0  0  0  0  0  0  0  0  0
  148.7701  141.2494  155.2614 H   0  0  0  0  0  0  0  0  0  0  0  0
  151.2329  140.7738  155.6362 H   0  0  0  0  0  0  0  0  0  0  0  0
  150.9242  142.4932  155.4859 H   0  0  0  0  0  0  0  0  0  0  0  0
  148.6403  143.2908  156.4296 H   0  0  0  0  0  0  0  0  0  0  0  0
  1  2  1  0  0  0  0
  1 13  1  0  0  0  0
  1 14  1  0  0  0  0
  1 15  1  0  0  0  0
  2 12  1  0  0  0  0
  2  3  2  0  0  0  0
  3  4  1  0  0  0  0
  3 16  1  0  0  0  0
  4  5  1  0  0  0  0
  5  6  1  0  0  0  0
  5 12  2  0  0  0  0
  6 11  1  0  0  0  0
  6  7  1  0  0  0  0
  6 17  1  0  0  0  0
  7  8  1  0  0  0  0
  7 18  1  0  0  0  0
  7 19  1  0  0  0  0
  8  9  1  0  0  0  0
  8 20  1  0  0  0  0
  8 25  1  0  0  0  0
  9 10  1  0  0  0  0
  9 21  1  0  0  0  0
  9 22  1  0  0  0  0
 10 11  1  0  0  0  0
 10 23  1  0  0  0  0
 10 24  1  0  0  0  0
M  CHG  1   8   1
M  END
> <s_m_source_file>
AV-unprocessed.smi

> <i_m_source_file_index>
3095

> <i_lp_mmshare_version>
43012

> <i_f3d_flags>
0

> <s_epik_input>
W0NIM11jMVtjSF1zYyhuMSlbQ0BASF0yW0NIMl1bTkhdW0NIMl1bQ0gyXU8y

> <s_epik_cmdline>
J2VwaWtfcHl0aG9uJywgJy1waCcsICc3LjAnLCAnLXRuJywgJzgnLCAnLW1hJywgJzIwMCcsICctbWV0YWxfYmluZGluZycsICctaW1hZScsICc8aW5maWxlLm1hZT4nLCAnLW9tYWUnLCAnPG91dGZpbGUubWFlPic=

> <r_epik_Ionization_Penalty>
0.125709

> <r_epik_Ionization_Penalty_Charging>
0.125708

> <r_epik_Ionization_Penalty_Neutral>
7.00244e-07

> <r_epik_State_Penalty>
0.0155371

> <r_epik_Charging_Adjusted_Penalty>
0.141245

> <i_epik_Tot_Q>
1

> <i_epik_Tot_abs_Q>
1

> <r_epik_Metal_State_Penalty>
0.0155948

> <b_epik_Metal_Only>
0

> <s_lp_Force_Field>
OPLS_2005

> <r_lp_Energy>
6.74862

> <b_lp_Chiralities_Consistent>
1

> <s_lp_Variant>
AV-unprocessed.smi:3095-1

> <Gold.Version>
5.8.1

> <Gold.Id.Protein>
6NUR|6NUR_protein|mol2

> <Gold.PLP.Fitness>
32.1829

> <Gold.PLP.PLP>
-26.5973

> <Gold.PLP.part.hbond>
-1.0000

> <Gold.PLP.part.metal>
0.0000

> <Gold.PLP.part.buried>
-4.6131

> <Gold.PLP.part.nonpolar>
-21.5623

> <Gold.PLP.part.repulsive>
0.0548

> <Gold.PLP.ligand.clash>
0.0000

> <Gold.PLP.ligand.torsion>
0.2122

> <Gold.PLP.Chemscore.Hbond>
2.0000

> <Gold.PLP.Chemscore.CHOScore>
0.0000

> <Gold.PLP.Chemscore.Metal>
0.0000

> <Gold.Chemscore.Hbonds>
donor molecule, donor type, donor heavy atom, donor atom, acceptor molecule, acceptor atom, score
      L1  H     8    25       P1  8028  2.00

> <Gold.PLP.Chemscore.Internal.Correction>
0.0100

> <Gold.Rescore>
     Score         DG    S(hbond)    S(metal)    S(lipo)     H(rot)  DE(clash)    DE(int)     intcor
     15.64     -15.88       1.00        0.00      82.40       1.00       0.07       0.17       ----

> <Gold.Chemscore.Fitness>
15.6399

> <Gold.Chemscore.DG>
-15.8849

> <Gold.Chemscore.ZeroCoef>
-5.4800

> <Gold.Chemscore.Hbond>
0.9954

> <Gold.Chemscore.Metal>
0.0000

> <Gold.Chemscore.Lipo>
82.3954

> <Gold.Chemscore.Internal_Hbond>
0.0000

> <Gold.Chemscore.DEClash>
0.0731

> <Gold.Chemscore.DEInternal>
0.1719

> <Gold.Chemscore.Rot>
1.0000

> <Gold.Chemscore.Internal.Correction>
   9.000000E+99

> <Gold.Chemscore.Hbonds>
donor molecule, donor type, donor heavy atom, donor atom, acceptor molecule, acceptor atom, score
      L1  H     8    25       P1  8028  0.85

> <Gold.Chemscore.Hbond.Weighted>
-3.3246

> <Gold.Chemscore.Metal.Weighted>
-0.0000

> <Gold.Chemscore.Lipo.Weighted>
-9.6403

> <Gold.Chemscore.Internal_Hbond.Weighted>
0.0000

> <Gold.Chemscore.DEClash.Weighted>
0.0731

> <Gold.Chemscore.DEInternal.Weighted>
0.1719

> <Gold.Chemscore.Rot.Weighted>
2.5600

> <Gold.Chemscore.Internal.Correction.Weighted>
   9.000000E+99

> <Gold.Protein.RotatedTorsions>
[ 6907 6896 6895 6894 ] final  115.97 input  -60.11 | X-H torsion
[ 7974 7965 7964 7962 ] final -154.77 input  175.53 | X-H torsion
[ 8008 7997 7996 7995 ] final   45.97 input   59.86 | X-H torsion
[ 10167 10162 10161 10158 ] final -166.36 input  -65.29 | X-H torsion
[ 10718 10713 10712 10709 ] final  -40.40 input   66.30 | X-H torsion
[ 10763 10752 10751 10750 ] final   29.62 input  -60.55 | X-H torsion
[ 11005 11000 10999 10996 ] final   72.44 input  -57.11 | X-H torsion

> <Gold.Protein.ActiveResidues>
 VAL166  LYS551  ARG553  GLY616  TRP617  ASP618  TYR619  PRO620  LYS621  CYS622 
 ASP623  PHE694  ASN695  SER759  ASP760  ASP761  ALA762  ILE779  LEU786  VAL792 
 PHE793  MET794  SER795  GLU796  ALA797  LYS798  CYS799  TRP800  GLU811  SER814 

> <Gold.Protein.RotatedAtoms>
  152.4708  133.8025  159.6960 H   0  0  0  0  0  0  0  0  0  0  0  0  # atno 6907 bound_to 6896
  150.8696  133.7515  159.2972 H   0  0  0  0  0  0  0  0  0  0  0  0  # atno 6908 bound_to 6896
  151.5054  135.1066  159.9892 H   0  0  0  0  0  0  0  0  0  0  0  0  # atno 6909 bound_to 6896
  144.7673  140.4343  143.5933 H   0  0  0  0  0  0  0  0  0  0  0  0  # atno 7974 bound_to 7965
  155.3448  140.3410  155.4239 H   0  0  0  0  0  0  0  0  0  0  0  0  # atno 8008 bound_to 7997
  156.1795  140.1659  156.8337 H   0  0  0  0  0  0  0  0  0  0  0  0  # atno 8009 bound_to 7997
  154.5318  140.0744  156.8340 H   0  0  0  0  0  0  0  0  0  0  0  0  # atno 8010 bound_to 7997
  139.6120  144.0796  152.1851 H   0  0  0  0  0  0  0  0  0  0  0  0  # atno 10167 bound_to 10162
  156.2817  130.4218  149.8330 H   0  0  0  0  0  0  0  0  0  0  0  0  # atno 10718 bound_to 10713
  153.0419  135.6484  154.0919 H   0  0  0  0  0  0  0  0  0  0  0  0  # atno 10763 bound_to 10752
  154.0624  135.2887  155.3324 H   0  0  0  0  0  0  0  0  0  0  0  0  # atno 10764 bound_to 10752
  154.6649  135.5378  153.8129 H   0  0  0  0  0  0  0  0  0  0  0  0  # atno 10765 bound_to 10752
  139.9491  134.7260  156.0907 H   0  0  0  0  0  0  0  0  0  0  0  0  # atno 11005 bound_to 11000
  145.6431  139.1553  143.2904 LP  0  0  0  0  0  0  0  0  0  0  0  0  # atno 17320 bound_to 7965
  146.1791  140.6526  142.9197 LP  0  0  0  0  0  0  0  0  0  0  0  0  # atno 17321 bound_to 7965
  140.0417  144.6002  150.7406 LP  0  0  0  0  0  0  0  0  0  0  0  0  # atno 17342 bound_to 10162
  140.7325  143.2707  151.3899 LP  0  0  0  0  0  0  0  0  0  0  0  0  # atno 17343 bound_to 10162
  156.5775  130.8451  151.3373 LP  0  0  0  0  0  0  0  0  0  0  0  0  # atno 17370 bound_to 10713
  157.7316  130.9703  150.1889 LP  0  0  0  0  0  0  0  0  0  0  0  0  # atno 17371 bound_to 10713
  141.1149  133.6631  156.3069 LP  0  0  0  0  0  0  0  0  0  0  0  0  # atno 17394 bound_to 11000
  140.5763  134.5790  157.5469 LP  0  0  0  0  0  0  0  0  0  0  0  0  # atno 17395 bound_to 11000

$$$$
