AV-unprocessed.smi:2184|AV-procd|sdf|8871|dock5
  -GOLD-   2272012 73D 1   1.00000     0.00000
 Structure written by MMmdl.
 47 48  0  0  0  0  0  0  0  0  1 V2000
  148.0815  132.4897  154.4480 C   0  0  0  0  0  0  0  0  0  0  0  0
  149.3157  133.6931  153.8835 S   0  0  0  0  0  0  0  0  0  0  0  0
  149.3324  134.8577  155.2795 C   0  0  2  0  0  0  0  0  0  0  0  0
  147.9635  135.5424  155.4171 C   0  0  0  0  0  0  0  0  0  0  0  0
  150.4606  135.8893  155.1530 C   0  0  0  0  0  0  0  0  0  0  0  0
  151.3718  135.9240  155.9805 O   0  0  0  0  0  0  0  0  0  0  0  0
  150.3823  136.7329  154.1137 N   0  0  0  0  0  0  0  0  0  0  0  0
  151.3479  137.7866  153.8275 C   0  0  0  0  0  0  0  0  0  0  0  0
  151.4736  138.8312  154.9271 C   0  0  0  0  0  0  0  0  0  0  0  0
  150.5446  139.8817  155.0910 C   0  0  0  0  0  0  0  0  0  0  0  0
  150.7393  140.8109  156.1303 C   0  0  0  0  0  0  0  0  0  0  0  0
  151.8606  140.6708  156.9813 C   0  0  0  0  0  0  0  0  0  0  0  0
  152.0707  141.5917  158.0293 N   0  0  0  0  0  0  0  0  0  0  0  0
  152.4922  141.0760  159.3284 C   0  0  0  0  0  0  0  0  0  0  0  0
  153.0136  142.2223  160.2131 C   0  0  2  0  0  0  0  0  0  0  0  0
  153.3458  141.7447  161.6306 C   0  0  0  0  0  0  0  0  0  0  0  0
  152.0189  143.2414  160.3108 O   0  0  0  0  0  0  0  0  0  0  0  0
  151.5972  143.7897  159.0597 C   0  0  1  0  0  0  0  0  0  0  0  0
  152.6802  144.6747  158.4171 C   0  0  0  0  0  0  0  0  0  0  0  0
  151.0912  142.6697  158.1297 C   0  0  0  0  0  0  0  0  0  0  0  0
  152.7580  139.6689  156.8138 N   0  0  0  0  0  0  0  0  0  0  0  0
  152.5657  138.7799  155.8167 C   0  0  0  0  0  0  0  0  0  0  0  0
  147.9087  131.7423  153.6738 H   0  0  0  0  0  0  0  0  0  0  0  0
  147.1355  132.9854  154.6659 H   0  0  0  0  0  0  0  0  0  0  0  0
  148.4229  131.9768  155.3470 H   0  0  0  0  0  0  0  0  0  0  0  0
  149.4968  134.2720  156.1855 H   0  0  0  0  0  0  0  0  0  0  0  0
  147.9565  136.2560  156.2421 H   0  0  0  0  0  0  0  0  0  0  0  0
  147.1814  134.8088  155.6139 H   0  0  0  0  0  0  0  0  0  0  0  0
  147.6888  136.0792  154.5081 H   0  0  0  0  0  0  0  0  0  0  0  0
  149.5989  136.6433  153.4835 H   0  0  0  0  0  0  0  0  0  0  0  0
  152.3252  137.3314  153.6597 H   0  0  0  0  0  0  0  0  0  0  0  0
  151.0682  138.2950  152.9034 H   0  0  0  0  0  0  0  0  0  0  0  0
  149.6940  139.9901  154.4345 H   0  0  0  0  0  0  0  0  0  0  0  0
  150.0403  141.6246  156.2532 H   0  0  0  0  0  0  0  0  0  0  0  0
  151.6469  140.5813  159.8090 H   0  0  0  0  0  0  0  0  0  0  0  0
  153.2785  140.3308  159.2024 H   0  0  0  0  0  0  0  0  0  0  0  0
  153.9224  142.6362  159.7759 H   0  0  0  0  0  0  0  0  0  0  0  0
  154.1089  140.9661  161.6137 H   0  0  0  0  0  0  0  0  0  0  0  0
  152.4641  141.3391  162.1274 H   0  0  0  0  0  0  0  0  0  0  0  0
  153.7236  142.5661  162.2397 H   0  0  0  0  0  0  0  0  0  0  0  0
  150.7518  144.4407  159.2838 H   0  0  0  0  0  0  0  0  0  0  0  0
  152.2878  145.1865  157.5380 H   0  0  0  0  0  0  0  0  0  0  0  0
  153.5473  144.0992  158.0939 H   0  0  0  0  0  0  0  0  0  0  0  0
  153.0244  145.4373  159.1160 H   0  0  0  0  0  0  0  0  0  0  0  0
  150.8428  143.0904  157.1561 H   0  0  0  0  0  0  0  0  0  0  0  0
  150.1676  142.2512  158.5320 H   0  0  0  0  0  0  0  0  0  0  0  0
  153.3095  138.0020  155.7269 H   0  0  0  0  0  0  0  0  0  0  0  0
  1  2  1  0  0  0  0
  1 23  1  0  0  0  0
  1 24  1  0  0  0  0
  1 25  1  0  0  0  0
  2  3  1  0  0  0  0
  3  4  1  0  0  0  0
  3  5  1  0  0  0  0
  3 26  1  0  0  0  0
  4 27  1  0  0  0  0
  4 28  1  0  0  0  0
  4 29  1  0  0  0  0
  5  6  2  0  0  0  0
  5  7  1  0  0  0  0
  7  8  1  0  0  0  0
  7 30  1  0  0  0  0
  8  9  1  0  0  0  0
  8 31  1  0  0  0  0
  8 32  1  0  0  0  0
  9 22  1  0  0  0  0
  9 10  2  0  0  0  0
 10 11  1  0  0  0  0
 10 33  1  0  0  0  0
 11 12  2  0  0  0  0
 11 34  1  0  0  0  0
 12 13  1  0  0  0  0
 12 21  1  0  0  0  0
 13 20  1  0  0  0  0
 13 14  1  0  0  0  0
 14 15  1  0  0  0  0
 14 35  1  0  0  0  0
 14 36  1  0  0  0  0
 15 16  1  0  0  0  0
 15 17  1  0  0  0  0
 15 37  1  0  0  0  0
 16 38  1  0  0  0  0
 16 39  1  0  0  0  0
 16 40  1  0  0  0  0
 17 18  1  0  0  0  0
 18 19  1  0  0  0  0
 18 20  1  0  0  0  0
 18 41  1  0  0  0  0
 19 42  1  0  0  0  0
 19 43  1  0  0  0  0
 19 44  1  0  0  0  0
 20 45  1  0  0  0  0
 20 46  1  0  0  0  0
 21 22  2  0  0  0  0
 22 47  1  0  0  0  0
M  END
> <s_m_source_file>
AV-unprocessed.smi

> <i_m_source_file_index>
2184

> <i_lp_mmshare_version>
43012

> <i_f3d_flags>
0

> <s_epik_input>
W0NIM11TW0NASF0oW0NIM10pQyg9TylbTkhdW0NIMl1jMVtjSF1bY0hdYyhuW2NIXTEpTjJbQ0gyXVtDQEBIXShbQ0gzXSlPW0NAQEhdKFtDSDNdKVtDSDJdMg==

> <s_epik_cmdline>
J2VwaWtfcHl0aG9uJywgJy1waCcsICc3LjAnLCAnLXRuJywgJzgnLCAnLW1hJywgJzIwMCcsICctbWV0YWxfYmluZGluZycsICctaW1hZScsICc8aW5maWxlLm1hZT4nLCAnLW9tYWUnLCAnPG91dGZpbGUubWFlPic=

> <r_lp_tautomer_probability>
1

> <r_epik_Ionization_Penalty>
0.00551702

> <r_epik_Ionization_Penalty_Charging>
0

> <r_epik_Ionization_Penalty_Neutral>
0.00551702

> <r_epik_State_Penalty>
0.00403758

> <r_epik_Charging_Adjusted_Penalty>
0.00403758

> <i_epik_Tot_Q>
0

> <i_epik_Tot_abs_Q>
0

> <r_epik_Metal_State_Penalty>
-0

> <b_epik_Metal_Only>
0

> <s_lp_Force_Field>
OPLS_2005

> <r_lp_Energy>
19.5459

> <b_lp_Chiralities_Consistent>
1

> <s_lp_Variant>
AV-unprocessed.smi:2184-3

> <Gold.Version>
5.8.1

> <Gold.Id.Protein>
6NUR|6NUR_protein|mol2

> <Gold.PLP.Fitness>
53.7117

> <Gold.PLP.PLP>
-45.5138

> <Gold.PLP.part.hbond>
-4.0000

> <Gold.PLP.part.metal>
0.0000

> <Gold.PLP.part.buried>
-0.9322

> <Gold.PLP.part.nonpolar>
-39.6470

> <Gold.PLP.part.repulsive>
0.1407

> <Gold.PLP.ligand.clash>
0.0000

> <Gold.PLP.ligand.torsion>
0.5336

> <Gold.PLP.Chemscore.Hbond>
2.9600

> <Gold.PLP.Chemscore.CHOScore>
0.0000

> <Gold.PLP.Chemscore.Metal>
0.0000

> <Gold.Chemscore.Hbonds>
donor molecule, donor type, donor heavy atom, donor atom, acceptor molecule, acceptor atom, score
      L1  H     7    30       P1  7948  0.96
      P1  H  7997  8009       L1    21  0.95
      P1  H 10752 10764       L1     6  0.99

> <Gold.PLP.Chemscore.Internal.Correction>
0.3852

> <Gold.Rescore>
     Score         DG    S(hbond)    S(metal)    S(lipo)     H(rot)  DE(clash)    DE(int)     intcor
     21.38     -22.68       2.17        0.00     119.89       1.59       0.38       0.92       ----

> <Gold.Chemscore.Fitness>
21.3796

> <Gold.Chemscore.DG>
-22.6770

> <Gold.Chemscore.ZeroCoef>
-5.4800

> <Gold.Chemscore.Hbond>
2.1715

> <Gold.Chemscore.Metal>
0.0000

> <Gold.Chemscore.Lipo>
119.8855

> <Gold.Chemscore.Internal_Hbond>
0.0000

> <Gold.Chemscore.DEClash>
0.3762

> <Gold.Chemscore.DEInternal>
0.9212

> <Gold.Chemscore.Rot>
1.5947

> <Gold.Chemscore.Internal.Correction>
   9.000000E+99

> <Gold.Chemscore.Hbonds>
donor molecule, donor type, donor heavy atom, donor atom, acceptor molecule, acceptor atom, score
      L1  H     7    30       P1  7948  0.60
      P1  H  7997  8009       L1    21  0.20
      P1  H 10752 10764       L1     6  0.56

> <Gold.Chemscore.Hbond.Weighted>
-7.2528

> <Gold.Chemscore.Metal.Weighted>
-0.0000

> <Gold.Chemscore.Lipo.Weighted>
-14.0266

> <Gold.Chemscore.Internal_Hbond.Weighted>
0.0000

> <Gold.Chemscore.DEClash.Weighted>
0.3762

> <Gold.Chemscore.DEInternal.Weighted>
0.9212

> <Gold.Chemscore.Rot.Weighted>
4.0824

> <Gold.Chemscore.Internal.Correction.Weighted>
   9.000000E+99

> <Gold.Protein.RotatedTorsions>
[ 6907 6896 6895 6894 ] final -124.17 input  -60.11 | X-H torsion
[ 7974 7965 7964 7962 ] final  168.52 input  175.53 | X-H torsion
[ 8008 7997 7996 7995 ] final -169.95 input   59.86 | X-H torsion
[ 10167 10162 10161 10158 ] final  -60.35 input  -65.29 | X-H torsion
[ 10718 10713 10712 10709 ] final  -60.79 input   66.30 | X-H torsion
[ 10763 10752 10751 10750 ] final  -33.67 input  -60.55 | X-H torsion
[ 11005 11000 10999 10996 ] final  -53.70 input  -57.11 | X-H torsion

> <Gold.Protein.ActiveResidues>
 VAL166  LYS551  ARG553  GLY616  TRP617  ASP618  TYR619  PRO620  LYS621  CYS622 
 ASP623  PHE694  ASN695  SER759  ASP760  ASP761  ALA762  ILE779  LEU786  VAL792 
 PHE793  MET794  SER795  GLU796  ALA797  LYS798  CYS799  TRP800  GLU811  SER814 

> <Gold.Protein.RotatedAtoms>
  150.8741  133.7463  159.2951 H   0  0  0  0  0  0  0  0  0  0  0  0  # atno 6907 bound_to 6896
  151.5065  135.1062  159.9852 H   0  0  0  0  0  0  0  0  0  0  0  0  # atno 6908 bound_to 6896
  152.4716  133.7997  159.7002 H   0  0  0  0  0  0  0  0  0  0  0  0  # atno 6909 bound_to 6896
  144.7386  139.8919  143.6403 H   0  0  0  0  0  0  0  0  0  0  0  0  # atno 7974 bound_to 7965
  155.9118  140.1058  157.1274 H   0  0  0  0  0  0  0  0  0  0  0  0  # atno 8008 bound_to 7997
  154.4040  140.1273  156.4631 H   0  0  0  0  0  0  0  0  0  0  0  0  # atno 8009 bound_to 7997
  155.7301  140.3468  155.5058 H   0  0  0  0  0  0  0  0  0  0  0  0  # atno 8010 bound_to 7997
  140.6077  143.2378  151.5783 H   0  0  0  0  0  0  0  0  0  0  0  0  # atno 10167 bound_to 10162
  156.0966  130.4192  150.0903 H   0  0  0  0  0  0  0  0  0  0  0  0  # atno 10718 bound_to 10713
  153.8340  135.6863  153.4811 H   0  0  0  0  0  0  0  0  0  0  0  0  # atno 10763 bound_to 10752
  153.1494  135.4624  154.9612 H   0  0  0  0  0  0  0  0  0  0  0  0  # atno 10764 bound_to 10752
  154.7874  135.3289  154.7800 H   0  0  0  0  0  0  0  0  0  0  0  0  # atno 10765 bound_to 10752
  141.0989  133.6620  156.4211 H   0  0  0  0  0  0  0  0  0  0  0  0  # atno 11005 bound_to 11000
  146.1136  139.4143  143.0272 LP  0  0  0  0  0  0  0  0  0  0  0  0  # atno 17320 bound_to 7965
  145.7408  141.0009  143.1302 LP  0  0  0  0  0  0  0  0  0  0  0  0  # atno 17321 bound_to 7965
  139.5337  144.2842  152.1205 LP  0  0  0  0  0  0  0  0  0  0  0  0  # atno 17342 bound_to 10162
  140.2034  144.4635  150.6420 LP  0  0  0  0  0  0  0  0  0  0  0  0  # atno 17343 bound_to 10162
  156.8900  130.9585  151.3589 LP  0  0  0  0  0  0  0  0  0  0  0  0  # atno 17370 bound_to 10713
  157.6128  130.8596  149.8980 LP  0  0  0  0  0  0  0  0  0  0  0  0  # atno 17371 bound_to 10713
  140.5071  134.6430  157.5270 LP  0  0  0  0  0  0  0  0  0  0  0  0  # atno 17394 bound_to 11000
  139.9834  134.7101  155.9818 LP  0  0  0  0  0  0  0  0  0  0  0  0  # atno 17395 bound_to 11000

$$$$
