AV-unprocessed.smi:265|AV-procd|sdf|2018|dock3
  -GOLD-   2262021223D 1   1.00000     0.00000
 Structure written by MMmdl.
 52 56  0  0  0  0  0  0  0  0  1 V2000
  143.7756  132.7202  148.3907 C   0  0  0  0  0  0  0  0  0  0  0  0
  144.0434  132.3234  149.8510 C   0  0  1  0  0  0  0  0  0  0  0  0
  145.2065  131.4988  149.8645 O   0  0  0  0  0  0  0  0  0  0  0  0
  145.9079  131.7057  151.0779 C   0  0  0  0  0  0  0  0  0  0  0  0
  145.7691  133.2056  151.2854 C   0  0  0  0  0  0  0  0  0  0  0  0
  144.3332  133.4807  150.8483 C   0  0  2  0  0  0  0  0  0  0  0  0
  143.4918  133.2958  151.9751 O   0  0  0  0  0  0  0  0  0  0  0  0
  144.1097  134.9209  150.3171 C   0  0  0  0  0  0  0  0  0  0  0  0
  144.9348  135.9181  150.9822 N   0  0  0  0  0  0  0  0  0  0  0  0
  145.9128  136.6938  150.4021 C   0  0  0  0  0  0  0  0  0  0  0  0
  146.5187  137.5211  151.2089 N   0  0  0  0  0  0  0  0  0  0  0  0
  145.9200  137.2925  152.4422 C   0  0  0  0  0  0  0  0  0  0  0  0
  146.0918  137.8428  153.7439 C   0  0  0  0  0  0  0  0  0  0  0  0
  147.0183  138.7950  154.0197 N   0  0  0  0  0  0  0  0  0  0  0  0
  146.5369  140.1142  154.4447 C   0  0  0  0  0  0  0  0  0  0  0  0
  147.6593  141.1675  154.3778 C   0  0  0  0  0  0  0  0  0  0  0  0
  148.8805  140.6809  155.1690 C   0  0  2  0  0  0  0  0  0  0  0  0
  149.9809  141.5705  155.0545 O   0  0  0  0  0  0  0  0  0  0  0  0
  151.0799  141.2263  155.9056 C   0  0  0  0  0  0  0  0  0  0  0  0
  151.4436  139.7275  155.8374 C   0  0  0  0  0  0  0  0  0  0  0  0
  152.5050  139.3328  156.3144 O   0  0  0  0  0  0  0  0  0  0  0  0
  150.5551  138.8837  155.2878 N   0  0  0  0  0  0  0  0  0  0  0  0
  149.3475  139.3294  154.6063 C   0  0  1  0  0  0  0  0  0  0  0  0
  148.2123  138.3000  154.7083 C   0  0  0  0  0  0  0  0  0  0  0  0
  145.2854  137.3731  154.7333 N   0  0  0  0  0  0  0  0  0  0  0  0
  144.3841  136.4211  154.4742 C   0  0  0  0  0  0  0  0  0  0  0  0
  144.1239  135.8117  153.3162 N   0  0  0  0  0  0  0  0  0  0  0  0
  144.9192  136.2881  152.3160 C   0  0  0  0  0  0  0  0  0  0  0  0
  148.6011  140.5848  156.2208 H   0  0  0  0  0  0  0  0  0  0  0  0
  149.6092  139.4525  153.5536 H   0  0  0  0  0  0  0  0  0  0  0  0
  142.8851  133.3427  148.3029 H   0  0  0  0  0  0  0  0  0  0  0  0
  143.6139  131.8344  147.7763 H   0  0  0  0  0  0  0  0  0  0  0  0
  144.6177  133.2648  147.9629 H   0  0  0  0  0  0  0  0  0  0  0  0
  143.2044  131.7192  150.2015 H   0  0  0  0  0  0  0  0  0  0  0  0
  145.4279  131.1487  151.8838 H   0  0  0  0  0  0  0  0  0  0  0  0
  146.9467  131.3837  151.0028 H   0  0  0  0  0  0  0  0  0  0  0  0
  145.9914  133.5232  152.3051 H   0  0  0  0  0  0  0  0  0  0  0  0
  146.4673  133.7131  150.6191 H   0  0  0  0  0  0  0  0  0  0  0  0
  142.7892  133.9261  151.9295 H   0  0  0  0  0  0  0  0  0  0  0  0
  144.3221  134.9739  149.2491 H   0  0  0  0  0  0  0  0  0  0  0  0
  143.0656  135.2119  150.4399 H   0  0  0  0  0  0  0  0  0  0  0  0
  146.1593  136.6302  149.3522 H   0  0  0  0  0  0  0  0  0  0  0  0
  145.7059  140.4301  153.8124 H   0  0  0  0  0  0  0  0  0  0  0  0
  146.1570  140.0448  155.4651 H   0  0  0  0  0  0  0  0  0  0  0  0
  147.9368  141.3440  153.3378 H   0  0  0  0  0  0  0  0  0  0  0  0
  147.3061  142.1197  154.7740 H   0  0  0  0  0  0  0  0  0  0  0  0
  151.9457  141.8293  155.6305 H   0  0  0  0  0  0  0  0  0  0  0  0
  150.8274  141.4766  156.9366 H   0  0  0  0  0  0  0  0  0  0  0  0
  150.7689  137.8969  155.2695 H   0  0  0  0  0  0  0  0  0  0  0  0
  147.9636  138.1155  155.7545 H   0  0  0  0  0  0  0  0  0  0  0  0
  148.5472  137.3499  154.2936 H   0  0  0  0  0  0  0  0  0  0  0  0
  143.7879  136.1008  155.3158 H   0  0  0  0  0  0  0  0  0  0  0  0
  1  2  1  0  0  0  0
  1 31  1  0  0  0  0
  1 32  1  0  0  0  0
  1 33  1  0  0  0  0
  2  6  1  0  0  0  0
  2  3  1  0  0  0  0
  2 34  1  0  0  0  0
  3  4  1  0  0  0  0
  4  5  1  0  0  0  0
  4 35  1  0  0  0  0
  4 36  1  0  0  0  0
  5  6  1  0  0  0  0
  5 37  1  0  0  0  0
  5 38  1  0  0  0  0
  6  7  1  0  0  0  0
  6  8  1  0  0  0  0
  7 39  1  0  0  0  0
  8  9  1  0  0  0  0
  8 40  1  0  0  0  0
  8 41  1  0  0  0  0
  9 28  1  0  0  0  0
  9 10  1  0  0  0  0
 10 11  2  0  0  0  0
 10 42  1  0  0  0  0
 11 12  1  0  0  0  0
 12 28  2  0  0  0  0
 12 13  1  0  0  0  0
 13 14  1  0  0  0  0
 13 25  2  0  0  0  0
 14 24  1  0  0  0  0
 14 15  1  0  0  0  0
 15 16  1  0  0  0  0
 15 43  1  0  0  0  0
 15 44  1  0  0  0  0
 16 17  1  0  0  0  0
 16 45  1  0  0  0  0
 16 46  1  0  0  0  0
 17 29  1  0  0  0  0
 17 23  1  0  0  0  0
 17 18  1  0  0  0  0
 18 19  1  0  0  0  0
 19 20  1  0  0  0  0
 19 47  1  0  0  0  0
 19 48  1  0  0  0  0
 20 21  2  0  0  0  0
 20 22  1  0  0  0  0
 22 23  1  0  0  0  0
 22 49  1  0  0  0  0
 23 30  1  0  0  0  0
 23 24  1  0  0  0  0
 24 50  1  0  0  0  0
 24 51  1  0  0  0  0
 25 26  1  0  0  0  0
 26 27  2  0  0  0  0
 26 52  1  0  0  0  0
 27 28  1  0  0  0  0
M  END
> <s_m_source_file>
AV-unprocessed.smi

> <i_m_source_file_index>
265

> <i_lp_mmshare_version>
43012

> <i_f3d_flags>
0

> <s_epik_input>
W0NIMl0xW0NIMl1PW0NAQEhdKFtDSDNdKVtDQEBdMShbT0hdKVtDSDJdbihbY0hdbjIpYyhjMjMpbltjSF1uYzNOKFtDSDJdW0NIMl00KVtDSDJdW0NAQEhdKFtDQEhdNDUpW05IXUMoPU8pW0NIMl1PNQ==

> <s_epik_cmdline>
J2VwaWtfcHl0aG9uJywgJy1waCcsICc3LjAnLCAnLXRuJywgJzgnLCAnLW1hJywgJzIwMCcsICctbWV0YWxfYmluZGluZycsICctaW1hZScsICc8aW5maWxlLm1hZT4nLCAnLW9tYWUnLCAnPG91dGZpbGUubWFlPic=

> <r_lp_tautomer_probability>
1

> <r_epik_Ionization_Penalty>
0.00221504

> <r_epik_Ionization_Penalty_Charging>
0

> <r_epik_Ionization_Penalty_Neutral>
0.00221504

> <r_epik_State_Penalty>
-0

> <r_epik_Charging_Adjusted_Penalty>
0

> <i_epik_Tot_Q>
0

> <i_epik_Tot_abs_Q>
0

> <r_epik_Metal_State_Penalty>
-0

> <b_epik_Metal_Only>
0

> <s_lp_Force_Field>
OPLS_2005

> <r_lp_Energy>
44.0648

> <b_lp_Chiralities_Consistent>
1

> <s_lp_Variant>
AV-unprocessed.smi:265-4

> <Gold.Version>
5.8.1

> <Gold.Id.Protein>
6NUR|6NUR_protein|mol2

> <Gold.PLP.Fitness>
44.9508

> <Gold.PLP.PLP>
-38.3472

> <Gold.PLP.part.hbond>
-3.5093

> <Gold.PLP.part.metal>
0.0000

> <Gold.PLP.part.buried>
-2.2244

> <Gold.PLP.part.nonpolar>
-36.4681

> <Gold.PLP.part.repulsive>
2.9885

> <Gold.PLP.ligand.clash>
0.0000

> <Gold.PLP.ligand.torsion>
0.7159

> <Gold.PLP.Chemscore.Hbond>
1.5362

> <Gold.PLP.Chemscore.CHOScore>
1.0000

> <Gold.PLP.Chemscore.Metal>
0.0000

> <Gold.Chemscore.Hbonds>
donor molecule, donor type, donor heavy atom, donor atom, acceptor molecule, acceptor atom, score
      P1  H  7954  7966       L1    11  0.52
      P1  H  7997  8010       L1    21  1.00
      L1  C    10    42       P1  7921  1.00

> <Gold.PLP.Chemscore.Internal.Correction>
0.4266

> <Gold.Rescore>
     Score         DG    S(hbond)    S(metal)    S(lipo)     H(rot)  DE(clash)    DE(int)     intcor
      9.95     -13.70       1.00        0.00      90.70       2.25       2.85       0.89       ----

> <Gold.Chemscore.Fitness>
9.9540

> <Gold.Chemscore.DG>
-13.6982

> <Gold.Chemscore.ZeroCoef>
-5.4800

> <Gold.Chemscore.Hbond>
1.0044

> <Gold.Chemscore.Metal>
0.0000

> <Gold.Chemscore.Lipo>
90.6959

> <Gold.Chemscore.Internal_Hbond>
0.0000

> <Gold.Chemscore.DEClash>
2.8501

> <Gold.Chemscore.DEInternal>
0.8941

> <Gold.Chemscore.Rot>
2.2453

> <Gold.Chemscore.Internal.Correction>
   9.000000E+99

> <Gold.Chemscore.Hbonds>
donor molecule, donor type, donor heavy atom, donor atom, acceptor molecule, acceptor atom, score
      P1  H  7954  7966       L1    11  0.05
      P1  H  7997  8010       L1    21  0.96

> <Gold.Chemscore.Hbond.Weighted>
-3.3547

> <Gold.Chemscore.Metal.Weighted>
-0.0000

> <Gold.Chemscore.Lipo.Weighted>
-10.6114

> <Gold.Chemscore.Internal_Hbond.Weighted>
0.0000

> <Gold.Chemscore.DEClash.Weighted>
2.8501

> <Gold.Chemscore.DEInternal.Weighted>
0.8941

> <Gold.Chemscore.Rot.Weighted>
5.7479

> <Gold.Chemscore.Internal.Correction.Weighted>
   9.000000E+99

> <Gold.Protein.RotatedTorsions>
[ 6907 6896 6895 6894 ] final   69.62 input  -60.11 | X-H torsion
[ 7974 7965 7964 7962 ] final   40.95 input  175.53 | X-H torsion
[ 8008 7997 7996 7995 ] final   68.13 input   59.86 | X-H torsion
[ 10167 10162 10161 10158 ] final -128.00 input  -65.29 | X-H torsion
[ 10718 10713 10712 10709 ] final  129.79 input   66.30 | X-H torsion
[ 10763 10752 10751 10750 ] final  -99.87 input  -60.55 | X-H torsion
[ 11005 11000 10999 10996 ] final  -79.10 input  -57.11 | X-H torsion

> <Gold.Protein.ActiveResidues>
 VAL166  LYS551  ARG553  GLY616  TRP617  ASP618  TYR619  PRO620  LYS621  CYS622 
 ASP623  PHE694  ASN695  SER759  ASP760  ASP761  ALA762  ILE779  LEU786  VAL792 
 PHE793  MET794  SER795  GLU796  ALA797  LYS798  CYS799  TRP800  GLU811  SER814 

> <Gold.Protein.RotatedAtoms>
  152.4698  134.4988  159.9718 H   0  0  0  0  0  0  0  0  0  0  0  0  # atno 6907 bound_to 6896
  151.5018  133.3497  159.2878 H   0  0  0  0  0  0  0  0  0  0  0  0  # atno 6908 bound_to 6896
  150.8701  134.8101  159.7210 H   0  0  0  0  0  0  0  0  0  0  0  0  # atno 6909 bound_to 6896
  146.0863  139.5472  142.9504 H   0  0  0  0  0  0  0  0  0  0  0  0  # atno 7974 bound_to 7965
  155.7035  140.3495  155.4943 H   0  0  0  0  0  0  0  0  0  0  0  0  # atno 8008 bound_to 7997
  155.9419  140.1103  157.1070 H   0  0  0  0  0  0  0  0  0  0  0  0  # atno 8009 bound_to 7997
  154.4104  140.1211  156.4925 H   0  0  0  0  0  0  0  0  0  0  0  0  # atno 8010 bound_to 7997
  139.9549  143.6014  152.2464 H   0  0  0  0  0  0  0  0  0  0  0  0  # atno 10167 bound_to 10162
  157.5121  131.1097  150.9277 H   0  0  0  0  0  0  0  0  0  0  0  0  # atno 10718 bound_to 10713
  154.7533  135.4956  153.9329 H   0  0  0  0  0  0  0  0  0  0  0  0  # atno 10763 bound_to 10752
  153.1168  135.6722  153.9412 H   0  0  0  0  0  0  0  0  0  0  0  0  # atno 10764 bound_to 10752
  153.9156  135.3094  155.3427 H   0  0  0  0  0  0  0  0  0  0  0  0  # atno 10765 bound_to 10752
  141.1666  133.7091  156.8071 H   0  0  0  0  0  0  0  0  0  0  0  0  # atno 11005 bound_to 11000
  145.6123  141.0337  143.1959 LP  0  0  0  0  0  0  0  0  0  0  0  0  # atno 17320 bound_to 7965
  144.7328  139.7674  143.7341 LP  0  0  0  0  0  0  0  0  0  0  0  0  # atno 17321 bound_to 7965
  139.6599  144.7662  151.1983 LP  0  0  0  0  0  0  0  0  0  0  0  0  # atno 17342 bound_to 10162
  140.7571  143.6026  150.8684 LP  0  0  0  0  0  0  0  0  0  0  0  0  # atno 17343 bound_to 10162
  156.9914  130.5565  149.5303 LP  0  0  0  0  0  0  0  0  0  0  0  0  # atno 17370 bound_to 10713
  156.0296  130.5388  150.8499 LP  0  0  0  0  0  0  0  0  0  0  0  0  # atno 17371 bound_to 10713
  140.2214  134.8754  157.3381 LP  0  0  0  0  0  0  0  0  0  0  0  0  # atno 17394 bound_to 11000
  140.1984  134.4285  155.7676 LP  0  0  0  0  0  0  0  0  0  0  0  0  # atno 17395 bound_to 11000

$$$$
