AV-unprocessed.smi:2510|AV-procd|sdf|9877|dock9
  -GOLD-   2272013513D 1   1.00000     0.00000
 Structure written by MMmdl.
 48 49  0  0  0  0  0  0  0  0  1 V2000
  147.6947  136.6739  162.7012 C   0  0  0  0  0  0  0  0  0  0  0  0
  147.3259  135.2066  162.9775 C   0  0  0  0  0  0  0  0  0  0  0  0
  146.8171  134.4118  161.7503 C   0  0  0  0  0  0  0  0  0  0  0  0
  145.5496  135.1180  161.1986 C   0  0  0  0  0  0  0  0  0  0  0  0
  144.3955  135.2705  162.2020 C   0  0  0  0  0  0  0  0  0  0  0  0
  147.9448  134.0295  160.7428 C   0  0  2  0  0  0  0  0  0  0  0  0
  147.4772  133.8656  159.3675 N   0  0  0  0  0  0  0  0  0  0  0  0
  148.2271  133.4313  158.3438 C   0  0  0  0  0  0  0  0  0  0  0  0
  149.3789  133.0173  158.4730 O   0  0  0  0  0  0  0  0  0  0  0  0
  147.5854  133.5068  156.9575 C   0  0  0  0  0  0  0  0  0  0  0  0
  148.4055  134.4042  156.0678 C   0  0  0  0  0  0  0  0  0  0  0  0
  149.6365  135.0561  156.3753 C   0  0  0  0  0  0  0  0  0  0  0  0
  149.9252  135.7802  155.2534 C   0  0  0  0  0  0  0  0  0  0  0  0
  151.0602  136.6938  154.9368 C   0  0  0  0  0  0  0  0  0  0  0  0
  148.9069  135.5315  154.3624 N   0  0  0  0  0  0  0  0  0  0  0  0
  147.9757  134.6889  154.8456 N   0  0  0  0  0  0  0  0  0  0  0  0
  148.0980  132.6757  161.4578 C   0  0  2  0  0  0  0  0  0  0  0  0
  148.4686  131.4097  160.6878 C   0  0  0  0  0  0  0  0  0  0  0  0
  146.6769  132.8870  162.0114 C   0  0  2  0  0  0  0  0  0  0  0  0
  145.6783  132.2961  161.1861 O   0  0  0  0  0  0  0  0  0  0  0  0
  145.5731  130.8931  161.3529 C   0  0  0  0  0  0  0  0  0  0  0  0
  148.8353  135.9248  153.4348 H   0  0  0  0  0  0  0  0  0  0  0  0
  148.1609  137.1206  163.5795 H   0  0  0  0  0  0  0  0  0  0  0  0
  146.8181  137.2761  162.4650 H   0  0  0  0  0  0  0  0  0  0  0  0
  148.3990  136.7646  161.8747 H   0  0  0  0  0  0  0  0  0  0  0  0
  148.2151  134.7256  163.3842 H   0  0  0  0  0  0  0  0  0  0  0  0
  146.6052  135.1646  163.7933 H   0  0  0  0  0  0  0  0  0  0  0  0
  145.7976  136.0916  160.7770 H   0  0  0  0  0  0  0  0  0  0  0  0
  145.1430  134.5586  160.3572 H   0  0  0  0  0  0  0  0  0  0  0  0
  143.5031  135.6448  161.6998 H   0  0  0  0  0  0  0  0  0  0  0  0
  144.6356  135.9761  162.9966 H   0  0  0  0  0  0  0  0  0  0  0  0
  144.1380  134.3155  162.6602 H   0  0  0  0  0  0  0  0  0  0  0  0
  148.8455  134.6393  160.8267 H   0  0  0  0  0  0  0  0  0  0  0  0
  146.5428  134.1911  159.1640 H   0  0  0  0  0  0  0  0  0  0  0  0
  147.5205  132.5059  156.5296 H   0  0  0  0  0  0  0  0  0  0  0  0
  146.5623  133.8736  157.0538 H   0  0  0  0  0  0  0  0  0  0  0  0
  150.2089  135.0125  157.2900 H   0  0  0  0  0  0  0  0  0  0  0  0
  151.9634  136.3875  155.4647 H   0  0  0  0  0  0  0  0  0  0  0  0
  150.8253  137.7159  155.2350 H   0  0  0  0  0  0  0  0  0  0  0  0
  151.2790  136.6938  153.8686 H   0  0  0  0  0  0  0  0  0  0  0  0
  148.8043  132.8090  162.2785 H   0  0  0  0  0  0  0  0  0  0  0  0
  147.7499  131.1824  159.9004 H   0  0  0  0  0  0  0  0  0  0  0  0
  148.5105  130.5457  161.3507 H   0  0  0  0  0  0  0  0  0  0  0  0
  149.4477  131.5090  160.2191 H   0  0  0  0  0  0  0  0  0  0  0  0
  146.5642  132.6454  163.0700 H   0  0  0  0  0  0  0  0  0  0  0  0
  144.8234  130.4996  160.6666 H   0  0  0  0  0  0  0  0  0  0  0  0
  145.2625  130.6445  162.3683 H   0  0  0  0  0  0  0  0  0  0  0  0
  146.5177  130.3906  161.1452 H   0  0  0  0  0  0  0  0  0  0  0  0
  1  2  1  0  0  0  0
  1 23  1  0  0  0  0
  1 24  1  0  0  0  0
  1 25  1  0  0  0  0
  2  3  1  0  0  0  0
  2 26  1  0  0  0  0
  2 27  1  0  0  0  0
  3 19  1  0  0  0  0
  3  4  1  0  0  0  0
  3  6  1  0  0  0  0
  4  5  1  0  0  0  0
  4 28  1  0  0  0  0
  4 29  1  0  0  0  0
  5 30  1  0  0  0  0
  5 31  1  0  0  0  0
  5 32  1  0  0  0  0
  6  7  1  0  0  0  0
  6 17  1  0  0  0  0
  6 33  1  0  0  0  0
  7  8  1  0  0  0  0
  7 34  1  0  0  0  0
  8  9  2  0  0  0  0
  8 10  1  0  0  0  0
 10 11  1  0  0  0  0
 10 35  1  0  0  0  0
 10 36  1  0  0  0  0
 11 16  2  0  0  0  0
 11 12  1  0  0  0  0
 12 13  2  0  0  0  0
 12 37  1  0  0  0  0
 13 14  1  0  0  0  0
 13 15  1  0  0  0  0
 14 38  1  0  0  0  0
 14 39  1  0  0  0  0
 14 40  1  0  0  0  0
 15 22  1  0  0  0  0
 15 16  1  0  0  0  0
 17 18  1  0  0  0  0
 17 19  1  0  0  0  0
 17 41  1  0  0  0  0
 18 42  1  0  0  0  0
 18 43  1  0  0  0  0
 18 44  1  0  0  0  0
 19 20  1  0  0  0  0
 19 45  1  0  0  0  0
 20 21  1  0  0  0  0
 21 46  1  0  0  0  0
 21 47  1  0  0  0  0
 21 48  1  0  0  0  0
M  END
> <s_m_source_file>
AV-unprocessed.smi

> <i_m_source_file_index>
2510

> <i_lp_mmshare_version>
43012

> <i_f3d_flags>
0

> <s_epik_input>
W0NIM11PW0NAQEhdMVtDQEhdKFtDSDNdKVtDQEBIXShDMShbQ0gyXVtDSDNdKVtDSDJdW0NIM10pW05IXUMoPU8pW0NIMl1jMltjSF1jKFtDSDNdKVtuSF1uMg==

> <s_epik_cmdline>
J2VwaWtfcHl0aG9uJywgJy1waCcsICc3LjAnLCAnLXRuJywgJzgnLCAnLW1hJywgJzIwMCcsICctbWV0YWxfYmluZGluZycsICctaW1hZScsICc8aW5maWxlLm1hZT4nLCAnLW9tYWUnLCAnPG91dGZpbGUubWFlPic=

> <r_lp_tautomer_probability>
0.5

> <r_epik_Ionization_Penalty>
9.73156e-05

> <r_epik_Ionization_Penalty_Charging>
0

> <r_epik_Ionization_Penalty_Neutral>
9.73156e-05

> <r_epik_State_Penalty>
0.41068

> <r_epik_Charging_Adjusted_Penalty>
0.41068

> <i_epik_Tot_Q>
0

> <i_epik_Tot_abs_Q>
0

> <r_epik_Metal_State_Penalty>
0.410699

> <b_epik_Metal_Only>
0

> <s_lp_Force_Field>
OPLS_2005

> <r_lp_Energy>
26.3407

> <b_lp_Chiralities_Consistent>
1

> <s_lp_Variant>
AV-unprocessed.smi:2510-8

> <Gold.Version>
5.8.1

> <Gold.Id.Protein>
6NUR|6NUR_protein|mol2

> <Gold.PLP.Fitness>
36.0793

> <Gold.PLP.PLP>
-30.1131

> <Gold.PLP.part.hbond>
-2.0000

> <Gold.PLP.part.metal>
0.0000

> <Gold.PLP.part.buried>
-3.3964

> <Gold.PLP.part.nonpolar>
-24.7757

> <Gold.PLP.part.repulsive>
0.1747

> <Gold.PLP.ligand.clash>
0.0000

> <Gold.PLP.ligand.torsion>
0.3303

> <Gold.PLP.Chemscore.Hbond>
2.0000

> <Gold.PLP.Chemscore.CHOScore>
0.0000

> <Gold.PLP.Chemscore.Metal>
0.0000

> <Gold.Chemscore.Hbonds>
donor molecule, donor type, donor heavy atom, donor atom, acceptor molecule, acceptor atom, score
      L1  H    15    22       P1  7948  1.00
      P1  H  6896  6907       L1     9  1.00

> <Gold.PLP.Chemscore.Internal.Correction>
0.6269

> <Gold.Rescore>
     Score         DG    S(hbond)    S(metal)    S(lipo)     H(rot)  DE(clash)    DE(int)     intcor
     15.83     -17.67       1.99        0.00      87.05       1.81       0.01       1.82       ----

> <Gold.Chemscore.Fitness>
15.8327

> <Gold.Chemscore.DG>
-17.6679

> <Gold.Chemscore.ZeroCoef>
-5.4800

> <Gold.Chemscore.Hbond>
1.9872

> <Gold.Chemscore.Metal>
0.0000

> <Gold.Chemscore.Lipo>
87.0496

> <Gold.Chemscore.Internal_Hbond>
0.0000

> <Gold.Chemscore.DEClash>
0.0128

> <Gold.Chemscore.DEInternal>
1.8224

> <Gold.Chemscore.Rot>
1.8102

> <Gold.Chemscore.Internal.Correction>
   9.000000E+99

> <Gold.Chemscore.Hbonds>
donor molecule, donor type, donor heavy atom, donor atom, acceptor molecule, acceptor atom, score
      L1  H    15    22       P1  7948  0.97
      P1  H  6896  6907       L1     9  0.98

> <Gold.Chemscore.Hbond.Weighted>
-6.6372

> <Gold.Chemscore.Metal.Weighted>
-0.0000

> <Gold.Chemscore.Lipo.Weighted>
-10.1848

> <Gold.Chemscore.Internal_Hbond.Weighted>
0.0000

> <Gold.Chemscore.DEClash.Weighted>
0.0128

> <Gold.Chemscore.DEInternal.Weighted>
1.8224

> <Gold.Chemscore.Rot.Weighted>
4.6341

> <Gold.Chemscore.Internal.Correction.Weighted>
   9.000000E+99

> <Gold.Protein.RotatedTorsions>
[ 6907 6896 6895 6894 ] final -135.68 input  -60.11 | X-H torsion
[ 7974 7965 7964 7962 ] final  -33.46 input  175.53 | X-H torsion
[ 8008 7997 7996 7995 ] final   74.64 input   59.86 | X-H torsion
[ 10167 10162 10161 10158 ] final   31.97 input  -65.29 | X-H torsion
[ 10718 10713 10712 10709 ] final  104.78 input   66.30 | X-H torsion
[ 10763 10752 10751 10750 ] final  116.61 input  -60.55 | X-H torsion
[ 11005 11000 10999 10996 ] final  -21.34 input  -57.11 | X-H torsion

> <Gold.Protein.ActiveResidues>
 VAL166  LYS551  ARG553  GLY616  TRP617  ASP618  TYR619  PRO620  LYS621  CYS622 
 ASP623  PHE694  ASN695  SER759  ASP760  ASP761  ALA762  ILE779  LEU786  VAL792 
 PHE793  MET794  SER795  GLU796  ALA797  LYS798  CYS799  TRP800  GLU811  SER814 

> <Gold.Protein.RotatedAtoms>
  151.0008  133.6058  159.2695 H   0  0  0  0  0  0  0  0  0  0  0  0  # atno 6907 bound_to 6896
  151.3246  135.0826  159.9327 H   0  0  0  0  0  0  0  0  0  0  0  0  # atno 6908 bound_to 6896
  152.5273  133.9648  159.7788 H   0  0  0  0  0  0  0  0  0  0  0  0  # atno 6909 bound_to 6896
  146.0909  140.5919  142.8865 H   0  0  0  0  0  0  0  0  0  0  0  0  # atno 7974 bound_to 7965
  155.8013  140.3476  155.5404 H   0  0  0  0  0  0  0  0  0  0  0  0  # atno 8008 bound_to 7997
  155.8535  140.0960  157.1680 H   0  0  0  0  0  0  0  0  0  0  0  0  # atno 8009 bound_to 7997
  154.4008  140.1372  156.3861 H   0  0  0  0  0  0  0  0  0  0  0  0  # atno 8010 bound_to 7997
  140.4541  144.1005  150.6198 H   0  0  0  0  0  0  0  0  0  0  0  0  # atno 10167 bound_to 10162
  157.6728  131.0812  150.5757 H   0  0  0  0  0  0  0  0  0  0  0  0  # atno 10718 bound_to 10713
  153.5398  135.3561  155.2713 H   0  0  0  0  0  0  0  0  0  0  0  0  # atno 10763 bound_to 10752
  154.8718  135.4088  154.3057 H   0  0  0  0  0  0  0  0  0  0  0  0  # atno 10764 bound_to 10752
  153.3762  135.7066  153.6668 H   0  0  0  0  0  0  0  0  0  0  0  0  # atno 10765 bound_to 10752
  140.8552  133.7828  156.0011 H   0  0  0  0  0  0  0  0  0  0  0  0  # atno 11005 bound_to 11000
  144.7359  140.4807  143.6904 LP  0  0  0  0  0  0  0  0  0  0  0  0  # atno 17320 bound_to 7965
  145.6041  139.1506  143.3112 LP  0  0  0  0  0  0  0  0  0  0  0  0  # atno 17321 bound_to 7965
  140.4172  143.2628  151.9760 LP  0  0  0  0  0  0  0  0  0  0  0  0  # atno 17342 bound_to 10162
  139.4799  144.5863  151.7848 LP  0  0  0  0  0  0  0  0  0  0  0  0  # atno 17343 bound_to 10162
  156.6058  130.4367  149.5878 LP  0  0  0  0  0  0  0  0  0  0  0  0  # atno 17370 bound_to 10713
  156.2469  130.6884  151.1609 LP  0  0  0  0  0  0  0  0  0  0  0  0  # atno 17371 bound_to 10713
  140.8745  134.2686  157.5174 LP  0  0  0  0  0  0  0  0  0  0  0  0  # atno 17394 bound_to 11000
  139.8705  134.9584  156.4299 LP  0  0  0  0  0  0  0  0  0  0  0  0  # atno 17395 bound_to 11000

$$$$
