AV-unprocessed.smi:3145|AV-procd|sdf|11984|dock8
  -GOLD-   2272017393D 1   1.00000     0.00000
 Structure written by MMmdl.
 34 34  0  0  0  0  0  0  0  0  3 V2000
  144.2399  136.1920  152.9352 C   0  0  0  0  0  0  0  0  0  0  0  0
  145.5852  135.9826  152.2277 C   0  0  1  0  0  0  0  0  0  0  0  0
  145.3750  135.4559  150.7924 C   0  0  0  0  0  0  0  0  0  0  0  0
  145.2535  134.0103  150.7367 N   0  0  0  0  0  0  0  0  0  0  0  0
  144.1317  133.2536  150.4719 C   0  0  0  0  0  0  0  0  0  0  0  0
  144.4989  131.9412  150.5562 C   0  0  0  0  0  0  0  0  0  0  0  0
  145.8843  131.9969  150.8769 C   0  0  0  0  0  0  0  0  0  0  0  0
  146.3338  133.2372  150.9810 N   0  0  0  0  0  0  0  0  0  0  0  0
  146.3428  137.2541  152.2236 N   0  3  0  0  0  0  0  0  0  0  0  0
  146.1983  138.0697  153.4477 C   0  0  0  0  0  0  0  0  0  0  0  0
  147.3475  139.0774  153.5634 C   0  0  0  0  0  0  0  0  0  0  0  0
  147.1749  140.2424  153.1864 O   0  0  0  0  0  0  0  0  0  0  0  0
  148.4498  138.4746  154.0833 N   0  5  0  0  0  0  0  0  0  0  0  0
  149.7067  139.1673  154.3629 C   0  0  0  0  0  0  0  0  0  0  0  0
  150.9074  138.2326  154.1360 C   0  0  0  0  0  0  0  0  0  0  0  0
  152.1794  138.7347  154.6845 C   0  0  0  0  0  0  0  0  0  0  0  0
  153.1796  139.1334  155.1125 N   0  0  0  0  0  0  0  0  0  0  0  0
  143.6720  135.2624  152.9816 H   0  0  0  0  0  0  0  0  0  0  0  0
  143.6275  136.9309  152.4168 H   0  0  0  0  0  0  0  0  0  0  0  0
  144.3851  136.5381  153.9593 H   0  0  0  0  0  0  0  0  0  0  0  0
  146.1393  135.2372  152.8009 H   0  0  0  0  0  0  0  0  0  0  0  0
  144.4657  135.8829  150.3673 H   0  0  0  0  0  0  0  0  0  0  0  0
  146.1950  135.7691  150.1439 H   0  0  0  0  0  0  0  0  0  0  0  0
  143.1755  133.7068  150.2551 H   0  0  0  0  0  0  0  0  0  0  0  0
  143.8731  131.0729  150.4129 H   0  0  0  0  0  0  0  0  0  0  0  0
  146.5711  131.1788  151.0374 H   0  0  0  0  0  0  0  0  0  0  0  0
  147.3229  137.0476  152.0922 H   0  0  0  0  0  0  0  0  0  0  0  0
  145.2342  138.5807  153.4178 H   0  0  0  0  0  0  0  0  0  0  0  0
  146.2056  137.4340  154.3331 H   0  0  0  0  0  0  0  0  0  0  0  0
  149.8271  140.0530  153.7377 H   0  0  0  0  0  0  0  0  0  0  0  0
  149.7342  139.5342  155.3889 H   0  0  0  0  0  0  0  0  0  0  0  0
  150.7195  137.2475  154.5637 H   0  0  0  0  0  0  0  0  0  0  0  0
  151.0578  138.0863  153.0664 H   0  0  0  0  0  0  0  0  0  0  0  0
  146.0287  137.8189  151.4478 H   0  0  0  0  0  0  0  0  0  0  0  0
  1  2  1  0  0  0  0
  1 18  1  0  0  0  0
  1 19  1  0  0  0  0
  1 20  1  0  0  0  0
  2  3  1  0  0  0  0
  2  9  1  0  0  0  0
  2 21  1  0  0  0  0
  3  4  1  0  0  0  0
  3 22  1  0  0  0  0
  3 23  1  0  0  0  0
  4  8  1  0  0  0  0
  4  5  1  0  0  0  0
  5  6  2  0  0  0  0
  5 24  1  0  0  0  0
  6  7  1  0  0  0  0
  6 25  1  0  0  0  0
  7  8  2  0  0  0  0
  7 26  1  0  0  0  0
  9 10  1  0  0  0  0
  9 27  1  0  0  0  0
  9 34  1  0  0  0  0
 10 11  1  0  0  0  0
 10 28  1  0  0  0  0
 10 29  1  0  0  0  0
 11 12  2  0  0  0  0
 11 13  1  0  0  0  0
 13 14  1  0  0  0  0
 14 15  1  0  0  0  0
 14 30  1  0  0  0  0
 14 31  1  0  0  0  0
 15 16  1  0  0  0  0
 15 32  1  0  0  0  0
 15 33  1  0  0  0  0
 16 17  3  0  0  0  0
M  CHG  1   9   1
M  CHG  1  13  -1
M  END
> <s_m_source_file>
AV-unprocessed.smi

> <i_m_source_file_index>
3145

> <i_lp_mmshare_version>
43012

> <i_f3d_flags>
0

> <s_epik_input>
bjFbY0hdW2NIXVtjSF1uMVtDSDJdW0NAQEhdKFtDSDNdKVtOSF1bQ0gyXUMoPU8pW05IXVtDSDJdW0NIMl1DI04=

> <s_epik_cmdline>
J2VwaWtfcHl0aG9uJywgJy1waCcsICc3LjAnLCAnLXRuJywgJzgnLCAnLW1hJywgJzIwMCcsICctbWV0YWxfYmluZGluZycsICctaW1hZScsICc8aW5maWxlLm1hZT4nLCAnLW9tYWUnLCAnPG91dGZpbGUubWFlPic=

> <r_lp_tautomer_probability>
1

> <r_epik_Ionization_Penalty>
6.20835

> <r_epik_Ionization_Penalty_Charging>
6.20835

> <r_epik_Ionization_Penalty_Neutral>
3.57231e-06

> <r_epik_State_Penalty>
6.38139

> <r_epik_Charging_Adjusted_Penalty>
12.5897

> <i_epik_Tot_Q>
0

> <i_epik_Tot_abs_Q>
2

> <r_epik_Metal_State_Penalty>
2.31725

> <b_epik_Metal_Only>
1

> <s_lp_Force_Field>
OPLS_2005

> <r_lp_Energy>
1.97057

> <b_lp_Chiralities_Consistent>
1

> <s_lp_Variant>
AV-unprocessed.smi:3145-6

> <Gold.Version>
5.8.1

> <Gold.Id.Protein>
6NUR|6NUR_protein|mol2

> <Gold.PLP.Fitness>
45.4195

> <Gold.PLP.PLP>
-32.7456

> <Gold.PLP.part.hbond>
-2.0000

> <Gold.PLP.part.metal>
0.0000

> <Gold.PLP.part.buried>
-7.7939

> <Gold.PLP.part.nonpolar>
-24.8990

> <Gold.PLP.part.repulsive>
0.6358

> <Gold.PLP.ligand.clash>
0.0000

> <Gold.PLP.ligand.torsion>
1.2702

> <Gold.PLP.Chemscore.Hbond>
3.0000

> <Gold.PLP.Chemscore.CHOScore>
2.0000

> <Gold.PLP.Chemscore.Metal>
0.0000

> <Gold.Chemscore.Hbonds>
donor molecule, donor type, donor heavy atom, donor atom, acceptor molecule, acceptor atom, score
      L1  H     9    27       P1  7948  2.00
      P1  H  7997  8008       L1    17  0.98
      L1  C     5    24       P1 10186  1.00
      L1  C     7    26       P1 10747  0.97

> <Gold.PLP.Chemscore.Internal.Correction>
0.2143

> <Gold.Rescore>
     Score         DG    S(hbond)    S(metal)    S(lipo)     H(rot)  DE(clash)    DE(int)     intcor
     11.09     -12.16       1.99        0.00      61.43       2.79       0.02       1.05       ----

> <Gold.Chemscore.Fitness>
11.0889

> <Gold.Chemscore.DG>
-12.1638

> <Gold.Chemscore.ZeroCoef>
-5.4800

> <Gold.Chemscore.Hbond>
1.9914

> <Gold.Chemscore.Metal>
0.0000

> <Gold.Chemscore.Lipo>
61.4332

> <Gold.Chemscore.Internal_Hbond>
0.0000

> <Gold.Chemscore.DEClash>
0.0240

> <Gold.Chemscore.DEInternal>
1.0508

> <Gold.Chemscore.Rot>
2.7949

> <Gold.Chemscore.Internal.Correction>
   9.000000E+99

> <Gold.Chemscore.Hbonds>
donor molecule, donor type, donor heavy atom, donor atom, acceptor molecule, acceptor atom, score
      L1  H     9    27       P1  7948  1.00
      P1  H  7997  8008       L1    17  0.93

> <Gold.Chemscore.Hbond.Weighted>
-6.6512

> <Gold.Chemscore.Metal.Weighted>
-0.0000

> <Gold.Chemscore.Lipo.Weighted>
-7.1877

> <Gold.Chemscore.Internal_Hbond.Weighted>
0.0000

> <Gold.Chemscore.DEClash.Weighted>
0.0240

> <Gold.Chemscore.DEInternal.Weighted>
1.0508

> <Gold.Chemscore.Rot.Weighted>
7.1551

> <Gold.Chemscore.Internal.Correction.Weighted>
   9.000000E+99

> <Gold.Protein.RotatedTorsions>
[ 6907 6896 6895 6894 ] final  104.18 input  -60.11 | X-H torsion
[ 7974 7965 7964 7962 ] final  -73.95 input  175.53 | X-H torsion
[ 8008 7997 7996 7995 ] final  -37.68 input   59.86 | X-H torsion
[ 10167 10162 10161 10158 ] final -155.71 input  -65.29 | X-H torsion
[ 10718 10713 10712 10709 ] final  -47.91 input   66.30 | X-H torsion
[ 10763 10752 10751 10750 ] final -174.81 input  -60.55 | X-H torsion
[ 11005 11000 10999 10996 ] final  -78.37 input  -57.11 | X-H torsion

> <Gold.Protein.ActiveResidues>
 VAL166  LYS551  ARG553  GLY616  TRP617  ASP618  TYR619  PRO620  LYS621  CYS622 
 ASP623  PHE694  ASN695  SER759  ASP760  ASP761  ALA762  ILE779  LEU786  VAL792 
 PHE793  MET794  SER795  GLU796  ALA797  LYS798  CYS799  TRP800  GLU811  SER814 

> <Gold.Protein.RotatedAtoms>
  152.5272  133.9716  159.7764 H   0  0  0  0  0  0  0  0  0  0  0  0  # atno 6907 bound_to 6896
  150.9987  133.6070  159.2705 H   0  0  0  0  0  0  0  0  0  0  0  0  # atno 6908 bound_to 6896
  151.3187  135.0819  159.9351 H   0  0  0  0  0  0  0  0  0  0  0  0  # atno 6909 bound_to 6896
  145.6455  140.9298  143.1013 H   0  0  0  0  0  0  0  0  0  0  0  0  # atno 7974 bound_to 7965
  154.4049  140.1598  156.2577 H   0  0  0  0  0  0  0  0  0  0  0  0  # atno 8008 bound_to 7997
  155.9064  140.3430  155.6043 H   0  0  0  0  0  0  0  0  0  0  0  0  # atno 8009 bound_to 7997
  155.7388  140.0790  157.2246 H   0  0  0  0  0  0  0  0  0  0  0  0  # atno 8010 bound_to 7997
  139.6909  143.9422  152.2384 H   0  0  0  0  0  0  0  0  0  0  0  0  # atno 10167 bound_to 10162
  156.2038  130.4157  149.9205 H   0  0  0  0  0  0  0  0  0  0  0  0  # atno 10718 bound_to 10713
  154.5918  135.2846  155.0627 H   0  0  0  0  0  0  0  0  0  0  0  0  # atno 10763 bound_to 10752
  154.1924  135.6438  153.5067 H   0  0  0  0  0  0  0  0  0  0  0  0  # atno 10764 bound_to 10752
  153.0124  135.5449  154.6607 H   0  0  0  0  0  0  0  0  0  0  0  0  # atno 10765 bound_to 10752
  141.1664  133.7060  156.7962 H   0  0  0  0  0  0  0  0  0  0  0  0  # atno 11005 bound_to 11000
  144.7141  139.8260  143.7404 LP  0  0  0  0  0  0  0  0  0  0  0  0  # atno 17320 bound_to 7965
  146.1246  139.4270  143.0207 LP  0  0  0  0  0  0  0  0  0  0  0  0  # atno 17321 bound_to 7965
  139.9238  144.6784  150.8434 LP  0  0  0  0  0  0  0  0  0  0  0  0  # atno 17342 bound_to 10162
  140.7682  143.3356  151.2315 LP  0  0  0  0  0  0  0  0  0  0  0  0  # atno 17343 bound_to 10162
  156.6905  130.8894  151.3587 LP  0  0  0  0  0  0  0  0  0  0  0  0  # atno 17370 bound_to 10713
  157.7001  130.9323  150.0759 LP  0  0  0  0  0  0  0  0  0  0  0  0  # atno 17371 bound_to 10713
  140.2289  134.8700  157.3456 LP  0  0  0  0  0  0  0  0  0  0  0  0  # atno 17394 bound_to 11000
  140.1911  134.4371  155.7715 LP  0  0  0  0  0  0  0  0  0  0  0  0  # atno 17395 bound_to 11000

$$$$
