AV-unprocessed.smi:2204|AV-procd|sdf|8940|dock8
  -GOLD-   2272012153D 1   1.00000     0.00000
 Structure written by MMmdl.
 39 40  0  0  0  0  0  0  0  0  1 V2000
  153.8936  141.0405  160.9176 C   0  0  0  0  0  0  0  0  0  0  0  0
  153.1630  142.2263  160.3606 C   0  0  0  0  0  0  0  0  0  0  0  0
  152.8138  143.4363  161.0225 C   0  0  0  0  0  0  0  0  0  0  0  0
  152.1592  144.1655  160.0703 C   0  0  0  0  0  0  0  0  0  0  0  0
  151.5390  145.5215  160.1523 C   0  0  0  0  0  0  0  0  0  0  0  0
  152.1434  143.3989  158.9184 N   0  0  0  0  0  0  0  0  0  0  0  0
  151.5447  143.6974  157.6254 C   0  0  0  0  0  0  0  0  0  0  0  0
  150.4947  142.6483  157.2551 C   0  0  0  0  0  0  0  0  0  0  0  0
  149.5191  142.4668  157.9827 O   0  0  0  0  0  0  0  0  0  0  0  0
  150.7236  141.9537  156.1302 N   0  0  0  0  0  0  0  0  0  0  0  0
  149.9508  140.8094  155.6583 C   0  0  1  0  0  0  0  0  0  0  0  0
  149.2917  141.1389  154.3101 C   0  0  0  0  0  0  0  0  0  0  0  0
  150.8724  139.5782  155.5687 C   0  0  1  0  0  0  0  0  0  0  0  0
  150.2618  138.3719  154.8477 C   0  0  0  0  0  0  0  0  0  0  0  0
  151.4664  137.6353  154.2811 C   0  0  0  0  0  0  0  0  0  0  0  0
  152.6292  138.6116  154.4753 C   0  0  0  0  0  0  0  0  0  0  0  0
  152.0152  139.8562  154.7752 O   0  0  0  0  0  0  0  0  0  0  0  0
  152.7628  142.2117  159.1000 N   0  0  0  0  0  0  0  0  0  0  0  0
  153.9318  141.0782  162.0064 H   0  0  0  0  0  0  0  0  0  0  0  0
  154.9194  141.0061  160.5501 H   0  0  0  0  0  0  0  0  0  0  0  0
  153.4056  140.1068  160.6360 H   0  0  0  0  0  0  0  0  0  0  0  0
  153.0100  143.7237  162.0448 H   0  0  0  0  0  0  0  0  0  0  0  0
  151.6748  145.9524  161.1442 H   0  0  0  0  0  0  0  0  0  0  0  0
  150.4683  145.4725  159.9527 H   0  0  0  0  0  0  0  0  0  0  0  0
  151.9897  146.2001  159.4278 H   0  0  0  0  0  0  0  0  0  0  0  0
  151.0930  144.6893  157.6616 H   0  0  0  0  0  0  0  0  0  0  0  0
  152.3220  143.7279  156.8600 H   0  0  0  0  0  0  0  0  0  0  0  0
  151.5509  142.1876  155.5996 H   0  0  0  0  0  0  0  0  0  0  0  0
  149.1652  140.5878  156.3834 H   0  0  0  0  0  0  0  0  0  0  0  0
  148.6969  140.2995  153.9492 H   0  0  0  0  0  0  0  0  0  0  0  0
  150.0374  141.3699  153.5486 H   0  0  0  0  0  0  0  0  0  0  0  0
  148.6255  141.9979  154.3967 H   0  0  0  0  0  0  0  0  0  0  0  0
  151.2019  139.2782  156.5657 H   0  0  0  0  0  0  0  0  0  0  0  0
  149.6595  137.7498  155.5109 H   0  0  0  0  0  0  0  0  0  0  0  0
  149.6208  138.7030  154.0293 H   0  0  0  0  0  0  0  0  0  0  0  0
  151.6532  136.6975  154.8053 H   0  0  0  0  0  0  0  0  0  0  0  0
  151.3116  137.4053  153.2263 H   0  0  0  0  0  0  0  0  0  0  0  0
  153.2491  138.3067  155.3196 H   0  0  0  0  0  0  0  0  0  0  0  0
  153.2671  138.6862  153.5943 H   0  0  0  0  0  0  0  0  0  0  0  0
  1  2  1  0  0  0  0
  1 19  1  0  0  0  0
  1 20  1  0  0  0  0
  1 21  1  0  0  0  0
  2 18  2  0  0  0  0
  2  3  1  0  0  0  0
  3  4  2  0  0  0  0
  3 22  1  0  0  0  0
  4  5  1  0  0  0  0
  4  6  1  0  0  0  0
  5 23  1  0  0  0  0
  5 24  1  0  0  0  0
  5 25  1  0  0  0  0
  6  7  1  0  0  0  0
  6 18  1  0  0  0  0
  7  8  1  0  0  0  0
  7 26  1  0  0  0  0
  7 27  1  0  0  0  0
  8  9  2  0  0  0  0
  8 10  1  0  0  0  0
 10 11  1  0  0  0  0
 10 28  1  0  0  0  0
 11 12  1  0  0  0  0
 11 13  1  0  0  0  0
 11 29  1  0  0  0  0
 12 30  1  0  0  0  0
 12 31  1  0  0  0  0
 12 32  1  0  0  0  0
 13 17  1  0  0  0  0
 13 14  1  0  0  0  0
 13 33  1  0  0  0  0
 14 15  1  0  0  0  0
 14 34  1  0  0  0  0
 14 35  1  0  0  0  0
 15 16  1  0  0  0  0
 15 36  1  0  0  0  0
 15 37  1  0  0  0  0
 16 17  1  0  0  0  0
 16 38  1  0  0  0  0
 16 39  1  0  0  0  0
M  END
> <s_m_source_file>
AV-unprocessed.smi

> <i_m_source_file_index>
2204

> <i_lp_mmshare_version>
43012

> <i_f3d_flags>
0

> <s_epik_input>
W0NIM11jMVtjSF1jKFtDSDNdKW4objEpW0NIMl1DKD1PKVtOSF1bQ0BIXShbQ0gzXSlbQ0BASF0yW0NIMl1bQ0gyXVtDSDJdTzI=

> <s_epik_cmdline>
J2VwaWtfcHl0aG9uJywgJy1waCcsICc3LjAnLCAnLXRuJywgJzgnLCAnLW1hJywgJzIwMCcsICctbWV0YWxfYmluZGluZycsICctaW1hZScsICc8aW5maWxlLm1hZT4nLCAnLW9tYWUnLCAnPG91dGZpbGUubWFlPic=

> <r_lp_tautomer_probability>
1

> <r_epik_Ionization_Penalty>
0.000433354

> <r_epik_Ionization_Penalty_Charging>
0

> <r_epik_Ionization_Penalty_Neutral>
0.000433354

> <r_epik_State_Penalty>
-0

> <r_epik_Charging_Adjusted_Penalty>
0

> <i_epik_Tot_Q>
0

> <i_epik_Tot_abs_Q>
0

> <r_epik_Metal_State_Penalty>
-0

> <b_epik_Metal_Only>
0

> <s_lp_Force_Field>
OPLS_2005

> <r_lp_Energy>
15.4652

> <b_lp_Chiralities_Consistent>
1

> <s_lp_Variant>
AV-unprocessed.smi:2204-4

> <Gold.Version>
5.8.1

> <Gold.Id.Protein>
6NUR|6NUR_protein|mol2

> <Gold.PLP.Fitness>
48.0496

> <Gold.PLP.PLP>
-45.3423

> <Gold.PLP.part.hbond>
-1.0000

> <Gold.PLP.part.metal>
0.0000

> <Gold.PLP.part.buried>
-5.1055

> <Gold.PLP.part.nonpolar>
-40.2808

> <Gold.PLP.part.repulsive>
0.3178

> <Gold.PLP.ligand.clash>
0.0000

> <Gold.PLP.ligand.torsion>
0.0997

> <Gold.PLP.Chemscore.Hbond>
0.9600

> <Gold.PLP.Chemscore.CHOScore>
0.0000

> <Gold.PLP.Chemscore.Metal>
0.0000

> <Gold.Chemscore.Hbonds>
donor molecule, donor type, donor heavy atom, donor atom, acceptor molecule, acceptor atom, score
      P1  H  7989  7998       L1    17  0.86

> <Gold.PLP.Chemscore.Internal.Correction>
0.0265

> <Gold.Rescore>
     Score         DG    S(hbond)    S(metal)    S(lipo)     H(rot)  DE(clash)    DE(int)     intcor
     17.34     -17.48       0.92        0.00     109.25       1.50       0.10       0.05       ----

> <Gold.Chemscore.Fitness>
17.3400

> <Gold.Chemscore.DG>
-17.4845

> <Gold.Chemscore.ZeroCoef>
-5.4800

> <Gold.Chemscore.Hbond>
0.9172

> <Gold.Chemscore.Metal>
0.0000

> <Gold.Chemscore.Lipo>
109.2511

> <Gold.Chemscore.Internal_Hbond>
0.0000

> <Gold.Chemscore.DEClash>
0.0985

> <Gold.Chemscore.DEInternal>
0.0461

> <Gold.Chemscore.Rot>
1.5005

> <Gold.Chemscore.Internal.Correction>
   9.000000E+99

> <Gold.Chemscore.Hbonds>
donor molecule, donor type, donor heavy atom, donor atom, acceptor molecule, acceptor atom, score
      P1  H  7989  7998       L1    17  0.68

> <Gold.Chemscore.Hbond.Weighted>
-3.0634

> <Gold.Chemscore.Metal.Weighted>
-0.0000

> <Gold.Chemscore.Lipo.Weighted>
-12.7824

> <Gold.Chemscore.Internal_Hbond.Weighted>
0.0000

> <Gold.Chemscore.DEClash.Weighted>
0.0985

> <Gold.Chemscore.DEInternal.Weighted>
0.0461

> <Gold.Chemscore.Rot.Weighted>
3.8412

> <Gold.Chemscore.Internal.Correction.Weighted>
   9.000000E+99

> <Gold.Protein.RotatedTorsions>
[ 6907 6896 6895 6894 ] final  -93.14 input  -60.11 | X-H torsion
[ 7974 7965 7964 7962 ] final  119.56 input  175.53 | X-H torsion
[ 8008 7997 7996 7995 ] final -175.83 input   59.86 | X-H torsion
[ 10167 10162 10161 10158 ] final  176.96 input  -65.29 | X-H torsion
[ 10718 10713 10712 10709 ] final  -86.57 input   66.30 | X-H torsion
[ 10763 10752 10751 10750 ] final   43.34 input  -60.55 | X-H torsion
[ 11005 11000 10999 10996 ] final -156.25 input  -57.11 | X-H torsion

> <Gold.Protein.ActiveResidues>
 VAL166  LYS551  ARG553  GLY616  TRP617  ASP618  TYR619  PRO620  LYS621  CYS622 
 ASP623  PHE694  ASN695  SER759  ASP760  ASP761  ALA762  ILE779  LEU786  VAL792 
 PHE793  MET794  SER795  GLU796  ALA797  LYS798  CYS799  TRP800  GLU811  SER814 

> <Gold.Protein.RotatedAtoms>
  150.6917  134.2014  159.4323 H   0  0  0  0  0  0  0  0  0  0  0  0  # atno 6907 bound_to 6896
  151.9980  134.9941  160.0573 H   0  0  0  0  0  0  0  0  0  0  0  0  # atno 6908 bound_to 6896
  152.1605  133.4544  159.4895 H   0  0  0  0  0  0  0  0  0  0  0  0  # atno 6909 bound_to 6896
  145.1417  139.3264  143.4612 H   0  0  0  0  0  0  0  0  0  0  0  0  # atno 7974 bound_to 7965
  155.9874  140.1194  157.0670 H   0  0  0  0  0  0  0  0  0  0  0  0  # atno 8008 bound_to 7997
  154.4201  140.1132  156.5587 H   0  0  0  0  0  0  0  0  0  0  0  0  # atno 8009 bound_to 7997
  155.6389  140.3473  155.4710 H   0  0  0  0  0  0  0  0  0  0  0  0  # atno 8010 bound_to 7997
  139.5234  144.2854  152.0510 H   0  0  0  0  0  0  0  0  0  0  0  0  # atno 10167 bound_to 10162
  155.9989  130.4769  150.4734 H   0  0  0  0  0  0  0  0  0  0  0  0  # atno 10718 bound_to 10713
  152.9863  135.6104  154.3095 H   0  0  0  0  0  0  0  0  0  0  0  0  # atno 10763 bound_to 10752
  154.2811  135.2777  155.2698 H   0  0  0  0  0  0  0  0  0  0  0  0  # atno 10764 bound_to 10752
  154.5037  135.5860  153.6607 H   0  0  0  0  0  0  0  0  0  0  0  0  # atno 10765 bound_to 10752
  140.6777  134.4179  157.5228 H   0  0  0  0  0  0  0  0  0  0  0  0  # atno 11005 bound_to 11000
  146.3504  140.1456  142.8593 LP  0  0  0  0  0  0  0  0  0  0  0  0  # atno 17320 bound_to 7965
  145.0525  140.9028  143.4987 LP  0  0  0  0  0  0  0  0  0  0  0  0  # atno 17321 bound_to 7965
  140.2308  144.4371  150.6301 LP  0  0  0  0  0  0  0  0  0  0  0  0  # atno 17342 bound_to 10162
  140.6357  143.2194  151.6401 LP  0  0  0  0  0  0  0  0  0  0  0  0  # atno 17343 bound_to 10162
  157.2747  131.0594  151.2237 LP  0  0  0  0  0  0  0  0  0  0  0  0  # atno 17370 bound_to 10713
  157.3305  130.6982  149.6321 LP  0  0  0  0  0  0  0  0  0  0  0  0  # atno 17371 bound_to 10713
  139.8961  134.8666  156.2100 LP  0  0  0  0  0  0  0  0  0  0  0  0  # atno 17394 bound_to 11000
  141.0343  133.6972  156.1484 LP  0  0  0  0  0  0  0  0  0  0  0  0  # atno 17395 bound_to 11000

$$$$
