AV-unprocessed.smi:2896|AV-procd|sdf|11137|dock4
  -GOLD-   2272016 13D 1   1.00000     0.00000
 Structure written by MMmdl.
 50 51  0  0  0  0  0  0  0  0  2 V2000
  147.5510  138.2420  154.5316 C   0  0  0  0  0  0  0  0  0  0  0  0
  148.1974  136.8423  154.5382 C   0  0  1  0  0  0  0  0  0  0  0  0
  148.8656  136.5329  155.8956 C   0  0  0  0  0  0  0  0  0  0  0  0
  150.0463  137.3573  156.1286 N   0  0  0  0  0  0  0  0  0  0  0  0
  151.1658  137.3376  155.3841 C   0  0  0  0  0  0  0  0  0  0  0  0
  151.3139  136.5590  154.4408 O   0  0  0  0  0  0  0  0  0  0  0  0
  152.2788  138.3496  155.7540 C   0  0  0  0  0  0  0  0  0  0  0  0
  153.1179  137.7220  156.8918 C   0  0  0  0  0  0  0  0  0  0  0  0
  153.2287  138.5747  154.5518 C   0  0  0  0  0  0  0  0  0  0  0  0
  151.6285  139.6941  156.1426 C   0  0  0  0  0  0  0  0  0  0  0  0
  151.8768  140.2679  157.4133 C   0  0  0  0  0  0  0  0  0  0  0  0
  151.2895  141.5022  157.7463 C   0  0  0  0  0  0  0  0  0  0  0  0
  150.4634  142.1273  156.7944 C   0  0  0  0  0  0  0  0  0  0  0  0
  150.2101  141.6004  155.5790 N   0  0  0  0  0  0  0  0  0  0  0  0
  150.7779  140.4155  155.2679 C   0  0  0  0  0  0  0  0  0  0  0  0
  147.1675  135.7469  154.1862 C   0  0  0  0  0  0  0  0  0  0  0  0
  146.9816  135.5731  152.7226 N   0  3  0  0  0  0  0  0  0  0  0  0
  146.6059  134.1921  152.3289 C   0  0  0  0  0  0  0  0  0  0  0  0
  146.4755  134.0862  150.8001 C   0  0  0  0  0  0  0  0  0  0  0  0
  145.5230  135.0339  150.3347 O   0  0  0  0  0  0  0  0  0  0  0  0
  145.9144  136.3690  150.6282 C   0  0  0  0  0  0  0  0  0  0  0  0
  146.0254  136.5511  152.1515 C   0  0  0  0  0  0  0  0  0  0  0  0
  146.7611  138.3161  155.2796 H   0  0  0  0  0  0  0  0  0  0  0  0
  147.1123  138.4743  153.5612 H   0  0  0  0  0  0  0  0  0  0  0  0
  148.2802  139.0232  154.7439 H   0  0  0  0  0  0  0  0  0  0  0  0
  148.9845  136.8344  153.7849 H   0  0  0  0  0  0  0  0  0  0  0  0
  148.1612  136.7106  156.7091 H   0  0  0  0  0  0  0  0  0  0  0  0
  149.1410  135.4784  155.9562 H   0  0  0  0  0  0  0  0  0  0  0  0
  149.9996  138.0192  156.8902 H   0  0  0  0  0  0  0  0  0  0  0  0
  152.5160  137.5064  157.7758 H   0  0  0  0  0  0  0  0  0  0  0  0
  153.9332  138.3797  157.1954 H   0  0  0  0  0  0  0  0  0  0  0  0
  153.5697  136.7795  156.5787 H   0  0  0  0  0  0  0  0  0  0  0  0
  152.6990  138.9080  153.6589 H   0  0  0  0  0  0  0  0  0  0  0  0
  153.7646  137.6628  154.2838 H   0  0  0  0  0  0  0  0  0  0  0  0
  153.9798  139.3302  154.7852 H   0  0  0  0  0  0  0  0  0  0  0  0
  152.5222  139.7773  158.1269 H   0  0  0  0  0  0  0  0  0  0  0  0
  151.4685  141.9595  158.7082 H   0  0  0  0  0  0  0  0  0  0  0  0
  149.9956  143.0755  157.0142 H   0  0  0  0  0  0  0  0  0  0  0  0
  150.5363  140.0532  154.2808 H   0  0  0  0  0  0  0  0  0  0  0  0
  147.4560  134.7899  154.6241 H   0  0  0  0  0  0  0  0  0  0  0  0
  146.2143  136.0138  154.6458 H   0  0  0  0  0  0  0  0  0  0  0  0
  147.3520  133.4769  152.6731 H   0  0  0  0  0  0  0  0  0  0  0  0
  145.6610  133.9196  152.8016 H   0  0  0  0  0  0  0  0  0  0  0  0
  147.4386  134.2505  150.3141 H   0  0  0  0  0  0  0  0  0  0  0  0
  146.1443  133.0860  150.5204 H   0  0  0  0  0  0  0  0  0  0  0  0
  146.8613  136.6001  150.1375 H   0  0  0  0  0  0  0  0  0  0  0  0
  145.1694  137.0530  150.2209 H   0  0  0  0  0  0  0  0  0  0  0  0
  145.0468  136.4222  152.6168 H   0  0  0  0  0  0  0  0  0  0  0  0
  146.3560  137.5662  152.3740 H   0  0  0  0  0  0  0  0  0  0  0  0
  147.8748  135.7711  152.2944 H   0  0  0  0  0  0  0  0  0  0  0  0
  1  2  1  0  0  0  0
  1 23  1  0  0  0  0
  1 24  1  0  0  0  0
  1 25  1  0  0  0  0
  2  3  1  0  0  0  0
  2 16  1  0  0  0  0
  2 26  1  0  0  0  0
  3  4  1  0  0  0  0
  3 27  1  0  0  0  0
  3 28  1  0  0  0  0
  4  5  1  0  0  0  0
  4 29  1  0  0  0  0
  5  6  2  0  0  0  0
  5  7  1  0  0  0  0
  7  8  1  0  0  0  0
  7  9  1  0  0  0  0
  7 10  1  0  0  0  0
  8 30  1  0  0  0  0
  8 31  1  0  0  0  0
  8 32  1  0  0  0  0
  9 33  1  0  0  0  0
  9 34  1  0  0  0  0
  9 35  1  0  0  0  0
 10 15  1  0  0  0  0
 10 11  2  0  0  0  0
 11 12  1  0  0  0  0
 11 36  1  0  0  0  0
 12 13  2  0  0  0  0
 12 37  1  0  0  0  0
 13 14  1  0  0  0  0
 13 38  1  0  0  0  0
 14 15  2  0  0  0  0
 15 39  1  0  0  0  0
 16 17  1  0  0  0  0
 16 40  1  0  0  0  0
 16 41  1  0  0  0  0
 17 22  1  0  0  0  0
 17 18  1  0  0  0  0
 17 50  1  0  0  0  0
 18 19  1  0  0  0  0
 18 42  1  0  0  0  0
 18 43  1  0  0  0  0
 19 20  1  0  0  0  0
 19 44  1  0  0  0  0
 19 45  1  0  0  0  0
 20 21  1  0  0  0  0
 21 22  1  0  0  0  0
 21 46  1  0  0  0  0
 21 47  1  0  0  0  0
 22 48  1  0  0  0  0
 22 49  1  0  0  0  0
M  CHG  1  17   1
M  END
> <s_m_source_file>
AV-unprocessed.smi

> <i_m_source_file_index>
2896

> <i_lp_mmshare_version>
43012

> <i_f3d_flags>
0

> <s_epik_input>
W0NIMl0xW0NIMl1PW0NIMl1bQ0gyXU4xW0NIMl1bQ0BIXShbQ0gzXSlbQ0gyXVtOSF1DKD1PKUMoW0NIM10pKFtDSDNdKWMyW2NIXVtjSF1bY0hdbltjSF0y

> <s_epik_cmdline>
J2VwaWtfcHl0aG9uJywgJy1waCcsICc3LjAnLCAnLXRuJywgJzgnLCAnLW1hJywgJzIwMCcsICctbWV0YWxfYmluZGluZycsICctaW1hZScsICc8aW5maWxlLm1hZT4nLCAnLW9tYWUnLCAnPG91dGZpbGUubWFlPic=

> <r_epik_Ionization_Penalty>
0.378644

> <r_epik_Ionization_Penalty_Charging>
0.372108

> <r_epik_Ionization_Penalty_Neutral>
0.0065361

> <r_epik_State_Penalty>
0.380038

> <r_epik_Charging_Adjusted_Penalty>
0.752147

> <i_epik_Tot_Q>
1

> <i_epik_Tot_abs_Q>
1

> <r_epik_Metal_State_Penalty>
0.375202

> <b_epik_Metal_Only>
0

> <s_lp_Force_Field>
OPLS_2005

> <r_lp_Energy>
23.8301

> <b_lp_Chiralities_Consistent>
1

> <s_lp_Variant>
AV-unprocessed.smi:2896-2

> <Gold.Version>
5.8.1

> <Gold.Id.Protein>
6NUR|6NUR_protein|mol2

> <Gold.PLP.Fitness>
38.4919

> <Gold.PLP.PLP>
-29.5679

> <Gold.PLP.part.hbond>
-2.0000

> <Gold.PLP.part.metal>
0.0000

> <Gold.PLP.part.buried>
-4.3841

> <Gold.PLP.part.nonpolar>
-24.6910

> <Gold.PLP.part.repulsive>
0.4571

> <Gold.PLP.ligand.clash>
0.0000

> <Gold.PLP.ligand.torsion>
1.6159

> <Gold.PLP.Chemscore.Hbond>
3.0000

> <Gold.PLP.Chemscore.CHOScore>
0.9921

> <Gold.PLP.Chemscore.Metal>
0.0000

> <Gold.Chemscore.Hbonds>
donor molecule, donor type, donor heavy atom, donor atom, acceptor molecule, acceptor atom, score
      L1  H    17    50       P1  7948  0.49
      P1  H 10752 10765       L1     6  1.00
      L1  C    13    38       P1  8028  1.00

> <Gold.PLP.Chemscore.Internal.Correction>
0.1794

> <Gold.Rescore>
     Score         DG    S(hbond)    S(metal)    S(lipo)     H(rot)  DE(clash)    DE(int)     intcor
     14.95     -16.75       1.98        0.00      78.74       1.78       0.38       1.42       ----

> <Gold.Chemscore.Fitness>
14.9456

> <Gold.Chemscore.DG>
-16.7501

> <Gold.Chemscore.ZeroCoef>
-5.4800

> <Gold.Chemscore.Hbond>
1.9782

> <Gold.Chemscore.Metal>
0.0000

> <Gold.Chemscore.Lipo>
78.7357

> <Gold.Chemscore.Internal_Hbond>
0.0000

> <Gold.Chemscore.DEClash>
0.3804

> <Gold.Chemscore.DEInternal>
1.4241

> <Gold.Chemscore.Rot>
1.7771

> <Gold.Chemscore.Internal.Correction>
   9.000000E+99

> <Gold.Chemscore.Hbonds>
donor molecule, donor type, donor heavy atom, donor atom, acceptor molecule, acceptor atom, score
      L1  H    17    50       P1  7948  0.25
      P1  H 10752 10765       L1     6  0.93

> <Gold.Chemscore.Hbond.Weighted>
-6.6073

> <Gold.Chemscore.Metal.Weighted>
-0.0000

> <Gold.Chemscore.Lipo.Weighted>
-9.2121

> <Gold.Chemscore.Internal_Hbond.Weighted>
0.0000

> <Gold.Chemscore.DEClash.Weighted>
0.3804

> <Gold.Chemscore.DEInternal.Weighted>
1.4241

> <Gold.Chemscore.Rot.Weighted>
4.5494

> <Gold.Chemscore.Internal.Correction.Weighted>
   9.000000E+99

> <Gold.Protein.RotatedTorsions>
[ 6907 6896 6895 6894 ] final  -18.58 input  -60.11 | X-H torsion
[ 7974 7965 7964 7962 ] final  -59.18 input  175.53 | X-H torsion
[ 8008 7997 7996 7995 ] final -121.30 input   59.86 | X-H torsion
[ 10167 10162 10161 10158 ] final  158.60 input  -65.29 | X-H torsion
[ 10718 10713 10712 10709 ] final  -88.18 input   66.30 | X-H torsion
[ 10763 10752 10751 10750 ] final  167.42 input  -60.55 | X-H torsion
[ 11005 11000 10999 10996 ] final   52.51 input  -57.11 | X-H torsion

> <Gold.Protein.ActiveResidues>
 VAL166  LYS551  ARG553  GLY616  TRP617  ASP618  TYR619  PRO620  LYS621  CYS622 
 ASP623  PHE694  ASN695  SER759  ASP760  ASP761  ALA762  ILE779  LEU786  VAL792 
 PHE793  MET794  SER795  GLU796  ALA797  LYS798  CYS799  TRP800  GLU811  SER814 

> <Gold.Protein.RotatedAtoms>
  151.2760  135.0699  159.9151 H   0  0  0  0  0  0  0  0  0  0  0  0  # atno 6907 bound_to 6896
  152.5342  134.0080  159.7936 H   0  0  0  0  0  0  0  0  0  0  0  0  # atno 6908 bound_to 6896
  151.0326  133.5726  159.2690 H   0  0  0  0  0  0  0  0  0  0  0  0  # atno 6909 bound_to 6896
  145.8305  140.8483  143.0086 H   0  0  0  0  0  0  0  0  0  0  0  0  # atno 7974 bound_to 7965
  155.1458  140.0403  157.2809 H   0  0  0  0  0  0  0  0  0  0  0  0  # atno 8008 bound_to 7997
  154.6440  140.2553  155.7263 H   0  0  0  0  0  0  0  0  0  0  0  0  # atno 8009 bound_to 7997
  156.2546  140.2850  156.0845 H   0  0  0  0  0  0  0  0  0  0  0  0  # atno 8010 bound_to 7997
  139.4827  144.4809  151.8445 H   0  0  0  0  0  0  0  0  0  0  0  0  # atno 10167 bound_to 10162
  155.9984  130.4826  150.4980 H   0  0  0  0  0  0  0  0  0  0  0  0  # atno 10718 bound_to 10713
  154.3536  135.2753  155.2358 H   0  0  0  0  0  0  0  0  0  0  0  0  # atno 10763 bound_to 10752
  154.4577  135.5915  153.6238 H   0  0  0  0  0  0  0  0  0  0  0  0  # atno 10764 bound_to 10752
  152.9848  135.6057  154.3749 H   0  0  0  0  0  0  0  0  0  0  0  0  # atno 10765 bound_to 10752
  140.0843  134.5296  155.8915 H   0  0  0  0  0  0  0  0  0  0  0  0  # atno 11005 bound_to 11000
  144.6740  140.0665  143.7474 LP  0  0  0  0  0  0  0  0  0  0  0  0  # atno 17320 bound_to 7965
  145.9576  139.2778  143.1174 LP  0  0  0  0  0  0  0  0  0  0  0  0  # atno 17321 bound_to 7965
  140.4285  144.2148  150.5887 LP  0  0  0  0  0  0  0  0  0  0  0  0  # atno 17342 bound_to 10162
  140.4803  143.2381  151.8965 LP  0  0  0  0  0  0  0  0  0  0  0  0  # atno 17343 bound_to 10162
  157.2968  131.0637  151.2096 LP  0  0  0  0  0  0  0  0  0  0  0  0  # atno 17370 bound_to 10713
  157.3089  130.6880  149.6205 LP  0  0  0  0  0  0  0  0  0  0  0  0  # atno 17371 bound_to 10713
  141.2057  133.6649  156.6198 LP  0  0  0  0  0  0  0  0  0  0  0  0  # atno 17394 bound_to 11000
  140.3443  134.7823  157.4420 LP  0  0  0  0  0  0  0  0  0  0  0  0  # atno 17395 bound_to 11000

$$$$
