AV-unprocessed.smi:3252|AV-procd|sdf|12440|dock10
  -GOLD-   2272018333D 1   1.00000     0.00000
 Structure written by MMmdl.
 37 38  0  0  0  0  0  0  0  0  2 V2000
  143.6801  132.6911  148.1908 C   0  0  0  0  0  0  0  0  0  0  0  0
  144.0976  134.0068  148.8620 C   0  0  0  0  0  0  0  0  0  0  0  0
  143.7366  134.0469  150.3040 N   0  3  2  0  0  0  0  0  0  0  0  0
  144.2463  135.2481  151.0085 C   0  0  0  0  0  0  0  0  0  0  0  0
  145.7419  135.1038  151.3385 C   0  0  0  0  0  0  0  0  0  0  0  0
  145.9375  133.9261  152.1096 O   0  0  0  0  0  0  0  0  0  0  0  0
  145.5776  132.7409  151.4068 C   0  0  1  0  0  0  0  0  0  0  0  0
  145.8898  131.5208  152.2915 C   0  0  0  0  0  0  0  0  0  0  0  0
  147.3046  131.1666  152.2782 N   0  0  0  0  0  0  0  0  0  0  0  0
  148.1677  131.5288  153.3231 C   0  0  0  0  0  0  0  0  0  0  0  0
  148.3980  132.9003  153.5605 C   0  0  0  0  0  0  0  0  0  0  0  0
  149.2635  133.2740  154.6074 C   0  0  0  0  0  0  0  0  0  0  0  0
  149.8685  132.2632  155.3801 C   0  0  0  0  0  0  0  0  0  0  0  0
  150.7669  132.5967  156.4719 C   0  0  0  0  0  0  0  0  0  0  0  0
  151.4824  132.8620  157.3415 N   0  0  0  0  0  0  0  0  0  0  0  0
  149.5802  130.9198  155.0667 C   0  0  0  0  0  0  0  0  0  0  0  0
  148.7524  130.5567  154.0633 N   0  0  0  0  0  0  0  0  0  0  0  0
  144.0720  132.8163  151.0669 C   0  0  0  0  0  0  0  0  0  0  0  0
  143.8678  132.7327  147.1176 H   0  0  0  0  0  0  0  0  0  0  0  0
  142.6162  132.4973  148.3314 H   0  0  0  0  0  0  0  0  0  0  0  0
  144.2332  131.8375  148.5816 H   0  0  0  0  0  0  0  0  0  0  0  0
  145.1630  134.1859  148.7193 H   0  0  0  0  0  0  0  0  0  0  0  0
  143.5813  134.8166  148.3451 H   0  0  0  0  0  0  0  0  0  0  0  0
  144.0617  136.1493  150.4230 H   0  0  0  0  0  0  0  0  0  0  0  0
  143.6842  135.3657  151.9357 H   0  0  0  0  0  0  0  0  0  0  0  0
  146.3499  135.0715  150.4334 H   0  0  0  0  0  0  0  0  0  0  0  0
  146.0817  135.9626  151.9177 H   0  0  0  0  0  0  0  0  0  0  0  0
  146.1633  132.6658  150.4892 H   0  0  0  0  0  0  0  0  0  0  0  0
  145.5283  131.6728  153.3090 H   0  0  0  0  0  0  0  0  0  0  0  0
  145.3485  130.6556  151.9082 H   0  0  0  0  0  0  0  0  0  0  0  0
  147.6939  130.7742  151.4329 H   0  0  0  0  0  0  0  0  0  0  0  0
  147.9214  133.6569  152.9542 H   0  0  0  0  0  0  0  0  0  0  0  0
  149.4550  134.3182  154.8090 H   0  0  0  0  0  0  0  0  0  0  0  0
  150.0213  130.1112  155.6319 H   0  0  0  0  0  0  0  0  0  0  0  0
  143.4957  132.8300  151.9934 H   0  0  0  0  0  0  0  0  0  0  0  0
  143.7530  131.9245  150.5290 H   0  0  0  0  0  0  0  0  0  0  0  0
  142.7299  134.1283  150.3185 H   0  0  0  0  0  0  0  0  0  0  0  0
  1  2  1  0  0  0  0
  1 19  1  0  0  0  0
  1 20  1  0  0  0  0
  1 21  1  0  0  0  0
  2  3  1  0  0  0  0
  2 22  1  0  0  0  0
  2 23  1  0  0  0  0
  3 18  1  0  0  0  0
  3  4  1  0  0  0  0
  3 37  1  0  0  0  0
  4  5  1  0  0  0  0
  4 24  1  0  0  0  0
  4 25  1  0  0  0  0
  5  6  1  0  0  0  0
  5 26  1  0  0  0  0
  5 27  1  0  0  0  0
  6  7  1  0  0  0  0
  7  8  1  0  0  0  0
  7 18  1  0  0  0  0
  7 28  1  0  0  0  0
  8  9  1  0  0  0  0
  8 29  1  0  0  0  0
  8 30  1  0  0  0  0
  9 10  1  0  0  0  0
  9 31  1  0  0  0  0
 10 17  1  0  0  0  0
 10 11  2  0  0  0  0
 11 12  1  0  0  0  0
 11 32  1  0  0  0  0
 12 13  2  0  0  0  0
 12 33  1  0  0  0  0
 13 14  1  0  0  0  0
 13 16  1  0  0  0  0
 14 15  3  0  0  0  0
 16 17  2  0  0  0  0
 16 34  1  0  0  0  0
 18 35  1  0  0  0  0
 18 36  1  0  0  0  0
M  CHG  1   3   1
M  END
> <s_m_source_file>
AV-unprocessed.smi

> <i_m_source_file_index>
3252

> <i_lp_mmshare_version>
43012

> <i_f3d_flags>
0

> <s_epik_input>
W0NIM11bQ0gyXU4xW0NIMl1bQ0gyXU9bQ0BIXShbQ0gyXTEpW0NIMl1bTkhdYzJbY0hdW2NIXWMoQyNOKVtjSF1uMg==

> <s_epik_cmdline>
J2VwaWtfcHl0aG9uJywgJy1waCcsICc3LjAnLCAnLXRuJywgJzgnLCAnLW1hJywgJzIwMCcsICctbWV0YWxfYmluZGluZycsICctaW1hZScsICc8aW5maWxlLm1hZT4nLCAnLW9tYWUnLCAnPG91dGZpbGUubWFlPic=

> <r_epik_Ionization_Penalty>
0.178512

> <r_epik_Ionization_Penalty_Charging>
0.178504

> <r_epik_Ionization_Penalty_Neutral>
8.15545e-06

> <r_epik_State_Penalty>
0.167974

> <r_epik_Charging_Adjusted_Penalty>
0.346478

> <i_epik_Tot_Q>
1

> <i_epik_Tot_abs_Q>
1

> <r_epik_Metal_State_Penalty>
0.167974

> <b_epik_Metal_Only>
0

> <s_lp_Force_Field>
OPLS_2005

> <r_lp_Energy>
19.5584

> <b_lp_Chiralities_Consistent>
1

> <s_lp_Variant>
AV-unprocessed.smi:3252-2

> <Gold.Version>
5.8.1

> <Gold.Id.Protein>
6NUR|6NUR_protein|mol2

> <Gold.PLP.Fitness>
41.6981

> <Gold.PLP.PLP>
-31.9914

> <Gold.PLP.part.hbond>
-3.0000

> <Gold.PLP.part.metal>
0.0000

> <Gold.PLP.part.buried>
0.7540

> <Gold.PLP.part.nonpolar>
-30.5948

> <Gold.PLP.part.repulsive>
0.1991

> <Gold.PLP.ligand.clash>
0.0000

> <Gold.PLP.ligand.torsion>
0.9646

> <Gold.PLP.Chemscore.Hbond>
3.8720

> <Gold.PLP.Chemscore.CHOScore>
0.0000

> <Gold.PLP.Chemscore.Metal>
0.0000

> <Gold.Chemscore.Hbonds>
donor molecule, donor type, donor heavy atom, donor atom, acceptor molecule, acceptor atom, score
      L1  H     3    37       P1 10186  2.00
      L1  H     9    31       P1 10747  0.93
      P1  H  6896  6907       L1    15  0.94

> <Gold.PLP.Chemscore.Internal.Correction>
0.0198

> <Gold.Rescore>
     Score         DG    S(hbond)    S(metal)    S(lipo)     H(rot)  DE(clash)    DE(int)     intcor
     18.65     -21.11       2.97        0.00      80.85       1.47       1.72       0.73       ----

> <Gold.Chemscore.Fitness>
18.6546

> <Gold.Chemscore.DG>
-21.1091

> <Gold.Chemscore.ZeroCoef>
-5.4800

> <Gold.Chemscore.Hbond>
2.9725

> <Gold.Chemscore.Metal>
0.0000

> <Gold.Chemscore.Lipo>
80.8511

> <Gold.Chemscore.Internal_Hbond>
0.0000

> <Gold.Chemscore.DEClash>
1.7199

> <Gold.Chemscore.DEInternal>
0.7347

> <Gold.Chemscore.Rot>
1.4681

> <Gold.Chemscore.Internal.Correction>
   9.000000E+99

> <Gold.Chemscore.Hbonds>
donor molecule, donor type, donor heavy atom, donor atom, acceptor molecule, acceptor atom, score
      L1  H     3    37       P1 10186  0.89
      L1  H     9    31       P1 10747  0.90
      P1  H  6896  6907       L1    15  0.90

> <Gold.Chemscore.Hbond.Weighted>
-9.9280

> <Gold.Chemscore.Metal.Weighted>
-0.0000

> <Gold.Chemscore.Lipo.Weighted>
-9.4596

> <Gold.Chemscore.Internal_Hbond.Weighted>
0.0000

> <Gold.Chemscore.DEClash.Weighted>
1.7199

> <Gold.Chemscore.DEInternal.Weighted>
0.7347

> <Gold.Chemscore.Rot.Weighted>
3.7584

> <Gold.Chemscore.Internal.Correction.Weighted>
   9.000000E+99

> <Gold.Protein.RotatedTorsions>
[ 6907 6896 6895 6894 ] final -163.22 input  -60.11 | X-H torsion
[ 7974 7965 7964 7962 ] final   -5.97 input  175.53 | X-H torsion
[ 8008 7997 7996 7995 ] final  127.84 input   59.86 | X-H torsion
[ 10167 10162 10161 10158 ] final  -64.44 input  -65.29 | X-H torsion
[ 10718 10713 10712 10709 ] final   65.06 input   66.30 | X-H torsion
[ 10763 10752 10751 10750 ] final  -48.34 input  -60.55 | X-H torsion
[ 11005 11000 10999 10996 ] final  137.50 input  -57.11 | X-H torsion

> <Gold.Protein.ActiveResidues>
 VAL166  LYS551  ARG553  GLY616  TRP617  ASP618  TYR619  PRO620  LYS621  CYS622 
 ASP623  PHE694  ASN695  SER759  ASP760  ASP761  ALA762  ILE779  LEU786  VAL792 
 PHE793  MET794  SER795  GLU796  ALA797  LYS798  CYS799  TRP800  GLU811  SER814 

> <Gold.Protein.RotatedAtoms>
  151.3926  133.3784  159.2722 H   0  0  0  0  0  0  0  0  0  0  0  0  # atno 6907 bound_to 6896
  150.9493  134.8896  159.7672 H   0  0  0  0  0  0  0  0  0  0  0  0  # atno 6908 bound_to 6896
  152.5105  134.3881  159.9426 H   0  0  0  0  0  0  0  0  0  0  0  0  # atno 6909 bound_to 6896
  146.2341  140.2101  142.8335 H   0  0  0  0  0  0  0  0  0  0  0  0  # atno 7974 bound_to 7965
  156.2900  140.2659  156.2338 H   0  0  0  0  0  0  0  0  0  0  0  0  # atno 8008 bound_to 7997
  155.0046  140.0387  157.2392 H   0  0  0  0  0  0  0  0  0  0  0  0  # atno 8009 bound_to 7997
  154.7571  140.2754  155.6249 H   0  0  0  0  0  0  0  0  0  0  0  0  # atno 8010 bound_to 7997
  140.5800  143.2326  151.6361 H   0  0  0  0  0  0  0  0  0  0  0  0  # atno 10167 bound_to 10162
  157.6080  130.9193  149.9927 H   0  0  0  0  0  0  0  0  0  0  0  0  # atno 10718 bound_to 10713
  154.0762  135.6597  153.4831 H   0  0  0  0  0  0  0  0  0  0  0  0  # atno 10763 bound_to 10752
  153.0372  135.5169  154.7518 H   0  0  0  0  0  0  0  0  0  0  0  0  # atno 10764 bound_to 10752
  154.6599  135.3013  154.9847 H   0  0  0  0  0  0  0  0  0  0  0  0  # atno 10765 bound_to 10752
  140.0118  134.9435  157.0294 H   0  0  0  0  0  0  0  0  0  0  0  0  # atno 11005 bound_to 11000
  144.9714  140.8372  143.5453 LP  0  0  0  0  0  0  0  0  0  0  0  0  # atno 17320 bound_to 7965
  145.2083  139.2217  143.5157 LP  0  0  0  0  0  0  0  0  0  0  0  0  # atno 17321 bound_to 7965
  139.5164  144.3346  152.0795 LP  0  0  0  0  0  0  0  0  0  0  0  0  # atno 17342 bound_to 10162
  140.2495  144.4184  150.6227 LP  0  0  0  0  0  0  0  0  0  0  0  0  # atno 17343 bound_to 10162
  156.1173  130.3647  149.9946 LP  0  0  0  0  0  0  0  0  0  0  0  0  # atno 17370 bound_to 10713
  156.8033  130.9298  151.3645 LP  0  0  0  0  0  0  0  0  0  0  0  0  # atno 17371 bound_to 10713
  140.4540  134.1552  155.7184 LP  0  0  0  0  0  0  0  0  0  0  0  0  # atno 17394 bound_to 11000
  141.1716  133.8597  157.1552 LP  0  0  0  0  0  0  0  0  0  0  0  0  # atno 17395 bound_to 11000

$$$$
