AV-unprocessed.smi:1632|AV-procd|sdf|6530|dock1
  -GOLD-   22720 7213D 1   1.00000     0.00000
 Structure written by MMmdl.
 43 45  0  0  0  0  0  0  0  0  2 V2000
  153.5531  138.6794  157.2574 O   0  0  0  0  0  0  0  0  0  0  0  0
  152.2310  138.1956  157.3400 C   0  0  0  0  0  0  0  0  0  0  0  0
  151.9008  137.3761  156.0826 C   0  0  0  0  0  0  0  0  0  0  0  0
  151.9569  138.1912  154.7799 C   0  0  0  0  0  0  0  0  0  0  0  0
  150.6907  138.9463  154.5254 C   0  0  0  0  0  0  0  0  0  0  0  0
  149.6607  138.5259  153.7382 N   0  3  0  0  0  0  0  0  0  0  0  0
  148.6530  139.4905  153.7219 C   0  0  0  0  0  0  0  0  0  0  0  0
  147.4234  139.5113  153.0708 C   0  0  0  0  0  0  0  0  0  0  0  0
  146.6229  140.6556  153.2670 C   0  0  0  0  0  0  0  0  0  0  0  0
  147.0529  141.7208  154.0847 C   0  0  0  0  0  0  0  0  0  0  0  0
  148.3017  141.6881  154.7392 C   0  0  0  0  0  0  0  0  0  0  0  0
  149.0889  140.5540  154.5382 C   0  0  0  0  0  0  0  0  0  0  0  0
  150.3522  140.1761  155.0104 N   0  0  0  0  0  0  0  0  0  0  0  0
  151.0947  141.0834  155.9007 C   0  0  0  0  0  0  0  0  0  0  0  0
  150.7999  140.8333  157.3939 C   0  0  2  0  0  0  0  0  0  0  0  0
  149.4069  140.7238  157.6130 O   0  0  0  0  0  0  0  0  0  0  0  0
  151.4413  141.8954  158.2757 C   0  0  0  0  0  0  0  0  0  0  0  0
  151.1256  143.2560  158.0683 C   0  0  0  0  0  0  0  0  0  0  0  0
  151.7033  144.2532  158.8774 C   0  0  0  0  0  0  0  0  0  0  0  0
  152.6004  143.8968  159.9016 C   0  0  0  0  0  0  0  0  0  0  0  0
  152.9179  142.5423  160.1169 C   0  0  0  0  0  0  0  0  0  0  0  0
  152.3411  141.5426  159.3093 C   0  0  0  0  0  0  0  0  0  0  0  0
  152.6544  140.2441  159.5363 F   0  0  0  0  0  0  0  0  0  0  0  0
  154.0130  138.4375  158.0469 H   0  0  0  0  0  0  0  0  0  0  0  0
  152.1329  137.5828  158.2361 H   0  0  0  0  0  0  0  0  0  0  0  0
  151.5553  139.0445  157.4465 H   0  0  0  0  0  0  0  0  0  0  0  0
  152.5809  136.5265  156.0096 H   0  0  0  0  0  0  0  0  0  0  0  0
  150.8999  136.9554  156.1867 H   0  0  0  0  0  0  0  0  0  0  0  0
  152.7795  138.9050  154.8306 H   0  0  0  0  0  0  0  0  0  0  0  0
  152.1730  137.5368  153.9352 H   0  0  0  0  0  0  0  0  0  0  0  0
  147.0911  138.6953  152.4458 H   0  0  0  0  0  0  0  0  0  0  0  0
  145.6593  140.7170  152.7821 H   0  0  0  0  0  0  0  0  0  0  0  0
  146.4115  142.5805  154.2143 H   0  0  0  0  0  0  0  0  0  0  0  0
  148.6167  142.5072  155.3689 H   0  0  0  0  0  0  0  0  0  0  0  0
  152.1564  140.9323  155.7048 H   0  0  0  0  0  0  0  0  0  0  0  0
  150.8859  142.1144  155.6166 H   0  0  0  0  0  0  0  0  0  0  0  0
  151.2233  139.8658  157.6666 H   0  0  0  0  0  0  0  0  0  0  0  0
  149.1497  139.8267  157.4627 H   0  0  0  0  0  0  0  0  0  0  0  0
  150.4369  143.5424  157.2869 H   0  0  0  0  0  0  0  0  0  0  0  0
  151.4576  145.2920  158.7121 H   0  0  0  0  0  0  0  0  0  0  0  0
  153.0436  144.6614  160.5225 H   0  0  0  0  0  0  0  0  0  0  0  0
  153.6047  142.2691  160.9045 H   0  0  0  0  0  0  0  0  0  0  0  0
  149.6511  137.6413  153.2470 H   0  0  0  0  0  0  0  0  0  0  0  0
  1  2  1  0  0  0  0
  1 24  1  0  0  0  0
  2  3  1  0  0  0  0
  2 25  1  0  0  0  0
  2 26  1  0  0  0  0
  3  4  1  0  0  0  0
  3 27  1  0  0  0  0
  3 28  1  0  0  0  0
  4  5  1  0  0  0  0
  4 29  1  0  0  0  0
  4 30  1  0  0  0  0
  5 13  1  0  0  0  0
  5  6  2  0  0  0  0
  6  7  1  0  0  0  0
  6 43  1  0  0  0  0
  7 12  2  0  0  0  0
  7  8  1  0  0  0  0
  8  9  2  0  0  0  0
  8 31  1  0  0  0  0
  9 10  1  0  0  0  0
  9 32  1  0  0  0  0
 10 11  2  0  0  0  0
 10 33  1  0  0  0  0
 11 12  1  0  0  0  0
 11 34  1  0  0  0  0
 12 13  1  0  0  0  0
 13 14  1  0  0  0  0
 14 15  1  0  0  0  0
 14 35  1  0  0  0  0
 14 36  1  0  0  0  0
 15 16  1  0  0  0  0
 15 17  1  0  0  0  0
 15 37  1  0  0  0  0
 16 38  1  0  0  0  0
 17 22  1  0  0  0  0
 17 18  2  0  0  0  0
 18 19  1  0  0  0  0
 18 39  1  0  0  0  0
 19 20  2  0  0  0  0
 19 40  1  0  0  0  0
 20 21  1  0  0  0  0
 20 41  1  0  0  0  0
 21 22  2  0  0  0  0
 21 42  1  0  0  0  0
 22 23  1  0  0  0  0
M  CHG  1   6   1
M  END
> <s_m_source_file>
AV-unprocessed.smi

> <i_m_source_file_index>
1632

> <i_lp_mmshare_version>
43012

> <i_f3d_flags>
0

> <s_epik_input>
W09IXVtDSDJdW0NIMl1bQ0gyXWMobjEpbihjKGMxMilbY0hdW2NIXVtjSF1bY0hdMilbQ0gyXVtDQEhdKFtPSF0pYzNbY0hdW2NIXVtjSF1bY0hdYzNG

> <s_epik_cmdline>
J2VwaWtfcHl0aG9uJywgJy1waCcsICc3LjAnLCAnLXRuJywgJzgnLCAnLW1hJywgJzIwMCcsICctbWV0YWxfYmluZGluZycsICctaW1hZScsICc8aW5maWxlLm1hZT4nLCAnLW9tYWUnLCAnPG91dGZpbGUubWFlPic=

> <r_epik_Ionization_Penalty>
0.786441

> <r_epik_Ionization_Penalty_Charging>
0.786439

> <r_epik_Ionization_Penalty_Neutral>
1.50852e-06

> <r_epik_State_Penalty>
0.816472

> <r_epik_Charging_Adjusted_Penalty>
1.60291

> <i_epik_Tot_Q>
1

> <i_epik_Tot_abs_Q>
1

> <r_epik_Metal_State_Penalty>
4.73733

> <b_epik_Metal_Only>
0

> <s_lp_Force_Field>
OPLS_2005

> <r_lp_Energy>
17.2969

> <b_lp_Chiralities_Consistent>
1

> <s_lp_Variant>
AV-unprocessed.smi:1632-3

> <Gold.Version>
5.8.1

> <Gold.Id.Protein>
6NUR|6NUR_protein|mol2

> <Gold.PLP.Fitness>
56.7428

> <Gold.PLP.PLP>
-49.5605

> <Gold.PLP.part.hbond>
-3.0000

> <Gold.PLP.part.metal>
0.0000

> <Gold.PLP.part.buried>
1.5759

> <Gold.PLP.part.nonpolar>
-48.4819

> <Gold.PLP.part.repulsive>
0.0637

> <Gold.PLP.ligand.clash>
0.0000

> <Gold.PLP.ligand.torsion>
0.9647

> <Gold.PLP.Chemscore.Hbond>
2.9920

> <Gold.PLP.Chemscore.CHOScore>
0.0000

> <Gold.PLP.Chemscore.Metal>
0.0000

> <Gold.Chemscore.Hbonds>
donor molecule, donor type, donor heavy atom, donor atom, acceptor molecule, acceptor atom, score
      L1  H     6    43       P1  7948  1.85
      P1  H  7997  8008       L1     1  1.00

> <Gold.PLP.Chemscore.Internal.Correction>
0.1356

> <Gold.Rescore>
     Score         DG    S(hbond)    S(metal)    S(lipo)     H(rot)  DE(clash)    DE(int)     intcor
     15.71     -17.09       1.20        0.00     134.02       3.16       0.29       1.09       ----

> <Gold.Chemscore.Fitness>
15.7059

> <Gold.Chemscore.DG>
-17.0911

> <Gold.Chemscore.ZeroCoef>
-5.4800

> <Gold.Chemscore.Hbond>
1.2039

> <Gold.Chemscore.Metal>
0.0000

> <Gold.Chemscore.Lipo>
134.0245

> <Gold.Chemscore.Internal_Hbond>
0.0000

> <Gold.Chemscore.DEClash>
0.2946

> <Gold.Chemscore.DEInternal>
1.0906

> <Gold.Chemscore.Rot>
3.1604

> <Gold.Chemscore.Internal.Correction>
   9.000000E+99

> <Gold.Chemscore.Hbonds>
donor molecule, donor type, donor heavy atom, donor atom, acceptor molecule, acceptor atom, score
      L1  H     6    43       P1  7948  0.68
      P1  H  7997  8008       L1     1  0.25

> <Gold.Chemscore.Hbond.Weighted>
-4.0209

> <Gold.Chemscore.Metal.Weighted>
-0.0000

> <Gold.Chemscore.Lipo.Weighted>
-15.6809

> <Gold.Chemscore.Internal_Hbond.Weighted>
0.0000

> <Gold.Chemscore.DEClash.Weighted>
0.2946

> <Gold.Chemscore.DEInternal.Weighted>
1.0906

> <Gold.Chemscore.Rot.Weighted>
8.0907

> <Gold.Chemscore.Internal.Correction.Weighted>
   9.000000E+99

> <Gold.Protein.RotatedTorsions>
[ 6907 6896 6895 6894 ] final  138.36 input  -60.11 | X-H torsion
[ 7974 7965 7964 7962 ] final -107.78 input  175.53 | X-H torsion
[ 8008 7997 7996 7995 ] final  -69.92 input   59.86 | X-H torsion
[ 10167 10162 10161 10158 ] final   11.22 input  -65.29 | X-H torsion
[ 10718 10713 10712 10709 ] final   65.92 input   66.30 | X-H torsion
[ 10763 10752 10751 10750 ] final  -12.45 input  -60.55 | X-H torsion
[ 11005 11000 10999 10996 ] final    7.88 input  -57.11 | X-H torsion

> <Gold.Protein.ActiveResidues>
 VAL166  LYS551  ARG553  GLY616  TRP617  ASP618  TYR619  PRO620  LYS621  CYS622 
 ASP623  PHE694  ASN695  SER759  ASP760  ASP761  ALA762  ILE779  LEU786  VAL792 
 PHE793  MET794  SER795  GLU796  ALA797  LYS798  CYS799  TRP800  GLU811  SER814 

> <Gold.Protein.RotatedAtoms>
  152.2675  133.5352  159.5418 H   0  0  0  0  0  0  0  0  0  0  0  0  # atno 6907 bound_to 6896
  150.7147  134.0744  159.3885 H   0  0  0  0  0  0  0  0  0  0  0  0  # atno 6908 bound_to 6896
  151.8660  135.0507  160.0525 H   0  0  0  0  0  0  0  0  0  0  0  0  # atno 6909 bound_to 6896
  145.2010  140.9056  143.3369 H   0  0  0  0  0  0  0  0  0  0  0  0  # atno 7974 bound_to 7965
  154.4974  140.0844  156.7725 H   0  0  0  0  0  0  0  0  0  0  0  0  # atno 8008 bound_to 7997
  155.4084  140.3440  155.4243 H   0  0  0  0  0  0  0  0  0  0  0  0  # atno 8009 bound_to 7997
  156.1411  140.1530  156.8906 H   0  0  0  0  0  0  0  0  0  0  0  0  # atno 8010 bound_to 7997
  140.6145  143.8337  150.7103 H   0  0  0  0  0  0  0  0  0  0  0  0  # atno 10167 bound_to 10162
  157.6136  130.9240  150.0040 H   0  0  0  0  0  0  0  0  0  0  0  0  # atno 10718 bound_to 10713
  153.4987  135.7017  153.5844 H   0  0  0  0  0  0  0  0  0  0  0  0  # atno 10763 bound_to 10752
  153.3985  135.3878  155.1971 H   0  0  0  0  0  0  0  0  0  0  0  0  # atno 10764 bound_to 10752
  154.8712  135.3875  154.4455 H   0  0  0  0  0  0  0  0  0  0  0  0  # atno 10765 bound_to 10752
  140.5433  134.0353  155.7911 H   0  0  0  0  0  0  0  0  0  0  0  0  # atno 11005 bound_to 11000
  144.9948  139.3655  143.6197 LP  0  0  0  0  0  0  0  0  0  0  0  0  # atno 17320 bound_to 7965
  146.3417  139.9146  142.8775 LP  0  0  0  0  0  0  0  0  0  0  0  0  # atno 17321 bound_to 7965
  140.1913  143.4034  152.1861 LP  0  0  0  0  0  0  0  0  0  0  0  0  # atno 17342 bound_to 10162
  139.5388  144.7236  151.4804 LP  0  0  0  0  0  0  0  0  0  0  0  0  # atno 17343 bound_to 10162
  156.1249  130.3645  149.9827 LP  0  0  0  0  0  0  0  0  0  0  0  0  # atno 17370 bound_to 10713
  156.7899  130.9252  151.3646 LP  0  0  0  0  0  0  0  0  0  0  0  0  # atno 17371 bound_to 10713
  141.1214  133.9454  157.2721 LP  0  0  0  0  0  0  0  0  0  0  0  0  # atno 17394 bound_to 11000
  139.9493  135.0178  156.8945 LP  0  0  0  0  0  0  0  0  0  0  0  0  # atno 17395 bound_to 11000

$$$$
