AV-unprocessed.smi:2784|AV-procd|sdf|10735|dock5
  -GOLD-   2272015173D 1   1.00000     0.00000
 Structure written by MMmdl.
 31 32  0  0  0  0  0  0  0  0  1 V2000
  148.7223  141.1962  154.0876 C   0  0  0  0  0  0  0  0  0  0  0  0
  149.9701  140.5221  154.0765 O   0  0  0  0  0  0  0  0  0  0  0  0
  150.0306  139.4098  154.9655 C   0  0  1  0  0  0  0  0  0  0  0  0
  150.8422  138.3249  154.2552 C   0  0  0  0  0  0  0  0  0  0  0  0
  152.2953  138.7084  154.5190 C   0  0  0  0  0  0  0  0  0  0  0  0
  152.2948  139.2574  155.9476 C   0  0  0  0  0  0  0  0  0  0  0  0
  150.8591  139.7436  156.2292 C   0  0  1  0  0  0  0  0  0  0  0  0
  150.8456  141.1665  156.5651 N   0  0  0  0  0  0  0  0  0  0  0  0
  151.4935  141.7314  157.5944 C   0  0  0  0  0  0  0  0  0  0  0  0
  152.1832  141.0607  158.3691 O   0  0  0  0  0  0  0  0  0  0  0  0
  151.2441  143.0964  157.6195 N   0  0  0  0  0  0  0  0  0  0  0  0
  151.4333  143.7736  158.7106 C   0  0  0  0  0  0  0  0  0  0  0  0
  151.8714  143.4203  159.9841 N   0  0  0  0  0  0  0  0  0  0  0  0
  151.8850  144.5466  160.7583 C   0  0  0  0  0  0  0  0  0  0  0  0
  151.4731  145.5655  160.0102 C   0  0  0  0  0  0  0  0  0  0  0  0
  151.1894  145.1234  158.7528 O   0  0  0  0  0  0  0  0  0  0  0  0
  148.7630  142.0530  153.4152 H   0  0  0  0  0  0  0  0  0  0  0  0
  148.4748  141.5617  155.0844 H   0  0  0  0  0  0  0  0  0  0  0  0
  147.9212  140.5388  153.7476 H   0  0  0  0  0  0  0  0  0  0  0  0
  149.0354  139.0408  155.2221 H   0  0  0  0  0  0  0  0  0  0  0  0
  150.6339  137.3556  154.7101 H   0  0  0  0  0  0  0  0  0  0  0  0
  150.6110  138.2477  153.1921 H   0  0  0  0  0  0  0  0  0  0  0  0
  152.9811  137.8706  154.3913 H   0  0  0  0  0  0  0  0  0  0  0  0
  152.5973  139.4934  153.8245 H   0  0  0  0  0  0  0  0  0  0  0  0
  152.5520  138.4615  156.6474 H   0  0  0  0  0  0  0  0  0  0  0  0
  153.0443  140.0412  156.0678 H   0  0  0  0  0  0  0  0  0  0  0  0
  150.4746  139.1620  157.0692 H   0  0  0  0  0  0  0  0  0  0  0  0
  150.2876  141.7661  155.9744 H   0  0  0  0  0  0  0  0  0  0  0  0
  152.1451  142.5075  160.3190 H   0  0  0  0  0  0  0  0  0  0  0  0
  152.1974  144.4968  161.7910 H   0  0  0  0  0  0  0  0  0  0  0  0
  151.3344  146.6168  160.2146 H   0  0  0  0  0  0  0  0  0  0  0  0
  1  2  1  0  0  0  0
  1 17  1  0  0  0  0
  1 18  1  0  0  0  0
  1 19  1  0  0  0  0
  2  3  1  0  0  0  0
  3  7  1  0  0  0  0
  3  4  1  0  0  0  0
  3 20  1  0  0  0  0
  4  5  1  0  0  0  0
  4 21  1  0  0  0  0
  4 22  1  0  0  0  0
  5  6  1  0  0  0  0
  5 23  1  0  0  0  0
  5 24  1  0  0  0  0
  6  7  1  0  0  0  0
  6 25  1  0  0  0  0
  6 26  1  0  0  0  0
  7  8  1  0  0  0  0
  7 27  1  0  0  0  0
  8 28  1  0  0  0  0
  8  9  1  0  0  0  0
  9 11  1  0  0  0  0
  9 10  2  0  0  0  0
 11 12  2  0  0  0  0
 12 16  1  0  0  0  0
 12 13  1  0  0  0  0
 13 29  1  0  0  0  0
 13 14  1  0  0  0  0
 14 30  1  0  0  0  0
 14 15  2  0  0  0  0
 15 31  1  0  0  0  0
 15 16  1  0  0  0  0
M  END
> <s_m_source_file>
AV-unprocessed.smi

> <i_m_source_file_index>
2784

> <i_lp_mmshare_version>
43012

> <i_f3d_flags>
0

> <s_epik_input>
W0NIM11PW0NAQEhdMVtDSDJdW0NIMl1bQ0gyXVtDQEhdMVtOSF1DKD1PKVtOSF1jMm5bY0hdW2NIXW8y

> <s_epik_cmdline>
J2VwaWtfcHl0aG9uJywgJy1waCcsICc3LjAnLCAnLXRuJywgJzgnLCAnLW1hJywgJzIwMCcsICctbWV0YWxfYmluZGluZycsICctaW1hZScsICc8aW5maWxlLm1hZT4nLCAnLW9tYWUnLCAnPG91dGZpbGUubWFlPic=

> <r_lp_tautomer_probability>
0.107061

> <r_epik_Ionization_Penalty>
1.29244

> <r_epik_Ionization_Penalty_Charging>
1.29208

> <r_epik_Ionization_Penalty_Neutral>
0.000359742

> <r_epik_State_Penalty>
2.59896

> <r_epik_Charging_Adjusted_Penalty>
3.89105

> <i_epik_Tot_Q>
0

> <i_epik_Tot_abs_Q>
0

> <r_epik_Metal_State_Penalty>
3.62496

> <b_epik_Metal_Only>
0

> <s_lp_Force_Field>
OPLS_2005

> <r_lp_Energy>
46.0915

> <b_lp_Chiralities_Consistent>
1

> <s_lp_Variant>
AV-unprocessed.smi:2784-10

> <Gold.Version>
5.8.1

> <Gold.Id.Protein>
6NUR|6NUR_protein|mol2

> <Gold.PLP.Fitness>
33.7340

> <Gold.PLP.PLP>
-32.7951

> <Gold.PLP.part.hbond>
-1.0000

> <Gold.PLP.part.metal>
0.0000

> <Gold.PLP.part.buried>
-6.5739

> <Gold.PLP.part.nonpolar>
-26.0834

> <Gold.PLP.part.repulsive>
1.3696

> <Gold.PLP.ligand.clash>
0.0000

> <Gold.PLP.ligand.torsion>
0.6646

> <Gold.PLP.Chemscore.Hbond>
0.7520

> <Gold.PLP.Chemscore.CHOScore>
0.0000

> <Gold.PLP.Chemscore.Metal>
0.0000

> <Gold.Chemscore.Hbonds>
donor molecule, donor type, donor heavy atom, donor atom, acceptor molecule, acceptor atom, score
      P1  H  7989  7998       L1     2  0.74

> <Gold.PLP.Chemscore.Internal.Correction>
0.0122

> <Gold.Rescore>
     Score         DG    S(hbond)    S(metal)    S(lipo)     H(rot)  DE(clash)    DE(int)     intcor
     12.23     -12.92       0.93        0.00      66.04       1.32       0.01       0.68       ----

> <Gold.Chemscore.Fitness>
12.2286

> <Gold.Chemscore.DG>
-12.9155

> <Gold.Chemscore.ZeroCoef>
-5.4800

> <Gold.Chemscore.Hbond>
0.9273

> <Gold.Chemscore.Metal>
0.0000

> <Gold.Chemscore.Lipo>
66.0378

> <Gold.Chemscore.Internal_Hbond>
0.0000

> <Gold.Chemscore.DEClash>
0.0089

> <Gold.Chemscore.DEInternal>
0.6780

> <Gold.Chemscore.Rot>
1.3235

> <Gold.Chemscore.Internal.Correction>
   9.000000E+99

> <Gold.Chemscore.Hbonds>
donor molecule, donor type, donor heavy atom, donor atom, acceptor molecule, acceptor atom, score
      P1  H  7989  7998       L1     2  0.55

> <Gold.Chemscore.Hbond.Weighted>
-3.0973

> <Gold.Chemscore.Metal.Weighted>
-0.0000

> <Gold.Chemscore.Lipo.Weighted>
-7.7264

> <Gold.Chemscore.Internal_Hbond.Weighted>
0.0000

> <Gold.Chemscore.DEClash.Weighted>
0.0089

> <Gold.Chemscore.DEInternal.Weighted>
0.6780

> <Gold.Chemscore.Rot.Weighted>
3.3882

> <Gold.Chemscore.Internal.Correction.Weighted>
   9.000000E+99

> <Gold.Protein.RotatedTorsions>
[ 6907 6896 6895 6894 ] final  110.39 input  -60.11 | X-H torsion
[ 7974 7965 7964 7962 ] final   -7.59 input  175.53 | X-H torsion
[ 8008 7997 7996 7995 ] final  -97.24 input   59.86 | X-H torsion
[ 10167 10162 10161 10158 ] final -175.18 input  -65.29 | X-H torsion
[ 10718 10713 10712 10709 ] final  -42.23 input   66.30 | X-H torsion
[ 10763 10752 10751 10750 ] final   71.26 input  -60.55 | X-H torsion
[ 11005 11000 10999 10996 ] final  -88.48 input  -57.11 | X-H torsion

> <Gold.Protein.ActiveResidues>
 VAL166  LYS551  ARG553  GLY616  TRP617  ASP618  TYR619  PRO620  LYS621  CYS622 
 ASP623  PHE694  ASN695  SER759  ASP760  ASP761  ALA762  ILE779  LEU786  VAL792 
 PHE793  MET794  SER795  GLU796  ALA797  LYS798  CYS799  TRP800  GLU811  SER814 

> <Gold.Protein.RotatedAtoms>
  152.5022  133.8808  159.7344 H   0  0  0  0  0  0  0  0  0  0  0  0  # atno 6907 bound_to 6896
  150.9271  133.6802  159.2826 H   0  0  0  0  0  0  0  0  0  0  0  0  # atno 6908 bound_to 6896
  151.4159  135.0996  159.9652 H   0  0  0  0  0  0  0  0  0  0  0  0  # atno 6909 bound_to 6896
  146.2303  140.2342  142.8341 H   0  0  0  0  0  0  0  0  0  0  0  0  # atno 7974 bound_to 7965
  154.7852  140.0464  157.1158 H   0  0  0  0  0  0  0  0  0  0  0  0  # atno 8008 bound_to 7997
  154.9657  140.3083  155.4991 H   0  0  0  0  0  0  0  0  0  0  0  0  # atno 8009 bound_to 7997
  156.2942  140.2262  156.4746 H   0  0  0  0  0  0  0  0  0  0  0  0  # atno 8010 bound_to 7997
  139.5594  144.1907  152.1214 H   0  0  0  0  0  0  0  0  0  0  0  0  # atno 10167 bound_to 10162
  156.2618  130.4198  149.8534 H   0  0  0  0  0  0  0  0  0  0  0  0  # atno 10718 bound_to 10713
  153.0388  135.5143  154.7565 H   0  0  0  0  0  0  0  0  0  0  0  0  # atno 10763 bound_to 10752
  154.6520  135.2926  154.9978 H   0  0  0  0  0  0  0  0  0  0  0  0  # atno 10764 bound_to 10752
  154.0859  135.6657  153.4897 H   0  0  0  0  0  0  0  0  0  0  0  0  # atno 10765 bound_to 10752
  141.1601  133.7572  156.9457 H   0  0  0  0  0  0  0  0  0  0  0  0  # atno 11005 bound_to 11000
  144.9534  140.8202  143.5558 LP  0  0  0  0  0  0  0  0  0  0  0  0  # atno 17320 bound_to 7965
  145.2305  139.2117  143.5045 LP  0  0  0  0  0  0  0  0  0  0  0  0  # atno 17321 bound_to 7965
  140.1417  144.5196  150.6740 LP  0  0  0  0  0  0  0  0  0  0  0  0  # atno 17342 bound_to 10162
  140.6872  143.2356  151.5228 LP  0  0  0  0  0  0  0  0  0  0  0  0  # atno 17343 bound_to 10162
  156.6047  130.8561  151.3440 LP  0  0  0  0  0  0  0  0  0  0  0  0  # atno 17370 bound_to 10713
  157.7253  130.9614  150.1609 LP  0  0  0  0  0  0  0  0  0  0  0  0  # atno 17371 bound_to 10713
  140.1291  134.9367  157.2312 LP  0  0  0  0  0  0  0  0  0  0  0  0  # atno 17394 bound_to 11000
  140.2975  134.3169  155.7298 LP  0  0  0  0  0  0  0  0  0  0  0  0  # atno 17395 bound_to 11000

$$$$
