AV-unprocessed.smi:2530|AV-procd|sdf|9963|dock7
  -GOLD-   2272014 03D 1   1.00000     0.00000
 Structure written by MMmdl.
 44 46  0  0  0  0  0  0  0  0  1 V2000
  154.1196  140.7909  161.1788 C   0  0  0  0  0  0  0  0  0  0  0  0
  153.2045  141.9526  160.8513 C   0  0  0  0  0  0  0  0  0  0  0  0
  153.1233  143.0567  161.7198 C   0  0  0  0  0  0  0  0  0  0  0  0
  152.2684  144.1305  161.4126 C   0  0  0  0  0  0  0  0  0  0  0  0
  151.4912  144.1175  160.2345 C   0  0  0  0  0  0  0  0  0  0  0  0
  150.5716  145.2952  159.9603 C   0  0  0  0  0  0  0  0  0  0  0  0
  151.5794  143.0135  159.3452 C   0  0  0  0  0  0  0  0  0  0  0  0
  150.7585  142.9487  158.0566 C   0  0  1  0  0  0  0  0  0  0  0  0
  150.9892  144.0790  157.2368 O   0  0  0  0  0  0  0  0  0  0  0  0
  151.1013  141.6757  157.2507 C   0  0  0  0  0  0  0  0  0  0  0  0
  149.9826  141.2216  156.4065 N   0  0  0  0  0  0  0  0  0  0  0  0
  148.6936  141.6234  156.8067 C   0  0  0  0  0  0  0  0  0  0  0  0
  147.6357  141.2857  156.1403 N   0  0  0  0  0  0  0  0  0  0  0  0
  147.7598  140.4981  154.9901 C   0  0  0  0  0  0  0  0  0  0  0  0
  146.4805  140.1091  154.2618 C   0  0  0  0  0  0  0  0  0  0  0  0
  146.2624  138.6043  154.0301 C   0  0  0  0  0  0  0  0  0  0  0  0
  145.6951  138.9638  152.6525 C   0  0  0  0  0  0  0  0  0  0  0  0
  146.5030  140.2640  152.7322 C   0  0  0  0  0  0  0  0  0  0  0  0
  148.9775  140.0792  154.5707 C   0  0  0  0  0  0  0  0  0  0  0  0
  150.1902  140.4492  155.3004 C   0  0  0  0  0  0  0  0  0  0  0  0
  151.3120  140.0887  154.9449 O   0  0  0  0  0  0  0  0  0  0  0  0
  152.4343  141.9351  159.6721 C   0  0  0  0  0  0  0  0  0  0  0  0
  154.2656  140.7007  162.2557 H   0  0  0  0  0  0  0  0  0  0  0  0
  155.0931  140.9365  160.7105 H   0  0  0  0  0  0  0  0  0  0  0  0
  153.6999  139.8523  160.8154 H   0  0  0  0  0  0  0  0  0  0  0  0
  153.7121  143.0825  162.6252 H   0  0  0  0  0  0  0  0  0  0  0  0
  152.2110  144.9681  162.0923 H   0  0  0  0  0  0  0  0  0  0  0  0
  150.8895  145.8308  159.0657 H   0  0  0  0  0  0  0  0  0  0  0  0
  150.5735  146.0029  160.7899 H   0  0  0  0  0  0  0  0  0  0  0  0
  149.5460  144.9546  159.8211 H   0  0  0  0  0  0  0  0  0  0  0  0
  149.6968  142.9631  158.2970 H   0  0  0  0  0  0  0  0  0  0  0  0
  150.1657  144.5235  157.1035 H   0  0  0  0  0  0  0  0  0  0  0  0
  152.0156  141.8279  156.6732 H   0  0  0  0  0  0  0  0  0  0  0  0
  151.3507  140.8708  157.9445 H   0  0  0  0  0  0  0  0  0  0  0  0
  148.6515  142.2308  157.7125 H   0  0  0  0  0  0  0  0  0  0  0  0
  145.6028  140.5825  154.7058 H   0  0  0  0  0  0  0  0  0  0  0  0
  147.1895  138.0323  153.9584 H   0  0  0  0  0  0  0  0  0  0  0  0
  145.5504  138.1360  154.7102 H   0  0  0  0  0  0  0  0  0  0  0  0
  145.9893  138.2909  151.8465 H   0  0  0  0  0  0  0  0  0  0  0  0
  144.6171  139.1324  152.6681 H   0  0  0  0  0  0  0  0  0  0  0  0
  145.9865  141.1471  152.3550 H   0  0  0  0  0  0  0  0  0  0  0  0
  147.4995  140.1617  152.2983 H   0  0  0  0  0  0  0  0  0  0  0  0
  149.0641  139.4645  153.6866 H   0  0  0  0  0  0  0  0  0  0  0  0
  152.5013  141.0814  159.0131 H   0  0  0  0  0  0  0  0  0  0  0  0
  1  2  1  0  0  0  0
  1 23  1  0  0  0  0
  1 24  1  0  0  0  0
  1 25  1  0  0  0  0
  2 22  1  0  0  0  0
  2  3  2  0  0  0  0
  3  4  1  0  0  0  0
  3 26  1  0  0  0  0
  4  5  2  0  0  0  0
  4 27  1  0  0  0  0
  5  6  1  0  0  0  0
  5  7  1  0  0  0  0
  6 28  1  0  0  0  0
  6 29  1  0  0  0  0
  6 30  1  0  0  0  0
  7  8  1  0  0  0  0
  7 22  2  0  0  0  0
  8  9  1  0  0  0  0
  8 10  1  0  0  0  0
  8 31  1  0  0  0  0
  9 32  1  0  0  0  0
 10 11  1  0  0  0  0
 10 33  1  0  0  0  0
 10 34  1  0  0  0  0
 11 20  1  0  0  0  0
 11 12  1  0  0  0  0
 12 13  2  0  0  0  0
 12 35  1  0  0  0  0
 13 14  1  0  0  0  0
 14 15  1  0  0  0  0
 14 19  2  0  0  0  0
 15 18  1  0  0  0  0
 15 16  1  0  0  0  0
 15 36  1  0  0  0  0
 16 17  1  0  0  0  0
 16 37  1  0  0  0  0
 16 38  1  0  0  0  0
 17 18  1  0  0  0  0
 17 39  1  0  0  0  0
 17 40  1  0  0  0  0
 18 41  1  0  0  0  0
 18 42  1  0  0  0  0
 19 20  1  0  0  0  0
 19 43  1  0  0  0  0
 20 21  2  0  0  0  0
 22 44  1  0  0  0  0
M  END
> <s_m_source_file>
AV-unprocessed.smi

> <i_m_source_file_index>
2530

> <i_lp_mmshare_version>
43012

> <i_f3d_flags>
0

> <s_epik_input>
W0NIM11jMVtjSF1bY0hdYyhbQ0gzXSljKFtjSF0xKVtDQEhdKFtPSF0pW0NIMl1uMltjSF1uYyhbY0hdYzI9TylbQ0hdM1tDSDJdW0NIMl1bQ0gyXTM=

> <s_epik_cmdline>
J2VwaWtfcHl0aG9uJywgJy1waCcsICc3LjAnLCAnLXRuJywgJzgnLCAnLW1hJywgJzIwMCcsICctbWV0YWxfYmluZGluZycsICctaW1hZScsICc8aW5maWxlLm1hZT4nLCAnLW9tYWUnLCAnPG91dGZpbGUubWFlPic=

> <r_lp_tautomer_probability>
1

> <r_epik_Ionization_Penalty>
2.57341e-05

> <r_epik_Ionization_Penalty_Charging>
5.39435e-08

> <r_epik_Ionization_Penalty_Neutral>
2.56801e-05

> <r_epik_State_Penalty>
-0

> <r_epik_Charging_Adjusted_Penalty>
5.39435e-08

> <i_epik_Tot_Q>
0

> <i_epik_Tot_abs_Q>
0

> <r_epik_Metal_State_Penalty>
-0

> <b_epik_Metal_Only>
0

> <s_lp_Force_Field>
OPLS_2005

> <r_lp_Energy>
28.9103

> <b_lp_Chiralities_Consistent>
1

> <s_lp_Variant>
AV-unprocessed.smi:2530-2

> <Gold.Version>
5.8.1

> <Gold.Id.Protein>
6NUR|6NUR_protein|mol2

> <Gold.PLP.Fitness>
51.6105

> <Gold.PLP.PLP>
-48.4508

> <Gold.PLP.part.hbond>
-2.0000

> <Gold.PLP.part.metal>
0.0000

> <Gold.PLP.part.buried>
-3.9460

> <Gold.PLP.part.nonpolar>
-44.2962

> <Gold.PLP.part.repulsive>
0.1073

> <Gold.PLP.ligand.clash>
0.0000

> <Gold.PLP.ligand.torsion>
0.8589

> <Gold.PLP.Chemscore.Hbond>
1.5000

> <Gold.PLP.Chemscore.CHOScore>
0.0000

> <Gold.PLP.Chemscore.Metal>
0.0000

> <Gold.Chemscore.Hbonds>
donor molecule, donor type, donor heavy atom, donor atom, acceptor molecule, acceptor atom, score
      L1  H     9    32       P1  8028  0.75
      P1  H  7989  7998       L1    21  1.00

> <Gold.PLP.Chemscore.Internal.Correction>
0.3775

> <Gold.Rescore>
     Score         DG    S(hbond)    S(metal)    S(lipo)     H(rot)  DE(clash)    DE(int)     intcor
     17.79     -19.02       1.00        0.00     130.41       1.97       0.28       0.96       ----

> <Gold.Chemscore.Fitness>
17.7864

> <Gold.Chemscore.DG>
-19.0220

> <Gold.Chemscore.ZeroCoef>
-5.4800

> <Gold.Chemscore.Hbond>
0.9950

> <Gold.Chemscore.Metal>
0.0000

> <Gold.Chemscore.Lipo>
130.4074

> <Gold.Chemscore.Internal_Hbond>
0.0000

> <Gold.Chemscore.DEClash>
0.2774

> <Gold.Chemscore.DEInternal>
0.9581

> <Gold.Chemscore.Rot>
1.9684

> <Gold.Chemscore.Internal.Correction>
   9.000000E+99

> <Gold.Chemscore.Hbonds>
donor molecule, donor type, donor heavy atom, donor atom, acceptor molecule, acceptor atom, score
      L1  H     9    32       P1  8028  0.46
      P1  H  7989  7998       L1    21  0.60

> <Gold.Chemscore.Hbond.Weighted>
-3.3234

> <Gold.Chemscore.Metal.Weighted>
-0.0000

> <Gold.Chemscore.Lipo.Weighted>
-15.2577

> <Gold.Chemscore.Internal_Hbond.Weighted>
0.0000

> <Gold.Chemscore.DEClash.Weighted>
0.2774

> <Gold.Chemscore.DEInternal.Weighted>
0.9581

> <Gold.Chemscore.Rot.Weighted>
5.0391

> <Gold.Chemscore.Internal.Correction.Weighted>
   9.000000E+99

> <Gold.Protein.RotatedTorsions>
[ 6907 6896 6895 6894 ] final   37.88 input  -60.11 | X-H torsion
[ 7974 7965 7964 7962 ] final  -38.00 input  175.53 | X-H torsion
[ 8008 7997 7996 7995 ] final -106.10 input   59.86 | X-H torsion
[ 10167 10162 10161 10158 ] final  141.89 input  -65.29 | X-H torsion
[ 10718 10713 10712 10709 ] final -156.80 input   66.30 | X-H torsion
[ 10763 10752 10751 10750 ] final   40.69 input  -60.55 | X-H torsion
[ 11005 11000 10999 10996 ] final -159.57 input  -57.11 | X-H torsion

> <Gold.Protein.ActiveResidues>
 VAL166  LYS551  ARG553  GLY616  TRP617  ASP618  TYR619  PRO620  LYS621  CYS622 
 ASP623  PHE694  ASN695  SER759  ASP760  ASP761  ALA762  ILE779  LEU786  VAL792 
 PHE793  MET794  SER795  GLU796  ALA797  LYS798  CYS799  TRP800  GLU811  SER814 

> <Gold.Protein.RotatedAtoms>
  152.1490  134.9003  160.0548 H   0  0  0  0  0  0  0  0  0  0  0  0  # atno 6907 bound_to 6896
  152.0042  133.3832  159.4202 H   0  0  0  0  0  0  0  0  0  0  0  0  # atno 6908 bound_to 6896
  150.6873  134.3723  159.5041 H   0  0  0  0  0  0  0  0  0  0  0  0  # atno 6909 bound_to 6896
  146.0525  140.6461  142.9035 H   0  0  0  0  0  0  0  0  0  0  0  0  # atno 7974 bound_to 7965
  154.9096  140.0410  157.1938 H   0  0  0  0  0  0  0  0  0  0  0  0  # atno 8008 bound_to 7997
  154.8362  140.2907  155.5668 H   0  0  0  0  0  0  0  0  0  0  0  0  # atno 8009 bound_to 7997
  156.2990  140.2491  156.3296 H   0  0  0  0  0  0  0  0  0  0  0  0  # atno 8010 bound_to 7997
  139.5008  144.6142  151.6202 H   0  0  0  0  0  0  0  0  0  0  0  0  # atno 10167 bound_to 10162
  156.5315  130.8523  151.2718 H   0  0  0  0  0  0  0  0  0  0  0  0  # atno 10718 bound_to 10713
  152.9929  135.6184  154.2666 H   0  0  0  0  0  0  0  0  0  0  0  0  # atno 10763 bound_to 10752
  154.2400  135.2789  155.2859 H   0  0  0  0  0  0  0  0  0  0  0  0  # atno 10764 bound_to 10752
  154.5377  135.5770  153.6870 H   0  0  0  0  0  0  0  0  0  0  0  0  # atno 10765 bound_to 10752
  140.6411  134.4550  157.5233 H   0  0  0  0  0  0  0  0  0  0  0  0  # atno 11005 bound_to 11000
  144.7130  140.4109  143.7066 LP  0  0  0  0  0  0  0  0  0  0  0  0  # atno 17320 bound_to 7965
  145.6700  139.1597  143.2760 LP  0  0  0  0  0  0  0  0  0  0  0  0  # atno 17321 bound_to 7965
  140.5825  143.9921  150.6276 LP  0  0  0  0  0  0  0  0  0  0  0  0  # atno 17342 bound_to 10162
  140.3075  143.3220  152.0912 LP  0  0  0  0  0  0  0  0  0  0  0  0  # atno 17343 bound_to 10162
  157.7421  130.9883  150.2491 LP  0  0  0  0  0  0  0  0  0  0  0  0  # atno 17370 bound_to 10713
  156.3055  130.3764  149.7710 LP  0  0  0  0  0  0  0  0  0  0  0  0  # atno 17371 bound_to 10713
  139.9080  134.8407  156.1634 LP  0  0  0  0  0  0  0  0  0  0  0  0  # atno 17394 bound_to 11000
  141.0606  133.6843  156.1945 LP  0  0  0  0  0  0  0  0  0  0  0  0  # atno 17395 bound_to 11000

$$$$
