AV-unprocessed.smi:937|AV-procd|sdf|4214|dock2
  -GOLD-   22720 2123D 1   1.00000     0.00000
 Structure written by MMmdl.
 46 47  0  0  0  0  0  0  0  0  2 V2000
  151.6383  143.9335  158.1488 C   0  0  0  0  0  0  0  0  0  0  0  0
  151.3208  142.6724  157.3736 C   0  0  0  0  0  0  0  0  0  0  0  0
  152.0188  141.4640  157.5861 C   0  0  0  0  0  0  0  0  0  0  0  0
  151.6687  140.3242  156.8323 C   0  0  0  0  0  0  0  0  0  0  0  0
  150.6274  140.4158  155.8831 C   0  0  0  0  0  0  0  0  0  0  0  0
  150.2244  139.2116  155.0555 C   0  0  0  0  0  0  0  0  0  0  0  0
  148.7325  138.8750  155.2090 C   0  0  0  0  0  0  0  0  0  0  0  0
  148.3589  137.7313  154.3862 N   0  0  0  0  0  0  0  0  0  0  0  0
  147.1803  137.0891  154.4556 C   0  0  0  0  0  0  0  0  0  0  0  0
  146.2770  137.4176  155.2228 O   0  0  0  0  0  0  0  0  0  0  0  0
  147.0553  136.0427  153.6196 N   0  0  0  0  0  0  0  0  0  0  0  0
  145.9121  135.1440  153.4492 C   0  0  1  0  0  0  0  0  0  0  0  0
  144.7251  135.8866  152.8015 C   0  0  0  0  0  0  0  0  0  0  0  0
  143.5496  134.9351  152.5353 C   0  0  0  0  0  0  0  0  0  0  0  0
  143.9840  133.7374  151.6765 C   0  0  0  0  0  0  0  0  0  0  0  0
  145.1619  132.9748  152.3190 C   0  0  1  0  0  0  0  0  0  0  0  0
  145.5939  131.7590  151.4731 C   0  0  0  0  0  0  0  0  0  0  0  0
  146.1156  132.1509  150.3103 F   0  0  0  0  0  0  0  0  0  0  0  0
  146.5038  131.0431  152.1340 F   0  0  0  0  0  0  0  0  0  0  0  0
  144.5437  130.9742  151.2317 F   0  0  0  0  0  0  0  0  0  0  0  0
  146.3361  133.9419  152.5837 C   0  0  0  0  0  0  0  0  0  0  0  0
  149.9652  141.6506  155.7129 C   0  0  0  0  0  0  0  0  0  0  0  0
  150.3304  142.7190  156.4546 N   0  3  0  0  0  0  0  0  0  0  0  0
  152.6692  143.9212  158.5035 H   0  0  0  0  0  0  0  0  0  0  0  0
  150.9795  144.0204  159.0129 H   0  0  0  0  0  0  0  0  0  0  0  0
  151.5061  144.8179  157.5244 H   0  0  0  0  0  0  0  0  0  0  0  0
  152.8120  141.4085  158.3175 H   0  0  0  0  0  0  0  0  0  0  0  0
  152.1942  139.3924  156.9824 H   0  0  0  0  0  0  0  0  0  0  0  0
  150.4590  139.4020  154.0071 H   0  0  0  0  0  0  0  0  0  0  0  0
  150.8379  138.3614  155.3571 H   0  0  0  0  0  0  0  0  0  0  0  0
  148.4901  138.6736  156.2540 H   0  0  0  0  0  0  0  0  0  0  0  0
  148.1237  139.7280  154.9080 H   0  0  0  0  0  0  0  0  0  0  0  0
  149.0445  137.3970  153.7245 H   0  0  0  0  0  0  0  0  0  0  0  0
  147.8487  135.8523  153.0243 H   0  0  0  0  0  0  0  0  0  0  0  0
  145.6048  134.7580  154.4228 H   0  0  0  0  0  0  0  0  0  0  0  0
  144.3918  136.7046  153.4408 H   0  0  0  0  0  0  0  0  0  0  0  0
  145.0420  136.3405  151.8614 H   0  0  0  0  0  0  0  0  0  0  0  0
  143.1460  134.5780  153.4836 H   0  0  0  0  0  0  0  0  0  0  0  0
  142.7419  135.4737  152.0389 H   0  0  0  0  0  0  0  0  0  0  0  0
  143.1348  133.0681  151.5356 H   0  0  0  0  0  0  0  0  0  0  0  0
  144.2679  134.0876  150.6834 H   0  0  0  0  0  0  0  0  0  0  0  0
  144.8229  132.5943  153.2839 H   0  0  0  0  0  0  0  0  0  0  0  0
  146.7361  134.2974  151.6328 H   0  0  0  0  0  0  0  0  0  0  0  0
  147.1491  133.4086  153.0779 H   0  0  0  0  0  0  0  0  0  0  0  0
  149.1608  141.8151  155.0104 H   0  0  0  0  0  0  0  0  0  0  0  0
  149.8358  143.6003  156.3144 H   0  0  0  0  0  0  0  0  0  0  0  0
  1  2  1  0  0  0  0
  1 24  1  0  0  0  0
  1 25  1  0  0  0  0
  1 26  1  0  0  0  0
  2 23  1  0  0  0  0
  2  3  2  0  0  0  0
  3  4  1  0  0  0  0
  3 27  1  0  0  0  0
  4  5  2  0  0  0  0
  4 28  1  0  0  0  0
  5  6  1  0  0  0  0
  5 22  1  0  0  0  0
  6  7  1  0  0  0  0
  6 29  1  0  0  0  0
  6 30  1  0  0  0  0
  7  8  1  0  0  0  0
  7 31  1  0  0  0  0
  7 32  1  0  0  0  0
  8  9  1  0  0  0  0
  8 33  1  0  0  0  0
  9 10  2  0  0  0  0
  9 11  1  0  0  0  0
 11 12  1  0  0  0  0
 11 34  1  0  0  0  0
 12 21  1  0  0  0  0
 12 13  1  0  0  0  0
 12 35  1  0  0  0  0
 13 14  1  0  0  0  0
 13 36  1  0  0  0  0
 13 37  1  0  0  0  0
 14 15  1  0  0  0  0
 14 38  1  0  0  0  0
 14 39  1  0  0  0  0
 15 16  1  0  0  0  0
 15 40  1  0  0  0  0
 15 41  1  0  0  0  0
 16 17  1  0  0  0  0
 16 21  1  0  0  0  0
 16 42  1  0  0  0  0
 17 18  1  0  0  0  0
 17 19  1  0  0  0  0
 17 20  1  0  0  0  0
 21 43  1  0  0  0  0
 21 44  1  0  0  0  0
 22 23  2  0  0  0  0
 22 45  1  0  0  0  0
 23 46  1  0  0  0  0
M  CHG  1  23   1
M  END
> <s_m_source_file>
AV-unprocessed.smi

> <i_m_source_file_index>
937

> <i_lp_mmshare_version>
43012

> <i_f3d_flags>
0

> <s_epik_input>
W0NIM11jMVtjSF1bY0hdYyhbY0hdbjEpW0NIMl1bQ0gyXVtOSF1DKD1PKVtOSF1bQ0BASF0yW0NIMl1bQ0gyXVtDSDJdW0NAQEhdKEMoRikoRilGKVtDSDJdMg==

> <s_epik_cmdline>
J2VwaWtfcHl0aG9uJywgJy1waCcsICc3LjAnLCAnLXRuJywgJzgnLCAnLW1hJywgJzIwMCcsICctbWV0YWxfYmluZGluZycsICctaW1hZScsICc8aW5maWxlLm1hZT4nLCAnLW9tYWUnLCAnPG91dGZpbGUubWFlPic=

> <r_epik_Ionization_Penalty>
1.4226

> <r_epik_Ionization_Penalty_Charging>
1.42255

> <r_epik_Ionization_Penalty_Neutral>
5.16456e-05

> <r_epik_State_Penalty>
1.50646

> <r_epik_Charging_Adjusted_Penalty>
2.92901

> <i_epik_Tot_Q>
1

> <i_epik_Tot_abs_Q>
1

> <r_epik_Metal_State_Penalty>
1.55846

> <b_epik_Metal_Only>
0

> <s_lp_Force_Field>
OPLS_2005

> <r_lp_Energy>
24.5693

> <b_lp_Chiralities_Consistent>
1

> <s_lp_Variant>
AV-unprocessed.smi:937-6

> <Gold.Version>
5.8.1

> <Gold.Id.Protein>
6NUR|6NUR_protein|mol2

> <Gold.PLP.Fitness>
49.8764

> <Gold.PLP.PLP>
-39.7826

> <Gold.PLP.part.hbond>
-2.8123

> <Gold.PLP.part.metal>
0.0000

> <Gold.PLP.part.buried>
-5.9694

> <Gold.PLP.part.nonpolar>
-32.4746

> <Gold.PLP.part.repulsive>
0.1647

> <Gold.PLP.ligand.clash>
0.0000

> <Gold.PLP.ligand.torsion>
0.1911

> <Gold.PLP.Chemscore.Hbond>
3.4827

> <Gold.PLP.Chemscore.CHOScore>
0.0000

> <Gold.PLP.Chemscore.Metal>
0.0000

> <Gold.Chemscore.Hbonds>
donor molecule, donor type, donor heavy atom, donor atom, acceptor molecule, acceptor atom, score
      L1  H     8    33       P1  7948  0.44
      L1  H    11    34       P1  7948  1.00
      L1  H    23    46       P1  8028  2.00

> <Gold.PLP.Chemscore.Internal.Correction>
0.0280

> <Gold.Rescore>
     Score         DG    S(hbond)    S(metal)    S(lipo)     H(rot)  DE(clash)    DE(int)     intcor
     20.12     -20.60       2.62        0.00      90.75       1.66       0.13       0.35       ----

> <Gold.Chemscore.Fitness>
20.1184

> <Gold.Chemscore.DG>
-20.6008

> <Gold.Chemscore.ZeroCoef>
-5.4800

> <Gold.Chemscore.Hbond>
2.6193

> <Gold.Chemscore.Metal>
0.0000

> <Gold.Chemscore.Lipo>
90.7515

> <Gold.Chemscore.Internal_Hbond>
0.0000

> <Gold.Chemscore.DEClash>
0.1289

> <Gold.Chemscore.DEInternal>
0.3535

> <Gold.Chemscore.Rot>
1.6585

> <Gold.Chemscore.Internal.Correction>
   9.000000E+99

> <Gold.Chemscore.Hbonds>
donor molecule, donor type, donor heavy atom, donor atom, acceptor molecule, acceptor atom, score
      L1  H     8    33       P1  7948  0.45
      L1  H    11    34       P1  7948  0.98
      L1  H    23    46       P1  8028  0.98

> <Gold.Chemscore.Hbond.Weighted>
-8.7486

> <Gold.Chemscore.Metal.Weighted>
-0.0000

> <Gold.Chemscore.Lipo.Weighted>
-10.6179

> <Gold.Chemscore.Internal_Hbond.Weighted>
0.0000

> <Gold.Chemscore.DEClash.Weighted>
0.1289

> <Gold.Chemscore.DEInternal.Weighted>
0.3535

> <Gold.Chemscore.Rot.Weighted>
4.2457

> <Gold.Chemscore.Internal.Correction.Weighted>
   9.000000E+99

> <Gold.Protein.RotatedTorsions>
[ 6907 6896 6895 6894 ] final  156.69 input  -60.11 | X-H torsion
[ 7974 7965 7964 7962 ] final -149.67 input  175.53 | X-H torsion
[ 8008 7997 7996 7995 ] final -168.49 input   59.86 | X-H torsion
[ 10167 10162 10161 10158 ] final -148.57 input  -65.29 | X-H torsion
[ 10718 10713 10712 10709 ] final   -8.55 input   66.30 | X-H torsion
[ 10763 10752 10751 10750 ] final    3.68 input  -60.55 | X-H torsion
[ 11005 11000 10999 10996 ] final   27.14 input  -57.11 | X-H torsion

> <Gold.Protein.ActiveResidues>
 VAL166  LYS551  ARG553  GLY616  TRP617  ASP618  TYR619  PRO620  LYS621  CYS622 
 ASP623  PHE694  ASN695  SER759  ASP760  ASP761  ALA762  ILE779  LEU786  VAL792 
 PHE793  MET794  SER795  GLU796  ALA797  LYS798  CYS799  TRP800  GLU811  SER814 

> <Gold.Protein.RotatedAtoms>
  152.0260  133.3918  159.4277 H   0  0  0  0  0  0  0  0  0  0  0  0  # atno 6907 bound_to 6896
  150.6886  134.3573  159.4944 H   0  0  0  0  0  0  0  0  0  0  0  0  # atno 6908 bound_to 6896
  152.1353  134.9103  160.0607 H   0  0  0  0  0  0  0  0  0  0  0  0  # atno 6909 bound_to 6896
  144.7953  140.5034  143.5744 H   0  0  0  0  0  0  0  0  0  0  0  0  # atno 7974 bound_to 7965
  155.8921  140.1026  157.1411 H   0  0  0  0  0  0  0  0  0  0  0  0  # atno 8008 bound_to 7997
  154.4016  140.1309  156.4393 H   0  0  0  0  0  0  0  0  0  0  0  0  # atno 8009 bound_to 7997
  155.7521  140.3465  155.5158 H   0  0  0  0  0  0  0  0  0  0  0  0  # atno 8010 bound_to 7997
  139.7520  143.8504  152.2588 H   0  0  0  0  0  0  0  0  0  0  0  0  # atno 10167 bound_to 10162
  156.7009  130.5093  149.5917 H   0  0  0  0  0  0  0  0  0  0  0  0  # atno 10718 bound_to 10713
  153.2804  135.6940  153.7391 H   0  0  0  0  0  0  0  0  0  0  0  0  # atno 10763 bound_to 10752
  153.6381  135.3398  155.3063 H   0  0  0  0  0  0  0  0  0  0  0  0  # atno 10764 bound_to 10752
  154.8493  135.4425  154.1855 H   0  0  0  0  0  0  0  0  0  0  0  0  # atno 10765 bound_to 10752
  140.3295  134.2454  155.7704 H   0  0  0  0  0  0  0  0  0  0  0  0  # atno 11005 bound_to 11000
  145.5689  139.1482  143.3300 LP  0  0  0  0  0  0  0  0  0  0  0  0  # atno 17320 bound_to 7965
  146.2219  140.5822  142.9013 LP  0  0  0  0  0  0  0  0  0  0  0  0  # atno 17321 bound_to 7965
  139.8485  144.7176  150.9243 LP  0  0  0  0  0  0  0  0  0  0  0  0  # atno 17342 bound_to 10162
  140.7799  143.3920  151.1294 LP  0  0  0  0  0  0  0  0  0  0  0  0  # atno 17343 bound_to 10162
  156.1729  130.6449  151.0859 LP  0  0  0  0  0  0  0  0  0  0  0  0  # atno 17370 bound_to 10713
  157.6973  131.0789  150.6929 LP  0  0  0  0  0  0  0  0  0  0  0  0  # atno 17371 bound_to 10713
  141.2067  133.7826  157.0162 LP  0  0  0  0  0  0  0  0  0  0  0  0  # atno 17394 bound_to 11000
  140.0873  134.9613  157.1720 LP  0  0  0  0  0  0  0  0  0  0  0  0  # atno 17395 bound_to 11000

$$$$
