AV-unprocessed.smi:2337|AV-procd|sdf|9333|dock7
  -GOLD-   2272012553D 1   1.00000     0.00000
 Structure written by MMmdl.
 45 46  0  0  0  0  0  0  0  0  1 V2000
  152.8874  141.7162  160.0203 C   0  0  0  0  0  0  0  0  0  0  0  0
  151.6257  142.3503  159.8555 O   0  0  0  0  0  0  0  0  0  0  0  0
  151.6595  143.6940  159.3732 C   0  0  0  0  0  0  0  0  0  0  0  0
  152.1242  143.7658  157.9120 C   0  0  0  0  0  0  0  0  0  0  0  0
  151.0194  143.4829  157.0055 N   0  0  0  0  0  0  0  0  0  0  0  0
  150.5252  142.2612  156.7690 C   0  0  0  0  0  0  0  0  0  0  0  0
  150.9642  141.2390  157.2969 O   0  0  0  0  0  0  0  0  0  0  0  0
  149.5027  142.3104  155.8980 N   0  0  0  0  0  0  0  0  0  0  0  0
  148.7422  141.2294  155.3799 C   0  0  0  0  0  0  0  0  0  0  0  0
  147.7175  141.5872  154.4810 C   0  0  0  0  0  0  0  0  0  0  0  0
  146.9269  140.5675  153.9252 C   0  0  0  0  0  0  0  0  0  0  0  0
  147.2105  139.2354  154.3025 C   0  0  0  0  0  0  0  0  0  0  0  0
  146.4296  138.0228  153.7645 C   0  0  0  0  0  0  0  0  0  0  0  0
  147.1197  136.7169  154.2107 C   0  0  0  0  0  0  0  0  0  0  0  0
  146.3708  138.0843  152.2242 C   0  0  0  0  0  0  0  0  0  0  0  0
  144.9748  137.9793  154.2846 C   0  0  0  0  0  0  0  0  0  0  0  0
  148.2118  138.9538  155.1717 N   0  0  0  0  0  0  0  0  0  0  0  0
  148.9588  139.9287  155.6984 N   0  0  0  0  0  0  0  0  0  0  0  0
  150.3181  144.3621  159.7303 C   0  0  0  0  0  0  0  0  0  0  0  0
  151.1004  145.5793  160.2272 C   0  0  0  0  0  0  0  0  0  0  0  0
  152.2993  144.6461  160.4037 C   0  0  0  0  0  0  0  0  0  0  0  0
  152.7389  140.7407  160.4830 H   0  0  0  0  0  0  0  0  0  0  0  0
  153.5516  142.2904  160.6663 H   0  0  0  0  0  0  0  0  0  0  0  0
  153.3849  141.5492  159.0654 H   0  0  0  0  0  0  0  0  0  0  0  0
  152.5191  144.7592  157.6933 H   0  0  0  0  0  0  0  0  0  0  0  0
  152.9407  143.0697  157.7189 H   0  0  0  0  0  0  0  0  0  0  0  0
  150.6024  144.2733  156.5356 H   0  0  0  0  0  0  0  0  0  0  0  0
  149.2421  143.2258  155.5624 H   0  0  0  0  0  0  0  0  0  0  0  0
  147.5380  142.6200  154.2199 H   0  0  0  0  0  0  0  0  0  0  0  0
  146.1389  140.8251  153.2350 H   0  0  0  0  0  0  0  0  0  0  0  0
  146.5765  135.8395  153.8578 H   0  0  0  0  0  0  0  0  0  0  0  0
  147.1782  136.6524  155.2979 H   0  0  0  0  0  0  0  0  0  0  0  0
  148.1361  136.6414  153.8223 H   0  0  0  0  0  0  0  0  0  0  0  0
  147.3657  138.0470  151.7792 H   0  0  0  0  0  0  0  0  0  0  0  0
  145.8931  139.0038  151.8838 H   0  0  0  0  0  0  0  0  0  0  0  0
  145.8045  137.2477  151.8137 H   0  0  0  0  0  0  0  0  0  0  0  0
  144.4408  137.1127  153.8930 H   0  0  0  0  0  0  0  0  0  0  0  0
  144.4113  138.8626  153.9815 H   0  0  0  0  0  0  0  0  0  0  0  0
  144.9374  137.9113  155.3726 H   0  0  0  0  0  0  0  0  0  0  0  0
  149.6631  144.5641  158.8821 H   0  0  0  0  0  0  0  0  0  0  0  0
  149.7833  143.8531  160.5342 H   0  0  0  0  0  0  0  0  0  0  0  0
  151.2568  146.3300  159.4509 H   0  0  0  0  0  0  0  0  0  0  0  0
  150.7236  146.0205  161.1503 H   0  0  0  0  0  0  0  0  0  0  0  0
  152.3511  144.2254  161.4096 H   0  0  0  0  0  0  0  0  0  0  0  0
  153.2546  145.0750  160.0994 H   0  0  0  0  0  0  0  0  0  0  0  0
  1  2  1  0  0  0  0
  1 22  1  0  0  0  0
  1 23  1  0  0  0  0
  1 24  1  0  0  0  0
  2  3  1  0  0  0  0
  3 21  1  0  0  0  0
  3  4  1  0  0  0  0
  3 19  1  0  0  0  0
  4  5  1  0  0  0  0
  4 25  1  0  0  0  0
  4 26  1  0  0  0  0
  5  6  1  0  0  0  0
  5 27  1  0  0  0  0
  6  7  2  0  0  0  0
  6  8  1  0  0  0  0
  8  9  1  0  0  0  0
  8 28  1  0  0  0  0
  9 18  1  0  0  0  0
  9 10  2  0  0  0  0
 10 11  1  0  0  0  0
 10 29  1  0  0  0  0
 11 12  2  0  0  0  0
 11 30  1  0  0  0  0
 12 13  1  0  0  0  0
 12 17  1  0  0  0  0
 13 14  1  0  0  0  0
 13 15  1  0  0  0  0
 13 16  1  0  0  0  0
 14 31  1  0  0  0  0
 14 32  1  0  0  0  0
 14 33  1  0  0  0  0
 15 34  1  0  0  0  0
 15 35  1  0  0  0  0
 15 36  1  0  0  0  0
 16 37  1  0  0  0  0
 16 38  1  0  0  0  0
 16 39  1  0  0  0  0
 17 18  2  0  0  0  0
 19 20  1  0  0  0  0
 19 40  1  0  0  0  0
 19 41  1  0  0  0  0
 20 21  1  0  0  0  0
 20 42  1  0  0  0  0
 20 43  1  0  0  0  0
 21 44  1  0  0  0  0
 21 45  1  0  0  0  0
M  END
> <s_m_source_file>
AV-unprocessed.smi

> <i_m_source_file_index>
2337

> <i_lp_mmshare_version>
43012

> <i_f3d_flags>
0

> <s_epik_input>
W0NIMl0xW0NIMl1bQ0gyXUMxKE9bQ0gzXSlbQ0gyXVtOSF1DKD1PKVtOSF1jMltjSF1bY0hdYyhubjIpQyhbQ0gzXSkoW0NIM10pW0NIM10=

> <s_epik_cmdline>
J2VwaWtfcHl0aG9uJywgJy1waCcsICc3LjAnLCAnLXRuJywgJzgnLCAnLW1hJywgJzIwMCcsICctbWV0YWxfYmluZGluZycsICctaW1hZScsICc8aW5maWxlLm1hZT4nLCAnLW9tYWUnLCAnPG91dGZpbGUubWFlPic=

> <r_lp_tautomer_probability>
1

> <r_epik_Ionization_Penalty>
0.00977348

> <r_epik_Ionization_Penalty_Charging>
0

> <r_epik_Ionization_Penalty_Neutral>
0.00977348

> <r_epik_State_Penalty>
-0

> <r_epik_Charging_Adjusted_Penalty>
0

> <i_epik_Tot_Q>
0

> <i_epik_Tot_abs_Q>
0

> <r_epik_Metal_State_Penalty>
-0

> <b_epik_Metal_Only>
0

> <s_lp_Force_Field>
OPLS_2005

> <r_lp_Energy>
23.2497

> <b_lp_Chiralities_Consistent>
1

> <s_lp_Variant>
AV-unprocessed.smi:2337-1

> <Gold.Version>
5.8.1

> <Gold.Id.Protein>
6NUR|6NUR_protein|mol2

> <Gold.PLP.Fitness>
39.5076

> <Gold.PLP.PLP>
-35.6468

> <Gold.PLP.part.hbond>
-2.4042

> <Gold.PLP.part.metal>
0.0000

> <Gold.PLP.part.buried>
-4.6583

> <Gold.PLP.part.nonpolar>
-29.4457

> <Gold.PLP.part.repulsive>
0.2788

> <Gold.PLP.ligand.clash>
0.0000

> <Gold.PLP.ligand.torsion>
0.8375

> <Gold.PLP.Chemscore.Hbond>
1.7520

> <Gold.PLP.Chemscore.CHOScore>
0.0000

> <Gold.PLP.Chemscore.Metal>
0.0000

> <Gold.Chemscore.Hbonds>
donor molecule, donor type, donor heavy atom, donor atom, acceptor molecule, acceptor atom, score
      L1  H     5    27       P1  8028  0.78
      L1  H     8    28       P1  8028  1.00

> <Gold.PLP.Chemscore.Internal.Correction>
0.2798

> <Gold.Rescore>
     Score         DG    S(hbond)    S(metal)    S(lipo)     H(rot)  DE(clash)    DE(int)     intcor
     16.37     -18.64       1.85        0.00      93.76       1.56       0.20       2.07       ----

> <Gold.Chemscore.Fitness>
16.3688

> <Gold.Chemscore.DG>
-18.6386

> <Gold.Chemscore.ZeroCoef>
-5.4800

> <Gold.Chemscore.Hbond>
1.8508

> <Gold.Chemscore.Metal>
0.0000

> <Gold.Chemscore.Lipo>
93.7617

> <Gold.Chemscore.Internal_Hbond>
0.0000

> <Gold.Chemscore.DEClash>
0.1998

> <Gold.Chemscore.DEInternal>
2.0700

> <Gold.Chemscore.Rot>
1.5599

> <Gold.Chemscore.Internal.Correction>
   9.000000E+99

> <Gold.Chemscore.Hbonds>
donor molecule, donor type, donor heavy atom, donor atom, acceptor molecule, acceptor atom, score
      L1  H     5    27       P1  8028  0.77
      L1  H     8    28       P1  8028  0.93

> <Gold.Chemscore.Hbond.Weighted>
-6.1818

> <Gold.Chemscore.Metal.Weighted>
-0.0000

> <Gold.Chemscore.Lipo.Weighted>
-10.9701

> <Gold.Chemscore.Internal_Hbond.Weighted>
0.0000

> <Gold.Chemscore.DEClash.Weighted>
0.1998

> <Gold.Chemscore.DEInternal.Weighted>
2.0700

> <Gold.Chemscore.Rot.Weighted>
3.9933

> <Gold.Chemscore.Internal.Correction.Weighted>
   9.000000E+99

> <Gold.Protein.RotatedTorsions>
[ 6907 6896 6895 6894 ] final  178.70 input  -60.11 | X-H torsion
[ 7974 7965 7964 7962 ] final  172.54 input  175.53 | X-H torsion
[ 8008 7997 7996 7995 ] final   59.37 input   59.86 | X-H torsion
[ 10167 10162 10161 10158 ] final  111.78 input  -65.29 | X-H torsion
[ 10718 10713 10712 10709 ] final  -95.20 input   66.30 | X-H torsion
[ 10763 10752 10751 10750 ] final    5.40 input  -60.55 | X-H torsion
[ 11005 11000 10999 10996 ] final  -75.95 input  -57.11 | X-H torsion

> <Gold.Protein.ActiveResidues>
 VAL166  LYS551  ARG553  GLY616  TRP617  ASP618  TYR619  PRO620  LYS621  CYS622 
 ASP623  PHE694  ASN695  SER759  ASP760  ASP761  ALA762  ILE779  LEU786  VAL792 
 PHE793  MET794  SER795  GLU796  ALA797  LYS798  CYS799  TRP800  GLU811  SER814 

> <Gold.Protein.RotatedAtoms>
  151.6835  133.3311  159.3225 H   0  0  0  0  0  0  0  0  0  0  0  0  # atno 6907 bound_to 6896
  150.7811  134.6760  159.6427 H   0  0  0  0  0  0  0  0  0  0  0  0  # atno 6908 bound_to 6896
  152.3869  134.6506  160.0174 H   0  0  0  0  0  0  0  0  0  0  0  0  # atno 6909 bound_to 6896
  144.7265  139.9514  143.6432 H   0  0  0  0  0  0  0  0  0  0  0  0  # atno 7974 bound_to 7965
  155.5652  140.3489  155.4501 H   0  0  0  0  0  0  0  0  0  0  0  0  # atno 8008 bound_to 7997
  156.0485  140.1312  157.0102 H   0  0  0  0  0  0  0  0  0  0  0  0  # atno 8009 bound_to 7997
  154.4423  140.1009  156.6326 H   0  0  0  0  0  0  0  0  0  0  0  0  # atno 8010 bound_to 7997
  139.6585  144.7129  151.1910 H   0  0  0  0  0  0  0  0  0  0  0  0  # atno 10167 bound_to 10162
  156.0039  130.5099  150.6041 H   0  0  0  0  0  0  0  0  0  0  0  0  # atno 10718 bound_to 10713
  153.2598  135.6922  153.7590 H   0  0  0  0  0  0  0  0  0  0  0  0  # atno 10763 bound_to 10752
  153.6654  135.3353  155.3139 H   0  0  0  0  0  0  0  0  0  0  0  0  # atno 10764 bound_to 10752
  154.8426  135.4487  154.1585 H   0  0  0  0  0  0  0  0  0  0  0  0  # atno 10765 bound_to 10752
  141.1650  133.6965  156.7595 H   0  0  0  0  0  0  0  0  0  0  0  0  # atno 11005 bound_to 11000
  146.0709  139.3698  143.0524 LP  0  0  0  0  0  0  0  0  0  0  0  0  # atno 17320 bound_to 7965
  145.7970  140.9788  143.1019 LP  0  0  0  0  0  0  0  0  0  0  0  0  # atno 17321 bound_to 7965
  140.7570  143.6032  150.8679 LP  0  0  0  0  0  0  0  0  0  0  0  0  # atno 17342 bound_to 10162
  139.9687  143.6081  152.2980 LP  0  0  0  0  0  0  0  0  0  0  0  0  # atno 17343 bound_to 10162
  157.3884  131.0792  151.1415 LP  0  0  0  0  0  0  0  0  0  0  0  0  # atno 17370 bound_to 10713
  157.2115  130.6440  149.5776 LP  0  0  0  0  0  0  0  0  0  0  0  0  # atno 17371 bound_to 10713
  140.2544  134.8515  157.3699 LP  0  0  0  0  0  0  0  0  0  0  0  0  # atno 17394 bound_to 11000
  140.1671  134.4655  155.7856 LP  0  0  0  0  0  0  0  0  0  0  0  0  # atno 17395 bound_to 11000

$$$$
