AV-unprocessed.smi:1053|AV-procd|sdf|4621|dock8
  -GOLD-   22720 3123D 1   1.00000     0.00000
 Structure written by MMmdl.
 37 38  0  0  0  0  0  0  0  0  1 V2000
  153.8815  140.3277  160.6769 C   0  0  0  0  0  0  0  0  0  0  0  0
  153.5953  141.7072  161.2877 C   0  0  0  0  0  0  0  0  0  0  0  0
  152.5097  142.4502  160.6501 N   0  0  0  0  0  0  0  0  0  0  0  0
  152.4830  143.8554  161.0479 C   0  0  0  0  0  0  0  0  0  0  0  0
  151.3569  144.6279  160.3408 C   0  0  0  0  0  0  0  0  0  0  0  0
  151.5032  144.4967  158.9309 O   0  0  0  0  0  0  0  0  0  0  0  0
  151.4727  143.1408  158.4913 C   0  0  1  0  0  0  0  0  0  0  0  0
  151.6399  143.1205  156.9662 C   0  0  0  0  0  0  0  0  0  0  0  0
  150.3913  142.8020  156.2901 N   0  0  0  0  0  0  0  0  0  0  0  0
  150.1643  141.6302  155.5936 C   0  0  0  0  0  0  0  0  0  0  0  0
  149.0404  141.5282  154.8746 N   0  0  0  0  0  0  0  0  0  0  0  0
  148.8448  140.3742  154.2016 C   0  0  0  0  0  0  0  0  0  0  0  0
  149.7783  139.3202  154.2484 C   0  0  0  0  0  0  0  0  0  0  0  0
  150.9295  139.5383  155.0381 C   0  0  0  0  0  0  0  0  0  0  0  0
  152.0209  138.4884  155.1839 C   0  0  0  0  0  0  0  0  0  0  0  0
  151.7215  137.3746  154.5143 F   0  0  0  0  0  0  0  0  0  0  0  0
  153.1728  138.9671  154.7132 F   0  0  0  0  0  0  0  0  0  0  0  0
  152.1767  138.1793  156.4712 F   0  0  0  0  0  0  0  0  0  0  0  0
  151.1134  140.6990  155.7099 N   0  0  0  0  0  0  0  0  0  0  0  0
  152.6085  142.3724  159.1964 C   0  0  0  0  0  0  0  0  0  0  0  0
  154.7680  139.8847  161.1308 H   0  0  0  0  0  0  0  0  0  0  0  0
  154.0620  140.4027  159.6042 H   0  0  0  0  0  0  0  0  0  0  0  0
  153.0570  139.6329  160.8342 H   0  0  0  0  0  0  0  0  0  0  0  0
  153.3951  141.5987  162.3546 H   0  0  0  0  0  0  0  0  0  0  0  0
  154.5125  142.2930  161.2134 H   0  0  0  0  0  0  0  0  0  0  0  0
  152.3432  143.9422  162.1250 H   0  0  0  0  0  0  0  0  0  0  0  0
  153.4407  144.3243  160.8168 H   0  0  0  0  0  0  0  0  0  0  0  0
  150.3789  144.2555  160.6494 H   0  0  0  0  0  0  0  0  0  0  0  0
  151.3963  145.6843  160.6068 H   0  0  0  0  0  0  0  0  0  0  0  0
  150.5138  142.6917  158.7579 H   0  0  0  0  0  0  0  0  0  0  0  0
  152.0128  144.0826  156.6127 H   0  0  0  0  0  0  0  0  0  0  0  0
  152.3798  142.3682  156.6904 H   0  0  0  0  0  0  0  0  0  0  0  0
  149.6562  143.4942  156.2888 H   0  0  0  0  0  0  0  0  0  0  0  0
  147.9376  140.2908  153.6219 H   0  0  0  0  0  0  0  0  0  0  0  0
  149.6130  138.4004  153.7073 H   0  0  0  0  0  0  0  0  0  0  0  0
  153.5714  142.7700  158.8711 H   0  0  0  0  0  0  0  0  0  0  0  0
  152.5830  141.3280  158.8830 H   0  0  0  0  0  0  0  0  0  0  0  0
  1  2  1  0  0  0  0
  1 21  1  0  0  0  0
  1 22  1  0  0  0  0
  1 23  1  0  0  0  0
  2  3  1  0  0  0  0
  2 24  1  0  0  0  0
  2 25  1  0  0  0  0
  3 20  1  0  0  0  0
  3  4  1  0  0  0  0
  4  5  1  0  0  0  0
  4 26  1  0  0  0  0
  4 27  1  0  0  0  0
  5  6  1  0  0  0  0
  5 28  1  0  0  0  0
  5 29  1  0  0  0  0
  6  7  1  0  0  0  0
  7  8  1  0  0  0  0
  7 20  1  0  0  0  0
  7 30  1  0  0  0  0
  8  9  1  0  0  0  0
  8 31  1  0  0  0  0
  8 32  1  0  0  0  0
  9 10  1  0  0  0  0
  9 33  1  0  0  0  0
 10 19  1  0  0  0  0
 10 11  2  0  0  0  0
 11 12  1  0  0  0  0
 12 13  2  0  0  0  0
 12 34  1  0  0  0  0
 13 14  1  0  0  0  0
 13 35  1  0  0  0  0
 14 15  1  0  0  0  0
 14 19  2  0  0  0  0
 15 16  1  0  0  0  0
 15 17  1  0  0  0  0
 15 18  1  0  0  0  0
 20 36  1  0  0  0  0
 20 37  1  0  0  0  0
M  END
> <s_m_source_file>
AV-unprocessed.smi

> <i_m_source_file_index>
1053

> <i_lp_mmshare_version>
43012

> <i_f3d_flags>
0

> <s_epik_input>
W0NIM11bQ0gyXU4xW0NIMl1bQ0gyXU9bQ0BIXShbQ0gyXTEpW0NIMl1bTkhdYzJuW2NIXVtjSF1jKG4yKUMoRikoRilG

> <s_epik_cmdline>
J2VwaWtfcHl0aG9uJywgJy1waCcsICc3LjAnLCAnLXRuJywgJzgnLCAnLW1hJywgJzIwMCcsICctbWV0YWxfYmluZGluZycsICctaW1hZScsICc8aW5maWxlLm1hZT4nLCAnLW9tYWUnLCAnPG91dGZpbGUubWFlPic=

> <r_lp_tautomer_probability>
1

> <r_epik_Ionization_Penalty>
0.797829

> <r_epik_Ionization_Penalty_Charging>
0

> <r_epik_Ionization_Penalty_Neutral>
0.797829

> <r_epik_State_Penalty>
0.828842

> <r_epik_Charging_Adjusted_Penalty>
0.828842

> <i_epik_Tot_Q>
0

> <i_epik_Tot_abs_Q>
0

> <r_epik_Metal_State_Penalty>
0.828842

> <b_epik_Metal_Only>
0

> <s_lp_Force_Field>
OPLS_2005

> <r_lp_Energy>
17.4925

> <b_lp_Chiralities_Consistent>
1

> <s_lp_Variant>
AV-unprocessed.smi:1053-5

> <Gold.Version>
5.8.1

> <Gold.Id.Protein>
6NUR|6NUR_protein|mol2

> <Gold.PLP.Fitness>
43.6768

> <Gold.PLP.PLP>
-42.4310

> <Gold.PLP.part.hbond>
-1.3478

> <Gold.PLP.part.metal>
0.0000

> <Gold.PLP.part.buried>
-4.4322

> <Gold.PLP.part.nonpolar>
-36.2450

> <Gold.PLP.part.repulsive>
0.3820

> <Gold.PLP.ligand.clash>
0.0000

> <Gold.PLP.ligand.torsion>
0.8217

> <Gold.PLP.Chemscore.Hbond>
0.9588

> <Gold.PLP.Chemscore.CHOScore>
0.0000

> <Gold.PLP.Chemscore.Metal>
0.0000

> <Gold.Chemscore.Hbonds>
donor molecule, donor type, donor heavy atom, donor atom, acceptor molecule, acceptor atom, score
      L1  H     9    33       P1  8028  1.00

> <Gold.PLP.Chemscore.Internal.Correction>
0.0129

> <Gold.Rescore>
     Score         DG    S(hbond)    S(metal)    S(lipo)     H(rot)  DE(clash)    DE(int)     intcor
     15.19     -16.43       0.86        0.00     102.31       1.52       0.47       0.76       ----

> <Gold.Chemscore.Fitness>
15.1943

> <Gold.Chemscore.DG>
-16.4303

> <Gold.Chemscore.ZeroCoef>
-5.4800

> <Gold.Chemscore.Hbond>
0.8603

> <Gold.Chemscore.Metal>
0.0000

> <Gold.Chemscore.Lipo>
102.3080

> <Gold.Chemscore.Internal_Hbond>
0.0000

> <Gold.Chemscore.DEClash>
0.4739

> <Gold.Chemscore.DEInternal>
0.7622

> <Gold.Chemscore.Rot>
1.5208

> <Gold.Chemscore.Internal.Correction>
   9.000000E+99

> <Gold.Chemscore.Hbonds>
donor molecule, donor type, donor heavy atom, donor atom, acceptor molecule, acceptor atom, score
      L1  H     9    33       P1  8028  0.94

> <Gold.Chemscore.Hbond.Weighted>
-2.8735

> <Gold.Chemscore.Metal.Weighted>
-0.0000

> <Gold.Chemscore.Lipo.Weighted>
-11.9700

> <Gold.Chemscore.Internal_Hbond.Weighted>
0.0000

> <Gold.Chemscore.DEClash.Weighted>
0.4739

> <Gold.Chemscore.DEInternal.Weighted>
0.7622

> <Gold.Chemscore.Rot.Weighted>
3.8932

> <Gold.Chemscore.Internal.Correction.Weighted>
   9.000000E+99

> <Gold.Protein.RotatedTorsions>
[ 6907 6896 6895 6894 ] final   55.46 input  -60.11 | X-H torsion
[ 7974 7965 7964 7962 ] final  -84.93 input  175.53 | X-H torsion
[ 8008 7997 7996 7995 ] final   61.30 input   59.86 | X-H torsion
[ 10167 10162 10161 10158 ] final   13.95 input  -65.29 | X-H torsion
[ 10718 10713 10712 10709 ] final  -26.15 input   66.30 | X-H torsion
[ 10763 10752 10751 10750 ] final  135.98 input  -60.55 | X-H torsion
[ 11005 11000 10999 10996 ] final  139.83 input  -57.11 | X-H torsion

> <Gold.Protein.ActiveResidues>
 VAL166  LYS551  ARG553  GLY616  TRP617  ASP618  TYR619  PRO620  LYS621  CYS622 
 ASP623  PHE694  ASN695  SER759  ASP760  ASP761  ALA762  ILE779  LEU786  VAL792 
 PHE793  MET794  SER795  GLU796  ALA797  LYS798  CYS799  TRP800  GLU811  SER814 

> <Gold.Protein.RotatedAtoms>
  152.3541  134.6965  160.0227 H   0  0  0  0  0  0  0  0  0  0  0  0  # atno 6907 bound_to 6896
  151.7310  133.3312  159.3348 H   0  0  0  0  0  0  0  0  0  0  0  0  # atno 6908 bound_to 6896
  150.7559  134.6297  159.6224 H   0  0  0  0  0  0  0  0  0  0  0  0  # atno 6909 bound_to 6896
  145.5000  140.9547  143.1765 H   0  0  0  0  0  0  0  0  0  0  0  0  # atno 7974 bound_to 7965
  155.5961  140.3493  155.4580 H   0  0  0  0  0  0  0  0  0  0  0  0  # atno 8008 bound_to 7997
  156.0264  140.1265  157.0329 H   0  0  0  0  0  0  0  0  0  0  0  0  # atno 8009 bound_to 7997
  154.4335  140.1052  156.6022 H   0  0  0  0  0  0  0  0  0  0  0  0  # atno 8010 bound_to 7997
  140.5969  143.8684  150.6926 H   0  0  0  0  0  0  0  0  0  0  0  0  # atno 10167 bound_to 10162
  156.4549  130.4492  149.6965 H   0  0  0  0  0  0  0  0  0  0  0  0  # atno 10718 bound_to 10713
  153.8490  135.3081  155.3431 H   0  0  0  0  0  0  0  0  0  0  0  0  # atno 10763 bound_to 10752
  154.7899  135.4788  154.0033 H   0  0  0  0  0  0  0  0  0  0  0  0  # atno 10764 bound_to 10752
  153.1529  135.6846  153.8948 H   0  0  0  0  0  0  0  0  0  0  0  0  # atno 10765 bound_to 10752
  140.0283  134.9364  157.0612 H   0  0  0  0  0  0  0  0  0  0  0  0  # atno 11005 bound_to 11000
  144.7785  139.6577  143.7164 LP  0  0  0  0  0  0  0  0  0  0  0  0  # atno 17320 bound_to 7965
  146.2232  139.5673  142.9605 LP  0  0  0  0  0  0  0  0  0  0  0  0  # atno 17321 bound_to 7965
  140.2221  143.3801  152.1635 LP  0  0  0  0  0  0  0  0  0  0  0  0  # atno 17342 bound_to 10162
  139.5264  144.7107  151.5214 LP  0  0  0  0  0  0  0  0  0  0  0  0  # atno 17343 bound_to 10162
  156.3777  130.7563  151.2552 LP  0  0  0  0  0  0  0  0  0  0  0  0  # atno 17370 bound_to 10713
  157.7501  131.0305  150.4139 LP  0  0  0  0  0  0  0  0  0  0  0  0  # atno 17371 bound_to 10713
  140.4268  134.1822  155.7166 LP  0  0  0  0  0  0  0  0  0  0  0  0  # atno 17394 bound_to 11000
  141.1816  133.8402  157.1237 LP  0  0  0  0  0  0  0  0  0  0  0  0  # atno 17395 bound_to 11000

$$$$
