AV-unprocessed.smi:3354|AV-procd|sdf|12957|dock8
  -GOLD-   2272019393D 1   1.00000     0.00000
 Structure written by MMmdl.
 38 40  0  0  0  0  0  0  0  0  1 V2000
  151.7756  138.8628  154.6623 C   0  0  0  0  0  0  0  0  0  0  0  0
  151.0989  139.2256  155.9699 C   0  0  2  0  0  0  0  0  0  0  0  0
  151.5739  138.6324  157.2757 C   0  0  0  0  0  0  0  0  0  0  0  0
  150.2154  138.2486  156.7211 C   0  0  2  0  0  0  0  0  0  0  0  0
  149.9816  136.9422  156.1755 N   0  0  0  0  0  0  0  0  0  0  0  0
  148.6701  136.5244  155.6983 C   0  0  0  0  0  0  0  0  0  0  0  0
  148.8591  135.0933  155.1650 C   0  0  1  0  0  0  0  0  0  0  0  0
  148.2211  134.9317  153.8610 N   0  0  0  0  0  0  0  0  0  0  0  0
  147.2187  134.0808  153.6013 C   0  0  0  0  0  0  0  0  0  0  0  0
  146.7247  133.3379  154.4493 O   0  0  0  0  0  0  0  0  0  0  0  0
  146.8542  134.1380  152.3087 N   0  0  0  0  0  0  0  0  0  0  0  0
  145.8339  133.4049  151.6443 C   0  0  0  0  0  0  0  0  0  0  0  0
  145.3336  132.1556  152.0852 C   0  0  0  0  0  0  0  0  0  0  0  0
  144.3065  131.5366  151.3475 C   0  0  0  0  0  0  0  0  0  0  0  0
  143.8125  132.1902  150.2021 C   0  0  0  0  0  0  0  0  0  0  0  0
  144.2700  133.3871  149.7783 N   0  0  0  0  0  0  0  0  0  0  0  0
  145.2543  133.9752  150.4911 C   0  0  0  0  0  0  0  0  0  0  0  0
  150.3784  134.8715  155.1076 C   0  0  0  0  0  0  0  0  0  0  0  0
  150.9475  136.0923  155.8086 C   0  0  0  0  0  0  0  0  0  0  0  0
  152.1542  136.2494  155.9898 O   0  0  0  0  0  0  0  0  0  0  0  0
  152.1572  137.8418  154.6847 H   0  0  0  0  0  0  0  0  0  0  0  0
  152.6109  139.5380  154.4754 H   0  0  0  0  0  0  0  0  0  0  0  0
  151.0665  138.9515  153.8389 H   0  0  0  0  0  0  0  0  0  0  0  0
  150.7759  140.2643  156.0082 H   0  0  0  0  0  0  0  0  0  0  0  0
  152.3938  137.9195  157.2278 H   0  0  0  0  0  0  0  0  0  0  0  0
  151.5916  139.2904  158.1421 H   0  0  0  0  0  0  0  0  0  0  0  0
  149.3672  138.6870  157.2448 H   0  0  0  0  0  0  0  0  0  0  0  0
  147.9301  136.5377  156.4985 H   0  0  0  0  0  0  0  0  0  0  0  0
  148.3390  137.2137  154.9195 H   0  0  0  0  0  0  0  0  0  0  0  0
  148.4211  134.3931  155.8794 H   0  0  0  0  0  0  0  0  0  0  0  0
  148.5728  135.5016  153.1056 H   0  0  0  0  0  0  0  0  0  0  0  0
  147.4102  134.7376  151.7167 H   0  0  0  0  0  0  0  0  0  0  0  0
  145.7024  131.6692  152.9747 H   0  0  0  0  0  0  0  0  0  0  0  0
  143.9034  130.5833  151.6558 H   0  0  0  0  0  0  0  0  0  0  0  0
  143.0244  131.7429  149.6148 H   0  0  0  0  0  0  0  0  0  0  0  0
  145.5930  134.9332  150.1239 H   0  0  0  0  0  0  0  0  0  0  0  0
  150.6747  133.9548  155.6183 H   0  0  0  0  0  0  0  0  0  0  0  0
  150.7568  134.8358  154.0850 H   0  0  0  0  0  0  0  0  0  0  0  0
  1  2  1  0  0  0  0
  1 21  1  0  0  0  0
  1 22  1  0  0  0  0
  1 23  1  0  0  0  0
  2  4  1  0  0  0  0
  2  3  1  0  0  0  0
  2 24  1  0  0  0  0
  3  4  1  0  0  0  0
  3 25  1  0  0  0  0
  3 26  1  0  0  0  0
  4  5  1  0  0  0  0
  4 27  1  0  0  0  0
  5 19  1  0  0  0  0
  5  6  1  0  0  0  0
  6  7  1  0  0  0  0
  6 28  1  0  0  0  0
  6 29  1  0  0  0  0
  7  8  1  0  0  0  0
  7 18  1  0  0  0  0
  7 30  1  0  0  0  0
  8  9  1  0  0  0  0
  8 31  1  0  0  0  0
  9 10  2  0  0  0  0
  9 11  1  0  0  0  0
 11 12  1  0  0  0  0
 11 32  1  0  0  0  0
 12 17  1  0  0  0  0
 12 13  2  0  0  0  0
 13 14  1  0  0  0  0
 13 33  1  0  0  0  0
 14 15  2  0  0  0  0
 14 34  1  0  0  0  0
 15 16  1  0  0  0  0
 15 35  1  0  0  0  0
 16 17  2  0  0  0  0
 17 36  1  0  0  0  0
 18 19  1  0  0  0  0
 18 37  1  0  0  0  0
 18 38  1  0  0  0  0
 19 20  2  0  0  0  0
M  END
> <s_m_source_file>
AV-unprocessed.smi

> <i_m_source_file_index>
3354

> <i_lp_mmshare_version>
43012

> <i_f3d_flags>
0

> <s_epik_input>
W0NIM11bQ0BASF0xW0NIMl1bQ0BIXTFOMltDSDJdW0NASF0oW0NIMl1DMj1PKVtOSF1DKD1PKVtOSF1jM1tjSF1bY0hdW2NIXW5bY0hdMw==

> <s_epik_cmdline>
J2VwaWtfcHl0aG9uJywgJy1waCcsICc3LjAnLCAnLXRuJywgJzgnLCAnLW1hJywgJzIwMCcsICctbWV0YWxfYmluZGluZycsICctaW1hZScsICc8aW5maWxlLm1hZT4nLCAnLW9tYWUnLCAnPG91dGZpbGUubWFlPic=

> <r_epik_Ionization_Penalty>
0.00456191

> <r_epik_Ionization_Penalty_Charging>
0

> <r_epik_Ionization_Penalty_Neutral>
0.00456191

> <r_epik_State_Penalty>
0.00327094

> <r_epik_Charging_Adjusted_Penalty>
0.00327094

> <i_epik_Tot_Q>
0

> <i_epik_Tot_abs_Q>
0

> <r_epik_Metal_State_Penalty>
-0

> <b_epik_Metal_Only>
0

> <s_lp_Force_Field>
OPLS_2005

> <r_lp_Energy>
41.3899

> <b_lp_Chiralities_Consistent>
1

> <s_lp_Variant>
AV-unprocessed.smi:3354-3

> <Gold.Version>
5.8.1

> <Gold.Id.Protein>
6NUR|6NUR_protein|mol2

> <Gold.PLP.Fitness>
38.3494

> <Gold.PLP.PLP>
-27.0632

> <Gold.PLP.part.hbond>
-2.8080

> <Gold.PLP.part.metal>
0.0000

> <Gold.PLP.part.buried>
-3.2878

> <Gold.PLP.part.nonpolar>
-21.1337

> <Gold.PLP.part.repulsive>
0.2914

> <Gold.PLP.ligand.clash>
0.0000

> <Gold.PLP.ligand.torsion>
0.3047

> <Gold.PLP.Chemscore.Hbond>
2.5508

> <Gold.PLP.Chemscore.CHOScore>
1.3247

> <Gold.PLP.Chemscore.Metal>
0.0000

> <Gold.Chemscore.Hbonds>
donor molecule, donor type, donor heavy atom, donor atom, acceptor molecule, acceptor atom, score
      L1  H     8    31       P1  7948  0.84
      L1  H    11    32       P1  7948  0.69
      P1  H 10752 10764       L1    20  1.00
      L1  C    15    35       P1 10952  0.80
      L1  C    17    36       P1  7921  0.60

> <Gold.PLP.Chemscore.Internal.Correction>
0.2691

> <Gold.Rescore>
     Score         DG    S(hbond)    S(metal)    S(lipo)     H(rot)  DE(clash)    DE(int)     intcor
     15.21     -18.05       2.39        0.00      66.42       1.24       0.00       2.84       ----

> <Gold.Chemscore.Fitness>
15.2117

> <Gold.Chemscore.DG>
-18.0545

> <Gold.Chemscore.ZeroCoef>
-5.4800

> <Gold.Chemscore.Hbond>
2.3857

> <Gold.Chemscore.Metal>
0.0000

> <Gold.Chemscore.Lipo>
66.4154

> <Gold.Chemscore.Internal_Hbond>
0.0000

> <Gold.Chemscore.DEClash>
0.0033

> <Gold.Chemscore.DEInternal>
2.8395

> <Gold.Chemscore.Rot>
1.2361

> <Gold.Chemscore.Internal.Correction>
   9.000000E+99

> <Gold.Chemscore.Hbonds>
donor molecule, donor type, donor heavy atom, donor atom, acceptor molecule, acceptor atom, score
      L1  H     8    31       P1  7948  0.80
      L1  H    11    32       P1  7948  0.39
      P1  H 10752 10764       L1    20  0.72

> <Gold.Chemscore.Hbond.Weighted>
-7.9682

> <Gold.Chemscore.Metal.Weighted>
-0.0000

> <Gold.Chemscore.Lipo.Weighted>
-7.7706

> <Gold.Chemscore.Internal_Hbond.Weighted>
0.0000

> <Gold.Chemscore.DEClash.Weighted>
0.0033

> <Gold.Chemscore.DEInternal.Weighted>
2.8395

> <Gold.Chemscore.Rot.Weighted>
3.1643

> <Gold.Chemscore.Internal.Correction.Weighted>
   9.000000E+99

> <Gold.Protein.RotatedTorsions>
[ 6907 6896 6895 6894 ] final -141.67 input  -60.11 | X-H torsion
[ 7974 7965 7964 7962 ] final  -39.62 input  175.53 | X-H torsion
[ 8008 7997 7996 7995 ] final   43.80 input   59.86 | X-H torsion
[ 10167 10162 10161 10158 ] final   78.36 input  -65.29 | X-H torsion
[ 10718 10713 10712 10709 ] final  -75.36 input   66.30 | X-H torsion
[ 10763 10752 10751 10750 ] final  -48.57 input  -60.55 | X-H torsion
[ 11005 11000 10999 10996 ] final  150.87 input  -57.11 | X-H torsion

> <Gold.Protein.ActiveResidues>
 VAL166  LYS551  ARG553  GLY616  TRP617  ASP618  TYR619  PRO620  LYS621  CYS622 
 ASP623  PHE694  ASN695  SER759  ASP760  ASP761  ALA762  ILE779  LEU786  VAL792 
 PHE793  MET794  SER795  GLU796  ALA797  LYS798  CYS799  TRP800  GLU811  SER814 

> <Gold.Protein.RotatedAtoms>
  151.0769  133.5421  159.2623 H   0  0  0  0  0  0  0  0  0  0  0  0  # atno 6907 bound_to 6896
  151.2339  135.0564  159.9008 H   0  0  0  0  0  0  0  0  0  0  0  0  # atno 6908 bound_to 6896
  152.5419  134.0554  159.8182 H   0  0  0  0  0  0  0  0  0  0  0  0  # atno 6909 bound_to 6896
  146.0379  140.6647  142.9101 H   0  0  0  0  0  0  0  0  0  0  0  0  # atno 7974 bound_to 7965
  155.3087  140.3389  155.4245 H   0  0  0  0  0  0  0  0  0  0  0  0  # atno 8008 bound_to 7997
  156.1966  140.1717  156.8023 H   0  0  0  0  0  0  0  0  0  0  0  0  # atno 8009 bound_to 7997
  154.5507  140.0706  156.8646 H   0  0  0  0  0  0  0  0  0  0  0  0  # atno 8010 bound_to 7997
  139.9718  144.5889  150.7979 H   0  0  0  0  0  0  0  0  0  0  0  0  # atno 10167 bound_to 10162
  156.0210  130.4439  150.3031 H   0  0  0  0  0  0  0  0  0  0  0  0  # atno 10718 bound_to 10713
  154.0799  135.6592  153.4836 H   0  0  0  0  0  0  0  0  0  0  0  0  # atno 10763 bound_to 10752
  153.0359  135.5177  154.7484 H   0  0  0  0  0  0  0  0  0  0  0  0  # atno 10764 bound_to 10752
  154.6576  135.3010  154.9876 H   0  0  0  0  0  0  0  0  0  0  0  0  # atno 10765 bound_to 10752
  140.1169  134.8888  157.2017 H   0  0  0  0  0  0  0  0  0  0  0  0  # atno 11005 bound_to 11000
  144.7060  140.3855  143.7117 LP  0  0  0  0  0  0  0  0  0  0  0  0  # atno 17320 bound_to 7965
  145.6933  139.1644  143.2634 LP  0  0  0  0  0  0  0  0  0  0  0  0  # atno 17321 bound_to 7965
  140.7519  143.2981  151.3151 LP  0  0  0  0  0  0  0  0  0  0  0  0  # atno 17342 bound_to 10162
  139.6475  144.0423  152.2602 LP  0  0  0  0  0  0  0  0  0  0  0  0  # atno 17343 bound_to 10162
  157.1134  131.0227  151.3039 LP  0  0  0  0  0  0  0  0  0  0  0  0  # atno 17370 bound_to 10713
  157.4686  130.7695  149.7302 LP  0  0  0  0  0  0  0  0  0  0  0  0  # atno 17371 bound_to 10713
  140.3016  134.3125  155.7288 LP  0  0  0  0  0  0  0  0  0  0  0  0  # atno 17394 bound_to 11000
  141.2143  133.7595  156.9649 LP  0  0  0  0  0  0  0  0  0  0  0  0  # atno 17395 bound_to 11000

$$$$
