AV-unprocessed.smi:2603|AV-procd|sdf|10188|dock5
  -GOLD-   2272014203D 1   1.00000     0.00000
 Structure written by MMmdl.
 35 36  0  0  0  0  0  0  0  0  1 V2000
  143.8042  132.7094  148.2776 C   0  0  0  0  0  0  0  0  0  0  0  0
  144.6917  132.3763  149.4790 C   0  0  0  0  0  0  0  0  0  0  0  0
  144.5110  133.3681  150.4749 O   0  0  0  0  0  0  0  0  0  0  0  0
  145.7294  134.0055  150.8122 C   0  0  1  0  0  0  0  0  0  0  0  0
  145.5328  135.2593  151.6152 C   0  0  0  0  0  0  0  0  0  0  0  0
  146.0279  133.9938  152.2935 C   0  0  2  0  0  0  0  0  0  0  0  0
  147.3987  133.9367  152.6802 N   0  0  0  0  0  0  0  0  0  0  0  0
  147.9644  132.9616  153.4064 C   0  0  0  0  0  0  0  0  0  0  0  0
  147.3483  131.9901  153.8445 O   0  0  0  0  0  0  0  0  0  0  0  0
  149.4638  133.0969  153.6693 C   0  0  0  0  0  0  0  0  0  0  0  0
  149.6922  133.4799  155.1092 C   0  0  0  0  0  0  0  0  0  0  0  0
  150.3717  132.7451  156.1243 C   0  0  0  0  0  0  0  0  0  0  0  0
  151.0316  131.3991  156.0310 C   0  0  0  0  0  0  0  0  0  0  0  0
  150.3735  133.3868  157.2805 N   0  0  0  0  0  0  0  0  0  0  0  0
  149.6862  134.5837  157.0564 O   0  0  0  0  0  0  0  0  0  0  0  0
  149.2891  134.6138  155.7591 C   0  0  0  0  0  0  0  0  0  0  0  0
  148.5251  135.8161  155.3176 C   0  0  0  0  0  0  0  0  0  0  0  0
  143.9153  131.9619  147.4920 H   0  0  0  0  0  0  0  0  0  0  0  0
  144.0655  133.6799  147.8555 H   0  0  0  0  0  0  0  0  0  0  0  0
  142.7529  132.7400  148.5647 H   0  0  0  0  0  0  0  0  0  0  0  0
  144.4291  131.3940  149.8749 H   0  0  0  0  0  0  0  0  0  0  0  0
  145.7377  132.3392  149.1716 H   0  0  0  0  0  0  0  0  0  0  0  0
  146.5267  133.9546  150.0721 H   0  0  0  0  0  0  0  0  0  0  0  0
  146.2463  136.0673  151.4653 H   0  0  0  0  0  0  0  0  0  0  0  0
  144.5117  135.5733  151.8219 H   0  0  0  0  0  0  0  0  0  0  0  0
  145.3072  133.4828  152.9309 H   0  0  0  0  0  0  0  0  0  0  0  0
  147.9902  134.6910  152.3639 H   0  0  0  0  0  0  0  0  0  0  0  0
  149.9612  132.1596  153.4183 H   0  0  0  0  0  0  0  0  0  0  0  0
  149.8755  133.8451  152.9909 H   0  0  0  0  0  0  0  0  0  0  0  0
  150.3556  130.6112  156.3637 H   0  0  0  0  0  0  0  0  0  0  0  0
  151.9288  131.3521  156.6488 H   0  0  0  0  0  0  0  0  0  0  0  0
  151.3274  131.1710  155.0073 H   0  0  0  0  0  0  0  0  0  0  0  0
  147.6214  135.5231  154.7830 H   0  0  0  0  0  0  0  0  0  0  0  0
  149.1282  136.4315  154.6500 H   0  0  0  0  0  0  0  0  0  0  0  0
  148.2293  136.4297  156.1688 H   0  0  0  0  0  0  0  0  0  0  0  0
  1  2  1  0  0  0  0
  1 18  1  0  0  0  0
  1 19  1  0  0  0  0
  1 20  1  0  0  0  0
  2  3  1  0  0  0  0
  2 21  1  0  0  0  0
  2 22  1  0  0  0  0
  3  4  1  0  0  0  0
  4  6  1  0  0  0  0
  4  5  1  0  0  0  0
  4 23  1  0  0  0  0
  5  6  1  0  0  0  0
  5 24  1  0  0  0  0
  5 25  1  0  0  0  0
  6  7  1  0  0  0  0
  6 26  1  0  0  0  0
  7  8  1  0  0  0  0
  7 27  1  0  0  0  0
  8  9  2  0  0  0  0
  8 10  1  0  0  0  0
 10 11  1  0  0  0  0
 10 28  1  0  0  0  0
 10 29  1  0  0  0  0
 11 16  2  0  0  0  0
 11 12  1  0  0  0  0
 12 13  1  0  0  0  0
 12 14  2  0  0  0  0
 13 30  1  0  0  0  0
 13 31  1  0  0  0  0
 13 32  1  0  0  0  0
 14 15  1  0  0  0  0
 15 16  1  0  0  0  0
 16 17  1  0  0  0  0
 17 33  1  0  0  0  0
 17 34  1  0  0  0  0
 17 35  1  0  0  0  0
M  END
> <s_m_source_file>
AV-unprocessed.smi

> <i_m_source_file_index>
2603

> <i_lp_mmshare_version>
43012

> <i_f3d_flags>
0

> <s_epik_input>
W0NIM11bQ0gyXU9bQ0BASF0xW0NIMl1bQ0BIXTFbTkhdQyg9TylbQ0gyXWMyYyhbQ0gzXSlub2MyW0NIM10=

> <s_epik_cmdline>
J2VwaWtfcHl0aG9uJywgJy1waCcsICc3LjAnLCAnLXRuJywgJzgnLCAnLW1hJywgJzIwMCcsICctbWV0YWxfYmluZGluZycsICctaW1hZScsICc8aW5maWxlLm1hZT4nLCAnLW9tYWUnLCAnPG91dGZpbGUubWFlPic=

> <r_lp_tautomer_probability>
1

> <r_epik_Ionization_Penalty>
2.37325e-08

> <r_epik_Ionization_Penalty_Charging>
0

> <r_epik_Ionization_Penalty_Neutral>
2.37325e-08

> <r_epik_State_Penalty>
-0

> <r_epik_Charging_Adjusted_Penalty>
0

> <i_epik_Tot_Q>
0

> <i_epik_Tot_abs_Q>
0

> <r_epik_Metal_State_Penalty>
-0

> <b_epik_Metal_Only>
0

> <s_lp_Force_Field>
OPLS_2005

> <r_lp_Energy>
9.74593

> <b_lp_Chiralities_Consistent>
1

> <s_lp_Variant>
AV-unprocessed.smi:2603-4

> <Gold.Version>
5.8.1

> <Gold.Id.Protein>
6NUR|6NUR_protein|mol2

> <Gold.PLP.Fitness>
34.5110

> <Gold.PLP.PLP>
-29.8025

> <Gold.PLP.part.hbond>
-2.0000

> <Gold.PLP.part.metal>
0.0000

> <Gold.PLP.part.buried>
-4.3763

> <Gold.PLP.part.nonpolar>
-23.5804

> <Gold.PLP.part.repulsive>
0.2124

> <Gold.PLP.ligand.clash>
0.0000

> <Gold.PLP.ligand.torsion>
0.9676

> <Gold.PLP.Chemscore.Hbond>
1.9920

> <Gold.PLP.Chemscore.CHOScore>
0.0000

> <Gold.PLP.Chemscore.Metal>
0.0000

> <Gold.Chemscore.Hbonds>
donor molecule, donor type, donor heavy atom, donor atom, acceptor molecule, acceptor atom, score
      L1  H     7    27       P1  7948  1.00
      P1  H  6896  6907       L1    14  0.99

> <Gold.PLP.Chemscore.Internal.Correction>
0.6676

> <Gold.Rescore>
     Score         DG    S(hbond)    S(metal)    S(lipo)     H(rot)  DE(clash)    DE(int)     intcor
     13.58     -14.59       1.67        0.00      67.17       1.69       0.00       1.01       ----

> <Gold.Chemscore.Fitness>
13.5844

> <Gold.Chemscore.DG>
-14.5925

> <Gold.Chemscore.ZeroCoef>
-5.4800

> <Gold.Chemscore.Hbond>
1.6731

> <Gold.Chemscore.Metal>
0.0000

> <Gold.Chemscore.Lipo>
67.1712

> <Gold.Chemscore.Internal_Hbond>
0.0000

> <Gold.Chemscore.DEClash>
0.0000

> <Gold.Chemscore.DEInternal>
1.0081

> <Gold.Chemscore.Rot>
1.6933

> <Gold.Chemscore.Internal.Correction>
   9.000000E+99

> <Gold.Chemscore.Hbonds>
donor molecule, donor type, donor heavy atom, donor atom, acceptor molecule, acceptor atom, score
      L1  H     7    27       P1  7948  0.55
      P1  H  6896  6907       L1    14  0.31

> <Gold.Chemscore.Hbond.Weighted>
-5.5883

> <Gold.Chemscore.Metal.Weighted>
-0.0000

> <Gold.Chemscore.Lipo.Weighted>
-7.8590

> <Gold.Chemscore.Internal_Hbond.Weighted>
0.0000

> <Gold.Chemscore.DEClash.Weighted>
0.0000

> <Gold.Chemscore.DEInternal.Weighted>
1.0081

> <Gold.Chemscore.Rot.Weighted>
4.3348

> <Gold.Chemscore.Internal.Correction.Weighted>
   9.000000E+99

> <Gold.Protein.RotatedTorsions>
[ 6907 6896 6895 6894 ] final -135.98 input  -60.11 | X-H torsion
[ 7974 7965 7964 7962 ] final -171.02 input  175.53 | X-H torsion
[ 8008 7997 7996 7995 ] final -154.98 input   59.86 | X-H torsion
[ 10167 10162 10161 10158 ] final  -46.24 input  -65.29 | X-H torsion
[ 10718 10713 10712 10709 ] final    7.32 input   66.30 | X-H torsion
[ 10763 10752 10751 10750 ] final  -41.78 input  -60.55 | X-H torsion
[ 11005 11000 10999 10996 ] final -150.95 input  -57.11 | X-H torsion

> <Gold.Protein.ActiveResidues>
 VAL166  LYS551  ARG553  GLY616  TRP617  ASP618  TYR619  PRO620  LYS621  CYS622 
 ASP623  PHE694  ASN695  SER759  ASP760  ASP761  ALA762  ILE779  LEU786  VAL792 
 PHE793  MET794  SER795  GLU796  ALA797  LYS798  CYS799  TRP800  GLU811  SER814 

> <Gold.Protein.RotatedAtoms>
  151.0045  133.6024  159.2690 H   0  0  0  0  0  0  0  0  0  0  0  0  # atno 6907 bound_to 6896
  151.3198  135.0815  159.9311 H   0  0  0  0  0  0  0  0  0  0  0  0  # atno 6908 bound_to 6896
  152.5283  133.9694  159.7809 H   0  0  0  0  0  0  0  0  0  0  0  0  # atno 6909 bound_to 6896
  144.7162  140.1984  143.6341 H   0  0  0  0  0  0  0  0  0  0  0  0  # atno 7974 bound_to 7965
  155.6948  140.0759  157.2434 H   0  0  0  0  0  0  0  0  0  0  0  0  # atno 8008 bound_to 7997
  154.4083  140.1658  156.2178 H   0  0  0  0  0  0  0  0  0  0  0  0  # atno 8009 bound_to 7997
  155.9420  140.3383  155.6338 H   0  0  0  0  0  0  0  0  0  0  0  0  # atno 8010 bound_to 7997
  140.6825  143.2840  151.3754 H   0  0  0  0  0  0  0  0  0  0  0  0  # atno 10167 bound_to 10162
  156.9351  130.5840  149.5650 H   0  0  0  0  0  0  0  0  0  0  0  0  # atno 10718 bound_to 10713
  153.9682  135.6731  153.4746 H   0  0  0  0  0  0  0  0  0  0  0  0  # atno 10763 bound_to 10752
  153.0805  135.4925  154.8490 H   0  0  0  0  0  0  0  0  0  0  0  0  # atno 10764 bound_to 10752
  154.7234  135.3122  154.8971 H   0  0  0  0  0  0  0  0  0  0  0  0  # atno 10765 bound_to 10752
  140.7348  134.3581  157.5159 H   0  0  0  0  0  0  0  0  0  0  0  0  # atno 11005 bound_to 11000
  145.8703  139.2268  143.1665 LP  0  0  0  0  0  0  0  0  0  0  0  0  # atno 17320 bound_to 7965
  146.0091  140.8451  142.9980 LP  0  0  0  0  0  0  0  0  0  0  0  0  # atno 17321 bound_to 7965
  139.6159  144.1005  152.2344 LP  0  0  0  0  0  0  0  0  0  0  0  0  # atno 17342 bound_to 10162
  140.0433  144.5990  150.7393 LP  0  0  0  0  0  0  0  0  0  0  0  0  # atno 17343 bound_to 10162
  156.0429  130.5509  150.8814 LP  0  0  0  0  0  0  0  0  0  0  0  0  # atno 17370 bound_to 10713
  157.5821  131.0946  150.9254 LP  0  0  0  0  0  0  0  0  0  0  0  0  # atno 17371 bound_to 10713
  139.8818  134.9042  156.2872 LP  0  0  0  0  0  0  0  0  0  0  0  0  # atno 17394 bound_to 11000
  140.9889  133.7221  156.0784 LP  0  0  0  0  0  0  0  0  0  0  0  0  # atno 17395 bound_to 11000

$$$$
