AV-unprocessed.smi:701|AV-procd|sdf|3409|dock6
  -GOLD-   22720 0393D 1   1.00000     0.00000
 Structure written by MMmdl.
 49 51  0  0  0  0  0  0  0  0  1 V2000
  151.4364  142.6660  157.6619 C   0  0  0  0  0  0  0  0  0  0  0  0
  151.0178  141.8944  156.4032 C   0  0  0  0  0  0  0  0  0  0  0  0
  151.3458  140.5131  156.4726 O   0  0  0  0  0  0  0  0  0  0  0  0
  151.1529  139.7909  155.2646 C   0  0  1  0  0  0  0  0  0  0  0  0
  151.4368  138.2911  155.3911 C   0  0  0  0  0  0  0  0  0  0  0  0
  150.2454  138.0953  154.4564 C   0  0  1  0  0  0  0  0  0  0  0  0
  149.4559  136.9168  154.7956 N   0  0  0  0  0  0  0  0  0  0  0  0
  149.9751  135.7310  155.1443 C   0  0  0  0  0  0  0  0  0  0  0  0
  151.1871  135.5207  155.2093 O   0  0  0  0  0  0  0  0  0  0  0  0
  148.9663  134.6111  155.4343 C   0  0  0  0  0  0  0  0  0  0  0  0
  149.5872  133.2796  155.4823 N   0  0  0  0  0  0  0  0  0  0  0  0
  149.2311  132.3071  154.5586 C   0  0  0  0  0  0  0  0  0  0  0  0
  149.7721  131.0660  154.5370 C   0  0  0  0  0  0  0  0  0  0  0  0
  150.7855  130.6850  155.5151 C   0  0  0  0  0  0  0  0  0  0  0  0
  151.3327  129.5863  155.5779 O   0  0  0  0  0  0  0  0  0  0  0  0
  151.1186  131.6915  156.4256 N   0  0  0  0  0  0  0  0  0  0  0  0
  150.5668  132.9731  156.4518 C   0  0  0  0  0  0  0  0  0  0  0  0
  150.9362  133.7882  157.2963 O   0  0  0  0  0  0  0  0  0  0  0  0
  149.6669  139.4443  154.9662 C   0  0  0  0  0  0  0  0  0  0  0  0
  148.6998  139.3730  156.1775 C   0  0  0  0  0  0  0  0  0  0  0  0
  148.2441  140.7502  156.6983 C   0  0  0  0  0  0  0  0  0  0  0  0
  147.6422  141.6075  155.5791 C   0  0  0  0  0  0  0  0  0  0  0  0
  148.5950  141.6979  154.3819 C   0  0  0  0  0  0  0  0  0  0  0  0
  148.9842  140.2973  153.8851 C   0  0  0  0  0  0  0  0  0  0  0  0
  151.8180  131.4746  157.1207 H   0  0  0  0  0  0  0  0  0  0  0  0
  151.0676  143.6912  157.6249 H   0  0  0  0  0  0  0  0  0  0  0  0
  152.5200  142.7150  157.7617 H   0  0  0  0  0  0  0  0  0  0  0  0
  151.0330  142.1992  158.5608 H   0  0  0  0  0  0  0  0  0  0  0  0
  149.9356  141.9644  156.2916 H   0  0  0  0  0  0  0  0  0  0  0  0
  151.4485  142.3449  155.5079 H   0  0  0  0  0  0  0  0  0  0  0  0
  151.6437  140.2432  154.3991 H   0  0  0  0  0  0  0  0  0  0  0  0
  152.3916  137.9664  154.9779 H   0  0  0  0  0  0  0  0  0  0  0  0
  151.2792  137.9064  156.4001 H   0  0  0  0  0  0  0  0  0  0  0  0
  150.5522  138.1372  153.4082 H   0  0  0  0  0  0  0  0  0  0  0  0
  148.4511  137.0086  154.7581 H   0  0  0  0  0  0  0  0  0  0  0  0
  148.4408  134.8167  156.3693 H   0  0  0  0  0  0  0  0  0  0  0  0
  148.1978  134.6415  154.6608 H   0  0  0  0  0  0  0  0  0  0  0  0
  148.4873  132.5471  153.8121 H   0  0  0  0  0  0  0  0  0  0  0  0
  149.4542  130.3517  153.7914 H   0  0  0  0  0  0  0  0  0  0  0  0
  147.8083  138.8079  155.9032 H   0  0  0  0  0  0  0  0  0  0  0  0
  149.1513  138.8210  157.0023 H   0  0  0  0  0  0  0  0  0  0  0  0
  147.5115  140.6186  157.4951 H   0  0  0  0  0  0  0  0  0  0  0  0
  149.0822  141.2814  157.1477 H   0  0  0  0  0  0  0  0  0  0  0  0
  146.6961  141.1717  155.2561 H   0  0  0  0  0  0  0  0  0  0  0  0
  147.4123  142.6054  155.9536 H   0  0  0  0  0  0  0  0  0  0  0  0
  148.1240  142.2616  153.5761 H   0  0  0  0  0  0  0  0  0  0  0  0
  149.4922  142.2502  154.6649 H   0  0  0  0  0  0  0  0  0  0  0  0
  149.6359  140.4007  153.0168 H   0  0  0  0  0  0  0  0  0  0  0  0
  148.0919  139.7873  153.5195 H   0  0  0  0  0  0  0  0  0  0  0  0
  1  2  1  0  0  0  0
  1 26  1  0  0  0  0
  1 27  1  0  0  0  0
  1 28  1  0  0  0  0
  2  3  1  0  0  0  0
  2 29  1  0  0  0  0
  2 30  1  0  0  0  0
  3  4  1  0  0  0  0
  4 19  1  0  0  0  0
  4  5  1  0  0  0  0
  4 31  1  0  0  0  0
  5  6  1  0  0  0  0
  5 32  1  0  0  0  0
  5 33  1  0  0  0  0
  6  7  1  0  0  0  0
  6 19  1  0  0  0  0
  6 34  1  0  0  0  0
  7  8  1  0  0  0  0
  7 35  1  0  0  0  0
  8  9  2  0  0  0  0
  8 10  1  0  0  0  0
 10 11  1  0  0  0  0
 10 36  1  0  0  0  0
 10 37  1  0  0  0  0
 11 17  1  0  0  0  0
 11 12  1  0  0  0  0
 12 13  2  0  0  0  0
 12 38  1  0  0  0  0
 13 14  1  0  0  0  0
 13 39  1  0  0  0  0
 14 15  2  0  0  0  0
 14 16  1  0  0  0  0
 16 25  1  0  0  0  0
 16 17  1  0  0  0  0
 17 18  2  0  0  0  0
 19 24  1  0  0  0  0
 19 20  1  0  0  0  0
 20 21  1  0  0  0  0
 20 40  1  0  0  0  0
 20 41  1  0  0  0  0
 21 22  1  0  0  0  0
 21 42  1  0  0  0  0
 21 43  1  0  0  0  0
 22 23  1  0  0  0  0
 22 44  1  0  0  0  0
 22 45  1  0  0  0  0
 23 24  1  0  0  0  0
 23 46  1  0  0  0  0
 23 47  1  0  0  0  0
 24 48  1  0  0  0  0
 24 49  1  0  0  0  0
M  END
> <s_m_source_file>
AV-unprocessed.smi

> <i_m_source_file_index>
701

> <i_lp_mmshare_version>
43012

> <i_f3d_flags>
0

> <s_epik_input>
W0NIMl0xW0NIMl1bQ0gyXVtDSDJdW0NIMl1DMTJbQ0BIXShPW0NIMl1bQ0gzXSlbQ0gyXVtDQEhdMltOSF1DKD1PKVtDSDJdbjNbY0hdW2NIXWMoPU8pW25IXWMzPU8=

> <s_epik_cmdline>
J2VwaWtfcHl0aG9uJywgJy1waCcsICc3LjAnLCAnLXRuJywgJzgnLCAnLW1hJywgJzIwMCcsICctbWV0YWxfYmluZGluZycsICctaW1hZScsICc8aW5maWxlLm1hZT4nLCAnLW9tYWUnLCAnPG91dGZpbGUubWFlPic=

> <r_lp_tautomer_probability>
0.999537

> <r_epik_Ionization_Penalty>
0.00304597

> <r_epik_Ionization_Penalty_Charging>
0.00304595

> <r_epik_Ionization_Penalty_Neutral>
1.88422e-08

> <r_epik_State_Penalty>
0.00214084

> <r_epik_Charging_Adjusted_Penalty>
0.00518679

> <i_epik_Tot_Q>
0

> <i_epik_Tot_abs_Q>
0

> <r_epik_Metal_State_Penalty>
0.361872

> <b_epik_Metal_Only>
0

> <s_lp_Force_Field>
OPLS_2005

> <r_lp_Energy>
28.8847

> <b_lp_Chiralities_Consistent>
1

> <s_lp_Variant>
AV-unprocessed.smi:701-2

> <Gold.Version>
5.8.1

> <Gold.Id.Protein>
6NUR|6NUR_protein|mol2

> <Gold.PLP.Fitness>
41.5615

> <Gold.PLP.PLP>
-37.4865

> <Gold.PLP.part.hbond>
-3.0000

> <Gold.PLP.part.metal>
0.0000

> <Gold.PLP.part.buried>
-1.0167

> <Gold.PLP.part.nonpolar>
-33.7538

> <Gold.PLP.part.repulsive>
0.2198

> <Gold.PLP.ligand.clash>
0.0000

> <Gold.PLP.ligand.torsion>
0.5345

> <Gold.PLP.Chemscore.Hbond>
1.6080

> <Gold.PLP.Chemscore.CHOScore>
0.0000

> <Gold.PLP.Chemscore.Metal>
0.0000

> <Gold.Chemscore.Hbonds>
donor molecule, donor type, donor heavy atom, donor atom, acceptor molecule, acceptor atom, score
      P1  H  6896  6909       L1    18  0.58
      P1  H 10752 10764       L1     9  1.00

> <Gold.PLP.Chemscore.Internal.Correction>
0.3201

> <Gold.Rescore>
     Score         DG    S(hbond)    S(metal)    S(lipo)     H(rot)  DE(clash)    DE(int)     intcor
     13.42     -15.93       1.88        0.00      81.53       2.09       0.38       2.13       ----

> <Gold.Chemscore.Fitness>
13.4172

> <Gold.Chemscore.DG>
-15.9259

> <Gold.Chemscore.ZeroCoef>
-5.4800

> <Gold.Chemscore.Hbond>
1.8759

> <Gold.Chemscore.Metal>
0.0000

> <Gold.Chemscore.Lipo>
81.5308

> <Gold.Chemscore.Internal_Hbond>
0.0000

> <Gold.Chemscore.DEClash>
0.3767

> <Gold.Chemscore.DEInternal>
2.1319

> <Gold.Chemscore.Rot>
2.0933

> <Gold.Chemscore.Internal.Correction>
   9.000000E+99

> <Gold.Chemscore.Hbonds>
donor molecule, donor type, donor heavy atom, donor atom, acceptor molecule, acceptor atom, score
      P1  H  6896  6909       L1    18  0.58
      P1  H 10752 10764       L1     9  0.99

> <Gold.Chemscore.Hbond.Weighted>
-6.2656

> <Gold.Chemscore.Metal.Weighted>
-0.0000

> <Gold.Chemscore.Lipo.Weighted>
-9.5391

> <Gold.Chemscore.Internal_Hbond.Weighted>
0.0000

> <Gold.Chemscore.DEClash.Weighted>
0.3767

> <Gold.Chemscore.DEInternal.Weighted>
2.1319

> <Gold.Chemscore.Rot.Weighted>
5.3588

> <Gold.Chemscore.Internal.Correction.Weighted>
   9.000000E+99

> <Gold.Protein.RotatedTorsions>
[ 6907 6896 6895 6894 ] final  -29.03 input  -60.11 | X-H torsion
[ 7974 7965 7964 7962 ] final  127.86 input  175.53 | X-H torsion
[ 8008 7997 7996 7995 ] final  146.87 input   59.86 | X-H torsion
[ 10167 10162 10161 10158 ] final -165.50 input  -65.29 | X-H torsion
[ 10718 10713 10712 10709 ] final  -53.34 input   66.30 | X-H torsion
[ 10763 10752 10751 10750 ] final  -52.02 input  -60.55 | X-H torsion
[ 11005 11000 10999 10996 ] final -128.52 input  -57.11 | X-H torsion

> <Gold.Protein.ActiveResidues>
 VAL166  LYS551  ARG553  GLY616  TRP617  ASP618  TYR619  PRO620  LYS621  CYS622 
 ASP623  PHE694  ASN695  SER759  ASP760  ASP761  ALA762  ILE779  LEU786  VAL792 
 PHE793  MET794  SER795  GLU796  ALA797  LYS798  CYS799  TRP800  GLU811  SER814 

> <Gold.Protein.RotatedAtoms>
  151.1248  135.0098  159.8554 H   0  0  0  0  0  0  0  0  0  0  0  0  # atno 6907 bound_to 6896
  152.5449  134.1680  159.8595 H   0  0  0  0  0  0  0  0  0  0  0  0  # atno 6908 bound_to 6896
  151.1741  133.4720  159.2627 H   0  0  0  0  0  0  0  0  0  0  0  0  # atno 6909 bound_to 6896
  145.0459  139.3924  143.5078 H   0  0  0  0  0  0  0  0  0  0  0  0  # atno 7974 bound_to 7965
  156.2842  140.2171  156.5446 H   0  0  0  0  0  0  0  0  0  0  0  0  # atno 8008 bound_to 7997
  154.7341  140.0493  157.0775 H   0  0  0  0  0  0  0  0  0  0  0  0  # atno 8009 bound_to 7997
  155.0315  140.3135  155.4760 H   0  0  0  0  0  0  0  0  0  0  0  0  # atno 8010 bound_to 7997
  139.6178  144.0685  152.1904 H   0  0  0  0  0  0  0  0  0  0  0  0  # atno 10167 bound_to 10162
  156.1543  130.4150  149.9894 H   0  0  0  0  0  0  0  0  0  0  0  0  # atno 10718 bound_to 10713
  154.1361  135.6512  153.4932 H   0  0  0  0  0  0  0  0  0  0  0  0  # atno 10763 bound_to 10752
  153.0180  135.5304  154.6952 H   0  0  0  0  0  0  0  0  0  0  0  0  # atno 10764 bound_to 10752
  154.6201  135.2963  155.0307 H   0  0  0  0  0  0  0  0  0  0  0  0  # atno 10765 bound_to 10752
  140.9509  134.1066  157.4063 H   0  0  0  0  0  0  0  0  0  0  0  0  # atno 11005 bound_to 11000
  146.3514  140.0084  142.8669 LP  0  0  0  0  0  0  0  0  0  0  0  0  # atno 17320 bound_to 7965
  145.1589  140.9662  143.4389 LP  0  0  0  0  0  0  0  0  0  0  0  0  # atno 17321 bound_to 7965
  140.0319  144.6074  150.7481 LP  0  0  0  0  0  0  0  0  0  0  0  0  # atno 17342 bound_to 10162
  140.7362  143.2750  151.3769 LP  0  0  0  0  0  0  0  0  0  0  0  0  # atno 17343 bound_to 10162
  156.7742  130.9197  151.3645 LP  0  0  0  0  0  0  0  0  0  0  0  0  # atno 17370 bound_to 10713
  157.6682  130.9027  149.9981 LP  0  0  0  0  0  0  0  0  0  0  0  0  # atno 17371 bound_to 10713
  139.8847  135.0065  156.6388 LP  0  0  0  0  0  0  0  0  0  0  0  0  # atno 17394 bound_to 11000
  140.7603  133.8823  155.8413 LP  0  0  0  0  0  0  0  0  0  0  0  0  # atno 17395 bound_to 11000

$$$$
