AV-unprocessed.smi:119|AV-procd|sdf|1135|dock8
  -GOLD-   2262018263D 1   1.00000     0.00000
 Structure written by MMmdl.
 51 54  0  0  0  0  0  0  0  0  1 V2000
  148.7805  142.2901  157.8403 C   0  0  0  0  0  0  0  0  0  0  0  0
  149.8730  141.6871  156.9427 C   0  0  2  0  0  0  0  0  0  0  0  0
  150.0966  140.1779  157.1660 C   0  0  0  0  0  0  0  0  0  0  0  0
  150.6010  139.7667  158.5643 C   0  0  0  0  0  0  0  0  0  0  0  0
  151.9819  140.1950  158.8231 N   0  0  0  0  0  0  0  0  0  0  0  0
  153.0735  139.4553  158.4948 C   0  0  0  0  0  0  0  0  0  0  0  0
  154.2211  139.8649  158.6900 O   0  0  0  0  0  0  0  0  0  0  0  0
  152.8801  138.0598  157.8601 C   0  0  0  0  0  0  0  0  0  0  0  0
  154.1355  137.2849  157.7408 N   0  0  0  0  0  0  0  0  0  0  0  0
  154.4324  136.3215  158.7352 C   0  0  0  0  0  0  0  0  0  0  0  0
  153.6735  136.1314  159.6872 O   0  0  0  0  0  0  0  0  0  0  0  0
  155.6752  135.5839  158.5439 C   0  0  0  0  0  0  0  0  0  0  0  0
  156.0453  134.6603  159.4473 F   0  0  0  0  0  0  0  0  0  0  0  0
  156.4661  135.8152  157.4756 C   0  0  0  0  0  0  0  0  0  0  0  0
  156.1613  136.7538  156.5036 N   0  0  0  0  0  0  0  0  0  0  0  0
  157.0130  136.9806  155.2702 C   0  0  1  0  0  0  0  0  0  0  0  0
  158.3881  136.3072  155.2705 C   0  0  0  0  0  0  0  0  0  0  0  0
  158.6659  136.2963  153.7852 C   0  0  0  0  0  0  0  0  0  0  0  0
  157.2868  135.9528  153.2220 C   0  0  0  0  0  0  0  0  0  0  0  0
  156.3406  136.4521  154.1666 O   0  0  0  0  0  0  0  0  0  0  0  0
  154.9723  137.5087  156.6215 C   0  0  0  0  0  0  0  0  0  0  0  0
  154.6699  138.3414  155.7635 O   0  0  0  0  0  0  0  0  0  0  0  0
  152.1457  141.4637  159.4421 C   0  0  0  0  0  0  0  0  0  0  0  0
  152.5523  141.5256  160.7940 C   0  0  0  0  0  0  0  0  0  0  0  0
  152.7223  142.7708  161.4281 C   0  0  0  0  0  0  0  0  0  0  0  0
  152.4875  143.9614  160.7150 C   0  0  0  0  0  0  0  0  0  0  0  0
  152.0820  143.9067  159.3679 C   0  0  0  0  0  0  0  0  0  0  0  0
  151.9049  142.6630  158.7294 C   0  0  0  0  0  0  0  0  0  0  0  0
  151.4134  142.6467  157.0312 S   0  0  0  0  0  0  0  0  0  0  0  0
  147.8433  141.7425  157.7383 H   0  0  0  0  0  0  0  0  0  0  0  0
  148.5855  143.3280  157.5696 H   0  0  0  0  0  0  0  0  0  0  0  0
  149.0610  142.2757  158.8932 H   0  0  0  0  0  0  0  0  0  0  0  0
  149.5293  141.7983  155.9138 H   0  0  0  0  0  0  0  0  0  0  0  0
  149.1526  139.6641  156.9821 H   0  0  0  0  0  0  0  0  0  0  0  0
  150.7792  139.8066  156.4016 H   0  0  0  0  0  0  0  0  0  0  0  0
  149.9483  140.1839  159.3316 H   0  0  0  0  0  0  0  0  0  0  0  0
  150.4945  138.6895  158.6886 H   0  0  0  0  0  0  0  0  0  0  0  0
  152.1461  137.5095  158.4496 H   0  0  0  0  0  0  0  0  0  0  0  0
  152.4147  138.1613  156.8800 H   0  0  0  0  0  0  0  0  0  0  0  0
  157.3719  135.2355  157.4168 H   0  0  0  0  0  0  0  0  0  0  0  0
  157.1025  138.0649  155.1727 H   0  0  0  0  0  0  0  0  0  0  0  0
  159.1140  136.8644  155.8631 H   0  0  0  0  0  0  0  0  0  0  0  0
  158.3284  135.2747  155.6124 H   0  0  0  0  0  0  0  0  0  0  0  0
  158.9758  137.2881  153.4524 H   0  0  0  0  0  0  0  0  0  0  0  0
  159.4358  135.5806  153.4951 H   0  0  0  0  0  0  0  0  0  0  0  0
  157.1261  136.3845  152.2338 H   0  0  0  0  0  0  0  0  0  0  0  0
  157.1612  134.8723  153.1451 H   0  0  0  0  0  0  0  0  0  0  0  0
  152.7361  140.6161  161.3475 H   0  0  0  0  0  0  0  0  0  0  0  0
  153.0349  142.8119  162.4610 H   0  0  0  0  0  0  0  0  0  0  0  0
  152.6205  144.9166  161.2009 H   0  0  0  0  0  0  0  0  0  0  0  0
  151.9062  144.8238  158.8250 H   0  0  0  0  0  0  0  0  0  0  0  0
  1  2  1  0  0  0  0
  1 30  1  0  0  0  0
  1 31  1  0  0  0  0
  1 32  1  0  0  0  0
  2 29  1  0  0  0  0
  2  3  1  0  0  0  0
  2 33  1  0  0  0  0
  3  4  1  0  0  0  0
  3 34  1  0  0  0  0
  3 35  1  0  0  0  0
  4  5  1  0  0  0  0
  4 36  1  0  0  0  0
  4 37  1  0  0  0  0
  5  6  1  0  0  0  0
  5 23  1  0  0  0  0
  6  7  2  0  0  0  0
  6  8  1  0  0  0  0
  8  9  1  0  0  0  0
  8 38  1  0  0  0  0
  8 39  1  0  0  0  0
  9 21  1  0  0  0  0
  9 10  1  0  0  0  0
 10 11  2  0  0  0  0
 10 12  1  0  0  0  0
 12 13  1  0  0  0  0
 12 14  2  0  0  0  0
 14 15  1  0  0  0  0
 14 40  1  0  0  0  0
 15 16  1  0  0  0  0
 15 21  1  0  0  0  0
 16 20  1  0  0  0  0
 16 17  1  0  0  0  0
 16 41  1  0  0  0  0
 17 18  1  0  0  0  0
 17 42  1  0  0  0  0
 17 43  1  0  0  0  0
 18 19  1  0  0  0  0
 18 44  1  0  0  0  0
 18 45  1  0  0  0  0
 19 20  1  0  0  0  0
 19 46  1  0  0  0  0
 19 47  1  0  0  0  0
 21 22  2  0  0  0  0
 23 28  2  0  0  0  0
 23 24  1  0  0  0  0
 24 25  2  0  0  0  0
 24 48  1  0  0  0  0
 25 26  1  0  0  0  0
 25 49  1  0  0  0  0
 26 27  2  0  0  0  0
 26 50  1  0  0  0  0
 27 28  1  0  0  0  0
 27 51  1  0  0  0  0
 28 29  1  0  0  0  0
M  END
> <s_m_source_file>
AV-unprocessed.smi

> <i_m_source_file_index>
119

> <i_lp_mmshare_version>
43012

> <i_f3d_flags>
0

> <s_epik_input>
W2NIXTFbY0hdW2NIXVtjSF1jKGMxMilTW0NASF0oW0NIM10pW0NIMl1bQ0gyXU4yQyg9TylbQ0gyXW4zYyg9TyljKEYpW2NIXW4oYzM9TylbQ0BASF00W0NIMl1bQ0gyXVtDSDJdTzQ=

> <s_epik_cmdline>
J2VwaWtfcHl0aG9uJywgJy1waCcsICc3LjAnLCAnLXRuJywgJzgnLCAnLW1hJywgJzIwMCcsICctbWV0YWxfYmluZGluZycsICctaW1hZScsICc8aW5maWxlLm1hZT4nLCAnLW9tYWUnLCAnPG91dGZpbGUubWFlPic=

> <r_lp_tautomer_probability>
1

> <r_epik_Ionization_Penalty>
1.68882e-06

> <r_epik_Ionization_Penalty_Charging>
3.67303e-09

> <r_epik_Ionization_Penalty_Neutral>
1.68515e-06

> <r_epik_State_Penalty>
-0

> <r_epik_Charging_Adjusted_Penalty>
3.67303e-09

> <i_epik_Tot_Q>
0

> <i_epik_Tot_abs_Q>
0

> <r_epik_Metal_State_Penalty>
-0

> <b_epik_Metal_Only>
0

> <s_epik_Chemistry_Notes>
This compound contains an acetal/aminal-like group ( X-CH(R)-Y where X, Y are N, S, or O) that may be acid/base labile, releasing an aldehyde.

> <s_lp_Force_Field>
OPLS_2005

> <r_lp_Energy>
51.5083

> <b_lp_Chiralities_Consistent>
1

> <s_lp_Variant>
AV-unprocessed.smi:119-3

> <Gold.Version>
5.8.1

> <Gold.Id.Protein>
6NUR|6NUR_protein|mol2

> <Gold.PLP.Fitness>
46.6273

> <Gold.PLP.PLP>
-38.6678

> <Gold.PLP.part.hbond>
-3.1565

> <Gold.PLP.part.metal>
0.0000

> <Gold.PLP.part.buried>
-3.5488

> <Gold.PLP.part.nonpolar>
-30.9794

> <Gold.PLP.part.repulsive>
0.0000

> <Gold.PLP.ligand.clash>
0.0000

> <Gold.PLP.ligand.torsion>
0.6250

> <Gold.PLP.Chemscore.Hbond>
3.0640

> <Gold.PLP.Chemscore.CHOScore>
0.0000

> <Gold.PLP.Chemscore.Metal>
0.0000

> <Gold.Chemscore.Hbonds>
donor molecule, donor type, donor heavy atom, donor atom, acceptor molecule, acceptor atom, score
      P1  H  6896  6909       L1    11  1.00
      P1  H  7997  8009       L1     7  1.00
      P1  H  7997  8010       L1    22  0.08
      P1  H 10752 10763       L1    20  1.00

> <Gold.PLP.Chemscore.Internal.Correction>
0.0175

> <Gold.Rescore>
     Score         DG    S(hbond)    S(metal)    S(lipo)     H(rot)  DE(clash)    DE(int)     intcor
     22.89     -25.14       2.90        0.00     118.52       1.53       0.51       1.74       ----

> <Gold.Chemscore.Fitness>
22.8880

> <Gold.Chemscore.DG>
-25.1397

> <Gold.Chemscore.ZeroCoef>
-5.4800

> <Gold.Chemscore.Hbond>
2.9047

> <Gold.Chemscore.Metal>
0.0000

> <Gold.Chemscore.Lipo>
118.5150

> <Gold.Chemscore.Internal_Hbond>
0.0000

> <Gold.Chemscore.DEClash>
0.5087

> <Gold.Chemscore.DEInternal>
1.7431

> <Gold.Chemscore.Rot>
1.5266

> <Gold.Chemscore.Internal.Correction>
   9.000000E+99

> <Gold.Chemscore.Hbonds>
donor molecule, donor type, donor heavy atom, donor atom, acceptor molecule, acceptor atom, score
      P1  H  6896  6909       L1    11  0.99
      P1  H  7997  8009       L1     7  0.83
      P1  H  7997  8010       L1    22  0.10
      P1  H 10752 10763       L1    20  0.84

> <Gold.Chemscore.Hbond.Weighted>
-9.7016

> <Gold.Chemscore.Metal.Weighted>
-0.0000

> <Gold.Chemscore.Lipo.Weighted>
-13.8663

> <Gold.Chemscore.Internal_Hbond.Weighted>
0.0000

> <Gold.Chemscore.DEClash.Weighted>
0.5087

> <Gold.Chemscore.DEInternal.Weighted>
1.7431

> <Gold.Chemscore.Rot.Weighted>
3.9081

> <Gold.Chemscore.Internal.Correction.Weighted>
   9.000000E+99

> <Gold.Protein.RotatedTorsions>
[ 6907 6896 6895 6894 ] final  159.48 input  -60.11 | X-H torsion
[ 7974 7965 7964 7962 ] final  -33.56 input  175.53 | X-H torsion
[ 8008 7997 7996 7995 ] final  119.89 input   59.86 | X-H torsion
[ 10167 10162 10161 10158 ] final   -2.07 input  -65.29 | X-H torsion
[ 10718 10713 10712 10709 ] final   66.23 input   66.30 | X-H torsion
[ 10763 10752 10751 10750 ] final -124.21 input  -60.55 | X-H torsion
[ 11005 11000 10999 10996 ] final  101.62 input  -57.11 | X-H torsion

> <Gold.Protein.ActiveResidues>
 VAL166  LYS551  ARG553  GLY616  TRP617  ASP618  TYR619  PRO620  LYS621  CYS622 
 ASP623  PHE694  ASN695  SER759  ASP760  ASP761  ALA762  ILE779  LEU786  VAL792 
 PHE793  MET794  SER795  GLU796  ALA797  LYS798  CYS799  TRP800  GLU811  SER814 

> <Gold.Protein.RotatedAtoms>
  151.9850  133.3771  159.4121 H   0  0  0  0  0  0  0  0  0  0  0  0  # atno 6907 bound_to 6896
  150.6929  134.3998  159.5123 H   0  0  0  0  0  0  0  0  0  0  0  0  # atno 6908 bound_to 6896
  152.1723  134.8823  160.0584 H   0  0  0  0  0  0  0  0  0  0  0  0  # atno 6909 bound_to 6896
  146.0901  140.5931  142.8868 H   0  0  0  0  0  0  0  0  0  0  0  0  # atno 7974 bound_to 7965
  156.2617  140.2843  156.1063 H   0  0  0  0  0  0  0  0  0  0  0  0  # atno 8008 bound_to 7997
  155.1306  140.0394  157.2791 H   0  0  0  0  0  0  0  0  0  0  0  0  # atno 8009 bound_to 7997
  154.6603  140.2565  155.7123 H   0  0  0  0  0  0  0  0  0  0  0  0  # atno 8010 bound_to 7997
  140.6836  143.6701  150.8193 H   0  0  0  0  0  0  0  0  0  0  0  0  # atno 10167 bound_to 10162
  157.6156  130.9256  150.0081 H   0  0  0  0  0  0  0  0  0  0  0  0  # atno 10718 bound_to 10713
  154.8720  135.4071  154.3069 H   0  0  0  0  0  0  0  0  0  0  0  0  # atno 10763 bound_to 10752
  153.3920  135.7015  153.6494 H   0  0  0  0  0  0  0  0  0  0  0  0  # atno 10764 bound_to 10752
  153.5272  135.3675  155.2630 H   0  0  0  0  0  0  0  0  0  0  0  0  # atno 10765 bound_to 10752
  139.8774  134.9190  156.4934 H   0  0  0  0  0  0  0  0  0  0  0  0  # atno 11005 bound_to 11000
  144.7354  140.4792  143.6908 LP  0  0  0  0  0  0  0  0  0  0  0  0  # atno 17320 bound_to 7965
  145.6056  139.1508  143.3104 LP  0  0  0  0  0  0  0  0  0  0  0  0  # atno 17321 bound_to 7965
  140.0404  143.5351  152.2720 LP  0  0  0  0  0  0  0  0  0  0  0  0  # atno 17342 bound_to 10162
  139.6177  144.7623  151.2810 LP  0  0  0  0  0  0  0  0  0  0  0  0  # atno 17343 bound_to 10162
  156.1276  130.3644  149.9783 LP  0  0  0  0  0  0  0  0  0  0  0  0  # atno 17370 bound_to 10713
  156.7851  130.9235  151.3646 LP  0  0  0  0  0  0  0  0  0  0  0  0  # atno 17371 bound_to 10713
  140.8642  133.8037  155.9296 LP  0  0  0  0  0  0  0  0  0  0  0  0  # atno 17394 bound_to 11000
  140.9019  134.2368  157.5037 LP  0  0  0  0  0  0  0  0  0  0  0  0  # atno 17395 bound_to 11000

$$$$
