AV-unprocessed.smi:1225|AV-procd|sdf|5141|dock7
  -GOLD-   22720 4203D 1   1.00000     0.00000
 Structure written by MMmdl.
 49 51  0  0  0  0  0  0  0  0  2 V2000
  142.7175  134.8438  152.6658 C   0  0  0  0  0  0  0  0  0  0  0  0
  143.9262  135.6847  152.4343 C   0  0  0  0  0  0  0  0  0  0  0  0
  144.9380  135.3228  151.6422 N   0  0  0  0  0  0  0  0  0  0  0  0
  145.9482  136.2855  151.5928 C   0  0  0  0  0  0  0  0  0  0  0  0
  145.6920  137.3973  152.3570 C   0  0  0  0  0  0  0  0  0  0  0  0
  146.5442  138.6125  152.5208 C   0  0  0  0  0  0  0  0  0  0  0  0
  147.7422  138.3448  153.3574 N   0  3  2  0  0  0  0  0  0  0  0  0
  147.3930  137.8415  154.7063 C   0  0  0  0  0  0  0  0  0  0  0  0
  148.6802  139.4935  153.4143 C   0  0  0  0  0  0  0  0  0  0  0  0
  148.2271  140.5602  154.4363 C   0  0  2  0  0  0  0  0  0  0  0  0
  147.1912  141.3282  153.8593 O   0  0  0  0  0  0  0  0  0  0  0  0
  149.3514  141.5246  154.8647 C   0  0  0  0  0  0  0  0  0  0  0  0
  150.2713  140.9245  155.8144 N   0  0  0  0  0  0  0  0  0  0  0  0
  150.7298  139.6575  155.8105 C   0  0  0  0  0  0  0  0  0  0  0  0
  151.5620  139.3086  156.7868 N   0  0  0  0  0  0  0  0  0  0  0  0
  151.6679  140.4901  157.4998 C   0  0  0  0  0  0  0  0  0  0  0  0
  152.4074  140.7955  158.6631 C   0  0  0  0  0  0  0  0  0  0  0  0
  152.3655  142.0893  159.2298 C   0  0  0  0  0  0  0  0  0  0  0  0
  153.1780  142.3740  160.4808 C   0  0  0  0  0  0  0  0  0  0  0  0
  151.5753  143.1025  158.6301 C   0  0  0  0  0  0  0  0  0  0  0  0
  151.5168  144.5003  159.2204 C   0  0  0  0  0  0  0  0  0  0  0  0
  150.8311  142.8147  157.4669 C   0  0  0  0  0  0  0  0  0  0  0  0
  150.8775  141.5224  156.9145 C   0  0  0  0  0  0  0  0  0  0  0  0
  144.1573  137.2626  153.1766 S   0  0  0  0  0  0  0  0  0  0  0  0
  142.8735  133.8336  152.2859 H   0  0  0  0  0  0  0  0  0  0  0  0
  141.8576  135.2802  152.1573 H   0  0  0  0  0  0  0  0  0  0  0  0
  142.5018  134.7853  153.7327 H   0  0  0  0  0  0  0  0  0  0  0  0
  146.8179  136.0994  150.9799 H   0  0  0  0  0  0  0  0  0  0  0  0
  146.8407  138.9567  151.5303 H   0  0  0  0  0  0  0  0  0  0  0  0
  145.9656  139.4283  152.9570 H   0  0  0  0  0  0  0  0  0  0  0  0
  146.8528  138.5980  155.2771 H   0  0  0  0  0  0  0  0  0  0  0  0
  148.2914  137.5709  155.2621 H   0  0  0  0  0  0  0  0  0  0  0  0
  146.7702  136.9489  154.6459 H   0  0  0  0  0  0  0  0  0  0  0  0
  149.6763  139.1139  153.6451 H   0  0  0  0  0  0  0  0  0  0  0  0
  148.7587  139.9670  152.4343 H   0  0  0  0  0  0  0  0  0  0  0  0
  147.8224  140.0830  155.3277 H   0  0  0  0  0  0  0  0  0  0  0  0
  146.8880  140.8888  153.0787 H   0  0  0  0  0  0  0  0  0  0  0  0
  149.9201  141.8533  153.9932 H   0  0  0  0  0  0  0  0  0  0  0  0
  148.9301  142.4216  155.3206 H   0  0  0  0  0  0  0  0  0  0  0  0
  150.4278  138.9475  155.0544 H   0  0  0  0  0  0  0  0  0  0  0  0
  153.0115  140.0243  159.1184 H   0  0  0  0  0  0  0  0  0  0  0  0
  152.5283  142.6955  161.2951 H   0  0  0  0  0  0  0  0  0  0  0  0
  153.9096  143.1594  160.2896 H   0  0  0  0  0  0  0  0  0  0  0  0
  153.7190  141.4882  160.8146 H   0  0  0  0  0  0  0  0  0  0  0  0
  150.8639  145.1516  158.6384 H   0  0  0  0  0  0  0  0  0  0  0  0
  152.5098  144.9502  159.2365 H   0  0  0  0  0  0  0  0  0  0  0  0
  151.1338  144.4687  160.2406 H   0  0  0  0  0  0  0  0  0  0  0  0
  150.2296  143.5800  156.9995 H   0  0  0  0  0  0  0  0  0  0  0  0
  148.2540  137.6010  152.9036 H   0  0  0  0  0  0  0  0  0  0  0  0
  1  2  1  0  0  0  0
  1 25  1  0  0  0  0
  1 26  1  0  0  0  0
  1 27  1  0  0  0  0
  2 24  1  0  0  0  0
  2  3  2  0  0  0  0
  3  4  1  0  0  0  0
  4  5  2  0  0  0  0
  4 28  1  0  0  0  0
  5  6  1  0  0  0  0
  5 24  1  0  0  0  0
  6  7  1  0  0  0  0
  6 29  1  0  0  0  0
  6 30  1  0  0  0  0
  7  8  1  0  0  0  0
  7  9  1  0  0  0  0
  7 49  1  0  0  0  0
  8 31  1  0  0  0  0
  8 32  1  0  0  0  0
  8 33  1  0  0  0  0
  9 10  1  0  0  0  0
  9 34  1  0  0  0  0
  9 35  1  0  0  0  0
 10 11  1  0  0  0  0
 10 12  1  0  0  0  0
 10 36  1  0  0  0  0
 11 37  1  0  0  0  0
 12 13  1  0  0  0  0
 12 38  1  0  0  0  0
 12 39  1  0  0  0  0
 13 23  1  0  0  0  0
 13 14  1  0  0  0  0
 14 15  2  0  0  0  0
 14 40  1  0  0  0  0
 15 16  1  0  0  0  0
 16 23  2  0  0  0  0
 16 17  1  0  0  0  0
 17 18  2  0  0  0  0
 17 41  1  0  0  0  0
 18 19  1  0  0  0  0
 18 20  1  0  0  0  0
 19 42  1  0  0  0  0
 19 43  1  0  0  0  0
 19 44  1  0  0  0  0
 20 21  1  0  0  0  0
 20 22  2  0  0  0  0
 21 45  1  0  0  0  0
 21 46  1  0  0  0  0
 21 47  1  0  0  0  0
 22 23  1  0  0  0  0
 22 48  1  0  0  0  0
M  CHG  1   7   1
M  END
> <s_m_source_file>
AV-unprocessed.smi

> <i_m_source_file_index>
1225

> <i_lp_mmshare_version>
43012

> <i_f3d_flags>
0

> <s_epik_input>
W0NIM11jMW5bY0hdYyhzMSlbQ0gyXU4oW0NIM10pW0NIMl1bQ0BIXShbT0hdKVtDSDJdbihbY0hdbjIpYyhjMjMpW2NIXWMoW0NIM10pYyhbY0hdMylbQ0gzXQ==

> <s_epik_cmdline>
J2VwaWtfcHl0aG9uJywgJy1waCcsICc3LjAnLCAnLXRuJywgJzgnLCAnLW1hJywgJzIwMCcsICctbWV0YWxfYmluZGluZycsICctaW1hZScsICc8aW5maWxlLm1hZT4nLCAnLW9tYWUnLCAnPG91dGZpbGUubWFlPic=

> <r_epik_Ionization_Penalty>
1.62543

> <r_epik_Ionization_Penalty_Charging>
1.53932

> <r_epik_Ionization_Penalty_Neutral>
0.0861152

> <r_epik_State_Penalty>
1.73127

> <r_epik_Charging_Adjusted_Penalty>
3.27059

> <i_epik_Tot_Q>
1

> <i_epik_Tot_abs_Q>
1

> <r_epik_Metal_State_Penalty>
1.71387

> <b_epik_Metal_Only>
0

> <s_lp_Force_Field>
OPLS_2005

> <r_lp_Energy>
11.3811

> <b_lp_Chiralities_Consistent>
1

> <s_lp_Variant>
AV-unprocessed.smi:1225-6

> <Gold.Version>
5.8.1

> <Gold.Id.Protein>
6NUR|6NUR_protein|mol2

> <Gold.PLP.Fitness>
52.1198

> <Gold.PLP.PLP>
-45.2196

> <Gold.PLP.part.hbond>
-1.2089

> <Gold.PLP.part.metal>
0.0000

> <Gold.PLP.part.buried>
1.7519

> <Gold.PLP.part.nonpolar>
-46.2922

> <Gold.PLP.part.repulsive>
0.1960

> <Gold.PLP.ligand.clash>
0.0000

> <Gold.PLP.ligand.torsion>
0.8986

> <Gold.PLP.Chemscore.Hbond>
2.0000

> <Gold.PLP.Chemscore.CHOScore>
0.8633

> <Gold.PLP.Chemscore.Metal>
0.0000

> <Gold.Chemscore.Hbonds>
donor molecule, donor type, donor heavy atom, donor atom, acceptor molecule, acceptor atom, score
      L1  H     7    49       P1  7948  2.00
      L1  C     4    28       P1  7948  0.86

> <Gold.PLP.Chemscore.Internal.Correction>
0.1076

> <Gold.Rescore>
     Score         DG    S(hbond)    S(metal)    S(lipo)     H(rot)  DE(clash)    DE(int)     intcor
     15.46     -18.20       0.99        0.00     132.48       2.37       1.72       1.02       ----

> <Gold.Chemscore.Fitness>
15.4639

> <Gold.Chemscore.DG>
-18.2047

> <Gold.Chemscore.ZeroCoef>
-5.4800

> <Gold.Chemscore.Hbond>
0.9893

> <Gold.Chemscore.Metal>
0.0000

> <Gold.Chemscore.Lipo>
132.4816

> <Gold.Chemscore.Internal_Hbond>
0.0000

> <Gold.Chemscore.DEClash>
1.7199

> <Gold.Chemscore.DEInternal>
1.0210

> <Gold.Chemscore.Rot>
2.3750

> <Gold.Chemscore.Internal.Correction>
   9.000000E+99

> <Gold.Chemscore.Hbonds>
donor molecule, donor type, donor heavy atom, donor atom, acceptor molecule, acceptor atom, score
      L1  H     7    49       P1  7948  1.00

> <Gold.Chemscore.Hbond.Weighted>
-3.3044

> <Gold.Chemscore.Metal.Weighted>
-0.0000

> <Gold.Chemscore.Lipo.Weighted>
-15.5003

> <Gold.Chemscore.Internal_Hbond.Weighted>
0.0000

> <Gold.Chemscore.DEClash.Weighted>
1.7199

> <Gold.Chemscore.DEInternal.Weighted>
1.0210

> <Gold.Chemscore.Rot.Weighted>
6.0800

> <Gold.Chemscore.Internal.Correction.Weighted>
   9.000000E+99

> <Gold.Protein.RotatedTorsions>
[ 6907 6896 6895 6894 ] final  128.32 input  -60.11 | X-H torsion
[ 7974 7965 7964 7962 ] final -140.07 input  175.53 | X-H torsion
[ 8008 7997 7996 7995 ] final   78.70 input   59.86 | X-H torsion
[ 10167 10162 10161 10158 ] final  -20.27 input  -65.29 | X-H torsion
[ 10718 10713 10712 10709 ] final  153.11 input   66.30 | X-H torsion
[ 10763 10752 10751 10750 ] final   50.11 input  -60.55 | X-H torsion
[ 11005 11000 10999 10996 ] final -121.42 input  -57.11 | X-H torsion

> <Gold.Protein.ActiveResidues>
 VAL166  LYS551  ARG553  GLY616  TRP617  ASP618  TYR619  PRO620  LYS621  CYS622 
 ASP623  PHE694  ASN695  SER759  ASP760  ASP761  ALA762  ILE779  LEU786  VAL792 
 PHE793  MET794  SER795  GLU796  ALA797  LYS798  CYS799  TRP800  GLU811  SER814 

> <Gold.Protein.RotatedAtoms>
  152.3731  133.6444  159.6101 H   0  0  0  0  0  0  0  0  0  0  0  0  # atno 6907 bound_to 6896
  150.7683  133.9238  159.3415 H   0  0  0  0  0  0  0  0  0  0  0  0  # atno 6908 bound_to 6896
  151.7057  135.0923  160.0310 H   0  0  0  0  0  0  0  0  0  0  0  0  # atno 6909 bound_to 6896
  144.8626  140.6244  143.5318 H   0  0  0  0  0  0  0  0  0  0  0  0  # atno 7974 bound_to 7965
  155.8594  140.3454  155.5746 H   0  0  0  0  0  0  0  0  0  0  0  0  # atno 8008 bound_to 7997
  155.7950  140.0877  157.2008 H   0  0  0  0  0  0  0  0  0  0  0  0  # atno 8009 bound_to 7997
  154.4011  140.1476  156.3195 H   0  0  0  0  0  0  0  0  0  0  0  0  # atno 8010 bound_to 7997
  140.7275  143.4739  151.0210 H   0  0  0  0  0  0  0  0  0  0  0  0  # atno 10167 bound_to 10162
  157.2490  131.0775  151.1742 H   0  0  0  0  0  0  0  0  0  0  0  0  # atno 10718 bound_to 10713
  152.9785  135.5889  154.4200 H   0  0  0  0  0  0  0  0  0  0  0  0  # atno 10763 bound_to 10752
  154.3825  135.2767  155.2205 H   0  0  0  0  0  0  0  0  0  0  0  0  # atno 10764 bound_to 10752
  154.4112  135.6081  153.6008 H   0  0  0  0  0  0  0  0  0  0  0  0  # atno 10765 bound_to 10752
  141.0071  134.0318  157.3462 H   0  0  0  0  0  0  0  0  0  0  0  0  # atno 11005 bound_to 11000
  145.4282  139.1553  143.4037 LP  0  0  0  0  0  0  0  0  0  0  0  0  # atno 17320 bound_to 7965
  146.2872  140.4397  142.8753 LP  0  0  0  0  0  0  0  0  0  0  0  0  # atno 17321 bound_to 7965
  139.8432  143.7535  152.3180 LP  0  0  0  0  0  0  0  0  0  0  0  0  # atno 17342 bound_to 10162
  139.7692  144.7482  151.0250 LP  0  0  0  0  0  0  0  0  0  0  0  0  # atno 17343 bound_to 10162
  157.3298  130.6979  149.6318 LP  0  0  0  0  0  0  0  0  0  0  0  0  # atno 17370 bound_to 10713
  155.9667  130.4311  150.4904 LP  0  0  0  0  0  0  0  0  0  0  0  0  # atno 17371 bound_to 10713
  139.9069  135.0182  156.7527 LP  0  0  0  0  0  0  0  0  0  0  0  0  # atno 17394 bound_to 11000
  140.6794  133.9488  155.7901 LP  0  0  0  0  0  0  0  0  0  0  0  0  # atno 17395 bound_to 11000

$$$$
