AV-unprocessed.smi:1499|AV-procd|sdf|6062|dock1
  -GOLD-   22720 6183D 1   1.00000     0.00000
 Structure written by MMmdl.
 40 41  0  0  0  0  0  0  0  0  1 V2000
  152.4288  143.9044  162.2775 C   0  0  0  0  0  0  0  0  0  0  0  0
  151.4620  144.3297  161.1619 C   0  0  0  0  0  0  0  0  0  0  0  0
  151.9424  143.9457  159.8353 N   0  0  0  0  0  0  0  0  0  0  0  0
  152.2554  142.5129  159.8375 C   0  0  0  0  0  0  0  0  0  0  0  0
  152.7780  142.0745  158.4554 C   0  0  0  0  0  0  0  0  0  0  0  0
  151.7456  142.3617  157.4485 N   0  0  0  0  0  0  0  0  0  0  0  0
  150.9715  141.4553  156.8006 C   0  0  0  0  0  0  0  0  0  0  0  0
  151.0197  140.2481  157.0398 O   0  0  0  0  0  0  0  0  0  0  0  0
  150.1035  141.9979  155.9253 N   0  0  0  0  0  0  0  0  0  0  0  0
  149.1791  141.3246  155.0866 C   0  0  0  0  0  0  0  0  0  0  0  0
  148.1547  141.9606  154.3382 C   0  0  0  0  0  0  0  0  0  0  0  0
  147.4489  141.0796  153.6456 N   0  0  0  0  0  0  0  0  0  0  0  0
  148.0060  139.8767  153.9355 N   0  0  0  0  0  0  0  0  0  0  0  0
  147.4699  138.6707  153.3308 C   0  0  0  0  0  0  0  0  0  0  0  0
  146.4894  139.0080  152.2063 C   0  0  0  0  0  0  0  0  0  0  0  0
  145.2823  138.4391  152.2591 N   0  0  0  0  0  0  0  0  0  0  0  0
  146.8178  139.7736  151.3023 O   0  0  0  0  0  0  0  0  0  0  0  0
  149.0667  139.9908  154.8129 C   0  0  0  0  0  0  0  0  0  0  0  0
  151.4682  143.8007  157.4175 C   0  0  0  0  0  0  0  0  0  0  0  0
  150.9444  144.2397  158.7989 C   0  0  0  0  0  0  0  0  0  0  0  0
  151.9833  144.0867  163.2555 H   0  0  0  0  0  0  0  0  0  0  0  0
  153.3660  144.4595  162.2447 H   0  0  0  0  0  0  0  0  0  0  0  0
  152.6611  142.8407  162.2152 H   0  0  0  0  0  0  0  0  0  0  0  0
  150.5067  143.8359  161.3451 H   0  0  0  0  0  0  0  0  0  0  0  0
  151.2723  145.4032  161.2041 H   0  0  0  0  0  0  0  0  0  0  0  0
  153.0147  142.3069  160.5930 H   0  0  0  0  0  0  0  0  0  0  0  0
  151.3696  141.9347  160.1061 H   0  0  0  0  0  0  0  0  0  0  0  0
  153.6873  142.6234  158.2054 H   0  0  0  0  0  0  0  0  0  0  0  0
  153.0732  141.0265  158.4997 H   0  0  0  0  0  0  0  0  0  0  0  0
  150.1208  143.0039  155.8415 H   0  0  0  0  0  0  0  0  0  0  0  0
  147.9040  143.0094  154.2755 H   0  0  0  0  0  0  0  0  0  0  0  0
  148.2976  138.0805  152.9349 H   0  0  0  0  0  0  0  0  0  0  0  0
  146.9798  138.0633  154.0936 H   0  0  0  0  0  0  0  0  0  0  0  0
  144.6044  138.6275  151.5343 H   0  0  0  0  0  0  0  0  0  0  0  0
  145.0543  137.8168  153.0208 H   0  0  0  0  0  0  0  0  0  0  0  0
  149.6270  139.1302  155.1473 H   0  0  0  0  0  0  0  0  0  0  0  0
  152.3829  144.3419  157.1693 H   0  0  0  0  0  0  0  0  0  0  0  0
  150.7469  144.0727  156.6458 H   0  0  0  0  0  0  0  0  0  0  0  0
  150.0057  143.7311  159.0247 H   0  0  0  0  0  0  0  0  0  0  0  0
  150.7328  145.3079  158.7704 H   0  0  0  0  0  0  0  0  0  0  0  0
  1  2  1  0  0  0  0
  1 21  1  0  0  0  0
  1 22  1  0  0  0  0
  1 23  1  0  0  0  0
  2  3  1  0  0  0  0
  2 24  1  0  0  0  0
  2 25  1  0  0  0  0
  3 20  1  0  0  0  0
  3  4  1  0  0  0  0
  4  5  1  0  0  0  0
  4 26  1  0  0  0  0
  4 27  1  0  0  0  0
  5  6  1  0  0  0  0
  5 28  1  0  0  0  0
  5 29  1  0  0  0  0
  6  7  1  0  0  0  0
  6 19  1  0  0  0  0
  7  8  2  0  0  0  0
  7  9  1  0  0  0  0
  9 10  1  0  0  0  0
  9 30  1  0  0  0  0
 10 18  2  0  0  0  0
 10 11  1  0  0  0  0
 11 12  2  0  0  0  0
 11 31  1  0  0  0  0
 12 13  1  0  0  0  0
 13 14  1  0  0  0  0
 13 18  1  0  0  0  0
 14 15  1  0  0  0  0
 14 32  1  0  0  0  0
 14 33  1  0  0  0  0
 15 16  1  0  0  0  0
 15 17  2  0  0  0  0
 16 34  1  0  0  0  0
 16 35  1  0  0  0  0
 18 36  1  0  0  0  0
 19 20  1  0  0  0  0
 19 37  1  0  0  0  0
 19 38  1  0  0  0  0
 20 39  1  0  0  0  0
 20 40  1  0  0  0  0
M  END
> <s_m_source_file>
AV-unprocessed.smi

> <i_m_source_file_index>
1499

> <i_lp_mmshare_version>
43012

> <i_f3d_flags>
0

> <s_epik_input>
W0NIM11bQ0gyXU4xW0NIMl1bQ0gyXU4oW0NIMl1bQ0gyXTEpQyg9TylbTkhdYzJbY0hdbm4oW2NIXTIpW0NIMl1DKD1PKVtOSDJd

> <s_epik_cmdline>
J2VwaWtfcHl0aG9uJywgJy1waCcsICc3LjAnLCAnLXRuJywgJzgnLCAnLW1hJywgJzIwMCcsICctbWV0YWxfYmluZGluZycsICctaW1hZScsICc8aW5maWxlLm1hZT4nLCAnLW9tYWUnLCAnPG91dGZpbGUubWFlPic=

> <r_lp_tautomer_probability>
1

> <r_epik_Ionization_Penalty>
0.431808

> <r_epik_Ionization_Penalty_Charging>
0

> <r_epik_Ionization_Penalty_Neutral>
0.431808

> <r_epik_State_Penalty>
0.433198

> <r_epik_Charging_Adjusted_Penalty>
0.433198

> <i_epik_Tot_Q>
0

> <i_epik_Tot_abs_Q>
0

> <r_epik_Metal_State_Penalty>
0.433196

> <b_epik_Metal_Only>
0

> <s_lp_Force_Field>
OPLS_2005

> <r_lp_Energy>
45.1289

> <b_lp_Chiralities_Consistent>
1

> <s_lp_Variant>
AV-unprocessed.smi:1499-2

> <Gold.Version>
5.8.1

> <Gold.Id.Protein>
6NUR|6NUR_protein|mol2

> <Gold.PLP.Fitness>
38.9242

> <Gold.PLP.PLP>
-32.8789

> <Gold.PLP.part.hbond>
-3.0000

> <Gold.PLP.part.metal>
0.0000

> <Gold.PLP.part.buried>
-1.5003

> <Gold.PLP.part.nonpolar>
-30.2354

> <Gold.PLP.part.repulsive>
2.8462

> <Gold.PLP.ligand.clash>
1.4776

> <Gold.PLP.ligand.torsion>
0.2698

> <Gold.PLP.Chemscore.Hbond>
1.7410

> <Gold.PLP.Chemscore.CHOScore>
0.9212

> <Gold.PLP.Chemscore.Metal>
0.0000

> <Gold.Chemscore.Hbonds>
donor molecule, donor type, donor heavy atom, donor atom, acceptor molecule, acceptor atom, score
      L1  H     9    30       P1  8028  0.69
      L1  H    16    34       P1 10171  1.00
      L1  C    11    31       P1  8028  0.91

> <Gold.PLP.Chemscore.Internal.Correction>
0.0757

> <Gold.Rescore>
     Score         DG    S(hbond)    S(metal)    S(lipo)     H(rot)  DE(clash)    DE(int)     intcor
     12.88     -17.80       1.88        0.00      91.87       1.83       2.29       2.64       ----

> <Gold.Chemscore.Fitness>
12.8791

> <Gold.Chemscore.DG>
-17.8010

> <Gold.Chemscore.ZeroCoef>
-5.4800

> <Gold.Chemscore.Hbond>
1.8753

> <Gold.Chemscore.Metal>
0.0000

> <Gold.Chemscore.Lipo>
91.8700

> <Gold.Chemscore.Internal_Hbond>
0.0000

> <Gold.Chemscore.DEClash>
2.2863

> <Gold.Chemscore.DEInternal>
2.6356

> <Gold.Chemscore.Rot>
1.8325

> <Gold.Chemscore.Internal.Correction>
   9.000000E+99

> <Gold.Chemscore.Hbonds>
donor molecule, donor type, donor heavy atom, donor atom, acceptor molecule, acceptor atom, score
      L1  H     9    30       P1  8028  0.66
      L1  H    16    34       P1 10171  0.99

> <Gold.Chemscore.Hbond.Weighted>
-6.2634

> <Gold.Chemscore.Metal.Weighted>
-0.0000

> <Gold.Chemscore.Lipo.Weighted>
-10.7488

> <Gold.Chemscore.Internal_Hbond.Weighted>
0.0000

> <Gold.Chemscore.DEClash.Weighted>
2.2863

> <Gold.Chemscore.DEInternal.Weighted>
2.6356

> <Gold.Chemscore.Rot.Weighted>
4.6912

> <Gold.Chemscore.Internal.Correction.Weighted>
   9.000000E+99

> <Gold.Protein.RotatedTorsions>
[ 6907 6896 6895 6894 ] final  145.87 input  -60.11 | X-H torsion
[ 7974 7965 7964 7962 ] final  -81.15 input  175.53 | X-H torsion
[ 8008 7997 7996 7995 ] final  -98.51 input   59.86 | X-H torsion
[ 10167 10162 10161 10158 ] final -179.16 input  -65.29 | X-H torsion
[ 10718 10713 10712 10709 ] final  123.52 input   66.30 | X-H torsion
[ 10763 10752 10751 10750 ] final  151.67 input  -60.55 | X-H torsion
[ 11005 11000 10999 10996 ] final  144.10 input  -57.11 | X-H torsion

> <Gold.Protein.ActiveResidues>
 VAL166  LYS551  ARG553  GLY616  TRP617  ASP618  TYR619  PRO620  LYS621  CYS622 
 ASP623  PHE694  ASN695  SER759  ASP760  ASP761  ALA762  ILE779  LEU786  VAL792 
 PHE793  MET794  SER795  GLU796  ALA797  LYS798  CYS799  TRP800  GLU811  SER814 

> <Gold.Protein.RotatedAtoms>
  152.1753  133.4670  159.4929 H   0  0  0  0  0  0  0  0  0  0  0  0  # atno 6907 bound_to 6896
  150.6926  134.1902  159.4291 H   0  0  0  0  0  0  0  0  0  0  0  0  # atno 6908 bound_to 6896
  151.9811  135.0028  160.0608 H   0  0  0  0  0  0  0  0  0  0  0  0  # atno 6909 bound_to 6896
  145.5505  140.9497  143.1502 H   0  0  0  0  0  0  0  0  0  0  0  0  # atno 7974 bound_to 7965
  154.8022  140.0454  157.1281 H   0  0  0  0  0  0  0  0  0  0  0  0  # atno 8008 bound_to 7997
  154.9466  140.3059  155.5075 H   0  0  0  0  0  0  0  0  0  0  0  0  # atno 8009 bound_to 7997
  156.2963  140.2296  156.4540 H   0  0  0  0  0  0  0  0  0  0  0  0  # atno 8010 bound_to 7997
  139.5399  144.2393  152.0873 H   0  0  0  0  0  0  0  0  0  0  0  0  # atno 10167 bound_to 10162
  157.5658  131.1086  150.8457 H   0  0  0  0  0  0  0  0  0  0  0  0  # atno 10718 bound_to 10713
  154.1076  135.2841  155.3238 H   0  0  0  0  0  0  0  0  0  0  0  0  # atno 10763 bound_to 10752
  154.6512  135.5368  153.7907 H   0  0  0  0  0  0  0  0  0  0  0  0  # atno 10764 bound_to 10752
  153.0357  135.6510  154.1236 H   0  0  0  0  0  0  0  0  0  0  0  0  # atno 10765 bound_to 10752
  140.0606  134.9207  157.1176 H   0  0  0  0  0  0  0  0  0  0  0  0  # atno 11005 bound_to 11000
  144.7532  139.7141  143.7265 LP  0  0  0  0  0  0  0  0  0  0  0  0  # atno 17320 bound_to 7965
  146.1920  139.5166  142.9799 LP  0  0  0  0  0  0  0  0  0  0  0  0  # atno 17321 bound_to 7965
  140.1869  144.4790  150.6499 LP  0  0  0  0  0  0  0  0  0  0  0  0  # atno 17342 bound_to 10162
  140.6624  143.2256  151.5825 LP  0  0  0  0  0  0  0  0  0  0  0  0  # atno 17343 bound_to 10162
  156.8942  130.5224  149.5285 LP  0  0  0  0  0  0  0  0  0  0  0  0  # atno 17370 bound_to 10713
  156.0706  130.5740  150.9376 LP  0  0  0  0  0  0  0  0  0  0  0  0  # atno 17371 bound_to 10713
  140.3777  134.2321  155.7173 LP  0  0  0  0  0  0  0  0  0  0  0  0  # atno 17394 bound_to 11000
  141.1971  133.8067  157.0642 LP  0  0  0  0  0  0  0  0  0  0  0  0  # atno 17395 bound_to 11000

$$$$
