AV-unprocessed.smi:3090|AV-procd|sdf|11777|dock2
  -GOLD-   2272017153D 1   1.00000     0.00000
 Structure written by MMmdl.
 21 21  0  0  0  0  0  0  0  0  1 V2000
  151.5252  142.3127  158.5833 C   0  0  0  0  0  0  0  0  0  0  0  0
  151.1100  141.6026  157.3928 N   0  0  0  0  0  0  0  0  0  0  0  0
  149.9590  141.7623  156.6518 C   0  0  0  0  0  0  0  0  0  0  0  0
  150.0049  140.8650  155.6203 C   0  0  0  0  0  0  0  0  0  0  0  0
  149.0071  140.6236  154.5180 C   0  0  1  0  0  0  0  0  0  0  0  0
  149.4719  141.1538  153.2925 O   0  0  0  0  0  0  0  0  0  0  0  0
  148.7726  139.1156  154.3257 C   0  0  0  0  0  0  0  0  0  0  0  0
  148.0752  138.8016  153.0688 N   0  0  0  0  0  0  0  0  0  0  0  0
  151.2479  140.1989  155.8223 C   0  0  0  0  0  0  0  0  0  0  0  0
  151.9050  140.6406  156.8822 N   0  0  0  0  0  0  0  0  0  0  0  0
  150.7742  143.0538  158.8586 H   0  0  0  0  0  0  0  0  0  0  0  0
  152.4732  142.8194  158.3996 H   0  0  0  0  0  0  0  0  0  0  0  0
  151.6483  141.6095  159.4075 H   0  0  0  0  0  0  0  0  0  0  0  0
  149.2082  142.4927  156.9156 H   0  0  0  0  0  0  0  0  0  0  0  0
  148.0608  141.1109  154.7568 H   0  0  0  0  0  0  0  0  0  0  0  0
  149.3525  140.5017  152.6193 H   0  0  0  0  0  0  0  0  0  0  0  0
  149.7172  138.5734  154.3853 H   0  0  0  0  0  0  0  0  0  0  0  0
  148.1629  138.7494  155.1525 H   0  0  0  0  0  0  0  0  0  0  0  0
  148.6148  138.1345  152.5193 H   0  0  0  0  0  0  0  0  0  0  0  0
  147.1719  138.3710  153.2603 H   0  0  0  0  0  0  0  0  0  0  0  0
  151.6890  139.4100  155.2313 H   0  0  0  0  0  0  0  0  0  0  0  0
  1  2  1  0  0  0  0
  1 11  1  0  0  0  0
  1 12  1  0  0  0  0
  1 13  1  0  0  0  0
  2 10  1  0  0  0  0
  2  3  1  0  0  0  0
  3  4  2  0  0  0  0
  3 14  1  0  0  0  0
  4  5  1  0  0  0  0
  4  9  1  0  0  0  0
  5  6  1  0  0  0  0
  5  7  1  0  0  0  0
  5 15  1  0  0  0  0
  6 16  1  0  0  0  0
  7  8  1  0  0  0  0
  7 17  1  0  0  0  0
  7 18  1  0  0  0  0
  8 19  1  0  0  0  0
  8 20  1  0  0  0  0
  9 10  2  0  0  0  0
  9 21  1  0  0  0  0
M  END
> <s_m_source_file>
AV-unprocessed.smi

> <i_m_source_file_index>
3090

> <i_lp_mmshare_version>
43012

> <i_f3d_flags>
0

> <s_epik_input>
W0NIM11uMVtjSF1jKFtjSF1uMSlbQ0BIXShbT0hdKVtDSDJdW05IMl0=

> <s_epik_cmdline>
J2VwaWtfcHl0aG9uJywgJy1waCcsICc3LjAnLCAnLXRuJywgJzgnLCAnLW1hJywgJzIwMCcsICctbWV0YWxfYmluZGluZycsICctaW1hZScsICc8aW5maWxlLm1hZT4nLCAnLW9tYWUnLCAnPG91dGZpbGUubWFlPic=

> <r_lp_tautomer_probability>
1

> <r_epik_Ionization_Penalty>
2.22426

> <r_epik_Ionization_Penalty_Charging>
0

> <r_epik_Ionization_Penalty_Neutral>
2.22426

> <r_epik_State_Penalty>
2.36938

> <r_epik_Charging_Adjusted_Penalty>
2.36938

> <i_epik_Tot_Q>
0

> <i_epik_Tot_abs_Q>
0

> <r_epik_Metal_State_Penalty>
2.36934

> <b_epik_Metal_Only>
0

> <s_lp_Force_Field>
OPLS_2005

> <r_lp_Energy>
8.04815

> <b_lp_Chiralities_Consistent>
1

> <s_lp_Variant>
AV-unprocessed.smi:3090-4

> <Gold.Version>
5.8.1

> <Gold.Id.Protein>
6NUR|6NUR_protein|mol2

> <Gold.PLP.Fitness>
31.8120

> <Gold.PLP.PLP>
-20.8843

> <Gold.PLP.part.hbond>
-4.4740

> <Gold.PLP.part.metal>
0.0000

> <Gold.PLP.part.buried>
-1.7462

> <Gold.PLP.part.nonpolar>
-14.6167

> <Gold.PLP.part.repulsive>
0.0000

> <Gold.PLP.ligand.clash>
0.0000

> <Gold.PLP.ligand.torsion>
0.4537

> <Gold.PLP.Chemscore.Hbond>
3.0310

> <Gold.PLP.Chemscore.CHOScore>
0.9137

> <Gold.PLP.Chemscore.Metal>
0.0000

> <Gold.Chemscore.Hbonds>
donor molecule, donor type, donor heavy atom, donor atom, acceptor molecule, acceptor atom, score
      L1  H     6    16       P1  7957  0.96
      L1  H     8    19       P1  7948  1.00
      P1  H  7989  7998       L1     6  0.07
      P1  H  8011  8017       L1     6  0.90
      L1  C     3    14       P1  8028  0.78

> <Gold.PLP.Chemscore.Internal.Correction>
0.0012

> <Gold.Rescore>
     Score         DG    S(hbond)    S(metal)    S(lipo)     H(rot)  DE(clash)    DE(int)     intcor
     13.24     -13.52       2.40        0.00      41.88       1.90       0.01       0.27       ----

> <Gold.Chemscore.Fitness>
13.2440

> <Gold.Chemscore.DG>
-13.5159

> <Gold.Chemscore.ZeroCoef>
-5.4800

> <Gold.Chemscore.Hbond>
2.3981

> <Gold.Chemscore.Metal>
0.0000

> <Gold.Chemscore.Lipo>
41.8834

> <Gold.Chemscore.Internal_Hbond>
0.0000

> <Gold.Chemscore.DEClash>
0.0060

> <Gold.Chemscore.DEInternal>
0.2660

> <Gold.Chemscore.Rot>
1.9039

> <Gold.Chemscore.Internal.Correction>
   9.000000E+99

> <Gold.Chemscore.Hbonds>
donor molecule, donor type, donor heavy atom, donor atom, acceptor molecule, acceptor atom, score
      L1  H     6    16       P1  7957  0.88
      L1  H     8    19       P1  7948  0.92
      P1  H  7989  7998       L1     6  0.01
      P1  H  8011  8017       L1     6  0.18

> <Gold.Chemscore.Hbond.Weighted>
-8.0095

> <Gold.Chemscore.Metal.Weighted>
-0.0000

> <Gold.Chemscore.Lipo.Weighted>
-4.9004

> <Gold.Chemscore.Internal_Hbond.Weighted>
0.0000

> <Gold.Chemscore.DEClash.Weighted>
0.0060

> <Gold.Chemscore.DEInternal.Weighted>
0.2660

> <Gold.Chemscore.Rot.Weighted>
4.8739

> <Gold.Chemscore.Internal.Correction.Weighted>
   9.000000E+99

> <Gold.Protein.RotatedTorsions>
[ 6907 6896 6895 6894 ] final  -34.26 input  -60.11 | X-H torsion
[ 7974 7965 7964 7962 ] final   37.12 input  175.53 | X-H torsion
[ 8008 7997 7996 7995 ] final  -41.63 input   59.86 | X-H torsion
[ 10167 10162 10161 10158 ] final   26.25 input  -65.29 | X-H torsion
[ 10718 10713 10712 10709 ] final   -0.63 input   66.30 | X-H torsion
[ 10763 10752 10751 10750 ] final   90.58 input  -60.55 | X-H torsion
[ 11005 11000 10999 10996 ] final   35.34 input  -57.11 | X-H torsion

> <Gold.Protein.ActiveResidues>
 VAL166  LYS551  ARG553  GLY616  TRP617  ASP618  TYR619  PRO620  LYS621  CYS622 
 ASP623  PHE694  ASN695  SER759  ASP760  ASP761  ALA762  ILE779  LEU786  VAL792 
 PHE793  MET794  SER795  GLU796  ALA797  LYS798  CYS799  TRP800  GLU811  SER814 

> <Gold.Protein.RotatedAtoms>
  151.0550  134.9698  159.8230 H   0  0  0  0  0  0  0  0  0  0  0  0  # atno 6907 bound_to 6896
  152.5386  134.2490  159.8901 H   0  0  0  0  0  0  0  0  0  0  0  0  # atno 6908 bound_to 6896
  151.2507  133.4308  159.2645 H   0  0  0  0  0  0  0  0  0  0  0  0  # atno 6909 bound_to 6896
  146.1161  139.5933  142.9320 H   0  0  0  0  0  0  0  0  0  0  0  0  # atno 7974 bound_to 7965
  154.4003  140.1494  156.3222 H   0  0  0  0  0  0  0  0  0  0  0  0  # atno 8008 bound_to 7997
  155.8519  140.3457  155.5678 H   0  0  0  0  0  0  0  0  0  0  0  0  # atno 8009 bound_to 7997
  155.7975  140.0865  157.1966 H   0  0  0  0  0  0  0  0  0  0  0  0  # atno 8010 bound_to 7997
  140.5038  144.0271  150.6344 H   0  0  0  0  0  0  0  0  0  0  0  0  # atno 10167 bound_to 10162
  156.8175  130.5445  149.5701 H   0  0  0  0  0  0  0  0  0  0  0  0  # atno 10718 bound_to 10713
  153.1991  135.4428  155.0244 H   0  0  0  0  0  0  0  0  0  0  0  0  # atno 10763 bound_to 10752
  154.8136  135.3305  154.7239 H   0  0  0  0  0  0  0  0  0  0  0  0  # atno 10764 bound_to 10752
  153.7686  135.6986  153.4966 H   0  0  0  0  0  0  0  0  0  0  0  0  # atno 10765 bound_to 10752
  140.2437  134.3385  155.7916 H   0  0  0  0  0  0  0  0  0  0  0  0  # atno 11005 bound_to 11000
  145.5563  141.0408  143.2250 LP  0  0  0  0  0  0  0  0  0  0  0  0  # atno 17320 bound_to 7965
  144.7554  139.7087  143.7256 LP  0  0  0  0  0  0  0  0  0  0  0  0  # atno 17321 bound_to 7965
  140.3575  143.2927  152.0420 LP  0  0  0  0  0  0  0  0  0  0  0  0  # atno 17342 bound_to 10162
  139.4878  144.6328  151.7036 LP  0  0  0  0  0  0  0  0  0  0  0  0  # atno 17343 bound_to 10162
  156.1008  130.5967  150.9890 LP  0  0  0  0  0  0  0  0  0  0  0  0  # atno 17370 bound_to 10713
  157.6474  131.0902  150.8125 LP  0  0  0  0  0  0  0  0  0  0  0  0  # atno 17371 bound_to 10713
  141.2208  133.7313  156.8926 LP  0  0  0  0  0  0  0  0  0  0  0  0  # atno 17394 bound_to 11000
  140.1627  134.9154  157.2735 LP  0  0  0  0  0  0  0  0  0  0  0  0  # atno 17395 bound_to 11000

$$$$
