AV-unprocessed.smi:1940|AV-procd|sdf|7841|dock1
  -GOLD-   22720 9583D 1   1.00000     0.00000
 Structure written by MMmdl.
 50 52  0  0  0  0  0  0  0  0  2 V2000
  146.5408  138.3986  150.3189 C   0  0  0  0  0  0  0  0  0  0  0  0
  146.2266  138.2343  151.8138 C   0  0  2  0  0  0  0  0  0  0  0  0
  147.4609  138.4222  152.5730 N   0  0  0  0  0  0  0  0  0  0  0  0
  147.6993  139.4023  153.4564 C   0  0  0  0  0  0  0  0  0  0  0  0
  146.8932  140.2922  153.7267 O   0  0  0  0  0  0  0  0  0  0  0  0
  148.9150  139.2640  154.0122 N   0  0  0  0  0  0  0  0  0  0  0  0
  149.5610  140.1126  154.9507 C   0  0  0  0  0  0  0  0  0  0  0  0
  150.4250  139.5129  155.8920 C   0  0  0  0  0  0  0  0  0  0  0  0
  151.1090  140.3166  156.8263 C   0  0  0  0  0  0  0  0  0  0  0  0
  150.9264  141.7180  156.7980 C   0  0  0  0  0  0  0  0  0  0  0  0
  151.5715  142.5963  157.6783 N   0  0  0  0  0  0  0  0  0  0  0  0
  150.6603  143.5820  158.2544 C   0  0  0  0  0  0  0  0  0  0  0  0
  151.4334  144.6328  159.0699 C   0  0  0  0  0  0  0  0  0  0  0  0
  152.3188  143.9610  160.1317 C   0  0  0  0  0  0  0  0  0  0  0  0
  153.2380  142.9198  159.4735 C   0  0  0  0  0  0  0  0  0  0  0  0
  152.4206  141.9103  158.6498 C   0  0  0  0  0  0  0  0  0  0  0  0
  150.0956  142.2563  155.8791 N   0  3  0  0  0  0  0  0  0  0  0  0
  149.4201  141.5220  154.9683 C   0  0  0  0  0  0  0  0  0  0  0  0
  145.6284  136.8517  152.1416 C   0  0  2  0  0  0  0  0  0  0  0  0
  145.8690  135.7819  151.0755 C   0  0  0  0  0  0  0  0  0  0  0  0
  144.7388  134.8175  151.3503 C   0  0  0  0  0  0  0  0  0  0  0  0
  143.5973  135.7680  151.6968 C   0  0  0  0  0  0  0  0  0  0  0  0
  144.2078  136.9315  152.2492 O   0  0  0  0  0  0  0  0  0  0  0  0
  145.6396  138.3194  149.7110 H   0  0  0  0  0  0  0  0  0  0  0  0
  147.2428  137.6386  149.9745 H   0  0  0  0  0  0  0  0  0  0  0  0
  146.9815  139.3755  150.1174 H   0  0  0  0  0  0  0  0  0  0  0  0
  145.4970  138.9995  152.0852 H   0  0  0  0  0  0  0  0  0  0  0  0
  148.1855  137.7356  152.4238 H   0  0  0  0  0  0  0  0  0  0  0  0
  149.4251  138.4309  153.7574 H   0  0  0  0  0  0  0  0  0  0  0  0
  150.5637  138.4416  155.9029 H   0  0  0  0  0  0  0  0  0  0  0  0
  151.7658  139.8586  157.5514 H   0  0  0  0  0  0  0  0  0  0  0  0
  150.0973  144.0721  157.4590 H   0  0  0  0  0  0  0  0  0  0  0  0
  149.9353  143.0777  158.8948 H   0  0  0  0  0  0  0  0  0  0  0  0
  152.0553  145.2293  158.4008 H   0  0  0  0  0  0  0  0  0  0  0  0
  150.7366  145.3241  159.5446 H   0  0  0  0  0  0  0  0  0  0  0  0
  152.9118  144.7094  160.6580 H   0  0  0  0  0  0  0  0  0  0  0  0
  151.6912  143.4762  160.8805 H   0  0  0  0  0  0  0  0  0  0  0  0
  153.9562  143.4242  158.8256 H   0  0  0  0  0  0  0  0  0  0  0  0
  153.8194  142.3979  160.2341 H   0  0  0  0  0  0  0  0  0  0  0  0
  151.8035  141.3072  159.3174 H   0  0  0  0  0  0  0  0  0  0  0  0
  153.0931  141.2260  158.1306 H   0  0  0  0  0  0  0  0  0  0  0  0
  148.8114  142.0956  154.2859 H   0  0  0  0  0  0  0  0  0  0  0  0
  146.0110  136.4921  153.0984 H   0  0  0  0  0  0  0  0  0  0  0  0
  145.7644  136.2027  150.0744 H   0  0  0  0  0  0  0  0  0  0  0  0
  146.8522  135.3169  151.1517 H   0  0  0  0  0  0  0  0  0  0  0  0
  144.5113  134.1666  150.5057 H   0  0  0  0  0  0  0  0  0  0  0  0
  144.9821  134.1915  152.2099 H   0  0  0  0  0  0  0  0  0  0  0  0
  143.0553  136.0579  150.7960 H   0  0  0  0  0  0  0  0  0  0  0  0
  142.8852  135.3239  152.3923 H   0  0  0  0  0  0  0  0  0  0  0  0
  149.9767  143.2698  155.8673 H   0  0  0  0  0  0  0  0  0  0  0  0
  1  2  1  0  0  0  0
  1 24  1  0  0  0  0
  1 25  1  0  0  0  0
  1 26  1  0  0  0  0
  2  3  1  0  0  0  0
  2 19  1  0  0  0  0
  2 27  1  0  0  0  0
  3  4  1  0  0  0  0
  3 28  1  0  0  0  0
  4  5  2  0  0  0  0
  4  6  1  0  0  0  0
  6  7  1  0  0  0  0
  6 29  1  0  0  0  0
  7 18  1  0  0  0  0
  7  8  2  0  0  0  0
  8  9  1  0  0  0  0
  8 30  1  0  0  0  0
  9 10  2  0  0  0  0
  9 31  1  0  0  0  0
 10 11  1  0  0  0  0
 10 17  1  0  0  0  0
 11 16  1  0  0  0  0
 11 12  1  0  0  0  0
 12 13  1  0  0  0  0
 12 32  1  0  0  0  0
 12 33  1  0  0  0  0
 13 14  1  0  0  0  0
 13 34  1  0  0  0  0
 13 35  1  0  0  0  0
 14 15  1  0  0  0  0
 14 36  1  0  0  0  0
 14 37  1  0  0  0  0
 15 16  1  0  0  0  0
 15 38  1  0  0  0  0
 15 39  1  0  0  0  0
 16 40  1  0  0  0  0
 16 41  1  0  0  0  0
 17 18  2  0  0  0  0
 17 50  1  0  0  0  0
 18 42  1  0  0  0  0
 19 23  1  0  0  0  0
 19 20  1  0  0  0  0
 19 43  1  0  0  0  0
 20 21  1  0  0  0  0
 20 44  1  0  0  0  0
 20 45  1  0  0  0  0
 21 22  1  0  0  0  0
 21 46  1  0  0  0  0
 21 47  1  0  0  0  0
 22 23  1  0  0  0  0
 22 48  1  0  0  0  0
 22 49  1  0  0  0  0
M  CHG  1  17   1
M  END
> <s_m_source_file>
AV-unprocessed.smi

> <i_m_source_file_index>
1940

> <i_lp_mmshare_version>
43012

> <i_f3d_flags>
0

> <s_epik_input>
TzFbQ0gyXVtDSDJdW0NIMl1bQ0BIXTFbQ0BIXShbQ0gzXSlbTkhdQyg9TylbTkhdYzJbY0hdW2NIXWMobltjSF0yKU4zW0NIMl1bQ0gyXVtDSDJdW0NIMl1bQ0gyXTM=

> <s_epik_cmdline>
J2VwaWtfcHl0aG9uJywgJy1waCcsICc3LjAnLCAnLXRuJywgJzgnLCAnLW1hJywgJzIwMCcsICctbWV0YWxfYmluZGluZycsICctaW1hZScsICc8aW5maWxlLm1hZT4nLCAnLW9tYWUnLCAnPG91dGZpbGUubWFlPic=

> <r_lp_tautomer_probability>
0.999994

> <r_epik_Ionization_Penalty>
1.10603

> <r_epik_Ionization_Penalty_Charging>
1.10601

> <r_epik_Ionization_Penalty_Neutral>
1.929e-05

> <r_epik_State_Penalty>
1.16358

> <r_epik_Charging_Adjusted_Penalty>
2.26959

> <i_epik_Tot_Q>
1

> <i_epik_Tot_abs_Q>
1

> <r_epik_Metal_State_Penalty>
1.25013

> <b_epik_Metal_Only>
0

> <s_lp_Force_Field>
OPLS_2005

> <r_lp_Energy>
41.0283

> <b_lp_Chiralities_Consistent>
1

> <s_lp_Variant>
AV-unprocessed.smi:1940-5

> <Gold.Version>
5.8.1

> <Gold.Id.Protein>
6NUR|6NUR_protein|mol2

> <Gold.PLP.Fitness>
46.8815

> <Gold.PLP.PLP>
-40.8076

> <Gold.PLP.part.hbond>
-3.9325

> <Gold.PLP.part.metal>
0.0000

> <Gold.PLP.part.buried>
2.8861

> <Gold.PLP.part.nonpolar>
-41.2535

> <Gold.PLP.part.repulsive>
0.9951

> <Gold.PLP.ligand.clash>
0.0000

> <Gold.PLP.ligand.torsion>
1.5439

> <Gold.PLP.Chemscore.Hbond>
3.0000

> <Gold.PLP.Chemscore.CHOScore>
0.0000

> <Gold.PLP.Chemscore.Metal>
0.0000

> <Gold.Chemscore.Hbonds>
donor molecule, donor type, donor heavy atom, donor atom, acceptor molecule, acceptor atom, score
      L1  H     3    28       P1  7948  1.00
      L1  H    17    50       P1  8028  1.98

> <Gold.PLP.Chemscore.Internal.Correction>
0.1617

> <Gold.Rescore>
     Score         DG    S(hbond)    S(metal)    S(lipo)     H(rot)  DE(clash)    DE(int)     intcor
     19.18     -22.33       1.93        0.00     118.68       1.36       1.92       1.23       ----

> <Gold.Chemscore.Fitness>
19.1781

> <Gold.Chemscore.DG>
-22.3280

> <Gold.Chemscore.ZeroCoef>
-5.4800

> <Gold.Chemscore.Hbond>
1.9269

> <Gold.Chemscore.Metal>
0.0000

> <Gold.Chemscore.Lipo>
118.6850

> <Gold.Chemscore.Internal_Hbond>
0.0000

> <Gold.Chemscore.DEClash>
1.9218

> <Gold.Chemscore.DEInternal>
1.2280

> <Gold.Chemscore.Rot>
1.3571

> <Gold.Chemscore.Internal.Correction>
   9.000000E+99

> <Gold.Chemscore.Hbonds>
donor molecule, donor type, donor heavy atom, donor atom, acceptor molecule, acceptor atom, score
      L1  H     3    28       P1  7948  0.99
      L1  H    17    50       P1  8028  0.94

> <Gold.Chemscore.Hbond.Weighted>
-6.4359

> <Gold.Chemscore.Metal.Weighted>
-0.0000

> <Gold.Chemscore.Lipo.Weighted>
-13.8861

> <Gold.Chemscore.Internal_Hbond.Weighted>
0.0000

> <Gold.Chemscore.DEClash.Weighted>
1.9218

> <Gold.Chemscore.DEInternal.Weighted>
1.2280

> <Gold.Chemscore.Rot.Weighted>
3.4741

> <Gold.Chemscore.Internal.Correction.Weighted>
   9.000000E+99

> <Gold.Protein.RotatedTorsions>
[ 6907 6896 6895 6894 ] final  -84.59 input  -60.11 | X-H torsion
[ 7974 7965 7964 7962 ] final -105.79 input  175.53 | X-H torsion
[ 8008 7997 7996 7995 ] final   -4.17 input   59.86 | X-H torsion
[ 10167 10162 10161 10158 ] final  138.99 input  -65.29 | X-H torsion
[ 10718 10713 10712 10709 ] final   74.18 input   66.30 | X-H torsion
[ 10763 10752 10751 10750 ] final  125.56 input  -60.55 | X-H torsion
[ 11005 11000 10999 10996 ] final   22.87 input  -57.11 | X-H torsion

> <Gold.Protein.ActiveResidues>
 VAL166  LYS551  ARG553  GLY616  TRP617  ASP618  TYR619  PRO620  LYS621  CYS622 
 ASP623  PHE694  ASN695  SER759  ASP760  ASP761  ALA762  ILE779  LEU786  VAL792 
 PHE793  MET794  SER795  GLU796  ALA797  LYS798  CYS799  TRP800  GLU811  SER814 

> <Gold.Protein.RotatedAtoms>
  150.6875  134.3336  159.4837 H   0  0  0  0  0  0  0  0  0  0  0  0  # atno 6907 bound_to 6896
  152.1197  134.9212  160.0572 H   0  0  0  0  0  0  0  0  0  0  0  0  # atno 6908 bound_to 6896
  152.0422  133.3948  159.4379 H   0  0  0  0  0  0  0  0  0  0  0  0  # atno 6909 bound_to 6896
  145.2260  140.9153  143.3232 H   0  0  0  0  0  0  0  0  0  0  0  0  # atno 7974 bound_to 7965
  154.6172  140.2491  155.7595 H   0  0  0  0  0  0  0  0  0  0  0  0  # atno 8008 bound_to 7997
  156.2405  140.2934  156.0381 H   0  0  0  0  0  0  0  0  0  0  0  0  # atno 8009 bound_to 7997
  155.1956  140.0393  157.2898 H   0  0  0  0  0  0  0  0  0  0  0  0  # atno 8010 bound_to 7997
  139.5093  144.6321  151.5791 H   0  0  0  0  0  0  0  0  0  0  0  0  # atno 10167 bound_to 10162
  157.6581  130.9665  150.1174 H   0  0  0  0  0  0  0  0  0  0  0  0  # atno 10718 bound_to 10713
  153.6792  135.3317  155.3174 H   0  0  0  0  0  0  0  0  0  0  0  0  # atno 10763 bound_to 10752
  154.8470  135.4405  154.1624 H   0  0  0  0  0  0  0  0  0  0  0  0  # atno 10764 bound_to 10752
  153.2636  135.6993  153.7630 H   0  0  0  0  0  0  0  0  0  0  0  0  # atno 10765 bound_to 10752
  140.3759  134.1973  155.7665 H   0  0  0  0  0  0  0  0  0  0  0  0  # atno 11005 bound_to 11000
  144.9720  139.3870  143.6304 LP  0  0  0  0  0  0  0  0  0  0  0  0  # atno 17320 bound_to 7965
  146.3364  139.8823  142.8822 LP  0  0  0  0  0  0  0  0  0  0  0  0  # atno 17321 bound_to 7965
  140.6057  143.9529  150.6417 LP  0  0  0  0  0  0  0  0  0  0  0  0  # atno 17342 bound_to 10162
  140.2755  143.3426  152.1199 LP  0  0  0  0  0  0  0  0  0  0  0  0  # atno 17343 bound_to 10162
  156.2054  130.3663  149.8735 LP  0  0  0  0  0  0  0  0  0  0  0  0  # atno 17370 bound_to 10713
  156.6628  130.8789  151.3550 LP  0  0  0  0  0  0  0  0  0  0  0  0  # atno 17371 bound_to 10713
  141.1939  133.8139  157.0778 LP  0  0  0  0  0  0  0  0  0  0  0  0  # atno 17394 bound_to 11000
  140.0516  134.9802  157.1146 LP  0  0  0  0  0  0  0  0  0  0  0  0  # atno 17395 bound_to 11000

$$$$
