AV-unprocessed.smi:1166|AV-procd|sdf|4934|dock4
  -GOLD-   22720 3513D 1   1.00000     0.00000
 Structure written by MMmdl.
 47 48  0  0  0  0  0  0  0  0  2 V2000
  151.4469  145.5660  160.0868 C   0  0  0  0  0  0  0  0  0  0  0  0
  152.1195  144.4617  159.4118 N   0  0  0  0  0  0  0  0  0  0  0  0
  152.2160  144.4372  157.9583 C   0  0  0  0  0  0  0  0  0  0  0  0
  152.7092  143.4286  160.1720 C   0  0  0  0  0  0  0  0  0  0  0  0
  152.6890  143.3990  161.5881 C   0  0  0  0  0  0  0  0  0  0  0  0
  153.3015  142.3317  162.2764 C   0  0  0  0  0  0  0  0  0  0  0  0
  153.9383  141.3019  161.5533 C   0  0  0  0  0  0  0  0  0  0  0  0
  154.5287  140.2412  162.2929 N   0  0  0  0  0  0  0  0  0  0  0  0
  154.6015  138.9366  161.9772 C   0  0  0  0  0  0  0  0  0  0  0  0
  154.1708  138.4296  160.9418 O   0  0  0  0  0  0  0  0  0  0  0  0
  155.2275  138.2405  162.9368 N   0  0  0  0  0  0  0  0  0  0  0  0
  155.4963  136.8064  162.8986 C   0  0  2  0  0  0  0  0  0  0  0  0
  155.9036  136.3637  161.4836 C   0  0  0  0  0  0  0  0  0  0  0  0
  156.1245  134.8472  161.4587 C   0  0  0  0  0  0  0  0  0  0  0  0
  154.8785  134.0927  161.9545 C   0  0  0  0  0  0  0  0  0  0  0  0
  154.4392  134.5760  163.2795 N   0  0  0  0  0  0  0  0  0  0  0  0
  154.8169  133.6605  164.7107 S   0  0  0  0  0  0  0  0  0  0  0  0
  155.1409  131.9602  164.0876 C   0  0  0  0  0  0  0  0  0  0  0  0
  156.0714  134.1913  165.2656 O   0  0  0  0  0  0  0  0  0  0  0  0
  153.6088  133.6192  165.5488 O   0  0  0  0  0  0  0  0  0  0  0  0
  154.2465  136.0371  163.3697 C   0  0  0  0  0  0  0  0  0  0  0  0
  153.9228  141.3704  160.1397 C   0  0  0  0  0  0  0  0  0  0  0  0
  153.3235  142.4106  159.5211 N   0  3  0  0  0  0  0  0  0  0  0  0
  150.6473  145.1949  160.7289 H   0  0  0  0  0  0  0  0  0  0  0  0
  151.0033  146.2578  159.3704 H   0  0  0  0  0  0  0  0  0  0  0  0
  152.1536  146.1264  160.7001 H   0  0  0  0  0  0  0  0  0  0  0  0
  153.2597  144.4183  157.6429 H   0  0  0  0  0  0  0  0  0  0  0  0
  151.7517  145.3183  157.5146 H   0  0  0  0  0  0  0  0  0  0  0  0
  151.7137  143.5570  157.5559 H   0  0  0  0  0  0  0  0  0  0  0  0
  152.2124  144.1799  162.1617 H   0  0  0  0  0  0  0  0  0  0  0  0
  153.2838  142.3107  163.3564 H   0  0  0  0  0  0  0  0  0  0  0  0
  154.9915  140.5150  163.1474 H   0  0  0  0  0  0  0  0  0  0  0  0
  155.5509  138.7389  163.7531 H   0  0  0  0  0  0  0  0  0  0  0  0
  156.3162  136.5890  163.5833 H   0  0  0  0  0  0  0  0  0  0  0  0
  155.1272  136.6345  160.7667 H   0  0  0  0  0  0  0  0  0  0  0  0
  156.8144  136.8744  161.1686 H   0  0  0  0  0  0  0  0  0  0  0  0
  156.3698  134.5266  160.4460 H   0  0  0  0  0  0  0  0  0  0  0  0
  156.9869  134.5933  162.0737 H   0  0  0  0  0  0  0  0  0  0  0  0
  154.0602  134.2382  161.2483 H   0  0  0  0  0  0  0  0  0  0  0  0
  155.0700  133.0206  161.9843 H   0  0  0  0  0  0  0  0  0  0  0  0
  155.3632  131.3092  164.9328 H   0  0  0  0  0  0  0  0  0  0  0  0
  155.9970  131.9671  163.4153 H   0  0  0  0  0  0  0  0  0  0  0  0
  154.2618  131.5794  163.5709 H   0  0  0  0  0  0  0  0  0  0  0  0
  153.9869  136.3194  164.3899 H   0  0  0  0  0  0  0  0  0  0  0  0
  153.3901  136.3063  162.7500 H   0  0  0  0  0  0  0  0  0  0  0  0
  154.3514  140.6366  159.4742 H   0  0  0  0  0  0  0  0  0  0  0  0
  153.3320  142.4284  158.5012 H   0  0  0  0  0  0  0  0  0  0  0  0
  1  2  1  0  0  0  0
  1 24  1  0  0  0  0
  1 25  1  0  0  0  0
  1 26  1  0  0  0  0
  2  3  1  0  0  0  0
  2  4  1  0  0  0  0
  3 27  1  0  0  0  0
  3 28  1  0  0  0  0
  3 29  1  0  0  0  0
  4 23  1  0  0  0  0
  4  5  2  0  0  0  0
  5  6  1  0  0  0  0
  5 30  1  0  0  0  0
  6  7  2  0  0  0  0
  6 31  1  0  0  0  0
  7  8  1  0  0  0  0
  7 22  1  0  0  0  0
  8  9  1  0  0  0  0
  8 32  1  0  0  0  0
  9 10  2  0  0  0  0
  9 11  1  0  0  0  0
 11 12  1  0  0  0  0
 11 33  1  0  0  0  0
 12 21  1  0  0  0  0
 12 13  1  0  0  0  0
 12 34  1  0  0  0  0
 13 14  1  0  0  0  0
 13 35  1  0  0  0  0
 13 36  1  0  0  0  0
 14 15  1  0  0  0  0
 14 37  1  0  0  0  0
 14 38  1  0  0  0  0
 15 16  1  0  0  0  0
 15 39  1  0  0  0  0
 15 40  1  0  0  0  0
 16 17  1  0  0  0  0
 16 21  1  0  0  0  0
 17 18  1  0  0  0  0
 17 19  2  0  0  0  0
 17 20  2  0  0  0  0
 18 41  1  0  0  0  0
 18 42  1  0  0  0  0
 18 43  1  0  0  0  0
 21 44  1  0  0  0  0
 21 45  1  0  0  0  0
 22 23  2  0  0  0  0
 22 46  1  0  0  0  0
 23 47  1  0  0  0  0
M  CHG  1  23   1
M  END
> <s_m_source_file>
AV-unprocessed.smi

> <i_m_source_file_index>
1166

> <i_lp_mmshare_version>
43012

> <i_f3d_flags>
0

> <s_epik_input>
W0NIM11OKFtDSDNdKWMxW2NIXVtjSF1jKFtjSF1uMSlbTkhdQyg9TylbTkhdW0NAQEhdMltDSDJdW0NIMl1bQ0gyXU4oW0NIMl0yKVMoPU8pKD1PKVtDSDNd

> <s_epik_cmdline>
J2VwaWtfcHl0aG9uJywgJy1waCcsICc3LjAnLCAnLXRuJywgJzgnLCAnLW1hJywgJzIwMCcsICctbWV0YWxfYmluZGluZycsICctaW1hZScsICc8aW5maWxlLm1hZT4nLCAnLW9tYWUnLCAnPG91dGZpbGUubWFlPic=

> <r_lp_tautomer_probability>
0.999994

> <r_epik_Ionization_Penalty>
0.276583

> <r_epik_Ionization_Penalty_Charging>
0.276565

> <r_epik_Ionization_Penalty_Neutral>
1.87575e-05

> <r_epik_State_Penalty>
0.268949

> <r_epik_Charging_Adjusted_Penalty>
0.545513

> <i_epik_Tot_Q>
1

> <i_epik_Tot_abs_Q>
1

> <r_epik_Metal_State_Penalty>
0.551815

> <b_epik_Metal_Only>
0

> <s_lp_Force_Field>
OPLS_2005

> <r_lp_Energy>
7.52153

> <b_lp_Chiralities_Consistent>
1

> <s_lp_Variant>
AV-unprocessed.smi:1166-1

> <Gold.Version>
5.8.1

> <Gold.Id.Protein>
6NUR|6NUR_protein|mol2

> <Gold.PLP.Fitness>
45.8469

> <Gold.PLP.PLP>
-47.3385

> <Gold.PLP.part.hbond>
0.0000

> <Gold.PLP.part.metal>
0.0000

> <Gold.PLP.part.buried>
-7.1533

> <Gold.PLP.part.nonpolar>
-40.4281

> <Gold.PLP.part.repulsive>
0.3250

> <Gold.PLP.ligand.clash>
0.0000

> <Gold.PLP.ligand.torsion>
1.7751

> <Gold.PLP.Chemscore.Hbond>
0.0000

> <Gold.PLP.Chemscore.CHOScore>
0.0000

> <Gold.PLP.Chemscore.Metal>
0.0000

> <Gold.PLP.Chemscore.Internal.Correction>
2.0587

> <Gold.Rescore>
     Score         DG    S(hbond)    S(metal)    S(lipo)     H(rot)  DE(clash)    DE(int)     intcor
     10.33     -13.96       0.00        0.00      94.40       1.00       0.05       3.58       ----

> <Gold.Chemscore.Fitness>
10.3334

> <Gold.Chemscore.DG>
-13.9643

> <Gold.Chemscore.ZeroCoef>
-5.4800

> <Gold.Chemscore.Hbond>
0.0000

> <Gold.Chemscore.Metal>
0.0000

> <Gold.Chemscore.Lipo>
94.3958

> <Gold.Chemscore.Internal_Hbond>
0.0000

> <Gold.Chemscore.DEClash>
0.0485

> <Gold.Chemscore.DEInternal>
3.5824

> <Gold.Chemscore.Rot>
1.0000

> <Gold.Chemscore.Internal.Correction>
   9.000000E+99

> <Gold.Chemscore.Hbond.Weighted>
-0.0000

> <Gold.Chemscore.Metal.Weighted>
-0.0000

> <Gold.Chemscore.Lipo.Weighted>
-11.0443

> <Gold.Chemscore.Internal_Hbond.Weighted>
0.0000

> <Gold.Chemscore.DEClash.Weighted>
0.0485

> <Gold.Chemscore.DEInternal.Weighted>
3.5824

> <Gold.Chemscore.Rot.Weighted>
2.5600

> <Gold.Chemscore.Internal.Correction.Weighted>
   9.000000E+99

> <Gold.Protein.RotatedTorsions>
[ 6907 6896 6895 6894 ] final   71.16 input  -60.11 | X-H torsion
[ 7974 7965 7964 7962 ] final   32.78 input  175.53 | X-H torsion
[ 8008 7997 7996 7995 ] final  -19.83 input   59.86 | X-H torsion
[ 10167 10162 10161 10158 ] final -165.91 input  -65.29 | X-H torsion
[ 10718 10713 10712 10709 ] final  -40.55 input   66.30 | X-H torsion
[ 10763 10752 10751 10750 ] final -179.27 input  -60.55 | X-H torsion
[ 11005 11000 10999 10996 ] final -163.03 input  -57.11 | X-H torsion

> <Gold.Protein.ActiveResidues>
 VAL166  LYS551  ARG553  GLY616  TRP617  ASP618  TYR619  PRO620  LYS621  CYS622 
 ASP623  PHE694  ASN695  SER759  ASP760  ASP761  ALA762  ILE779  LEU786  VAL792 
 PHE793  MET794  SER795  GLU796  ALA797  LYS798  CYS799  TRP800  GLU811  SER814 

> <Gold.Protein.RotatedAtoms>
  152.4793  134.4761  159.9650 H   0  0  0  0  0  0  0  0  0  0  0  0  # atno 6907 bound_to 6896
  151.4770  133.3549  159.2840 H   0  0  0  0  0  0  0  0  0  0  0  0  # atno 6908 bound_to 6896
  150.8854  134.8277  159.7316 H   0  0  0  0  0  0  0  0  0  0  0  0  # atno 6909 bound_to 6896
  146.1464  139.6482  142.9128 H   0  0  0  0  0  0  0  0  0  0  0  0  # atno 7974 bound_to 7965
  154.4810  140.2078  155.9764 H   0  0  0  0  0  0  0  0  0  0  0  0  # atno 8008 bound_to 7997
  156.1165  140.3220  155.8116 H   0  0  0  0  0  0  0  0  0  0  0  0  # atno 8009 bound_to 7997
  155.4544  140.0519  157.2988 H   0  0  0  0  0  0  0  0  0  0  0  0  # atno 8010 bound_to 7997
  139.6150  144.0738  152.1879 H   0  0  0  0  0  0  0  0  0  0  0  0  # atno 10167 bound_to 10162
  156.2801  130.4216  149.8345 H   0  0  0  0  0  0  0  0  0  0  0  0  # atno 10718 bound_to 10713
  154.5372  135.2803  155.1128 H   0  0  0  0  0  0  0  0  0  0  0  0  # atno 10763 bound_to 10752
  154.2624  135.6319  153.5283 H   0  0  0  0  0  0  0  0  0  0  0  0  # atno 10764 bound_to 10752
  152.9970  135.5609  154.5902 H   0  0  0  0  0  0  0  0  0  0  0  0  # atno 10765 bound_to 10752
  140.6026  134.4931  157.5207 H   0  0  0  0  0  0  0  0  0  0  0  0  # atno 11005 bound_to 11000
  145.4927  141.0438  143.2584 LP  0  0  0  0  0  0  0  0  0  0  0  0  # atno 17320 bound_to 7965
  144.7851  139.6443  143.7137 LP  0  0  0  0  0  0  0  0  0  0  0  0  # atno 17321 bound_to 7965
  140.0366  144.6040  150.7445 LP  0  0  0  0  0  0  0  0  0  0  0  0  # atno 17342 bound_to 10162
  140.7345  143.2729  151.3831 LP  0  0  0  0  0  0  0  0  0  0  0  0  # atno 17343 bound_to 10162
  156.5796  130.8460  151.3379 LP  0  0  0  0  0  0  0  0  0  0  0  0  # atno 17370 bound_to 10713
  157.7312  130.9696  150.1867 LP  0  0  0  0  0  0  0  0  0  0  0  0  # atno 17371 bound_to 10713
  139.9226  134.8119  156.1165 LP  0  0  0  0  0  0  0  0  0  0  0  0  # atno 17394 bound_to 11000
  141.0862  133.6733  156.2441 LP  0  0  0  0  0  0  0  0  0  0  0  0  # atno 17395 bound_to 11000

$$$$
