AV-unprocessed.smi:243|AV-procd|sdf|1855|dock3
  -GOLD-   2262020483D 1   1.00000     0.00000
 Structure written by MMmdl.
 58 61  0  0  0  0  0  0  0  0  2 V2000
  151.4716  145.1049  160.2355 C   0  0  0  0  0  0  0  0  0  0  0  0
  152.3460  144.9814  158.9790 C   0  0  0  0  0  0  0  0  0  0  0  0
  152.3159  143.6170  158.3937 N   0  3  1  0  0  0  0  0  0  0  0  0
  152.6937  142.5568  159.3618 C   0  0  0  0  0  0  0  0  0  0  0  0
  152.7964  141.1962  158.6620 C   0  0  0  0  0  0  0  0  0  0  0  0
  151.4748  140.8181  157.9574 C   0  0  2  0  0  0  0  0  0  0  0  0
  151.5396  139.4922  157.3222 N   0  0  0  0  0  0  0  0  0  0  0  0
  152.3912  139.3669  156.1447 C   0  0  0  0  0  0  0  0  0  0  0  0
  150.3914  138.7727  157.2527 C   0  0  0  0  0  0  0  0  0  0  0  0
  149.6806  138.8319  156.0989 N   0  0  0  0  0  0  0  0  0  0  0  0
  148.5428  138.1433  155.9721 C   0  0  0  0  0  0  0  0  0  0  0  0
  147.9460  137.3476  156.8612 N   0  0  0  0  0  0  0  0  0  0  0  0
  148.6498  137.2919  158.0278 C   0  0  0  0  0  0  0  0  0  0  0  0
  149.8708  137.9682  158.3084 C   0  0  0  0  0  0  0  0  0  0  0  0
  150.2951  137.6589  159.5957 N   0  0  0  0  0  0  0  0  0  0  0  0
  149.3766  136.8513  160.0504 C   0  0  0  0  0  0  0  0  0  0  0  0
  148.3490  136.5799  159.1759 N   0  0  0  0  0  0  0  0  0  0  0  0
  147.2038  135.7161  159.4175 C   0  0  0  0  0  0  0  0  0  0  0  0
  146.5572  135.9227  160.8071 C   0  0  2  0  0  0  0  0  0  0  0  0
  146.2332  137.2925  160.9696 O   0  0  0  0  0  0  0  0  0  0  0  0
  147.4392  135.4927  161.9767 C   0  0  0  0  0  0  0  0  0  0  0  0
  146.4289  134.9955  163.0011 C   0  0  0  0  0  0  0  0  0  0  0  0
  145.4789  134.3241  162.1924 O   0  0  0  0  0  0  0  0  0  0  0  0
  145.2752  135.0905  161.0101 C   0  0  0  0  0  0  0  0  0  0  0  0
  151.0361  141.9607  157.0037 C   0  0  1  0  0  0  0  0  0  0  0  0
  149.6517  141.6969  156.3835 C   0  0  0  0  0  0  0  0  0  0  0  0
  151.0128  143.3118  157.7509 C   0  0  0  0  0  0  0  0  0  0  0  0
  151.5908  146.0893  160.6887 H   0  0  0  0  0  0  0  0  0  0  0  0
  151.7502  144.3625  160.9839 H   0  0  0  0  0  0  0  0  0  0  0  0
  150.4121  144.9806  160.0139 H   0  0  0  0  0  0  0  0  0  0  0  0
  152.0508  145.7173  158.2298 H   0  0  0  0  0  0  0  0  0  0  0  0
  153.3696  145.2267  159.2654 H   0  0  0  0  0  0  0  0  0  0  0  0
  153.6540  142.7852  159.8227 H   0  0  0  0  0  0  0  0  0  0  0  0
  151.9589  142.5134  160.1673 H   0  0  0  0  0  0  0  0  0  0  0  0
  153.6128  141.2386  157.9403 H   0  0  0  0  0  0  0  0  0  0  0  0
  153.0691  140.4359  159.3940 H   0  0  0  0  0  0  0  0  0  0  0  0
  150.7106  140.7428  158.7327 H   0  0  0  0  0  0  0  0  0  0  0  0
  152.3829  138.3462  155.7593 H   0  0  0  0  0  0  0  0  0  0  0  0
  153.4214  139.6131  156.4025 H   0  0  0  0  0  0  0  0  0  0  0  0
  152.0750  140.0390  155.3472 H   0  0  0  0  0  0  0  0  0  0  0  0
  148.0380  138.2445  155.0228 H   0  0  0  0  0  0  0  0  0  0  0  0
  149.4240  136.4288  161.0436 H   0  0  0  0  0  0  0  0  0  0  0  0
  146.4694  135.8865  158.6292 H   0  0  0  0  0  0  0  0  0  0  0  0
  147.5330  134.6818  159.3082 H   0  0  0  0  0  0  0  0  0  0  0  0
  145.3106  137.3620  161.1614 H   0  0  0  0  0  0  0  0  0  0  0  0
  148.0764  134.6579  161.6823 H   0  0  0  0  0  0  0  0  0  0  0  0
  148.0852  136.2849  162.3578 H   0  0  0  0  0  0  0  0  0  0  0  0
  146.8700  134.3295  163.7429 H   0  0  0  0  0  0  0  0  0  0  0  0
  145.9509  135.8277  163.5203 H   0  0  0  0  0  0  0  0  0  0  0  0
  144.3920  135.7198  161.1331 H   0  0  0  0  0  0  0  0  0  0  0  0
  145.0798  134.4161  160.1760 H   0  0  0  0  0  0  0  0  0  0  0  0
  151.7624  142.0520  156.1956 H   0  0  0  0  0  0  0  0  0  0  0  0
  148.8838  141.6134  157.1531 H   0  0  0  0  0  0  0  0  0  0  0  0
  149.6332  140.7759  155.8017 H   0  0  0  0  0  0  0  0  0  0  0  0
  149.3620  142.5062  155.7130 H   0  0  0  0  0  0  0  0  0  0  0  0
  150.2291  143.3128  158.5106 H   0  0  0  0  0  0  0  0  0  0  0  0
  150.7655  144.1041  157.0430 H   0  0  0  0  0  0  0  0  0  0  0  0
  153.0054  143.6062  157.6553 H   0  0  0  0  0  0  0  0  0  0  0  0
  1  2  1  0  0  0  0
  1 28  1  0  0  0  0
  1 29  1  0  0  0  0
  1 30  1  0  0  0  0
  2  3  1  0  0  0  0
  2 31  1  0  0  0  0
  2 32  1  0  0  0  0
  3 27  1  0  0  0  0
  3  4  1  0  0  0  0
  3 58  1  0  0  0  0
  4  5  1  0  0  0  0
  4 33  1  0  0  0  0
  4 34  1  0  0  0  0
  5  6  1  0  0  0  0
  5 35  1  0  0  0  0
  5 36  1  0  0  0  0
  6  7  1  0  0  0  0
  6 25  1  0  0  0  0
  6 37  1  0  0  0  0
  7  8  1  0  0  0  0
  7  9  1  0  0  0  0
  8 38  1  0  0  0  0
  8 39  1  0  0  0  0
  8 40  1  0  0  0  0
  9 14  1  0  0  0  0
  9 10  2  0  0  0  0
 10 11  1  0  0  0  0
 11 12  2  0  0  0  0
 11 41  1  0  0  0  0
 12 13  1  0  0  0  0
 13 17  1  0  0  0  0
 13 14  2  0  0  0  0
 14 15  1  0  0  0  0
 15 16  2  0  0  0  0
 16 17  1  0  0  0  0
 16 42  1  0  0  0  0
 17 18  1  0  0  0  0
 18 19  1  0  0  0  0
 18 43  1  0  0  0  0
 18 44  1  0  0  0  0
 19 24  1  0  0  0  0
 19 20  1  0  0  0  0
 19 21  1  0  0  0  0
 20 45  1  0  0  0  0
 21 22  1  0  0  0  0
 21 46  1  0  0  0  0
 21 47  1  0  0  0  0
 22 23  1  0  0  0  0
 22 48  1  0  0  0  0
 22 49  1  0  0  0  0
 23 24  1  0  0  0  0
 24 50  1  0  0  0  0
 24 51  1  0  0  0  0
 25 26  1  0  0  0  0
 25 27  1  0  0  0  0
 25 52  1  0  0  0  0
 26 53  1  0  0  0  0
 26 54  1  0  0  0  0
 26 55  1  0  0  0  0
 27 56  1  0  0  0  0
 27 57  1  0  0  0  0
M  CHG  1   3   1
M  END
> <s_m_source_file>
AV-unprocessed.smi

> <i_m_source_file_index>
243

> <i_lp_mmshare_version>
43012

> <i_f3d_flags>
0

> <s_epik_input>
W0NIM11bQ0gyXU4xW0NIMl1bQ0gyXVtDQEhdKFtDQEBIXShbQ0gzXSlbQ0gyXTEpTihbQ0gzXSljKG5bY0hdbjIpYyhjMjMpbltjSF1uM1tDSDJdW0NAQF00KFtPSF0pW0NIMl1bQ0gyXU9bQ0gyXTQ=

> <s_epik_cmdline>
J2VwaWtfcHl0aG9uJywgJy1waCcsICc3LjAnLCAnLXRuJywgJzgnLCAnLW1hJywgJzIwMCcsICctbWV0YWxfYmluZGluZycsICctaW1hZScsICc8aW5maWxlLm1hZT4nLCAnLW9tYWUnLCAnPG91dGZpbGUubWFlPic=

> <r_lp_tautomer_probability>
1

> <r_epik_Ionization_Penalty>
0.00253099

> <r_epik_Ionization_Penalty_Charging>
0.00137877

> <r_epik_Ionization_Penalty_Neutral>
0.00115221

> <r_epik_State_Penalty>
-0

> <r_epik_Charging_Adjusted_Penalty>
0.00137877

> <i_epik_Tot_Q>
1

> <i_epik_Tot_abs_Q>
1

> <r_epik_Metal_State_Penalty>
-0

> <b_epik_Metal_Only>
0

> <s_lp_Force_Field>
OPLS_2005

> <r_lp_Energy>
45.753

> <b_lp_Chiralities_Consistent>
1

> <s_lp_Variant>
AV-unprocessed.smi:243-8

> <Gold.Version>
5.8.1

> <Gold.Id.Protein>
6NUR|6NUR_protein|mol2

> <Gold.PLP.Fitness>
41.8689

> <Gold.PLP.PLP>
-40.4387

> <Gold.PLP.part.hbond>
-1.9355

> <Gold.PLP.part.metal>
0.0000

> <Gold.PLP.part.buried>
-3.8068

> <Gold.PLP.part.nonpolar>
-35.0866

> <Gold.PLP.part.repulsive>
0.0326

> <Gold.PLP.ligand.clash>
0.0000

> <Gold.PLP.ligand.torsion>
1.1487

> <Gold.PLP.Chemscore.Hbond>
1.0000

> <Gold.PLP.Chemscore.CHOScore>
0.0000

> <Gold.PLP.Chemscore.Metal>
0.0000

> <Gold.Chemscore.Hbonds>
donor molecule, donor type, donor heavy atom, donor atom, acceptor molecule, acceptor atom, score
      P1  H  6934  6947       L1    20  1.00

> <Gold.PLP.Chemscore.Internal.Correction>
0.7277

> <Gold.Rescore>
     Score         DG    S(hbond)    S(metal)    S(lipo)     H(rot)  DE(clash)    DE(int)     intcor
     13.22     -15.06       0.96        0.00     109.72       2.53       0.33       1.50       ----

> <Gold.Chemscore.Fitness>
13.2229

> <Gold.Chemscore.DG>
-15.0567

> <Gold.Chemscore.ZeroCoef>
-5.4800

> <Gold.Chemscore.Hbond>
0.9632

> <Gold.Chemscore.Metal>
0.0000

> <Gold.Chemscore.Lipo>
109.7240

> <Gold.Chemscore.Internal_Hbond>
0.0000

> <Gold.Chemscore.DEClash>
0.3303

> <Gold.Chemscore.DEInternal>
1.5036

> <Gold.Chemscore.Rot>
2.5305

> <Gold.Chemscore.Internal.Correction>
   9.000000E+99

> <Gold.Chemscore.Hbonds>
donor molecule, donor type, donor heavy atom, donor atom, acceptor molecule, acceptor atom, score
      P1  H  6934  6947       L1    20  0.84

> <Gold.Chemscore.Hbond.Weighted>
-3.2170

> <Gold.Chemscore.Metal.Weighted>
-0.0000

> <Gold.Chemscore.Lipo.Weighted>
-12.8377

> <Gold.Chemscore.Internal_Hbond.Weighted>
0.0000

> <Gold.Chemscore.DEClash.Weighted>
0.3303

> <Gold.Chemscore.DEInternal.Weighted>
1.5036

> <Gold.Chemscore.Rot.Weighted>
6.4780

> <Gold.Chemscore.Internal.Correction.Weighted>
   9.000000E+99

> <Gold.Protein.RotatedTorsions>
[ 6907 6896 6895 6894 ] final    3.16 input  -60.11 | X-H torsion
[ 7974 7965 7964 7962 ] final -151.31 input  175.53 | X-H torsion
[ 8008 7997 7996 7995 ] final  -80.80 input   59.86 | X-H torsion
[ 10167 10162 10161 10158 ] final  -97.63 input  -65.29 | X-H torsion
[ 10718 10713 10712 10709 ] final   66.48 input   66.30 | X-H torsion
[ 10763 10752 10751 10750 ] final   79.98 input  -60.55 | X-H torsion
[ 11005 11000 10999 10996 ] final  -22.48 input  -57.11 | X-H torsion

> <Gold.Protein.ActiveResidues>
 VAL166  LYS551  ARG553  GLY616  TRP617  ASP618  TYR619  PRO620  LYS621  CYS622 
 ASP623  PHE694  ASN695  SER759  ASP760  ASP761  ALA762  ILE779  LEU786  VAL792 
 PHE793  MET794  SER795  GLU796  ALA797  LYS798  CYS799  TRP800  GLU811  SER814 

> <Gold.Protein.RotatedAtoms>
  151.6205  135.1032  160.0100 H   0  0  0  0  0  0  0  0  0  0  0  0  # atno 6907 bound_to 6896
  152.4160  133.7035  159.6448 H   0  0  0  0  0  0  0  0  0  0  0  0  # atno 6908 bound_to 6896
  150.8048  133.8456  159.3232 H   0  0  0  0  0  0  0  0  0  0  0  0  # atno 6909 bound_to 6896
  144.7857  140.4814  143.5808 H   0  0  0  0  0  0  0  0  0  0  0  0  # atno 7974 bound_to 7965
  154.5919  140.0657  156.9251 H   0  0  0  0  0  0  0  0  0  0  0  0  # atno 8008 bound_to 7997
  155.2280  140.3335  155.4289 H   0  0  0  0  0  0  0  0  0  0  0  0  # atno 8009 bound_to 7997
  156.2262  140.1820  156.7342 H   0  0  0  0  0  0  0  0  0  0  0  0  # atno 8010 bound_to 7997
  140.2814  143.3280  152.0438 H   0  0  0  0  0  0  0  0  0  0  0  0  # atno 10167 bound_to 10162
  157.6172  130.9270  150.0115 H   0  0  0  0  0  0  0  0  0  0  0  0  # atno 10718 bound_to 10713
  153.0997  135.4819  154.8843 H   0  0  0  0  0  0  0  0  0  0  0  0  # atno 10763 bound_to 10752
  154.7364  135.3072  154.8806 H   0  0  0  0  0  0  0  0  0  0  0  0  # atno 10764 bound_to 10752
  153.9426  135.6832  153.4797 H   0  0  0  0  0  0  0  0  0  0  0  0  # atno 10765 bound_to 10752
  140.8661  133.7753  156.0131 H   0  0  0  0  0  0  0  0  0  0  0  0  # atno 11005 bound_to 11000
  145.5929  139.1497  143.3172 LP  0  0  0  0  0  0  0  0  0  0  0  0  # atno 17320 bound_to 7965
  146.2087  140.6054  142.9069 LP  0  0  0  0  0  0  0  0  0  0  0  0  # atno 17321 bound_to 7965
  139.4962  144.6589  151.6509 LP  0  0  0  0  0  0  0  0  0  0  0  0  # atno 17342 bound_to 10162
  140.5809  143.9948  150.6268 LP  0  0  0  0  0  0  0  0  0  0  0  0  # atno 17343 bound_to 10162
  156.1299  130.3643  149.9748 LP  0  0  0  0  0  0  0  0  0  0  0  0  # atno 17370 bound_to 10713
  156.7811  130.9222  151.3646 LP  0  0  0  0  0  0  0  0  0  0  0  0  # atno 17371 bound_to 10713
  140.8627  134.2821  157.5227 LP  0  0  0  0  0  0  0  0  0  0  0  0  # atno 17394 bound_to 11000
  139.8709  134.9526  156.4121 LP  0  0  0  0  0  0  0  0  0  0  0  0  # atno 17395 bound_to 11000

$$$$
