AV-unprocessed.smi:1285|AV-procd|sdf|5372|dock6
  -GOLD-   22720 4513D 1   1.00000     0.00000
 Structure written by MMmdl.
 47 48  0  0  0  0  0  0  0  0  2 V2000
  147.6373  140.9319  153.9363 C   0  0  0  0  0  0  0  0  0  0  0  0
  147.0343  140.1128  152.7811 C   0  0  0  0  0  0  0  0  0  0  0  0
  146.5579  138.6739  153.1515 C   0  0  2  0  0  0  0  0  0  0  0  0
  147.6764  138.0297  154.0137 C   0  0  0  0  0  0  0  0  0  0  0  0
  146.3642  137.8462  151.8416 C   0  0  0  0  0  0  0  0  0  0  0  0
  146.5032  136.4064  152.0475 N   0  0  0  0  0  0  0  0  0  0  0  0
  145.5360  135.4896  151.8853 C   0  0  0  0  0  0  0  0  0  0  0  0
  144.4160  135.7597  151.4507 O   0  0  0  0  0  0  0  0  0  0  0  0
  145.8913  134.0607  152.3222 C   0  0  2  0  0  0  0  0  0  0  0  0
  147.3972  133.8652  152.5826 C   0  0  0  0  0  0  0  0  0  0  0  0
  145.3942  133.1134  151.3328 N   0  0  0  0  0  0  0  0  0  0  0  0
  146.0435  132.2861  150.5089 C   0  0  0  0  0  0  0  0  0  0  0  0
  145.2493  131.6084  149.6922 N   0  0  0  0  0  0  0  0  0  0  0  0
  144.0390  132.1013  150.0898 C   0  0  0  0  0  0  0  0  0  0  0  0
  144.0704  133.0136  151.0611 N   0  0  0  0  0  0  0  0  0  0  0  0
  145.2717  138.7355  153.9375 N   0  3  0  0  0  0  0  0  0  0  0  0
  144.5559  137.4405  154.1172 C   0  0  0  0  0  0  0  0  0  0  0  0
  143.1723  137.6735  154.7450 C   0  0  0  0  0  0  0  0  0  0  0  0
  143.3227  138.3339  155.9935 O   0  0  0  0  0  0  0  0  0  0  0  0
  143.9289  139.6099  155.8429 C   0  0  0  0  0  0  0  0  0  0  0  0
  145.3364  139.4520  155.2431 C   0  0  0  0  0  0  0  0  0  0  0  0
  147.9365  141.9197  153.5853 H   0  0  0  0  0  0  0  0  0  0  0  0
  148.5256  140.4558  154.3506 H   0  0  0  0  0  0  0  0  0  0  0  0
  146.9241  141.0795  154.7471 H   0  0  0  0  0  0  0  0  0  0  0  0
  146.2200  140.6813  152.3330 H   0  0  0  0  0  0  0  0  0  0  0  0
  147.7877  140.0574  151.9942 H   0  0  0  0  0  0  0  0  0  0  0  0
  148.6644  138.1901  153.5812 H   0  0  0  0  0  0  0  0  0  0  0  0
  147.5533  136.9502  154.1036 H   0  0  0  0  0  0  0  0  0  0  0  0
  147.7001  138.4433  155.0222 H   0  0  0  0  0  0  0  0  0  0  0  0
  145.4017  138.0634  151.3779 H   0  0  0  0  0  0  0  0  0  0  0  0
  147.1177  138.1166  151.1028 H   0  0  0  0  0  0  0  0  0  0  0  0
  147.3916  136.0859  152.4058 H   0  0  0  0  0  0  0  0  0  0  0  0
  145.3707  133.8695  153.2624 H   0  0  0  0  0  0  0  0  0  0  0  0
  147.7552  134.5494  153.3531 H   0  0  0  0  0  0  0  0  0  0  0  0
  147.9928  134.0352  151.6848 H   0  0  0  0  0  0  0  0  0  0  0  0
  147.6032  132.8515  152.9272 H   0  0  0  0  0  0  0  0  0  0  0  0
  147.1190  132.1871  150.4973 H   0  0  0  0  0  0  0  0  0  0  0  0
  143.1073  131.7845  149.6441 H   0  0  0  0  0  0  0  0  0  0  0  0
  144.4127  136.9263  153.1692 H   0  0  0  0  0  0  0  0  0  0  0  0
  145.1310  136.7754  154.7618 H   0  0  0  0  0  0  0  0  0  0  0  0
  142.5351  138.2589  154.0800 H   0  0  0  0  0  0  0  0  0  0  0  0
  142.6697  136.7204  154.9100 H   0  0  0  0  0  0  0  0  0  0  0  0
  143.3073  140.2503  155.2149 H   0  0  0  0  0  0  0  0  0  0  0  0
  143.9899  140.0880  156.8206 H   0  0  0  0  0  0  0  0  0  0  0  0
  145.9702  138.9067  155.9426 H   0  0  0  0  0  0  0  0  0  0  0  0
  145.7593  140.4489  155.1364 H   0  0  0  0  0  0  0  0  0  0  0  0
  144.6579  139.2974  153.3649 H   0  0  0  0  0  0  0  0  0  0  0  0
  1  2  1  0  0  0  0
  1 22  1  0  0  0  0
  1 23  1  0  0  0  0
  1 24  1  0  0  0  0
  2  3  1  0  0  0  0
  2 25  1  0  0  0  0
  2 26  1  0  0  0  0
  3  4  1  0  0  0  0
  3  5  1  0  0  0  0
  3 16  1  0  0  0  0
  4 27  1  0  0  0  0
  4 28  1  0  0  0  0
  4 29  1  0  0  0  0
  5  6  1  0  0  0  0
  5 30  1  0  0  0  0
  5 31  1  0  0  0  0
  6  7  1  0  0  0  0
  6 32  1  0  0  0  0
  7  8  2  0  0  0  0
  7  9  1  0  0  0  0
  9 10  1  0  0  0  0
  9 11  1  0  0  0  0
  9 33  1  0  0  0  0
 10 34  1  0  0  0  0
 10 35  1  0  0  0  0
 10 36  1  0  0  0  0
 11 15  1  0  0  0  0
 11 12  1  0  0  0  0
 12 13  2  0  0  0  0
 12 37  1  0  0  0  0
 13 14  1  0  0  0  0
 14 15  2  0  0  0  0
 14 38  1  0  0  0  0
 16 21  1  0  0  0  0
 16 17  1  0  0  0  0
 16 47  1  0  0  0  0
 17 18  1  0  0  0  0
 17 39  1  0  0  0  0
 17 40  1  0  0  0  0
 18 19  1  0  0  0  0
 18 41  1  0  0  0  0
 18 42  1  0  0  0  0
 19 20  1  0  0  0  0
 20 21  1  0  0  0  0
 20 43  1  0  0  0  0
 20 44  1  0  0  0  0
 21 45  1  0  0  0  0
 21 46  1  0  0  0  0
M  CHG  1  16   1
M  END
> <s_m_source_file>
AV-unprocessed.smi

> <i_m_source_file_index>
1285

> <i_lp_mmshare_version>
43012

> <i_f3d_flags>
0

> <s_epik_input>
W0NIMl0xW0NIMl1PW0NIMl1bQ0gyXU4xW0NAQF0oW0NIM10pKFtDSDJdW0NIM10pW0NIMl1bTkhdQyg9TylbQ0BIXShbQ0gzXSluMltjSF1uW2NIXW4y

> <s_epik_cmdline>
J2VwaWtfcHl0aG9uJywgJy1waCcsICc3LjAnLCAnLXRuJywgJzgnLCAnLW1hJywgJzIwMCcsICctbWV0YWxfYmluZGluZycsICctaW1hZScsICc8aW5maWxlLm1hZT4nLCAnLW9tYWUnLCAnPG91dGZpbGUubWFlPic=

> <r_lp_tautomer_probability>
1

> <r_epik_Ionization_Penalty>
0.569304

> <r_epik_Ionization_Penalty_Charging>
0.569295

> <r_epik_Ionization_Penalty_Neutral>
8.22697e-06

> <r_epik_State_Penalty>
0.581114

> <r_epik_Charging_Adjusted_Penalty>
1.15041

> <i_epik_Tot_Q>
1

> <i_epik_Tot_abs_Q>
1

> <r_epik_Metal_State_Penalty>
0.581117

> <b_epik_Metal_Only>
0

> <s_lp_Force_Field>
OPLS_2005

> <r_lp_Energy>
32.2271

> <b_lp_Chiralities_Consistent>
1

> <s_lp_Variant>
AV-unprocessed.smi:1285-6

> <Gold.Version>
5.8.1

> <Gold.Id.Protein>
6NUR|6NUR_protein|mol2

> <Gold.PLP.Fitness>
37.1550

> <Gold.PLP.PLP>
-25.3119

> <Gold.PLP.part.hbond>
-2.7173

> <Gold.PLP.part.metal>
0.0000

> <Gold.PLP.part.buried>
-0.4024

> <Gold.PLP.part.nonpolar>
-23.7820

> <Gold.PLP.part.repulsive>
0.6093

> <Gold.PLP.ligand.clash>
0.1267

> <Gold.PLP.ligand.torsion>
1.1472

> <Gold.PLP.Chemscore.Hbond>
2.6560

> <Gold.PLP.Chemscore.CHOScore>
1.9750

> <Gold.PLP.Chemscore.Metal>
0.0000

> <Gold.Chemscore.Hbonds>
donor molecule, donor type, donor heavy atom, donor atom, acceptor molecule, acceptor atom, score
      L1  H     6    32       P1  7948  0.66
      L1  H    16    47       P1 10175  2.00
      L1  C    12    37       P1 10747  1.00
      L1  C    14    38       P1 10952  0.57

> <Gold.PLP.Chemscore.Internal.Correction>
0.3712

> <Gold.Rescore>
     Score         DG    S(hbond)    S(metal)    S(lipo)     H(rot)  DE(clash)    DE(int)     intcor
      6.36     -10.31       1.95        0.00      45.93       2.76       1.40       2.56       ----

> <Gold.Chemscore.Fitness>
6.3598

> <Gold.Chemscore.DG>
-10.3143

> <Gold.Chemscore.ZeroCoef>
-5.4800

> <Gold.Chemscore.Hbond>
1.9531

> <Gold.Chemscore.Metal>
0.0000

> <Gold.Chemscore.Lipo>
45.9283

> <Gold.Chemscore.Internal_Hbond>
0.0000

> <Gold.Chemscore.DEClash>
1.3954

> <Gold.Chemscore.DEInternal>
2.5592

> <Gold.Chemscore.Rot>
2.7589

> <Gold.Chemscore.Internal.Correction>
   9.000000E+99

> <Gold.Chemscore.Hbonds>
donor molecule, donor type, donor heavy atom, donor atom, acceptor molecule, acceptor atom, score
      L1  H     6    32       P1  7948  0.64
      L1  H    16    47       P1 10175  1.00

> <Gold.Chemscore.Hbond.Weighted>
-6.5234

> <Gold.Chemscore.Metal.Weighted>
-0.0000

> <Gold.Chemscore.Lipo.Weighted>
-5.3736

> <Gold.Chemscore.Internal_Hbond.Weighted>
0.0000

> <Gold.Chemscore.DEClash.Weighted>
1.3954

> <Gold.Chemscore.DEInternal.Weighted>
2.5592

> <Gold.Chemscore.Rot.Weighted>
7.0627

> <Gold.Chemscore.Internal.Correction.Weighted>
   9.000000E+99

> <Gold.Protein.RotatedTorsions>
[ 6907 6896 6895 6894 ] final  -93.61 input  -60.11 | X-H torsion
[ 7974 7965 7964 7962 ] final  149.23 input  175.53 | X-H torsion
[ 8008 7997 7996 7995 ] final  173.64 input   59.86 | X-H torsion
[ 10167 10162 10161 10158 ] final   44.11 input  -65.29 | X-H torsion
[ 10718 10713 10712 10709 ] final   44.48 input   66.30 | X-H torsion
[ 10763 10752 10751 10750 ] final   10.20 input  -60.55 | X-H torsion
[ 11005 11000 10999 10996 ] final -161.90 input  -57.11 | X-H torsion

> <Gold.Protein.ActiveResidues>
 VAL166  LYS551  ARG553  GLY616  TRP617  ASP618  TYR619  PRO620  LYS621  CYS622 
 ASP623  PHE694  ASN695  SER759  ASP760  ASP761  ALA762  ILE779  LEU786  VAL792 
 PHE793  MET794  SER795  GLU796  ALA797  LYS798  CYS799  TRP800  GLU811  SER814 

> <Gold.Protein.RotatedAtoms>
  150.6926  134.1940  159.4296 H   0  0  0  0  0  0  0  0  0  0  0  0  # atno 6907 bound_to 6896
  151.9910  134.9977  160.0571 H   0  0  0  0  0  0  0  0  0  0  0  0  # atno 6908 bound_to 6896
  152.1668  133.4582  159.4925 H   0  0  0  0  0  0  0  0  0  0  0  0  # atno 6909 bound_to 6896
  144.8453  139.6255  143.5998 H   0  0  0  0  0  0  0  0  0  0  0  0  # atno 7974 bound_to 7965
  156.1055  140.1455  156.9410 H   0  0  0  0  0  0  0  0  0  0  0  0  # atno 8008 bound_to 7997
  154.4731  140.0903  156.7238 H   0  0  0  0  0  0  0  0  0  0  0  0  # atno 8009 bound_to 7997
  155.4687  140.3441  155.4325 H   0  0  0  0  0  0  0  0  0  0  0  0  # atno 8010 bound_to 7997
  140.3376  144.2510  150.6159 H   0  0  0  0  0  0  0  0  0  0  0  0  # atno 10167 bound_to 10162
  157.4272  130.8004  149.7570 H   0  0  0  0  0  0  0  0  0  0  0  0  # atno 10718 bound_to 10713
  153.2058  135.6862  153.8175 H   0  0  0  0  0  0  0  0  0  0  0  0  # atno 10763 bound_to 10752
  153.7425  135.3236  155.3307 H   0  0  0  0  0  0  0  0  0  0  0  0  # atno 10764 bound_to 10752
  154.8196  135.4662  154.0844 H   0  0  0  0  0  0  0  0  0  0  0  0  # atno 10765 bound_to 10752
  140.6153  134.4807  157.5219 H   0  0  0  0  0  0  0  0  0  0  0  0  # atno 11005 bound_to 11000
  146.2739  139.6703  142.9277 LP  0  0  0  0  0  0  0  0  0  0  0  0  # atno 17320 bound_to 7965
  145.4609  141.0433  143.2752 LP  0  0  0  0  0  0  0  0  0  0  0  0  # atno 17321 bound_to 7965
  140.5339  143.2237  151.8194 LP  0  0  0  0  0  0  0  0  0  0  0  0  # atno 17342 bound_to 10162
  139.4846  144.4686  151.9453 LP  0  0  0  0  0  0  0  0  0  0  0  0  # atno 17343 bound_to 10162
  155.9900  130.3947  150.3045 LP  0  0  0  0  0  0  0  0  0  0  0  0  # atno 17370 bound_to 10713
  157.1199  131.0244  151.3014 LP  0  0  0  0  0  0  0  0  0  0  0  0  # atno 17371 bound_to 10713
  139.9175  134.8215  156.1317 LP  0  0  0  0  0  0  0  0  0  0  0  0  # atno 17394 bound_to 11000
  141.0780  133.6767  156.2277 LP  0  0  0  0  0  0  0  0  0  0  0  0  # atno 17395 bound_to 11000

$$$$
