AV-unprocessed.smi:2775|AV-procd|sdf|10694|dock4
  -GOLD-   2272015133D 1   1.00000     0.00000
 Structure written by MMmdl.
 42 45  0  0  0  0  0  0  0  0  1 V2000
  147.5616  129.9477  153.0025 C   0  0  0  0  0  0  0  0  0  0  0  0
  148.5334  130.8602  153.7272 C   0  0  0  0  0  0  0  0  0  0  0  0
  149.4450  130.2411  154.5082 N   0  0  0  0  0  0  0  0  0  0  0  0
  150.3299  131.0066  155.1783 C   0  0  0  0  0  0  0  0  0  0  0  0
  150.3531  132.4124  155.1033 C   0  0  0  0  0  0  0  0  0  0  0  0
  149.4035  133.0656  154.2804 C   0  0  0  0  0  0  0  0  0  0  0  0
  149.3137  134.4777  154.1249 N   0  0  0  0  0  0  0  0  0  0  0  0
  149.5281  135.4694  155.0111 C   0  0  0  0  0  0  0  0  0  0  0  0
  149.9296  135.3181  156.1622 O   0  0  0  0  0  0  0  0  0  0  0  0
  149.2811  136.6955  154.5184 N   0  0  0  0  0  0  0  0  0  0  0  0
  149.4129  137.9762  155.2128 C   0  0  2  0  0  0  0  0  0  0  0  0
  148.9579  139.1547  154.3497 C   0  0  1  0  0  0  0  0  0  0  0  0
  147.7978  140.0818  154.3929 C   0  0  0  0  0  0  0  0  0  0  0  0
  148.5725  141.3961  154.1185 C   0  0  0  0  0  0  0  0  0  0  0  0
  149.9768  141.0515  154.2025 O   0  0  0  0  0  0  0  0  0  0  0  0
  150.0162  139.9535  155.0940 C   0  0  2  0  0  0  0  0  0  0  0  0
  150.8201  138.6453  155.0657 C   0  0  0  0  0  0  0  0  0  0  0  0
  151.8195  138.3406  153.9341 C   0  0  0  0  0  0  0  0  0  0  0  0
  152.9456  138.6673  154.9206 C   0  0  0  0  0  0  0  0  0  0  0  0
  151.9593  138.4089  156.0648 C   0  0  0  0  0  0  0  0  0  0  0  0
  148.4687  132.2657  153.5807 C   0  0  0  0  0  0  0  0  0  0  0  0
  147.2675  132.9923  152.5646 Cl  0  0  0  0  0  0  0  0  0  0  0  0
  147.6524  130.0782  151.9238 H   0  0  0  0  0  0  0  0  0  0  0  0
  146.5363  130.1775  153.2936 H   0  0  0  0  0  0  0  0  0  0  0  0
  147.7496  128.8979  153.2316 H   0  0  0  0  0  0  0  0  0  0  0  0
  151.0419  130.4821  155.7980 H   0  0  0  0  0  0  0  0  0  0  0  0
  151.0904  132.9456  155.6811 H   0  0  0  0  0  0  0  0  0  0  0  0
  149.0324  134.7801  153.2035 H   0  0  0  0  0  0  0  0  0  0  0  0
  148.9915  136.7457  153.5522 H   0  0  0  0  0  0  0  0  0  0  0  0
  149.0033  137.9999  156.2265 H   0  0  0  0  0  0  0  0  0  0  0  0
  149.2397  138.9734  153.3057 H   0  0  0  0  0  0  0  0  0  0  0  0
  147.0528  139.8652  153.6268 H   0  0  0  0  0  0  0  0  0  0  0  0
  147.3157  140.0876  155.3714 H   0  0  0  0  0  0  0  0  0  0  0  0
  148.3535  141.8008  153.1300 H   0  0  0  0  0  0  0  0  0  0  0  0
  148.3222  142.1561  154.8596 H   0  0  0  0  0  0  0  0  0  0  0  0
  149.7207  140.2431  156.1080 H   0  0  0  0  0  0  0  0  0  0  0  0
  151.8253  137.2930  153.6305 H   0  0  0  0  0  0  0  0  0  0  0  0
  151.7627  139.0096  153.0750 H   0  0  0  0  0  0  0  0  0  0  0  0
  153.7942  137.9836  154.8870 H   0  0  0  0  0  0  0  0  0  0  0  0
  153.2628  139.7100  154.8657 H   0  0  0  0  0  0  0  0  0  0  0  0
  152.0099  139.1293  156.8816 H   0  0  0  0  0  0  0  0  0  0  0  0
  152.0064  137.3828  156.4296 H   0  0  0  0  0  0  0  0  0  0  0  0
  1  2  1  0  0  0  0
  1 23  1  0  0  0  0
  1 24  1  0  0  0  0
  1 25  1  0  0  0  0
  2 21  1  0  0  0  0
  2  3  2  0  0  0  0
  3  4  1  0  0  0  0
  4  5  2  0  0  0  0
  4 26  1  0  0  0  0
  5  6  1  0  0  0  0
  5 27  1  0  0  0  0
  6  7  1  0  0  0  0
  6 21  2  0  0  0  0
  7  8  1  0  0  0  0
  7 28  1  0  0  0  0
  8  9  2  0  0  0  0
  8 10  1  0  0  0  0
 10 11  1  0  0  0  0
 10 29  1  0  0  0  0
 11 17  1  0  0  0  0
 11 12  1  0  0  0  0
 11 30  1  0  0  0  0
 12 16  1  0  0  0  0
 12 13  1  0  0  0  0
 12 31  1  0  0  0  0
 13 14  1  0  0  0  0
 13 32  1  0  0  0  0
 13 33  1  0  0  0  0
 14 15  1  0  0  0  0
 14 34  1  0  0  0  0
 14 35  1  0  0  0  0
 15 16  1  0  0  0  0
 16 17  1  0  0  0  0
 16 36  1  0  0  0  0
 17 20  1  0  0  0  0
 17 18  1  0  0  0  0
 18 19  1  0  0  0  0
 18 37  1  0  0  0  0
 18 38  1  0  0  0  0
 19 20  1  0  0  0  0
 19 39  1  0  0  0  0
 19 40  1  0  0  0  0
 20 41  1  0  0  0  0
 20 42  1  0  0  0  0
 21 22  1  0  0  0  0
M  END
> <s_m_source_file>
AV-unprocessed.smi

> <i_m_source_file_index>
2775

> <i_lp_mmshare_version>
43012

> <i_f3d_flags>
0

> <s_epik_input>
W0NIM11jMW5bY0hdW2NIXWMoYzFDbClbTkhdQyg9TylbTkhdW0NAQEhdMltDQEhdKFtDSDJdW0NIMl1PMylbQ0BASF0zQzI0W0NIMl1bQ0gyXVtDSDJdNA==

> <s_epik_cmdline>
J2VwaWtfcHl0aG9uJywgJy1waCcsICc3LjAnLCAnLXRuJywgJzgnLCAnLW1hJywgJzIwMCcsICctbWV0YWxfYmluZGluZycsICctaW1hZScsICc8aW5maWxlLm1hZT4nLCAnLW9tYWUnLCAnPG91dGZpbGUubWFlPic=

> <r_epik_Ionization_Penalty>
0.01026

> <r_epik_Ionization_Penalty_Charging>
0

> <r_epik_Ionization_Penalty_Neutral>
0.01026

> <r_epik_State_Penalty>
0.00780685

> <r_epik_Charging_Adjusted_Penalty>
0.00780685

> <i_epik_Tot_Q>
0

> <i_epik_Tot_abs_Q>
0

> <r_epik_Metal_State_Penalty>
0.00767411

> <b_epik_Metal_Only>
0

> <s_lp_Force_Field>
OPLS_2005

> <r_lp_Energy>
80.7477

> <b_lp_Chiralities_Consistent>
1

> <s_lp_Variant>
AV-unprocessed.smi:2775-7

> <Gold.Version>
5.8.1

> <Gold.Id.Protein>
6NUR|6NUR_protein|mol2

> <Gold.PLP.Fitness>
43.5987

> <Gold.PLP.PLP>
-37.4394

> <Gold.PLP.part.hbond>
-3.6059

> <Gold.PLP.part.metal>
0.0000

> <Gold.PLP.part.buried>
-2.3313

> <Gold.PLP.part.nonpolar>
-30.6180

> <Gold.PLP.part.repulsive>
0.2961

> <Gold.PLP.ligand.clash>
0.0000

> <Gold.PLP.ligand.torsion>
0.4467

> <Gold.PLP.Chemscore.Hbond>
2.2440

> <Gold.PLP.Chemscore.CHOScore>
0.0000

> <Gold.PLP.Chemscore.Metal>
0.0000

> <Gold.Chemscore.Hbonds>
donor molecule, donor type, donor heavy atom, donor atom, acceptor molecule, acceptor atom, score
      L1  H     7    28       P1  7948  0.73
      L1  H    10    29       P1  7948  1.00
      P1  H  7989  7998       L1    15  0.51

> <Gold.PLP.Chemscore.Internal.Correction>
0.3206

> <Gold.Rescore>
     Score         DG    S(hbond)    S(metal)    S(lipo)     H(rot)  DE(clash)    DE(int)     intcor
     19.95     -20.42       2.08        0.00      90.13       1.00       0.01       0.46       ----

> <Gold.Chemscore.Fitness>
19.9529

> <Gold.Chemscore.DG>
-20.4189

> <Gold.Chemscore.ZeroCoef>
-5.4800

> <Gold.Chemscore.Hbond>
2.0820

> <Gold.Chemscore.Metal>
0.0000

> <Gold.Chemscore.Lipo>
90.1284

> <Gold.Chemscore.Internal_Hbond>
0.0000

> <Gold.Chemscore.DEClash>
0.0067

> <Gold.Chemscore.DEInternal>
0.4593

> <Gold.Chemscore.Rot>
1.0000

> <Gold.Chemscore.Internal.Correction>
   9.000000E+99

> <Gold.Chemscore.Hbonds>
donor molecule, donor type, donor heavy atom, donor atom, acceptor molecule, acceptor atom, score
      L1  H     7    28       P1  7948  0.09
      L1  H    10    29       P1  7948  0.97
      P1  H  7989  7998       L1    15  0.13

> <Gold.Chemscore.Hbond.Weighted>
-6.9539

> <Gold.Chemscore.Metal.Weighted>
-0.0000

> <Gold.Chemscore.Lipo.Weighted>
-10.5450

> <Gold.Chemscore.Internal_Hbond.Weighted>
0.0000

> <Gold.Chemscore.DEClash.Weighted>
0.0067

> <Gold.Chemscore.DEInternal.Weighted>
0.4593

> <Gold.Chemscore.Rot.Weighted>
2.5600

> <Gold.Chemscore.Internal.Correction.Weighted>
   9.000000E+99

> <Gold.Protein.RotatedTorsions>
[ 6907 6896 6895 6894 ] final  117.16 input  -60.11 | X-H torsion
[ 7974 7965 7964 7962 ] final  -24.88 input  175.53 | X-H torsion
[ 8008 7997 7996 7995 ] final -111.34 input   59.86 | X-H torsion
[ 10167 10162 10161 10158 ] final -118.14 input  -65.29 | X-H torsion
[ 10718 10713 10712 10709 ] final  155.60 input   66.30 | X-H torsion
[ 10763 10752 10751 10750 ] final -177.28 input  -60.55 | X-H torsion
[ 11005 11000 10999 10996 ] final -113.01 input  -57.11 | X-H torsion

> <Gold.Protein.ActiveResidues>
 VAL166  LYS551  ARG553  GLY616  TRP617  ASP618  TYR619  PRO620  LYS621  CYS622 
 ASP623  PHE694  ASN695  SER759  ASP760  ASP761  ALA762  ILE779  LEU786  VAL792 
 PHE793  MET794  SER795  GLU796  ALA797  LYS798  CYS799  TRP800  GLU811  SER814 

> <Gold.Protein.RotatedAtoms>
  152.4630  133.7863  159.6877 H   0  0  0  0  0  0  0  0  0  0  0  0  # atno 6907 bound_to 6896
  150.8583  133.7673  159.3007 H   0  0  0  0  0  0  0  0  0  0  0  0  # atno 6908 bound_to 6896
  151.5246  135.1070  159.9939 H   0  0  0  0  0  0  0  0  0  0  0  0  # atno 6909 bound_to 6896
  146.1526  140.4812  142.8605 H   0  0  0  0  0  0  0  0  0  0  0  0  # atno 7974 bound_to 7965
  154.9883  140.0395  157.2308 H   0  0  0  0  0  0  0  0  0  0  0  0  # atno 8008 bound_to 7997
  154.7652  140.2792  155.6159 H   0  0  0  0  0  0  0  0  0  0  0  0  # atno 8009 bound_to 7997
  156.2911  140.2621  156.2440 H   0  0  0  0  0  0  0  0  0  0  0  0  # atno 8010 bound_to 7997
  140.0607  143.4970  152.2033 H   0  0  0  0  0  0  0  0  0  0  0  0  # atno 10167 bound_to 10162
  157.2161  131.0708  151.1940 H   0  0  0  0  0  0  0  0  0  0  0  0  # atno 10718 bound_to 10713
  154.5621  135.2821  155.0909 H   0  0  0  0  0  0  0  0  0  0  0  0  # atno 10763 bound_to 10752
  154.2314  135.6373  153.5180 H   0  0  0  0  0  0  0  0  0  0  0  0  # atno 10764 bound_to 10752
  153.0032  135.5538  154.6218 H   0  0  0  0  0  0  0  0  0  0  0  0  # atno 10765 bound_to 10752
  141.0640  133.9489  157.2613 H   0  0  0  0  0  0  0  0  0  0  0  0  # atno 11005 bound_to 11000
  144.7923  140.6056  143.6533 LP  0  0  0  0  0  0  0  0  0  0  0  0  # atno 17320 bound_to 7965
  145.4786  139.1497  143.3775 LP  0  0  0  0  0  0  0  0  0  0  0  0  # atno 17321 bound_to 7965
  139.5895  144.7544  151.3435 LP  0  0  0  0  0  0  0  0  0  0  0  0  # atno 17342 bound_to 10162
  140.7173  143.7231  150.7680 LP  0  0  0  0  0  0  0  0  0  0  0  0  # atno 17343 bound_to 10162
  157.3623  130.7137  149.6510 LP  0  0  0  0  0  0  0  0  0  0  0  0  # atno 17370 bound_to 10713
  155.9686  130.4222  150.4505 LP  0  0  0  0  0  0  0  0  0  0  0  0  # atno 17371 bound_to 10713
  139.9459  135.0184  156.8851 LP  0  0  0  0  0  0  0  0  0  0  0  0  # atno 17394 bound_to 11000
  140.5810  134.0352  155.7464 LP  0  0  0  0  0  0  0  0  0  0  0  0  # atno 17395 bound_to 11000

$$$$
