AV-unprocessed.smi:2226|AV-procd|sdf|9004|dock1
  -GOLD-   2272012213D 1   1.00000     0.00000
 Structure written by MMmdl.
 40 42  0  0  0  0  0  0  0  0  2 V2000
  146.5275  138.7643  153.2110 C   0  0  0  0  0  0  0  0  0  0  0  0
  146.2688  140.0473  153.9071 N   0  3  2  0  0  0  0  0  0  0  0  0
  146.9340  141.2276  153.3057 C   0  0  1  0  0  0  0  0  0  0  0  0
  146.2606  142.5137  153.8375 C   0  0  0  0  0  0  0  0  0  0  0  0
  146.1896  142.5906  155.3745 C   0  0  0  0  0  0  0  0  0  0  0  0
  145.8091  141.2422  156.0163 C   0  0  0  0  0  0  0  0  0  0  0  0
  146.5049  140.0213  155.3705 C   0  0  2  0  0  0  0  0  0  0  0  0
  148.0117  139.8698  155.6995 C   0  0  0  0  0  0  0  0  0  0  0  0
  148.9739  140.7900  154.9081 C   0  0  2  0  0  0  0  0  0  0  0  0
  149.3832  141.9466  155.7025 N   0  0  0  0  0  0  0  0  0  0  0  0
  150.2402  141.9258  156.7345 C   0  0  0  0  0  0  0  0  0  0  0  0
  150.8001  140.9038  157.1319 O   0  0  0  0  0  0  0  0  0  0  0  0
  150.3993  143.1516  157.2603 N   0  0  0  0  0  0  0  0  0  0  0  0
  151.2346  143.5235  158.3436 C   0  0  0  0  0  0  0  0  0  0  0  0
  151.3713  144.7466  158.8577 N   0  0  0  0  0  0  0  0  0  0  0  0
  152.2874  144.5917  159.8883 C   0  0  0  0  0  0  0  0  0  0  0  0
  152.6551  143.2717  159.9389 C   0  0  0  0  0  0  0  0  0  0  0  0
  151.9917  142.5791  158.9618 O   0  0  0  0  0  0  0  0  0  0  0  0
  148.4710  141.1675  153.4880 C   0  0  0  0  0  0  0  0  0  0  0  0
  147.5773  138.4746  153.2539 H   0  0  0  0  0  0  0  0  0  0  0  0
  146.2407  138.8374  152.1616 H   0  0  0  0  0  0  0  0  0  0  0  0
  145.9379  137.9636  153.6582 H   0  0  0  0  0  0  0  0  0  0  0  0
  146.7384  141.2055  152.2325 H   0  0  0  0  0  0  0  0  0  0  0  0
  146.7607  143.3983  153.4417 H   0  0  0  0  0  0  0  0  0  0  0  0
  145.2419  142.5490  153.4489 H   0  0  0  0  0  0  0  0  0  0  0  0
  147.1309  142.9484  155.7772 H   0  0  0  0  0  0  0  0  0  0  0  0
  145.4636  143.3498  155.6670 H   0  0  0  0  0  0  0  0  0  0  0  0
  146.0030  141.2699  157.0890 H   0  0  0  0  0  0  0  0  0  0  0  0
  144.7309  141.1114  155.9134 H   0  0  0  0  0  0  0  0  0  0  0  0
  146.0008  139.1400  155.7703 H   0  0  0  0  0  0  0  0  0  0  0  0
  148.1755  139.9708  156.7735 H   0  0  0  0  0  0  0  0  0  0  0  0
  148.2917  138.8393  155.4776 H   0  0  0  0  0  0  0  0  0  0  0  0
  149.8920  140.2142  154.7732 H   0  0  0  0  0  0  0  0  0  0  0  0
  148.9713  142.8339  155.4530 H   0  0  0  0  0  0  0  0  0  0  0  0
  149.8693  143.9012  156.8413 H   0  0  0  0  0  0  0  0  0  0  0  0
  152.6034  145.4246  160.4992 H   0  0  0  0  0  0  0  0  0  0  0  0
  153.3280  142.7044  160.5647 H   0  0  0  0  0  0  0  0  0  0  0  0
  148.8511  140.4112  152.8006 H   0  0  0  0  0  0  0  0  0  0  0  0
  148.9229  142.0972  153.1411 H   0  0  0  0  0  0  0  0  0  0  0  0
  145.2778  140.2062  153.7934 H   0  0  0  0  0  0  0  0  0  0  0  0
  1  2  1  0  0  0  0
  1 20  1  0  0  0  0
  1 21  1  0  0  0  0
  1 22  1  0  0  0  0
  2  7  1  0  0  0  0
  2  3  1  0  0  0  0
  2 40  1  0  0  0  0
  3 19  1  0  0  0  0
  3  4  1  0  0  0  0
  3 23  1  0  0  0  0
  4  5  1  0  0  0  0
  4 24  1  0  0  0  0
  4 25  1  0  0  0  0
  5  6  1  0  0  0  0
  5 26  1  0  0  0  0
  5 27  1  0  0  0  0
  6  7  1  0  0  0  0
  6 28  1  0  0  0  0
  6 29  1  0  0  0  0
  7  8  1  0  0  0  0
  7 30  1  0  0  0  0
  8  9  1  0  0  0  0
  8 31  1  0  0  0  0
  8 32  1  0  0  0  0
  9 10  1  0  0  0  0
  9 19  1  0  0  0  0
  9 33  1  0  0  0  0
 10 11  1  0  0  0  0
 10 34  1  0  0  0  0
 11 12  2  0  0  0  0
 11 13  1  0  0  0  0
 13 14  1  0  0  0  0
 13 35  1  0  0  0  0
 14 18  1  0  0  0  0
 14 15  2  0  0  0  0
 15 16  1  0  0  0  0
 16 17  2  0  0  0  0
 16 36  1  0  0  0  0
 17 18  1  0  0  0  0
 17 37  1  0  0  0  0
 19 38  1  0  0  0  0
 19 39  1  0  0  0  0
M  CHG  1   2   1
M  END
> <s_m_source_file>
AV-unprocessed.smi

> <i_m_source_file_index>
2226

> <i_lp_mmshare_version>
43012

> <i_f3d_flags>
0

> <s_epik_input>
W0NIMl0xW0NIMl1bQ0gyXVtDQEhdKE4oW0NIM10pW0NIXTEyKVtDSDJdW0NASF0oW0NIMl0yKVtOSF1DKD1PKVtOSF1jM25bY0hdW2NIXW8z

> <s_epik_cmdline>
J2VwaWtfcHl0aG9uJywgJy1waCcsICc3LjAnLCAnLXRuJywgJzgnLCAnLW1hJywgJzIwMCcsICctbWV0YWxfYmluZGluZycsICctaW1hZScsICc8aW5maWxlLm1hZT4nLCAnLW9tYWUnLCAnPG91dGZpbGUubWFlPic=

> <r_lp_tautomer_probability>
0.785861

> <r_epik_Ionization_Penalty>
0.000929358

> <r_epik_Ionization_Penalty_Charging>
0.000890041

> <r_epik_Ionization_Penalty_Neutral>
3.93161e-05

> <r_epik_State_Penalty>
0.0312137

> <r_epik_Charging_Adjusted_Penalty>
0.0321037

> <i_epik_Tot_Q>
1

> <i_epik_Tot_abs_Q>
1

> <r_epik_Metal_State_Penalty>
0.0605703

> <b_epik_Metal_Only>
0

> <s_lp_Force_Field>
OPLS_2005

> <r_lp_Energy>
35.9518

> <b_lp_Chiralities_Consistent>
1

> <s_lp_Variant>
AV-unprocessed.smi:2226-4

> <Gold.Version>
5.8.1

> <Gold.Id.Protein>
6NUR|6NUR_protein|mol2

> <Gold.PLP.Fitness>
42.3629

> <Gold.PLP.PLP>
-30.7893

> <Gold.PLP.part.hbond>
-3.0000

> <Gold.PLP.part.metal>
0.0000

> <Gold.PLP.part.buried>
-3.1910

> <Gold.PLP.part.nonpolar>
-24.8580

> <Gold.PLP.part.repulsive>
0.2635

> <Gold.PLP.ligand.clash>
0.0000

> <Gold.PLP.ligand.torsion>
0.2411

> <Gold.PLP.Chemscore.Hbond>
4.0000

> <Gold.PLP.Chemscore.CHOScore>
0.0000

> <Gold.PLP.Chemscore.Metal>
0.0000

> <Gold.Chemscore.Hbonds>
donor molecule, donor type, donor heavy atom, donor atom, acceptor molecule, acceptor atom, score
      L1  H     2    40       P1 10175  1.65
      L1  H    10    34       P1  8028  1.00
      L1  H    13    35       P1  8028  1.00

> <Gold.PLP.Chemscore.Internal.Correction>
0.0558

> <Gold.Rescore>
     Score         DG    S(hbond)    S(metal)    S(lipo)     H(rot)  DE(clash)    DE(int)     intcor
     17.64     -19.89       2.67        0.00      68.74       1.00       0.50       1.75       ----

> <Gold.Chemscore.Fitness>
17.6367

> <Gold.Chemscore.DG>
-19.8916

> <Gold.Chemscore.ZeroCoef>
-5.4800

> <Gold.Chemscore.Hbond>
2.6733

> <Gold.Chemscore.Metal>
0.0000

> <Gold.Chemscore.Lipo>
68.7413

> <Gold.Chemscore.Internal_Hbond>
0.0000

> <Gold.Chemscore.DEClash>
0.5038

> <Gold.Chemscore.DEInternal>
1.7511

> <Gold.Chemscore.Rot>
1.0000

> <Gold.Chemscore.Internal.Correction>
   9.000000E+99

> <Gold.Chemscore.Hbonds>
donor molecule, donor type, donor heavy atom, donor atom, acceptor molecule, acceptor atom, score
      L1  H     2    40       P1 10175  0.77
      L1  H    10    34       P1  8028  0.95
      L1  H    13    35       P1  8028  0.97

> <Gold.Chemscore.Hbond.Weighted>
-8.9288

> <Gold.Chemscore.Metal.Weighted>
-0.0000

> <Gold.Chemscore.Lipo.Weighted>
-8.0427

> <Gold.Chemscore.Internal_Hbond.Weighted>
0.0000

> <Gold.Chemscore.DEClash.Weighted>
0.5038

> <Gold.Chemscore.DEInternal.Weighted>
1.7511

> <Gold.Chemscore.Rot.Weighted>
2.5600

> <Gold.Chemscore.Internal.Correction.Weighted>
   9.000000E+99

> <Gold.Protein.RotatedTorsions>
[ 6907 6896 6895 6894 ] final -122.71 input  -60.11 | X-H torsion
[ 7974 7965 7964 7962 ] final   63.17 input  175.53 | X-H torsion
[ 8008 7997 7996 7995 ] final  172.11 input   59.86 | X-H torsion
[ 10167 10162 10161 10158 ] final -111.99 input  -65.29 | X-H torsion
[ 10718 10713 10712 10709 ] final -175.95 input   66.30 | X-H torsion
[ 10763 10752 10751 10750 ] final  -40.39 input  -60.55 | X-H torsion
[ 11005 11000 10999 10996 ] final   29.40 input  -57.11 | X-H torsion

> <Gold.Protein.ActiveResidues>
 VAL166  LYS551  ARG553  GLY616  TRP617  ASP618  TYR619  PRO620  LYS621  CYS622 
 ASP623  PHE694  ASN695  SER759  ASP760  ASP761  ALA762  ILE779  LEU786  VAL792 
 PHE793  MET794  SER795  GLU796  ALA797  LYS798  CYS799  TRP800  GLU811  SER814 

> <Gold.Protein.RotatedAtoms>
  150.8602  133.7655  159.2994 H   0  0  0  0  0  0  0  0  0  0  0  0  # atno 6907 bound_to 6896
  151.5300  135.1066  159.9910 H   0  0  0  0  0  0  0  0  0  0  0  0  # atno 6908 bound_to 6896
  152.4620  133.7799  159.6900 H   0  0  0  0  0  0  0  0  0  0  0  0  # atno 6909 bound_to 6896
  145.8649  139.3339  143.0797 H   0  0  0  0  0  0  0  0  0  0  0  0  # atno 7974 bound_to 7965
  156.1206  140.1494  156.9210 H   0  0  0  0  0  0  0  0  0  0  0  0  # atno 8008 bound_to 7997
  154.4833  140.0873  156.7470 H   0  0  0  0  0  0  0  0  0  0  0  0  # atno 8009 bound_to 7997
  155.4435  140.3432  155.4295 H   0  0  0  0  0  0  0  0  0  0  0  0  # atno 8010 bound_to 7997
  140.1276  143.4389  152.1649 H   0  0  0  0  0  0  0  0  0  0  0  0  # atno 10167 bound_to 10162
  156.8075  130.9574  151.3117 H   0  0  0  0  0  0  0  0  0  0  0  0  # atno 10718 bound_to 10713
  153.9452  135.6757  153.4744 H   0  0  0  0  0  0  0  0  0  0  0  0  # atno 10763 bound_to 10752
  153.0911  135.4874  154.8689 H   0  0  0  0  0  0  0  0  0  0  0  0  # atno 10764 bound_to 10752
  154.7355  135.3148  154.8777 H   0  0  0  0  0  0  0  0  0  0  0  0  # atno 10765 bound_to 10752
  140.3053  134.2710  155.7745 H   0  0  0  0  0  0  0  0  0  0  0  0  # atno 11005 bound_to 11000
  145.9205  140.9118  143.0407 LP  0  0  0  0  0  0  0  0  0  0  0  0  # atno 17320 bound_to 7965
  144.6726  140.1282  143.7445 LP  0  0  0  0  0  0  0  0  0  0  0  0  # atno 17321 bound_to 7965
  139.5536  144.7356  151.4360 LP  0  0  0  0  0  0  0  0  0  0  0  0  # atno 17342 bound_to 10162
  140.6836  143.8025  150.7155 LP  0  0  0  0  0  0  0  0  0  0  0  0  # atno 17343 bound_to 10162
  157.6522  130.8894  149.9657 LP  0  0  0  0  0  0  0  0  0  0  0  0  # atno 17370 bound_to 10713
  156.1064  130.3652  150.0126 LP  0  0  0  0  0  0  0  0  0  0  0  0  # atno 17371 bound_to 10713
  141.2119  133.7673  156.9827 LP  0  0  0  0  0  0  0  0  0  0  0  0  # atno 17394 bound_to 11000
  140.1073  134.9499  157.2012 LP  0  0  0  0  0  0  0  0  0  0  0  0  # atno 17395 bound_to 11000

$$$$
