AV-unprocessed.smi:828|AV-procd|sdf|3864|dock5
  -GOLD-   22720 1313D 1   1.00000     0.00000
 Structure written by MMmdl.
 34 35  0  0  0  0  0  0  0  0  3 V2000
  151.1995  140.7169  157.4122 C   0  0  0  0  0  0  0  0  0  0  0  0
  150.9774  139.3717  156.8107 C   0  0  0  0  0  0  0  0  0  0  0  0
  150.4706  138.3462  157.4996 N   0  0  0  0  0  0  0  0  0  0  0  0
  150.3563  137.2012  156.7247 N   0  0  0  0  0  0  0  0  0  0  0  0
  150.7661  137.3790  155.4608 C   0  0  0  0  0  0  0  0  0  0  0  0
  150.7373  136.3930  154.5490 N   0  5  0  0  0  0  0  0  0  0  0  0
  150.2191  135.1879  154.8749 C   0  0  0  0  0  0  0  0  0  0  0  0
  150.5489  134.4817  155.8301 O   0  0  0  0  0  0  0  0  0  0  0  0
  149.2628  134.7734  154.0340 N   0  0  0  0  0  0  0  0  0  0  0  0
  148.5516  133.5019  154.1127 C   0  0  0  0  0  0  0  0  0  0  0  0
  147.9024  133.1395  152.7601 C   0  0  2  0  0  0  0  0  0  0  0  0
  146.6052  133.8944  152.4721 C   0  0  0  0  0  0  0  0  0  0  0  0
  146.0214  133.1030  151.3103 C   0  0  0  0  0  0  0  0  0  0  0  0
  146.3763  131.6554  151.6590 C   0  0  0  0  0  0  0  0  0  0  0  0
  147.5887  131.6998  152.5168 N   0  3  2  0  0  0  0  0  0  0  0  0
  147.4589  130.8231  153.7073 C   0  0  0  0  0  0  0  0  0  0  0  0
  151.3575  139.0081  155.1358 S   0  0  0  0  0  0  0  0  0  0  0  0
  150.2743  141.2928  157.3866 H   0  0  0  0  0  0  0  0  0  0  0  0
  151.9648  141.2581  156.8558 H   0  0  0  0  0  0  0  0  0  0  0  0
  151.5253  140.6197  158.4483 H   0  0  0  0  0  0  0  0  0  0  0  0
  149.0177  135.3921  153.2749 H   0  0  0  0  0  0  0  0  0  0  0  0
  149.2075  132.6983  154.4511 H   0  0  0  0  0  0  0  0  0  0  0  0
  147.7764  133.6037  154.8731 H   0  0  0  0  0  0  0  0  0  0  0  0
  148.6070  133.4185  151.9743 H   0  0  0  0  0  0  0  0  0  0  0  0
  145.9366  133.8469  153.3331 H   0  0  0  0  0  0  0  0  0  0  0  0
  146.7714  134.9439  152.2272 H   0  0  0  0  0  0  0  0  0  0  0  0
  144.9495  133.2587  151.1858 H   0  0  0  0  0  0  0  0  0  0  0  0
  146.5137  133.3934  150.3809 H   0  0  0  0  0  0  0  0  0  0  0  0
  145.5413  131.2049  152.1988 H   0  0  0  0  0  0  0  0  0  0  0  0
  146.5514  131.0528  150.7673 H   0  0  0  0  0  0  0  0  0  0  0  0
  146.7035  131.2011  154.3975 H   0  0  0  0  0  0  0  0  0  0  0  0
  148.4015  130.7207  154.2423 H   0  0  0  0  0  0  0  0  0  0  0  0
  147.1624  129.8188  153.4021 H   0  0  0  0  0  0  0  0  0  0  0  0
  148.3576  131.3292  151.9768 H   0  0  0  0  0  0  0  0  0  0  0  0
  1  2  1  0  0  0  0
  1 18  1  0  0  0  0
  1 19  1  0  0  0  0
  1 20  1  0  0  0  0
  2 17  1  0  0  0  0
  2  3  2  0  0  0  0
  3  4  1  0  0  0  0
  4  5  2  0  0  0  0
  5  6  1  0  0  0  0
  5 17  1  0  0  0  0
  6  7  1  0  0  0  0
  7  8  2  0  0  0  0
  7  9  1  0  0  0  0
  9 10  1  0  0  0  0
  9 21  1  0  0  0  0
 10 11  1  0  0  0  0
 10 22  1  0  0  0  0
 10 23  1  0  0  0  0
 11 15  1  0  0  0  0
 11 12  1  0  0  0  0
 11 24  1  0  0  0  0
 12 13  1  0  0  0  0
 12 25  1  0  0  0  0
 12 26  1  0  0  0  0
 13 14  1  0  0  0  0
 13 27  1  0  0  0  0
 13 28  1  0  0  0  0
 14 15  1  0  0  0  0
 14 29  1  0  0  0  0
 14 30  1  0  0  0  0
 15 16  1  0  0  0  0
 15 34  1  0  0  0  0
 16 31  1  0  0  0  0
 16 32  1  0  0  0  0
 16 33  1  0  0  0  0
M  CHG  1   6  -1
M  CHG  1  15   1
M  END
> <s_m_source_file>
AV-unprocessed.smi

> <i_m_source_file_index>
828

> <i_lp_mmshare_version>
43012

> <i_f3d_flags>
0

> <s_epik_input>
W0NIM11jMW5uYyhzMSlbTkhdQyg9TylbTkhdW0NIMl1bQ0BASF0yW0NIMl1bQ0gyXVtDSDJdTjJbQ0gzXQ==

> <s_epik_cmdline>
J2VwaWtfcHl0aG9uJywgJy1waCcsICc3LjAnLCAnLXRuJywgJzgnLCAnLW1hJywgJzIwMCcsICctbWV0YWxfYmluZGluZycsICctaW1hZScsICc8aW5maWxlLm1hZT4nLCAnLW9tYWUnLCAnPG91dGZpbGUubWFlPic=

> <r_lp_tautomer_probability>
1

> <r_epik_Ionization_Penalty>
3.94379

> <r_epik_Ionization_Penalty_Charging>
3.83377

> <r_epik_Ionization_Penalty_Neutral>
0.110023

> <r_epik_State_Penalty>
3.83036

> <r_epik_Charging_Adjusted_Penalty>
7.66413

> <i_epik_Tot_Q>
0

> <i_epik_Tot_abs_Q>
2

> <r_epik_Metal_State_Penalty>
0.575095

> <b_epik_Metal_Only>
1

> <s_lp_Force_Field>
OPLS_2005

> <r_lp_Energy>
28.5427

> <b_lp_Chiralities_Consistent>
1

> <s_lp_Variant>
AV-unprocessed.smi:828-7

> <Gold.Version>
5.8.1

> <Gold.Id.Protein>
6NUR|6NUR_protein|mol2

> <Gold.PLP.Fitness>
34.8445

> <Gold.PLP.PLP>
-24.4786

> <Gold.PLP.part.hbond>
-3.0000

> <Gold.PLP.part.metal>
0.0000

> <Gold.PLP.part.buried>
-2.8474

> <Gold.PLP.part.nonpolar>
-19.0662

> <Gold.PLP.part.repulsive>
0.2493

> <Gold.PLP.ligand.clash>
0.0000

> <Gold.PLP.ligand.torsion>
0.8230

> <Gold.PLP.Chemscore.Hbond>
4.0000

> <Gold.PLP.Chemscore.CHOScore>
0.0000

> <Gold.PLP.Chemscore.Metal>
0.0000

> <Gold.Chemscore.Hbonds>
donor molecule, donor type, donor heavy atom, donor atom, acceptor molecule, acceptor atom, score
      L1  H     9    21       P1  7948  1.00
      L1  H    15    34       P1 10747  0.94
      P1  H 10752 10763       L1     6  0.39

> <Gold.PLP.Chemscore.Internal.Correction>
0.0120

> <Gold.Rescore>
     Score         DG    S(hbond)    S(metal)    S(lipo)     H(rot)  DE(clash)    DE(int)     intcor
     13.61     -14.83       2.18        0.00      46.42       1.31       0.05       1.17       ----

> <Gold.Chemscore.Fitness>
13.6127

> <Gold.Chemscore.DG>
-14.8275

> <Gold.Chemscore.ZeroCoef>
-5.4800

> <Gold.Chemscore.Hbond>
2.1805

> <Gold.Chemscore.Metal>
0.0000

> <Gold.Chemscore.Lipo>
46.4189

> <Gold.Chemscore.Internal_Hbond>
0.0000

> <Gold.Chemscore.DEClash>
0.0456

> <Gold.Chemscore.DEInternal>
1.1692

> <Gold.Chemscore.Rot>
1.3149

> <Gold.Chemscore.Internal.Correction>
   9.000000E+99

> <Gold.Chemscore.Hbonds>
donor molecule, donor type, donor heavy atom, donor atom, acceptor molecule, acceptor atom, score
      L1  H     9    21       P1  7948  0.49
      L1  H    15    34       P1 10747  0.91
      P1  H 10752 10763       L1     6  0.01

> <Gold.Chemscore.Hbond.Weighted>
-7.2827

> <Gold.Chemscore.Metal.Weighted>
-0.0000

> <Gold.Chemscore.Lipo.Weighted>
-5.4310

> <Gold.Chemscore.Internal_Hbond.Weighted>
0.0000

> <Gold.Chemscore.DEClash.Weighted>
0.0456

> <Gold.Chemscore.DEInternal.Weighted>
1.1692

> <Gold.Chemscore.Rot.Weighted>
3.3662

> <Gold.Chemscore.Internal.Correction.Weighted>
   9.000000E+99

> <Gold.Protein.RotatedTorsions>
[ 6907 6896 6895 6894 ] final -129.65 input  -60.11 | X-H torsion
[ 7974 7965 7964 7962 ] final  150.28 input  175.53 | X-H torsion
[ 8008 7997 7996 7995 ] final -130.15 input   59.86 | X-H torsion
[ 10167 10162 10161 10158 ] final   -7.37 input  -65.29 | X-H torsion
[ 10718 10713 10712 10709 ] final  -13.66 input   66.30 | X-H torsion
[ 10763 10752 10751 10750 ] final   53.34 input  -60.55 | X-H torsion
[ 11005 11000 10999 10996 ] final   82.02 input  -57.11 | X-H torsion

> <Gold.Protein.ActiveResidues>
 VAL166  LYS551  ARG553  GLY616  TRP617  ASP618  TYR619  PRO620  LYS621  CYS622 
 ASP623  PHE694  ASN695  SER759  ASP760  ASP761  ALA762  ILE779  LEU786  VAL792 
 PHE793  MET794  SER795  GLU796  ALA797  LYS798  CYS799  TRP800  GLU811  SER814 

> <Gold.Protein.RotatedAtoms>
  150.9310  133.6767  159.2810 H   0  0  0  0  0  0  0  0  0  0  0  0  # atno 6907 bound_to 6896
  151.4189  135.0994  159.9617 H   0  0  0  0  0  0  0  0  0  0  0  0  # atno 6908 bound_to 6896
  152.5026  133.8766  159.7380 H   0  0  0  0  0  0  0  0  0  0  0  0  # atno 6909 bound_to 6896
  144.8376  139.6388  143.6031 H   0  0  0  0  0  0  0  0  0  0  0  0  # atno 7974 bound_to 7965
  155.2910  140.0448  157.3023 H   0  0  0  0  0  0  0  0  0  0  0  0  # atno 8008 bound_to 7997
  154.5541  140.2326  155.8405 H   0  0  0  0  0  0  0  0  0  0  0  0  # atno 8009 bound_to 7997
  156.1992  140.3030  155.9499 H   0  0  0  0  0  0  0  0  0  0  0  0  # atno 8010 bound_to 7997
  140.7026  143.6089  150.8724 H   0  0  0  0  0  0  0  0  0  0  0  0  # atno 10167 bound_to 10162
  156.6271  130.4891  149.6143 H   0  0  0  0  0  0  0  0  0  0  0  0  # atno 10718 bound_to 10713
  152.9794  135.5782  154.4725 H   0  0  0  0  0  0  0  0  0  0  0  0  # atno 10763 bound_to 10752
  154.4286  135.2773  155.1930 H   0  0  0  0  0  0  0  0  0  0  0  0  # atno 10764 bound_to 10752
  154.3648  135.6181  153.5763 H   0  0  0  0  0  0  0  0  0  0  0  0  # atno 10765 bound_to 10752
  139.9078  134.8041  156.2119 H   0  0  0  0  0  0  0  0  0  0  0  0  # atno 11005 bound_to 11000
  146.2672  139.6549  142.9321 LP  0  0  0  0  0  0  0  0  0  0  0  0  # atno 17320 bound_to 7965
  145.4763  141.0437  143.2671 LP  0  0  0  0  0  0  0  0  0  0  0  0  # atno 17321 bound_to 7965
  139.9812  143.5949  152.2942 LP  0  0  0  0  0  0  0  0  0  0  0  0  # atno 17342 bound_to 10162
  139.6571  144.7662  151.2035 LP  0  0  0  0  0  0  0  0  0  0  0  0  # atno 17343 bound_to 10162
  156.2265  130.6768  151.1421 LP  0  0  0  0  0  0  0  0  0  0  0  0  # atno 17370 bound_to 10713
  157.7211  131.0681  150.6131 LP  0  0  0  0  0  0  0  0  0  0  0  0  # atno 17371 bound_to 10713
  141.0460  133.6913  156.1683 LP  0  0  0  0  0  0  0  0  0  0  0  0  # atno 17394 bound_to 11000
  140.6884  134.4693  157.5589 LP  0  0  0  0  0  0  0  0  0  0  0  0  # atno 17395 bound_to 11000

$$$$
