AV-unprocessed.smi:2083|AV-procd|sdf|8499|dock7
  -GOLD-   2272011213D 1   1.00000     0.00000
 Structure written by MMmdl.
 44 45  0  0  0  0  0  0  0  0  3 V2000
  149.4585  133.6684  153.7919 C   0  0  0  0  0  0  0  0  0  0  0  0
  149.6016  134.4429  155.0572 C   0  0  0  0  0  0  0  0  0  0  0  0
  150.3167  134.2276  156.2012 C   0  0  0  0  0  0  0  0  0  0  0  0
  149.9908  135.3543  157.0046 C   0  0  0  0  0  0  0  0  0  0  0  0
  150.4589  135.6077  158.2364 N   0  5  0  0  0  0  0  0  0  0  0  0
  150.2645  136.8205  158.8018 C   0  0  0  0  0  0  0  0  0  0  0  0
  149.7529  137.0428  159.9018 O   0  0  0  0  0  0  0  0  0  0  0  0
  150.6964  137.8414  158.0478 N   0  0  0  0  0  0  0  0  0  0  0  0
  150.6345  139.2541  158.4105 C   0  0  0  0  0  0  0  0  0  0  0  0
  151.3547  140.1731  157.3838 C   0  0  1  0  0  0  0  0  0  0  0  0
  150.3762  140.5915  156.2630 C   0  0  0  0  0  0  0  0  0  0  0  0
  151.9903  141.3920  157.9848 N   0  3  1  0  0  0  0  0  0  0  0  0
  151.1469  142.6228  158.0122 C   0  0  0  0  0  0  0  0  0  0  0  0
  151.9334  143.8382  158.5313 C   0  0  0  0  0  0  0  0  0  0  0  0
  152.5335  143.5667  159.9134 C   0  0  0  0  0  0  0  0  0  0  0  0
  153.3933  142.2955  159.8677 C   0  0  1  0  0  0  0  0  0  0  0  0
  154.0008  141.9812  161.2422 C   0  0  0  0  0  0  0  0  0  0  0  0
  152.5585  141.1143  159.3360 C   0  0  0  0  0  0  0  0  0  0  0  0
  149.1654  136.1884  156.3949 N   0  0  0  0  0  0  0  0  0  0  0  0
  148.9065  135.6084  155.1474 O   0  0  0  0  0  0  0  0  0  0  0  0
  150.3915  133.6760  153.2288 H   0  0  0  0  0  0  0  0  0  0  0  0
  148.6778  134.0903  153.1584 H   0  0  0  0  0  0  0  0  0  0  0  0
  149.1975  132.6313  154.0026 H   0  0  0  0  0  0  0  0  0  0  0  0
  150.9655  133.3956  156.4295 H   0  0  0  0  0  0  0  0  0  0  0  0
  151.1030  137.6148  157.1518 H   0  0  0  0  0  0  0  0  0  0  0  0
  149.5826  139.5301  158.4906 H   0  0  0  0  0  0  0  0  0  0  0  0
  151.0639  139.3523  159.4084 H   0  0  0  0  0  0  0  0  0  0  0  0
  152.1539  139.5816  156.9342 H   0  0  0  0  0  0  0  0  0  0  0  0
  149.9523  139.7260  155.7533 H   0  0  0  0  0  0  0  0  0  0  0  0
  150.8532  141.1916  155.4903 H   0  0  0  0  0  0  0  0  0  0  0  0
  149.5468  141.1740  156.6652 H   0  0  0  0  0  0  0  0  0  0  0  0
  150.8007  142.8792  157.0119 H   0  0  0  0  0  0  0  0  0  0  0  0
  150.2643  142.4492  158.6301 H   0  0  0  0  0  0  0  0  0  0  0  0
  152.7306  144.0846  157.8286 H   0  0  0  0  0  0  0  0  0  0  0  0
  151.2815  144.7112  158.5753 H   0  0  0  0  0  0  0  0  0  0  0  0
  153.1320  144.4206  160.2329 H   0  0  0  0  0  0  0  0  0  0  0  0
  151.7332  143.4522  160.6463 H   0  0  0  0  0  0  0  0  0  0  0  0
  154.2191  142.4664  159.1754 H   0  0  0  0  0  0  0  0  0  0  0  0
  153.2255  141.7951  161.9861 H   0  0  0  0  0  0  0  0  0  0  0  0
  154.6126  142.8099  161.5999 H   0  0  0  0  0  0  0  0  0  0  0  0
  154.6383  141.0979  161.1979 H   0  0  0  0  0  0  0  0  0  0  0  0
  151.7449  140.8904  160.0284 H   0  0  0  0  0  0  0  0  0  0  0  0
  153.1912  140.2288  159.3100 H   0  0  0  0  0  0  0  0  0  0  0  0
  152.7689  141.6167  157.3822 H   0  0  0  0  0  0  0  0  0  0  0  0
  1  2  1  0  0  0  0
  1 21  1  0  0  0  0
  1 22  1  0  0  0  0
  1 23  1  0  0  0  0
  2 20  1  0  0  0  0
  2  3  2  0  0  0  0
  3  4  1  0  0  0  0
  3 24  1  0  0  0  0
  4  5  1  0  0  0  0
  4 19  2  0  0  0  0
  5  6  1  0  0  0  0
  6  7  2  0  0  0  0
  6  8  1  0  0  0  0
  8  9  1  0  0  0  0
  8 25  1  0  0  0  0
  9 10  1  0  0  0  0
  9 26  1  0  0  0  0
  9 27  1  0  0  0  0
 10 11  1  0  0  0  0
 10 12  1  0  0  0  0
 10 28  1  0  0  0  0
 11 29  1  0  0  0  0
 11 30  1  0  0  0  0
 11 31  1  0  0  0  0
 12 18  1  0  0  0  0
 12 13  1  0  0  0  0
 12 44  1  0  0  0  0
 13 14  1  0  0  0  0
 13 32  1  0  0  0  0
 13 33  1  0  0  0  0
 14 15  1  0  0  0  0
 14 34  1  0  0  0  0
 14 35  1  0  0  0  0
 15 16  1  0  0  0  0
 15 36  1  0  0  0  0
 15 37  1  0  0  0  0
 16 17  1  0  0  0  0
 16 18  1  0  0  0  0
 16 38  1  0  0  0  0
 17 39  1  0  0  0  0
 17 40  1  0  0  0  0
 17 41  1  0  0  0  0
 18 42  1  0  0  0  0
 18 43  1  0  0  0  0
 19 20  1  0  0  0  0
M  CHG  1   5  -1
M  CHG  1  12   1
M  END
> <s_m_source_file>
AV-unprocessed.smi

> <i_m_source_file_index>
2083

> <i_lp_mmshare_version>
43012

> <i_f3d_flags>
0

> <s_epik_input>
W0NIM11jMVtjSF1jKG5vMSlbTkhdQyg9TylbTkhdW0NIMl1bQ0BIXShbQ0gzXSlOMltDSDJdW0NIMl1bQ0gyXVtDQEBIXShbQ0gzXSlbQ0gyXTI=

> <s_epik_cmdline>
J2VwaWtfcHl0aG9uJywgJy1waCcsICc3LjAnLCAnLXRuJywgJzgnLCAnLW1hJywgJzIwMCcsICctbWV0YWxfYmluZGluZycsICctaW1hZScsICc8aW5maWxlLm1hZT4nLCAnLW9tYWUnLCAnPG91dGZpbGUubWFlPic=

> <r_epik_Ionization_Penalty>
6.22434

> <r_epik_Ionization_Penalty_Charging>
6.22425

> <r_epik_Ionization_Penalty_Neutral>
9.62407e-05

> <r_epik_State_Penalty>
6.22423

> <r_epik_Charging_Adjusted_Penalty>
12.4485

> <i_epik_Tot_Q>
0

> <i_epik_Tot_abs_Q>
2

> <r_epik_Metal_State_Penalty>
2.16764

> <b_epik_Metal_Only>
1

> <s_lp_Force_Field>
OPLS_2005

> <r_lp_Energy>
9.18004

> <b_lp_Chiralities_Consistent>
1

> <s_lp_Variant>
AV-unprocessed.smi:2083-10

> <Gold.Version>
5.8.1

> <Gold.Id.Protein>
6NUR|6NUR_protein|mol2

> <Gold.PLP.Fitness>
41.1888

> <Gold.PLP.PLP>
-37.6241

> <Gold.PLP.part.hbond>
-2.7176

> <Gold.PLP.part.metal>
0.0000

> <Gold.PLP.part.buried>
-4.8229

> <Gold.PLP.part.nonpolar>
-30.9215

> <Gold.PLP.part.repulsive>
0.3287

> <Gold.PLP.ligand.clash>
0.0000

> <Gold.PLP.ligand.torsion>
1.5224

> <Gold.PLP.Chemscore.Hbond>
2.1729

> <Gold.PLP.Chemscore.CHOScore>
0.0000

> <Gold.PLP.Chemscore.Metal>
0.0000

> <Gold.Chemscore.Hbonds>
donor molecule, donor type, donor heavy atom, donor atom, acceptor molecule, acceptor atom, score
      P1  H  6896  6908       L1     5  1.34
      P1  H  6931  6943       L1     7  0.02

> <Gold.PLP.Chemscore.Internal.Correction>
0.0907

> <Gold.Rescore>
     Score         DG    S(hbond)    S(metal)    S(lipo)     H(rot)  DE(clash)    DE(int)     intcor
     13.92     -16.37       1.25        0.00      90.67       1.52       0.04       2.42       ----

> <Gold.Chemscore.Fitness>
13.9171

> <Gold.Chemscore.DG>
-16.3738

> <Gold.Chemscore.ZeroCoef>
-5.4800

> <Gold.Chemscore.Hbond>
1.2497

> <Gold.Chemscore.Metal>
0.0000

> <Gold.Chemscore.Lipo>
90.6714

> <Gold.Chemscore.Internal_Hbond>
0.0000

> <Gold.Chemscore.DEClash>
0.0376

> <Gold.Chemscore.DEInternal>
2.4191

> <Gold.Chemscore.Rot>
1.5190

> <Gold.Chemscore.Internal.Correction>
   9.000000E+99

> <Gold.Chemscore.Hbonds>
donor molecule, donor type, donor heavy atom, donor atom, acceptor molecule, acceptor atom, score
      P1  H  6896  6908       L1     5  0.34
      P1  H  6931  6943       L1     7  0.03

> <Gold.Chemscore.Hbond.Weighted>
-4.1739

> <Gold.Chemscore.Metal.Weighted>
-0.0000

> <Gold.Chemscore.Lipo.Weighted>
-10.6086

> <Gold.Chemscore.Internal_Hbond.Weighted>
0.0000

> <Gold.Chemscore.DEClash.Weighted>
0.0376

> <Gold.Chemscore.DEInternal.Weighted>
2.4191

> <Gold.Chemscore.Rot.Weighted>
3.8886

> <Gold.Chemscore.Internal.Correction.Weighted>
   9.000000E+99

> <Gold.Protein.RotatedTorsions>
[ 6907 6896 6895 6894 ] final  168.12 input  -60.11 | X-H torsion
[ 7974 7965 7964 7962 ] final  -31.59 input  175.53 | X-H torsion
[ 8008 7997 7996 7995 ] final  135.98 input   59.86 | X-H torsion
[ 10167 10162 10161 10158 ] final   64.96 input  -65.29 | X-H torsion
[ 10718 10713 10712 10709 ] final -111.06 input   66.30 | X-H torsion
[ 10763 10752 10751 10750 ] final  166.01 input  -60.55 | X-H torsion
[ 11005 11000 10999 10996 ] final -133.21 input  -57.11 | X-H torsion

> <Gold.Protein.ActiveResidues>
 VAL166  LYS551  ARG553  GLY616  TRP617  ASP618  TYR619  PRO620  LYS621  CYS622 
 ASP623  PHE694  ASN695  SER759  ASP760  ASP761  ALA762  ILE779  LEU786  VAL792 
 PHE793  MET794  SER795  GLU796  ALA797  LYS798  CYS799  TRP800  GLU811  SER814 

> <Gold.Protein.RotatedAtoms>
  151.8527  133.3443  159.3678 H   0  0  0  0  0  0  0  0  0  0  0  0  # atno 6907 bound_to 6896
  150.7202  134.5283  159.5697 H   0  0  0  0  0  0  0  0  0  0  0  0  # atno 6908 bound_to 6896
  152.2780  134.7860  160.0453 H   0  0  0  0  0  0  0  0  0  0  0  0  # atno 6909 bound_to 6896
  146.1055  140.5687  142.8801 H   0  0  0  0  0  0  0  0  0  0  0  0  # atno 7974 bound_to 7965
  156.3004  140.2457  156.3671 H   0  0  0  0  0  0  0  0  0  0  0  0  # atno 8008 bound_to 7997
  154.8823  140.0412  157.1809 H   0  0  0  0  0  0  0  0  0  0  0  0  # atno 8009 bound_to 7997
  154.8683  140.2931  155.5501 H   0  0  0  0  0  0  0  0  0  0  0  0  # atno 8010 bound_to 7997
  140.1165  144.4771  150.6946 H   0  0  0  0  0  0  0  0  0  0  0  0  # atno 10167 bound_to 10162
  156.0626  130.5848  150.8322 H   0  0  0  0  0  0  0  0  0  0  0  0  # atno 10718 bound_to 10713
  154.3326  135.2754  155.2464 H   0  0  0  0  0  0  0  0  0  0  0  0  # atno 10763 bound_to 10752
  154.4769  135.5868  153.6365 H   0  0  0  0  0  0  0  0  0  0  0  0  # atno 10764 bound_to 10752
  152.9865  135.6102  154.3520 H   0  0  0  0  0  0  0  0  0  0  0  0  # atno 10765 bound_to 10752
  140.9101  134.1579  157.4396 H   0  0  0  0  0  0  0  0  0  0  0  0  # atno 11005 bound_to 11000
  144.7468  140.5087  143.6830 LP  0  0  0  0  0  0  0  0  0  0  0  0  # atno 17320 bound_to 7965
  145.5769  139.1486  143.3257 LP  0  0  0  0  0  0  0  0  0  0  0  0  # atno 17321 bound_to 7965
  140.6896  143.2369  151.5166 LP  0  0  0  0  0  0  0  0  0  0  0  0  # atno 17342 bound_to 10162
  139.5591  144.2200  152.1662 LP  0  0  0  0  0  0  0  0  0  0  0  0  # atno 17343 bound_to 10162
  157.5645  131.0946  150.9510 LP  0  0  0  0  0  0  0  0  0  0  0  0  # atno 17370 bound_to 10713
  156.9740  130.5502  149.5292 LP  0  0  0  0  0  0  0  0  0  0  0  0  # atno 17371 bound_to 10713
  139.8756  134.9932  156.5634 LP  0  0  0  0  0  0  0  0  0  0  0  0  # atno 17394 bound_to 11000
  140.8121  133.8421  155.8819 LP  0  0  0  0  0  0  0  0  0  0  0  0  # atno 17395 bound_to 11000

$$$$
