AV-unprocessed.smi:1645|AV-procd|sdf|6623|dock1
  -GOLD-   22720 7323D 1   1.00000     0.00000
 Structure written by MMmdl.
 55 58  0  0  0  0  0  0  0  0  4 V2000
  146.7955  139.9887  153.3229 O   0  0  0  0  0  0  0  0  0  0  0  0
  147.5437  139.1680  152.7796 C   0  0  0  0  0  0  0  0  0  0  0  0
  148.8132  139.0252  153.1998 N   0  0  0  0  0  0  0  0  0  0  0  0
  149.5168  139.7729  154.1811 C   0  0  0  0  0  0  0  0  0  0  0  0
  150.5946  139.2579  154.9402 C   0  0  0  0  0  0  0  0  0  0  0  0
  151.2111  140.0704  155.9134 C   0  0  0  0  0  0  0  0  0  0  0  0
  150.7453  141.3915  156.1333 C   0  0  0  0  0  0  0  0  0  0  0  0
  151.2957  142.2725  157.0923 N   0  0  0  0  0  0  0  0  0  0  0  0
  151.3076  141.7976  158.4799 C   0  0  0  0  0  0  0  0  0  0  0  0
  152.2833  142.6120  159.3466 C   0  0  0  0  0  0  0  0  0  0  0  0
  152.0011  144.1164  159.2340 C   0  0  0  0  0  0  0  0  0  0  0  0
  152.0432  144.5440  157.7610 C   0  0  0  0  0  0  0  0  0  0  0  0
  151.0713  143.7081  156.9107 C   0  0  0  0  0  0  0  0  0  0  0  0
  149.6994  141.8286  155.3899 N   0  3  0  0  0  0  0  0  0  0  0  0
  149.0791  141.0843  154.4493 C   0  0  0  0  0  0  0  0  0  0  0  0
  147.2413  138.3182  151.7615 N   0  5  0  0  0  0  0  0  0  0  0  0
  145.8988  137.8104  151.4701 C   0  0  1  0  0  0  0  0  0  0  0  0
  145.9044  136.8053  150.3015 C   0  0  0  0  0  0  0  0  0  0  0  0
  144.8451  135.7459  150.6617 C   0  0  0  0  0  0  0  0  0  0  0  0
  144.3128  136.1498  151.9775 N   0  3  1  0  0  0  0  0  0  0  0  0
  143.7876  135.0792  152.8533 C   0  0  0  0  0  0  0  0  0  0  0  0
  143.1790  135.7120  154.1211 C   0  0  0  0  0  0  0  0  0  0  0  0
  144.1744  136.6563  154.8270 C   0  0  0  0  0  0  0  0  0  0  0  0
  144.7510  137.6956  153.8448 C   0  0  0  0  0  0  0  0  0  0  0  0
  145.3528  136.9645  152.6267 C   0  0  2  0  0  0  0  0  0  0  0  0
  149.3212  138.2550  152.7903 H   0  0  0  0  0  0  0  0  0  0  0  0
  150.9506  138.2482  154.8035 H   0  0  0  0  0  0  0  0  0  0  0  0
  152.0377  139.6577  156.4712 H   0  0  0  0  0  0  0  0  0  0  0  0
  150.2974  141.8784  158.8829 H   0  0  0  0  0  0  0  0  0  0  0  0
  151.5872  140.7464  158.5443 H   0  0  0  0  0  0  0  0  0  0  0  0
  152.2104  142.2944  160.3872 H   0  0  0  0  0  0  0  0  0  0  0  0
  153.3081  142.4085  159.0327 H   0  0  0  0  0  0  0  0  0  0  0  0
  151.0220  144.3432  159.6577 H   0  0  0  0  0  0  0  0  0  0  0  0
  152.7325  144.6816  159.8126 H   0  0  0  0  0  0  0  0  0  0  0  0
  151.8002  145.6030  157.6714 H   0  0  0  0  0  0  0  0  0  0  0  0
  153.0575  144.4254  157.3770 H   0  0  0  0  0  0  0  0  0  0  0  0
  151.2104  143.9840  155.8650 H   0  0  0  0  0  0  0  0  0  0  0  0
  150.0403  143.9442  157.1774 H   0  0  0  0  0  0  0  0  0  0  0  0
  148.2562  141.5627  153.9381 H   0  0  0  0  0  0  0  0  0  0  0  0
  145.1828  138.6049  151.2521 H   0  0  0  0  0  0  0  0  0  0  0  0
  145.6838  137.2983  149.3542 H   0  0  0  0  0  0  0  0  0  0  0  0
  146.8765  136.3202  150.1971 H   0  0  0  0  0  0  0  0  0  0  0  0
  144.0408  135.6966  149.9267 H   0  0  0  0  0  0  0  0  0  0  0  0
  145.3065  134.7584  150.7230 H   0  0  0  0  0  0  0  0  0  0  0  0
  143.0302  134.5060  152.3177 H   0  0  0  0  0  0  0  0  0  0  0  0
  144.5903  134.3888  153.1170 H   0  0  0  0  0  0  0  0  0  0  0  0
  142.2847  136.2740  153.8483 H   0  0  0  0  0  0  0  0  0  0  0  0
  142.8526  134.9310  154.8085 H   0  0  0  0  0  0  0  0  0  0  0  0
  143.6873  137.1595  155.6626 H   0  0  0  0  0  0  0  0  0  0  0  0
  144.9895  136.0699  155.2526 H   0  0  0  0  0  0  0  0  0  0  0  0
  143.9591  138.3815  153.5376 H   0  0  0  0  0  0  0  0  0  0  0  0
  145.5088  138.2968  154.3504 H   0  0  0  0  0  0  0  0  0  0  0  0
  146.1408  136.2904  152.9723 H   0  0  0  0  0  0  0  0  0  0  0  0
  143.5494  136.7828  151.7864 H   0  0  0  0  0  0  0  0  0  0  0  0
  149.3561  142.7750  155.5527 H   0  0  0  0  0  0  0  0  0  0  0  0
  1  2  2  0  0  0  0
  2  3  1  0  0  0  0
  2 16  1  0  0  0  0
  3  4  1  0  0  0  0
  3 26  1  0  0  0  0
  4 15  1  0  0  0  0
  4  5  2  0  0  0  0
  5  6  1  0  0  0  0
  5 27  1  0  0  0  0
  6  7  2  0  0  0  0
  6 28  1  0  0  0  0
  7  8  1  0  0  0  0
  7 14  1  0  0  0  0
  8 13  1  0  0  0  0
  8  9  1  0  0  0  0
  9 10  1  0  0  0  0
  9 29  1  0  0  0  0
  9 30  1  0  0  0  0
 10 11  1  0  0  0  0
 10 31  1  0  0  0  0
 10 32  1  0  0  0  0
 11 12  1  0  0  0  0
 11 33  1  0  0  0  0
 11 34  1  0  0  0  0
 12 13  1  0  0  0  0
 12 35  1  0  0  0  0
 12 36  1  0  0  0  0
 13 37  1  0  0  0  0
 13 38  1  0  0  0  0
 14 15  2  0  0  0  0
 14 55  1  0  0  0  0
 15 39  1  0  0  0  0
 16 17  1  0  0  0  0
 17 25  1  0  0  0  0
 17 18  1  0  0  0  0
 17 40  1  0  0  0  0
 18 19  1  0  0  0  0
 18 41  1  0  0  0  0
 18 42  1  0  0  0  0
 19 20  1  0  0  0  0
 19 43  1  0  0  0  0
 19 44  1  0  0  0  0
 20 25  1  0  0  0  0
 20 21  1  0  0  0  0
 20 54  1  0  0  0  0
 21 22  1  0  0  0  0
 21 45  1  0  0  0  0
 21 46  1  0  0  0  0
 22 23  1  0  0  0  0
 22 47  1  0  0  0  0
 22 48  1  0  0  0  0
 23 24  1  0  0  0  0
 23 49  1  0  0  0  0
 23 50  1  0  0  0  0
 24 25  1  0  0  0  0
 24 51  1  0  0  0  0
 24 52  1  0  0  0  0
 25 53  1  0  0  0  0
M  CHG  1  14   1
M  CHG  1  16  -1
M  CHG  1  20   1
M  END
> <s_m_source_file>
AV-unprocessed.smi

> <i_m_source_file_index>
1645

> <i_lp_mmshare_version>
43012

> <i_f3d_flags>
0

> <s_epik_input>
W0NIMl0xW0NIMl1bQ0gyXVtDSDJdW0NASF0oTjEyKVtDQEBIXShbQ0gyXVtDSDJdMilbTkhdQyg9TylbTkhdYzNbY0hdW2NIXWMobltjSF0zKU40W0NIMl1bQ0gyXVtDSDJdW0NIMl1bQ0gyXTQ=

> <s_epik_cmdline>
J2VwaWtfcHl0aG9uJywgJy1waCcsICc3LjAnLCAnLXRuJywgJzgnLCAnLW1hJywgJzIwMCcsICctbWV0YWxfYmluZGluZycsICctaW1hZScsICc8aW5maWxlLm1hZT4nLCAnLW9tYWUnLCAnPG91dGZpbGUubWFlPic=

> <r_lp_tautomer_probability>
0.999994

> <r_epik_Ionization_Penalty>
8.55589

> <r_epik_Ionization_Penalty_Charging>
8.55589

> <r_epik_Ionization_Penalty_Neutral>
3.8092e-06

> <r_epik_State_Penalty>
8.15703

> <r_epik_Charging_Adjusted_Penalty>
16.7129

> <i_epik_Tot_Q>
1

> <i_epik_Tot_abs_Q>
3

> <r_epik_Metal_State_Penalty>
4.13781

> <b_epik_Metal_Only>
1

> <s_lp_Force_Field>
OPLS_2005

> <r_lp_Energy>
51.9528

> <b_lp_Chiralities_Consistent>
1

> <s_lp_Variant>
AV-unprocessed.smi:1645-24

> <Gold.Version>
5.8.1

> <Gold.Id.Protein>
6NUR|6NUR_protein|mol2

> <Gold.PLP.Fitness>
49.1132

> <Gold.PLP.PLP>
-41.2768

> <Gold.PLP.part.hbond>
-3.1920

> <Gold.PLP.part.metal>
0.0000

> <Gold.PLP.part.buried>
5.6983

> <Gold.PLP.part.nonpolar>
-48.5869

> <Gold.PLP.part.repulsive>
4.6777

> <Gold.PLP.ligand.clash>
0.0000

> <Gold.PLP.ligand.torsion>
0.9417

> <Gold.PLP.Chemscore.Hbond>
3.1201

> <Gold.PLP.Chemscore.CHOScore>
0.0000

> <Gold.PLP.Chemscore.Metal>
0.0000

> <Gold.Chemscore.Hbonds>
donor molecule, donor type, donor heavy atom, donor atom, acceptor molecule, acceptor atom, score
      L1  H     3    26       P1  7948  0.45
      L1  H    14    55       P1  8028  2.00
      P1  H  7954  7966       L1    16  0.73

> <Gold.PLP.Chemscore.Internal.Correction>
0.3597

> <Gold.Rescore>
     Score         DG    S(hbond)    S(metal)    S(lipo)     H(rot)  DE(clash)    DE(int)     intcor
     15.47     -21.47       1.45        0.00     117.04       1.00       3.43       2.57       ----

> <Gold.Chemscore.Fitness>
15.4667

> <Gold.Chemscore.DG>
-21.4687

> <Gold.Chemscore.ZeroCoef>
-5.4800

> <Gold.Chemscore.Hbond>
1.4535

> <Gold.Chemscore.Metal>
0.0000

> <Gold.Chemscore.Lipo>
117.0431

> <Gold.Chemscore.Internal_Hbond>
0.0000

> <Gold.Chemscore.DEClash>
3.4298

> <Gold.Chemscore.DEInternal>
2.5722

> <Gold.Chemscore.Rot>
1.0000

> <Gold.Chemscore.Internal.Correction>
   9.000000E+99

> <Gold.Chemscore.Hbonds>
donor molecule, donor type, donor heavy atom, donor atom, acceptor molecule, acceptor atom, score
      L1  H     3    26       P1  7948  0.42
      L1  H    14    55       P1  8028  0.96
      P1  H  7954  7966       L1    16  0.16

> <Gold.Chemscore.Hbond.Weighted>
-4.8547

> <Gold.Chemscore.Metal.Weighted>
-0.0000

> <Gold.Chemscore.Lipo.Weighted>
-13.6940

> <Gold.Chemscore.Internal_Hbond.Weighted>
0.0000

> <Gold.Chemscore.DEClash.Weighted>
3.4298

> <Gold.Chemscore.DEInternal.Weighted>
2.5722

> <Gold.Chemscore.Rot.Weighted>
2.5600

> <Gold.Chemscore.Internal.Correction.Weighted>
   9.000000E+99

> <Gold.Protein.RotatedTorsions>
[ 6907 6896 6895 6894 ] final  145.99 input  -60.11 | X-H torsion
[ 7974 7965 7964 7962 ] final  -52.81 input  175.53 | X-H torsion
[ 8008 7997 7996 7995 ] final -165.05 input   59.86 | X-H torsion
[ 10167 10162 10161 10158 ] final  105.14 input  -65.29 | X-H torsion
[ 10718 10713 10712 10709 ] final  124.70 input   66.30 | X-H torsion
[ 10763 10752 10751 10750 ] final  -21.32 input  -60.55 | X-H torsion
[ 11005 11000 10999 10996 ] final -144.62 input  -57.11 | X-H torsion

> <Gold.Protein.ActiveResidues>
 VAL166  LYS551  ARG553  GLY616  TRP617  ASP618  TYR619  PRO620  LYS621  CYS622 
 ASP623  PHE694  ASN695  SER759  ASP760  ASP761  ALA762  ILE779  LEU786  VAL792 
 PHE793  MET794  SER795  GLU796  ALA797  LYS798  CYS799  TRP800  GLU811  SER814 

> <Gold.Protein.RotatedAtoms>
  152.1737  133.4660  159.4921 H   0  0  0  0  0  0  0  0  0  0  0  0  # atno 6907 bound_to 6896
  150.6923  134.1921  159.4298 H   0  0  0  0  0  0  0  0  0  0  0  0  # atno 6908 bound_to 6896
  151.9829  135.0019  160.0609 H   0  0  0  0  0  0  0  0  0  0  0  0  # atno 6909 bound_to 6896
  145.9039  140.7972  142.9729 H   0  0  0  0  0  0  0  0  0  0  0  0  # atno 7974 bound_to 7965
  155.8443  140.0953  157.1715 H   0  0  0  0  0  0  0  0  0  0  0  0  # atno 8008 bound_to 7997
  154.3983  140.1395  156.3828 H   0  0  0  0  0  0  0  0  0  0  0  0  # atno 8009 bound_to 7997
  155.8031  140.3452  155.5416 H   0  0  0  0  0  0  0  0  0  0  0  0  # atno 8010 bound_to 7997
  139.7118  144.7076  151.1015 H   0  0  0  0  0  0  0  0  0  0  0  0  # atno 10167 bound_to 10162
  157.5564  131.1092  150.8615 H   0  0  0  0  0  0  0  0  0  0  0  0  # atno 10718 bound_to 10713
  153.6343  135.6987  153.5264 H   0  0  0  0  0  0  0  0  0  0  0  0  # atno 10763 bound_to 10752
  153.2834  135.4179  155.1099 H   0  0  0  0  0  0  0  0  0  0  0  0  # atno 10764 bound_to 10752
  154.8515  135.3607  154.5886 H   0  0  0  0  0  0  0  0  0  0  0  0  # atno 10765 bound_to 10752
  140.8006  134.2862  157.4980 H   0  0  0  0  0  0  0  0  0  0  0  0  # atno 11005 bound_to 11000
  144.6738  140.1719  143.7413 LP  0  0  0  0  0  0  0  0  0  0  0  0  # atno 17320 bound_to 7965
  145.8757  139.2295  143.1635 LP  0  0  0  0  0  0  0  0  0  0  0  0  # atno 17321 bound_to 7965
  140.7735  143.5283  150.9453 LP  0  0  0  0  0  0  0  0  0  0  0  0  # atno 17342 bound_to 10162
  139.8968  143.6885  152.3137 LP  0  0  0  0  0  0  0  0  0  0  0  0  # atno 17343 bound_to 10162
  156.9125  130.5286  149.5280 LP  0  0  0  0  0  0  0  0  0  0  0  0  # atno 17370 bound_to 10713
  156.0622  130.5672  150.9216 LP  0  0  0  0  0  0  0  0  0  0  0  0  # atno 17371 bound_to 10713
  139.8722  134.9427  156.3832 LP  0  0  0  0  0  0  0  0  0  0  0  0  # atno 17394 bound_to 11000
  140.9299  133.7587  156.0011 LP  0  0  0  0  0  0  0  0  0  0  0  0  # atno 17395 bound_to 11000

$$$$
