AV-unprocessed.smi:287|AV-procd|sdf|2206|dock5
  -GOLD-   2262022 33D 1   1.00000     0.00000
 Structure written by MMmdl.
 55 58  0  0  0  0  0  0  0  0  1 V2000
  151.9117  145.2331  160.0425 C   0  0  0  0  0  0  0  0  0  0  0  0
  152.0775  143.8101  159.6324 C   0  0  0  0  0  0  0  0  0  0  0  0
  151.4375  143.0046  158.7362 C   0  0  0  0  0  0  0  0  0  0  0  0
  152.0653  141.7244  158.7894 C   0  0  0  0  0  0  0  0  0  0  0  0
  151.6845  140.5104  157.9524 C   0  0  2  0  0  0  0  0  0  0  0  0
  151.2486  139.3563  158.8708 C   0  0  0  0  0  0  0  0  0  0  0  0
  152.7672  139.9982  157.1999 O   0  0  0  0  0  0  0  0  0  0  0  0
  150.5678  140.8287  156.9323 C   0  0  0  0  0  0  0  0  0  0  0  0
  150.2846  139.7132  156.0350 N   0  0  0  0  0  0  0  0  0  0  0  0
  149.2266  139.7659  155.1993 C   0  0  0  0  0  0  0  0  0  0  0  0
  148.8897  140.9206  154.5680 N   0  0  0  0  0  0  0  0  0  0  0  0
  147.8382  140.9467  153.7440 C   0  0  0  0  0  0  0  0  0  0  0  0
  147.0088  139.9531  153.4186 N   0  0  0  0  0  0  0  0  0  0  0  0
  147.3429  138.7896  154.0488 C   0  0  0  0  0  0  0  0  0  0  0  0
  148.4306  138.6183  154.9503 C   0  0  0  0  0  0  0  0  0  0  0  0
  148.4672  137.3062  155.4021 N   0  0  0  0  0  0  0  0  0  0  0  0
  147.4576  136.7380  154.8001 C   0  0  0  0  0  0  0  0  0  0  0  0
  146.7250  137.5561  153.9684 N   0  0  0  0  0  0  0  0  0  0  0  0
  145.5223  137.1741  153.1577 C   0  0  2  0  0  0  0  0  0  0  0  0
  145.2816  135.8034  153.2928 O   0  0  0  0  0  0  0  0  0  0  0  0
  145.3471  135.1534  152.0230 C   0  0  1  0  0  0  0  0  0  0  0  0
  144.3750  133.9637  151.9958 C   0  0  0  0  0  0  0  0  0  0  0  0
  144.7580  133.0013  152.9546 O   0  0  0  0  0  0  0  0  0  0  0  0
  144.9710  136.2727  151.0506 C   0  0  2  0  0  0  0  0  0  0  0  0
  145.3640  136.0161  149.7159 O   0  0  0  0  0  0  0  0  0  0  0  0
  145.6766  137.4778  151.6552 C   0  0  2  0  0  0  0  0  0  0  0  0
  147.0274  137.5881  151.2313 O   0  0  0  0  0  0  0  0  0  0  0  0
  153.0502  141.8561  159.7393 C   0  0  0  0  0  0  0  0  0  0  0  0
  154.0774  140.9321  160.3065 C   0  0  0  0  0  0  0  0  0  0  0  0
  153.0651  143.1178  160.2530 O   0  0  0  0  0  0  0  0  0  0  0  0
  144.6968  137.7205  153.6157 H   0  0  0  0  0  0  0  0  0  0  0  0
  146.3704  134.8296  151.8251 H   0  0  0  0  0  0  0  0  0  0  0  0
  143.8922  136.4345  151.0788 H   0  0  0  0  0  0  0  0  0  0  0  0
  145.1646  138.4104  151.4157 H   0  0  0  0  0  0  0  0  0  0  0  0
  151.1454  145.7241  159.4426 H   0  0  0  0  0  0  0  0  0  0  0  0
  152.8440  145.7833  159.9152 H   0  0  0  0  0  0  0  0  0  0  0  0
  151.6169  145.3015  161.0897 H   0  0  0  0  0  0  0  0  0  0  0  0
  150.6124  143.3013  158.1057 H   0  0  0  0  0  0  0  0  0  0  0  0
  150.3832  139.6348  159.4731 H   0  0  0  0  0  0  0  0  0  0  0  0
  152.0475  139.0722  159.5572 H   0  0  0  0  0  0  0  0  0  0  0  0
  150.9744  138.4700  158.2973 H   0  0  0  0  0  0  0  0  0  0  0  0
  152.4345  139.3470  156.6016 H   0  0  0  0  0  0  0  0  0  0  0  0
  149.6576  141.1536  157.4389 H   0  0  0  0  0  0  0  0  0  0  0  0
  150.8926  141.6633  156.3092 H   0  0  0  0  0  0  0  0  0  0  0  0
  150.9504  138.9535  156.0477 H   0  0  0  0  0  0  0  0  0  0  0  0
  147.6316  141.8988  153.2782 H   0  0  0  0  0  0  0  0  0  0  0  0
  147.2160  135.6956  154.9494 H   0  0  0  0  0  0  0  0  0  0  0  0
  143.3476  134.2855  152.1691 H   0  0  0  0  0  0  0  0  0  0  0  0
  144.4022  133.4792  151.0194 H   0  0  0  0  0  0  0  0  0  0  0  0
  143.9794  132.5812  153.2870 H   0  0  0  0  0  0  0  0  0  0  0  0
  145.1082  136.7566  149.1861 H   0  0  0  0  0  0  0  0  0  0  0  0
  147.5633  137.0538  151.7976 H   0  0  0  0  0  0  0  0  0  0  0  0
  153.6066  140.0493  160.7387 H   0  0  0  0  0  0  0  0  0  0  0  0
  154.6577  141.4196  161.0900 H   0  0  0  0  0  0  0  0  0  0  0  0
  154.7703  140.6033  159.5320 H   0  0  0  0  0  0  0  0  0  0  0  0
  1  2  1  0  0  0  0
  1 35  1  0  0  0  0
  1 36  1  0  0  0  0
  1 37  1  0  0  0  0
  2 30  1  0  0  0  0
  2  3  2  0  0  0  0
  3  4  1  0  0  0  0
  3 38  1  0  0  0  0
  4  5  1  0  0  0  0
  4 28  2  0  0  0  0
  5  6  1  0  0  0  0
  5  7  1  0  0  0  0
  5  8  1  0  0  0  0
  6 39  1  0  0  0  0
  6 40  1  0  0  0  0
  6 41  1  0  0  0  0
  7 42  1  0  0  0  0
  8  9  1  0  0  0  0
  8 43  1  0  0  0  0
  8 44  1  0  0  0  0
  9 10  1  0  0  0  0
  9 45  1  0  0  0  0
 10 15  1  0  0  0  0
 10 11  2  0  0  0  0
 11 12  1  0  0  0  0
 12 13  2  0  0  0  0
 12 46  1  0  0  0  0
 13 14  1  0  0  0  0
 14 18  1  0  0  0  0
 14 15  2  0  0  0  0
 15 16  1  0  0  0  0
 16 17  2  0  0  0  0
 17 18  1  0  0  0  0
 17 47  1  0  0  0  0
 18 19  1  0  0  0  0
 19 31  1  0  0  0  0
 19 26  1  0  0  0  0
 19 20  1  0  0  0  0
 20 21  1  0  0  0  0
 21 32  1  0  0  0  0
 21 22  1  0  0  0  0
 21 24  1  0  0  0  0
 22 23  1  0  0  0  0
 22 48  1  0  0  0  0
 22 49  1  0  0  0  0
 23 50  1  0  0  0  0
 24 33  1  0  0  0  0
 24 25  1  0  0  0  0
 24 26  1  0  0  0  0
 25 51  1  0  0  0  0
 26 34  1  0  0  0  0
 26 27  1  0  0  0  0
 27 52  1  0  0  0  0
 28 29  1  0  0  0  0
 28 30  1  0  0  0  0
 29 53  1  0  0  0  0
 29 54  1  0  0  0  0
 29 55  1  0  0  0  0
M  END
> <s_m_source_file>
AV-unprocessed.smi

> <i_m_source_file_index>
287

> <i_lp_mmshare_version>
43012

> <i_f3d_flags>
0

> <s_epik_input>
W0NIM11jMVtjSF1jKGMobzEpW0NIM10pW0NAQF0oW0NIM10pKFtPSF0pW0NIMl1bTkhdYyhuW2NIXW4yKWMoYzIzKW5bY0hdbjNbQ0BASF00T1tDQEhdKFtDSDJdW09IXSlbQ0BASF0oW09IXSlbQ0BIXTRbT0hd

> <s_epik_cmdline>
J2VwaWtfcHl0aG9uJywgJy1waCcsICc3LjAnLCAnLXRuJywgJzgnLCAnLW1hJywgJzIwMCcsICctbWV0YWxfYmluZGluZycsICctaW1hZScsICc8aW5maWxlLm1hZT4nLCAnLW9tYWUnLCAnPG91dGZpbGUubWFlPic=

> <r_lp_tautomer_probability>
1

> <r_epik_Ionization_Penalty>
0.000992612

> <r_epik_Ionization_Penalty_Charging>
0

> <r_epik_Ionization_Penalty_Neutral>
0.000992612

> <r_epik_State_Penalty>
-0

> <r_epik_Charging_Adjusted_Penalty>
0

> <i_epik_Tot_Q>
0

> <i_epik_Tot_abs_Q>
0

> <r_epik_Metal_State_Penalty>
-0

> <b_epik_Metal_Only>
0

> <s_epik_Chemistry_Notes>
This compound contains an acetal/aminal-like group ( X-CH(R)-Y where X, Y are N, S, or O) that may be acid/base labile, releasing an aldehyde.

> <s_lp_Force_Field>
OPLS_2005

> <r_lp_Energy>
49.5285

> <b_lp_Chiralities_Consistent>
1

> <s_lp_Variant>
AV-unprocessed.smi:287-30

> <Gold.Version>
5.8.1

> <Gold.Id.Protein>
6NUR|6NUR_protein|mol2

> <Gold.PLP.Fitness>
54.3741

> <Gold.PLP.PLP>
-43.0387

> <Gold.PLP.part.hbond>
-5.7175

> <Gold.PLP.part.metal>
0.0000

> <Gold.PLP.part.buried>
-2.5265

> <Gold.PLP.part.nonpolar>
-36.6683

> <Gold.PLP.part.repulsive>
0.5168

> <Gold.PLP.ligand.clash>
0.0000

> <Gold.PLP.ligand.torsion>
0.4338

> <Gold.PLP.Chemscore.Hbond>
4.0357

> <Gold.PLP.Chemscore.CHOScore>
0.0000

> <Gold.PLP.Chemscore.Metal>
0.0000

> <Gold.Chemscore.Hbonds>
donor molecule, donor type, donor heavy atom, donor atom, acceptor molecule, acceptor atom, score
      L1  H    23    50       P1 10957  0.73
      L1  H    25    51       P1 10171  0.25
      L1  H    27    52       P1  7948  0.82
      P1  H  7954  7966       L1    27  1.00
      P1  H  7997  8010       L1     7  0.85

> <Gold.PLP.Chemscore.Internal.Correction>
0.0961

> <Gold.Rescore>
     Score         DG    S(hbond)    S(metal)    S(lipo)     H(rot)  DE(clash)    DE(int)     intcor
      9.63     -12.74       2.60        0.00     103.20       5.27       2.53       0.58       ----

> <Gold.Chemscore.Fitness>
9.6269

> <Gold.Chemscore.DG>
-12.7391

> <Gold.Chemscore.ZeroCoef>
-5.4800

> <Gold.Chemscore.Hbond>
2.5954

> <Gold.Chemscore.Metal>
0.0000

> <Gold.Chemscore.Lipo>
103.2007

> <Gold.Chemscore.Internal_Hbond>
0.0000

> <Gold.Chemscore.DEClash>
2.5272

> <Gold.Chemscore.DEInternal>
0.5850

> <Gold.Chemscore.Rot>
5.2672

> <Gold.Chemscore.Internal.Correction>
   9.000000E+99

> <Gold.Chemscore.Hbonds>
donor molecule, donor type, donor heavy atom, donor atom, acceptor molecule, acceptor atom, score
      L1  H    23    50       P1 10957  0.18
      L1  H    25    51       P1 10171  0.26
      L1  H    27    52       P1  7948  0.80
      P1  H  7954  7966       L1    27  0.26
      P1  H  7997  8010       L1     7  0.14

> <Gold.Chemscore.Hbond.Weighted>
-8.6685

> <Gold.Chemscore.Metal.Weighted>
-0.0000

> <Gold.Chemscore.Lipo.Weighted>
-12.0745

> <Gold.Chemscore.Internal_Hbond.Weighted>
0.0000

> <Gold.Chemscore.DEClash.Weighted>
2.5272

> <Gold.Chemscore.DEInternal.Weighted>
0.5850

> <Gold.Chemscore.Rot.Weighted>
13.4839

> <Gold.Chemscore.Internal.Correction.Weighted>
   9.000000E+99

> <Gold.Protein.RotatedTorsions>
[ 6907 6896 6895 6894 ] final -138.62 input  -60.11 | X-H torsion
[ 7974 7965 7964 7962 ] final   -1.69 input  175.53 | X-H torsion
[ 8008 7997 7996 7995 ] final   66.35 input   59.86 | X-H torsion
[ 10167 10162 10161 10158 ] final  -93.74 input  -65.29 | X-H torsion
[ 10718 10713 10712 10709 ] final  135.10 input   66.30 | X-H torsion
[ 10763 10752 10751 10750 ] final  -89.77 input  -60.55 | X-H torsion
[ 11005 11000 10999 10996 ] final   24.74 input  -57.11 | X-H torsion

> <Gold.Protein.ActiveResidues>
 VAL166  LYS551  ARG553  GLY616  TRP617  ASP618  TYR619  PRO620  LYS621  CYS622 
 ASP623  PHE694  ASN695  SER759  ASP760  ASP761  ALA762  ILE779  LEU786  VAL792 
 PHE793  MET794  SER795  GLU796  ALA797  LYS798  CYS799  TRP800  GLU811  SER814 

> <Gold.Protein.RotatedAtoms>
  151.0374  133.5736  159.2654 H   0  0  0  0  0  0  0  0  0  0  0  0  # atno 6907 bound_to 6896
  151.2796  135.0709  159.9174 H   0  0  0  0  0  0  0  0  0  0  0  0  # atno 6908 bound_to 6896
  152.5357  134.0090  159.7984 H   0  0  0  0  0  0  0  0  0  0  0  0  # atno 6909 bound_to 6896
  146.2414  140.1458  142.8334 H   0  0  0  0  0  0  0  0  0  0  0  0  # atno 7974 bound_to 7965
  155.6760  140.3497  155.4837 H   0  0  0  0  0  0  0  0  0  0  0  0  # atno 8008 bound_to 7997
  155.9647  140.1144  157.0887 H   0  0  0  0  0  0  0  0  0  0  0  0  # atno 8009 bound_to 7997
  154.4151  140.1168  156.5213 H   0  0  0  0  0  0  0  0  0  0  0  0  # atno 8010 bound_to 7997
  140.3216  143.3046  152.0040 H   0  0  0  0  0  0  0  0  0  0  0  0  # atno 10167 bound_to 10162
  157.4605  131.1073  150.9925 H   0  0  0  0  0  0  0  0  0  0  0  0  # atno 10718 bound_to 10713
  154.6587  135.5329  153.7991 H   0  0  0  0  0  0  0  0  0  0  0  0  # atno 10763 bound_to 10752
  153.0429  135.6500  154.0905 H   0  0  0  0  0  0  0  0  0  0  0  0  # atno 10764 bound_to 10752
  154.0816  135.2946  155.3269 H   0  0  0  0  0  0  0  0  0  0  0  0  # atno 10765 bound_to 10752
  140.3554  134.2183  155.7676 H   0  0  0  0  0  0  0  0  0  0  0  0  # atno 11005 bound_to 11000
  145.0209  140.8793  143.5167 LP  0  0  0  0  0  0  0  0  0  0  0  0  # atno 17320 bound_to 7965
  145.1506  139.2517  143.5443 LP  0  0  0  0  0  0  0  0  0  0  0  0  # atno 17321 bound_to 7965
  139.4873  144.6306  151.7077 LP  0  0  0  0  0  0  0  0  0  0  0  0  # atno 17342 bound_to 10162
  140.5478  144.0474  150.6114 LP  0  0  0  0  0  0  0  0  0  0  0  0  # atno 17343 bound_to 10162
  157.0724  130.5869  149.5405 LP  0  0  0  0  0  0  0  0  0  0  0  0  # atno 17370 bound_to 10713
  156.0026  130.5108  150.7719 LP  0  0  0  0  0  0  0  0  0  0  0  0  # atno 17371 bound_to 10713
  141.2000  133.7998  157.0510 LP  0  0  0  0  0  0  0  0  0  0  0  0  # atno 17394 bound_to 11000
  140.0669  134.9724  157.1402 LP  0  0  0  0  0  0  0  0  0  0  0  0  # atno 17395 bound_to 11000

$$$$
