AV-unprocessed.smi:1821|AV-procd|sdf|7389|dock3
  -GOLD-   22720 9 53D 1   1.00000     0.00000
 Structure written by MMmdl.
 36 38  0  0  0  0  0  0  0  0  2 V2000
  151.5439  137.7773  154.6715 C   0  0  0  0  0  0  0  0  0  0  0  0
  150.4600  138.7809  154.4644 C   0  0  0  0  0  0  0  0  0  0  0  0
  149.3347  138.6049  153.7159 N   0  3  0  0  0  0  0  0  0  0  0  0
  148.5544  139.7613  153.7575 C   0  0  0  0  0  0  0  0  0  0  0  0
  147.3336  140.0582  153.1593 C   0  0  0  0  0  0  0  0  0  0  0  0
  146.8057  141.3432  153.4022 C   0  0  0  0  0  0  0  0  0  0  0  0
  147.4867  142.2758  154.2113 C   0  0  0  0  0  0  0  0  0  0  0  0
  148.7230  141.9628  154.8139 C   0  0  0  0  0  0  0  0  0  0  0  0
  149.2376  140.6892  154.5705 C   0  0  0  0  0  0  0  0  0  0  0  0
  150.4064  140.0394  154.9858 N   0  0  0  0  0  0  0  0  0  0  0  0
  151.3573  140.7383  155.8646 C   0  0  0  0  0  0  0  0  0  0  0  0
  150.6852  141.3674  157.1023 C   0  0  1  0  0  0  0  0  0  0  0  0
  149.6458  140.5341  157.5795 O   0  0  0  0  0  0  0  0  0  0  0  0
  151.7111  141.6945  158.1816 C   0  0  0  0  0  0  0  0  0  0  0  0
  152.2392  140.6751  159.0096 C   0  0  0  0  0  0  0  0  0  0  0  0
  151.8419  139.3886  158.8576 F   0  0  0  0  0  0  0  0  0  0  0  0
  153.1921  140.9861  159.9991 C   0  0  0  0  0  0  0  0  0  0  0  0
  153.6285  142.3131  160.1687 C   0  0  0  0  0  0  0  0  0  0  0  0
  153.1148  143.3305  159.3435 C   0  0  0  0  0  0  0  0  0  0  0  0
  152.1623  143.0244  158.3520 C   0  0  0  0  0  0  0  0  0  0  0  0
  151.6887  144.0189  157.5629 F   0  0  0  0  0  0  0  0  0  0  0  0
  151.3144  136.8502  154.1456 H   0  0  0  0  0  0  0  0  0  0  0  0
  151.6533  137.5553  155.7333 H   0  0  0  0  0  0  0  0  0  0  0  0
  152.4918  138.1638  154.2966 H   0  0  0  0  0  0  0  0  0  0  0  0
  146.8111  139.3461  152.5376 H   0  0  0  0  0  0  0  0  0  0  0  0
  145.8607  141.6199  152.9576 H   0  0  0  0  0  0  0  0  0  0  0  0
  147.0534  143.2522  154.3722 H   0  0  0  0  0  0  0  0  0  0  0  0
  149.2385  142.6878  155.4266 H   0  0  0  0  0  0  0  0  0  0  0  0
  152.1548  140.0515  156.1477 H   0  0  0  0  0  0  0  0  0  0  0  0
  151.8317  141.5183  155.2683 H   0  0  0  0  0  0  0  0  0  0  0  0
  150.1977  142.2915  156.7918 H   0  0  0  0  0  0  0  0  0  0  0  0
  149.8825  139.6345  157.4119 H   0  0  0  0  0  0  0  0  0  0  0  0
  153.5909  140.2035  160.6276 H   0  0  0  0  0  0  0  0  0  0  0  0
  154.3592  142.5500  160.9280 H   0  0  0  0  0  0  0  0  0  0  0  0
  153.4532  144.3486  159.4692 H   0  0  0  0  0  0  0  0  0  0  0  0
  149.1178  137.7539  153.2132 H   0  0  0  0  0  0  0  0  0  0  0  0
  1  2  1  0  0  0  0
  1 22  1  0  0  0  0
  1 23  1  0  0  0  0
  1 24  1  0  0  0  0
  2 10  1  0  0  0  0
  2  3  2  0  0  0  0
  3  4  1  0  0  0  0
  3 36  1  0  0  0  0
  4  9  2  0  0  0  0
  4  5  1  0  0  0  0
  5  6  2  0  0  0  0
  5 25  1  0  0  0  0
  6  7  1  0  0  0  0
  6 26  1  0  0  0  0
  7  8  2  0  0  0  0
  7 27  1  0  0  0  0
  8  9  1  0  0  0  0
  8 28  1  0  0  0  0
  9 10  1  0  0  0  0
 10 11  1  0  0  0  0
 11 12  1  0  0  0  0
 11 29  1  0  0  0  0
 11 30  1  0  0  0  0
 12 13  1  0  0  0  0
 12 14  1  0  0  0  0
 12 31  1  0  0  0  0
 13 32  1  0  0  0  0
 14 20  1  0  0  0  0
 14 15  2  0  0  0  0
 15 16  1  0  0  0  0
 15 17  1  0  0  0  0
 17 18  2  0  0  0  0
 17 33  1  0  0  0  0
 18 19  1  0  0  0  0
 18 34  1  0  0  0  0
 19 20  2  0  0  0  0
 19 35  1  0  0  0  0
 20 21  1  0  0  0  0
M  CHG  1   3   1
M  END
> <s_m_source_file>
AV-unprocessed.smi

> <i_m_source_file_index>
1821

> <i_lp_mmshare_version>
43012

> <i_f3d_flags>
0

> <s_epik_input>
W2NIXTFbY0hdW2NIXVtjSF1jKGMxMiluKGMobjIpW0NIM10pW0NIMl1bQ0BIXShbT0hdKWMzYyhGKVtjSF1bY0hdW2NIXWMzRg==

> <s_epik_cmdline>
J2VwaWtfcHl0aG9uJywgJy1waCcsICc3LjAnLCAnLXRuJywgJzgnLCAnLW1hJywgJzIwMCcsICctbWV0YWxfYmluZGluZycsICctaW1hZScsICc8aW5maWxlLm1hZT4nLCAnLW9tYWUnLCAnPG91dGZpbGUubWFlPic=

> <r_epik_Ionization_Penalty>
0.963869

> <r_epik_Ionization_Penalty_Charging>
0.963868

> <r_epik_Ionization_Penalty_Neutral>
1.34362e-06

> <r_epik_State_Penalty>
1.00924

> <r_epik_Charging_Adjusted_Penalty>
1.9731

> <i_epik_Tot_Q>
1

> <i_epik_Tot_abs_Q>
1

> <r_epik_Metal_State_Penalty>
4.98304

> <b_epik_Metal_Only>
0

> <s_lp_Force_Field>
OPLS_2005

> <r_lp_Energy>
15.8655

> <b_lp_Chiralities_Consistent>
1

> <s_lp_Variant>
AV-unprocessed.smi:1821-4

> <Gold.Version>
5.8.1

> <Gold.Id.Protein>
6NUR|6NUR_protein|mol2

> <Gold.PLP.Fitness>
54.7629

> <Gold.PLP.PLP>
-50.1115

> <Gold.PLP.part.hbond>
-2.0000

> <Gold.PLP.part.metal>
0.0000

> <Gold.PLP.part.buried>
1.8635

> <Gold.PLP.part.nonpolar>
-49.9088

> <Gold.PLP.part.repulsive>
0.0618

> <Gold.PLP.ligand.clash>
0.0000

> <Gold.PLP.ligand.torsion>
0.6904

> <Gold.PLP.Chemscore.Hbond>
2.0000

> <Gold.PLP.Chemscore.CHOScore>
0.0000

> <Gold.PLP.Chemscore.Metal>
0.0000

> <Gold.Chemscore.Hbonds>
donor molecule, donor type, donor heavy atom, donor atom, acceptor molecule, acceptor atom, score
      L1  H     3    36       P1  7948  2.00

> <Gold.PLP.Chemscore.Internal.Correction>
0.0321

> <Gold.Rescore>
     Score         DG    S(hbond)    S(metal)    S(lipo)     H(rot)  DE(clash)    DE(int)     intcor
     15.72     -18.58       0.94        0.00     127.42       1.94       1.04       1.81       ----

> <Gold.Chemscore.Fitness>
15.7221

> <Gold.Chemscore.DG>
-18.5764

> <Gold.Chemscore.ZeroCoef>
-5.4800

> <Gold.Chemscore.Hbond>
0.9427

> <Gold.Chemscore.Metal>
0.0000

> <Gold.Chemscore.Lipo>
127.4168

> <Gold.Chemscore.Internal_Hbond>
0.0000

> <Gold.Chemscore.DEClash>
1.0419

> <Gold.Chemscore.DEInternal>
1.8124

> <Gold.Chemscore.Rot>
1.9375

> <Gold.Chemscore.Internal.Correction>
   9.000000E+99

> <Gold.Chemscore.Hbonds>
donor molecule, donor type, donor heavy atom, donor atom, acceptor molecule, acceptor atom, score
      L1  H     3    36       P1  7948  0.94

> <Gold.Chemscore.Hbond.Weighted>
-3.1485

> <Gold.Chemscore.Metal.Weighted>
-0.0000

> <Gold.Chemscore.Lipo.Weighted>
-14.9078

> <Gold.Chemscore.Internal_Hbond.Weighted>
0.0000

> <Gold.Chemscore.DEClash.Weighted>
1.0419

> <Gold.Chemscore.DEInternal.Weighted>
1.8124

> <Gold.Chemscore.Rot.Weighted>
4.9599

> <Gold.Chemscore.Internal.Correction.Weighted>
   9.000000E+99

> <Gold.Protein.RotatedTorsions>
[ 6907 6896 6895 6894 ] final -139.77 input  -60.11 | X-H torsion
[ 7974 7965 7964 7962 ] final  153.33 input  175.53 | X-H torsion
[ 8008 7997 7996 7995 ] final  -68.15 input   59.86 | X-H torsion
[ 10167 10162 10161 10158 ] final -179.21 input  -65.29 | X-H torsion
[ 10718 10713 10712 10709 ] final  -25.90 input   66.30 | X-H torsion
[ 10763 10752 10751 10750 ] final    1.86 input  -60.55 | X-H torsion
[ 11005 11000 10999 10996 ] final  -85.05 input  -57.11 | X-H torsion

> <Gold.Protein.ActiveResidues>
 VAL166  LYS551  ARG553  GLY616  TRP617  ASP618  TYR619  PRO620  LYS621  CYS622 
 ASP623  PHE694  ASN695  SER759  ASP760  ASP761  ALA762  ILE779  LEU786  VAL792 
 PHE793  MET794  SER795  GLU796  ALA797  LYS798  CYS799  TRP800  GLU811  SER814 

> <Gold.Protein.RotatedAtoms>
  151.0521  133.5615  159.2641 H   0  0  0  0  0  0  0  0  0  0  0  0  # atno 6907 bound_to 6896
  151.2623  135.0657  159.9112 H   0  0  0  0  0  0  0  0  0  0  0  0  # atno 6908 bound_to 6896
  152.5383  134.0264  159.8059 H   0  0  0  0  0  0  0  0  0  0  0  0  # atno 6909 bound_to 6896
  144.8162  139.6786  143.6120 H   0  0  0  0  0  0  0  0  0  0  0  0  # atno 7974 bound_to 7965
  154.4848  140.0878  156.7461 H   0  0  0  0  0  0  0  0  0  0  0  0  # atno 8008 bound_to 7997
  155.4378  140.3452  155.4268 H   0  0  0  0  0  0  0  0  0  0  0  0  # atno 8009 bound_to 7997
  156.1245  140.1483  156.9144 H   0  0  0  0  0  0  0  0  0  0  0  0  # atno 8010 bound_to 7997
  139.5396  144.2399  152.0868 H   0  0  0  0  0  0  0  0  0  0  0  0  # atno 10167 bound_to 10162
  156.4583  130.4498  149.6945 H   0  0  0  0  0  0  0  0  0  0  0  0  # atno 10718 bound_to 10713
  153.3027  135.6957  153.7188 H   0  0  0  0  0  0  0  0  0  0  0  0  # atno 10763 bound_to 10752
  153.6096  135.3447  155.2975 H   0  0  0  0  0  0  0  0  0  0  0  0  # atno 10764 bound_to 10752
  154.8555  135.4360  154.2143 H   0  0  0  0  0  0  0  0  0  0  0  0  # atno 10765 bound_to 10752
  141.1645  133.7378  156.8958 H   0  0  0  0  0  0  0  0  0  0  0  0  # atno 11005 bound_to 11000
  146.2465  139.6109  142.9456 LP  0  0  0  0  0  0  0  0  0  0  0  0  # atno 17320 bound_to 7965
  145.5209  141.0432  143.2436 LP  0  0  0  0  0  0  0  0  0  0  0  0  # atno 17321 bound_to 7965
  140.1875  144.4784  150.6496 LP  0  0  0  0  0  0  0  0  0  0  0  0  # atno 17342 bound_to 10162
  140.6620  143.2255  151.5832 LP  0  0  0  0  0  0  0  0  0  0  0  0  # atno 17343 bound_to 10162
  156.3743  130.7546  151.2533 LP  0  0  0  0  0  0  0  0  0  0  0  0  # atno 17370 bound_to 10713
  157.7499  131.0314  150.4180 LP  0  0  0  0  0  0  0  0  0  0  0  0  # atno 17371 bound_to 10713
  140.1617  134.9161  157.2723 LP  0  0  0  0  0  0  0  0  0  0  0  0  # atno 17394 bound_to 11000
  140.2604  134.3578  155.7409 LP  0  0  0  0  0  0  0  0  0  0  0  0  # atno 17395 bound_to 11000

$$$$
