AV-unprocessed.smi:1937|AV-procd|sdf|7833|dock1
  -GOLD-   22720 9583D 1   1.00000     0.00000
 Structure written by MMmdl.
 40 41  0  0  0  0  0  0  0  0  1 V2000
  147.2069  132.9383  154.3533 O   0  0  0  0  0  0  0  0  0  0  0  0
  147.6952  133.8703  153.7148 C   0  0  0  0  0  0  0  0  0  0  0  0
  148.7695  134.5605  154.1225 N   0  0  0  0  0  0  0  0  0  0  0  0
  149.4907  134.3238  155.3669 C   0  0  0  0  0  0  0  0  0  0  0  0
  150.6851  135.2847  155.5180 C   0  0  0  0  0  0  0  0  0  0  0  0
  150.2841  136.6742  155.2647 N   0  0  0  0  0  0  0  0  0  0  0  0
  148.9730  137.0829  155.7962 C   0  0  0  0  0  0  0  0  0  0  0  0
  149.0608  138.0786  156.9766 C   0  0  0  0  0  0  0  0  0  0  0  0
  150.2818  139.0192  156.9887 C   0  0  0  0  0  0  0  0  0  0  0  0
  150.5115  139.8069  155.6820 C   0  0  0  0  0  0  0  0  0  0  0  0
  150.6012  138.9746  154.3807 C   0  0  0  0  0  0  0  0  0  0  0  0
  151.0859  137.5297  154.5835 C   0  0  0  0  0  0  0  0  0  0  0  0
  152.1811  137.2026  154.1256 O   0  0  0  0  0  0  0  0  0  0  0  0
  147.2487  134.3234  152.5306 N   0  0  0  0  0  0  0  0  0  0  0  0
  146.1318  133.8802  151.7713 C   0  0  0  0  0  0  0  0  0  0  0  0
  145.6557  132.5466  151.7495 C   0  0  0  0  0  0  0  0  0  0  0  0
  144.5270  132.2407  150.9646 C   0  0  0  0  0  0  0  0  0  0  0  0
  143.9116  133.2780  150.2375 C   0  0  0  0  0  0  0  0  0  0  0  0
  144.3456  134.5556  150.2600 N   0  0  0  0  0  0  0  0  0  0  0  0
  145.4282  134.8413  151.0144 C   0  0  0  0  0  0  0  0  0  0  0  0
  149.1102  135.3066  153.5337 H   0  0  0  0  0  0  0  0  0  0  0  0
  148.8118  134.4205  156.2161 H   0  0  0  0  0  0  0  0  0  0  0  0
  149.8349  133.2893  155.3638 H   0  0  0  0  0  0  0  0  0  0  0  0
  151.1110  135.1946  156.5189 H   0  0  0  0  0  0  0  0  0  0  0  0
  151.4891  134.9898  154.8433 H   0  0  0  0  0  0  0  0  0  0  0  0
  148.3819  137.5182  154.9903 H   0  0  0  0  0  0  0  0  0  0  0  0
  148.3871  136.2207  156.1155 H   0  0  0  0  0  0  0  0  0  0  0  0
  148.1442  138.6685  157.0077 H   0  0  0  0  0  0  0  0  0  0  0  0
  149.0741  137.5103  157.9073 H   0  0  0  0  0  0  0  0  0  0  0  0
  150.1708  139.7269  157.8109 H   0  0  0  0  0  0  0  0  0  0  0  0
  151.1778  138.4455  157.2306 H   0  0  0  0  0  0  0  0  0  0  0  0
  149.7147  140.5426  155.5676 H   0  0  0  0  0  0  0  0  0  0  0  0
  151.4290  140.3862  155.7910 H   0  0  0  0  0  0  0  0  0  0  0  0
  149.6334  138.9557  153.8800 H   0  0  0  0  0  0  0  0  0  0  0  0
  151.2666  139.4795  153.6791 H   0  0  0  0  0  0  0  0  0  0  0  0
  147.8032  135.0473  152.0974 H   0  0  0  0  0  0  0  0  0  0  0  0
  146.1185  131.7590  152.3230 H   0  0  0  0  0  0  0  0  0  0  0  0
  144.1399  131.2333  150.9245 H   0  0  0  0  0  0  0  0  0  0  0  0
  143.0442  133.0769  149.6260 H   0  0  0  0  0  0  0  0  0  0  0  0
  145.7453  135.8740  151.0097 H   0  0  0  0  0  0  0  0  0  0  0  0
  1  2  2  0  0  0  0
  2  3  1  0  0  0  0
  2 14  1  0  0  0  0
  3  4  1  0  0  0  0
  3 21  1  0  0  0  0
  4  5  1  0  0  0  0
  4 22  1  0  0  0  0
  4 23  1  0  0  0  0
  5  6  1  0  0  0  0
  5 24  1  0  0  0  0
  5 25  1  0  0  0  0
  6 12  1  0  0  0  0
  6  7  1  0  0  0  0
  7  8  1  0  0  0  0
  7 26  1  0  0  0  0
  7 27  1  0  0  0  0
  8  9  1  0  0  0  0
  8 28  1  0  0  0  0
  8 29  1  0  0  0  0
  9 10  1  0  0  0  0
  9 30  1  0  0  0  0
  9 31  1  0  0  0  0
 10 11  1  0  0  0  0
 10 32  1  0  0  0  0
 10 33  1  0  0  0  0
 11 12  1  0  0  0  0
 11 34  1  0  0  0  0
 11 35  1  0  0  0  0
 12 13  2  0  0  0  0
 14 15  1  0  0  0  0
 14 36  1  0  0  0  0
 15 20  1  0  0  0  0
 15 16  2  0  0  0  0
 16 17  1  0  0  0  0
 16 37  1  0  0  0  0
 17 18  2  0  0  0  0
 17 38  1  0  0  0  0
 18 19  1  0  0  0  0
 18 39  1  0  0  0  0
 19 20  2  0  0  0  0
 20 40  1  0  0  0  0
M  END
> <s_m_source_file>
AV-unprocessed.smi

> <i_m_source_file_index>
1937

> <i_lp_mmshare_version>
43012

> <i_f3d_flags>
0

> <s_epik_input>
W2NIXTFuW2NIXVtjSF1bY0hdYzFbTkhdQyg9TylbTkhdW0NIMl1bQ0gyXU4yW0NIMl1bQ0gyXVtDSDJdW0NIMl1bQ0gyXUMyPU8=

> <s_epik_cmdline>
J2VwaWtfcHl0aG9uJywgJy1waCcsICc3LjAnLCAnLXRuJywgJzgnLCAnLW1hJywgJzIwMCcsICctbWV0YWxfYmluZGluZycsICctaW1hZScsICc8aW5maWxlLm1hZT4nLCAnLW9tYWUnLCAnPG91dGZpbGUubWFlPic=

> <r_epik_Ionization_Penalty>
0.00465308

> <r_epik_Ionization_Penalty_Charging>
0

> <r_epik_Ionization_Penalty_Neutral>
0.00465308

> <r_epik_State_Penalty>
0.00334133

> <r_epik_Charging_Adjusted_Penalty>
0.00334133

> <i_epik_Tot_Q>
0

> <i_epik_Tot_abs_Q>
0

> <r_epik_Metal_State_Penalty>
-0

> <b_epik_Metal_Only>
0

> <s_lp_Force_Field>
OPLS_2005

> <r_lp_Energy>
23.2929

> <b_lp_Chiralities_Consistent>
1

> <s_lp_Variant>
AV-unprocessed.smi:1937-1

> <Gold.Version>
5.8.1

> <Gold.Id.Protein>
6NUR|6NUR_protein|mol2

> <Gold.PLP.Fitness>
41.2192

> <Gold.PLP.PLP>
-31.0161

> <Gold.PLP.part.hbond>
-3.0000

> <Gold.PLP.part.metal>
0.0000

> <Gold.PLP.part.buried>
-5.6977

> <Gold.PLP.part.nonpolar>
-23.6861

> <Gold.PLP.part.repulsive>
0.8671

> <Gold.PLP.ligand.clash>
0.0000

> <Gold.PLP.ligand.torsion>
0.5352

> <Gold.PLP.Chemscore.Hbond>
2.8560

> <Gold.PLP.Chemscore.CHOScore>
0.8944

> <Gold.PLP.Chemscore.Metal>
0.0000

> <Gold.Chemscore.Hbonds>
donor molecule, donor type, donor heavy atom, donor atom, acceptor molecule, acceptor atom, score
      L1  H     3    21       P1  7948  0.94
      L1  H    14    36       P1  7948  1.00
      P1  H 10752 10763       L1    13  0.91
      L1  C    18    39       P1 10186  0.92

> <Gold.PLP.Chemscore.Internal.Correction>
0.0223

> <Gold.Rescore>
     Score         DG    S(hbond)    S(metal)    S(lipo)     H(rot)  DE(clash)    DE(int)     intcor
     15.49     -17.61       2.56        0.00      63.67       1.52       0.03       2.09       ----

> <Gold.Chemscore.Fitness>
15.4886

> <Gold.Chemscore.DG>
-17.6059

> <Gold.Chemscore.ZeroCoef>
-5.4800

> <Gold.Chemscore.Hbond>
2.5649

> <Gold.Chemscore.Metal>
0.0000

> <Gold.Chemscore.Lipo>
63.6680

> <Gold.Chemscore.Internal_Hbond>
0.0000

> <Gold.Chemscore.DEClash>
0.0270

> <Gold.Chemscore.DEInternal>
2.0903

> <Gold.Chemscore.Rot>
1.5195

> <Gold.Chemscore.Internal.Correction>
   9.000000E+99

> <Gold.Chemscore.Hbonds>
donor molecule, donor type, donor heavy atom, donor atom, acceptor molecule, acceptor atom, score
      L1  H     3    21       P1  7948  0.41
      L1  H    14    36       P1  7948  0.81
      P1  H 10752 10763       L1    13  0.90

> <Gold.Chemscore.Hbond.Weighted>
-8.5668

> <Gold.Chemscore.Metal.Weighted>
-0.0000

> <Gold.Chemscore.Lipo.Weighted>
-7.4492

> <Gold.Chemscore.Internal_Hbond.Weighted>
0.0000

> <Gold.Chemscore.DEClash.Weighted>
0.0270

> <Gold.Chemscore.DEInternal.Weighted>
2.0903

> <Gold.Chemscore.Rot.Weighted>
3.8900

> <Gold.Chemscore.Internal.Correction.Weighted>
   9.000000E+99

> <Gold.Protein.RotatedTorsions>
[ 6907 6896 6895 6894 ] final  -96.97 input  -60.11 | X-H torsion
[ 7974 7965 7964 7962 ] final  -20.02 input  175.53 | X-H torsion
[ 8008 7997 7996 7995 ] final    4.42 input   59.86 | X-H torsion
[ 10167 10162 10161 10158 ] final  131.00 input  -65.29 | X-H torsion
[ 10718 10713 10712 10709 ] final  -47.69 input   66.30 | X-H torsion
[ 10763 10752 10751 10750 ] final   32.55 input  -60.55 | X-H torsion
[ 11005 11000 10999 10996 ] final  -75.07 input  -57.11 | X-H torsion

> <Gold.Protein.ActiveResidues>
 VAL166  LYS551  ARG553  GLY616  TRP617  ASP618  TYR619  PRO620  LYS621  CYS622 
 ASP623  PHE694  ASN695  SER759  ASP760  ASP761  ALA762  ILE779  LEU786  VAL792 
 PHE793  MET794  SER795  GLU796  ALA797  LYS798  CYS799  TRP800  GLU811  SER814 

> <Gold.Protein.RotatedAtoms>
  150.7003  134.1421  159.4108 H   0  0  0  0  0  0  0  0  0  0  0  0  # atno 6907 bound_to 6896
  151.9405  135.0213  160.0545 H   0  0  0  0  0  0  0  0  0  0  0  0  # atno 6908 bound_to 6896
  152.2098  133.4867  159.5140 H   0  0  0  0  0  0  0  0  0  0  0  0  # atno 6909 bound_to 6896
  146.1810  140.4143  142.8494 H   0  0  0  0  0  0  0  0  0  0  0  0  # atno 7974 bound_to 7965
  154.7157  140.2702  155.6587 H   0  0  0  0  0  0  0  0  0  0  0  0  # atno 8008 bound_to 7997
  156.2809  140.2744  156.1738 H   0  0  0  0  0  0  0  0  0  0  0  0  # atno 8009 bound_to 7997
  155.0574  140.0371  157.2555 H   0  0  0  0  0  0  0  0  0  0  0  0  # atno 8010 bound_to 7997
  139.5404  144.6724  151.4645 H   0  0  0  0  0  0  0  0  0  0  0  0  # atno 10167 bound_to 10162
  156.2060  130.4158  149.9177 H   0  0  0  0  0  0  0  0  0  0  0  0  # atno 10718 bound_to 10713
  153.0257  135.6410  154.1372 H   0  0  0  0  0  0  0  0  0  0  0  0  # atno 10763 bound_to 10752
  154.1101  135.2853  155.3234 H   0  0  0  0  0  0  0  0  0  0  0  0  # atno 10764 bound_to 10752
  154.6337  135.5483  153.7773 H   0  0  0  0  0  0  0  0  0  0  0  0  # atno 10765 bound_to 10752
  141.1642  133.6933  156.7460 H   0  0  0  0  0  0  0  0  0  0  0  0  # atno 11005 bound_to 11000
  144.8316  140.6716  143.6287 LP  0  0  0  0  0  0  0  0  0  0  0  0  # atno 17320 bound_to 7965
  145.4075  139.1586  143.4144 LP  0  0  0  0  0  0  0  0  0  0  0  0  # atno 17321 bound_to 7965
  140.6631  143.8457  150.6910 LP  0  0  0  0  0  0  0  0  0  0  0  0  # atno 17342 bound_to 10162
  140.1857  143.4077  152.1900 LP  0  0  0  0  0  0  0  0  0  0  0  0  # atno 17343 bound_to 10162
  156.6871  130.8881  151.3583 LP  0  0  0  0  0  0  0  0  0  0  0  0  # atno 17370 bound_to 10713
  157.7012  130.9335  150.0793 LP  0  0  0  0  0  0  0  0  0  0  0  0  # atno 17371 bound_to 10713
  140.2639  134.8445  157.3784 LP  0  0  0  0  0  0  0  0  0  0  0  0  # atno 17394 bound_to 11000
  140.1585  134.4759  155.7911 LP  0  0  0  0  0  0  0  0  0  0  0  0  # atno 17395 bound_to 11000

$$$$
