AV-unprocessed.smi:218|AV-procd|sdf|1674|dock2
  -GOLD-   2262020 93D 1   1.00000     0.00000
 Structure written by MMmdl.
 54 57  0  0  0  0  0  0  0  0  1 V2000
  150.4009  144.2759  159.6417 C   0  0  0  0  0  0  0  0  0  0  0  0
  151.8840  143.8929  159.5717 C   0  0  0  0  0  0  0  0  0  0  0  0
  152.5583  144.5050  158.3317 C   0  0  0  0  0  0  0  0  0  0  0  0
  151.9423  142.4660  159.5146 O   0  0  0  0  0  0  0  0  0  0  0  0
  151.2496  141.7813  158.5344 C   0  0  0  0  0  0  0  0  0  0  0  0
  151.0901  140.3877  158.6782 C   0  0  0  0  0  0  0  0  0  0  0  0
  150.3906  139.6746  157.6826 C   0  0  0  0  0  0  0  0  0  0  0  0
  150.1936  138.1728  157.7947 C   0  0  0  0  0  0  0  0  0  0  0  0
  149.5890  137.7301  159.0464 N   0  0  0  0  0  0  0  0  0  0  0  0
  149.0062  136.5140  159.1385 C   0  0  0  0  0  0  0  0  0  0  0  0
  149.1415  135.5927  158.1487 N   0  0  0  0  0  0  0  0  0  0  0  0
  148.5582  134.3963  158.2653 C   0  0  0  0  0  0  0  0  0  0  0  0
  147.8160  133.9253  159.2693 N   0  0  0  0  0  0  0  0  0  0  0  0
  147.6806  134.8439  160.2692 C   0  0  0  0  0  0  0  0  0  0  0  0
  148.2440  136.1506  160.2788 C   0  0  0  0  0  0  0  0  0  0  0  0
  147.9036  136.8022  161.4570 N   0  0  0  0  0  0  0  0  0  0  0  0
  147.1799  135.9280  162.1028 C   0  0  0  0  0  0  0  0  0  0  0  0
  146.9886  134.7258  161.4581 N   0  0  0  0  0  0  0  0  0  0  0  0
  146.1979  133.5495  161.9416 C   0  0  2  0  0  0  0  0  0  0  0  0
  146.6128  132.4169  161.2451 O   0  0  0  0  0  0  0  0  0  0  0  0
  145.4942  131.5607  161.0455 C   0  0  2  0  0  0  0  0  0  0  0  0
  145.7688  130.5426  159.9249 C   0  0  0  0  0  0  0  0  0  0  0  0
  146.0383  131.2174  158.7149 O   0  0  0  0  0  0  0  0  0  0  0  0
  144.3437  132.5441  160.7833 C   0  0  2  0  0  0  0  0  0  0  0  0
  144.3031  132.9309  159.4203 O   0  0  0  0  0  0  0  0  0  0  0  0
  144.6786  133.7057  161.7172 C   0  0  2  0  0  0  0  0  0  0  0  0
  144.2505  134.9685  161.2316 O   0  0  0  0  0  0  0  0  0  0  0  0
  149.8805  140.3845  156.5777 C   0  0  0  0  0  0  0  0  0  0  0  0
  150.0880  141.7760  156.5219 C   0  0  0  0  0  0  0  0  0  0  0  0
  150.7575  142.4642  157.4708 N   0  0  0  0  0  0  0  0  0  0  0  0
  146.4585  133.4574  162.9969 H   0  0  0  0  0  0  0  0  0  0  0  0
  145.2876  131.0401  161.9828 H   0  0  0  0  0  0  0  0  0  0  0  0
  143.3773  132.1036  161.0307 H   0  0  0  0  0  0  0  0  0  0  0  0
  144.1996  133.5349  162.6820 H   0  0  0  0  0  0  0  0  0  0  0  0
  150.2758  145.3583  159.6871 H   0  0  0  0  0  0  0  0  0  0  0  0
  149.9304  143.8508  160.5287 H   0  0  0  0  0  0  0  0  0  0  0  0
  149.8570  143.9118  158.7695 H   0  0  0  0  0  0  0  0  0  0  0  0
  152.3575  144.2716  160.4789 H   0  0  0  0  0  0  0  0  0  0  0  0
  152.4890  145.5931  158.3475 H   0  0  0  0  0  0  0  0  0  0  0  0
  152.0851  144.1547  157.4141 H   0  0  0  0  0  0  0  0  0  0  0  0
  153.6156  144.2471  158.2765 H   0  0  0  0  0  0  0  0  0  0  0  0
  151.4973  139.8776  159.5388 H   0  0  0  0  0  0  0  0  0  0  0  0
  149.6001  137.8100  156.9545 H   0  0  0  0  0  0  0  0  0  0  0  0
  151.1697  137.6959  157.7054 H   0  0  0  0  0  0  0  0  0  0  0  0
  149.5073  138.4329  159.7670 H   0  0  0  0  0  0  0  0  0  0  0  0
  148.7074  133.7194  157.4370 H   0  0  0  0  0  0  0  0  0  0  0  0
  146.7561  136.1410  163.0734 H   0  0  0  0  0  0  0  0  0  0  0  0
  146.6480  129.9451  160.1669 H   0  0  0  0  0  0  0  0  0  0  0  0
  144.9318  129.8552  159.7964 H   0  0  0  0  0  0  0  0  0  0  0  0
  145.2202  131.5302  158.3602 H   0  0  0  0  0  0  0  0  0  0  0  0
  143.4046  133.1125  159.1893 H   0  0  0  0  0  0  0  0  0  0  0  0
  143.3571  134.8884  160.9345 H   0  0  0  0  0  0  0  0  0  0  0  0
  149.3371  139.8784  155.7934 H   0  0  0  0  0  0  0  0  0  0  0  0
  149.7074  142.3516  155.6914 H   0  0  0  0  0  0  0  0  0  0  0  0
  1  2  1  0  0  0  0
  1 35  1  0  0  0  0
  1 36  1  0  0  0  0
  1 37  1  0  0  0  0
  2  3  1  0  0  0  0
  2  4  1  0  0  0  0
  2 38  1  0  0  0  0
  3 39  1  0  0  0  0
  3 40  1  0  0  0  0
  3 41  1  0  0  0  0
  4  5  1  0  0  0  0
  5 30  1  0  0  0  0
  5  6  2  0  0  0  0
  6  7  1  0  0  0  0
  6 42  1  0  0  0  0
  7  8  1  0  0  0  0
  7 28  2  0  0  0  0
  8  9  1  0  0  0  0
  8 43  1  0  0  0  0
  8 44  1  0  0  0  0
  9 10  1  0  0  0  0
  9 45  1  0  0  0  0
 10 15  1  0  0  0  0
 10 11  2  0  0  0  0
 11 12  1  0  0  0  0
 12 13  2  0  0  0  0
 12 46  1  0  0  0  0
 13 14  1  0  0  0  0
 14 18  1  0  0  0  0
 14 15  2  0  0  0  0
 15 16  1  0  0  0  0
 16 17  2  0  0  0  0
 17 18  1  0  0  0  0
 17 47  1  0  0  0  0
 18 19  1  0  0  0  0
 19 31  1  0  0  0  0
 19 26  1  0  0  0  0
 19 20  1  0  0  0  0
 20 21  1  0  0  0  0
 21 32  1  0  0  0  0
 21 22  1  0  0  0  0
 21 24  1  0  0  0  0
 22 23  1  0  0  0  0
 22 48  1  0  0  0  0
 22 49  1  0  0  0  0
 23 50  1  0  0  0  0
 24 33  1  0  0  0  0
 24 25  1  0  0  0  0
 24 26  1  0  0  0  0
 25 51  1  0  0  0  0
 26 34  1  0  0  0  0
 26 27  1  0  0  0  0
 27 52  1  0  0  0  0
 28 29  1  0  0  0  0
 28 53  1  0  0  0  0
 29 30  2  0  0  0  0
 29 54  1  0  0  0  0
M  END
> <s_m_source_file>
AV-unprocessed.smi

> <i_m_source_file_index>
218

> <i_lp_mmshare_version>
43012

> <i_f3d_flags>
0

> <s_epik_input>
W0NIM11bQ0hdKFtDSDNdKU9jMVtjSF1jKFtjSF1bY0hdbjEpW0NIMl1bTkhdYyhuW2NIXW4yKWMoYzIzKW5bY0hdbjNbQ0BASF00T1tDQEhdKFtDSDJdW09IXSlbQ0BASF0oW09IXSlbQ0BIXTRbT0hd

> <s_epik_cmdline>
J2VwaWtfcHl0aG9uJywgJy1waCcsICc3LjAnLCAnLXRuJywgJzgnLCAnLW1hJywgJzIwMCcsICctbWV0YWxfYmluZGluZycsICctaW1hZScsICc8aW5maWxlLm1hZT4nLCAnLW9tYWUnLCAnPG91dGZpbGUubWFlPic=

> <r_lp_tautomer_probability>
1

> <r_epik_Ionization_Penalty>
0.00457014

> <r_epik_Ionization_Penalty_Charging>
0

> <r_epik_Ionization_Penalty_Neutral>
0.00457014

> <r_epik_State_Penalty>
-0

> <r_epik_Charging_Adjusted_Penalty>
0

> <i_epik_Tot_Q>
0

> <i_epik_Tot_abs_Q>
0

> <r_epik_Metal_State_Penalty>
-0

> <b_epik_Metal_Only>
0

> <s_epik_Chemistry_Notes>
This compound contains an acetal/aminal-like group ( X-CH(R)-Y where X, Y are N, S, or O) that may be acid/base labile, releasing an aldehyde.

> <s_lp_Force_Field>
OPLS_2005

> <r_lp_Energy>
51.9748

> <b_lp_Chiralities_Consistent>
1

> <s_lp_Variant>
AV-unprocessed.smi:218-13

> <Gold.Version>
5.8.1

> <Gold.Id.Protein>
6NUR|6NUR_protein|mol2

> <Gold.PLP.Fitness>
51.8065

> <Gold.PLP.PLP>
-46.6421

> <Gold.PLP.part.hbond>
-1.9942

> <Gold.PLP.part.metal>
0.0000

> <Gold.PLP.part.buried>
-7.3444

> <Gold.PLP.part.nonpolar>
-38.6023

> <Gold.PLP.part.repulsive>
0.8638

> <Gold.PLP.ligand.clash>
0.0000

> <Gold.PLP.ligand.torsion>
0.9449

> <Gold.PLP.Chemscore.Hbond>
1.3603

> <Gold.PLP.Chemscore.CHOScore>
0.9533

> <Gold.PLP.Chemscore.Metal>
0.0000

> <Gold.Chemscore.Hbonds>
donor molecule, donor type, donor heavy atom, donor atom, acceptor molecule, acceptor atom, score
      P1  H  6931  6943       L1    16  1.00
      P1  H  6934  6947       L1    16  0.09
      L1  C    29    54       P1  8028  0.99

> <Gold.PLP.Chemscore.Internal.Correction>
0.1133

> <Gold.Rescore>
     Score         DG    S(hbond)    S(metal)    S(lipo)     H(rot)  DE(clash)    DE(int)     intcor
      1.66      -6.19       0.93        0.00      86.73       4.90       0.06       4.47       ----

> <Gold.Chemscore.Fitness>
1.6611

> <Gold.Chemscore.DG>
-6.1870

> <Gold.Chemscore.ZeroCoef>
-5.4800

> <Gold.Chemscore.Hbond>
0.9316

> <Gold.Chemscore.Metal>
0.0000

> <Gold.Chemscore.Lipo>
86.7264

> <Gold.Chemscore.Internal_Hbond>
0.0000

> <Gold.Chemscore.DEClash>
0.0578

> <Gold.Chemscore.DEInternal>
4.4681

> <Gold.Chemscore.Rot>
4.9029

> <Gold.Chemscore.Internal.Correction>
   9.000000E+99

> <Gold.Chemscore.Hbonds>
donor molecule, donor type, donor heavy atom, donor atom, acceptor molecule, acceptor atom, score
      P1  H  6931  6943       L1    16  0.90
      P1  H  6934  6947       L1    16  0.08

> <Gold.Chemscore.Hbond.Weighted>
-3.1115

> <Gold.Chemscore.Metal.Weighted>
-0.0000

> <Gold.Chemscore.Lipo.Weighted>
-10.1470

> <Gold.Chemscore.Internal_Hbond.Weighted>
0.0000

> <Gold.Chemscore.DEClash.Weighted>
0.0578

> <Gold.Chemscore.DEInternal.Weighted>
4.4681

> <Gold.Chemscore.Rot.Weighted>
12.5515

> <Gold.Chemscore.Internal.Correction.Weighted>
   9.000000E+99

> <Gold.Protein.RotatedTorsions>
[ 6907 6896 6895 6894 ] final  -90.43 input  -60.11 | X-H torsion
[ 7974 7965 7964 7962 ] final  -88.01 input  175.53 | X-H torsion
[ 8008 7997 7996 7995 ] final  121.20 input   59.86 | X-H torsion
[ 10167 10162 10161 10158 ] final  -53.70 input  -65.29 | X-H torsion
[ 10718 10713 10712 10709 ] final   48.78 input   66.30 | X-H torsion
[ 10763 10752 10751 10750 ] final   65.91 input  -60.55 | X-H torsion
[ 11005 11000 10999 10996 ] final   42.88 input  -57.11 | X-H torsion

> <Gold.Protein.ActiveResidues>
 VAL166  LYS551  ARG553  GLY616  TRP617  ASP618  TYR619  PRO620  LYS621  CYS622 
 ASP623  PHE694  ASN695  SER759  ASP760  ASP761  ALA762  ILE779  LEU786  VAL792 
 PHE793  MET794  SER795  GLU796  ALA797  LYS798  CYS799  TRP800  GLU811  SER814 

> <Gold.Protein.RotatedAtoms>
  150.6882  134.2433  159.4480 H   0  0  0  0  0  0  0  0  0  0  0  0  # atno 6907 bound_to 6896
  152.0375  134.9728  160.0583 H   0  0  0  0  0  0  0  0  0  0  0  0  # atno 6908 bound_to 6896
  152.1243  133.4336  159.4727 H   0  0  0  0  0  0  0  0  0  0  0  0  # atno 6909 bound_to 6896
  145.4589  140.9561  143.1980 H   0  0  0  0  0  0  0  0  0  0  0  0  # atno 7974 bound_to 7965
  156.2676  140.2814  156.1270 H   0  0  0  0  0  0  0  0  0  0  0  0  # atno 8008 bound_to 7997
  155.1095  140.0390  157.2737 H   0  0  0  0  0  0  0  0  0  0  0  0  # atno 8009 bound_to 7997
  154.6753  140.2597  155.6970 H   0  0  0  0  0  0  0  0  0  0  0  0  # atno 8010 bound_to 7997
  140.6471  143.2542  151.4829 H   0  0  0  0  0  0  0  0  0  0  0  0  # atno 10167 bound_to 10162
  157.4721  130.8261  149.7999 H   0  0  0  0  0  0  0  0  0  0  0  0  # atno 10718 bound_to 10713
  153.0116  135.5340  154.6740 H   0  0  0  0  0  0  0  0  0  0  0  0  # atno 10763 bound_to 10752
  154.5917  135.2859  155.0630 H   0  0  0  0  0  0  0  0  0  0  0  0  # atno 10764 bound_to 10752
  154.1720  135.6530  153.5064 H   0  0  0  0  0  0  0  0  0  0  0  0  # atno 10765 bound_to 10752
  140.1697  134.4237  155.8265 H   0  0  0  0  0  0  0  0  0  0  0  0  # atno 11005 bound_to 11000
  144.8015  139.6132  143.7069 LP  0  0  0  0  0  0  0  0  0  0  0  0  # atno 17320 bound_to 7965
  146.2462  139.6103  142.9458 LP  0  0  0  0  0  0  0  0  0  0  0  0  # atno 17321 bound_to 7965
  139.5682  144.1991  152.1797 LP  0  0  0  0  0  0  0  0  0  0  0  0  # atno 17342 bound_to 10162
  140.1279  144.5314  150.6821 LP  0  0  0  0  0  0  0  0  0  0  0  0  # atno 17343 bound_to 10162
  156.0078  130.3847  150.2369 LP  0  0  0  0  0  0  0  0  0  0  0  0  # atno 17370 bound_to 10713
  157.0551  131.0074  151.3241 LP  0  0  0  0  0  0  0  0  0  0  0  0  # atno 17371 bound_to 10713
  141.2216  133.6950  156.7742 LP  0  0  0  0  0  0  0  0  0  0  0  0  # atno 17394 bound_to 11000
  140.2392  134.8627  157.3556 LP  0  0  0  0  0  0  0  0  0  0  0  0  # atno 17395 bound_to 11000

$$$$
