AV-unprocessed.smi:2057|AV-procd|sdf|8343|dock3
  -GOLD-   2272011 13D 1   1.00000     0.00000
 Structure written by MMmdl.
 45 47  0  0  0  0  0  0  0  0  2 V2000
  151.6908  145.6373  160.1818 C   0  0  0  0  0  0  0  0  0  0  0  0
  151.1076  144.5776  159.4379 O   0  0  0  0  0  0  0  0  0  0  0  0
  151.7948  143.3857  159.3595 C   0  0  0  0  0  0  0  0  0  0  0  0
  152.9672  143.0919  160.0942 C   0  0  0  0  0  0  0  0  0  0  0  0
  153.6112  141.8503  159.9429 C   0  0  0  0  0  0  0  0  0  0  0  0
  153.1005  140.8701  159.0565 C   0  0  0  0  0  0  0  0  0  0  0  0
  153.7060  139.6467  158.8521 O   0  0  0  0  0  0  0  0  0  0  0  0
  154.7949  139.2820  159.6868 C   0  0  0  0  0  0  0  0  0  0  0  0
  151.9206  141.1571  158.3264 C   0  0  0  0  0  0  0  0  0  0  0  0
  151.3541  140.1407  157.3357 C   0  0  1  0  0  0  0  0  0  0  0  0
  150.0317  139.7523  157.6488 O   0  0  0  0  0  0  0  0  0  0  0  0
  151.3710  140.6568  155.8810 C   0  0  0  0  0  0  0  0  0  0  0  0
  150.4265  139.9363  155.0120 N   0  0  0  0  0  0  0  0  0  0  0  0
  150.5405  138.7110  154.4229 C   0  0  0  0  0  0  0  0  0  0  0  0
  151.6867  137.7620  154.5410 C   0  0  0  0  0  0  0  0  0  0  0  0
  151.3528  136.4643  154.1015 O   0  0  0  0  0  0  0  0  0  0  0  0
  149.4049  138.5030  153.6994 N   0  3  0  0  0  0  0  0  0  0  0  0
  148.5570  139.6036  153.8236 C   0  0  0  0  0  0  0  0  0  0  0  0
  147.3050  139.8541  153.2707 C   0  0  0  0  0  0  0  0  0  0  0  0
  146.7057  141.0888  153.5945 C   0  0  0  0  0  0  0  0  0  0  0  0
  147.3479  142.0170  154.4393 C   0  0  0  0  0  0  0  0  0  0  0  0
  148.6150  141.7495  154.9974 C   0  0  0  0  0  0  0  0  0  0  0  0
  149.2034  140.5276  154.6701 C   0  0  0  0  0  0  0  0  0  0  0  0
  151.2853  142.4094  158.4833 C   0  0  0  0  0  0  0  0  0  0  0  0
  151.0329  146.5057  160.1470 H   0  0  0  0  0  0  0  0  0  0  0  0
  152.6528  145.9356  159.7629 H   0  0  0  0  0  0  0  0  0  0  0  0
  151.8215  145.3647  161.2300 H   0  0  0  0  0  0  0  0  0  0  0  0
  153.3969  143.8053  160.7809 H   0  0  0  0  0  0  0  0  0  0  0  0
  154.5047  141.6760  160.5223 H   0  0  0  0  0  0  0  0  0  0  0  0
  155.1956  138.3249  159.3533 H   0  0  0  0  0  0  0  0  0  0  0  0
  154.4812  139.1643  160.7248 H   0  0  0  0  0  0  0  0  0  0  0  0
  155.6025  140.0136  159.6313 H   0  0  0  0  0  0  0  0  0  0  0  0
  151.9390  139.2231  157.3957 H   0  0  0  0  0  0  0  0  0  0  0  0
  149.5020  139.8323  156.8704 H   0  0  0  0  0  0  0  0  0  0  0  0
  151.0759  141.7069  155.8572 H   0  0  0  0  0  0  0  0  0  0  0  0
  152.3719  140.6160  155.4514 H   0  0  0  0  0  0  0  0  0  0  0  0
  152.5265  138.1326  153.9527 H   0  0  0  0  0  0  0  0  0  0  0  0
  152.0186  137.7141  155.5779 H   0  0  0  0  0  0  0  0  0  0  0  0
  151.1793  136.4956  153.1727 H   0  0  0  0  0  0  0  0  0  0  0  0
  146.8112  139.1445  152.6229 H   0  0  0  0  0  0  0  0  0  0  0  0
  145.7342  141.3287  153.1873 H   0  0  0  0  0  0  0  0  0  0  0  0
  146.8597  142.9542  154.6638 H   0  0  0  0  0  0  0  0  0  0  0  0
  149.0978  142.4725  155.6377 H   0  0  0  0  0  0  0  0  0  0  0  0
  150.3955  142.6380  157.9151 H   0  0  0  0  0  0  0  0  0  0  0  0
  149.2260  137.6655  153.1605 H   0  0  0  0  0  0  0  0  0  0  0  0
  1  2  1  0  0  0  0
  1 25  1  0  0  0  0
  1 26  1  0  0  0  0
  1 27  1  0  0  0  0
  2  3  1  0  0  0  0
  3 24  1  0  0  0  0
  3  4  2  0  0  0  0
  4  5  1  0  0  0  0
  4 28  1  0  0  0  0
  5  6  2  0  0  0  0
  5 29  1  0  0  0  0
  6  7  1  0  0  0  0
  6  9  1  0  0  0  0
  7  8  1  0  0  0  0
  8 30  1  0  0  0  0
  8 31  1  0  0  0  0
  8 32  1  0  0  0  0
  9 10  1  0  0  0  0
  9 24  2  0  0  0  0
 10 11  1  0  0  0  0
 10 12  1  0  0  0  0
 10 33  1  0  0  0  0
 11 34  1  0  0  0  0
 12 13  1  0  0  0  0
 12 35  1  0  0  0  0
 12 36  1  0  0  0  0
 13 23  1  0  0  0  0
 13 14  1  0  0  0  0
 14 15  1  0  0  0  0
 14 17  2  0  0  0  0
 15 16  1  0  0  0  0
 15 37  1  0  0  0  0
 15 38  1  0  0  0  0
 16 39  1  0  0  0  0
 17 18  1  0  0  0  0
 17 45  1  0  0  0  0
 18 23  2  0  0  0  0
 18 19  1  0  0  0  0
 19 20  2  0  0  0  0
 19 40  1  0  0  0  0
 20 21  1  0  0  0  0
 20 41  1  0  0  0  0
 21 22  2  0  0  0  0
 21 42  1  0  0  0  0
 22 23  1  0  0  0  0
 22 43  1  0  0  0  0
 24 44  1  0  0  0  0
M  CHG  1  17   1
M  END
> <s_m_source_file>
AV-unprocessed.smi

> <i_m_source_file_index>
2057

> <i_lp_mmshare_version>
43012

> <i_f3d_flags>
0

> <s_epik_input>
W0NIM11PYzFbY0hdW2NIXWMoT1tDSDNdKWMoW2NIXTEpW0NASF0oW09IXSlbQ0gyXW4oYyhuMilbQ0gyXVtPSF0pYyhjMjMpW2NIXVtjSF1bY0hdW2NIXTM=

> <s_epik_cmdline>
J2VwaWtfcHl0aG9uJywgJy1waCcsICc3LjAnLCAnLXRuJywgJzgnLCAnLW1hJywgJzIwMCcsICctbWV0YWxfYmluZGluZycsICctaW1hZScsICc8aW5maWxlLm1hZT4nLCAnLW9tYWUnLCAnPG91dGZpbGUubWFlPic=

> <r_lp_tautomer_probability>
1

> <r_epik_Ionization_Penalty>
1.35643

> <r_epik_Ionization_Penalty_Charging>
1.35557

> <r_epik_Ionization_Penalty_Neutral>
0.000857128

> <r_epik_State_Penalty>
1.43401

> <r_epik_Charging_Adjusted_Penalty>
2.78958

> <i_epik_Tot_Q>
1

> <i_epik_Tot_abs_Q>
1

> <r_epik_Metal_State_Penalty>
5.47166

> <b_epik_Metal_Only>
0

> <s_lp_Force_Field>
OPLS_2005

> <r_lp_Energy>
20.8596

> <b_lp_Chiralities_Consistent>
1

> <s_lp_Variant>
AV-unprocessed.smi:2057-4

> <Gold.Version>
5.8.1

> <Gold.Id.Protein>
6NUR|6NUR_protein|mol2

> <Gold.PLP.Fitness>
66.5216

> <Gold.PLP.PLP>
-53.0151

> <Gold.PLP.part.hbond>
-5.2399

> <Gold.PLP.part.metal>
0.0000

> <Gold.PLP.part.buried>
-0.5684

> <Gold.PLP.part.nonpolar>
-48.5536

> <Gold.PLP.part.repulsive>
0.1742

> <Gold.PLP.ligand.clash>
0.0000

> <Gold.PLP.ligand.torsion>
0.8110

> <Gold.PLP.Chemscore.Hbond>
5.0000

> <Gold.PLP.Chemscore.CHOScore>
0.0000

> <Gold.PLP.Chemscore.Metal>
0.0000

> <Gold.Chemscore.Hbonds>
donor molecule, donor type, donor heavy atom, donor atom, acceptor molecule, acceptor atom, score
      L1  H    16    39       P1  7949  1.00
      L1  H    17    45       P1  7948  2.00
      P1  H  7997  8008       L1     7  0.95
      P1  H 10752 10764       L1    16  1.00

> <Gold.PLP.Chemscore.Internal.Correction>
0.1284

> <Gold.Rescore>
     Score         DG    S(hbond)    S(metal)    S(lipo)     H(rot)  DE(clash)    DE(int)     intcor
     21.15     -23.65       3.20        0.00     135.13       3.25       0.65       1.85       ----

> <Gold.Chemscore.Fitness>
21.1477

> <Gold.Chemscore.DG>
-23.6484

> <Gold.Chemscore.ZeroCoef>
-5.4800

> <Gold.Chemscore.Hbond>
3.1998

> <Gold.Chemscore.Metal>
0.0000

> <Gold.Chemscore.Lipo>
135.1339

> <Gold.Chemscore.Internal_Hbond>
0.0000

> <Gold.Chemscore.DEClash>
0.6546

> <Gold.Chemscore.DEInternal>
1.8462

> <Gold.Chemscore.Rot>
3.2537

> <Gold.Chemscore.Internal.Correction>
   9.000000E+99

> <Gold.Chemscore.Hbonds>
donor molecule, donor type, donor heavy atom, donor atom, acceptor molecule, acceptor atom, score
      L1  H    16    39       P1  7949  0.50
      L1  H    17    45       P1  7948  0.98
      P1  H  7997  8008       L1     7  0.05
      P1  H 10752 10764       L1    16  0.12

> <Gold.Chemscore.Hbond.Weighted>
-10.6872

> <Gold.Chemscore.Metal.Weighted>
-0.0000

> <Gold.Chemscore.Lipo.Weighted>
-15.8107

> <Gold.Chemscore.Internal_Hbond.Weighted>
0.0000

> <Gold.Chemscore.DEClash.Weighted>
0.6546

> <Gold.Chemscore.DEInternal.Weighted>
1.8462

> <Gold.Chemscore.Rot.Weighted>
8.3295

> <Gold.Chemscore.Internal.Correction.Weighted>
   9.000000E+99

> <Gold.Protein.RotatedTorsions>
[ 6907 6896 6895 6894 ] final   94.74 input  -60.11 | X-H torsion
[ 7974 7965 7964 7962 ] final   -0.31 input  175.53 | X-H torsion
[ 8008 7997 7996 7995 ] final  -95.44 input   59.86 | X-H torsion
[ 10167 10162 10161 10158 ] final   65.59 input  -65.29 | X-H torsion
[ 10718 10713 10712 10709 ] final  -28.58 input   66.30 | X-H torsion
[ 10763 10752 10751 10750 ] final  -82.99 input  -60.55 | X-H torsion
[ 11005 11000 10999 10996 ] final   -0.47 input  -57.11 | X-H torsion

> <Gold.Protein.ActiveResidues>
 VAL166  LYS551  ARG553  GLY616  TRP617  ASP618  TYR619  PRO620  LYS621  CYS622 
 ASP623  PHE694  ASN695  SER759  ASP760  ASP761  ALA762  ILE779  LEU786  VAL792 
 PHE793  MET794  SER795  GLU796  ALA797  LYS798  CYS799  TRP800  GLU811  SER814 

> <Gold.Protein.RotatedAtoms>
  152.5448  134.1147  159.8372 H   0  0  0  0  0  0  0  0  0  0  0  0  # atno 6907 bound_to 6896
  151.1209  133.5097  159.2609 H   0  0  0  0  0  0  0  0  0  0  0  0  # atno 6908 bound_to 6896
  151.1780  135.0358  159.8835 H   0  0  0  0  0  0  0  0  0  0  0  0  # atno 6909 bound_to 6896
  146.2428  140.1250  142.8339 H   0  0  0  0  0  0  0  0  0  0  0  0  # atno 7974 bound_to 7965
  154.7613  140.0480  157.0976 H   0  0  0  0  0  0  0  0  0  0  0  0  # atno 8008 bound_to 7997
  154.9934  140.3116  155.4877 H   0  0  0  0  0  0  0  0  0  0  0  0  # atno 8009 bound_to 7997
  156.2904  140.2214  156.5040 H   0  0  0  0  0  0  0  0  0  0  0  0  # atno 8010 bound_to 7997
  140.1097  144.4829  150.6986 H   0  0  0  0  0  0  0  0  0  0  0  0  # atno 10167 bound_to 10162
  156.4234  130.4431  149.7168 H   0  0  0  0  0  0  0  0  0  0  0  0  # atno 10718 bound_to 10713
  154.5824  135.5572  153.7198 H   0  0  0  0  0  0  0  0  0  0  0  0  # atno 10763 bound_to 10752
  153.0086  135.6323  154.1964 H   0  0  0  0  0  0  0  0  0  0  0  0  # atno 10764 bound_to 10752
  154.1905  135.2882  155.3003 H   0  0  0  0  0  0  0  0  0  0  0  0  # atno 10765 bound_to 10752
  140.6366  133.9527  155.8303 H   0  0  0  0  0  0  0  0  0  0  0  0  # atno 11005 bound_to 11000
  145.0374  140.8919  143.5073 LP  0  0  0  0  0  0  0  0  0  0  0  0  # atno 17320 bound_to 7965
  145.1325  139.2623  143.5532 LP  0  0  0  0  0  0  0  0  0  0  0  0  # atno 17321 bound_to 7965
  140.6932  143.2388  151.5072 LP  0  0  0  0  0  0  0  0  0  0  0  0  # atno 17342 bound_to 10162
  139.5626  144.2120  152.1715 LP  0  0  0  0  0  0  0  0  0  0  0  0  # atno 17343 bound_to 10162
  156.4099  130.7717  151.2729 LP  0  0  0  0  0  0  0  0  0  0  0  0  # atno 17370 bound_to 10713
  157.7508  131.0214  150.3750 LP  0  0  0  0  0  0  0  0  0  0  0  0  # atno 17371 bound_to 10713
  141.0637  134.0309  157.3623 LP  0  0  0  0  0  0  0  0  0  0  0  0  # atno 17394 bound_to 11000
  139.9096  135.0187  156.7634 LP  0  0  0  0  0  0  0  0  0  0  0  0  # atno 17395 bound_to 11000

$$$$
