AV-unprocessed.smi:1121|AV-procd|sdf|4826|dock5
  -GOLD-   22720 3383D 1   1.00000     0.00000
 Structure written by MMmdl.
 46 48  0  0  0  0  0  0  0  0  1 V2000
  146.4648  137.2059  158.9363 O   0  0  0  0  0  0  0  0  0  0  0  0
  147.6254  137.1548  158.5289 C   0  0  0  0  0  0  0  0  0  0  0  0
  148.0893  137.7720  157.4299 N   0  0  0  0  0  0  0  0  0  0  0  0
  147.3861  138.6387  156.5458 C   0  0  0  0  0  0  0  0  0  0  0  0
  145.9796  138.7928  156.5973 C   0  0  0  0  0  0  0  0  0  0  0  0
  145.3461  139.6300  155.6617 C   0  0  0  0  0  0  0  0  0  0  0  0
  146.1405  140.2755  154.6981 C   0  0  0  0  0  0  0  0  0  0  0  0
  147.4790  140.1282  154.6267 N   0  0  0  0  0  0  0  0  0  0  0  0
  148.0991  139.3265  155.5268 C   0  0  0  0  0  0  0  0  0  0  0  0
  149.5010  139.2118  155.4351 N   0  0  0  0  0  0  0  0  0  0  0  0
  150.0433  138.5659  154.2440 C   0  0  0  0  0  0  0  0  0  0  0  0
  151.5519  138.3235  154.4214 C   0  0  0  0  0  0  0  0  0  0  0  0
  152.2024  139.5568  154.7149 O   0  0  0  0  0  0  0  0  0  0  0  0
  151.7187  140.1451  155.9192 C   0  0  0  0  0  0  0  0  0  0  0  0
  150.2138  140.4344  155.7870 C   0  0  0  0  0  0  0  0  0  0  0  0
  148.6024  136.4814  159.1526 N   0  0  0  0  0  0  0  0  0  0  0  0
  148.4476  135.7206  160.3889 C   0  0  0  0  0  0  0  0  0  0  0  0
  147.6953  134.3989  160.1250 C   0  0  0  0  0  0  0  0  0  0  0  0
  147.4476  133.6211  161.4276 C   0  0  0  0  0  0  0  0  0  0  0  0
  146.7043  134.4828  162.4600 C   0  0  0  0  0  0  0  0  0  0  0  0
  147.4571  135.7947  162.7309 C   0  0  0  0  0  0  0  0  0  0  0  0
  147.7002  136.5760  161.4296 C   0  0  0  0  0  0  0  0  0  0  0  0
  149.0844  137.7086  157.2708 H   0  0  0  0  0  0  0  0  0  0  0  0
  145.3761  138.2701  157.3233 H   0  0  0  0  0  0  0  0  0  0  0  0
  144.2749  139.7666  155.6776 H   0  0  0  0  0  0  0  0  0  0  0  0
  145.6889  140.9234  153.9615 H   0  0  0  0  0  0  0  0  0  0  0  0
  149.5302  137.6198  154.0675 H   0  0  0  0  0  0  0  0  0  0  0  0
  149.8728  139.1980  153.3713 H   0  0  0  0  0  0  0  0  0  0  0  0
  151.7393  137.6029  155.2193 H   0  0  0  0  0  0  0  0  0  0  0  0
  151.9761  137.9060  153.5083 H   0  0  0  0  0  0  0  0  0  0  0  0
  151.9129  139.4822  156.7639 H   0  0  0  0  0  0  0  0  0  0  0  0
  152.2643  141.0695  156.1082 H   0  0  0  0  0  0  0  0  0  0  0  0
  150.0442  141.1815  155.0107 H   0  0  0  0  0  0  0  0  0  0  0  0
  149.8347  140.8543  156.7189 H   0  0  0  0  0  0  0  0  0  0  0  0
  149.5254  136.4989  158.7443 H   0  0  0  0  0  0  0  0  0  0  0  0
  149.4374  135.4899  160.7882 H   0  0  0  0  0  0  0  0  0  0  0  0
  146.7398  134.6078  159.6419 H   0  0  0  0  0  0  0  0  0  0  0  0
  148.2601  133.7743  159.4320 H   0  0  0  0  0  0  0  0  0  0  0  0
  146.8757  132.7168  161.2176 H   0  0  0  0  0  0  0  0  0  0  0  0
  148.4011  133.2941  161.8439 H   0  0  0  0  0  0  0  0  0  0  0  0
  145.7002  134.7054  162.0964 H   0  0  0  0  0  0  0  0  0  0  0  0
  146.5809  133.9257  163.3892 H   0  0  0  0  0  0  0  0  0  0  0  0
  146.8928  136.4089  163.4332 H   0  0  0  0  0  0  0  0  0  0  0  0
  148.4126  135.5759  163.2095 H   0  0  0  0  0  0  0  0  0  0  0  0
  148.2673  137.4820  161.6469 H   0  0  0  0  0  0  0  0  0  0  0  0
  146.7422  136.9019  161.0218 H   0  0  0  0  0  0  0  0  0  0  0  0
  1  2  2  0  0  0  0
  2  3  1  0  0  0  0
  2 16  1  0  0  0  0
  3  4  1  0  0  0  0
  3 23  1  0  0  0  0
  4  9  1  0  0  0  0
  4  5  2  0  0  0  0
  5  6  1  0  0  0  0
  5 24  1  0  0  0  0
  6  7  2  0  0  0  0
  6 25  1  0  0  0  0
  7  8  1  0  0  0  0
  7 26  1  0  0  0  0
  8  9  2  0  0  0  0
  9 10  1  0  0  0  0
 10 15  1  0  0  0  0
 10 11  1  0  0  0  0
 11 12  1  0  0  0  0
 11 27  1  0  0  0  0
 11 28  1  0  0  0  0
 12 13  1  0  0  0  0
 12 29  1  0  0  0  0
 12 30  1  0  0  0  0
 13 14  1  0  0  0  0
 14 15  1  0  0  0  0
 14 31  1  0  0  0  0
 14 32  1  0  0  0  0
 15 33  1  0  0  0  0
 15 34  1  0  0  0  0
 16 17  1  0  0  0  0
 16 35  1  0  0  0  0
 17 22  1  0  0  0  0
 17 18  1  0  0  0  0
 17 36  1  0  0  0  0
 18 19  1  0  0  0  0
 18 37  1  0  0  0  0
 18 38  1  0  0  0  0
 19 20  1  0  0  0  0
 19 39  1  0  0  0  0
 19 40  1  0  0  0  0
 20 21  1  0  0  0  0
 20 41  1  0  0  0  0
 20 42  1  0  0  0  0
 21 22  1  0  0  0  0
 21 43  1  0  0  0  0
 21 44  1  0  0  0  0
 22 45  1  0  0  0  0
 22 46  1  0  0  0  0
M  END
> <s_m_source_file>
AV-unprocessed.smi

> <i_m_source_file_index>
1121

> <i_lp_mmshare_version>
43012

> <i_f3d_flags>
0

> <s_epik_input>
W0NIMl0xW0NIMl1bQ0gyXVtDSDJdW0NIMl1bQ0hdMVtOSF1DKD1PKVtOSF1jMltjSF1bY0hdW2NIXW5jMk4zW0NIMl1bQ0gyXU9bQ0gyXVtDSDJdMw==

> <s_epik_cmdline>
J2VwaWtfcHl0aG9uJywgJy1waCcsICc3LjAnLCAnLXRuJywgJzgnLCAnLW1hJywgJzIwMCcsICctbWV0YWxfYmluZGluZycsICctaW1hZScsICc8aW5maWxlLm1hZT4nLCAnLW9tYWUnLCAnPG91dGZpbGUubWFlPic=

> <r_lp_tautomer_probability>
1

> <r_epik_Ionization_Penalty>
0.00218153

> <r_epik_Ionization_Penalty_Charging>
0

> <r_epik_Ionization_Penalty_Neutral>
0.00218153

> <r_epik_State_Penalty>
0.00146907

> <r_epik_Charging_Adjusted_Penalty>
0.00146907

> <i_epik_Tot_Q>
0

> <i_epik_Tot_abs_Q>
0

> <r_epik_Metal_State_Penalty>
-0

> <b_epik_Metal_Only>
0

> <s_lp_Force_Field>
OPLS_2005

> <r_lp_Energy>
26.2081

> <b_lp_Chiralities_Consistent>
1

> <s_lp_Variant>
AV-unprocessed.smi:1121-1

> <Gold.Version>
5.8.1

> <Gold.Id.Protein>
6NUR|6NUR_protein|mol2

> <Gold.PLP.Fitness>
36.6632

> <Gold.PLP.PLP>
-31.6335

> <Gold.PLP.part.hbond>
-1.0000

> <Gold.PLP.part.metal>
0.0000

> <Gold.PLP.part.buried>
-3.7143

> <Gold.PLP.part.nonpolar>
-27.3947

> <Gold.PLP.part.repulsive>
0.3792

> <Gold.PLP.ligand.clash>
0.0000

> <Gold.PLP.ligand.torsion>
0.2751

> <Gold.PLP.Chemscore.Hbond>
0.8000

> <Gold.PLP.Chemscore.CHOScore>
0.9888

> <Gold.PLP.Chemscore.Metal>
0.0000

> <Gold.Chemscore.Hbonds>
donor molecule, donor type, donor heavy atom, donor atom, acceptor molecule, acceptor atom, score
      P1  H  7989  7998       L1    13  0.80
      L1  C     7    26       P1 10175  0.99

> <Gold.PLP.Chemscore.Internal.Correction>
0.2134

> <Gold.Rescore>
     Score         DG    S(hbond)    S(metal)    S(lipo)     H(rot)  DE(clash)    DE(int)     intcor
     10.29     -13.29       0.93        0.00      66.24       1.18       0.13       2.86       ----

> <Gold.Chemscore.Fitness>
10.2933

> <Gold.Chemscore.DG>
-13.2893

> <Gold.Chemscore.ZeroCoef>
-5.4800

> <Gold.Chemscore.Hbond>
0.9256

> <Gold.Chemscore.Metal>
0.0000

> <Gold.Chemscore.Lipo>
66.2379

> <Gold.Chemscore.Internal_Hbond>
0.0000

> <Gold.Chemscore.DEClash>
0.1334

> <Gold.Chemscore.DEInternal>
2.8626

> <Gold.Chemscore.Rot>
1.1844

> <Gold.Chemscore.Internal.Correction>
   9.000000E+99

> <Gold.Chemscore.Hbonds>
donor molecule, donor type, donor heavy atom, donor atom, acceptor molecule, acceptor atom, score
      P1  H  7989  7998       L1    13  0.15

> <Gold.Chemscore.Hbond.Weighted>
-3.0916

> <Gold.Chemscore.Metal.Weighted>
-0.0000

> <Gold.Chemscore.Lipo.Weighted>
-7.7498

> <Gold.Chemscore.Internal_Hbond.Weighted>
0.0000

> <Gold.Chemscore.DEClash.Weighted>
0.1334

> <Gold.Chemscore.DEInternal.Weighted>
2.8626

> <Gold.Chemscore.Rot.Weighted>
3.0321

> <Gold.Chemscore.Internal.Correction.Weighted>
   9.000000E+99

> <Gold.Protein.RotatedTorsions>
[ 6907 6896 6895 6894 ] final -157.69 input  -60.11 | X-H torsion
[ 7974 7965 7964 7962 ] final  138.53 input  175.53 | X-H torsion
[ 8008 7997 7996 7995 ] final  -32.75 input   59.86 | X-H torsion
[ 10167 10162 10161 10158 ] final -102.16 input  -65.29 | X-H torsion
[ 10718 10713 10712 10709 ] final  -29.88 input   66.30 | X-H torsion
[ 10763 10752 10751 10750 ] final  -62.87 input  -60.55 | X-H torsion
[ 11005 11000 10999 10996 ] final -150.94 input  -57.11 | X-H torsion

> <Gold.Protein.ActiveResidues>
 VAL166  LYS551  ARG553  GLY616  TRP617  ASP618  TYR619  PRO620  LYS621  CYS622 
 ASP623  PHE694  ASN695  SER759  ASP760  ASP761  ALA762  ILE779  LEU786  VAL792 
 PHE793  MET794  SER795  GLU796  ALA797  LYS798  CYS799  TRP800  GLU811  SER814 

> <Gold.Protein.RotatedAtoms>
  151.3066  133.4099  159.2643 H   0  0  0  0  0  0  0  0  0  0  0  0  # atno 6907 bound_to 6896
  151.0149  134.9426  159.8038 H   0  0  0  0  0  0  0  0  0  0  0  0  # atno 6908 bound_to 6896
  152.5310  134.3030  159.9138 H   0  0  0  0  0  0  0  0  0  0  0  0  # atno 6909 bound_to 6896
  144.9364  139.4984  143.5593 H   0  0  0  0  0  0  0  0  0  0  0  0  # atno 7974 bound_to 7965
  154.4170  140.1729  156.1777 H   0  0  0  0  0  0  0  0  0  0  0  0  # atno 8008 bound_to 7997
  155.9708  140.3386  155.6550 H   0  0  0  0  0  0  0  0  0  0  0  0  # atno 8009 bound_to 7997
  155.6628  140.0703  157.2539 H   0  0  0  0  0  0  0  0  0  0  0  0  # atno 8010 bound_to 7997
  140.2336  143.3589  152.0865 H   0  0  0  0  0  0  0  0  0  0  0  0  # atno 10167 bound_to 10162
  156.4069  130.4400  149.7281 H   0  0  0  0  0  0  0  0  0  0  0  0  # atno 10718 bound_to 10713
  154.3065  135.6224  153.5447 H   0  0  0  0  0  0  0  0  0  0  0  0  # atno 10763 bound_to 10752
  152.9834  135.5691  154.5225 H   0  0  0  0  0  0  0  0  0  0  0  0  # atno 10764 bound_to 10752
  154.4866  135.2865  155.1505 H   0  0  0  0  0  0  0  0  0  0  0  0  # atno 10765 bound_to 10752
  140.7349  134.3579  157.5159 H   0  0  0  0  0  0  0  0  0  0  0  0  # atno 11005 bound_to 11000
  146.3268  139.8351  142.8901 LP  0  0  0  0  0  0  0  0  0  0  0  0  # atno 17320 bound_to 7965
  145.3060  141.0207  143.3581 LP  0  0  0  0  0  0  0  0  0  0  0  0  # atno 17321 bound_to 7965
  139.5101  144.6879  151.5838 LP  0  0  0  0  0  0  0  0  0  0  0  0  # atno 17342 bound_to 10162
  140.6167  143.9336  150.6494 LP  0  0  0  0  0  0  0  0  0  0  0  0  # atno 17343 bound_to 10162
  156.4275  130.7799  151.2818 LP  0  0  0  0  0  0  0  0  0  0  0  0  # atno 17370 bound_to 10713
  157.7506  131.0164  150.3543 LP  0  0  0  0  0  0  0  0  0  0  0  0  # atno 17371 bound_to 10713
  139.8818  134.9043  156.2873 LP  0  0  0  0  0  0  0  0  0  0  0  0  # atno 17394 bound_to 11000
  140.9888  133.7221  156.0782 LP  0  0  0  0  0  0  0  0  0  0  0  0  # atno 17395 bound_to 11000

$$$$
