AV-unprocessed.smi:102|AV-procd|sdf|947|dock9
  -GOLD-   2262017473D 1   1.00000     0.00000
 Structure written by MMmdl.
 44 45  0  0  0  0  0  0  0  0  1 V2000
  147.5216  135.0352  162.0457 C   0  0  0  0  0  0  0  0  0  0  0  0
  147.8750  135.7997  160.7771 C   0  0  0  0  0  0  0  0  0  0  0  0
  147.6337  137.0013  160.6616 O   0  0  0  0  0  0  0  0  0  0  0  0
  148.4530  135.0197  159.8534 O   0  0  0  0  0  0  0  0  0  0  0  0
  148.3532  135.3635  158.4800 C   0  0  0  0  0  0  0  0  0  0  0  0
  148.7791  134.1820  157.5969 C   0  0  2  0  0  0  0  0  0  0  0  0
  150.2000  134.0875  157.5287 O   0  0  0  0  0  0  0  0  0  0  0  0
  150.6408  134.1412  156.2037 C   0  0  2  0  0  0  0  0  0  0  0  0
  151.1212  135.5603  155.9295 N   0  0  0  0  0  0  0  0  0  0  0  0
  150.5373  136.4215  155.0025 C   0  0  0  0  0  0  0  0  0  0  0  0
  150.9537  137.6958  154.8114 C   0  0  0  0  0  0  0  0  0  0  0  0
  150.3353  138.4655  153.9000 F   0  0  0  0  0  0  0  0  0  0  0  0
  152.0560  138.2467  155.5915 C   0  0  0  0  0  0  0  0  0  0  0  0
  152.5012  139.3881  155.4902 O   0  0  0  0  0  0  0  0  0  0  0  0
  152.6039  137.3577  156.5182 N   0  0  0  0  0  0  0  0  0  0  0  0
  152.1841  136.0436  156.7272 C   0  0  0  0  0  0  0  0  0  0  0  0
  152.7383  135.3553  157.5835 O   0  0  0  0  0  0  0  0  0  0  0  0
  149.4447  133.6913  155.3483 C   0  0  1  0  0  0  0  0  0  0  0  0
  149.4182  132.2673  155.2938 O   0  0  0  0  0  0  0  0  0  0  0  0
  149.1213  131.6352  154.1452 C   0  0  0  0  0  0  0  0  0  0  0  0
  149.3148  130.1281  154.2446 C   0  0  0  0  0  0  0  0  0  0  0  0
  148.7417  132.1675  153.1023 O   0  0  0  0  0  0  0  0  0  0  0  0
  148.2636  134.2290  156.1543 C   0  0  1  0  0  0  0  0  0  0  0  0
  147.0794  133.4595  155.9797 O   0  0  0  0  0  0  0  0  0  0  0  0
  146.0111  133.6797  156.7660 C   0  0  0  0  0  0  0  0  0  0  0  0
  145.1704  132.4267  156.9716 C   0  0  0  0  0  0  0  0  0  0  0  0
  145.6985  134.7549  157.2778 O   0  0  0  0  0  0  0  0  0  0  0  0
  153.3655  137.6958  157.0881 H   0  0  0  0  0  0  0  0  0  0  0  0
  148.3687  134.4349  162.3780 H   0  0  0  0  0  0  0  0  0  0  0  0
  146.6761  134.3722  161.8628 H   0  0  0  0  0  0  0  0  0  0  0  0
  147.2526  135.7250  162.8457 H   0  0  0  0  0  0  0  0  0  0  0  0
  147.3277  135.6512  158.2444 H   0  0  0  0  0  0  0  0  0  0  0  0
  148.9893  136.2256  158.2747 H   0  0  0  0  0  0  0  0  0  0  0  0
  148.4425  133.2567  158.0661 H   0  0  0  0  0  0  0  0  0  0  0  0
  151.5260  133.5209  156.0482 H   0  0  0  0  0  0  0  0  0  0  0  0
  149.7120  136.1047  154.3871 H   0  0  0  0  0  0  0  0  0  0  0  0
  149.4848  134.0954  154.3371 H   0  0  0  0  0  0  0  0  0  0  0  0
  148.9674  129.7601  155.2102 H   0  0  0  0  0  0  0  0  0  0  0  0
  150.3694  129.8759  154.1353 H   0  0  0  0  0  0  0  0  0  0  0  0
  148.7544  129.6188  153.4603 H   0  0  0  0  0  0  0  0  0  0  0  0
  148.0737  135.2671  155.8829 H   0  0  0  0  0  0  0  0  0  0  0  0
  145.8055  131.5422  157.0259 H   0  0  0  0  0  0  0  0  0  0  0  0
  144.4720  132.3025  156.1440 H   0  0  0  0  0  0  0  0  0  0  0  0
  144.6002  132.4980  157.8980 H   0  0  0  0  0  0  0  0  0  0  0  0
  1  2  1  0  0  0  0
  1 29  1  0  0  0  0
  1 30  1  0  0  0  0
  1 31  1  0  0  0  0
  2  3  2  0  0  0  0
  2  4  1  0  0  0  0
  4  5  1  0  0  0  0
  5  6  1  0  0  0  0
  5 32  1  0  0  0  0
  5 33  1  0  0  0  0
  6 23  1  0  0  0  0
  6  7  1  0  0  0  0
  6 34  1  0  0  0  0
  7  8  1  0  0  0  0
  8  9  1  0  0  0  0
  8 18  1  0  0  0  0
  8 35  1  0  0  0  0
  9 16  1  0  0  0  0
  9 10  1  0  0  0  0
 10 11  2  0  0  0  0
 10 36  1  0  0  0  0
 11 12  1  0  0  0  0
 11 13  1  0  0  0  0
 13 14  2  0  0  0  0
 13 15  1  0  0  0  0
 15 28  1  0  0  0  0
 15 16  1  0  0  0  0
 16 17  2  0  0  0  0
 18 19  1  0  0  0  0
 18 23  1  0  0  0  0
 18 37  1  0  0  0  0
 19 20  1  0  0  0  0
 20 21  1  0  0  0  0
 20 22  2  0  0  0  0
 21 38  1  0  0  0  0
 21 39  1  0  0  0  0
 21 40  1  0  0  0  0
 23 24  1  0  0  0  0
 23 41  1  0  0  0  0
 24 25  1  0  0  0  0
 25 26  1  0  0  0  0
 25 27  2  0  0  0  0
 26 42  1  0  0  0  0
 26 43  1  0  0  0  0
 26 44  1  0  0  0  0
M  END
> <s_m_source_file>
AV-unprocessed.smi

> <i_m_source_file_index>
102

> <i_lp_mmshare_version>
43012

> <i_f3d_flags>
0

> <s_epik_input>
W0NIM11DKD1PKU9bQ0gyXVtDQEBIXTFPW0NASF0oW0NAQEhdKE9DKD1PKVtDSDNdKVtDQEhdMU9DKD1PKVtDSDNdKW4yW2NIXWMoRiljKD1PKVtuSF1jMj1P

> <s_epik_cmdline>
J2VwaWtfcHl0aG9uJywgJy1waCcsICc3LjAnLCAnLXRuJywgJzgnLCAnLW1hJywgJzIwMCcsICctbWV0YWxfYmluZGluZycsICctaW1hZScsICc8aW5maWxlLm1hZT4nLCAnLW9tYWUnLCAnPG91dGZpbGUubWFlPic=

> <r_lp_tautomer_probability>
0.999537

> <r_epik_Ionization_Penalty>
0.058267

> <r_epik_Ionization_Penalty_Charging>
0.058267

> <r_epik_Ionization_Penalty_Neutral>
6.57791e-16

> <r_epik_State_Penalty>
0.0503774

> <r_epik_Charging_Adjusted_Penalty>
0.108644

> <i_epik_Tot_Q>
0

> <i_epik_Tot_abs_Q>
0

> <r_epik_Metal_State_Penalty>
2.6644

> <b_epik_Metal_Only>
0

> <s_epik_Chemistry_Notes>
This compound has an ester and may undergo hydrolysis at high or low pH. This compound contains an acetal/aminal-like group ( X-CH(R)-Y where X, Y are N, S, or O) that may be acid/base labile, releasing an aldehyde.

> <s_lp_Force_Field>
OPLS_2005

> <r_lp_Energy>
12.8292

> <b_lp_Chiralities_Consistent>
1

> <s_lp_Variant>
AV-unprocessed.smi:102-3

> <Gold.Version>
5.8.1

> <Gold.Id.Protein>
6NUR|6NUR_protein|mol2

> <Gold.PLP.Fitness>
42.7551

> <Gold.PLP.PLP>
-33.3067

> <Gold.PLP.part.hbond>
-5.2946

> <Gold.PLP.part.metal>
0.0000

> <Gold.PLP.part.buried>
-5.1125

> <Gold.PLP.part.nonpolar>
-23.9083

> <Gold.PLP.part.repulsive>
0.3049

> <Gold.PLP.ligand.clash>
0.0000

> <Gold.PLP.ligand.torsion>
1.6878

> <Gold.PLP.Chemscore.Hbond>
3.6560

> <Gold.PLP.Chemscore.CHOScore>
0.5799

> <Gold.PLP.Chemscore.Metal>
0.0000

> <Gold.Chemscore.Hbonds>
donor molecule, donor type, donor heavy atom, donor atom, acceptor molecule, acceptor atom, score
      P1  H  6896  6907       L1     7  0.85
      P1  H  6931  6943       L1     3  0.39
      P1  H  6934  6947       L1     3  0.84
      P1  H  7997  8010       L1    14  0.78
      L1  C    10    36       P1  7948  0.81

> <Gold.PLP.Chemscore.Internal.Correction>
0.1161

> <Gold.Rescore>
     Score         DG    S(hbond)    S(metal)    S(lipo)     H(rot)  DE(clash)    DE(int)     intcor
      8.72     -11.65       3.75        0.00      34.24       4.05       0.00       2.92       ----

> <Gold.Chemscore.Fitness>
8.7225

> <Gold.Chemscore.DG>
-11.6509

> <Gold.Chemscore.ZeroCoef>
-5.4800

> <Gold.Chemscore.Hbond>
3.7541

> <Gold.Chemscore.Metal>
0.0000

> <Gold.Chemscore.Lipo>
34.2351

> <Gold.Chemscore.Internal_Hbond>
0.0000

> <Gold.Chemscore.DEClash>
0.0038

> <Gold.Chemscore.DEInternal>
2.9246

> <Gold.Chemscore.Rot>
4.0520

> <Gold.Chemscore.Internal.Correction>
   9.000000E+99

> <Gold.Chemscore.Hbonds>
donor molecule, donor type, donor heavy atom, donor atom, acceptor molecule, acceptor atom, score
      P1  H  6896  6907       L1     7  0.37
      P1  H  6931  6943       L1     3  0.32
      P1  H  6934  6947       L1     3  0.78
      P1  H  7997  8010       L1    14  0.77

> <Gold.Chemscore.Hbond.Weighted>
-12.5386

> <Gold.Chemscore.Metal.Weighted>
-0.0000

> <Gold.Chemscore.Lipo.Weighted>
-4.0055

> <Gold.Chemscore.Internal_Hbond.Weighted>
0.0000

> <Gold.Chemscore.DEClash.Weighted>
0.0038

> <Gold.Chemscore.DEInternal.Weighted>
2.9246

> <Gold.Chemscore.Rot.Weighted>
10.3732

> <Gold.Chemscore.Internal.Correction.Weighted>
   9.000000E+99

> <Gold.Protein.RotatedTorsions>
[ 6907 6896 6895 6894 ] final -106.35 input  -60.11 | X-H torsion
[ 7974 7965 7964 7962 ] final -111.91 input  175.53 | X-H torsion
[ 8008 7997 7996 7995 ] final   97.87 input   59.86 | X-H torsion
[ 10167 10162 10161 10158 ] final  -59.99 input  -65.29 | X-H torsion
[ 10718 10713 10712 10709 ] final   36.77 input   66.30 | X-H torsion
[ 10763 10752 10751 10750 ] final -104.96 input  -60.55 | X-H torsion
[ 11005 11000 10999 10996 ] final -136.65 input  -57.11 | X-H torsion

> <Gold.Protein.ActiveResidues>
 VAL166  LYS551  ARG553  GLY616  TRP617  ASP618  TYR619  PRO620  LYS621  CYS622 
 ASP623  PHE694  ASN695  SER759  ASP760  ASP761  ALA762  ILE779  LEU786  VAL792 
 PHE793  MET794  SER795  GLU796  ALA797  LYS798  CYS799  TRP800  GLU811  SER814 

> <Gold.Protein.RotatedAtoms>
  150.7384  133.9990  159.3631 H   0  0  0  0  0  0  0  0  0  0  0  0  # atno 6907 bound_to 6896
  151.7942  135.0725  160.0401 H   0  0  0  0  0  0  0  0  0  0  0  0  # atno 6908 bound_to 6896
  152.3186  133.5793  159.5765 H   0  0  0  0  0  0  0  0  0  0  0  0  # atno 6909 bound_to 6896
  145.1504  140.8826  143.3650 H   0  0  0  0  0  0  0  0  0  0  0  0  # atno 7974 bound_to 7965
  156.0946  140.3252  155.7860 H   0  0  0  0  0  0  0  0  0  0  0  0  # atno 8008 bound_to 7997
  155.4940  140.0564  157.2966 H   0  0  0  0  0  0  0  0  0  0  0  0  # atno 8009 bound_to 7997
  154.4658  140.1988  156.0138 H   0  0  0  0  0  0  0  0  0  0  0  0  # atno 8010 bound_to 7997
  140.6100  143.2384  151.5732 H   0  0  0  0  0  0  0  0  0  0  0  0  # atno 10167 bound_to 10162
  157.3389  130.7537  149.6898 H   0  0  0  0  0  0  0  0  0  0  0  0  # atno 10718 bound_to 10713
  154.7914  135.4767  154.0062 H   0  0  0  0  0  0  0  0  0  0  0  0  # atno 10763 bound_to 10752
  153.1637  135.6813  153.8713 H   0  0  0  0  0  0  0  0  0  0  0  0  # atno 10764 bound_to 10752
  153.8318  135.3190  155.3397 H   0  0  0  0  0  0  0  0  0  0  0  0  # atno 10765 bound_to 10752
  140.8785  134.1961  157.4606 H   0  0  0  0  0  0  0  0  0  0  0  0  # atno 11005 bound_to 11000
  145.0437  139.3238  143.5963 LP  0  0  0  0  0  0  0  0  0  0  0  0  # atno 17320 bound_to 7965
  146.3495  139.9820  142.8694 LP  0  0  0  0  0  0  0  0  0  0  0  0  # atno 17321 bound_to 7965
  139.5354  144.2797  152.1239 LP  0  0  0  0  0  0  0  0  0  0  0  0  # atno 17342 bound_to 10162
  140.1994  144.4673  150.6439 LP  0  0  0  0  0  0  0  0  0  0  0  0  # atno 17343 bound_to 10162
  155.9705  130.4173  150.4275 LP  0  0  0  0  0  0  0  0  0  0  0  0  # atno 17370 bound_to 10713
  157.2319  131.0506  151.2487 LP  0  0  0  0  0  0  0  0  0  0  0  0  # atno 17371 bound_to 10713
  139.8717  134.9807  156.5085 LP  0  0  0  0  0  0  0  0  0  0  0  0  # atno 17394 bound_to 11000
  140.8489  133.8147  155.9149 LP  0  0  0  0  0  0  0  0  0  0  0  0  # atno 17395 bound_to 11000

$$$$
