AV-unprocessed.smi:420|AV-procd|sdf|2532|dock3
  -GOLD-   2262022493D 1   1.00000     0.00000
 Structure written by MMmdl.
 36 38  0  0  0  0  0  0  0  0  1 V2000
  153.4550  140.6477  160.0315 C   0  0  0  0  0  0  0  0  0  0  0  0
  152.3964  141.3438  159.3104 N   0  0  0  0  0  0  0  0  0  0  0  0
  151.5750  140.8270  158.3663 C   0  0  0  0  0  0  0  0  0  0  0  0
  151.5830  139.6666  157.9558 O   0  0  0  0  0  0  0  0  0  0  0  0
  150.7419  141.8108  157.9528 N   0  0  0  0  0  0  0  0  0  0  0  0
  149.6845  141.6924  156.9511 C   0  0  0  0  0  0  0  0  0  0  0  0
  150.2514  141.3996  155.5478 C   0  0  2  0  0  0  0  0  0  0  0  0
  149.4163  142.0099  154.5838 O   0  0  0  0  0  0  0  0  0  0  0  0
  150.3667  139.9011  155.3133 C   0  0  0  0  0  0  0  0  0  0  0  0
  151.6389  139.3081  155.1632 C   0  0  0  0  0  0  0  0  0  0  0  0
  151.7553  137.9194  154.9580 C   0  0  0  0  0  0  0  0  0  0  0  0
  150.6007  137.1152  154.9040 C   0  0  0  0  0  0  0  0  0  0  0  0
  150.7136  135.7806  154.7066 F   0  0  0  0  0  0  0  0  0  0  0  0
  149.3292  137.6999  155.0579 C   0  0  0  0  0  0  0  0  0  0  0  0
  149.2122  139.0884  155.2635 C   0  0  0  0  0  0  0  0  0  0  0  0
  151.0335  142.9871  158.6583 C   0  0  0  0  0  0  0  0  0  0  0  0
  150.4546  144.2671  158.6045 C   0  0  0  0  0  0  0  0  0  0  0  0
  150.9894  145.2542  159.4653 C   0  0  0  0  0  0  0  0  0  0  0  0
  152.0654  144.9510  160.3400 C   0  0  0  0  0  0  0  0  0  0  0  0
  152.6283  143.6535  160.3743 C   0  0  0  0  0  0  0  0  0  0  0  0
  152.0765  142.6925  159.5102 C   0  0  0  0  0  0  0  0  0  0  0  0
  153.5036  139.5900  159.7692 H   0  0  0  0  0  0  0  0  0  0  0  0
  153.2886  140.7191  161.1066 H   0  0  0  0  0  0  0  0  0  0  0  0
  154.4223  141.0964  159.8040 H   0  0  0  0  0  0  0  0  0  0  0  0
  149.0422  140.8676  157.2626 H   0  0  0  0  0  0  0  0  0  0  0  0
  149.0441  142.5762  156.9405 H   0  0  0  0  0  0  0  0  0  0  0  0
  151.2449  141.8395  155.4491 H   0  0  0  0  0  0  0  0  0  0  0  0
  149.0662  142.8070  154.9514 H   0  0  0  0  0  0  0  0  0  0  0  0
  152.5312  139.9155  155.2078 H   0  0  0  0  0  0  0  0  0  0  0  0
  152.7307  137.4704  154.8436 H   0  0  0  0  0  0  0  0  0  0  0  0
  148.4430  137.0834  155.0202 H   0  0  0  0  0  0  0  0  0  0  0  0
  148.2327  139.5272  155.3862 H   0  0  0  0  0  0  0  0  0  0  0  0
  149.6353  144.4908  157.9373 H   0  0  0  0  0  0  0  0  0  0  0  0
  150.5738  146.2510  159.4566 H   0  0  0  0  0  0  0  0  0  0  0  0
  152.4590  145.7200  160.9884 H   0  0  0  0  0  0  0  0  0  0  0  0
  153.4461  143.4140  161.0379 H   0  0  0  0  0  0  0  0  0  0  0  0
  1  2  1  0  0  0  0
  1 22  1  0  0  0  0
  1 23  1  0  0  0  0
  1 24  1  0  0  0  0
  2 21  1  0  0  0  0
  2  3  1  0  0  0  0
  3  4  2  0  0  0  0
  3  5  1  0  0  0  0
  5  6  1  0  0  0  0
  5 16  1  0  0  0  0
  6  7  1  0  0  0  0
  6 25  1  0  0  0  0
  6 26  1  0  0  0  0
  7  8  1  0  0  0  0
  7  9  1  0  0  0  0
  7 27  1  0  0  0  0
  8 28  1  0  0  0  0
  9 15  1  0  0  0  0
  9 10  2  0  0  0  0
 10 11  1  0  0  0  0
 10 29  1  0  0  0  0
 11 12  2  0  0  0  0
 11 30  1  0  0  0  0
 12 13  1  0  0  0  0
 12 14  1  0  0  0  0
 14 15  2  0  0  0  0
 14 31  1  0  0  0  0
 15 32  1  0  0  0  0
 16 21  2  0  0  0  0
 16 17  1  0  0  0  0
 17 18  2  0  0  0  0
 17 33  1  0  0  0  0
 18 19  1  0  0  0  0
 18 34  1  0  0  0  0
 19 20  2  0  0  0  0
 19 35  1  0  0  0  0
 20 21  1  0  0  0  0
 20 36  1  0  0  0  0
M  END
> <s_m_source_file>
AV-unprocessed.smi

> <i_m_source_file_index>
420

> <i_lp_mmshare_version>
43012

> <i_f3d_flags>
0

> <s_epik_input>
W2NIXTFbY0hdW2NIXVtjSF1jKGMxMiluKFtDSDNdKWMoPU8pbjJbQ0gyXVtDQEhdKFtPSF0pYzNbY0hdW2NIXWMoRilbY0hdW2NIXTM=

> <s_epik_cmdline>
J2VwaWtfcHl0aG9uJywgJy1waCcsICc3LjAnLCAnLXRuJywgJzgnLCAnLW1hJywgJzIwMCcsICctbWV0YWxfYmluZGluZycsICctaW1hZScsICc8aW5maWxlLm1hZT4nLCAnLW9tYWUnLCAnPG91dGZpbGUubWFlPic=

> <r_lp_tautomer_probability>
1

> <r_epik_Ionization_Penalty>
1.79795e-06

> <r_epik_Ionization_Penalty_Charging>
2.57375e-09

> <r_epik_Ionization_Penalty_Neutral>
1.79538e-06

> <r_epik_State_Penalty>
-0

> <r_epik_Charging_Adjusted_Penalty>
2.57375e-09

> <i_epik_Tot_Q>
0

> <i_epik_Tot_abs_Q>
0

> <r_epik_Metal_State_Penalty>
-0

> <b_epik_Metal_Only>
0

> <s_lp_Force_Field>
OPLS_2005

> <r_lp_Energy>
42.8676

> <b_lp_Chiralities_Consistent>
1

> <s_lp_Variant>
AV-unprocessed.smi:420-1

> <Gold.Version>
5.8.1

> <Gold.Id.Protein>
6NUR|6NUR_protein|mol2

> <Gold.PLP.Fitness>
48.8035

> <Gold.PLP.PLP>
-46.4099

> <Gold.PLP.part.hbond>
-2.6344

> <Gold.PLP.part.metal>
0.0000

> <Gold.PLP.part.buried>
-3.7297

> <Gold.PLP.part.nonpolar>
-39.7312

> <Gold.PLP.part.repulsive>
0.0000

> <Gold.PLP.ligand.clash>
0.0000

> <Gold.PLP.ligand.torsion>
0.4708

> <Gold.PLP.Chemscore.Hbond>
1.1092

> <Gold.PLP.Chemscore.CHOScore>
0.0000

> <Gold.PLP.Chemscore.Metal>
0.0000

> <Gold.Chemscore.Hbonds>
donor molecule, donor type, donor heavy atom, donor atom, acceptor molecule, acceptor atom, score
      L1  H     8    28       P1  8028  0.99
      P1  H  8011  8017       L1     8  0.10

> <Gold.PLP.Chemscore.Internal.Correction>
0.0074

> <Gold.Rescore>
     Score         DG    S(hbond)    S(metal)    S(lipo)     H(rot)  DE(clash)    DE(int)     intcor
     15.17     -18.44       1.11        0.00     119.56       1.85       0.39       2.88       ----

> <Gold.Chemscore.Fitness>
15.1722

> <Gold.Chemscore.DG>
-18.4421

> <Gold.Chemscore.ZeroCoef>
-5.4800

> <Gold.Chemscore.Hbond>
1.1080

> <Gold.Chemscore.Metal>
0.0000

> <Gold.Chemscore.Lipo>
119.5592

> <Gold.Chemscore.Internal_Hbond>
0.0000

> <Gold.Chemscore.DEClash>
0.3877

> <Gold.Chemscore.DEInternal>
2.8821

> <Gold.Chemscore.Rot>
1.8465

> <Gold.Chemscore.Internal.Correction>
   9.000000E+99

> <Gold.Chemscore.Hbonds>
donor molecule, donor type, donor heavy atom, donor atom, acceptor molecule, acceptor atom, score
      L1  H     8    28       P1  8028  0.92
      P1  H  8011  8017       L1     8  0.05

> <Gold.Chemscore.Hbond.Weighted>
-3.7007

> <Gold.Chemscore.Metal.Weighted>
-0.0000

> <Gold.Chemscore.Lipo.Weighted>
-13.9884

> <Gold.Chemscore.Internal_Hbond.Weighted>
0.0000

> <Gold.Chemscore.DEClash.Weighted>
0.3877

> <Gold.Chemscore.DEInternal.Weighted>
2.8821

> <Gold.Chemscore.Rot.Weighted>
4.7270

> <Gold.Chemscore.Internal.Correction.Weighted>
   9.000000E+99

> <Gold.Protein.RotatedTorsions>
[ 6907 6896 6895 6894 ] final  -82.61 input  -60.11 | X-H torsion
[ 7974 7965 7964 7962 ] final   48.86 input  175.53 | X-H torsion
[ 8008 7997 7996 7995 ] final   56.80 input   59.86 | X-H torsion
[ 10167 10162 10161 10158 ] final  -93.17 input  -65.29 | X-H torsion
[ 10718 10713 10712 10709 ] final  -37.76 input   66.30 | X-H torsion
[ 10763 10752 10751 10750 ] final -131.70 input  -60.55 | X-H torsion
[ 11005 11000 10999 10996 ] final  132.20 input  -57.11 | X-H torsion

> <Gold.Protein.ActiveResidues>
 VAL166  LYS551  ARG553  GLY616  TRP617  ASP618  TYR619  PRO620  LYS621  CYS622 
 ASP623  PHE694  ASN695  SER759  ASP760  ASP761  ALA762  ILE779  LEU786  VAL792 
 PHE793  MET794  SER795  GLU796  ALA797  LYS798  CYS799  TRP800  GLU811  SER814 

> <Gold.Protein.RotatedAtoms>
  150.6895  134.3638  159.4961 H   0  0  0  0  0  0  0  0  0  0  0  0  # atno 6907 bound_to 6896
  152.1464  134.9020  160.0560 H   0  0  0  0  0  0  0  0  0  0  0  0  # atno 6908 bound_to 6896
  152.0134  133.3835  159.4266 H   0  0  0  0  0  0  0  0  0  0  0  0  # atno 6909 bound_to 6896
  146.0164  139.4601  142.9924 H   0  0  0  0  0  0  0  0  0  0  0  0  # atno 7974 bound_to 7965
  155.5233  140.3480  155.4411 H   0  0  0  0  0  0  0  0  0  0  0  0  # atno 8008 bound_to 7997
  156.0769  140.1377  156.9787 H   0  0  0  0  0  0  0  0  0  0  0  0  # atno 8009 bound_to 7997
  154.4558  140.0954  156.6729 H   0  0  0  0  0  0  0  0  0  0  0  0  # atno 8010 bound_to 7997
  140.3274  143.3014  151.9979 H   0  0  0  0  0  0  0  0  0  0  0  0  # atno 10167 bound_to 10162
  156.3115  130.4253  149.8046 H   0  0  0  0  0  0  0  0  0  0  0  0  # atno 10718 bound_to 10713
  154.8749  135.3821  154.4289 H   0  0  0  0  0  0  0  0  0  0  0  0  # atno 10763 bound_to 10752
  153.4985  135.7030  153.5850 H   0  0  0  0  0  0  0  0  0  0  0  0  # atno 10764 bound_to 10752
  153.4192  135.3906  155.2067 H   0  0  0  0  0  0  0  0  0  0  0  0  # atno 10765 bound_to 10752
  139.9775  134.9558  156.9547 H   0  0  0  0  0  0  0  0  0  0  0  0  # atno 11005 bound_to 11000
  145.7262  141.0058  143.1376 LP  0  0  0  0  0  0  0  0  0  0  0  0  # atno 17320 bound_to 7965
  144.6972  139.8930  143.7454 LP  0  0  0  0  0  0  0  0  0  0  0  0  # atno 17321 bound_to 7965
  139.4863  144.6262  151.7159 LP  0  0  0  0  0  0  0  0  0  0  0  0  # atno 17342 bound_to 10162
  140.5428  144.0551  150.6095 LP  0  0  0  0  0  0  0  0  0  0  0  0  # atno 17343 bound_to 10162
  156.5387  130.8290  151.3262 LP  0  0  0  0  0  0  0  0  0  0  0  0  # atno 17370 bound_to 10713
  157.7392  130.9827  150.2298 LP  0  0  0  0  0  0  0  0  0  0  0  0  # atno 17371 bound_to 10713
  140.5164  134.0951  155.7282 LP  0  0  0  0  0  0  0  0  0  0  0  0  # atno 17394 bound_to 11000
  141.1451  133.9069  157.2234 LP  0  0  0  0  0  0  0  0  0  0  0  0  # atno 17395 bound_to 11000

$$$$
