AV-unprocessed.smi:2386|AV-procd|sdf|9467|dock10
  -GOLD-   2272013 93D 1   1.00000     0.00000
 Structure written by MMmdl.
 43 44  0  0  0  0  0  0  0  0  2 V2000
  153.6002  141.2098  160.2608 C   0  0  0  0  0  0  0  0  0  0  0  0
  152.7593  142.3464  159.7189 C   0  0  0  0  0  0  0  0  0  0  0  0
  152.7551  143.6080  160.3455 C   0  0  0  0  0  0  0  0  0  0  0  0
  151.9532  144.6211  159.7905 C   0  0  0  0  0  0  0  0  0  0  0  0
  151.1953  144.3334  158.6391 C   0  0  0  0  0  0  0  0  0  0  0  0
  151.2563  143.0409  158.0716 C   0  0  0  0  0  0  0  0  0  0  0  0
  150.4573  142.8548  156.9122 N   0  0  0  0  0  0  0  0  0  0  0  0
  150.3177  141.7436  156.1680 C   0  0  0  0  0  0  0  0  0  0  0  0
  150.8702  140.6647  156.3845 O   0  0  0  0  0  0  0  0  0  0  0  0
  149.4798  141.9501  155.1416 N   0  0  0  0  0  0  0  0  0  0  0  0
  149.1152  140.9541  154.1387 C   0  0  0  0  0  0  0  0  0  0  0  0
  147.6402  140.5172  154.2303 C   0  0  0  0  0  0  0  0  0  0  0  0
  147.2830  139.3398  153.3032 C   0  0  0  0  0  0  0  0  0  0  0  0
  145.9009  138.8475  153.5274 N   0  3  0  0  0  0  0  0  0  0  0  0
  145.5932  137.6363  152.7297 C   0  0  0  0  0  0  0  0  0  0  0  0
  144.1379  137.1947  152.9585 C   0  0  0  0  0  0  0  0  0  0  0  0
  143.9218  136.9649  154.3448 O   0  0  0  0  0  0  0  0  0  0  0  0
  144.1259  138.1420  155.1160 C   0  0  0  0  0  0  0  0  0  0  0  0
  145.5795  138.6196  154.9585 C   0  0  0  0  0  0  0  0  0  0  0  0
  152.0310  142.0696  158.6156 N   0  0  0  0  0  0  0  0  0  0  0  0
  154.1423  141.5110  161.1576 H   0  0  0  0  0  0  0  0  0  0  0  0
  154.3279  140.8885  159.5152 H   0  0  0  0  0  0  0  0  0  0  0  0
  152.9686  140.3582  160.5150 H   0  0  0  0  0  0  0  0  0  0  0  0
  153.3493  143.7978  161.2273 H   0  0  0  0  0  0  0  0  0  0  0  0
  151.9197  145.6031  160.2390 H   0  0  0  0  0  0  0  0  0  0  0  0
  150.5753  145.1012  158.1996 H   0  0  0  0  0  0  0  0  0  0  0  0
  149.9360  143.6649  156.6121 H   0  0  0  0  0  0  0  0  0  0  0  0
  149.0754  142.8692  155.0366 H   0  0  0  0  0  0  0  0  0  0  0  0
  149.3117  141.3801  153.1545 H   0  0  0  0  0  0  0  0  0  0  0  0
  149.7693  140.0856  154.2323 H   0  0  0  0  0  0  0  0  0  0  0  0
  147.4344  140.2525  155.2670 H   0  0  0  0  0  0  0  0  0  0  0  0
  146.9923  141.3652  154.0052 H   0  0  0  0  0  0  0  0  0  0  0  0
  147.3700  139.6771  152.2696 H   0  0  0  0  0  0  0  0  0  0  0  0
  147.9954  138.5218  153.4200 H   0  0  0  0  0  0  0  0  0  0  0  0
  145.7490  137.8402  151.6698 H   0  0  0  0  0  0  0  0  0  0  0  0
  146.2762  136.8319  153.0067 H   0  0  0  0  0  0  0  0  0  0  0  0
  143.4390  137.9462  152.5879 H   0  0  0  0  0  0  0  0  0  0  0  0
  143.9344  136.2738  152.4121 H   0  0  0  0  0  0  0  0  0  0  0  0
  143.4244  138.9194  154.8093 H   0  0  0  0  0  0  0  0  0  0  0  0
  143.9157  137.9188  156.1620 H   0  0  0  0  0  0  0  0  0  0  0  0
  146.2603  137.8743  155.3725 H   0  0  0  0  0  0  0  0  0  0  0  0
  145.7213  139.5345  155.5327 H   0  0  0  0  0  0  0  0  0  0  0  0
  145.2784  139.5696  153.1934 H   0  0  0  0  0  0  0  0  0  0  0  0
  1  2  1  0  0  0  0
  1 21  1  0  0  0  0
  1 22  1  0  0  0  0
  1 23  1  0  0  0  0
  2 20  1  0  0  0  0
  2  3  2  0  0  0  0
  3  4  1  0  0  0  0
  3 24  1  0  0  0  0
  4  5  2  0  0  0  0
  4 25  1  0  0  0  0
  5  6  1  0  0  0  0
  5 26  1  0  0  0  0
  6  7  1  0  0  0  0
  6 20  2  0  0  0  0
  7  8  1  0  0  0  0
  7 27  1  0  0  0  0
  8  9  2  0  0  0  0
  8 10  1  0  0  0  0
 10 11  1  0  0  0  0
 10 28  1  0  0  0  0
 11 12  1  0  0  0  0
 11 29  1  0  0  0  0
 11 30  1  0  0  0  0
 12 13  1  0  0  0  0
 12 31  1  0  0  0  0
 12 32  1  0  0  0  0
 13 14  1  0  0  0  0
 13 33  1  0  0  0  0
 13 34  1  0  0  0  0
 14 19  1  0  0  0  0
 14 15  1  0  0  0  0
 14 43  1  0  0  0  0
 15 16  1  0  0  0  0
 15 35  1  0  0  0  0
 15 36  1  0  0  0  0
 16 17  1  0  0  0  0
 16 37  1  0  0  0  0
 16 38  1  0  0  0  0
 17 18  1  0  0  0  0
 18 19  1  0  0  0  0
 18 39  1  0  0  0  0
 18 40  1  0  0  0  0
 19 41  1  0  0  0  0
 19 42  1  0  0  0  0
M  CHG  1  14   1
M  END
> <s_m_source_file>
AV-unprocessed.smi

> <i_m_source_file_index>
2386

> <i_lp_mmshare_version>
43012

> <i_f3d_flags>
0

> <s_epik_input>
W0NIM11jMVtjSF1bY0hdW2NIXWMobjEpW05IXUMoPU8pW05IXVtDSDJdW0NIMl1bQ0gyXU4yW0NIMl1bQ0gyXU9bQ0gyXVtDSDJdMg==

> <s_epik_cmdline>
J2VwaWtfcHl0aG9uJywgJy1waCcsICc3LjAnLCAnLXRuJywgJzgnLCAnLW1hJywgJzIwMCcsICctbWV0YWxfYmluZGluZycsICctaW1hZScsICc8aW5maWxlLm1hZT4nLCAnLW9tYWUnLCAnPG91dGZpbGUubWFlPic=

> <r_epik_Ionization_Penalty>
0.270568

> <r_epik_Ionization_Penalty_Charging>
0.270496

> <r_epik_Ionization_Penalty_Neutral>
7.21828e-05

> <r_epik_State_Penalty>
0.262618

> <r_epik_Charging_Adjusted_Penalty>
0.533114

> <i_epik_Tot_Q>
1

> <i_epik_Tot_abs_Q>
1

> <r_epik_Metal_State_Penalty>
0.26262

> <b_epik_Metal_Only>
0

> <s_lp_Force_Field>
OPLS_2005

> <r_lp_Energy>
18.5564

> <b_lp_Chiralities_Consistent>
1

> <s_lp_Variant>
AV-unprocessed.smi:2386-1

> <Gold.Version>
5.8.1

> <Gold.Id.Protein>
6NUR|6NUR_protein|mol2

> <Gold.PLP.Fitness>
50.3597

> <Gold.PLP.PLP>
-38.5149

> <Gold.PLP.part.hbond>
-3.0000

> <Gold.PLP.part.metal>
0.0000

> <Gold.PLP.part.buried>
-3.3158

> <Gold.PLP.part.nonpolar>
-32.3630

> <Gold.PLP.part.repulsive>
0.3278

> <Gold.PLP.ligand.clash>
0.0000

> <Gold.PLP.ligand.torsion>
0.0942

> <Gold.PLP.Chemscore.Hbond>
4.0000

> <Gold.PLP.Chemscore.CHOScore>
0.0000

> <Gold.PLP.Chemscore.Metal>
0.0000

> <Gold.Chemscore.Hbonds>
donor molecule, donor type, donor heavy atom, donor atom, acceptor molecule, acceptor atom, score
      L1  H     7    27       P1  8028  1.00
      L1  H    10    28       P1  8028  1.00
      L1  H    14    43       P1 10175  2.00

> <Gold.PLP.Chemscore.Internal.Correction>
0.0331

> <Gold.Rescore>
     Score         DG    S(hbond)    S(metal)    S(lipo)     H(rot)  DE(clash)    DE(int)     intcor
     19.79     -21.25       2.95        0.00      89.07       1.76       0.04       1.42       ----

> <Gold.Chemscore.Fitness>
19.7852

> <Gold.Chemscore.DG>
-21.2495

> <Gold.Chemscore.ZeroCoef>
-5.4800

> <Gold.Chemscore.Hbond>
2.9497

> <Gold.Chemscore.Metal>
0.0000

> <Gold.Chemscore.Lipo>
89.0737

> <Gold.Chemscore.Internal_Hbond>
0.0000

> <Gold.Chemscore.DEClash>
0.0437

> <Gold.Chemscore.DEInternal>
1.4206

> <Gold.Chemscore.Rot>
1.7593

> <Gold.Chemscore.Internal.Correction>
   9.000000E+99

> <Gold.Chemscore.Hbonds>
donor molecule, donor type, donor heavy atom, donor atom, acceptor molecule, acceptor atom, score
      L1  H     7    27       P1  8028  1.00
      L1  H    10    28       P1  8028  0.94
      L1  H    14    43       P1 10175  0.98

> <Gold.Chemscore.Hbond.Weighted>
-9.8518

> <Gold.Chemscore.Metal.Weighted>
-0.0000

> <Gold.Chemscore.Lipo.Weighted>
-10.4216

> <Gold.Chemscore.Internal_Hbond.Weighted>
0.0000

> <Gold.Chemscore.DEClash.Weighted>
0.0437

> <Gold.Chemscore.DEInternal.Weighted>
1.4206

> <Gold.Chemscore.Rot.Weighted>
4.5039

> <Gold.Chemscore.Internal.Correction.Weighted>
   9.000000E+99

> <Gold.Protein.RotatedTorsions>
[ 6907 6896 6895 6894 ] final  -73.25 input  -60.11 | X-H torsion
[ 7974 7965 7964 7962 ] final -145.03 input  175.53 | X-H torsion
[ 8008 7997 7996 7995 ] final  140.22 input   59.86 | X-H torsion
[ 10167 10162 10161 10158 ] final  152.12 input  -65.29 | X-H torsion
[ 10718 10713 10712 10709 ] final   24.98 input   66.30 | X-H torsion
[ 10763 10752 10751 10750 ] final   67.52 input  -60.55 | X-H torsion
[ 11005 11000 10999 10996 ] final -164.59 input  -57.11 | X-H torsion

> <Gold.Protein.ActiveResidues>
 VAL166  LYS551  ARG553  GLY616  TRP617  ASP618  TYR619  PRO620  LYS621  CYS622 
 ASP623  PHE694  ASN695  SER759  ASP760  ASP761  ALA762  ILE779  LEU786  VAL792 
 PHE793  MET794  SER795  GLU796  ALA797  LYS798  CYS799  TRP800  GLU811  SER814 

> <Gold.Protein.RotatedAtoms>
  150.7137  134.5043  159.5576 H   0  0  0  0  0  0  0  0  0  0  0  0  # atno 6907 bound_to 6896
  152.2634  134.8007  160.0436 H   0  0  0  0  0  0  0  0  0  0  0  0  # atno 6908 bound_to 6896
  151.8713  133.3441  159.3772 H   0  0  0  0  0  0  0  0  0  0  0  0  # atno 6909 bound_to 6896
  144.8256  140.5636  143.5549 H   0  0  0  0  0  0  0  0  0  0  0  0  # atno 7974 bound_to 7965
  156.2981  140.2347  156.4366 H   0  0  0  0  0  0  0  0  0  0  0  0  # atno 8008 bound_to 7997
  154.8223  140.0437  157.1439 H   0  0  0  0  0  0  0  0  0  0  0  0  # atno 8009 bound_to 7997
  154.9301  140.3015  155.5175 H   0  0  0  0  0  0  0  0  0  0  0  0  # atno 8010 bound_to 7997
  139.4835  144.5384  151.7606 H   0  0  0  0  0  0  0  0  0  0  0  0  # atno 10167 bound_to 10162
  157.1871  130.6829  149.6135 H   0  0  0  0  0  0  0  0  0  0  0  0  # atno 10718 bound_to 10713
  153.0190  135.5281  154.6992 H   0  0  0  0  0  0  0  0  0  0  0  0  # atno 10763 bound_to 10752
  154.6105  135.2878  155.0439 H   0  0  0  0  0  0  0  0  0  0  0  0  # atno 10764 bound_to 10752
  154.1462  135.6570  153.5006 H   0  0  0  0  0  0  0  0  0  0  0  0  # atno 10765 bound_to 10752
  140.5851  134.5101  157.5184 H   0  0  0  0  0  0  0  0  0  0  0  0  # atno 11005 bound_to 11000
  145.5008  139.1483  143.3658 LP  0  0  0  0  0  0  0  0  0  0  0  0  # atno 17320 bound_to 7965
  146.2561  140.5147  142.8873 LP  0  0  0  0  0  0  0  0  0  0  0  0  # atno 17321 bound_to 7965
  140.4920  144.1296  150.5952 LP  0  0  0  0  0  0  0  0  0  0  0  0  # atno 17342 bound_to 10162
  140.4160  143.2634  151.9774 LP  0  0  0  0  0  0  0  0  0  0  0  0  # atno 17343 bound_to 10162
  155.9716  130.4627  150.6155 LP  0  0  0  0  0  0  0  0  0  0  0  0  # atno 17370 bound_to 10713
  157.3896  131.0793  151.1405 LP  0  0  0  0  0  0  0  0  0  0  0  0  # atno 17371 bound_to 10713
  139.9299  134.7983  156.0960 LP  0  0  0  0  0  0  0  0  0  0  0  0  # atno 17394 bound_to 11000
  141.0971  133.6691  156.2669 LP  0  0  0  0  0  0  0  0  0  0  0  0  # atno 17395 bound_to 11000

$$$$
