AV-unprocessed.smi:607|AV-procd|sdf|3042|dock7
  -GOLD-   2262023563D 1   1.00000     0.00000
 Structure written by MMmdl.
 42 43  0  0  0  0  0  0  0  0  1 V2000
  151.1862  145.3982  159.9641 C   0  0  0  0  0  0  0  0  0  0  0  0
  151.9455  144.2158  160.4943 C   0  0  0  0  0  0  0  0  0  0  0  0
  152.2268  144.1552  161.7845 N   0  0  0  0  0  0  0  0  0  0  0  0
  152.9014  142.9992  161.9351 N   0  0  0  0  0  0  0  0  0  0  0  0
  153.3718  142.6213  163.2537 C   0  0  0  0  0  0  0  0  0  0  0  0
  153.0422  142.3232  160.7384 C   0  0  0  0  0  0  0  0  0  0  0  0
  153.7598  141.0122  160.6556 C   0  0  0  0  0  0  0  0  0  0  0  0
  152.4403  143.0902  159.7710 C   0  0  0  0  0  0  0  0  0  0  0  0
  152.3057  142.8509  158.2796 C   0  0  2  0  0  0  0  0  0  0  0  0
  152.4230  144.1653  157.4857 C   0  0  0  0  0  0  0  0  0  0  0  0
  151.0134  142.0727  157.9802 C   0  0  0  0  0  0  0  0  0  0  0  0
  150.3062  141.6459  158.8933 O   0  0  0  0  0  0  0  0  0  0  0  0
  150.7219  141.8862  156.6821 N   0  0  0  0  0  0  0  0  0  0  0  0
  149.6032  141.1057  156.1565 C   0  0  0  0  0  0  0  0  0  0  0  0
  149.6566  139.7016  156.6083 C   0  0  0  0  0  0  0  0  0  0  0  0
  149.6985  138.6012  156.9641 N   0  0  0  0  0  0  0  0  0  0  0  0
  148.2438  141.7468  156.4959 C   0  0  0  0  0  0  0  0  0  0  0  0
  147.2985  141.4188  155.3311 C   0  0  0  0  0  0  0  0  0  0  0  0
  148.1773  140.8748  154.1994 C   0  0  0  0  0  0  0  0  0  0  0  0
  149.6182  141.1616  154.6234 C   0  0  0  0  0  0  0  0  0  0  0  0
  151.8115  145.9960  159.3009 H   0  0  0  0  0  0  0  0  0  0  0  0
  150.8368  146.0492  160.7664 H   0  0  0  0  0  0  0  0  0  0  0  0
  150.3122  145.0768  159.3973 H   0  0  0  0  0  0  0  0  0  0  0  0
  154.4164  142.3138  163.1984 H   0  0  0  0  0  0  0  0  0  0  0  0
  152.7744  141.7909  163.6308 H   0  0  0  0  0  0  0  0  0  0  0  0
  153.2910  143.4602  163.9467 H   0  0  0  0  0  0  0  0  0  0  0  0
  153.4998  140.4708  159.7474 H   0  0  0  0  0  0  0  0  0  0  0  0
  153.5080  140.3711  161.5004 H   0  0  0  0  0  0  0  0  0  0  0  0
  154.8390  141.1650  160.6556 H   0  0  0  0  0  0  0  0  0  0  0  0
  153.1168  142.2082  157.9358 H   0  0  0  0  0  0  0  0  0  0  0  0
  151.6508  144.8820  157.7653 H   0  0  0  0  0  0  0  0  0  0  0  0
  152.3417  143.9900  156.4123 H   0  0  0  0  0  0  0  0  0  0  0  0
  153.3890  144.6382  157.6644 H   0  0  0  0  0  0  0  0  0  0  0  0
  151.3593  142.2735  156.0017 H   0  0  0  0  0  0  0  0  0  0  0  0
  147.8494  141.4022  157.4527 H   0  0  0  0  0  0  0  0  0  0  0  0
  148.3468  142.8311  156.5660 H   0  0  0  0  0  0  0  0  0  0  0  0
  146.5574  140.6751  155.6261 H   0  0  0  0  0  0  0  0  0  0  0  0
  146.7565  142.3111  155.0161 H   0  0  0  0  0  0  0  0  0  0  0  0
  148.0311  139.7977  154.1107 H   0  0  0  0  0  0  0  0  0  0  0  0
  147.9359  141.3192  153.2335 H   0  0  0  0  0  0  0  0  0  0  0  0
  149.8934  142.1620  154.2847 H   0  0  0  0  0  0  0  0  0  0  0  0
  150.3289  140.4616  154.1821 H   0  0  0  0  0  0  0  0  0  0  0  0
  1  2  1  0  0  0  0
  1 21  1  0  0  0  0
  1 22  1  0  0  0  0
  1 23  1  0  0  0  0
  2  8  1  0  0  0  0
  2  3  2  0  0  0  0
  3  4  1  0  0  0  0
  4  5  1  0  0  0  0
  4  6  1  0  0  0  0
  5 24  1  0  0  0  0
  5 25  1  0  0  0  0
  5 26  1  0  0  0  0
  6  7  1  0  0  0  0
  6  8  2  0  0  0  0
  7 27  1  0  0  0  0
  7 28  1  0  0  0  0
  7 29  1  0  0  0  0
  8  9  1  0  0  0  0
  9 10  1  0  0  0  0
  9 11  1  0  0  0  0
  9 30  1  0  0  0  0
 10 31  1  0  0  0  0
 10 32  1  0  0  0  0
 10 33  1  0  0  0  0
 11 12  2  0  0  0  0
 11 13  1  0  0  0  0
 13 14  1  0  0  0  0
 13 34  1  0  0  0  0
 14 20  1  0  0  0  0
 14 15  1  0  0  0  0
 14 17  1  0  0  0  0
 15 16  3  0  0  0  0
 17 18  1  0  0  0  0
 17 35  1  0  0  0  0
 17 36  1  0  0  0  0
 18 19  1  0  0  0  0
 18 37  1  0  0  0  0
 18 38  1  0  0  0  0
 19 20  1  0  0  0  0
 19 39  1  0  0  0  0
 19 40  1  0  0  0  0
 20 41  1  0  0  0  0
 20 42  1  0  0  0  0
M  END
> <s_m_source_file>
AV-unprocessed.smi

> <i_m_source_file_index>
607

> <i_lp_mmshare_version>
43012

> <i_f3d_flags>
0

> <s_epik_input>
W0NIM11jMW5uKFtDSDNdKWMoW0NIM10pYzFbQ0BIXShbQ0gzXSlDKD1PKVtOSF1DMihDI04pW0NIMl1bQ0gyXVtDSDJdW0NIMl0y

> <s_epik_cmdline>
J2VwaWtfcHl0aG9uJywgJy1waCcsICc3LjAnLCAnLXRuJywgJzgnLCAnLW1hJywgJzIwMCcsICctbWV0YWxfYmluZGluZycsICctaW1hZScsICc8aW5maWxlLm1hZT4nLCAnLW9tYWUnLCAnPG91dGZpbGUubWFlPic=

> <r_lp_tautomer_probability>
1

> <r_epik_Ionization_Penalty>
0.00342632

> <r_epik_Ionization_Penalty_Charging>
0

> <r_epik_Ionization_Penalty_Neutral>
0.00342632

> <r_epik_State_Penalty>
0.00242724

> <r_epik_Charging_Adjusted_Penalty>
0.00242724

> <i_epik_Tot_Q>
0

> <i_epik_Tot_abs_Q>
0

> <r_epik_Metal_State_Penalty>
-0

> <b_epik_Metal_Only>
0

> <s_lp_Force_Field>
OPLS_2005

> <r_lp_Energy>
13.4407

> <b_lp_Chiralities_Consistent>
1

> <s_lp_Variant>
AV-unprocessed.smi:607-1

> <Gold.Version>
5.8.1

> <Gold.Id.Protein>
6NUR|6NUR_protein|mol2

> <Gold.PLP.Fitness>
44.9583

> <Gold.PLP.PLP>
-46.5848

> <Gold.PLP.part.hbond>
-0.9043

> <Gold.PLP.part.metal>
0.0000

> <Gold.PLP.part.buried>
-5.8711

> <Gold.PLP.part.nonpolar>
-39.7817

> <Gold.PLP.part.repulsive>
0.2485

> <Gold.PLP.ligand.clash>
0.0000

> <Gold.PLP.ligand.torsion>
0.8677

> <Gold.PLP.Chemscore.Hbond>
0.0000

> <Gold.PLP.Chemscore.CHOScore>
0.0000

> <Gold.PLP.Chemscore.Metal>
0.0000

> <Gold.PLP.Chemscore.Internal.Correction>
0.1089

> <Gold.Rescore>
     Score         DG    S(hbond)    S(metal)    S(lipo)     H(rot)  DE(clash)    DE(int)     intcor
     14.15     -16.13       0.00        0.00     121.08       1.37       0.18       1.80       ----

> <Gold.Chemscore.Fitness>
14.1490

> <Gold.Chemscore.DG>
-16.1344

> <Gold.Chemscore.ZeroCoef>
-5.4800

> <Gold.Chemscore.Hbond>
0.0000

> <Gold.Chemscore.Metal>
0.0000

> <Gold.Chemscore.Lipo>
121.0826

> <Gold.Chemscore.Internal_Hbond>
0.0000

> <Gold.Chemscore.DEClash>
0.1826

> <Gold.Chemscore.DEInternal>
1.8028

> <Gold.Chemscore.Rot>
1.3720

> <Gold.Chemscore.Internal.Correction>
   9.000000E+99

> <Gold.Chemscore.Hbond.Weighted>
-0.0000

> <Gold.Chemscore.Metal.Weighted>
-0.0000

> <Gold.Chemscore.Lipo.Weighted>
-14.1667

> <Gold.Chemscore.Internal_Hbond.Weighted>
0.0000

> <Gold.Chemscore.DEClash.Weighted>
0.1826

> <Gold.Chemscore.DEInternal.Weighted>
1.8028

> <Gold.Chemscore.Rot.Weighted>
3.5123

> <Gold.Chemscore.Internal.Correction.Weighted>
   9.000000E+99

> <Gold.Protein.RotatedTorsions>
[ 6907 6896 6895 6894 ] final  -40.25 input  -60.11 | X-H torsion
[ 7974 7965 7964 7962 ] final -138.87 input  175.53 | X-H torsion
[ 8008 7997 7996 7995 ] final  142.92 input   59.86 | X-H torsion
[ 10167 10162 10161 10158 ] final  -25.43 input  -65.29 | X-H torsion
[ 10718 10713 10712 10709 ] final   17.45 input   66.30 | X-H torsion
[ 10763 10752 10751 10750 ] final  103.72 input  -60.55 | X-H torsion
[ 11005 11000 10999 10996 ] final  -79.48 input  -57.11 | X-H torsion

> <Gold.Protein.ActiveResidues>
 VAL166  LYS551  ARG553  GLY616  TRP617  ASP618  TYR619  PRO620  LYS621  CYS622 
 ASP623  PHE694  ASN695  SER759  ASP760  ASP761  ALA762  ILE779  LEU786  VAL792 
 PHE793  MET794  SER795  GLU796  ALA797  LYS798  CYS799  TRP800  GLU811  SER814 

> <Gold.Protein.RotatedAtoms>
  150.9807  134.9162  159.7842 H   0  0  0  0  0  0  0  0  0  0  0  0  # atno 6907 bound_to 6896
  152.5221  134.3415  159.9228 H   0  0  0  0  0  0  0  0  0  0  0  0  # atno 6908 bound_to 6896
  151.3422  133.3917  159.2707 H   0  0  0  0  0  0  0  0  0  0  0  0  # atno 6909 bound_to 6896
  144.8723  140.6384  143.5259 H   0  0  0  0  0  0  0  0  0  0  0  0  # atno 7974 bound_to 7965
  156.2940  140.2276  156.4806 H   0  0  0  0  0  0  0  0  0  0  0  0  # atno 8008 bound_to 7997
  154.7856  140.0457  157.1182 H   0  0  0  0  0  0  0  0  0  0  0  0  # atno 8009 bound_to 7997
  154.9706  140.3066  155.4993 H   0  0  0  0  0  0  0  0  0  0  0  0  # atno 8010 bound_to 7997
  140.7286  143.4266  151.0868 H   0  0  0  0  0  0  0  0  0  0  0  0  # atno 10167 bound_to 10162
  157.0822  130.6393  149.5829 H   0  0  0  0  0  0  0  0  0  0  0  0  # atno 10718 bound_to 10713
  153.3564  135.3967  155.1685 H   0  0  0  0  0  0  0  0  0  0  0  0  # atno 10763 bound_to 10752
  154.8671  135.3669  154.5156 H   0  0  0  0  0  0  0  0  0  0  0  0  # atno 10764 bound_to 10752
  153.5612  135.7081  153.5606 H   0  0  0  0  0  0  0  0  0  0  0  0  # atno 10765 bound_to 10752
  141.1667  133.7108  156.8130 H   0  0  0  0  0  0  0  0  0  0  0  0  # atno 11005 bound_to 11000
  145.4108  139.1580  143.4127 LP  0  0  0  0  0  0  0  0  0  0  0  0  # atno 17320 bound_to 7965
  146.2938  140.4212  142.8729 LP  0  0  0  0  0  0  0  0  0  0  0  0  # atno 17321 bound_to 7965
  139.7917  143.8208  152.3152 LP  0  0  0  0  0  0  0  0  0  0  0  0  # atno 17342 bound_to 10162
  139.8195  144.7302  150.9592 LP  0  0  0  0  0  0  0  0  0  0  0  0  # atno 17343 bound_to 10162
  155.9920  130.4977  150.7324 LP  0  0  0  0  0  0  0  0  0  0  0  0  # atno 17370 bound_to 10713
  157.4790  131.0900  151.0557 LP  0  0  0  0  0  0  0  0  0  0  0  0  # atno 17371 bound_to 10713
  140.2174  134.8782  157.3340 LP  0  0  0  0  0  0  0  0  0  0  0  0  # atno 17394 bound_to 11000
  140.2023  134.4239  155.7656 LP  0  0  0  0  0  0  0  0  0  0  0  0  # atno 17395 bound_to 11000

$$$$
