AV-unprocessed.smi:1830|AV-procd|sdf|7434|dock6
  -GOLD-   22720 9123D 1   1.00000     0.00000
 Structure written by MMmdl.
 53 56  0  0  0  0  0  0  0  0  2 V2000
  145.0792  138.2277  152.5623 O   0  0  0  0  0  0  0  0  0  0  0  0
  146.1561  137.7372  152.2237 C   0  0  0  0  0  0  0  0  0  0  0  0
  146.2630  136.6192  151.4923 N   0  0  0  0  0  0  0  0  0  0  0  0
  145.1408  135.8199  151.0120 C   0  0  0  0  0  0  0  0  0  0  0  0
  145.2522  134.3541  151.4673 C   0  0  2  0  0  0  0  0  0  0  0  0
  146.5962  133.7260  151.0495 C   0  0  0  0  0  0  0  0  0  0  0  0
  146.6566  132.2802  151.3689 N   0  3  1  0  0  0  0  0  0  0  0  0
  146.9793  131.9267  152.7689 C   0  0  0  0  0  0  0  0  0  0  0  0
  146.2682  130.5939  153.0529 C   0  0  0  0  0  0  0  0  0  0  0  0
  145.6004  130.1968  151.7321 C   0  0  0  0  0  0  0  0  0  0  0  0
  145.4558  131.5162  150.9724 C   0  0  1  0  0  0  0  0  0  0  0  0
  144.1601  132.2688  151.3482 C   0  0  0  0  0  0  0  0  0  0  0  0
  144.2094  133.6006  150.8590 O   0  0  0  0  0  0  0  0  0  0  0  0
  147.3664  138.2203  152.5490 N   0  0  0  0  0  0  0  0  0  0  0  0
  147.6783  139.3581  153.3465 C   0  0  0  0  0  0  0  0  0  0  0  0
  146.9259  140.5554  153.2637 C   0  0  0  0  0  0  0  0  0  0  0  0
  147.2672  141.6434  154.0854 C   0  0  0  0  0  0  0  0  0  0  0  0
  148.3543  141.4980  154.9627 C   0  0  0  0  0  0  0  0  0  0  0  0
  149.0919  140.3725  155.0404 N   0  0  0  0  0  0  0  0  0  0  0  0
  148.7846  139.3197  154.2431 C   0  0  0  0  0  0  0  0  0  0  0  0
  149.6062  138.1744  154.3523 N   0  0  0  0  0  0  0  0  0  0  0  0
  149.4965  137.2945  155.5111 C   0  0  0  0  0  0  0  0  0  0  0  0
  150.7574  136.4364  155.4753 C   0  0  0  0  0  0  0  0  0  0  0  0
  151.8015  137.4162  154.9485 C   0  0  0  0  0  0  0  0  0  0  0  0
  151.0120  138.3044  153.9802 C   0  0  0  0  0  0  0  0  0  0  0  0
  147.1890  136.2905  151.2607 H   0  0  0  0  0  0  0  0  0  0  0  0
  144.1901  136.2534  151.3279 H   0  0  0  0  0  0  0  0  0  0  0  0
  145.1524  135.8668  149.9228 H   0  0  0  0  0  0  0  0  0  0  0  0
  145.1473  134.3186  152.5532 H   0  0  0  0  0  0  0  0  0  0  0  0
  146.7239  133.8329  149.9714 H   0  0  0  0  0  0  0  0  0  0  0  0
  147.4349  134.2442  151.5162 H   0  0  0  0  0  0  0  0  0  0  0  0
  148.0599  131.8446  152.8888 H   0  0  0  0  0  0  0  0  0  0  0  0
  146.6267  132.6924  153.4610 H   0  0  0  0  0  0  0  0  0  0  0  0
  146.9573  129.8251  153.4042 H   0  0  0  0  0  0  0  0  0  0  0  0
  145.5132  130.7355  153.8273 H   0  0  0  0  0  0  0  0  0  0  0  0
  146.2622  129.5296  151.1782 H   0  0  0  0  0  0  0  0  0  0  0  0
  144.6529  129.6759  151.8748 H   0  0  0  0  0  0  0  0  0  0  0  0
  145.4732  131.3518  149.8942 H   0  0  0  0  0  0  0  0  0  0  0  0
  143.2966  131.7658  150.9123 H   0  0  0  0  0  0  0  0  0  0  0  0
  144.0007  132.2815  152.4277 H   0  0  0  0  0  0  0  0  0  0  0  0
  148.1575  137.6529  152.2825 H   0  0  0  0  0  0  0  0  0  0  0  0
  146.0990  140.6611  152.5783 H   0  0  0  0  0  0  0  0  0  0  0  0
  146.7076  142.5662  154.0447 H   0  0  0  0  0  0  0  0  0  0  0  0
  148.6456  142.3091  155.6135 H   0  0  0  0  0  0  0  0  0  0  0  0
  149.4777  137.8710  156.4369 H   0  0  0  0  0  0  0  0  0  0  0  0
  148.5917  136.6880  155.4652 H   0  0  0  0  0  0  0  0  0  0  0  0
  151.0147  136.0173  156.4483 H   0  0  0  0  0  0  0  0  0  0  0  0
  150.6298  135.6126  154.7715 H   0  0  0  0  0  0  0  0  0  0  0  0
  152.1828  138.0211  155.7725 H   0  0  0  0  0  0  0  0  0  0  0  0
  152.6494  136.9214  154.4746 H   0  0  0  0  0  0  0  0  0  0  0  0
  151.1406  137.9444  152.9591 H   0  0  0  0  0  0  0  0  0  0  0  0
  151.3540  139.3397  154.0218 H   0  0  0  0  0  0  0  0  0  0  0  0
  147.4163  131.8964  150.8248 H   0  0  0  0  0  0  0  0  0  0  0  0
  1  2  2  0  0  0  0
  2  3  1  0  0  0  0
  2 14  1  0  0  0  0
  3  4  1  0  0  0  0
  3 26  1  0  0  0  0
  4  5  1  0  0  0  0
  4 27  1  0  0  0  0
  4 28  1  0  0  0  0
  5 13  1  0  0  0  0
  5  6  1  0  0  0  0
  5 29  1  0  0  0  0
  6  7  1  0  0  0  0
  6 30  1  0  0  0  0
  6 31  1  0  0  0  0
  7 11  1  0  0  0  0
  7  8  1  0  0  0  0
  7 53  1  0  0  0  0
  8  9  1  0  0  0  0
  8 32  1  0  0  0  0
  8 33  1  0  0  0  0
  9 10  1  0  0  0  0
  9 34  1  0  0  0  0
  9 35  1  0  0  0  0
 10 11  1  0  0  0  0
 10 36  1  0  0  0  0
 10 37  1  0  0  0  0
 11 12  1  0  0  0  0
 11 38  1  0  0  0  0
 12 13  1  0  0  0  0
 12 39  1  0  0  0  0
 12 40  1  0  0  0  0
 14 15  1  0  0  0  0
 14 41  1  0  0  0  0
 15 20  1  0  0  0  0
 15 16  2  0  0  0  0
 16 17  1  0  0  0  0
 16 42  1  0  0  0  0
 17 18  2  0  0  0  0
 17 43  1  0  0  0  0
 18 19  1  0  0  0  0
 18 44  1  0  0  0  0
 19 20  2  0  0  0  0
 20 21  1  0  0  0  0
 21 25  1  0  0  0  0
 21 22  1  0  0  0  0
 22 23  1  0  0  0  0
 22 45  1  0  0  0  0
 22 46  1  0  0  0  0
 23 24  1  0  0  0  0
 23 47  1  0  0  0  0
 23 48  1  0  0  0  0
 24 25  1  0  0  0  0
 24 49  1  0  0  0  0
 24 50  1  0  0  0  0
 25 51  1  0  0  0  0
 25 52  1  0  0  0  0
M  CHG  1   7   1
M  END
> <s_m_source_file>
AV-unprocessed.smi

> <i_m_source_file_index>
1830

> <i_lp_mmshare_version>
43012

> <i_f3d_flags>
0

> <s_epik_input>
W0NIMl0xW0NIMl1bQ0gyXVtDQEhdKE4xMilbQ0gyXU9bQ0BASF0oW0NIMl0yKVtDSDJdW05IXUMoPU8pW05IXWMzW2NIXVtjSF1bY0hdbmMzTjRbQ0gyXVtDSDJdW0NIMl1bQ0gyXTQ=

> <s_epik_cmdline>
J2VwaWtfcHl0aG9uJywgJy1waCcsICc3LjAnLCAnLXRuJywgJzgnLCAnLW1hJywgJzIwMCcsICctbWV0YWxfYmluZGluZycsICctaW1hZScsICc8aW5maWxlLm1hZT4nLCAnLW9tYWUnLCAnPG91dGZpbGUubWFlPic=

> <r_lp_tautomer_probability>
1

> <r_epik_Ionization_Penalty>
0.193547

> <r_epik_Ionization_Penalty_Charging>
0.10673

> <r_epik_Ionization_Penalty_Neutral>
0.0868166

> <r_epik_State_Penalty>
0.173595

> <r_epik_Charging_Adjusted_Penalty>
0.280326

> <i_epik_Tot_Q>
1

> <i_epik_Tot_abs_Q>
1

> <r_epik_Metal_State_Penalty>
0.164683

> <b_epik_Metal_Only>
0

> <s_lp_Force_Field>
OPLS_2005

> <r_lp_Energy>
64.5086

> <b_lp_Chiralities_Consistent>
1

> <s_lp_Variant>
AV-unprocessed.smi:1830-3

> <Gold.Version>
5.8.1

> <Gold.Id.Protein>
6NUR|6NUR_protein|mol2

> <Gold.PLP.Fitness>
51.3977

> <Gold.PLP.PLP>
-40.2679

> <Gold.PLP.part.hbond>
-3.6550

> <Gold.PLP.part.metal>
0.0000

> <Gold.PLP.part.buried>
-6.5718

> <Gold.PLP.part.nonpolar>
-35.7104

> <Gold.PLP.part.repulsive>
4.9466

> <Gold.PLP.ligand.clash>
0.0000

> <Gold.PLP.ligand.torsion>
0.5086

> <Gold.PLP.Chemscore.Hbond>
2.9440

> <Gold.PLP.Chemscore.CHOScore>
1.0000

> <Gold.PLP.Chemscore.Metal>
0.0000

> <Gold.Chemscore.Hbonds>
donor molecule, donor type, donor heavy atom, donor atom, acceptor molecule, acceptor atom, score
      L1  H     3    26       P1  7948  0.91
      L1  H     7    53       P1 10747  1.00
      L1  H    14    41       P1  7948  1.00
      L1  C    18    44       P1  8028  1.00

> <Gold.PLP.Chemscore.Internal.Correction>
0.3151

> <Gold.Rescore>
     Score         DG    S(hbond)    S(metal)    S(lipo)     H(rot)  DE(clash)    DE(int)     intcor
     20.79     -23.68       2.92        0.00     102.96       1.41       1.54       1.34       ----

> <Gold.Chemscore.Fitness>
20.7936

> <Gold.Chemscore.DG>
-23.6758

> <Gold.Chemscore.ZeroCoef>
-5.4800

> <Gold.Chemscore.Hbond>
2.9194

> <Gold.Chemscore.Metal>
0.0000

> <Gold.Chemscore.Lipo>
102.9569

> <Gold.Chemscore.Internal_Hbond>
0.0000

> <Gold.Chemscore.DEClash>
1.5408

> <Gold.Chemscore.DEInternal>
1.3413

> <Gold.Chemscore.Rot>
1.4067

> <Gold.Chemscore.Internal.Correction>
   9.000000E+99

> <Gold.Chemscore.Hbonds>
donor molecule, donor type, donor heavy atom, donor atom, acceptor molecule, acceptor atom, score
      L1  H     3    26       P1  7948  0.88
      L1  H     7    53       P1 10747  0.99
      L1  H    14    41       P1  7948  0.99

> <Gold.Chemscore.Hbond.Weighted>
-9.7509

> <Gold.Chemscore.Metal.Weighted>
-0.0000

> <Gold.Chemscore.Lipo.Weighted>
-12.0460

> <Gold.Chemscore.Internal_Hbond.Weighted>
0.0000

> <Gold.Chemscore.DEClash.Weighted>
1.5408

> <Gold.Chemscore.DEInternal.Weighted>
1.3413

> <Gold.Chemscore.Rot.Weighted>
3.6011

> <Gold.Chemscore.Internal.Correction.Weighted>
   9.000000E+99

> <Gold.Protein.RotatedTorsions>
[ 6907 6896 6895 6894 ] final -115.48 input  -60.11 | X-H torsion
[ 7974 7965 7964 7962 ] final   70.83 input  175.53 | X-H torsion
[ 8008 7997 7996 7995 ] final  -55.26 input   59.86 | X-H torsion
[ 10167 10162 10161 10158 ] final  148.79 input  -65.29 | X-H torsion
[ 10718 10713 10712 10709 ] final   -3.02 input   66.30 | X-H torsion
[ 10763 10752 10751 10750 ] final  -38.66 input  -60.55 | X-H torsion
[ 11005 11000 10999 10996 ] final -102.79 input  -57.11 | X-H torsion

> <Gold.Protein.ActiveResidues>
 VAL166  LYS551  ARG553  GLY616  TRP617  ASP618  TYR619  PRO620  LYS621  CYS622 
 ASP623  PHE694  ASN695  SER759  ASP760  ASP761  ALA762  ILE779  LEU786  VAL792 
 PHE793  MET794  SER795  GLU796  ALA797  LYS798  CYS799  TRP800  GLU811  SER814 

> <Gold.Protein.RotatedAtoms>
  150.7981  133.8653  159.3243 H   0  0  0  0  0  0  0  0  0  0  0  0  # atno 6907 bound_to 6896
  151.6473  135.1004  160.0163 H   0  0  0  0  0  0  0  0  0  0  0  0  # atno 6908 bound_to 6896
  152.4065  133.6857  159.6396 H   0  0  0  0  0  0  0  0  0  0  0  0  # atno 6909 bound_to 6896
  145.7734  139.2853  143.1308 H   0  0  0  0  0  0  0  0  0  0  0  0  # atno 7974 bound_to 7965
  154.4189  140.1157  156.5447 H   0  0  0  0  0  0  0  0  0  0  0  0  # atno 8008 bound_to 7997
  155.6471  140.3496  155.4716 H   0  0  0  0  0  0  0  0  0  0  0  0  # atno 8009 bound_to 7997
  155.9823  140.1162  157.0705 H   0  0  0  0  0  0  0  0  0  0  0  0  # atno 8010 bound_to 7997
  139.4870  144.5652  151.7158 H   0  0  0  0  0  0  0  0  0  0  0  0  # atno 10167 bound_to 10162
  156.7822  130.5334  149.5749 H   0  0  0  0  0  0  0  0  0  0  0  0  # atno 10718 bound_to 10713
  153.9166  135.6787  153.4749 H   0  0  0  0  0  0  0  0  0  0  0  0  # atno 10763 bound_to 10752
  153.1050  135.4809  154.8933 H   0  0  0  0  0  0  0  0  0  0  0  0  # atno 10764 bound_to 10752
  154.7500  135.3182  154.8531 H   0  0  0  0  0  0  0  0  0  0  0  0  # atno 10765 bound_to 10752
  141.1174  133.8587  157.1404 H   0  0  0  0  0  0  0  0  0  0  0  0  # atno 11005 bound_to 11000
  146.0147  140.8403  142.9953 LP  0  0  0  0  0  0  0  0  0  0  0  0  # atno 17320 bound_to 7965
  144.6809  140.2541  143.7327 LP  0  0  0  0  0  0  0  0  0  0  0  0  # atno 17321 bound_to 7965
  140.5229  144.0851  150.6028 LP  0  0  0  0  0  0  0  0  0  0  0  0  # atno 17342 bound_to 10162
  140.3815  143.2800  152.0164 LP  0  0  0  0  0  0  0  0  0  0  0  0  # atno 17343 bound_to 10162
  156.1211  130.6110  151.0194 LP  0  0  0  0  0  0  0  0  0  0  0  0  # atno 17370 bound_to 10713
  157.6641  131.0875  150.7771 LP  0  0  0  0  0  0  0  0  0  0  0  0  # atno 17371 bound_to 10713
  140.0106  134.9990  157.0387 LP  0  0  0  0  0  0  0  0  0  0  0  0  # atno 17394 bound_to 11000
  140.4606  134.1488  155.7191 LP  0  0  0  0  0  0  0  0  0  0  0  0  # atno 17395 bound_to 11000

$$$$
