AV-unprocessed.smi:2178|AV-procd|sdf|8853|dock1
  -GOLD-   2272012 43D 1   1.00000     0.00000
 Structure written by MMmdl.
 46 48  0  0  0  0  0  0  0  0  1 V2000
  151.2829  143.5207  158.2061 C   0  0  0  0  0  0  0  0  0  0  0  0
  151.9117  143.6963  159.5758 C   0  0  0  0  0  0  0  0  0  0  0  0
  151.5445  144.7970  160.3772 C   0  0  0  0  0  0  0  0  0  0  0  0
  152.1284  144.9762  161.6448 C   0  0  0  0  0  0  0  0  0  0  0  0
  153.0873  144.0593  162.1136 C   0  0  0  0  0  0  0  0  0  0  0  0
  153.4638  142.9558  161.3202 C   0  0  0  0  0  0  0  0  0  0  0  0
  154.5126  141.9898  161.8389 C   0  0  0  0  0  0  0  0  0  0  0  0
  152.8637  142.7648  160.0526 C   0  0  0  0  0  0  0  0  0  0  0  0
  153.2195  141.6965  159.2706 O   0  0  0  0  0  0  0  0  0  0  0  0
  152.3944  140.5550  159.4537 C   0  0  0  0  0  0  0  0  0  0  0  0
  152.8013  139.4807  158.4361 C   0  0  1  0  0  0  0  0  0  0  0  0
  153.9024  138.7618  158.9545 O   0  0  0  0  0  0  0  0  0  0  0  0
  151.6451  138.5134  158.1125 C   0  0  0  0  0  0  0  0  0  0  0  0
  150.6538  139.1061  157.2246 N   0  0  0  0  0  0  0  0  0  0  0  0
  150.7264  139.2969  155.8828 C   0  0  0  0  0  0  0  0  0  0  0  0
  151.9368  138.8811  155.0955 C   0  0  0  0  0  0  0  0  0  0  0  0
  151.6595  137.9687  154.0518 O   0  0  0  0  0  0  0  0  0  0  0  0
  149.6552  139.8660  155.3237 N   0  0  0  0  0  0  0  0  0  0  0  0
  148.8147  140.0637  156.4012 C   0  0  0  0  0  0  0  0  0  0  0  0
  147.5225  140.6322  156.4669 C   0  0  0  0  0  0  0  0  0  0  0  0
  146.8470  140.7285  157.7014 C   0  0  0  0  0  0  0  0  0  0  0  0
  147.4517  140.2570  158.8848 C   0  0  0  0  0  0  0  0  0  0  0  0
  148.7385  139.6868  158.8409 C   0  0  0  0  0  0  0  0  0  0  0  0
  149.4091  139.5956  157.6064 C   0  0  0  0  0  0  0  0  0  0  0  0
  150.7254  144.4092  157.9085 H   0  0  0  0  0  0  0  0  0  0  0  0
  150.5964  142.6741  158.2086 H   0  0  0  0  0  0  0  0  0  0  0  0
  152.0507  143.3394  157.4536 H   0  0  0  0  0  0  0  0  0  0  0  0
  150.8146  145.5100  160.0225 H   0  0  0  0  0  0  0  0  0  0  0  0
  151.8446  145.8205  162.2555 H   0  0  0  0  0  0  0  0  0  0  0  0
  153.5359  144.2085  163.0849 H   0  0  0  0  0  0  0  0  0  0  0  0
  155.1435  141.6236  161.0286 H   0  0  0  0  0  0  0  0  0  0  0  0
  154.0351  141.1356  162.3190 H   0  0  0  0  0  0  0  0  0  0  0  0
  155.1602  142.4734  162.5707 H   0  0  0  0  0  0  0  0  0  0  0  0
  152.5278  140.1784  160.4688 H   0  0  0  0  0  0  0  0  0  0  0  0
  151.3383  140.8062  159.3400 H   0  0  0  0  0  0  0  0  0  0  0  0
  153.1351  139.9714  157.5210 H   0  0  0  0  0  0  0  0  0  0  0  0
  154.0150  138.9984  159.8625 H   0  0  0  0  0  0  0  0  0  0  0  0
  152.0268  137.5894  157.6786 H   0  0  0  0  0  0  0  0  0  0  0  0
  151.1348  138.2241  159.0317 H   0  0  0  0  0  0  0  0  0  0  0  0
  152.4062  139.7632  154.6604 H   0  0  0  0  0  0  0  0  0  0  0  0
  152.6600  138.4252  155.7724 H   0  0  0  0  0  0  0  0  0  0  0  0
  150.7446  137.7368  154.0911 H   0  0  0  0  0  0  0  0  0  0  0  0
  147.0506  140.9953  155.5660 H   0  0  0  0  0  0  0  0  0  0  0  0
  145.8602  141.1661  157.7401 H   0  0  0  0  0  0  0  0  0  0  0  0
  146.9273  140.3338  159.8260 H   0  0  0  0  0  0  0  0  0  0  0  0
  149.2053  139.3252  159.7451 H   0  0  0  0  0  0  0  0  0  0  0  0
  1  2  1  0  0  0  0
  1 25  1  0  0  0  0
  1 26  1  0  0  0  0
  1 27  1  0  0  0  0
  2  8  1  0  0  0  0
  2  3  2  0  0  0  0
  3  4  1  0  0  0  0
  3 28  1  0  0  0  0
  4  5  2  0  0  0  0
  4 29  1  0  0  0  0
  5  6  1  0  0  0  0
  5 30  1  0  0  0  0
  6  7  1  0  0  0  0
  6  8  2  0  0  0  0
  7 31  1  0  0  0  0
  7 32  1  0  0  0  0
  7 33  1  0  0  0  0
  8  9  1  0  0  0  0
  9 10  1  0  0  0  0
 10 11  1  0  0  0  0
 10 34  1  0  0  0  0
 10 35  1  0  0  0  0
 11 12  1  0  0  0  0
 11 13  1  0  0  0  0
 11 36  1  0  0  0  0
 12 37  1  0  0  0  0
 13 14  1  0  0  0  0
 13 38  1  0  0  0  0
 13 39  1  0  0  0  0
 14 24  1  0  0  0  0
 14 15  1  0  0  0  0
 15 16  1  0  0  0  0
 15 18  2  0  0  0  0
 16 17  1  0  0  0  0
 16 40  1  0  0  0  0
 16 41  1  0  0  0  0
 17 42  1  0  0  0  0
 18 19  1  0  0  0  0
 19 24  2  0  0  0  0
 19 20  1  0  0  0  0
 20 21  2  0  0  0  0
 20 43  1  0  0  0  0
 21 22  1  0  0  0  0
 21 44  1  0  0  0  0
 22 23  2  0  0  0  0
 22 45  1  0  0  0  0
 23 24  1  0  0  0  0
 23 46  1  0  0  0  0
M  END
> <s_m_source_file>
AV-unprocessed.smi

> <i_m_source_file_index>
2178

> <i_lp_mmshare_version>
43012

> <i_f3d_flags>
0

> <s_epik_input>
W0NIM11jMVtjSF1bY0hdW2NIXWMoW0NIM10pYzFPW0NIMl1bQ0BIXShbT0hdKVtDSDJdbihjKG4yKVtDSDJdW09IXSljKGMyMylbY0hdW2NIXVtjSF1bY0hdMw==

> <s_epik_cmdline>
J2VwaWtfcHl0aG9uJywgJy1waCcsICc3LjAnLCAnLXRuJywgJzgnLCAnLW1hJywgJzIwMCcsICctbWV0YWxfYmluZGluZycsICctaW1hZScsICc8aW5maWxlLm1hZT4nLCAnLW9tYWUnLCAnPG91dGZpbGUubWFlPic=

> <r_lp_tautomer_probability>
1

> <r_epik_Ionization_Penalty>
0.0555874

> <r_epik_Ionization_Penalty_Charging>
0

> <r_epik_Ionization_Penalty_Neutral>
0.0555874

> <r_epik_State_Penalty>
0.0478234

> <r_epik_Charging_Adjusted_Penalty>
0.0478234

> <i_epik_Tot_Q>
0

> <i_epik_Tot_abs_Q>
0

> <r_epik_Metal_State_Penalty>
4.98044e-05

> <b_epik_Metal_Only>
0

> <s_lp_Force_Field>
OPLS_2005

> <r_lp_Energy>
18.9383

> <b_lp_Chiralities_Consistent>
1

> <s_lp_Variant>
AV-unprocessed.smi:2178-2

> <Gold.Version>
5.8.1

> <Gold.Id.Protein>
6NUR|6NUR_protein|mol2

> <Gold.PLP.Fitness>
57.9074

> <Gold.PLP.PLP>
-53.8933

> <Gold.PLP.part.hbond>
-3.0000

> <Gold.PLP.part.metal>
0.0000

> <Gold.PLP.part.buried>
-7.8645

> <Gold.PLP.part.nonpolar>
-44.1752

> <Gold.PLP.part.repulsive>
0.7699

> <Gold.PLP.ligand.clash>
0.0000

> <Gold.PLP.ligand.torsion>
1.0147

> <Gold.PLP.Chemscore.Hbond>
1.9440

> <Gold.PLP.Chemscore.CHOScore>
0.0000

> <Gold.PLP.Chemscore.Metal>
0.0000

> <Gold.PLP.Chemscore.Internal.Correction>
0.2115

> <Gold.Rescore>
     Score         DG    S(hbond)    S(metal)    S(lipo)     H(rot)  DE(clash)    DE(int)     intcor
     17.22     -19.42       1.57        0.00     138.98       2.96       1.31       0.89       ----

> <Gold.Chemscore.Fitness>
17.2239

> <Gold.Chemscore.DG>
-19.4165

> <Gold.Chemscore.ZeroCoef>
-5.4800

> <Gold.Chemscore.Hbond>
1.5698

> <Gold.Chemscore.Metal>
0.0000

> <Gold.Chemscore.Lipo>
138.9833

> <Gold.Chemscore.Internal_Hbond>
0.0000

> <Gold.Chemscore.DEClash>
1.3058

> <Gold.Chemscore.DEInternal>
0.8868

> <Gold.Chemscore.Rot>
2.9561

> <Gold.Chemscore.Internal.Correction>
   9.000000E+99

> <Gold.Chemscore.Hbond.Weighted>
-5.2431

> <Gold.Chemscore.Metal.Weighted>
-0.0000

> <Gold.Chemscore.Lipo.Weighted>
-16.2610

> <Gold.Chemscore.Internal_Hbond.Weighted>
0.0000

> <Gold.Chemscore.DEClash.Weighted>
1.3058

> <Gold.Chemscore.DEInternal.Weighted>
0.8868

> <Gold.Chemscore.Rot.Weighted>
7.5677

> <Gold.Chemscore.Internal.Correction.Weighted>
   9.000000E+99

> <Gold.Protein.RotatedTorsions>
[ 6907 6896 6895 6894 ] final -145.96 input  -60.11 | X-H torsion
[ 7974 7965 7964 7962 ] final  154.59 input  175.53 | X-H torsion
[ 8008 7997 7996 7995 ] final  -98.44 input   59.86 | X-H torsion
[ 10167 10162 10161 10158 ] final -122.93 input  -65.29 | X-H torsion
[ 10718 10713 10712 10709 ] final  -58.82 input   66.30 | X-H torsion
[ 10763 10752 10751 10750 ] final  140.23 input  -60.55 | X-H torsion
[ 11005 11000 10999 10996 ] final  144.76 input  -57.11 | X-H torsion

> <Gold.Protein.ActiveResidues>
 VAL166  LYS551  ARG553  GLY616  TRP617  ASP618  TYR619  PRO620  LYS621  CYS622 
 ASP623  PHE694  ASN695  SER759  ASP760  ASP761  ALA762  ILE779  LEU786  VAL792 
 PHE793  MET794  SER795  GLU796  ALA797  LYS798  CYS799  TRP800  GLU811  SER814 

> <Gold.Protein.RotatedAtoms>
  151.1351  133.5010  159.2597 H   0  0  0  0  0  0  0  0  0  0  0  0  # atno 6907 bound_to 6896
  151.1716  135.0320  159.8764 H   0  0  0  0  0  0  0  0  0  0  0  0  # atno 6908 bound_to 6896
  152.5461  134.1213  159.8453 H   0  0  0  0  0  0  0  0  0  0  0  0  # atno 6909 bound_to 6896
  144.8079  139.6954  143.6154 H   0  0  0  0  0  0  0  0  0  0  0  0  # atno 7974 bound_to 7965
  154.8013  140.0455  157.1274 H   0  0  0  0  0  0  0  0  0  0  0  0  # atno 8008 bound_to 7997
  154.9476  140.3061  155.5070 H   0  0  0  0  0  0  0  0  0  0  0  0  # atno 8009 bound_to 7997
  156.2962  140.2294  156.4551 H   0  0  0  0  0  0  0  0  0  0  0  0  # atno 8010 bound_to 7997
  140.0089  143.5462  152.2271 H   0  0  0  0  0  0  0  0  0  0  0  0  # atno 10167 bound_to 10162
  156.1107  130.4175  150.0630 H   0  0  0  0  0  0  0  0  0  0  0  0  # atno 10718 bound_to 10713
  153.9192  135.3002  155.3448 H   0  0  0  0  0  0  0  0  0  0  0  0  # atno 10763 bound_to 10752
  154.7584  135.4946  153.9421 H   0  0  0  0  0  0  0  0  0  0  0  0  # atno 10764 bound_to 10752
  153.1151  135.6768  153.9536 H   0  0  0  0  0  0  0  0  0  0  0  0  # atno 10765 bound_to 10752
  140.0658  134.9179  157.1262 H   0  0  0  0  0  0  0  0  0  0  0  0  # atno 11005 bound_to 11000
  146.2373  139.5931  142.9515 LP  0  0  0  0  0  0  0  0  0  0  0  0  # atno 17320 bound_to 7965
  145.5394  141.0422  143.2339 LP  0  0  0  0  0  0  0  0  0  0  0  0  # atno 17321 bound_to 7965
  139.6219  144.7630  151.2722 LP  0  0  0  0  0  0  0  0  0  0  0  0  # atno 17342 bound_to 10162
  140.7389  143.6634  150.8145 LP  0  0  0  0  0  0  0  0  0  0  0  0  # atno 17343 bound_to 10162
  156.8594  130.9486  151.3619 LP  0  0  0  0  0  0  0  0  0  0  0  0  # atno 17370 bound_to 10713
  157.6287  130.8712  149.9236 LP  0  0  0  0  0  0  0  0  0  0  0  0  # atno 17371 bound_to 10713
  140.3701  134.2399  155.7179 LP  0  0  0  0  0  0  0  0  0  0  0  0  # atno 17394 bound_to 11000
  141.1992  133.8017  157.0547 LP  0  0  0  0  0  0  0  0  0  0  0  0  # atno 17395 bound_to 11000

$$$$
