AV-unprocessed.smi:2655|AV-procd|sdf|10304|dock9
  -GOLD-   2272014323D 1   1.00000     0.00000
 Structure written by MMmdl.
 33 34  0  0  0  0  0  0  0  0  2 V2000
  149.2780  129.9522  153.4408 C   0  0  0  0  0  0  0  0  0  0  0  0
  147.9855  130.5859  153.8694 C   0  0  0  0  0  0  0  0  0  0  0  0
  146.9944  129.8056  154.2901 N   0  0  0  0  0  0  0  0  0  0  0  0
  145.9986  130.6611  154.5889 N   0  0  0  0  0  0  0  0  0  0  0  0
  146.3646  131.9627  154.3594 C   0  0  0  0  0  0  0  0  0  0  0  0
  145.5005  132.9867  154.5944 O   0  0  0  0  0  0  0  0  0  0  0  0
  147.6476  131.9752  153.8954 C   0  0  0  0  0  0  0  0  0  0  0  0
  148.4990  133.1528  153.5025 C   0  0  0  0  0  0  0  0  0  0  0  0
  148.5529  134.2068  154.6162 C   0  0  0  0  0  0  0  0  0  0  0  0
  149.5787  135.2018  154.3316 N   0  0  0  0  0  0  0  0  0  0  0  0
  150.6250  135.4798  155.1209 C   0  0  0  0  0  0  0  0  0  0  0  0
  150.7744  134.8658  156.1800 O   0  0  0  0  0  0  0  0  0  0  0  0
  151.4327  136.4509  154.6346 N   0  5  0  0  0  0  0  0  0  0  0  0
  151.0450  137.7350  154.6730 C   0  0  0  0  0  0  0  0  0  0  0  0
  149.7043  138.2066  154.6318 C   0  0  0  0  0  0  0  0  0  0  0  0
  149.8472  139.5625  154.7153 C   0  0  0  0  0  0  0  0  0  0  0  0
  148.8662  140.6848  154.7244 C   0  0  0  0  0  0  0  0  0  0  0  0
  151.1631  139.8933  154.8091 O   0  0  0  0  0  0  0  0  0  0  0  0
  151.9228  138.7175  154.7876 N   0  0  0  0  0  0  0  0  0  0  0  0
  149.8592  130.6235  152.8085 H   0  0  0  0  0  0  0  0  0  0  0  0
  149.1023  129.0385  152.8724 H   0  0  0  0  0  0  0  0  0  0  0  0
  149.8916  129.6958  154.3044 H   0  0  0  0  0  0  0  0  0  0  0  0
  145.1054  130.3439  154.9380 H   0  0  0  0  0  0  0  0  0  0  0  0
  148.1163  133.6117  152.5901 H   0  0  0  0  0  0  0  0  0  0  0  0
  149.5131  132.8291  153.2657 H   0  0  0  0  0  0  0  0  0  0  0  0
  147.5844  134.7007  154.7110 H   0  0  0  0  0  0  0  0  0  0  0  0
  148.7696  133.7316  155.5741 H   0  0  0  0  0  0  0  0  0  0  0  0
  149.4893  135.7238  153.4722 H   0  0  0  0  0  0  0  0  0  0  0  0
  148.7883  137.6407  154.5502 H   0  0  0  0  0  0  0  0  0  0  0  0
  148.1829  140.5920  155.5685 H   0  0  0  0  0  0  0  0  0  0  0  0
  148.2754  140.6869  153.8084 H   0  0  0  0  0  0  0  0  0  0  0  0
  149.3705  141.6482  154.8029 H   0  0  0  0  0  0  0  0  0  0  0  0
  144.6310  132.6240  154.6605 H   0  0  0  0  0  0  0  0  0  0  0  0
  1 20  1  0  0  0  0
  1 21  1  0  0  0  0
  1 22  1  0  0  0  0
  1  2  1  0  0  0  0
  2  7  1  0  0  0  0
  2  3  2  0  0  0  0
  3  4  1  0  0  0  0
  4 23  1  0  0  0  0
  4  5  1  0  0  0  0
  5  7  2  0  0  0  0
  5  6  1  0  0  0  0
  6 33  1  0  0  0  0
  7  8  1  0  0  0  0
  8  9  1  0  0  0  0
  8 24  1  0  0  0  0
  8 25  1  0  0  0  0
  9 10  1  0  0  0  0
  9 26  1  0  0  0  0
  9 27  1  0  0  0  0
 10 11  1  0  0  0  0
 10 28  1  0  0  0  0
 11 12  2  0  0  0  0
 11 13  1  0  0  0  0
 13 14  1  0  0  0  0
 14 19  2  0  0  0  0
 14 15  1  0  0  0  0
 15 16  2  0  0  0  0
 15 29  1  0  0  0  0
 16 17  1  0  0  0  0
 16 18  1  0  0  0  0
 17 30  1  0  0  0  0
 17 31  1  0  0  0  0
 17 32  1  0  0  0  0
 18 19  1  0  0  0  0
M  CHG  1  13  -1
M  END
> <s_m_source_file>
AV-unprocessed.smi

> <i_m_source_file_index>
2655

> <i_lp_mmshare_version>
43012

> <i_f3d_flags>
0

> <s_epik_input>
W0NIM11DMT1OW05IXUMoPU8pW0NASF0xW0NIMl1bQ0gyXVtOSF1DKD1PKVtOSF1jMltjSF1jKFtDSDNdKW9uMg==

> <s_epik_cmdline>
J2VwaWtfcHl0aG9uJywgJy1waCcsICc3LjAnLCAnLXRuJywgJzgnLCAnLW1hJywgJzIwMCcsICctbWV0YWxfYmluZGluZycsICctaW1hZScsICc8aW5maWxlLm1hZT4nLCAnLW9tYWUnLCAnPG91dGZpbGUubWFlPic=

> <r_lp_tautomer_probability>
0.0227396

> <r_epik_Ionization_Penalty>
10.1454

> <r_epik_Ionization_Penalty_Charging>
6.5559

> <r_epik_Ionization_Penalty_Neutral>
3.58948

> <r_epik_State_Penalty>
8.16616

> <r_epik_Charging_Adjusted_Penalty>
14.7221

> <i_epik_Tot_Q>
-1

> <i_epik_Tot_abs_Q>
1

> <r_epik_Metal_State_Penalty>
5.48631

> <b_epik_Metal_Only>
1

> <s_lp_Force_Field>
OPLS_2005

> <r_lp_Energy>
-4.29972

> <b_lp_Chiralities_Consistent>
1

> <s_lp_Variant>
AV-unprocessed.smi:2655-7

> <Gold.Version>
5.8.1

> <Gold.Id.Protein>
6NUR|6NUR_protein|mol2

> <Gold.PLP.Fitness>
43.6872

> <Gold.PLP.PLP>
-28.0305

> <Gold.PLP.part.hbond>
-5.0247

> <Gold.PLP.part.metal>
0.0000

> <Gold.PLP.part.buried>
-5.9855

> <Gold.PLP.part.nonpolar>
-19.2418

> <Gold.PLP.part.repulsive>
0.4495

> <Gold.PLP.ligand.clash>
0.0000

> <Gold.PLP.ligand.torsion>
0.9637

> <Gold.PLP.Chemscore.Hbond>
5.8450

> <Gold.PLP.Chemscore.CHOScore>
0.0000

> <Gold.PLP.Chemscore.Metal>
0.0000

> <Gold.Chemscore.Hbonds>
donor molecule, donor type, donor heavy atom, donor atom, acceptor molecule, acceptor atom, score
      L1  H     4    23       P1 10956  1.00
      L1  H     6    33       P1 10957  0.75
      L1  H    10    28       P1  7948  1.00
      P1  H  7989  7998       L1    18  1.00
      P1  H 10752 10763       L1    13  2.00

> <Gold.PLP.Chemscore.Internal.Correction>
0.0491

> <Gold.Rescore>
     Score         DG    S(hbond)    S(metal)    S(lipo)     H(rot)  DE(clash)    DE(int)     intcor
     14.15     -15.22       3.46        0.00      38.95       2.49       0.13       0.93       ----

> <Gold.Chemscore.Fitness>
14.1477

> <Gold.Chemscore.DG>
-15.2156

> <Gold.Chemscore.ZeroCoef>
-5.4800

> <Gold.Chemscore.Hbond>
3.4604

> <Gold.Chemscore.Metal>
0.0000

> <Gold.Chemscore.Lipo>
38.9550

> <Gold.Chemscore.Internal_Hbond>
0.0000

> <Gold.Chemscore.DEClash>
0.1350

> <Gold.Chemscore.DEInternal>
0.9329

> <Gold.Chemscore.Rot>
2.4922

> <Gold.Chemscore.Internal.Correction>
   9.000000E+99

> <Gold.Chemscore.Hbonds>
donor molecule, donor type, donor heavy atom, donor atom, acceptor molecule, acceptor atom, score
      L1  H     4    23       P1 10956  0.33
      L1  H     6    33       P1 10957  0.68
      L1  H    10    28       P1  7948  0.26
      P1  H  7989  7998       L1    18  0.51
      P1  H 10752 10763       L1    13  0.40

> <Gold.Chemscore.Hbond.Weighted>
-11.5578

> <Gold.Chemscore.Metal.Weighted>
-0.0000

> <Gold.Chemscore.Lipo.Weighted>
-4.5577

> <Gold.Chemscore.Internal_Hbond.Weighted>
0.0000

> <Gold.Chemscore.DEClash.Weighted>
0.1350

> <Gold.Chemscore.DEInternal.Weighted>
0.9329

> <Gold.Chemscore.Rot.Weighted>
6.3800

> <Gold.Chemscore.Internal.Correction.Weighted>
   9.000000E+99

> <Gold.Protein.RotatedTorsions>
[ 6907 6896 6895 6894 ] final  114.94 input  -60.11 | X-H torsion
[ 7974 7965 7964 7962 ] final  -31.68 input  175.53 | X-H torsion
[ 8008 7997 7996 7995 ] final   13.81 input   59.86 | X-H torsion
[ 10167 10162 10161 10158 ] final  137.92 input  -65.29 | X-H torsion
[ 10718 10713 10712 10709 ] final -146.58 input   66.30 | X-H torsion
[ 10763 10752 10751 10750 ] final   48.42 input  -60.55 | X-H torsion
[ 11005 11000 10999 10996 ] final -132.23 input  -57.11 | X-H torsion

> <Gold.Protein.ActiveResidues>
 VAL166  LYS551  ARG553  GLY616  TRP617  ASP618  TYR619  PRO620  LYS621  CYS622 
 ASP623  PHE694  ASN695  SER759  ASP760  ASP761  ALA762  ILE779  LEU786  VAL792 
 PHE793  MET794  SER795  GLU796  ALA797  LYS798  CYS799  TRP800  GLU811  SER814 

> <Gold.Protein.RotatedAtoms>
  152.4772  133.8166  159.7031 H   0  0  0  0  0  0  0  0  0  0  0  0  # atno 6907 bound_to 6896
  150.8796  133.7381  159.2942 H   0  0  0  0  0  0  0  0  0  0  0  0  # atno 6908 bound_to 6896
  151.4889  135.1060  159.9850 H   0  0  0  0  0  0  0  0  0  0  0  0  # atno 6909 bound_to 6896
  146.1049  140.5697  142.8804 H   0  0  0  0  0  0  0  0  0  0  0  0  # atno 7974 bound_to 7965
  154.8397  140.2912  155.5667 H   0  0  0  0  0  0  0  0  0  0  0  0  # atno 8008 bound_to 7997
  156.3011  140.2516  156.3269 H   0  0  0  0  0  0  0  0  0  0  0  0  # atno 8009 bound_to 7997
  154.9139  140.0388  157.1950 H   0  0  0  0  0  0  0  0  0  0  0  0  # atno 8010 bound_to 7997
  139.5128  144.6383  151.5638 H   0  0  0  0  0  0  0  0  0  0  0  0  # atno 10167 bound_to 10162
  156.3968  130.7913  151.2120 H   0  0  0  0  0  0  0  0  0  0  0  0  # atno 10718 bound_to 10713
  152.9792  135.5944  154.3924 H   0  0  0  0  0  0  0  0  0  0  0  0  # atno 10763 bound_to 10752
  154.3578  135.2767  155.2339 H   0  0  0  0  0  0  0  0  0  0  0  0  # atno 10764 bound_to 10752
  154.4350  135.6027  153.6147 H   0  0  0  0  0  0  0  0  0  0  0  0  # atno 10765 bound_to 10752
  140.9188  134.1471  157.4331 H   0  0  0  0  0  0  0  0  0  0  0  0  # atno 11005 bound_to 11000
  144.7462  140.5075  143.6834 LP  0  0  0  0  0  0  0  0  0  0  0  0  # atno 17320 bound_to 7965
  145.5781  139.1487  143.3251 LP  0  0  0  0  0  0  0  0  0  0  0  0  # atno 17321 bound_to 7965
  140.6140  143.9383  150.6474 LP  0  0  0  0  0  0  0  0  0  0  0  0  # atno 17342 bound_to 10162
  140.2635  143.3507  152.1301 LP  0  0  0  0  0  0  0  0  0  0  0  0  # atno 17343 bound_to 10162
  157.7502  131.0299  150.4113 LP  0  0  0  0  0  0  0  0  0  0  0  0  # atno 17370 bound_to 10713
  156.4385  130.3986  149.6713 LP  0  0  0  0  0  0  0  0  0  0  0  0  # atno 17371 bound_to 10713
  139.8771  134.9964  156.5791 LP  0  0  0  0  0  0  0  0  0  0  0  0  # atno 17394 bound_to 11000
  140.8014  133.8502  155.8730 LP  0  0  0  0  0  0  0  0  0  0  0  0  # atno 17395 bound_to 11000

$$$$
