AV-unprocessed.smi:1720|AV-procd|sdf|6932|dock6
  -GOLD-   22720 8143D 1   1.00000     0.00000
 Structure written by MMmdl.
 32 33  0  0  0  0  0  0  0  0  1 V2000
  152.9045  144.7777  158.0339 C   0  0  0  0  0  0  0  0  0  0  0  0
  151.5221  144.3979  158.5847 C   0  0  1  0  0  0  0  0  0  0  0  0
  150.7354  143.7991  157.5075 N   0  0  0  0  0  0  0  0  0  0  0  0
  150.9473  142.5957  156.9547 C   0  0  0  0  0  0  0  0  0  0  0  0
  151.8570  141.8379  157.2919 O   0  0  0  0  0  0  0  0  0  0  0  0
  150.0464  142.3384  155.9925 N   0  0  0  0  0  0  0  0  0  0  0  0
  149.9541  141.1738  155.1889 C   0  0  0  0  0  0  0  0  0  0  0  0
  150.8186  140.0502  155.2900 C   0  0  0  0  0  0  0  0  0  0  0  0
  150.4950  139.1105  154.4132 N   0  0  0  0  0  0  0  0  0  0  0  0
  149.4332  139.6244  153.7520 N   0  0  0  0  0  0  0  0  0  0  0  0
  149.0694  140.8787  154.1898 C   0  0  0  0  0  0  0  0  0  0  0  0
  151.6260  143.4295  159.7812 C   0  0  2  0  0  0  0  0  0  0  0  0
  151.9674  144.0886  161.1204 C   0  0  0  0  0  0  0  0  0  0  0  0
  152.5854  142.9380  161.8797 C   0  0  0  0  0  0  0  0  0  0  0  0
  153.3800  142.2386  160.7819 C   0  0  0  0  0  0  0  0  0  0  0  0
  152.6725  142.4835  159.5692 O   0  0  0  0  0  0  0  0  0  0  0  0
  148.9722  139.1124  153.0132 H   0  0  0  0  0  0  0  0  0  0  0  0
  153.5084  145.2738  158.7943 H   0  0  0  0  0  0  0  0  0  0  0  0
  152.8161  145.4626  157.1900 H   0  0  0  0  0  0  0  0  0  0  0  0
  153.4537  143.8986  157.6945 H   0  0  0  0  0  0  0  0  0  0  0  0
  151.0437  145.3172  158.9276 H   0  0  0  0  0  0  0  0  0  0  0  0
  149.9630  144.3475  157.1587 H   0  0  0  0  0  0  0  0  0  0  0  0
  149.3558  143.0522  155.8128 H   0  0  0  0  0  0  0  0  0  0  0  0
  151.6525  139.8879  155.9572 H   0  0  0  0  0  0  0  0  0  0  0  0
  148.2415  141.4232  153.7605 H   0  0  0  0  0  0  0  0  0  0  0  0
  150.6955  142.8699  159.8924 H   0  0  0  0  0  0  0  0  0  0  0  0
  152.7044  144.8814  160.9837 H   0  0  0  0  0  0  0  0  0  0  0  0
  151.0970  144.5130  161.6215 H   0  0  0  0  0  0  0  0  0  0  0  0
  153.2050  143.2572  162.7183 H   0  0  0  0  0  0  0  0  0  0  0  0
  151.8046  142.2778  162.2601 H   0  0  0  0  0  0  0  0  0  0  0  0
  154.3750  142.6766  160.6944 H   0  0  0  0  0  0  0  0  0  0  0  0
  153.4960  141.1708  160.9681 H   0  0  0  0  0  0  0  0  0  0  0  0
  1  2  1  0  0  0  0
  1 18  1  0  0  0  0
  1 19  1  0  0  0  0
  1 20  1  0  0  0  0
  2  3  1  0  0  0  0
  2 12  1  0  0  0  0
  2 21  1  0  0  0  0
  3  4  1  0  0  0  0
  3 22  1  0  0  0  0
  4  5  2  0  0  0  0
  4  6  1  0  0  0  0
  6  7  1  0  0  0  0
  6 23  1  0  0  0  0
  7 11  2  0  0  0  0
  7  8  1  0  0  0  0
  8  9  2  0  0  0  0
  8 24  1  0  0  0  0
  9 10  1  0  0  0  0
 10 17  1  0  0  0  0
 10 11  1  0  0  0  0
 11 25  1  0  0  0  0
 12 16  1  0  0  0  0
 12 13  1  0  0  0  0
 12 26  1  0  0  0  0
 13 14  1  0  0  0  0
 13 27  1  0  0  0  0
 13 28  1  0  0  0  0
 14 15  1  0  0  0  0
 14 29  1  0  0  0  0
 14 30  1  0  0  0  0
 15 16  1  0  0  0  0
 15 31  1  0  0  0  0
 15 32  1  0  0  0  0
M  END
> <s_m_source_file>
AV-unprocessed.smi

> <i_m_source_file_index>
1720

> <i_lp_mmshare_version>
43012

> <i_f3d_flags>
0

> <s_epik_input>
TzFbQ0gyXVtDSDJdW0NIMl1bQ0BIXTFbQ0BIXShbQ0gzXSlbTkhdQyg9TylbTkhdYzJbY0hdbltuSF1bY0hdMg==

> <s_epik_cmdline>
J2VwaWtfcHl0aG9uJywgJy1waCcsICc3LjAnLCAnLXRuJywgJzgnLCAnLW1hJywgJzIwMCcsICctbWV0YWxfYmluZGluZycsICctaW1hZScsICc8aW5maWxlLm1hZT4nLCAnLW9tYWUnLCAnPG91dGZpbGUubWFlPic=

> <r_lp_tautomer_probability>
1

> <r_epik_Ionization_Penalty>
4.95841e-05

> <r_epik_Ionization_Penalty_Charging>
0

> <r_epik_Ionization_Penalty_Neutral>
4.95841e-05

> <r_epik_State_Penalty>
-0

> <r_epik_Charging_Adjusted_Penalty>
0

> <i_epik_Tot_Q>
0

> <i_epik_Tot_abs_Q>
0

> <r_epik_Metal_State_Penalty>
-0

> <b_epik_Metal_Only>
0

> <s_lp_Force_Field>
OPLS_2005

> <r_lp_Energy>
20.0519

> <b_lp_Chiralities_Consistent>
1

> <s_lp_Variant>
AV-unprocessed.smi:1720-2

> <Gold.Version>
5.8.1

> <Gold.Id.Protein>
6NUR|6NUR_protein|mol2

> <Gold.PLP.Fitness>
44.4168

> <Gold.PLP.PLP>
-39.4227

> <Gold.PLP.part.hbond>
-3.0000

> <Gold.PLP.part.metal>
0.0000

> <Gold.PLP.part.buried>
-3.8960

> <Gold.PLP.part.nonpolar>
-32.8628

> <Gold.PLP.part.repulsive>
0.4199

> <Gold.PLP.ligand.clash>
0.0000

> <Gold.PLP.ligand.torsion>
0.4929

> <Gold.PLP.Chemscore.Hbond>
1.9903

> <Gold.PLP.Chemscore.CHOScore>
0.0000

> <Gold.PLP.Chemscore.Metal>
0.0000

> <Gold.Chemscore.Hbonds>
donor molecule, donor type, donor heavy atom, donor atom, acceptor molecule, acceptor atom, score
      L1  H     3    22       P1  8028  0.93
      L1  H     6    23       P1  8028  1.00
      L1  H    10    17       P1  7957  0.09

> <Gold.PLP.Chemscore.Internal.Correction>
0.0089

> <Gold.Rescore>
     Score         DG    S(hbond)    S(metal)    S(lipo)     H(rot)  DE(clash)    DE(int)     intcor
     14.24     -19.40       1.87        0.00      94.25       1.31       0.75       4.41       ----

> <Gold.Chemscore.Fitness>
14.2393

> <Gold.Chemscore.DG>
-19.4008

> <Gold.Chemscore.ZeroCoef>
-5.4800

> <Gold.Chemscore.Hbond>
1.8687

> <Gold.Chemscore.Metal>
0.0000

> <Gold.Chemscore.Lipo>
94.2542

> <Gold.Chemscore.Internal_Hbond>
0.0000

> <Gold.Chemscore.DEClash>
0.7466

> <Gold.Chemscore.DEInternal>
4.4150

> <Gold.Chemscore.Rot>
1.3079

> <Gold.Chemscore.Internal.Correction>
   9.000000E+99

> <Gold.Chemscore.Hbonds>
donor molecule, donor type, donor heavy atom, donor atom, acceptor molecule, acceptor atom, score
      L1  H     3    22       P1  8028  0.49
      L1  H     6    23       P1  8028  0.96
      L1  H    10    17       P1  7957  0.10

> <Gold.Chemscore.Hbond.Weighted>
-6.2414

> <Gold.Chemscore.Metal.Weighted>
-0.0000

> <Gold.Chemscore.Lipo.Weighted>
-11.0277

> <Gold.Chemscore.Internal_Hbond.Weighted>
0.0000

> <Gold.Chemscore.DEClash.Weighted>
0.7466

> <Gold.Chemscore.DEInternal.Weighted>
4.4150

> <Gold.Chemscore.Rot.Weighted>
3.3483

> <Gold.Chemscore.Internal.Correction.Weighted>
   9.000000E+99

> <Gold.Protein.RotatedTorsions>
[ 6907 6896 6895 6894 ] final  -99.52 input  -60.11 | X-H torsion
[ 7974 7965 7964 7962 ] final   37.55 input  175.53 | X-H torsion
[ 8008 7997 7996 7995 ] final   77.24 input   59.86 | X-H torsion
[ 10167 10162 10161 10158 ] final   32.46 input  -65.29 | X-H torsion
[ 10718 10713 10712 10709 ] final  -50.14 input   66.30 | X-H torsion
[ 10763 10752 10751 10750 ] final  -64.25 input  -60.55 | X-H torsion
[ 11005 11000 10999 10996 ] final   95.12 input  -57.11 | X-H torsion

> <Gold.Protein.ActiveResidues>
 VAL166  LYS551  ARG553  GLY616  TRP617  ASP618  TYR619  PRO620  LYS621  CYS622 
 ASP623  PHE694  ASN695  SER759  ASP760  ASP761  ALA762  ILE779  LEU786  VAL792 
 PHE793  MET794  SER795  GLU796  ALA797  LYS798  CYS799  TRP800  GLU811  SER814 

> <Gold.Protein.RotatedAtoms>
  150.7083  134.1029  159.3971 H   0  0  0  0  0  0  0  0  0  0  0  0  # atno 6907 bound_to 6896
  151.9015  135.0374  160.0516 H   0  0  0  0  0  0  0  0  0  0  0  0  # atno 6908 bound_to 6896
  152.2410  133.5100  159.5307 H   0  0  0  0  0  0  0  0  0  0  0  0  # atno 6909 bound_to 6896
  146.1129  139.5880  142.9340 H   0  0  0  0  0  0  0  0  0  0  0  0  # atno 7974 bound_to 7965
  155.8388  140.3463  155.5618 H   0  0  0  0  0  0  0  0  0  0  0  0  # atno 8008 bound_to 7997
  155.8163  140.0906  157.1894 H   0  0  0  0  0  0  0  0  0  0  0  0  # atno 8009 bound_to 7997
  154.4005  140.1438  156.3434 H   0  0  0  0  0  0  0  0  0  0  0  0  # atno 8010 bound_to 7997
  140.4496  144.1068  150.6189 H   0  0  0  0  0  0  0  0  0  0  0  0  # atno 10167 bound_to 10162
  156.1828  130.4151  149.9483 H   0  0  0  0  0  0  0  0  0  0  0  0  # atno 10718 bound_to 10713
  154.3273  135.6184  153.5535 H   0  0  0  0  0  0  0  0  0  0  0  0  # atno 10763 bound_to 10752
  152.9814  135.5738  154.5002 H   0  0  0  0  0  0  0  0  0  0  0  0  # atno 10764 bound_to 10752
  154.4681  135.2858  155.1640 H   0  0  0  0  0  0  0  0  0  0  0  0  # atno 10765 bound_to 10752
  139.8792  134.8882  156.3964 H   0  0  0  0  0  0  0  0  0  0  0  0  # atno 11005 bound_to 11000
  145.5627  141.0402  143.2217 LP  0  0  0  0  0  0  0  0  0  0  0  0  # atno 17320 bound_to 7965
  144.7527  139.7153  143.7266 LP  0  0  0  0  0  0  0  0  0  0  0  0  # atno 17321 bound_to 7965
  140.4223  143.2606  151.9700 LP  0  0  0  0  0  0  0  0  0  0  0  0  # atno 17342 bound_to 10162
  139.4795  144.5820  151.7917 LP  0  0  0  0  0  0  0  0  0  0  0  0  # atno 17343 bound_to 10162
  156.7248  130.9020  151.3621 LP  0  0  0  0  0  0  0  0  0  0  0  0  # atno 17370 bound_to 10713
  157.6879  130.9204  150.0435 LP  0  0  0  0  0  0  0  0  0  0  0  0  # atno 17371 bound_to 10713
  140.9297  133.7588  156.0009 LP  0  0  0  0  0  0  0  0  0  0  0  0  # atno 17394 bound_to 11000
  140.8345  134.3139  157.5337 LP  0  0  0  0  0  0  0  0  0  0  0  0  # atno 17395 bound_to 11000

$$$$
