AV-unprocessed.smi:1601|AV-procd|sdf|6435|dock8
  -GOLD-   22720 7 83D 1   1.00000     0.00000
 Structure written by MMmdl.
 42 43  0  0  0  0  0  0  0  0  2 V2000
  148.9504  142.7743  158.4314 C   0  0  0  0  0  0  0  0  0  0  0  0
  149.0382  141.7577  157.2665 C   0  0  2  0  0  0  0  0  0  0  0  0
  150.4581  141.7695  156.6328 C   0  0  0  0  0  0  0  0  0  0  0  0
  151.4982  142.2323  157.5488 N   0  0  0  0  0  0  0  0  0  0  0  0
  151.8771  141.6118  158.6786 C   0  0  0  0  0  0  0  0  0  0  0  0
  151.3971  140.5400  159.0492 O   0  0  0  0  0  0  0  0  0  0  0  0
  152.9720  142.3107  159.5018 C   0  0  2  0  0  0  0  0  0  0  0  0
  153.3429  141.5412  160.7859 C   0  0  0  0  0  0  0  0  0  0  0  0
  152.5974  143.6919  159.7825 N   0  0  0  0  0  0  0  0  0  0  0  0
  152.4345  144.2940  161.0139 C   0  0  0  0  0  0  0  0  0  0  0  0
  152.1118  145.6021  160.7926 C   0  0  0  0  0  0  0  0  0  0  0  0
  152.1089  145.7140  159.3745 C   0  0  0  0  0  0  0  0  0  0  0  0
  152.4052  144.5736  158.7735 N   0  0  0  0  0  0  0  0  0  0  0  0
  147.9590  141.9984  156.2490 N   0  3  0  0  0  0  0  0  0  0  0  0
  148.0669  141.1495  155.0282 C   0  0  0  0  0  0  0  0  0  0  0  0
  146.9379  141.4488  154.0271 C   0  0  0  0  0  0  0  0  0  0  0  0
  145.6786  141.2685  154.6539 O   0  0  0  0  0  0  0  0  0  0  0  0
  145.5129  142.1690  155.7368 C   0  0  0  0  0  0  0  0  0  0  0  0
  146.5811  141.8925  156.8080 C   0  0  0  0  0  0  0  0  0  0  0  0
  149.7484  142.6349  159.1594 H   0  0  0  0  0  0  0  0  0  0  0  0
  148.0317  142.6742  159.0065 H   0  0  0  0  0  0  0  0  0  0  0  0
  149.0146  143.7999  158.0667 H   0  0  0  0  0  0  0  0  0  0  0  0
  148.8769  140.7621  157.6832 H   0  0  0  0  0  0  0  0  0  0  0  0
  150.7676  140.7616  156.3605 H   0  0  0  0  0  0  0  0  0  0  0  0
  150.4556  142.3518  155.7096 H   0  0  0  0  0  0  0  0  0  0  0  0
  151.9490  143.1065  157.3196 H   0  0  0  0  0  0  0  0  0  0  0  0
  153.8676  142.3411  158.8788 H   0  0  0  0  0  0  0  0  0  0  0  0
  153.6725  140.5273  160.5563 H   0  0  0  0  0  0  0  0  0  0  0  0
  152.5025  141.4669  161.4774 H   0  0  0  0  0  0  0  0  0  0  0  0
  154.1588  142.0375  161.3121 H   0  0  0  0  0  0  0  0  0  0  0  0
  152.5598  143.7472  161.9369 H   0  0  0  0  0  0  0  0  0  0  0  0
  151.9114  146.3636  161.5315 H   0  0  0  0  0  0  0  0  0  0  0  0
  151.9054  146.5843  158.7681 H   0  0  0  0  0  0  0  0  0  0  0  0
  149.0051  141.3300  154.5064 H   0  0  0  0  0  0  0  0  0  0  0  0
  148.0463  140.0960  155.3116 H   0  0  0  0  0  0  0  0  0  0  0  0
  147.0233  142.4635  153.6343 H   0  0  0  0  0  0  0  0  0  0  0  0
  147.0057  140.7730  153.1745 H   0  0  0  0  0  0  0  0  0  0  0  0
  145.5695  143.2006  155.3847 H   0  0  0  0  0  0  0  0  0  0  0  0
  144.5166  142.0326  156.1579 H   0  0  0  0  0  0  0  0  0  0  0  0
  146.4340  140.8978  157.2316 H   0  0  0  0  0  0  0  0  0  0  0  0
  146.4228  142.6112  157.6092 H   0  0  0  0  0  0  0  0  0  0  0  0
  148.0697  142.9531  155.9378 H   0  0  0  0  0  0  0  0  0  0  0  0
  1  2  1  0  0  0  0
  1 20  1  0  0  0  0
  1 21  1  0  0  0  0
  1 22  1  0  0  0  0
  2  3  1  0  0  0  0
  2 14  1  0  0  0  0
  2 23  1  0  0  0  0
  3  4  1  0  0  0  0
  3 24  1  0  0  0  0
  3 25  1  0  0  0  0
  4  5  1  0  0  0  0
  4 26  1  0  0  0  0
  5  6  2  0  0  0  0
  5  7  1  0  0  0  0
  7  8  1  0  0  0  0
  7  9  1  0  0  0  0
  7 27  1  0  0  0  0
  8 28  1  0  0  0  0
  8 29  1  0  0  0  0
  8 30  1  0  0  0  0
  9 13  1  0  0  0  0
  9 10  1  0  0  0  0
 10 11  2  0  0  0  0
 10 31  1  0  0  0  0
 11 12  1  0  0  0  0
 11 32  1  0  0  0  0
 12 13  2  0  0  0  0
 12 33  1  0  0  0  0
 14 19  1  0  0  0  0
 14 15  1  0  0  0  0
 14 42  1  0  0  0  0
 15 16  1  0  0  0  0
 15 34  1  0  0  0  0
 15 35  1  0  0  0  0
 16 17  1  0  0  0  0
 16 36  1  0  0  0  0
 16 37  1  0  0  0  0
 17 18  1  0  0  0  0
 18 19  1  0  0  0  0
 18 38  1  0  0  0  0
 18 39  1  0  0  0  0
 19 40  1  0  0  0  0
 19 41  1  0  0  0  0
M  CHG  1  14   1
M  END
> <s_m_source_file>
AV-unprocessed.smi

> <i_m_source_file_index>
1601

> <i_lp_mmshare_version>
43012

> <i_f3d_flags>
0

> <s_epik_input>
W0NIMl0xW0NIMl1PW0NIMl1bQ0gyXU4xW0NASF0oW0NIM10pW0NIMl1bTkhdQyg9TylbQ0BIXShbQ0gzXSluMltjSF1bY0hdW2NIXW4y

> <s_epik_cmdline>
J2VwaWtfcHl0aG9uJywgJy1waCcsICc3LjAnLCAnLXRuJywgJzgnLCAnLW1hJywgJzIwMCcsICctbWV0YWxfYmluZGluZycsICctaW1hZScsICc8aW5maWxlLm1hZT4nLCAnLW9tYWUnLCAnPG91dGZpbGUubWFlPic=

> <r_lp_tautomer_probability>
1

> <r_epik_Ionization_Penalty>
0.732551

> <r_epik_Ionization_Penalty_Charging>
0.732531

> <r_epik_Ionization_Penalty_Neutral>
2.04647e-05

> <r_epik_State_Penalty>
0.757939

> <r_epik_Charging_Adjusted_Penalty>
1.49047

> <i_epik_Tot_Q>
1

> <i_epik_Tot_abs_Q>
1

> <r_epik_Metal_State_Penalty>
0.757952

> <b_epik_Metal_Only>
0

> <s_lp_Force_Field>
OPLS_2005

> <r_lp_Energy>
26.1921

> <b_lp_Chiralities_Consistent>
1

> <s_lp_Variant>
AV-unprocessed.smi:1601-5

> <Gold.Version>
5.8.1

> <Gold.Id.Protein>
6NUR|6NUR_protein|mol2

> <Gold.PLP.Fitness>
42.1544

> <Gold.PLP.PLP>
-37.1792

> <Gold.PLP.part.hbond>
-1.0000

> <Gold.PLP.part.metal>
0.0000

> <Gold.PLP.part.buried>
-2.7475

> <Gold.PLP.part.nonpolar>
-34.5552

> <Gold.PLP.part.repulsive>
1.0139

> <Gold.PLP.ligand.clash>
0.0000

> <Gold.PLP.ligand.torsion>
0.5874

> <Gold.PLP.Chemscore.Hbond>
2.0000

> <Gold.PLP.Chemscore.CHOScore>
0.0000

> <Gold.PLP.Chemscore.Metal>
0.0000

> <Gold.Chemscore.Hbonds>
donor molecule, donor type, donor heavy atom, donor atom, acceptor molecule, acceptor atom, score
      L1  H    14    42       P1  8028  2.00

> <Gold.PLP.Chemscore.Internal.Correction>
0.1499

> <Gold.Rescore>
     Score         DG    S(hbond)    S(metal)    S(lipo)     H(rot)  DE(clash)    DE(int)     intcor
     12.40     -15.38       0.97        0.00      97.56       1.86       0.99       1.99       ----

> <Gold.Chemscore.Fitness>
12.3968

> <Gold.Chemscore.DG>
-15.3762

> <Gold.Chemscore.ZeroCoef>
-5.4800

> <Gold.Chemscore.Hbond>
0.9736

> <Gold.Chemscore.Metal>
0.0000

> <Gold.Chemscore.Lipo>
97.5566

> <Gold.Chemscore.Internal_Hbond>
0.0000

> <Gold.Chemscore.DEClash>
0.9859

> <Gold.Chemscore.DEInternal>
1.9935

> <Gold.Chemscore.Rot>
1.8631

> <Gold.Chemscore.Internal.Correction>
   9.000000E+99

> <Gold.Chemscore.Hbonds>
donor molecule, donor type, donor heavy atom, donor atom, acceptor molecule, acceptor atom, score
      L1  H    14    42       P1  8028  0.73

> <Gold.Chemscore.Hbond.Weighted>
-3.2518

> <Gold.Chemscore.Metal.Weighted>
-0.0000

> <Gold.Chemscore.Lipo.Weighted>
-11.4141

> <Gold.Chemscore.Internal_Hbond.Weighted>
0.0000

> <Gold.Chemscore.DEClash.Weighted>
0.9859

> <Gold.Chemscore.DEInternal.Weighted>
1.9935

> <Gold.Chemscore.Rot.Weighted>
4.7697

> <Gold.Chemscore.Internal.Correction.Weighted>
   9.000000E+99

> <Gold.Protein.RotatedTorsions>
[ 6907 6896 6895 6894 ] final  -40.83 input  -60.11 | X-H torsion
[ 7974 7965 7964 7962 ] final -152.78 input  175.53 | X-H torsion
[ 8008 7997 7996 7995 ] final   49.84 input   59.86 | X-H torsion
[ 10167 10162 10161 10158 ] final  -73.52 input  -65.29 | X-H torsion
[ 10718 10713 10712 10709 ] final  138.26 input   66.30 | X-H torsion
[ 10763 10752 10751 10750 ] final -135.91 input  -60.55 | X-H torsion
[ 11005 11000 10999 10996 ] final  -69.92 input  -57.11 | X-H torsion

> <Gold.Protein.ActiveResidues>
 VAL166  LYS551  ARG553  GLY616  TRP617  ASP618  TYR619  PRO620  LYS621  CYS622 
 ASP623  PHE694  ASN695  SER759  ASP760  ASP761  ALA762  ILE779  LEU786  VAL792 
 PHE793  MET794  SER795  GLU796  ALA797  LYS798  CYS799  TRP800  GLU811  SER814 

> <Gold.Protein.RotatedAtoms>
  150.9739  134.9107  159.7803 H   0  0  0  0  0  0  0  0  0  0  0  0  # atno 6907 bound_to 6896
  152.5199  134.3503  159.9259 H   0  0  0  0  0  0  0  0  0  0  0  0  # atno 6908 bound_to 6896
  151.3512  133.3884  159.2715 H   0  0  0  0  0  0  0  0  0  0  0  0  # atno 6909 bound_to 6896
  144.7775  140.4615  143.5863 H   0  0  0  0  0  0  0  0  0  0  0  0  # atno 7974 bound_to 7965
  155.4088  140.3441  155.4262 H   0  0  0  0  0  0  0  0  0  0  0  0  # atno 8008 bound_to 7997
  156.1460  140.1556  156.8877 H   0  0  0  0  0  0  0  0  0  0  0  0  # atno 8009 bound_to 7997
  154.5011  140.0814  156.7781 H   0  0  0  0  0  0  0  0  0  0  0  0  # atno 8010 bound_to 7997
  140.5103  143.2346  151.7604 H   0  0  0  0  0  0  0  0  0  0  0  0  # atno 10167 bound_to 10162
  157.4272  131.1045  151.0290 H   0  0  0  0  0  0  0  0  0  0  0  0  # atno 10718 bound_to 10713
  154.8694  135.3688  154.4976 H   0  0  0  0  0  0  0  0  0  0  0  0  # atno 10763 bound_to 10752
  153.5619  135.7022  153.5548 H   0  0  0  0  0  0  0  0  0  0  0  0  # atno 10764 bound_to 10752
  153.3620  135.4044  155.1689 H   0  0  0  0  0  0  0  0  0  0  0  0  # atno 10765 bound_to 10752
  141.1564  133.6776  156.6673 H   0  0  0  0  0  0  0  0  0  0  0  0  # atno 11005 bound_to 11000
  145.6143  139.1517  143.3058 LP  0  0  0  0  0  0  0  0  0  0  0  0  # atno 17320 bound_to 7965
  146.1964  140.6257  142.9122 LP  0  0  0  0  0  0  0  0  0  0  0  0  # atno 17321 bound_to 7965
  139.4894  144.4400  151.9776 LP  0  0  0  0  0  0  0  0  0  0  0  0  # atno 17342 bound_to 10162
  140.3492  144.3110  150.5952 LP  0  0  0  0  0  0  0  0  0  0  0  0  # atno 17343 bound_to 10162
  157.1199  130.6057  149.5502 LP  0  0  0  0  0  0  0  0  0  0  0  0  # atno 17370 bound_to 10713
  155.9900  130.4950  150.7240 LP  0  0  0  0  0  0  0  0  0  0  0  0  # atno 17371 bound_to 10713
  140.3201  134.8014  157.4246 LP  0  0  0  0  0  0  0  0  0  0  0  0  # atno 17394 bound_to 11000
  140.1104  134.5353  155.8271 LP  0  0  0  0  0  0  0  0  0  0  0  0  # atno 17395 bound_to 11000

$$$$
