AV-unprocessed.smi:618|AV-procd|sdf|3076|dock7
  -GOLD-   22720 0 03D 1   1.00000     0.00000
 Structure written by MMmdl.
 41 43  0  0  0  0  0  0  0  0  2 V2000
  145.2977  138.1398  152.6065 O   0  0  0  0  0  0  0  0  0  0  0  0
  146.3632  137.6323  152.2572 C   0  0  0  0  0  0  0  0  0  0  0  0
  146.4401  136.4975  151.5484 N   0  0  0  0  0  0  0  0  0  0  0  0
  145.2949  135.7210  151.0853 C   0  0  0  0  0  0  0  0  0  0  0  0
  145.3931  134.2453  151.5109 C   0  0  2  0  0  0  0  0  0  0  0  0
  146.7747  133.6443  151.1901 C   0  0  0  0  0  0  0  0  0  0  0  0
  146.8253  132.1923  151.4812 N   0  3  1  0  0  0  0  0  0  0  0  0
  147.0312  131.8102  152.8958 C   0  0  0  0  0  0  0  0  0  0  0  0
  146.3095  130.4673  153.0895 C   0  0  0  0  0  0  0  0  0  0  0  0
  145.7663  130.0917  151.7067 C   0  0  0  0  0  0  0  0  0  0  0  0
  145.6713  131.4267  150.9665 C   0  0  1  0  0  0  0  0  0  0  0  0
  144.3385  132.1573  151.2475 C   0  0  0  0  0  0  0  0  0  0  0  0
  144.4098  133.5030  150.7984 O   0  0  0  0  0  0  0  0  0  0  0  0
  147.5859  138.1154  152.5346 N   0  0  0  0  0  0  0  0  0  0  0  0
  147.9318  139.3001  153.2392 C   0  0  0  0  0  0  0  0  0  0  0  0
  149.0905  139.2756  154.0425 C   0  0  0  0  0  0  0  0  0  0  0  0
  149.4689  140.4393  154.7383 C   0  0  0  0  0  0  0  0  0  0  0  0
  148.6737  141.5927  154.5955 C   0  0  0  0  0  0  0  0  0  0  0  0
  147.5704  141.6392  153.8195 N   0  0  0  0  0  0  0  0  0  0  0  0
  147.2121  140.5183  153.1566 C   0  0  0  0  0  0  0  0  0  0  0  0
  147.3557  136.1474  151.3062 H   0  0  0  0  0  0  0  0  0  0  0  0
  144.3883  136.1702  151.4917 H   0  0  0  0  0  0  0  0  0  0  0  0
  145.2188  135.7984  149.9993 H   0  0  0  0  0  0  0  0  0  0  0  0
  145.2030  134.1717  152.5829 H   0  0  0  0  0  0  0  0  0  0  0  0
  146.9894  133.7784  150.1291 H   0  0  0  0  0  0  0  0  0  0  0  0
  147.5647  134.1603  151.7368 H   0  0  0  0  0  0  0  0  0  0  0  0
  148.0984  131.7324  153.1048 H   0  0  0  0  0  0  0  0  0  0  0  0
  146.6155  132.5579  153.5725 H   0  0  0  0  0  0  0  0  0  0  0  0
  146.9706  129.6968  153.4874 H   0  0  0  0  0  0  0  0  0  0  0  0
  145.4868  130.5884  153.7954 H   0  0  0  0  0  0  0  0  0  0  0  0
  146.4840  129.4454  151.1992 H   0  0  0  0  0  0  0  0  0  0  0  0
  144.8172  129.5563  151.7533 H   0  0  0  0  0  0  0  0  0  0  0  0
  145.7821  131.2870  149.8904 H   0  0  0  0  0  0  0  0  0  0  0  0
  143.5222  131.6550  150.7284 H   0  0  0  0  0  0  0  0  0  0  0  0
  144.0872  132.1405  152.3095 H   0  0  0  0  0  0  0  0  0  0  0  0
  148.3650  137.5410  152.2484 H   0  0  0  0  0  0  0  0  0  0  0  0
  149.6825  138.3759  154.1297 H   0  0  0  0  0  0  0  0  0  0  0  0
  150.3477  140.4482  155.3658 H   0  0  0  0  0  0  0  0  0  0  0  0
  148.9338  142.5039  155.1136 H   0  0  0  0  0  0  0  0  0  0  0  0
  146.3381  140.6265  152.5337 H   0  0  0  0  0  0  0  0  0  0  0  0
  147.6334  131.8287  150.9960 H   0  0  0  0  0  0  0  0  0  0  0  0
  1  2  2  0  0  0  0
  2  3  1  0  0  0  0
  2 14  1  0  0  0  0
  3  4  1  0  0  0  0
  3 21  1  0  0  0  0
  4  5  1  0  0  0  0
  4 22  1  0  0  0  0
  4 23  1  0  0  0  0
  5 13  1  0  0  0  0
  5  6  1  0  0  0  0
  5 24  1  0  0  0  0
  6  7  1  0  0  0  0
  6 25  1  0  0  0  0
  6 26  1  0  0  0  0
  7 11  1  0  0  0  0
  7  8  1  0  0  0  0
  7 41  1  0  0  0  0
  8  9  1  0  0  0  0
  8 27  1  0  0  0  0
  8 28  1  0  0  0  0
  9 10  1  0  0  0  0
  9 29  1  0  0  0  0
  9 30  1  0  0  0  0
 10 11  1  0  0  0  0
 10 31  1  0  0  0  0
 10 32  1  0  0  0  0
 11 12  1  0  0  0  0
 11 33  1  0  0  0  0
 12 13  1  0  0  0  0
 12 34  1  0  0  0  0
 12 35  1  0  0  0  0
 14 15  1  0  0  0  0
 14 36  1  0  0  0  0
 15 20  1  0  0  0  0
 15 16  2  0  0  0  0
 16 17  1  0  0  0  0
 16 37  1  0  0  0  0
 17 18  2  0  0  0  0
 17 38  1  0  0  0  0
 18 19  1  0  0  0  0
 18 39  1  0  0  0  0
 19 20  2  0  0  0  0
 20 40  1  0  0  0  0
M  CHG  1   7   1
M  END
> <s_m_source_file>
AV-unprocessed.smi

> <i_m_source_file_index>
618

> <i_lp_mmshare_version>
43012

> <i_f3d_flags>
0

> <s_epik_input>
W2NIXTFuW2NIXVtjSF1bY0hdYzFbTkhdQyg9TylbTkhdW0NIMl1bQ0BIXShbQ0gyXTIpT1tDSDJdW0NAQEhdKE4yMylbQ0gyXVtDSDJdW0NIMl0z

> <s_epik_cmdline>
J2VwaWtfcHl0aG9uJywgJy1waCcsICc3LjAnLCAnLXRuJywgJzgnLCAnLW1hJywgJzIwMCcsICctbWV0YWxfYmluZGluZycsICctaW1hZScsICc8aW5maWxlLm1hZT4nLCAnLW9tYWUnLCAnPG91dGZpbGUubWFlPic=

> <r_epik_Ionization_Penalty>
0.111044

> <r_epik_Ionization_Penalty_Charging>
0.10673

> <r_epik_Ionization_Penalty_Neutral>
0.00431361

> <r_epik_State_Penalty>
0.0978747

> <r_epik_Charging_Adjusted_Penalty>
0.204605

> <i_epik_Tot_Q>
1

> <i_epik_Tot_abs_Q>
1

> <r_epik_Metal_State_Penalty>
0.0947591

> <b_epik_Metal_Only>
0

> <s_lp_Force_Field>
OPLS_2005

> <r_lp_Energy>
38.5016

> <b_lp_Chiralities_Consistent>
1

> <s_lp_Variant>
AV-unprocessed.smi:618-3

> <Gold.Version>
5.8.1

> <Gold.Id.Protein>
6NUR|6NUR_protein|mol2

> <Gold.PLP.Fitness>
48.6099

> <Gold.PLP.PLP>
-34.6689

> <Gold.PLP.part.hbond>
-3.4509

> <Gold.PLP.part.metal>
0.0000

> <Gold.PLP.part.buried>
-2.3995

> <Gold.PLP.part.nonpolar>
-31.3626

> <Gold.PLP.part.repulsive>
2.8503

> <Gold.PLP.ligand.clash>
0.0000

> <Gold.PLP.ligand.torsion>
0.3498

> <Gold.PLP.Chemscore.Hbond>
2.8800

> <Gold.PLP.Chemscore.CHOScore>
2.0000

> <Gold.PLP.Chemscore.Metal>
0.0000

> <Gold.Chemscore.Hbonds>
donor molecule, donor type, donor heavy atom, donor atom, acceptor molecule, acceptor atom, score
      L1  H     3    21       P1  7948  0.83
      L1  H     7    41       P1 10747  1.00
      L1  H    14    36       P1  7948  0.83
      L1  C    18    39       P1  8028  1.00
      L1  C    20    40       P1 10175  0.71

> <Gold.PLP.Chemscore.Internal.Correction>
0.0007

> <Gold.Rescore>
     Score         DG    S(hbond)    S(metal)    S(lipo)     H(rot)  DE(clash)    DE(int)     intcor
     19.64     -22.56       2.91        0.00      90.61       1.27       1.61       1.31       ----

> <Gold.Chemscore.Fitness>
19.6441

> <Gold.Chemscore.DG>
-22.5618

> <Gold.Chemscore.ZeroCoef>
-5.4800

> <Gold.Chemscore.Hbond>
2.9102

> <Gold.Chemscore.Metal>
0.0000

> <Gold.Chemscore.Lipo>
90.6124

> <Gold.Chemscore.Internal_Hbond>
0.0000

> <Gold.Chemscore.DEClash>
1.6122

> <Gold.Chemscore.DEInternal>
1.3055

> <Gold.Chemscore.Rot>
1.2656

> <Gold.Chemscore.Internal.Correction>
   9.000000E+99

> <Gold.Chemscore.Hbonds>
donor molecule, donor type, donor heavy atom, donor atom, acceptor molecule, acceptor atom, score
      L1  H     3    21       P1  7948  0.81
      L1  H     7    41       P1 10747  1.00
      L1  H    14    36       P1  7948  0.80

> <Gold.Chemscore.Hbond.Weighted>
-9.7201

> <Gold.Chemscore.Metal.Weighted>
-0.0000

> <Gold.Chemscore.Lipo.Weighted>
-10.6017

> <Gold.Chemscore.Internal_Hbond.Weighted>
0.0000

> <Gold.Chemscore.DEClash.Weighted>
1.6122

> <Gold.Chemscore.DEInternal.Weighted>
1.3055

> <Gold.Chemscore.Rot.Weighted>
3.2399

> <Gold.Chemscore.Internal.Correction.Weighted>
   9.000000E+99

> <Gold.Protein.RotatedTorsions>
[ 6907 6896 6895 6894 ] final -148.46 input  -60.11 | X-H torsion
[ 7974 7965 7964 7962 ] final -130.88 input  175.53 | X-H torsion
[ 8008 7997 7996 7995 ] final  -86.83 input   59.86 | X-H torsion
[ 10167 10162 10161 10158 ] final -111.75 input  -65.29 | X-H torsion
[ 10718 10713 10712 10709 ] final -117.17 input   66.30 | X-H torsion
[ 10763 10752 10751 10750 ] final  -57.32 input  -60.55 | X-H torsion
[ 11005 11000 10999 10996 ] final   69.17 input  -57.11 | X-H torsion

> <Gold.Protein.ActiveResidues>
 VAL166  LYS551  ARG553  GLY616  TRP617  ASP618  TYR619  PRO620  LYS621  CYS622 
 ASP623  PHE694  ASN695  SER759  ASP760  ASP761  ALA762  ILE779  LEU786  VAL792 
 PHE793  MET794  SER795  GLU796  ALA797  LYS798  CYS799  TRP800  GLU811  SER814 

> <Gold.Protein.RotatedAtoms>
  151.1702  133.4789  159.2593 H   0  0  0  0  0  0  0  0  0  0  0  0  # atno 6907 bound_to 6896
  151.1364  135.0157  159.8616 H   0  0  0  0  0  0  0  0  0  0  0  0  # atno 6908 bound_to 6896
  152.5461  134.1600  159.8607 H   0  0  0  0  0  0  0  0  0  0  0  0  # atno 6909 bound_to 6896
  144.9432  140.7262  143.4833 H   0  0  0  0  0  0  0  0  0  0  0  0  # atno 7974 bound_to 7965
  154.6564  140.0573  157.0013 H   0  0  0  0  0  0  0  0  0  0  0  0  # atno 8008 bound_to 7997
  155.1294  140.3255  155.4459 H   0  0  0  0  0  0  0  0  0  0  0  0  # atno 8009 bound_to 7997
  156.2599  140.1983  156.6414 H   0  0  0  0  0  0  0  0  0  0  0  0  # atno 8010 bound_to 7997
  140.1301  143.4368  152.1633 H   0  0  0  0  0  0  0  0  0  0  0  0  # atno 10167 bound_to 10162
  156.1014  130.6175  150.9129 H   0  0  0  0  0  0  0  0  0  0  0  0  # atno 10718 bound_to 10713
  154.2206  135.6378  153.5143 H   0  0  0  0  0  0  0  0  0  0  0  0  # atno 10763 bound_to 10752
  152.9969  135.5496  154.6118 H   0  0  0  0  0  0  0  0  0  0  0  0  # atno 10764 bound_to 10752
  154.5577  135.2906  155.0923 H   0  0  0  0  0  0  0  0  0  0  0  0  # atno 10765 bound_to 10752
  139.9669  134.6966  156.0527 H   0  0  0  0  0  0  0  0  0  0  0  0  # atno 11005 bound_to 11000
  145.2958  139.1867  143.4716 LP  0  0  0  0  0  0  0  0  0  0  0  0  # atno 17320 bound_to 7965
  146.3294  140.2941  142.8617 LP  0  0  0  0  0  0  0  0  0  0  0  0  # atno 17321 bound_to 7965
  139.5524  144.7347  151.4396 LP  0  0  0  0  0  0  0  0  0  0  0  0  # atno 17342 bound_to 10162
  140.6822  143.8057  150.7136 LP  0  0  0  0  0  0  0  0  0  0  0  0  # atno 17343 bound_to 10162
  157.6185  131.0931  150.8666 LP  0  0  0  0  0  0  0  0  0  0  0  0  # atno 17370 bound_to 10713
  156.8793  130.5173  149.5292 LP  0  0  0  0  0  0  0  0  0  0  0  0  # atno 17371 bound_to 10713
  141.1349  133.6577  156.3565 LP  0  0  0  0  0  0  0  0  0  0  0  0  # atno 17394 bound_to 11000
  140.5377  134.6150  157.5370 LP  0  0  0  0  0  0  0  0  0  0  0  0  # atno 17395 bound_to 11000

$$$$
