AV-unprocessed.smi:2318|AV-procd|sdf|9276|dock5
  -GOLD-   2272012503D 1   1.00000     0.00000
 Structure written by MMmdl.
 37 38  0  0  0  0  0  0  0  0  1 V2000
  153.3214  142.6264  162.4007 C   0  0  0  0  0  0  0  0  0  0  0  0
  152.8943  142.8826  161.0420 N   0  0  0  0  0  0  0  0  0  0  0  0
  152.5205  144.0811  160.4678 C   0  0  0  0  0  0  0  0  0  0  0  0
  152.1969  143.8274  159.1650 C   0  0  0  0  0  0  0  0  0  0  0  0
  152.4103  142.4267  159.0416 C   0  0  0  0  0  0  0  0  0  0  0  0
  152.1800  141.7667  157.8077 N   0  0  0  0  0  0  0  0  0  0  0  0
  151.3760  140.7146  157.5779 C   0  0  0  0  0  0  0  0  0  0  0  0
  150.7012  140.1380  158.4315 O   0  0  0  0  0  0  0  0  0  0  0  0
  151.3957  140.3650  156.2835 N   0  0  0  0  0  0  0  0  0  0  0  0
  150.6561  139.2544  155.6797 C   0  0  1  0  0  0  0  0  0  0  0  0
  149.6817  139.7999  154.6033 C   0  0  0  0  0  0  0  0  0  0  0  0
  148.9433  141.0825  155.0079 C   0  0  0  0  0  0  0  0  0  0  0  0
  147.7726  141.1819  154.0302 C   0  0  0  0  0  0  0  0  0  0  0  0
  147.4129  139.7369  153.6632 C   0  0  0  0  0  0  0  0  0  0  0  0
  148.5325  138.8526  154.2297 C   0  0  0  0  0  0  0  0  0  0  0  0
  151.6723  138.2226  155.1389 C   0  0  0  0  0  0  0  0  0  0  0  0
  152.3887  137.7235  156.1470 F   0  0  0  0  0  0  0  0  0  0  0  0
  151.0521  137.2065  154.5406 F   0  0  0  0  0  0  0  0  0  0  0  0
  152.5037  138.7954  154.2676 F   0  0  0  0  0  0  0  0  0  0  0  0
  152.8261  141.8587  160.1654 N   0  0  0  0  0  0  0  0  0  0  0  0
  153.4592  143.5677  162.9337 H   0  0  0  0  0  0  0  0  0  0  0  0
  154.2655  142.0806  162.3964 H   0  0  0  0  0  0  0  0  0  0  0  0
  152.5665  142.0328  162.9170 H   0  0  0  0  0  0  0  0  0  0  0  0
  152.5159  145.0045  161.0281 H   0  0  0  0  0  0  0  0  0  0  0  0
  151.8617  144.5333  158.4194 H   0  0  0  0  0  0  0  0  0  0  0  0
  152.6806  142.1375  157.0138 H   0  0  0  0  0  0  0  0  0  0  0  0
  151.9823  140.9008  155.6606 H   0  0  0  0  0  0  0  0  0  0  0  0
  150.0647  138.7519  156.4473 H   0  0  0  0  0  0  0  0  0  0  0  0
  150.2454  140.0181  153.6947 H   0  0  0  0  0  0  0  0  0  0  0  0
  148.5621  140.9875  156.0258 H   0  0  0  0  0  0  0  0  0  0  0  0
  149.5808  141.9666  154.9743 H   0  0  0  0  0  0  0  0  0  0  0  0
  146.9286  141.7259  154.4553 H   0  0  0  0  0  0  0  0  0  0  0  0
  148.0902  141.7170  153.1344 H   0  0  0  0  0  0  0  0  0  0  0  0
  146.4489  139.4496  154.0845 H   0  0  0  0  0  0  0  0  0  0  0  0
  147.3396  139.6294  152.5803 H   0  0  0  0  0  0  0  0  0  0  0  0
  148.8428  138.0887  153.5163 H   0  0  0  0  0  0  0  0  0  0  0  0
  148.1679  138.3404  155.1213 H   0  0  0  0  0  0  0  0  0  0  0  0
  1  2  1  0  0  0  0
  1 21  1  0  0  0  0
  1 22  1  0  0  0  0
  1 23  1  0  0  0  0
  2 20  1  0  0  0  0
  2  3  1  0  0  0  0
  3  4  2  0  0  0  0
  3 24  1  0  0  0  0
  4  5  1  0  0  0  0
  4 25  1  0  0  0  0
  5  6  1  0  0  0  0
  5 20  2  0  0  0  0
  6  7  1  0  0  0  0
  6 26  1  0  0  0  0
  7  8  2  0  0  0  0
  7  9  1  0  0  0  0
  9 10  1  0  0  0  0
  9 27  1  0  0  0  0
 10 11  1  0  0  0  0
 10 16  1  0  0  0  0
 10 28  1  0  0  0  0
 11 15  1  0  0  0  0
 11 12  1  0  0  0  0
 11 29  1  0  0  0  0
 12 13  1  0  0  0  0
 12 30  1  0  0  0  0
 12 31  1  0  0  0  0
 13 14  1  0  0  0  0
 13 32  1  0  0  0  0
 13 33  1  0  0  0  0
 14 15  1  0  0  0  0
 14 34  1  0  0  0  0
 14 35  1  0  0  0  0
 15 36  1  0  0  0  0
 15 37  1  0  0  0  0
 16 17  1  0  0  0  0
 16 18  1  0  0  0  0
 16 19  1  0  0  0  0
M  END
> <s_m_source_file>
AV-unprocessed.smi

> <i_m_source_file_index>
2318

> <i_lp_mmshare_version>
43012

> <i_f3d_flags>
0

> <s_epik_input>
W0NIM11uMVtjSF1bY0hdYyhuMSlbTkhdQyg9TylbTkhdW0NAQEhdKEMoRikoRilGKVtDSF0yW0NIMl1bQ0gyXVtDSDJdW0NIMl0y

> <s_epik_cmdline>
J2VwaWtfcHl0aG9uJywgJy1waCcsICc3LjAnLCAnLXRuJywgJzgnLCAnLW1hJywgJzIwMCcsICctbWV0YWxfYmluZGluZycsICctaW1hZScsICc8aW5maWxlLm1hZT4nLCAnLW9tYWUnLCAnPG91dGZpbGUubWFlPic=

> <r_lp_tautomer_probability>
1

> <r_epik_Ionization_Penalty>
2.39546e-05

> <r_epik_Ionization_Penalty_Charging>
0

> <r_epik_Ionization_Penalty_Neutral>
2.39546e-05

> <r_epik_State_Penalty>
-0

> <r_epik_Charging_Adjusted_Penalty>
0

> <i_epik_Tot_Q>
0

> <i_epik_Tot_abs_Q>
0

> <r_epik_Metal_State_Penalty>
-0

> <b_epik_Metal_Only>
0

> <s_lp_Force_Field>
OPLS_2005

> <r_lp_Energy>
23.5829

> <b_lp_Chiralities_Consistent>
1

> <s_lp_Variant>
AV-unprocessed.smi:2318-2

> <Gold.Version>
5.8.1

> <Gold.Id.Protein>
6NUR|6NUR_protein|mol2

> <Gold.PLP.Fitness>
41.7802

> <Gold.PLP.PLP>
-43.1369

> <Gold.PLP.part.hbond>
0.0000

> <Gold.PLP.part.metal>
0.0000

> <Gold.PLP.part.buried>
-2.3433

> <Gold.PLP.part.nonpolar>
-39.0239

> <Gold.PLP.part.repulsive>
0.2028

> <Gold.PLP.ligand.clash>
0.0000

> <Gold.PLP.ligand.torsion>
0.8504

> <Gold.PLP.Chemscore.Hbond>
0.0000

> <Gold.PLP.Chemscore.CHOScore>
0.0000

> <Gold.PLP.Chemscore.Metal>
0.0000

> <Gold.PLP.Chemscore.Internal.Correction>
0.3442

> <Gold.Rescore>
     Score         DG    S(hbond)    S(metal)    S(lipo)     H(rot)  DE(clash)    DE(int)     intcor
     10.85     -11.87       0.00        0.00      83.05       1.30       0.22       0.80       ----

> <Gold.Chemscore.Fitness>
10.8537

> <Gold.Chemscore.DG>
-11.8684

> <Gold.Chemscore.ZeroCoef>
-5.4800

> <Gold.Chemscore.Hbond>
0.0000

> <Gold.Chemscore.Metal>
0.0000

> <Gold.Chemscore.Lipo>
83.0527

> <Gold.Chemscore.Internal_Hbond>
0.0000

> <Gold.Chemscore.DEClash>
0.2153

> <Gold.Chemscore.DEInternal>
0.7994

> <Gold.Chemscore.Rot>
1.3003

> <Gold.Chemscore.Internal.Correction>
   9.000000E+99

> <Gold.Chemscore.Hbond.Weighted>
-0.0000

> <Gold.Chemscore.Metal.Weighted>
-0.0000

> <Gold.Chemscore.Lipo.Weighted>
-9.7172

> <Gold.Chemscore.Internal_Hbond.Weighted>
0.0000

> <Gold.Chemscore.DEClash.Weighted>
0.2153

> <Gold.Chemscore.DEInternal.Weighted>
0.7994

> <Gold.Chemscore.Rot.Weighted>
3.3287

> <Gold.Chemscore.Internal.Correction.Weighted>
   9.000000E+99

> <Gold.Protein.RotatedTorsions>
[ 6907 6896 6895 6894 ] final -158.75 input  -60.11 | X-H torsion
[ 7974 7965 7964 7962 ] final  -22.98 input  175.53 | X-H torsion
[ 8008 7997 7996 7995 ] final  137.20 input   59.86 | X-H torsion
[ 10167 10162 10161 10158 ] final -103.31 input  -65.29 | X-H torsion
[ 10718 10713 10712 10709 ] final   18.44 input   66.30 | X-H torsion
[ 10763 10752 10751 10750 ] final -118.78 input  -60.55 | X-H torsion
[ 11005 11000 10999 10996 ] final  -90.64 input  -57.11 | X-H torsion

> <Gold.Protein.ActiveResidues>
 VAL166  LYS551  ARG553  GLY616  TRP617  ASP618  TYR619  PRO620  LYS621  CYS622 
 ASP623  PHE694  ASN695  SER759  ASP760  ASP761  ALA762  ILE779  LEU786  VAL792 
 PHE793  MET794  SER795  GLU796  ALA797  LYS798  CYS799  TRP800  GLU811  SER814 

> <Gold.Protein.RotatedAtoms>
  151.3230  133.4032  159.2655 H   0  0  0  0  0  0  0  0  0  0  0  0  # atno 6907 bound_to 6896
  151.0019  134.9329  159.7969 H   0  0  0  0  0  0  0  0  0  0  0  0  # atno 6908 bound_to 6896
  152.5277  134.3195  159.9195 H   0  0  0  0  0  0  0  0  0  0  0  0  # atno 6909 bound_to 6896
  146.1643  140.4554  142.8558 H   0  0  0  0  0  0  0  0  0  0  0  0  # atno 7974 bound_to 7965
  156.3003  140.2425  156.3870 H   0  0  0  0  0  0  0  0  0  0  0  0  # atno 8008 bound_to 7997
  154.8649  140.0418  157.1708 H   0  0  0  0  0  0  0  0  0  0  0  0  # atno 8009 bound_to 7997
  154.8857  140.2956  155.5403 H   0  0  0  0  0  0  0  0  0  0  0  0  # atno 8010 bound_to 7997
  140.2213  143.3674  152.0967 H   0  0  0  0  0  0  0  0  0  0  0  0  # atno 10167 bound_to 10162
  157.0964  130.6449  149.5861 H   0  0  0  0  0  0  0  0  0  0  0  0  # atno 10718 bound_to 10713
  154.8598  135.4261  154.2194 H   0  0  0  0  0  0  0  0  0  0  0  0  # atno 10763 bound_to 10752
  153.3202  135.6981  153.7043 H   0  0  0  0  0  0  0  0  0  0  0  0  # atno 10764 bound_to 10752
  153.6101  135.3521  155.2949 H   0  0  0  0  0  0  0  0  0  0  0  0  # atno 10765 bound_to 10752
  141.1561  133.7705  156.9766 H   0  0  0  0  0  0  0  0  0  0  0  0  # atno 11005 bound_to 11000
  144.8071  140.6318  143.6440 LP  0  0  0  0  0  0  0  0  0  0  0  0  # atno 17320 bound_to 7965
  145.4507  139.1524  143.3920 LP  0  0  0  0  0  0  0  0  0  0  0  0  # atno 17321 bound_to 7965
  139.5143  144.6946  151.5666 LP  0  0  0  0  0  0  0  0  0  0  0  0  # atno 17342 bound_to 10162
  140.6253  143.9181  150.6559 LP  0  0  0  0  0  0  0  0  0  0  0  0  # atno 17343 bound_to 10162
  155.9885  130.4928  150.7171 LP  0  0  0  0  0  0  0  0  0  0  0  0  # atno 17370 bound_to 10713
  157.4678  131.0890  151.0676 LP  0  0  0  0  0  0  0  0  0  0  0  0  # atno 17371 bound_to 10713
  140.1094  134.9486  157.2042 LP  0  0  0  0  0  0  0  0  0  0  0  0  # atno 17394 bound_to 11000
  140.3214  134.2912  155.7245 LP  0  0  0  0  0  0  0  0  0  0  0  0  # atno 17395 bound_to 11000

$$$$
