AV-unprocessed.smi:1790|AV-procd|sdf|7216|dock4
  -GOLD-   22720 8453D 1   1.00000     0.00000
 Structure written by MMmdl.
 33 34  0  0  0  0  0  0  0  0  1 V2000
  148.9908  142.4372  158.0109 O   0  0  0  0  0  0  0  0  0  0  0  0
  150.2078  142.4398  157.8319 C   0  0  0  0  0  0  0  0  0  0  0  0
  151.0914  143.2837  158.7498 C   0  0  0  0  0  0  0  0  0  0  0  0
  151.6050  142.4622  159.7866 O   0  0  0  0  0  0  0  0  0  0  0  0
  153.0173  142.3593  159.7525 C   0  0  0  0  0  0  0  0  0  0  0  0
  153.4281  141.0545  160.3999 C   0  0  0  0  0  0  0  0  0  0  0  0
  154.0512  141.0415  161.7776 C   0  0  0  0  0  0  0  0  0  0  0  0
  154.8907  140.7117  160.5696 C   0  0  0  0  0  0  0  0  0  0  0  0
  150.8614  141.7232  156.8955 N   0  0  0  0  0  0  0  0  0  0  0  0
  150.3563  140.8651  155.9039 C   0  0  0  0  0  0  0  0  0  0  0  0
  149.1045  140.9289  155.3788 C   0  0  0  0  0  0  0  0  0  0  0  0
  148.6515  140.0082  154.3494 C   0  0  0  0  0  0  0  0  0  0  0  0
  147.2667  140.1262  153.7319 C   0  0  0  0  0  0  0  0  0  0  0  0
  147.0415  139.1494  152.8523 F   0  0  0  0  0  0  0  0  0  0  0  0
  146.3382  140.0497  154.6843 F   0  0  0  0  0  0  0  0  0  0  0  0
  147.1222  141.2943  153.1059 F   0  0  0  0  0  0  0  0  0  0  0  0
  149.5478  139.1019  153.9178 C   0  0  0  0  0  0  0  0  0  0  0  0
  150.8359  139.0291  154.4519 N   0  0  0  0  0  0  0  0  0  0  0  0
  151.3065  139.8514  155.4161 C   0  0  0  0  0  0  0  0  0  0  0  0
  152.4588  139.7265  155.8297 O   0  0  0  0  0  0  0  0  0  0  0  0
  151.4466  138.3154  154.0813 H   0  0  0  0  0  0  0  0  0  0  0  0
  151.9081  143.7255  158.1760 H   0  0  0  0  0  0  0  0  0  0  0  0
  150.4953  144.0972  159.1662 H   0  0  0  0  0  0  0  0  0  0  0  0
  153.3748  142.3739  158.7218 H   0  0  0  0  0  0  0  0  0  0  0  0
  153.4775  143.1960  160.2812 H   0  0  0  0  0  0  0  0  0  0  0  0
  152.7729  140.2192  160.1598 H   0  0  0  0  0  0  0  0  0  0  0  0
  154.2262  141.9987  162.2646 H   0  0  0  0  0  0  0  0  0  0  0  0
  153.7803  140.2237  162.4422 H   0  0  0  0  0  0  0  0  0  0  0  0
  155.1824  139.6728  160.4287 H   0  0  0  0  0  0  0  0  0  0  0  0
  155.6253  141.4494  160.2526 H   0  0  0  0  0  0  0  0  0  0  0  0
  151.8693  141.7888  156.9169 H   0  0  0  0  0  0  0  0  0  0  0  0
  148.4012  141.6780  155.7025 H   0  0  0  0  0  0  0  0  0  0  0  0
  149.3554  138.3774  153.1404 H   0  0  0  0  0  0  0  0  0  0  0  0
  1  2  2  0  0  0  0
  2  3  1  0  0  0  0
  2  9  1  0  0  0  0
  3  4  1  0  0  0  0
  3 22  1  0  0  0  0
  3 23  1  0  0  0  0
  4  5  1  0  0  0  0
  5  6  1  0  0  0  0
  5 24  1  0  0  0  0
  5 25  1  0  0  0  0
  6  8  1  0  0  0  0
  6  7  1  0  0  0  0
  6 26  1  0  0  0  0
  7  8  1  0  0  0  0
  7 27  1  0  0  0  0
  7 28  1  0  0  0  0
  8 29  1  0  0  0  0
  8 30  1  0  0  0  0
  9 10  1  0  0  0  0
  9 31  1  0  0  0  0
 10 19  1  0  0  0  0
 10 11  2  0  0  0  0
 11 12  1  0  0  0  0
 11 32  1  0  0  0  0
 12 13  1  0  0  0  0
 12 17  2  0  0  0  0
 13 14  1  0  0  0  0
 13 15  1  0  0  0  0
 13 16  1  0  0  0  0
 17 18  1  0  0  0  0
 17 33  1  0  0  0  0
 18 21  1  0  0  0  0
 18 19  1  0  0  0  0
 19 20  2  0  0  0  0
M  END
> <s_m_source_file>
AV-unprocessed.smi

> <i_m_source_file_index>
1790

> <i_lp_mmshare_version>
43012

> <i_f3d_flags>
0

> <s_epik_input>
W0NIMl0xW0NIMl1bQ0hdMVtDSDJdT1tDSDJdQyg9TylbTkhdYzJbY0hdYyhDKEYpKEYpRilbY0hdW25IXWMyPU8=

> <s_epik_cmdline>
J2VwaWtfcHl0aG9uJywgJy1waCcsICc3LjAnLCAnLXRuJywgJzgnLCAnLW1hJywgJzIwMCcsICctbWV0YWxfYmluZGluZycsICctaW1hZScsICc8aW5maWxlLm1hZT4nLCAnLW9tYWUnLCAnPG91dGZpbGUubWFlPic=

> <r_lp_tautomer_probability>
0.999

> <r_epik_Ionization_Penalty>
0.00811055

> <r_epik_Ionization_Penalty_Charging>
0.00811046

> <r_epik_Ionization_Penalty_Neutral>
9.25705e-08

> <r_epik_State_Penalty>
0.00609496

> <r_epik_Charging_Adjusted_Penalty>
0.0142054

> <i_epik_Tot_Q>
0

> <i_epik_Tot_abs_Q>
0

> <r_epik_Metal_State_Penalty>
0.317593

> <b_epik_Metal_Only>
0

> <s_lp_Force_Field>
OPLS_2005

> <r_lp_Energy>
26.3792

> <b_lp_Chiralities_Consistent>
1

> <s_lp_Variant>
AV-unprocessed.smi:1790-1

> <Gold.Version>
5.8.1

> <Gold.Id.Protein>
6NUR|6NUR_protein|mol2

> <Gold.PLP.Fitness>
40.8831

> <Gold.PLP.PLP>
-37.1151

> <Gold.PLP.part.hbond>
-1.3055

> <Gold.PLP.part.metal>
0.0000

> <Gold.PLP.part.buried>
-2.8898

> <Gold.PLP.part.nonpolar>
-32.6428

> <Gold.PLP.part.repulsive>
0.3202

> <Gold.PLP.ligand.clash>
0.9488

> <Gold.PLP.ligand.torsion>
1.3659

> <Gold.PLP.Chemscore.Hbond>
1.0000

> <Gold.PLP.Chemscore.CHOScore>
1.2692

> <Gold.PLP.Chemscore.Metal>
0.0000

> <Gold.Chemscore.Hbonds>
donor molecule, donor type, donor heavy atom, donor atom, acceptor molecule, acceptor atom, score
      P1  H  7997  8009       L1    20  1.00
      L1  C    17    33       P1  7948  1.00
      L1  C    17    33       P1  7957  0.29

> <Gold.PLP.Chemscore.Internal.Correction>
0.6408

> <Gold.Rescore>
     Score         DG    S(hbond)    S(metal)    S(lipo)     H(rot)  DE(clash)    DE(int)     intcor
     11.30     -13.63       1.00        0.00      82.00       1.87       0.08       2.25       ----

> <Gold.Chemscore.Fitness>
11.3004

> <Gold.Chemscore.DG>
-13.6325

> <Gold.Chemscore.ZeroCoef>
-5.4800

> <Gold.Chemscore.Hbond>
0.9990

> <Gold.Chemscore.Metal>
0.0000

> <Gold.Chemscore.Lipo>
81.9978

> <Gold.Chemscore.Internal_Hbond>
0.0000

> <Gold.Chemscore.DEClash>
0.0829

> <Gold.Chemscore.DEInternal>
2.2492

> <Gold.Chemscore.Rot>
1.8664

> <Gold.Chemscore.Internal.Correction>
   9.000000E+99

> <Gold.Chemscore.Hbonds>
donor molecule, donor type, donor heavy atom, donor atom, acceptor molecule, acceptor atom, score
      P1  H  7997  8009       L1    20  0.94

> <Gold.Chemscore.Hbond.Weighted>
-3.3367

> <Gold.Chemscore.Metal.Weighted>
-0.0000

> <Gold.Chemscore.Lipo.Weighted>
-9.5937

> <Gold.Chemscore.Internal_Hbond.Weighted>
0.0000

> <Gold.Chemscore.DEClash.Weighted>
0.0829

> <Gold.Chemscore.DEInternal.Weighted>
2.2492

> <Gold.Chemscore.Rot.Weighted>
4.7780

> <Gold.Chemscore.Internal.Correction.Weighted>
   9.000000E+99

> <Gold.Protein.RotatedTorsions>
[ 6907 6896 6895 6894 ] final  126.70 input  -60.11 | X-H torsion
[ 7974 7965 7964 7962 ] final   70.64 input  175.53 | X-H torsion
[ 8008 7997 7996 7995 ] final -140.42 input   59.86 | X-H torsion
[ 10167 10162 10161 10158 ] final   12.84 input  -65.29 | X-H torsion
[ 10718 10713 10712 10709 ] final   81.22 input   66.30 | X-H torsion
[ 10763 10752 10751 10750 ] final  -56.06 input  -60.55 | X-H torsion
[ 11005 11000 10999 10996 ] final  -15.25 input  -57.11 | X-H torsion

> <Gold.Protein.ActiveResidues>
 VAL166  LYS551  ARG553  GLY616  TRP617  ASP618  TYR619  PRO620  LYS621  CYS622 
 ASP623  PHE694  ASN695  SER759  ASP760  ASP761  ALA762  ILE779  LEU786  VAL792 
 PHE793  MET794  SER795  GLU796  ALA797  LYS798  CYS799  TRP800  GLU811  SER814 

> <Gold.Protein.RotatedAtoms>
  152.3879  133.6638  159.6213 H   0  0  0  0  0  0  0  0  0  0  0  0  # atno 6907 bound_to 6896
  150.7794  133.9003  159.3348 H   0  0  0  0  0  0  0  0  0  0  0  0  # atno 6908 bound_to 6896
  151.6796  135.0965  160.0265 H   0  0  0  0  0  0  0  0  0  0  0  0  # atno 6909 bound_to 6896
  145.7756  139.2863  143.1295 H   0  0  0  0  0  0  0  0  0  0  0  0  # atno 7974 bound_to 7965
  155.4610  140.0546  157.2991 H   0  0  0  0  0  0  0  0  0  0  0  0  # atno 8008 bound_to 7997
  154.4737  140.2051  155.9885 H   0  0  0  0  0  0  0  0  0  0  0  0  # atno 8009 bound_to 7997
  156.1098  140.3206  155.8061 H   0  0  0  0  0  0  0  0  0  0  0  0  # atno 8010 bound_to 7997
  140.6042  143.8542  150.6996 H   0  0  0  0  0  0  0  0  0  0  0  0  # atno 10167 bound_to 10162
  157.6827  130.9994  150.2195 H   0  0  0  0  0  0  0  0  0  0  0  0  # atno 10718 bound_to 10713
  154.2006  135.6411  153.5086 H   0  0  0  0  0  0  0  0  0  0  0  0  # atno 10763 bound_to 10752
  153.0013  135.5450  154.6319 H   0  0  0  0  0  0  0  0  0  0  0  0  # atno 10764 bound_to 10752
  154.5731  135.2918  155.0781 H   0  0  0  0  0  0  0  0  0  0  0  0  # atno 10765 bound_to 10752
  140.7947  133.8260  155.9413 H   0  0  0  0  0  0  0  0  0  0  0  0  # atno 11005 bound_to 11000
  146.0125  140.8422  142.9963 LP  0  0  0  0  0  0  0  0  0  0  0  0  # atno 17320 bound_to 7965
  144.6805  140.2511  143.7331 LP  0  0  0  0  0  0  0  0  0  0  0  0  # atno 17321 bound_to 7965
  140.2095  143.3894  152.1729 LP  0  0  0  0  0  0  0  0  0  0  0  0  # atno 17342 bound_to 10162
  139.5313  144.7161  151.5048 LP  0  0  0  0  0  0  0  0  0  0  0  0  # atno 17343 bound_to 10162
  156.2849  130.3738  149.7898 LP  0  0  0  0  0  0  0  0  0  0  0  0  # atno 17370 bound_to 10713
  156.5575  130.8369  151.3318 LP  0  0  0  0  0  0  0  0  0  0  0  0  # atno 17371 bound_to 10713
  140.9354  134.1968  157.4835 LP  0  0  0  0  0  0  0  0  0  0  0  0  # atno 17394 bound_to 11000
  139.8727  134.9850  156.5263 LP  0  0  0  0  0  0  0  0  0  0  0  0  # atno 17395 bound_to 11000

$$$$
