AV-unprocessed.smi:162|AV-procd|sdf|1378|dock9
  -GOLD-   2262019103D 1   1.00000     0.00000
 Structure written by MMmdl.
 54 57  0  0  0  0  0  0  0  0  1 V2000
  151.9448  145.3948  159.5911 C   0  0  0  0  0  0  0  0  0  0  0  0
  152.5173  144.3841  158.7814 O   0  0  0  0  0  0  0  0  0  0  0  0
  151.5801  143.3877  158.4063 C   0  0  0  0  0  0  0  0  0  0  0  0
  151.9207  142.0747  159.1299 C   0  0  2  0  0  0  0  0  0  0  0  0
  152.8752  142.2503  160.3077 C   0  0  0  0  0  0  0  0  0  0  0  0
  153.3622  140.8167  160.5363 C   0  0  2  0  0  0  0  0  0  0  0  0
  154.6543  140.7475  161.1219 O   0  0  0  0  0  0  0  0  0  0  0  0
  154.6490  140.9081  162.5311 C   0  0  0  0  0  0  0  0  0  0  0  0
  153.3714  140.2073  159.1261 C   0  0  0  0  0  0  0  0  0  0  0  0
  152.6091  141.1143  158.2755 N   0  0  0  0  0  0  0  0  0  0  0  0
  151.8767  140.5100  157.3159 C   0  0  0  0  0  0  0  0  0  0  0  0
  152.5604  139.8857  156.3263 N   0  0  0  0  0  0  0  0  0  0  0  0
  151.8974  139.2769  155.3386 C   0  0  0  0  0  0  0  0  0  0  0  0
  150.5789  139.1746  155.1560 N   0  0  0  0  0  0  0  0  0  0  0  0
  149.8899  139.7962  156.1559 C   0  0  0  0  0  0  0  0  0  0  0  0
  150.4542  140.4801  157.2690 C   0  0  0  0  0  0  0  0  0  0  0  0
  149.4425  140.9767  158.0824 N   0  0  0  0  0  0  0  0  0  0  0  0
  148.3432  140.6165  157.4780 C   0  0  0  0  0  0  0  0  0  0  0  0
  148.5193  139.8993  156.3161 N   0  0  0  0  0  0  0  0  0  0  0  0
  147.4769  139.3757  155.4464 C   0  0  0  0  0  0  0  0  0  0  0  0
  146.5348  140.4615  154.8708 C   0  0  0  0  0  0  0  0  0  0  0  0
  145.6209  139.8177  153.9992 O   0  0  0  0  0  0  0  0  0  0  0  0
  145.7341  141.1349  156.0036 C   0  0  0  0  0  0  0  0  0  0  0  0
  144.9058  142.3293  155.4972 C   0  0  0  0  0  0  0  0  0  0  0  0
  145.7528  143.2634  154.8388 O   0  0  0  0  0  0  0  0  0  0  0  0
  146.3760  142.7201  153.6814 C   0  0  0  0  0  0  0  0  0  0  0  0
  147.2914  141.5461  154.0724 C   0  0  0  0  0  0  0  0  0  0  0  0
  150.9996  141.6379  159.5157 H   0  0  0  0  0  0  0  0  0  0  0  0
  152.6353  140.2736  161.1433 H   0  0  0  0  0  0  0  0  0  0  0  0
  152.7071  146.1285  159.8532 H   0  0  0  0  0  0  0  0  0  0  0  0
  151.5454  144.9783  160.5166 H   0  0  0  0  0  0  0  0  0  0  0  0
  151.1433  145.9147  159.0647 H   0  0  0  0  0  0  0  0  0  0  0  0
  150.5600  143.7012  158.6347 H   0  0  0  0  0  0  0  0  0  0  0  0
  151.6423  143.2370  157.3274 H   0  0  0  0  0  0  0  0  0  0  0  0
  153.7113  142.8919  160.0244 H   0  0  0  0  0  0  0  0  0  0  0  0
  152.3925  142.6834  161.1841 H   0  0  0  0  0  0  0  0  0  0  0  0
  155.6668  140.8173  162.9104 H   0  0  0  0  0  0  0  0  0  0  0  0
  154.0417  140.1416  163.0141 H   0  0  0  0  0  0  0  0  0  0  0  0
  154.2723  141.8888  162.8221 H   0  0  0  0  0  0  0  0  0  0  0  0
  154.3888  140.1574  158.7366 H   0  0  0  0  0  0  0  0  0  0  0  0
  152.9701  139.1926  159.1307 H   0  0  0  0  0  0  0  0  0  0  0  0
  152.5118  138.8039  154.5868 H   0  0  0  0  0  0  0  0  0  0  0  0
  147.3657  140.8612  157.8681 H   0  0  0  0  0  0  0  0  0  0  0  0
  147.9536  138.8182  154.6388 H   0  0  0  0  0  0  0  0  0  0  0  0
  146.8995  138.6464  156.0159 H   0  0  0  0  0  0  0  0  0  0  0  0
  145.2149  140.4737  153.4533 H   0  0  0  0  0  0  0  0  0  0  0  0
  145.0850  140.4110  156.4979 H   0  0  0  0  0  0  0  0  0  0  0  0
  146.4247  141.4959  156.7672 H   0  0  0  0  0  0  0  0  0  0  0  0
  144.1119  142.0026  154.8239 H   0  0  0  0  0  0  0  0  0  0  0  0
  144.4208  142.8283  156.3363 H   0  0  0  0  0  0  0  0  0  0  0  0
  145.6195  142.4053  152.9610 H   0  0  0  0  0  0  0  0  0  0  0  0
  146.9614  143.5032  153.1993 H   0  0  0  0  0  0  0  0  0  0  0  0
  148.1107  141.9324  154.6801 H   0  0  0  0  0  0  0  0  0  0  0  0
  147.7482  141.1245  153.1761 H   0  0  0  0  0  0  0  0  0  0  0  0
  1  2  1  0  0  0  0
  1 30  1  0  0  0  0
  1 31  1  0  0  0  0
  1 32  1  0  0  0  0
  2  3  1  0  0  0  0
  3  4  1  0  0  0  0
  3 33  1  0  0  0  0
  3 34  1  0  0  0  0
  4 28  1  0  0  0  0
  4 10  1  0  0  0  0
  4  5  1  0  0  0  0
  5  6  1  0  0  0  0
  5 35  1  0  0  0  0
  5 36  1  0  0  0  0
  6 29  1  0  0  0  0
  6  7  1  0  0  0  0
  6  9  1  0  0  0  0
  7  8  1  0  0  0  0
  8 37  1  0  0  0  0
  8 38  1  0  0  0  0
  8 39  1  0  0  0  0
  9 10  1  0  0  0  0
  9 40  1  0  0  0  0
  9 41  1  0  0  0  0
 10 11  1  0  0  0  0
 11 16  1  0  0  0  0
 11 12  2  0  0  0  0
 12 13  1  0  0  0  0
 13 14  2  0  0  0  0
 13 42  1  0  0  0  0
 14 15  1  0  0  0  0
 15 19  1  0  0  0  0
 15 16  2  0  0  0  0
 16 17  1  0  0  0  0
 17 18  2  0  0  0  0
 18 19  1  0  0  0  0
 18 43  1  0  0  0  0
 19 20  1  0  0  0  0
 20 21  1  0  0  0  0
 20 44  1  0  0  0  0
 20 45  1  0  0  0  0
 21 27  1  0  0  0  0
 21 22  1  0  0  0  0
 21 23  1  0  0  0  0
 22 46  1  0  0  0  0
 23 24  1  0  0  0  0
 23 47  1  0  0  0  0
 23 48  1  0  0  0  0
 24 25  1  0  0  0  0
 24 49  1  0  0  0  0
 24 50  1  0  0  0  0
 25 26  1  0  0  0  0
 26 27  1  0  0  0  0
 26 51  1  0  0  0  0
 26 52  1  0  0  0  0
 27 53  1  0  0  0  0
 27 54  1  0  0  0  0
M  END
> <s_m_source_file>
AV-unprocessed.smi

> <i_m_source_file_index>
162

> <i_lp_mmshare_version>
43012

> <i_f3d_flags>
0

> <s_epik_input>
W0NIM11PW0NIMl1bQ0BASF0xW0NIMl1bQ0BASF0oT1tDSDNdKVtDSDJdTjFjKG5bY0hdbjIpYyhjMjMpbltjSF1uM1tDSDJdQzQoW09IXSlbQ0gyXVtDSDJdT1tDSDJdW0NIMl00

> <s_epik_cmdline>
J2VwaWtfcHl0aG9uJywgJy1waCcsICc3LjAnLCAnLXRuJywgJzgnLCAnLW1hJywgJzIwMCcsICctbWV0YWxfYmluZGluZycsICctaW1hZScsICc8aW5maWxlLm1hZT4nLCAnLW9tYWUnLCAnPG91dGZpbGUubWFlPic=

> <r_lp_tautomer_probability>
1

> <r_epik_Ionization_Penalty>
0.00660334

> <r_epik_Ionization_Penalty_Charging>
0

> <r_epik_Ionization_Penalty_Neutral>
0.00660334

> <r_epik_State_Penalty>
0.00469459

> <r_epik_Charging_Adjusted_Penalty>
0.00469459

> <i_epik_Tot_Q>
0

> <i_epik_Tot_abs_Q>
0

> <r_epik_Metal_State_Penalty>
-0

> <b_epik_Metal_Only>
0

> <s_lp_Force_Field>
OPLS_2005

> <r_lp_Energy>
44.4659

> <b_lp_Chiralities_Consistent>
1

> <s_lp_Variant>
AV-unprocessed.smi:162-3

> <Gold.Version>
5.8.1

> <Gold.Id.Protein>
6NUR|6NUR_protein|mol2

> <Gold.PLP.Fitness>
43.1667

> <Gold.PLP.PLP>
-40.7020

> <Gold.PLP.part.hbond>
-2.2426

> <Gold.PLP.part.metal>
0.0000

> <Gold.PLP.part.buried>
-5.5349

> <Gold.PLP.part.nonpolar>
-33.2829

> <Gold.PLP.part.repulsive>
0.2928

> <Gold.PLP.ligand.clash>
0.0000

> <Gold.PLP.ligand.torsion>
1.4123

> <Gold.PLP.Chemscore.Hbond>
1.7040

> <Gold.PLP.Chemscore.CHOScore>
0.0000

> <Gold.PLP.Chemscore.Metal>
0.0000

> <Gold.Chemscore.Hbonds>
donor molecule, donor type, donor heavy atom, donor atom, acceptor molecule, acceptor atom, score
      L1  H    22    46       P1 10175  0.66
      P1  H  7997  8009       L1    12  1.00

> <Gold.PLP.Chemscore.Internal.Correction>
0.1773

> <Gold.Rescore>
     Score         DG    S(hbond)    S(metal)    S(lipo)     H(rot)  DE(clash)    DE(int)     intcor
     12.12     -14.92       1.68        0.00      95.52       2.86       0.01       2.80       ----

> <Gold.Chemscore.Fitness>
12.1173

> <Gold.Chemscore.DG>
-14.9233

> <Gold.Chemscore.ZeroCoef>
-5.4800

> <Gold.Chemscore.Hbond>
1.6767

> <Gold.Chemscore.Metal>
0.0000

> <Gold.Chemscore.Lipo>
95.5173

> <Gold.Chemscore.Internal_Hbond>
0.0000

> <Gold.Chemscore.DEClash>
0.0089

> <Gold.Chemscore.DEInternal>
2.7970

> <Gold.Chemscore.Rot>
2.8642

> <Gold.Chemscore.Internal.Correction>
   9.000000E+99

> <Gold.Chemscore.Hbonds>
donor molecule, donor type, donor heavy atom, donor atom, acceptor molecule, acceptor atom, score
      L1  H    22    46       P1 10175  0.65
      P1  H  7997  8009       L1    12  0.88

> <Gold.Chemscore.Hbond.Weighted>
-5.6001

> <Gold.Chemscore.Metal.Weighted>
-0.0000

> <Gold.Chemscore.Lipo.Weighted>
-11.1755

> <Gold.Chemscore.Internal_Hbond.Weighted>
0.0000

> <Gold.Chemscore.DEClash.Weighted>
0.0089

> <Gold.Chemscore.DEInternal.Weighted>
2.7970

> <Gold.Chemscore.Rot.Weighted>
7.3324

> <Gold.Chemscore.Internal.Correction.Weighted>
   9.000000E+99

> <Gold.Protein.RotatedTorsions>
[ 6907 6896 6895 6894 ] final   91.82 input  -60.11 | X-H torsion
[ 7974 7965 7964 7962 ] final  -16.80 input  175.53 | X-H torsion
[ 8008 7997 7996 7995 ] final -165.63 input   59.86 | X-H torsion
[ 10167 10162 10161 10158 ] final -117.79 input  -65.29 | X-H torsion
[ 10718 10713 10712 10709 ] final -111.69 input   66.30 | X-H torsion
[ 10763 10752 10751 10750 ] final    1.01 input  -60.55 | X-H torsion
[ 11005 11000 10999 10996 ] final   72.62 input  -57.11 | X-H torsion

> <Gold.Protein.ActiveResidues>
 VAL166  LYS551  ARG553  GLY616  TRP617  ASP618  TYR619  PRO620  LYS621  CYS622 
 ASP623  PHE694  ASN695  SER759  ASP760  ASP761  ALA762  ILE779  LEU786  VAL792 
 PHE793  MET794  SER795  GLU796  ALA797  LYS798  CYS799  TRP800  GLU811  SER814 

> <Gold.Protein.RotatedAtoms>
  152.5451  134.1598  159.8552 H   0  0  0  0  0  0  0  0  0  0  0  0  # atno 6907 bound_to 6896
  151.1618  133.4833  159.2601 H   0  0  0  0  0  0  0  0  0  0  0  0  # atno 6908 bound_to 6896
  151.1365  135.0169  159.8661 H   0  0  0  0  0  0  0  0  0  0  0  0  # atno 6909 bound_to 6896
  146.1971  140.3688  142.8437 H   0  0  0  0  0  0  0  0  0  0  0  0  # atno 7974 bound_to 7965
  155.8525  140.0965  157.1665 H   0  0  0  0  0  0  0  0  0  0  0  0  # atno 8008 bound_to 7997
  154.3986  140.1380  156.3924 H   0  0  0  0  0  0  0  0  0  0  0  0  # atno 8009 bound_to 7997
  155.7945  140.3455  155.5370 H   0  0  0  0  0  0  0  0  0  0  0  0  # atno 8010 bound_to 7997
  140.0645  143.4936  152.2014 H   0  0  0  0  0  0  0  0  0  0  0  0  # atno 10167 bound_to 10162
  156.0661  130.5880  150.8407 H   0  0  0  0  0  0  0  0  0  0  0  0  # atno 10718 bound_to 10713
  153.3134  135.6964  153.7095 H   0  0  0  0  0  0  0  0  0  0  0  0  # atno 10763 bound_to 10752
  153.5964  135.3470  155.2930 H   0  0  0  0  0  0  0  0  0  0  0  0  # atno 10764 bound_to 10752
  154.8580  135.4330  154.2278 H   0  0  0  0  0  0  0  0  0  0  0  0  # atno 10765 bound_to 10752
  139.9481  134.7276  156.0928 H   0  0  0  0  0  0  0  0  0  0  0  0  # atno 11005 bound_to 11000
  144.8603  140.7129  143.6112 LP  0  0  0  0  0  0  0  0  0  0  0  0  # atno 17320 bound_to 7965
  145.3608  139.1682  143.4384 LP  0  0  0  0  0  0  0  0  0  0  0  0  # atno 17321 bound_to 7965
  139.5873  144.7536  151.3487 LP  0  0  0  0  0  0  0  0  0  0  0  0  # atno 17342 bound_to 10162
  140.7156  143.7275  150.7648 LP  0  0  0  0  0  0  0  0  0  0  0  0  # atno 17343 bound_to 10162
  157.5704  131.0946  150.9426 LP  0  0  0  0  0  0  0  0  0  0  0  0  # atno 17370 bound_to 10713
  156.9644  130.5467  149.5287 LP  0  0  0  0  0  0  0  0  0  0  0  0  # atno 17371 bound_to 10713
  141.1137  133.6634  156.3042 LP  0  0  0  0  0  0  0  0  0  0  0  0  # atno 17394 bound_to 11000
  140.5784  134.5770  157.5474 LP  0  0  0  0  0  0  0  0  0  0  0  0  # atno 17395 bound_to 11000

$$$$
