AV-unprocessed.smi:643|AV-procd|sdf|3154|dock2
  -GOLD-   22720 0 73D 1   1.00000     0.00000
 Structure written by MMmdl.
 40 41  0  0  0  0  0  0  0  0  1 V2000
  143.4530  135.1067  153.0740 C   0  0  0  0  0  0  0  0  0  0  0  0
  144.9819  135.3084  152.9955 C   0  0  0  0  0  0  0  0  0  0  0  0
  145.5440  135.3094  154.4340 C   0  0  0  0  0  0  0  0  0  0  0  0
  145.6129  134.1943  152.1446 C   0  0  0  0  0  0  0  0  0  0  0  0
  145.4140  134.6166  150.6861 C   0  0  0  0  0  0  0  0  0  0  0  0
  145.2753  136.1452  150.6989 C   0  0  0  0  0  0  0  0  0  0  0  0
  145.3032  136.5854  152.1746 C   0  0  2  0  0  0  0  0  0  0  0  0
  146.6227  137.1414  152.4836 N   0  0  0  0  0  0  0  0  0  0  0  0
  146.8651  138.1953  153.2771 C   0  0  0  0  0  0  0  0  0  0  0  0
  145.9842  138.8351  153.8525 O   0  0  0  0  0  0  0  0  0  0  0  0
  148.1829  138.4450  153.3616 N   0  0  0  0  0  0  0  0  0  0  0  0
  148.8226  139.4804  154.0896 C   0  0  0  0  0  0  0  0  0  0  0  0
  148.3044  140.8047  154.0740 C   0  0  0  0  0  0  0  0  0  0  0  0
  149.1713  141.4907  154.8766 C   0  0  0  0  0  0  0  0  0  0  0  0
  150.1228  140.5947  155.3208 N   0  0  0  0  0  0  0  0  0  0  0  0
  151.2541  140.8386  156.1943 C   0  0  0  0  0  0  0  0  0  0  0  0
  150.8267  141.4825  157.5209 C   0  0  0  0  0  0  0  0  0  0  0  0
  151.5572  140.9903  158.5205 F   0  0  0  0  0  0  0  0  0  0  0  0
  150.9863  142.8053  157.4743 F   0  0  0  0  0  0  0  0  0  0  0  0
  149.9137  139.3534  154.8319 N   0  0  0  0  0  0  0  0  0  0  0  0
  143.2017  134.1702  153.5731 H   0  0  0  0  0  0  0  0  0  0  0  0
  142.9894  135.0831  152.0876 H   0  0  0  0  0  0  0  0  0  0  0  0
  142.9794  135.9126  153.6357 H   0  0  0  0  0  0  0  0  0  0  0  0
  146.6329  135.3635  154.4533 H   0  0  0  0  0  0  0  0  0  0  0  0
  145.2635  134.3989  154.9643 H   0  0  0  0  0  0  0  0  0  0  0  0
  145.1602  136.1552  155.0056 H   0  0  0  0  0  0  0  0  0  0  0  0
  146.6827  134.1350  152.3494 H   0  0  0  0  0  0  0  0  0  0  0  0
  145.1929  133.2096  152.3527 H   0  0  0  0  0  0  0  0  0  0  0  0
  146.2419  134.2865  150.0580 H   0  0  0  0  0  0  0  0  0  0  0  0
  144.5040  134.1672  150.2867 H   0  0  0  0  0  0  0  0  0  0  0  0
  146.0567  136.6248  150.1076 H   0  0  0  0  0  0  0  0  0  0  0  0
  144.3244  136.4264  150.2446 H   0  0  0  0  0  0  0  0  0  0  0  0
  144.5406  137.3490  152.3386 H   0  0  0  0  0  0  0  0  0  0  0  0
  147.4136  136.6790  152.0600 H   0  0  0  0  0  0  0  0  0  0  0  0
  148.7950  137.8308  152.8453 H   0  0  0  0  0  0  0  0  0  0  0  0
  147.4371  141.1907  153.5590 H   0  0  0  0  0  0  0  0  0  0  0  0
  149.1885  142.5306  155.1683 H   0  0  0  0  0  0  0  0  0  0  0  0
  151.7548  139.8875  156.3802 H   0  0  0  0  0  0  0  0  0  0  0  0
  151.9697  141.4774  155.6751 H   0  0  0  0  0  0  0  0  0  0  0  0
  149.7804  141.2815  157.7539 H   0  0  0  0  0  0  0  0  0  0  0  0
  1  2  1  0  0  0  0
  1 21  1  0  0  0  0
  1 22  1  0  0  0  0
  1 23  1  0  0  0  0
  2  7  1  0  0  0  0
  2  3  1  0  0  0  0
  2  4  1  0  0  0  0
  3 24  1  0  0  0  0
  3 25  1  0  0  0  0
  3 26  1  0  0  0  0
  4  5  1  0  0  0  0
  4 27  1  0  0  0  0
  4 28  1  0  0  0  0
  5  6  1  0  0  0  0
  5 29  1  0  0  0  0
  5 30  1  0  0  0  0
  6  7  1  0  0  0  0
  6 31  1  0  0  0  0
  6 32  1  0  0  0  0
  7  8  1  0  0  0  0
  7 33  1  0  0  0  0
  8  9  1  0  0  0  0
  8 34  1  0  0  0  0
  9 10  2  0  0  0  0
  9 11  1  0  0  0  0
 11 12  1  0  0  0  0
 11 35  1  0  0  0  0
 12 20  2  0  0  0  0
 12 13  1  0  0  0  0
 13 14  2  0  0  0  0
 13 36  1  0  0  0  0
 14 15  1  0  0  0  0
 14 37  1  0  0  0  0
 15 16  1  0  0  0  0
 15 20  1  0  0  0  0
 16 17  1  0  0  0  0
 16 38  1  0  0  0  0
 16 39  1  0  0  0  0
 17 18  1  0  0  0  0
 17 19  1  0  0  0  0
 17 40  1  0  0  0  0
M  END
> <s_m_source_file>
AV-unprocessed.smi

> <i_m_source_file_index>
643

> <i_lp_mmshare_version>
43012

> <i_f3d_flags>
0

> <s_epik_input>
W0NIM11DMShbQ0gzXSlbQ0gyXVtDSDJdW0NIMl1bQ0BIXTFbTkhdQyg9TylbTkhdYzJbY0hdW2NIXW4objIpW0NIMl1bQ0hdKEYpRg==

> <s_epik_cmdline>
J2VwaWtfcHl0aG9uJywgJy1waCcsICc3LjAnLCAnLXRuJywgJzgnLCAnLW1hJywgJzIwMCcsICctbWV0YWxfYmluZGluZycsICctaW1hZScsICc8aW5maWxlLm1hZT4nLCAnLW9tYWUnLCAnPG91dGZpbGUubWFlPic=

> <r_lp_tautomer_probability>
1

> <r_epik_Ionization_Penalty>
3.99908e-05

> <r_epik_Ionization_Penalty_Charging>
0

> <r_epik_Ionization_Penalty_Neutral>
3.99908e-05

> <r_epik_State_Penalty>
-0

> <r_epik_Charging_Adjusted_Penalty>
0

> <i_epik_Tot_Q>
0

> <i_epik_Tot_abs_Q>
0

> <r_epik_Metal_State_Penalty>
-0

> <b_epik_Metal_Only>
0

> <s_lp_Force_Field>
OPLS_2005

> <r_lp_Energy>
23.9752

> <b_lp_Chiralities_Consistent>
1

> <s_lp_Variant>
AV-unprocessed.smi:643-2

> <Gold.Version>
5.8.1

> <Gold.Id.Protein>
6NUR|6NUR_protein|mol2

> <Gold.PLP.Fitness>
39.6887

> <Gold.PLP.PLP>
-33.2222

> <Gold.PLP.part.hbond>
-2.7913

> <Gold.PLP.part.metal>
0.0000

> <Gold.PLP.part.buried>
-2.2828

> <Gold.PLP.part.nonpolar>
-29.1872

> <Gold.PLP.part.repulsive>
0.3232

> <Gold.PLP.ligand.clash>
0.0000

> <Gold.PLP.ligand.torsion>
1.1910

> <Gold.PLP.Chemscore.Hbond>
1.9440

> <Gold.PLP.Chemscore.CHOScore>
1.0000

> <Gold.PLP.Chemscore.Metal>
0.0000

> <Gold.Chemscore.Hbonds>
donor molecule, donor type, donor heavy atom, donor atom, acceptor molecule, acceptor atom, score
      L1  H     8    34       P1  7948  1.00
      L1  H    11    35       P1  7948  0.96
      L1  C    14    37       P1  8028  1.00

> <Gold.PLP.Chemscore.Internal.Correction>
0.0166

> <Gold.Rescore>
     Score         DG    S(hbond)    S(metal)    S(lipo)     H(rot)  DE(clash)    DE(int)     intcor
     14.15     -15.21       1.94        0.00      55.82       1.28       0.09       0.97       ----

> <Gold.Chemscore.Fitness>
14.1511

> <Gold.Chemscore.DG>
-15.2110

> <Gold.Chemscore.ZeroCoef>
-5.4800

> <Gold.Chemscore.Hbond>
1.9371

> <Gold.Chemscore.Metal>
0.0000

> <Gold.Chemscore.Lipo>
55.8164

> <Gold.Chemscore.Internal_Hbond>
0.0000

> <Gold.Chemscore.DEClash>
0.0864

> <Gold.Chemscore.DEInternal>
0.9735

> <Gold.Chemscore.Rot>
1.2771

> <Gold.Chemscore.Internal.Correction>
   9.000000E+99

> <Gold.Chemscore.Hbonds>
donor molecule, donor type, donor heavy atom, donor atom, acceptor molecule, acceptor atom, score
      L1  H     8    34       P1  7948  0.98
      L1  H    11    35       P1  7948  0.92

> <Gold.Chemscore.Hbond.Weighted>
-6.4699

> <Gold.Chemscore.Metal.Weighted>
-0.0000

> <Gold.Chemscore.Lipo.Weighted>
-6.5305

> <Gold.Chemscore.Internal_Hbond.Weighted>
0.0000

> <Gold.Chemscore.DEClash.Weighted>
0.0864

> <Gold.Chemscore.DEInternal.Weighted>
0.9735

> <Gold.Chemscore.Rot.Weighted>
3.2694

> <Gold.Chemscore.Internal.Correction.Weighted>
   9.000000E+99

> <Gold.Protein.RotatedTorsions>
[ 6907 6896 6895 6894 ] final  149.40 input  -60.11 | X-H torsion
[ 7974 7965 7964 7962 ] final  130.14 input  175.53 | X-H torsion
[ 8008 7997 7996 7995 ] final    9.67 input   59.86 | X-H torsion
[ 10167 10162 10161 10158 ] final  -56.61 input  -65.29 | X-H torsion
[ 10718 10713 10712 10709 ] final   55.33 input   66.30 | X-H torsion
[ 10763 10752 10751 10750 ] final   13.24 input  -60.55 | X-H torsion
[ 11005 11000 10999 10996 ] final -141.63 input  -57.11 | X-H torsion

> <Gold.Protein.ActiveResidues>
 VAL166  LYS551  ARG553  GLY616  TRP617  ASP618  TYR619  PRO620  LYS621  CYS622 
 ASP623  PHE694  ASN695  SER759  ASP760  ASP761  ALA762  ILE779  LEU786  VAL792 
 PHE793  MET794  SER795  GLU796  ALA797  LYS798  CYS799  TRP800  GLU811  SER814 

> <Gold.Protein.RotatedAtoms>
  152.1286  133.4394  159.4709 H   0  0  0  0  0  0  0  0  0  0  0  0  # atno 6907 bound_to 6896
  150.6876  134.2448  159.4496 H   0  0  0  0  0  0  0  0  0  0  0  0  # atno 6908 bound_to 6896
  152.0330  134.9756  160.0623 H   0  0  0  0  0  0  0  0  0  0  0  0  # atno 6909 bound_to 6896
  145.0211  139.4131  143.5197 H   0  0  0  0  0  0  0  0  0  0  0  0  # atno 7974 bound_to 7965
  154.7832  140.2822  155.6048 H   0  0  0  0  0  0  0  0  0  0  0  0  # atno 8008 bound_to 7997
  156.2953  140.2619  156.2590 H   0  0  0  0  0  0  0  0  0  0  0  0  # atno 8009 bound_to 7997
  154.9760  140.0375  157.2245 H   0  0  0  0  0  0  0  0  0  0  0  0  # atno 8010 bound_to 7997
  140.6307  143.2458  151.5248 H   0  0  0  0  0  0  0  0  0  0  0  0  # atno 10167 bound_to 10162
  157.5335  130.8647  149.8721 H   0  0  0  0  0  0  0  0  0  0  0  0  # atno 10718 bound_to 10713
  153.1741  135.6817  153.8568 H   0  0  0  0  0  0  0  0  0  0  0  0  # atno 10763 bound_to 10752
  153.7922  135.3167  155.3381 H   0  0  0  0  0  0  0  0  0  0  0  0  # atno 10764 bound_to 10752
  154.8017  135.4774  154.0385 H   0  0  0  0  0  0  0  0  0  0  0  0  # atno 10765 bound_to 10752
  140.8305  134.2523  157.4859 H   0  0  0  0  0  0  0  0  0  0  0  0  # atno 11005 bound_to 11000
  146.3485  139.9709  142.8706 LP  0  0  0  0  0  0  0  0  0  0  0  0  # atno 17320 bound_to 7965
  145.1895  140.9805  143.4219 LP  0  0  0  0  0  0  0  0  0  0  0  0  # atno 17321 bound_to 7965
  139.5521  144.2368  152.1549 LP  0  0  0  0  0  0  0  0  0  0  0  0  # atno 17342 bound_to 10162
  140.1610  144.5025  150.6632 LP  0  0  0  0  0  0  0  0  0  0  0  0  # atno 17343 bound_to 10162
  156.0441  130.3732  150.1362 LP  0  0  0  0  0  0  0  0  0  0  0  0  # atno 17370 bound_to 10713
  156.9545  130.9785  151.3491 LP  0  0  0  0  0  0  0  0  0  0  0  0  # atno 17371 bound_to 10713
  139.8705  134.9583  156.4297 LP  0  0  0  0  0  0  0  0  0  0  0  0  # atno 17394 bound_to 11000
  140.9003  133.7784  155.9673 LP  0  0  0  0  0  0  0  0  0  0  0  0  # atno 17395 bound_to 11000

$$$$
