AV-unprocessed.smi:2214|AV-procd|sdf|8959|dock5
  -GOLD-   2272012173D 1   1.00000     0.00000
 Structure written by MMmdl.
 41 42  0  0  0  0  0  0  0  0  1 V2000
  150.8166  144.9739  160.7868 C   0  0  0  0  0  0  0  0  0  0  0  0
  151.6677  143.7221  160.7263 C   0  0  0  0  0  0  0  0  0  0  0  0
  152.4560  143.3431  161.8308 C   0  0  0  0  0  0  0  0  0  0  0  0
  153.2411  142.1776  161.7661 C   0  0  0  0  0  0  0  0  0  0  0  0
  153.2414  141.3881  160.6000 C   0  0  0  0  0  0  0  0  0  0  0  0
  154.2170  139.9632  160.5432 Cl  0  0  0  0  0  0  0  0  0  0  0  0
  152.4576  141.7557  159.4841 C   0  0  0  0  0  0  0  0  0  0  0  0
  152.5086  140.9335  158.3791 O   0  0  0  0  0  0  0  0  0  0  0  0
  151.3611  140.8398  157.5464 C   0  0  0  0  0  0  0  0  0  0  0  0
  151.8134  140.3337  156.1687 C   0  0  1  0  0  0  0  0  0  0  0  0
  152.9054  139.4616  156.3776 O   0  0  0  0  0  0  0  0  0  0  0  0
  150.6902  139.5704  155.4275 C   0  0  0  0  0  0  0  0  0  0  0  0
  149.4396  140.3448  155.3862 N   0  0  0  0  0  0  0  0  0  0  0  0
  149.1643  141.0203  154.1848 C   0  0  0  0  0  0  0  0  0  0  0  0
  148.0887  141.7208  154.0312 N   0  0  0  0  0  0  0  0  0  0  0  0
  147.1639  141.8152  155.0753 C   0  0  0  0  0  0  0  0  0  0  0  0
  145.9363  142.6617  154.7886 C   0  0  0  0  0  0  0  0  0  0  0  0
  147.3683  141.1789  156.2612 C   0  0  0  0  0  0  0  0  0  0  0  0
  146.3958  141.2446  157.4323 C   0  0  0  0  0  0  0  0  0  0  0  0
  148.5864  140.3741  156.4495 C   0  0  0  0  0  0  0  0  0  0  0  0
  148.8294  139.7637  157.4923 O   0  0  0  0  0  0  0  0  0  0  0  0
  151.6686  142.9316  159.5587 C   0  0  0  0  0  0  0  0  0  0  0  0
  150.9835  145.5247  161.7128 H   0  0  0  0  0  0  0  0  0  0  0  0
  149.7593  144.7141  160.7298 H   0  0  0  0  0  0  0  0  0  0  0  0
  151.0539  145.6339  159.9520 H   0  0  0  0  0  0  0  0  0  0  0  0
  152.4620  143.9418  162.7300 H   0  0  0  0  0  0  0  0  0  0  0  0
  153.8451  141.8896  162.6140 H   0  0  0  0  0  0  0  0  0  0  0  0
  150.6501  140.1376  157.9852 H   0  0  0  0  0  0  0  0  0  0  0  0
  150.8692  141.8092  157.4495 H   0  0  0  0  0  0  0  0  0  0  0  0
  152.1627  141.1849  155.5824 H   0  0  0  0  0  0  0  0  0  0  0  0
  152.6553  138.8130  157.0177 H   0  0  0  0  0  0  0  0  0  0  0  0
  151.0145  139.2693  154.4294 H   0  0  0  0  0  0  0  0  0  0  0  0
  150.4945  138.6202  155.9289 H   0  0  0  0  0  0  0  0  0  0  0  0
  149.9136  140.9057  153.3991 H   0  0  0  0  0  0  0  0  0  0  0  0
  145.8715  143.4930  155.4911 H   0  0  0  0  0  0  0  0  0  0  0  0
  145.0306  142.0607  154.8735 H   0  0  0  0  0  0  0  0  0  0  0  0
  145.9673  143.0778  153.7808 H   0  0  0  0  0  0  0  0  0  0  0  0
  146.0365  140.2448  157.6784 H   0  0  0  0  0  0  0  0  0  0  0  0
  145.5250  141.8672  157.2334 H   0  0  0  0  0  0  0  0  0  0  0  0
  146.8948  141.6510  158.3129 H   0  0  0  0  0  0  0  0  0  0  0  0
  151.0513  143.2458  158.7307 H   0  0  0  0  0  0  0  0  0  0  0  0
  1  2  1  0  0  0  0
  1 23  1  0  0  0  0
  1 24  1  0  0  0  0
  1 25  1  0  0  0  0
  2 22  1  0  0  0  0
  2  3  2  0  0  0  0
  3  4  1  0  0  0  0
  3 26  1  0  0  0  0
  4  5  2  0  0  0  0
  4 27  1  0  0  0  0
  5  6  1  0  0  0  0
  5  7  1  0  0  0  0
  7  8  1  0  0  0  0
  7 22  2  0  0  0  0
  8  9  1  0  0  0  0
  9 10  1  0  0  0  0
  9 28  1  0  0  0  0
  9 29  1  0  0  0  0
 10 11  1  0  0  0  0
 10 12  1  0  0  0  0
 10 30  1  0  0  0  0
 11 31  1  0  0  0  0
 12 13  1  0  0  0  0
 12 32  1  0  0  0  0
 12 33  1  0  0  0  0
 13 20  1  0  0  0  0
 13 14  1  0  0  0  0
 14 15  2  0  0  0  0
 14 34  1  0  0  0  0
 15 16  1  0  0  0  0
 16 17  1  0  0  0  0
 16 18  2  0  0  0  0
 17 35  1  0  0  0  0
 17 36  1  0  0  0  0
 17 37  1  0  0  0  0
 18 19  1  0  0  0  0
 18 20  1  0  0  0  0
 19 38  1  0  0  0  0
 19 39  1  0  0  0  0
 19 40  1  0  0  0  0
 20 21  2  0  0  0  0
 22 41  1  0  0  0  0
M  END
> <s_m_source_file>
AV-unprocessed.smi

> <i_m_source_file_index>
2214

> <i_lp_mmshare_version>
43012

> <i_f3d_flags>
0

> <s_epik_input>
W0NIM11jMVtjSF1bY0hdYyhDbCljKFtjSF0xKU9bQ0gyXVtDQEhdKFtPSF0pW0NIMl1uMltjSF1uYyhbQ0gzXSljKFtDSDNdKWMyPU8=

> <s_epik_cmdline>
J2VwaWtfcHl0aG9uJywgJy1waCcsICc3LjAnLCAnLXRuJywgJzgnLCAnLW1hJywgJzIwMCcsICctbWV0YWxfYmluZGluZycsICctaW1hZScsICc8aW5maWxlLm1hZT4nLCAnLW9tYWUnLCAnPG91dGZpbGUubWFlPic=

> <r_lp_tautomer_probability>
1

> <r_epik_Ionization_Penalty>
3.50205e-05

> <r_epik_Ionization_Penalty_Charging>
7.87908e-08

> <r_epik_Ionization_Penalty_Neutral>
3.49418e-05

> <r_epik_State_Penalty>
-0

> <r_epik_Charging_Adjusted_Penalty>
7.87908e-08

> <i_epik_Tot_Q>
0

> <i_epik_Tot_abs_Q>
0

> <r_epik_Metal_State_Penalty>
-0

> <b_epik_Metal_Only>
0

> <s_lp_Force_Field>
OPLS_2005

> <r_lp_Energy>
22.3765

> <b_lp_Chiralities_Consistent>
1

> <s_lp_Variant>
AV-unprocessed.smi:2214-2

> <Gold.Version>
5.8.1

> <Gold.Id.Protein>
6NUR|6NUR_protein|mol2

> <Gold.PLP.Fitness>
50.0344

> <Gold.PLP.PLP>
-46.3093

> <Gold.PLP.part.hbond>
-2.0000

> <Gold.PLP.part.metal>
0.0000

> <Gold.PLP.part.buried>
-3.1572

> <Gold.PLP.part.nonpolar>
-40.8710

> <Gold.PLP.part.repulsive>
0.1638

> <Gold.PLP.ligand.clash>
0.0000

> <Gold.PLP.ligand.torsion>
1.1295

> <Gold.PLP.Chemscore.Hbond>
1.0000

> <Gold.PLP.Chemscore.CHOScore>
0.9703

> <Gold.PLP.Chemscore.Metal>
0.0000

> <Gold.Chemscore.Hbonds>
donor molecule, donor type, donor heavy atom, donor atom, acceptor molecule, acceptor atom, score
      P1  H  7997  8008       L1    11  1.00
      L1  C    14    34       P1  7957  0.97

> <Gold.PLP.Chemscore.Internal.Correction>
0.0732

> <Gold.Rescore>
     Score         DG    S(hbond)    S(metal)    S(lipo)     H(rot)  DE(clash)    DE(int)     intcor
     15.02     -16.17       0.93        0.00     116.28       2.35       0.07       1.08       ----

> <Gold.Chemscore.Fitness>
15.0167

> <Gold.Chemscore.DG>
-16.1702

> <Gold.Chemscore.ZeroCoef>
-5.4800

> <Gold.Chemscore.Hbond>
0.9280

> <Gold.Chemscore.Metal>
0.0000

> <Gold.Chemscore.Lipo>
116.2755

> <Gold.Chemscore.Internal_Hbond>
0.0000

> <Gold.Chemscore.DEClash>
0.0728

> <Gold.Chemscore.DEInternal>
1.0808

> <Gold.Chemscore.Rot>
2.3490

> <Gold.Chemscore.Internal.Correction>
   9.000000E+99

> <Gold.Chemscore.Hbonds>
donor molecule, donor type, donor heavy atom, donor atom, acceptor molecule, acceptor atom, score
      P1  H  7997  8008       L1    11  0.88

> <Gold.Chemscore.Hbond.Weighted>
-3.0995

> <Gold.Chemscore.Metal.Weighted>
-0.0000

> <Gold.Chemscore.Lipo.Weighted>
-13.6042

> <Gold.Chemscore.Internal_Hbond.Weighted>
0.0000

> <Gold.Chemscore.DEClash.Weighted>
0.0728

> <Gold.Chemscore.DEInternal.Weighted>
1.0808

> <Gold.Chemscore.Rot.Weighted>
6.0136

> <Gold.Chemscore.Internal.Correction.Weighted>
   9.000000E+99

> <Gold.Protein.RotatedTorsions>
[ 6907 6896 6895 6894 ] final  -55.46 input  -60.11 | X-H torsion
[ 7974 7965 7964 7962 ] final  -86.56 input  175.53 | X-H torsion
[ 8008 7997 7996 7995 ] final  -54.46 input   59.86 | X-H torsion
[ 10167 10162 10161 10158 ] final   26.44 input  -65.29 | X-H torsion
[ 10718 10713 10712 10709 ] final   -6.15 input   66.30 | X-H torsion
[ 10763 10752 10751 10750 ] final  148.20 input  -60.55 | X-H torsion
[ 11005 11000 10999 10996 ] final -109.29 input  -57.11 | X-H torsion

> <Gold.Protein.ActiveResidues>
 VAL166  LYS551  ARG553  GLY616  TRP617  ASP618  TYR619  PRO620  LYS621  CYS622 
 ASP623  PHE694  ASN695  SER759  ASP760  ASP761  ALA762  ILE779  LEU786  VAL792 
 PHE793  MET794  SER795  GLU796  ALA797  LYS798  CYS799  TRP800  GLU811  SER814 

> <Gold.Protein.RotatedAtoms>
  150.8250  134.7476  159.6804 H   0  0  0  0  0  0  0  0  0  0  0  0  # atno 6907 bound_to 6896
  152.4361  134.5679  159.9922 H   0  0  0  0  0  0  0  0  0  0  0  0  # atno 6908 bound_to 6896
  151.5854  133.3335  159.3053 H   0  0  0  0  0  0  0  0  0  0  0  0  # atno 6909 bound_to 6896
  145.4782  140.9558  143.1879 H   0  0  0  0  0  0  0  0  0  0  0  0  # atno 7974 bound_to 7965
  154.4163  140.1176  156.5319 H   0  0  0  0  0  0  0  0  0  0  0  0  # atno 8008 bound_to 7997
  155.6596  140.3496  155.4758 H   0  0  0  0  0  0  0  0  0  0  0  0  # atno 8009 bound_to 7997
  155.9724  140.1144  157.0790 H   0  0  0  0  0  0  0  0  0  0  0  0  # atno 8010 bound_to 7997
  140.5022  144.0296  150.6337 H   0  0  0  0  0  0  0  0  0  0  0  0  # atno 10167 bound_to 10162
  156.7361  130.5195  149.5834 H   0  0  0  0  0  0  0  0  0  0  0  0  # atno 10718 bound_to 10713
  154.0508  135.2882  155.3340 H   0  0  0  0  0  0  0  0  0  0  0  0  # atno 10763 bound_to 10752
  154.6870  135.5241  153.8343 H   0  0  0  0  0  0  0  0  0  0  0  0  # atno 10764 bound_to 10752
  153.0561  135.6596  154.0705 H   0  0  0  0  0  0  0  0  0  0  0  0  # atno 10765 bound_to 10752
  141.0855  133.9145  157.2194 H   0  0  0  0  0  0  0  0  0  0  0  0  # atno 11005 bound_to 11000
  144.7905  139.6339  143.7115 LP  0  0  0  0  0  0  0  0  0  0  0  0  # atno 17320 bound_to 7965
  146.2357  139.5900  142.9525 LP  0  0  0  0  0  0  0  0  0  0  0  0  # atno 17321 bound_to 7965
  140.3595  143.2916  152.0399 LP  0  0  0  0  0  0  0  0  0  0  0  0  # atno 17342 bound_to 10162
  139.4875  144.6313  151.7064 LP  0  0  0  0  0  0  0  0  0  0  0  0  # atno 17343 bound_to 10162
  156.1496  130.6301  151.0578 LP  0  0  0  0  0  0  0  0  0  0  0  0  # atno 17370 bound_to 10713
  157.6838  131.0830  150.7297 LP  0  0  0  0  0  0  0  0  0  0  0  0  # atno 17371 bound_to 10713
  139.9673  135.0138  156.9421 LP  0  0  0  0  0  0  0  0  0  0  0  0  # atno 17394 bound_to 11000
  140.5371  134.0756  155.7331 LP  0  0  0  0  0  0  0  0  0  0  0  0  # atno 17395 bound_to 11000

$$$$
