AV-unprocessed.smi:3164|AV-procd|sdf|12083|dock4
  -GOLD-   2272017513D 1   1.00000     0.00000
 Structure written by MMmdl.
 39 40  0  0  0  0  0  0  0  0  2 V2000
  151.8952  138.2208  154.6001 C   0  0  0  0  0  0  0  0  0  0  0  0
  151.2759  139.5357  154.6767 N   0  0  0  0  0  0  0  0  0  0  0  0
  149.8613  139.4837  154.3326 C   0  0  0  0  0  0  0  0  0  0  0  0
  149.2035  140.8707  154.4275 C   0  0  0  0  0  0  0  0  0  0  0  0
  149.4091  141.4080  155.7312 O   0  0  0  0  0  0  0  0  0  0  0  0
  150.7877  141.5278  156.0774 C   0  0  1  0  0  0  0  0  0  0  0  0
  150.8809  142.1265  157.4875 C   0  0  0  0  0  0  0  0  0  0  0  0
  149.9036  143.2182  157.6641 N   0  3  0  0  0  0  0  0  0  0  0  0
  150.0053  143.9176  158.9610 C   0  0  0  0  0  0  0  0  0  0  0  0
  151.4650  144.2463  159.3128 C   0  0  0  0  0  0  0  0  0  0  0  0
  152.0370  143.3314  160.3815 C   0  0  0  0  0  0  0  0  0  0  0  0
  151.8765  143.6321  161.7513 C   0  0  0  0  0  0  0  0  0  0  0  0
  152.4353  142.7545  162.7008 C   0  0  0  0  0  0  0  0  0  0  0  0
  153.1306  141.6176  162.2462 C   0  0  0  0  0  0  0  0  0  0  0  0
  153.2364  141.4072  160.8569 C   0  0  0  0  0  0  0  0  0  0  0  0
  152.7053  142.2432  159.9385 N   0  0  0  0  0  0  0  0  0  0  0  0
  151.4377  140.1317  155.9964 C   0  0  0  0  0  0  0  0  0  0  0  0
  151.7886  137.8012  153.5990 H   0  0  0  0  0  0  0  0  0  0  0  0
  151.4395  137.5277  155.3087 H   0  0  0  0  0  0  0  0  0  0  0  0
  152.9611  138.2817  154.8220 H   0  0  0  0  0  0  0  0  0  0  0  0
  149.7397  139.0912  153.3222 H   0  0  0  0  0  0  0  0  0  0  0  0
  149.3428  138.7933  154.9998 H   0  0  0  0  0  0  0  0  0  0  0  0
  149.6174  141.5471  153.6780 H   0  0  0  0  0  0  0  0  0  0  0  0
  148.1328  140.7972  154.2364 H   0  0  0  0  0  0  0  0  0  0  0  0
  151.2808  142.1966  155.3689 H   0  0  0  0  0  0  0  0  0  0  0  0
  150.7125  141.3555  158.2407 H   0  0  0  0  0  0  0  0  0  0  0  0
  151.8829  142.5252  157.6516 H   0  0  0  0  0  0  0  0  0  0  0  0
  150.0413  143.8950  156.9269 H   0  0  0  0  0  0  0  0  0  0  0  0
  149.4233  144.8389  158.9163 H   0  0  0  0  0  0  0  0  0  0  0  0
  149.5624  143.2977  159.7417 H   0  0  0  0  0  0  0  0  0  0  0  0
  152.0846  144.1914  158.4168 H   0  0  0  0  0  0  0  0  0  0  0  0
  151.5328  145.2770  159.6636 H   0  0  0  0  0  0  0  0  0  0  0  0
  151.3377  144.5122  162.0707 H   0  0  0  0  0  0  0  0  0  0  0  0
  152.3327  142.9497  163.7581 H   0  0  0  0  0  0  0  0  0  0  0  0
  153.5709  140.9215  162.9451 H   0  0  0  0  0  0  0  0  0  0  0  0
  153.7623  140.5456  160.4734 H   0  0  0  0  0  0  0  0  0  0  0  0
  150.9946  139.4802  156.7516 H   0  0  0  0  0  0  0  0  0  0  0  0
  152.4990  140.2095  156.2361 H   0  0  0  0  0  0  0  0  0  0  0  0
  148.9746  142.8310  157.5768 H   0  0  0  0  0  0  0  0  0  0  0  0
  1  2  1  0  0  0  0
  1 18  1  0  0  0  0
  1 19  1  0  0  0  0
  1 20  1  0  0  0  0
  2 17  1  0  0  0  0
  2  3  1  0  0  0  0
  3  4  1  0  0  0  0
  3 21  1  0  0  0  0
  3 22  1  0  0  0  0
  4  5  1  0  0  0  0
  4 23  1  0  0  0  0
  4 24  1  0  0  0  0
  5  6  1  0  0  0  0
  6  7  1  0  0  0  0
  6 17  1  0  0  0  0
  6 25  1  0  0  0  0
  7  8  1  0  0  0  0
  7 26  1  0  0  0  0
  7 27  1  0  0  0  0
  8  9  1  0  0  0  0
  8 28  1  0  0  0  0
  8 39  1  0  0  0  0
  9 10  1  0  0  0  0
  9 29  1  0  0  0  0
  9 30  1  0  0  0  0
 10 11  1  0  0  0  0
 10 31  1  0  0  0  0
 10 32  1  0  0  0  0
 11 16  1  0  0  0  0
 11 12  2  0  0  0  0
 12 13  1  0  0  0  0
 12 33  1  0  0  0  0
 13 14  2  0  0  0  0
 13 34  1  0  0  0  0
 14 15  1  0  0  0  0
 14 35  1  0  0  0  0
 15 16  2  0  0  0  0
 15 36  1  0  0  0  0
 17 37  1  0  0  0  0
 17 38  1  0  0  0  0
M  CHG  1   8   1
M  END
> <s_m_source_file>
AV-unprocessed.smi

> <i_m_source_file_index>
3164

> <i_lp_mmshare_version>
43012

> <i_f3d_flags>
0

> <s_epik_input>
W0NIM11OMVtDSDJdW0NIMl1PW0NASF0oW0NIMl0xKVtDSDJdW05IXVtDSDJdW0NIMl1jMltjSF1bY0hdW2NIXVtjSF1uMg==

> <s_epik_cmdline>
J2VwaWtfcHl0aG9uJywgJy1waCcsICc3LjAnLCAnLXRuJywgJzgnLCAnLW1hJywgJzIwMCcsICctbWV0YWxfYmluZGluZycsICctaW1hZScsICc8aW5maWxlLm1hZT4nLCAnLW9tYWUnLCAnPG91dGZpbGUubWFlPic=

> <r_epik_Ionization_Penalty>
0.584284

> <r_epik_Ionization_Penalty_Charging>
0.00270218

> <r_epik_Ionization_Penalty_Neutral>
0.581582

> <r_epik_State_Penalty>
0.593163

> <r_epik_Charging_Adjusted_Penalty>
0.595865

> <i_epik_Tot_Q>
1

> <i_epik_Tot_abs_Q>
1

> <r_epik_Metal_State_Penalty>
0.593163

> <b_epik_Metal_Only>
0

> <s_lp_Force_Field>
OPLS_2005

> <r_lp_Energy>
22.7337

> <b_lp_Chiralities_Consistent>
1

> <s_lp_Variant>
AV-unprocessed.smi:3164-5

> <Gold.Version>
5.8.1

> <Gold.Id.Protein>
6NUR|6NUR_protein|mol2

> <Gold.PLP.Fitness>
54.5122

> <Gold.PLP.PLP>
-47.4082

> <Gold.PLP.part.hbond>
-2.0000

> <Gold.PLP.part.metal>
0.0000

> <Gold.PLP.part.buried>
-7.1521

> <Gold.PLP.part.nonpolar>
-38.8532

> <Gold.PLP.part.repulsive>
0.2017

> <Gold.PLP.ligand.clash>
0.0000

> <Gold.PLP.ligand.torsion>
0.9009

> <Gold.PLP.Chemscore.Hbond>
2.9520

> <Gold.PLP.Chemscore.CHOScore>
0.0000

> <Gold.PLP.Chemscore.Metal>
0.0000

> <Gold.Chemscore.Hbonds>
donor molecule, donor type, donor heavy atom, donor atom, acceptor molecule, acceptor atom, score
      L1  H     8    28       P1  8028  1.38
      P1  H  7989  7998       L1     2  0.70

> <Gold.PLP.Chemscore.Internal.Correction>
0.0497

> <Gold.Rescore>
     Score         DG    S(hbond)    S(metal)    S(lipo)     H(rot)  DE(clash)    DE(int)     intcor
     18.53     -19.42       1.11        0.00     121.87       1.57       0.06       0.82       ----

> <Gold.Chemscore.Fitness>
18.5277

> <Gold.Chemscore.DG>
-19.4164

> <Gold.Chemscore.ZeroCoef>
-5.4800

> <Gold.Chemscore.Hbond>
1.1088

> <Gold.Chemscore.Metal>
0.0000

> <Gold.Chemscore.Lipo>
121.8705

> <Gold.Chemscore.Internal_Hbond>
0.0000

> <Gold.Chemscore.DEClash>
0.0641

> <Gold.Chemscore.DEInternal>
0.8246

> <Gold.Chemscore.Rot>
1.5726

> <Gold.Chemscore.Internal.Correction>
   9.000000E+99

> <Gold.Chemscore.Hbonds>
donor molecule, donor type, donor heavy atom, donor atom, acceptor molecule, acceptor atom, score
      L1  H     8    28       P1  8028  0.68
      P1  H  7989  7998       L1     2  0.04

> <Gold.Chemscore.Hbond.Weighted>
-3.7034

> <Gold.Chemscore.Metal.Weighted>
-0.0000

> <Gold.Chemscore.Lipo.Weighted>
-14.2588

> <Gold.Chemscore.Internal_Hbond.Weighted>
0.0000

> <Gold.Chemscore.DEClash.Weighted>
0.0641

> <Gold.Chemscore.DEInternal.Weighted>
0.8246

> <Gold.Chemscore.Rot.Weighted>
4.0259

> <Gold.Chemscore.Internal.Correction.Weighted>
   9.000000E+99

> <Gold.Protein.RotatedTorsions>
[ 6907 6896 6895 6894 ] final  -50.62 input  -60.11 | X-H torsion
[ 7974 7965 7964 7962 ] final   14.72 input  175.53 | X-H torsion
[ 8008 7997 7996 7995 ] final -129.02 input   59.86 | X-H torsion
[ 10167 10162 10161 10158 ] final -161.35 input  -65.29 | X-H torsion
[ 10718 10713 10712 10709 ] final   -7.65 input   66.30 | X-H torsion
[ 10763 10752 10751 10750 ] final -114.50 input  -60.55 | X-H torsion
[ 11005 11000 10999 10996 ] final  -50.61 input  -57.11 | X-H torsion

> <Gold.Protein.ActiveResidues>
 VAL166  LYS551  ARG553  GLY616  TRP617  ASP618  TYR619  PRO620  LYS621  CYS622 
 ASP623  PHE694  ASN695  SER759  ASP760  ASP761  ALA762  ILE779  LEU786  VAL792 
 PHE793  MET794  SER795  GLU796  ALA797  LYS798  CYS799  TRP800  GLU811  SER814 

> <Gold.Protein.RotatedAtoms>
  150.8689  134.8059  159.7139 H   0  0  0  0  0  0  0  0  0  0  0  0  # atno 6907 bound_to 6896
  152.4701  134.4978  159.9725 H   0  0  0  0  0  0  0  0  0  0  0  0  # atno 6908 bound_to 6896
  151.5070  133.3454  159.2914 H   0  0  0  0  0  0  0  0  0  0  0  0  # atno 6909 bound_to 6896
  146.2298  139.9000  142.8541 H   0  0  0  0  0  0  0  0  0  0  0  0  # atno 7974 bound_to 7965
  155.2722  140.0440  157.3008 H   0  0  0  0  0  0  0  0  0  0  0  0  # atno 8008 bound_to 7997
  154.5646  140.2356  155.8251 H   0  0  0  0  0  0  0  0  0  0  0  0  # atno 8009 bound_to 7997
  156.2075  140.3008  155.9666 H   0  0  0  0  0  0  0  0  0  0  0  0  # atno 8010 bound_to 7997
  139.6472  144.0151  152.2135 H   0  0  0  0  0  0  0  0  0  0  0  0  # atno 10167 bound_to 10162
  156.7142  130.5131  149.5884 H   0  0  0  0  0  0  0  0  0  0  0  0  # atno 10718 bound_to 10713
  154.8443  135.4415  154.1516 H   0  0  0  0  0  0  0  0  0  0  0  0  # atno 10763 bound_to 10752
  153.2675  135.6942  153.7520 H   0  0  0  0  0  0  0  0  0  0  0  0  # atno 10764 bound_to 10752
  153.6773  135.3409  155.3144 H   0  0  0  0  0  0  0  0  0  0  0  0  # atno 10765 bound_to 10752
  141.0825  133.6650  156.3756 H   0  0  0  0  0  0  0  0  0  0  0  0  # atno 11005 bound_to 11000
  145.2333  140.9981  143.3978 LP  0  0  0  0  0  0  0  0  0  0  0  0  # atno 17320 bound_to 7965
  144.9512  139.4080  143.6401 LP  0  0  0  0  0  0  0  0  0  0  0  0  # atno 17321 bound_to 7965
  139.9856  144.6398  150.7861 LP  0  0  0  0  0  0  0  0  0  0  0  0  # atno 17342 bound_to 10162
  140.7520  143.2983  151.3148 LP  0  0  0  0  0  0  0  0  0  0  0  0  # atno 17343 bound_to 10162
  156.1640  130.6393  151.0754 LP  0  0  0  0  0  0  0  0  0  0  0  0  # atno 17370 bound_to 10713
  157.6924  131.0805  150.7068 LP  0  0  0  0  0  0  0  0  0  0  0  0  # atno 17371 bound_to 10713
  140.5436  134.6096  157.5387 LP  0  0  0  0  0  0  0  0  0  0  0  0  # atno 17394 bound_to 11000
  139.9640  134.7404  156.0176 LP  0  0  0  0  0  0  0  0  0  0  0  0  # atno 17395 bound_to 11000

$$$$
