AV-unprocessed.smi:264|AV-procd|sdf|2014|dock9
  -GOLD-   2262021213D 1   1.00000     0.00000
 Structure written by MMmdl.
 52 56  0  0  0  0  0  0  0  0  1 V2000
  153.1264  140.3547  159.6751 C   0  0  0  0  0  0  0  0  0  0  0  0
  152.0454  141.3947  159.3406 C   0  0  1  0  0  0  0  0  0  0  0  0
  152.7072  142.6042  158.9776 O   0  0  0  0  0  0  0  0  0  0  0  0
  151.9027  143.3054  158.0462 C   0  0  0  0  0  0  0  0  0  0  0  0
  151.3800  142.1853  157.1602 C   0  0  0  0  0  0  0  0  0  0  0  0
  151.0943  141.0635  158.1552 C   0  0  2  0  0  0  0  0  0  0  0  0
  149.7625  141.2227  158.6146 O   0  0  0  0  0  0  0  0  0  0  0  0
  151.2248  139.6434  157.5441 C   0  0  0  0  0  0  0  0  0  0  0  0
  150.6397  138.5990  158.3715 N   0  0  0  0  0  0  0  0  0  0  0  0
  151.3089  137.7492  159.2233 C   0  0  0  0  0  0  0  0  0  0  0  0
  150.5568  136.8963  159.8634 N   0  0  0  0  0  0  0  0  0  0  0  0
  149.2697  137.1809  159.4228 C   0  0  0  0  0  0  0  0  0  0  0  0
  147.9824  136.6493  159.7161 C   0  0  0  0  0  0  0  0  0  0  0  0
  147.7964  135.6242  160.5854 N   0  0  0  0  0  0  0  0  0  0  0  0
  148.1157  135.9322  161.9735 C   0  0  0  0  0  0  0  0  0  0  0  0
  147.5310  134.8536  162.8959 C   0  0  0  0  0  0  0  0  0  0  0  0
  147.9715  133.5591  162.4874 O   0  0  0  0  0  0  0  0  0  0  0  0
  147.6712  133.2143  161.1289 C   0  0  2  0  0  0  0  0  0  0  0  0
  146.1886  132.9191  160.9211 C   0  0  0  0  0  0  0  0  0  0  0  0
  146.0651  131.5061  161.4708 C   0  0  0  0  0  0  0  0  0  0  0  0
  147.2512  130.8647  161.0271 O   0  0  0  0  0  0  0  0  0  0  0  0
  148.2900  131.8299  160.8747 C   0  0  0  0  0  0  0  0  0  0  0  0
  148.2422  134.2934  160.1837 C   0  0  0  0  0  0  0  0  0  0  0  0
  146.9155  137.2131  159.0884 N   0  0  0  0  0  0  0  0  0  0  0  0
  147.0928  138.2210  158.2291 C   0  0  0  0  0  0  0  0  0  0  0  0
  148.2302  138.8130  157.8606 N   0  0  0  0  0  0  0  0  0  0  0  0
  149.3041  138.2553  158.4893 C   0  0  0  0  0  0  0  0  0  0  0  0
  152.6865  139.4036  159.9753 H   0  0  0  0  0  0  0  0  0  0  0  0
  153.7478  140.7002  160.5016 H   0  0  0  0  0  0  0  0  0  0  0  0
  153.7866  140.1746  158.8265 H   0  0  0  0  0  0  0  0  0  0  0  0
  151.4695  141.5934  160.2465 H   0  0  0  0  0  0  0  0  0  0  0  0
  151.0878  143.8115  158.5662 H   0  0  0  0  0  0  0  0  0  0  0  0
  152.4787  144.0480  157.4940 H   0  0  0  0  0  0  0  0  0  0  0  0
  150.5157  142.4773  156.5616 H   0  0  0  0  0  0  0  0  0  0  0  0
  152.1731  141.8850  156.4742 H   0  0  0  0  0  0  0  0  0  0  0  0
  149.5028  142.1206  158.4754 H   0  0  0  0  0  0  0  0  0  0  0  0
  150.7360  139.6003  156.5705 H   0  0  0  0  0  0  0  0  0  0  0  0
  152.2737  139.3971  157.3743 H   0  0  0  0  0  0  0  0  0  0  0  0
  152.3806  137.7810  159.3560 H   0  0  0  0  0  0  0  0  0  0  0  0
  149.2003  135.9692  162.0857 H   0  0  0  0  0  0  0  0  0  0  0  0
  147.7344  136.9094  162.2680 H   0  0  0  0  0  0  0  0  0  0  0  0
  147.8590  135.0252  163.9208 H   0  0  0  0  0  0  0  0  0  0  0  0
  146.4431  134.9083  162.9105 H   0  0  0  0  0  0  0  0  0  0  0  0
  145.5082  133.6219  161.3988 H   0  0  0  0  0  0  0  0  0  0  0  0
  145.9536  132.9118  159.8559 H   0  0  0  0  0  0  0  0  0  0  0  0
  146.0470  131.5169  162.5615 H   0  0  0  0  0  0  0  0  0  0  0  0
  145.1727  130.9896  161.1167 H   0  0  0  0  0  0  0  0  0  0  0  0
  148.6664  131.7483  159.8543 H   0  0  0  0  0  0  0  0  0  0  0  0
  149.1222  131.6194  161.5474 H   0  0  0  0  0  0  0  0  0  0  0  0
  147.9418  134.0871  159.1553 H   0  0  0  0  0  0  0  0  0  0  0  0
  149.3327  134.2655  160.2110 H   0  0  0  0  0  0  0  0  0  0  0  0
  146.1947  138.6083  157.7713 H   0  0  0  0  0  0  0  0  0  0  0  0
  1  2  1  0  0  0  0
  1 28  1  0  0  0  0
  1 29  1  0  0  0  0
  1 30  1  0  0  0  0
  2  6  1  0  0  0  0
  2  3  1  0  0  0  0
  2 31  1  0  0  0  0
  3  4  1  0  0  0  0
  4  5  1  0  0  0  0
  4 32  1  0  0  0  0
  4 33  1  0  0  0  0
  5  6  1  0  0  0  0
  5 34  1  0  0  0  0
  5 35  1  0  0  0  0
  6  7  1  0  0  0  0
  6  8  1  0  0  0  0
  7 36  1  0  0  0  0
  8  9  1  0  0  0  0
  8 37  1  0  0  0  0
  8 38  1  0  0  0  0
  9 27  1  0  0  0  0
  9 10  1  0  0  0  0
 10 11  2  0  0  0  0
 10 39  1  0  0  0  0
 11 12  1  0  0  0  0
 12 27  2  0  0  0  0
 12 13  1  0  0  0  0
 13 14  1  0  0  0  0
 13 24  2  0  0  0  0
 14 23  1  0  0  0  0
 14 15  1  0  0  0  0
 15 16  1  0  0  0  0
 15 40  1  0  0  0  0
 15 41  1  0  0  0  0
 16 17  1  0  0  0  0
 16 42  1  0  0  0  0
 16 43  1  0  0  0  0
 17 18  1  0  0  0  0
 18 22  1  0  0  0  0
 18 19  1  0  0  0  0
 18 23  1  0  0  0  0
 19 20  1  0  0  0  0
 19 44  1  0  0  0  0
 19 45  1  0  0  0  0
 20 21  1  0  0  0  0
 20 46  1  0  0  0  0
 20 47  1  0  0  0  0
 21 22  1  0  0  0  0
 22 48  1  0  0  0  0
 22 49  1  0  0  0  0
 23 50  1  0  0  0  0
 23 51  1  0  0  0  0
 24 25  1  0  0  0  0
 25 26  2  0  0  0  0
 25 52  1  0  0  0  0
 26 27  1  0  0  0  0
M  END
> <s_m_source_file>
AV-unprocessed.smi

> <i_m_source_file_index>
264

> <i_lp_mmshare_version>
43012

> <i_f3d_flags>
0

> <s_epik_input>
W0NIMl0xW0NIMl1PW0NAQEhdKFtDSDNdKVtDQEBdMShbT0hdKVtDSDJdbihbY0hdbjIpYyhjMjMpbltjSF1uYzNOKFtDSDJdNClbQ0gyXVtDSDJdT1tDQF00NVtDSDJdW0NIMl1PW0NIMl01

> <s_epik_cmdline>
J2VwaWtfcHl0aG9uJywgJy1waCcsICc3LjAnLCAnLXRuJywgJzgnLCAnLW1hJywgJzIwMCcsICctbWV0YWxfYmluZGluZycsICctaW1hZScsICc8aW5maWxlLm1hZT4nLCAnLW9tYWUnLCAnPG91dGZpbGUubWFlPic=

> <r_lp_tautomer_probability>
1

> <r_epik_Ionization_Penalty>
0.00539389

> <r_epik_Ionization_Penalty_Charging>
0

> <r_epik_Ionization_Penalty_Neutral>
0.00539389

> <r_epik_State_Penalty>
0.00375441

> <r_epik_Charging_Adjusted_Penalty>
0.00375441

> <i_epik_Tot_Q>
0

> <i_epik_Tot_abs_Q>
0

> <r_epik_Metal_State_Penalty>
-0

> <b_epik_Metal_Only>
0

> <s_lp_Force_Field>
OPLS_2005

> <r_lp_Energy>
54.0321

> <b_lp_Chiralities_Consistent>
1

> <s_lp_Variant>
AV-unprocessed.smi:264-8

> <Gold.Version>
5.8.1

> <Gold.Id.Protein>
6NUR|6NUR_protein|mol2

> <Gold.PLP.Fitness>
39.3040

> <Gold.PLP.PLP>
-37.2107

> <Gold.PLP.part.hbond>
-1.3156

> <Gold.PLP.part.metal>
0.0000

> <Gold.PLP.part.buried>
-7.8364

> <Gold.PLP.part.nonpolar>
-28.4476

> <Gold.PLP.part.repulsive>
0.0034

> <Gold.PLP.ligand.clash>
0.0000

> <Gold.PLP.ligand.torsion>
0.5808

> <Gold.PLP.Chemscore.Hbond>
0.9913

> <Gold.PLP.Chemscore.CHOScore>
0.0000

> <Gold.PLP.Chemscore.Metal>
0.0000

> <Gold.Chemscore.Hbonds>
donor molecule, donor type, donor heavy atom, donor atom, acceptor molecule, acceptor atom, score
      P1  H  6896  6908       L1    11  1.00

> <Gold.PLP.Chemscore.Internal.Correction>
0.2811

> <Gold.Rescore>
     Score         DG    S(hbond)    S(metal)    S(lipo)     H(rot)  DE(clash)    DE(int)     intcor
     12.88     -13.88       0.94        0.00      90.98       2.11       0.33       0.66       ----

> <Gold.Chemscore.Fitness>
12.8801

> <Gold.Chemscore.DG>
-13.8762

> <Gold.Chemscore.ZeroCoef>
-5.4800

> <Gold.Chemscore.Hbond>
0.9411

> <Gold.Chemscore.Metal>
0.0000

> <Gold.Chemscore.Lipo>
90.9823

> <Gold.Chemscore.Internal_Hbond>
0.0000

> <Gold.Chemscore.DEClash>
0.3343

> <Gold.Chemscore.DEInternal>
0.6618

> <Gold.Chemscore.Rot>
2.1063

> <Gold.Chemscore.Internal.Correction>
   9.000000E+99

> <Gold.Chemscore.Hbonds>
donor molecule, donor type, donor heavy atom, donor atom, acceptor molecule, acceptor atom, score
      P1  H  6896  6908       L1    11  0.89

> <Gold.Chemscore.Hbond.Weighted>
-3.1434

> <Gold.Chemscore.Metal.Weighted>
-0.0000

> <Gold.Chemscore.Lipo.Weighted>
-10.6449

> <Gold.Chemscore.Internal_Hbond.Weighted>
0.0000

> <Gold.Chemscore.DEClash.Weighted>
0.3343

> <Gold.Chemscore.DEInternal.Weighted>
0.6618

> <Gold.Chemscore.Rot.Weighted>
5.3921

> <Gold.Chemscore.Internal.Correction.Weighted>
   9.000000E+99

> <Gold.Protein.RotatedTorsions>
[ 6907 6896 6895 6894 ] final -142.29 input  -60.11 | X-H torsion
[ 7974 7965 7964 7962 ] final  157.19 input  175.53 | X-H torsion
[ 8008 7997 7996 7995 ] final  174.35 input   59.86 | X-H torsion
[ 10167 10162 10161 10158 ] final  145.49 input  -65.29 | X-H torsion
[ 10718 10713 10712 10709 ] final -132.73 input   66.30 | X-H torsion
[ 10763 10752 10751 10750 ] final  127.48 input  -60.55 | X-H torsion
[ 11005 11000 10999 10996 ] final -109.98 input  -57.11 | X-H torsion

> <Gold.Protein.ActiveResidues>
 VAL166  LYS551  ARG553  GLY616  TRP617  ASP618  TYR619  PRO620  LYS621  CYS622 
 ASP623  PHE694  ASN695  SER759  ASP760  ASP761  ALA762  ILE779  LEU786  VAL792 
 PHE793  MET794  SER795  GLU796  ALA797  LYS798  CYS799  TRP800  GLU811  SER814 

> <Gold.Protein.RotatedAtoms>
  151.0852  133.5359  159.2617 H   0  0  0  0  0  0  0  0  0  0  0  0  # atno 6907 bound_to 6896
  151.2247  135.0531  159.8974 H   0  0  0  0  0  0  0  0  0  0  0  0  # atno 6908 bound_to 6896
  152.5428  134.0649  159.8222 H   0  0  0  0  0  0  0  0  0  0  0  0  # atno 6909 bound_to 6896
  144.7918  139.7307  143.6218 H   0  0  0  0  0  0  0  0  0  0  0  0  # atno 7974 bound_to 7965
  156.0983  140.1437  156.9501 H   0  0  0  0  0  0  0  0  0  0  0  0  # atno 8008 bound_to 7997
  154.4686  140.0917  156.7131 H   0  0  0  0  0  0  0  0  0  0  0  0  # atno 8009 bound_to 7997
  155.4803  140.3444  155.4341 H   0  0  0  0  0  0  0  0  0  0  0  0  # atno 8010 bound_to 7997
  139.4925  144.5898  151.6704 H   0  0  0  0  0  0  0  0  0  0  0  0  # atno 10167 bound_to 10162
  156.2375  130.7076  151.0923 H   0  0  0  0  0  0  0  0  0  0  0  0  # atno 10718 bound_to 10713
  153.7101  135.3270  155.3244 H   0  0  0  0  0  0  0  0  0  0  0  0  # atno 10763 bound_to 10752
  154.8387  135.4474  154.1323 H   0  0  0  0  0  0  0  0  0  0  0  0  # atno 10764 bound_to 10752
  153.2414  135.6971  153.7858 H   0  0  0  0  0  0  0  0  0  0  0  0  # atno 10765 bound_to 10752
  141.0817  133.9208  157.2274 H   0  0  0  0  0  0  0  0  0  0  0  0  # atno 11005 bound_to 11000
  146.2172  139.5571  142.9642 LP  0  0  0  0  0  0  0  0  0  0  0  0  # atno 17320 bound_to 7965
  145.5775  141.0386  143.2140 LP  0  0  0  0  0  0  0  0  0  0  0  0  # atno 17321 bound_to 7965
  140.5522  144.0406  150.6132 LP  0  0  0  0  0  0  0  0  0  0  0  0  # atno 17342 bound_to 10162
  140.3464  143.2989  152.0534 LP  0  0  0  0  0  0  0  0  0  0  0  0  # atno 17343 bound_to 10162
  157.7161  131.0709  150.6321 LP  0  0  0  0  0  0  0  0  0  0  0  0  # atno 17370 bound_to 10713
  156.6393  130.4454  149.5758 LP  0  0  0  0  0  0  0  0  0  0  0  0  # atno 17371 bound_to 10713
  139.9632  135.0149  156.9316 LP  0  0  0  0  0  0  0  0  0  0  0  0  # atno 17394 bound_to 11000
  140.5453  134.0680  155.7353 LP  0  0  0  0  0  0  0  0  0  0  0  0  # atno 17395 bound_to 11000

$$$$
