AV-unprocessed.smi:249|AV-procd|sdf|1903|dock8
  -GOLD-   2262020583D 1   1.00000     0.00000
 Structure written by MMmdl.
 64 67  0  0  0  0  0  0  0  0  2 V2000
  146.3436  133.0175  151.3724 C   0  0  0  0  0  0  0  0  0  0  0  0
  146.6252  132.3762  152.7396 C   0  0  0  0  0  0  0  0  0  0  0  0
  148.0635  132.0288  152.9393 N   0  3  1  0  0  0  0  0  0  0  0  0
  148.9752  133.2064  152.9883 C   0  0  0  0  0  0  0  0  0  0  0  0
  148.8261  133.9928  154.3043 C   0  0  0  0  0  0  0  0  0  0  0  0
  149.0692  133.0796  155.5257 C   0  0  1  0  0  0  0  0  0  0  0  0
  148.9756  133.7779  156.8145 N   0  0  0  0  0  0  0  0  0  0  0  0
  147.6411  134.0612  157.3299 C   0  0  0  0  0  0  0  0  0  0  0  0
  149.8796  134.7554  157.0632 C   0  0  0  0  0  0  0  0  0  0  0  0
  151.1730  134.5081  156.7377 N   0  0  0  0  0  0  0  0  0  0  0  0
  152.1098  135.4342  156.9627 C   0  0  0  0  0  0  0  0  0  0  0  0
  151.9713  136.6490  157.4977 N   0  0  0  0  0  0  0  0  0  0  0  0
  150.6735  136.8971  157.8355 C   0  0  0  0  0  0  0  0  0  0  0  0
  149.5719  136.0144  157.6537 C   0  0  0  0  0  0  0  0  0  0  0  0
  148.4035  136.6183  158.1041 N   0  0  0  0  0  0  0  0  0  0  0  0
  148.7922  137.7889  158.5298 C   0  0  0  0  0  0  0  0  0  0  0  0
  150.1430  138.0318  158.4237 N   0  0  0  0  0  0  0  0  0  0  0  0
  150.8395  139.2439  158.8156 C   0  0  0  0  0  0  0  0  0  0  0  0
  151.5563  139.9822  157.6547 C   0  0  1  0  0  0  0  0  0  0  0  0
  150.6833  139.8940  156.3814 C   0  0  0  0  0  0  0  0  0  0  0  0
  151.1415  140.7722  155.3727 O   0  0  0  0  0  0  0  0  0  0  0  0
  151.9824  141.4430  157.9860 C   0  0  2  0  0  0  0  0  0  0  0  0
  152.8000  141.5932  159.2595 C   0  0  0  0  0  0  0  0  0  0  0  0
  152.6622  143.0788  159.5556 C   0  0  0  0  0  0  0  0  0  0  0  0
  151.3165  143.3777  159.2200 O   0  0  0  0  0  0  0  0  0  0  0  0
  150.8362  142.4283  158.2723 C   0  0  0  0  0  0  0  0  0  0  0  0
  148.1643  131.8303  155.4377 C   0  0  0  0  0  0  0  0  0  0  0  0
  148.3423  131.1102  154.0852 C   0  0  1  0  0  0  0  0  0  0  0  0
  147.5626  129.7846  154.0178 C   0  0  0  0  0  0  0  0  0  0  0  0
  145.2695  133.1138  151.2122 H   0  0  0  0  0  0  0  0  0  0  0  0
  146.7436  132.4099  150.5602 H   0  0  0  0  0  0  0  0  0  0  0  0
  146.7658  134.0185  151.2909 H   0  0  0  0  0  0  0  0  0  0  0  0
  146.2628  133.0227  153.5384 H   0  0  0  0  0  0  0  0  0  0  0  0
  146.0193  131.4735  152.7838 H   0  0  0  0  0  0  0  0  0  0  0  0
  150.0023  132.8500  152.8989 H   0  0  0  0  0  0  0  0  0  0  0  0
  148.8238  133.8625  152.1326 H   0  0  0  0  0  0  0  0  0  0  0  0
  149.5369  134.8197  154.3164 H   0  0  0  0  0  0  0  0  0  0  0  0
  147.8348  134.4433  154.3425 H   0  0  0  0  0  0  0  0  0  0  0  0
  150.1014  132.7329  155.4556 H   0  0  0  0  0  0  0  0  0  0  0  0
  147.6923  134.5380  158.3099 H   0  0  0  0  0  0  0  0  0  0  0  0
  147.0795  133.1339  157.4424 H   0  0  0  0  0  0  0  0  0  0  0  0
  147.0819  134.7146  156.6607 H   0  0  0  0  0  0  0  0  0  0  0  0
  153.1146  135.1625  156.6742 H   0  0  0  0  0  0  0  0  0  0  0  0
  148.1014  138.5063  158.9487 H   0  0  0  0  0  0  0  0  0  0  0  0
  150.1027  139.9030  159.2763 H   0  0  0  0  0  0  0  0  0  0  0  0
  151.5551  138.9920  159.5994 H   0  0  0  0  0  0  0  0  0  0  0  0
  152.4660  139.4263  157.4258 H   0  0  0  0  0  0  0  0  0  0  0  0
  150.6659  138.8792  155.9846 H   0  0  0  0  0  0  0  0  0  0  0  0
  149.6477  140.1441  156.6144 H   0  0  0  0  0  0  0  0  0  0  0  0
  151.1211  141.6549  155.7102 H   0  0  0  0  0  0  0  0  0  0  0  0
  152.5766  141.8385  157.1608 H   0  0  0  0  0  0  0  0  0  0  0  0
  152.3600  141.0094  160.0694 H   0  0  0  0  0  0  0  0  0  0  0  0
  153.8407  141.2898  159.1419 H   0  0  0  0  0  0  0  0  0  0  0  0
  152.8823  143.3265  160.5940 H   0  0  0  0  0  0  0  0  0  0  0  0
  153.3265  143.6605  158.9149 H   0  0  0  0  0  0  0  0  0  0  0  0
  150.5049  142.9420  157.3709 H   0  0  0  0  0  0  0  0  0  0  0  0
  149.9751  141.9226  158.7105 H   0  0  0  0  0  0  0  0  0  0  0  0
  148.4037  131.1398  156.2465 H   0  0  0  0  0  0  0  0  0  0  0  0
  147.1177  132.1047  155.5693 H   0  0  0  0  0  0  0  0  0  0  0  0
  149.3953  130.8365  153.9998 H   0  0  0  0  0  0  0  0  0  0  0  0
  147.9563  129.0730  154.7441 H   0  0  0  0  0  0  0  0  0  0  0  0
  147.6454  129.3243  153.0327 H   0  0  0  0  0  0  0  0  0  0  0  0
  146.5049  129.9147  154.2472 H   0  0  0  0  0  0  0  0  0  0  0  0
  148.3243  131.5125  152.1111 H   0  0  0  0  0  0  0  0  0  0  0  0
  1  2  1  0  0  0  0
  1 30  1  0  0  0  0
  1 31  1  0  0  0  0
  1 32  1  0  0  0  0
  2  3  1  0  0  0  0
  2 33  1  0  0  0  0
  2 34  1  0  0  0  0
  3 28  1  0  0  0  0
  3  4  1  0  0  0  0
  3 64  1  0  0  0  0
  4  5  1  0  0  0  0
  4 35  1  0  0  0  0
  4 36  1  0  0  0  0
  5  6  1  0  0  0  0
  5 37  1  0  0  0  0
  5 38  1  0  0  0  0
  6  7  1  0  0  0  0
  6 27  1  0  0  0  0
  6 39  1  0  0  0  0
  7  8  1  0  0  0  0
  7  9  1  0  0  0  0
  8 40  1  0  0  0  0
  8 41  1  0  0  0  0
  8 42  1  0  0  0  0
  9 14  1  0  0  0  0
  9 10  2  0  0  0  0
 10 11  1  0  0  0  0
 11 12  2  0  0  0  0
 11 43  1  0  0  0  0
 12 13  1  0  0  0  0
 13 17  1  0  0  0  0
 13 14  2  0  0  0  0
 14 15  1  0  0  0  0
 15 16  2  0  0  0  0
 16 17  1  0  0  0  0
 16 44  1  0  0  0  0
 17 18  1  0  0  0  0
 18 19  1  0  0  0  0
 18 45  1  0  0  0  0
 18 46  1  0  0  0  0
 19 20  1  0  0  0  0
 19 22  1  0  0  0  0
 19 47  1  0  0  0  0
 20 21  1  0  0  0  0
 20 48  1  0  0  0  0
 20 49  1  0  0  0  0
 21 50  1  0  0  0  0
 22 26  1  0  0  0  0
 22 23  1  0  0  0  0
 22 51  1  0  0  0  0
 23 24  1  0  0  0  0
 23 52  1  0  0  0  0
 23 53  1  0  0  0  0
 24 25  1  0  0  0  0
 24 54  1  0  0  0  0
 24 55  1  0  0  0  0
 25 26  1  0  0  0  0
 26 56  1  0  0  0  0
 26 57  1  0  0  0  0
 27 28  1  0  0  0  0
 27 58  1  0  0  0  0
 27 59  1  0  0  0  0
 28 29  1  0  0  0  0
 28 60  1  0  0  0  0
 29 61  1  0  0  0  0
 29 62  1  0  0  0  0
 29 63  1  0  0  0  0
M  CHG  1   3   1
M  END
> <s_m_source_file>
AV-unprocessed.smi

> <i_m_source_file_index>
249

> <i_lp_mmshare_version>
43012

> <i_f3d_flags>
0

> <s_epik_input>
W0NIM11bQ0gyXU4xW0NIMl1bQ0gyXVtDQEhdKFtDSDJdW0NASF0xW0NIM10pTihbQ0gzXSljKG5bY0hdbjIpYyhjMjMpbltjSF1uM1tDSDJdW0NASF0oW0NIMl1bT0hdKVtDQEBIXTRbQ0gyXVtDSDJdT1tDSDJdNA==

> <s_epik_cmdline>
J2VwaWtfcHl0aG9uJywgJy1waCcsICc3LjAnLCAnLXRuJywgJzgnLCAnLW1hJywgJzIwMCcsICctbWV0YWxfYmluZGluZycsICctaW1hZScsICc8aW5maWxlLm1hZT4nLCAnLW9tYWUnLCAnPG91dGZpbGUubWFlPic=

> <r_lp_tautomer_probability>
1

> <r_epik_Ionization_Penalty>
0.00294688

> <r_epik_Ionization_Penalty_Charging>
0.00169971

> <r_epik_Ionization_Penalty_Neutral>
0.00124717

> <r_epik_State_Penalty>
-0

> <r_epik_Charging_Adjusted_Penalty>
0.00169971

> <i_epik_Tot_Q>
1

> <i_epik_Tot_abs_Q>
1

> <r_epik_Metal_State_Penalty>
-0

> <b_epik_Metal_Only>
0

> <s_lp_Force_Field>
OPLS_2005

> <r_lp_Energy>
55.2795

> <b_lp_Chiralities_Consistent>
1

> <s_lp_Variant>
AV-unprocessed.smi:249-6

> <Gold.Version>
5.8.1

> <Gold.Id.Protein>
6NUR|6NUR_protein|mol2

> <Gold.PLP.Fitness>
39.2780

> <Gold.PLP.PLP>
-34.1363

> <Gold.PLP.part.hbond>
-2.1983

> <Gold.PLP.part.metal>
0.0000

> <Gold.PLP.part.buried>
-4.4766

> <Gold.PLP.part.nonpolar>
-27.7741

> <Gold.PLP.part.repulsive>
0.0378

> <Gold.PLP.ligand.clash>
0.0000

> <Gold.PLP.ligand.torsion>
0.7869

> <Gold.PLP.Chemscore.Hbond>
1.9280

> <Gold.PLP.Chemscore.CHOScore>
0.0000

> <Gold.PLP.Chemscore.Metal>
0.0000

> <Gold.Chemscore.Hbonds>
donor molecule, donor type, donor heavy atom, donor atom, acceptor molecule, acceptor atom, score
      L1  H     3    64       P1 10747  0.96
      P1  H  7989  7998       L1    21  0.78

> <Gold.PLP.Chemscore.Internal.Correction>
0.9316

> <Gold.Rescore>
     Score         DG    S(hbond)    S(metal)    S(lipo)     H(rot)  DE(clash)    DE(int)     intcor
     12.21     -14.45       1.59        0.00      94.82       2.90       0.06       2.18       ----

> <Gold.Chemscore.Fitness>
12.2115

> <Gold.Chemscore.DG>
-14.4532

> <Gold.Chemscore.ZeroCoef>
-5.4800

> <Gold.Chemscore.Hbond>
1.5884

> <Gold.Chemscore.Metal>
0.0000

> <Gold.Chemscore.Lipo>
94.8151

> <Gold.Chemscore.Internal_Hbond>
0.0000

> <Gold.Chemscore.DEClash>
0.0609

> <Gold.Chemscore.DEInternal>
2.1807

> <Gold.Chemscore.Rot>
2.9006

> <Gold.Chemscore.Internal.Correction>
   9.000000E+99

> <Gold.Chemscore.Hbonds>
donor molecule, donor type, donor heavy atom, donor atom, acceptor molecule, acceptor atom, score
      L1  H     3    64       P1 10747  0.91
      P1  H  7989  7998       L1    21  0.47

> <Gold.Chemscore.Hbond.Weighted>
-5.3054

> <Gold.Chemscore.Metal.Weighted>
-0.0000

> <Gold.Chemscore.Lipo.Weighted>
-11.0934

> <Gold.Chemscore.Internal_Hbond.Weighted>
0.0000

> <Gold.Chemscore.DEClash.Weighted>
0.0609

> <Gold.Chemscore.DEInternal.Weighted>
2.1807

> <Gold.Chemscore.Rot.Weighted>
7.4256

> <Gold.Chemscore.Internal.Correction.Weighted>
   9.000000E+99

> <Gold.Protein.RotatedTorsions>
[ 6907 6896 6895 6894 ] final -125.69 input  -60.11 | X-H torsion
[ 7974 7965 7964 7962 ] final  134.94 input  175.53 | X-H torsion
[ 8008 7997 7996 7995 ] final   39.07 input   59.86 | X-H torsion
[ 10167 10162 10161 10158 ] final  -19.11 input  -65.29 | X-H torsion
[ 10718 10713 10712 10709 ] final  177.10 input   66.30 | X-H torsion
[ 10763 10752 10751 10750 ] final   12.35 input  -60.55 | X-H torsion
[ 11005 11000 10999 10996 ] final -147.47 input  -57.11 | X-H torsion

> <Gold.Protein.ActiveResidues>
 VAL166  LYS551  ARG553  GLY616  TRP617  ASP618  TYR619  PRO620  LYS621  CYS622 
 ASP623  PHE694  ASN695  SER759  ASP760  ASP761  ALA762  ILE779  LEU786  VAL792 
 PHE793  MET794  SER795  GLU796  ALA797  LYS798  CYS799  TRP800  GLU811  SER814 

> <Gold.Protein.RotatedAtoms>
  150.8893  133.7265  159.2909 H   0  0  0  0  0  0  0  0  0  0  0  0  # atno 6907 bound_to 6896
  151.4821  135.1051  159.9790 H   0  0  0  0  0  0  0  0  0  0  0  0  # atno 6908 bound_to 6896
  152.4810  133.8207  159.7107 H   0  0  0  0  0  0  0  0  0  0  0  0  # atno 6909 bound_to 6896
  144.9714  139.4602  143.5431 H   0  0  0  0  0  0  0  0  0  0  0  0  # atno 7974 bound_to 7965
  155.2306  140.3338  155.4304 H   0  0  0  0  0  0  0  0  0  0  0  0  # atno 8008 bound_to 7997
  156.2297  140.1845  156.7321 H   0  0  0  0  0  0  0  0  0  0  0  0  # atno 8009 bound_to 7997
  154.5956  140.0631  156.9285 H   0  0  0  0  0  0  0  0  0  0  0  0  # atno 8010 bound_to 7997
  140.7265  143.4850  151.0067 H   0  0  0  0  0  0  0  0  0  0  0  0  # atno 10167 bound_to 10162
  156.9104  130.9908  151.3021 H   0  0  0  0  0  0  0  0  0  0  0  0  # atno 10718 bound_to 10713
  153.1832  135.6831  153.8450 H   0  0  0  0  0  0  0  0  0  0  0  0  # atno 10763 bound_to 10752
  153.7775  135.3187  155.3362 H   0  0  0  0  0  0  0  0  0  0  0  0  # atno 10764 bound_to 10752
  154.8072  135.4741  154.0519 H   0  0  0  0  0  0  0  0  0  0  0  0  # atno 10765 bound_to 10752
  140.7713  134.3186  157.5074 H   0  0  0  0  0  0  0  0  0  0  0  0  # atno 11005 bound_to 11000
  146.3383  139.8928  142.8806 LP  0  0  0  0  0  0  0  0  0  0  0  0  # atno 17320 bound_to 7965
  145.2554  141.0058  143.3857 LP  0  0  0  0  0  0  0  0  0  0  0  0  # atno 17321 bound_to 7965
  139.8551  143.7387  152.3176 LP  0  0  0  0  0  0  0  0  0  0  0  0  # atno 17342 bound_to 10162
  139.7583  144.7514  151.0402 LP  0  0  0  0  0  0  0  0  0  0  0  0  # atno 17343 bound_to 10162
  157.5971  130.8485  149.8745 LP  0  0  0  0  0  0  0  0  0  0  0  0  # atno 17370 bound_to 10713
  156.0539  130.3712  150.1137 LP  0  0  0  0  0  0  0  0  0  0  0  0  # atno 17371 bound_to 10713
  139.8755  134.9262  156.3395 LP  0  0  0  0  0  0  0  0  0  0  0  0  # atno 17394 bound_to 11000
  140.9571  133.7413  156.0350 LP  0  0  0  0  0  0  0  0  0  0  0  0  # atno 17395 bound_to 11000

$$$$
