AV-unprocessed.smi:1864|AV-procd|sdf|7553|dock5
  -GOLD-   22720 9273D 1   1.00000     0.00000
 Structure written by MMmdl.
 33 34  0  0  0  0  0  0  0  0  2 V2000
  151.4523  144.2172  158.3841 C   0  0  0  0  0  0  0  0  0  0  0  0
  151.6828  143.3888  159.6018 C   0  0  0  0  0  0  0  0  0  0  0  0
  150.6738  142.9734  160.3571 N   0  0  0  0  0  0  0  0  0  0  0  0
  151.3097  142.2511  161.3772 O   0  0  0  0  0  0  0  0  0  0  0  0
  152.6384  142.3141  161.1069 C   0  0  0  0  0  0  0  0  0  0  0  0
  153.6046  141.6477  162.0395 C   0  0  0  0  0  0  0  0  0  0  0  0
  154.5720  140.6708  161.3439 C   0  0  0  0  0  0  0  0  0  0  0  0
  153.8585  139.9111  160.3165 N   0  5  0  0  0  0  0  0  0  0  0  0
  154.3668  139.5870  159.0891 C   0  0  0  0  0  0  0  0  0  0  0  0
  155.5456  139.3057  158.8392 O   0  0  0  0  0  0  0  0  0  0  0  0
  153.4466  139.5671  157.9120 C   0  0  0  0  0  0  0  0  0  0  0  0
  153.8863  139.1658  156.7599 N   0  0  0  0  0  0  0  0  0  0  0  0
  153.0807  139.0984  155.6419 N   0  0  0  0  0  0  0  0  0  0  0  0
  153.6854  138.3640  154.5312 C   0  0  0  0  0  0  0  0  0  0  0  0
  151.8534  139.6704  155.5444 C   0  0  0  0  0  0  0  0  0  0  0  0
  151.1301  139.5907  154.5515 O   0  0  0  0  0  0  0  0  0  0  0  0
  151.3834  140.4846  156.7527 C   0  0  0  0  0  0  0  0  0  0  0  0
  151.9937  139.9772  158.0732 C   0  0  0  0  0  0  0  0  0  0  0  0
  152.9260  143.0147  160.0091 N   0  0  0  0  0  0  0  0  0  0  0  0
  150.3900  144.4217  158.2455 H   0  0  0  0  0  0  0  0  0  0  0  0
  151.8216  143.6970  157.5001 H   0  0  0  0  0  0  0  0  0  0  0  0
  151.9775  145.1684  158.4721 H   0  0  0  0  0  0  0  0  0  0  0  0
  154.1680  142.4242  162.5584 H   0  0  0  0  0  0  0  0  0  0  0  0
  153.0317  141.1205  162.8034 H   0  0  0  0  0  0  0  0  0  0  0  0
  155.4030  141.2382  160.9223 H   0  0  0  0  0  0  0  0  0  0  0  0
  155.0103  140.0097  162.0925 H   0  0  0  0  0  0  0  0  0  0  0  0
  153.0644  138.3255  153.6356 H   0  0  0  0  0  0  0  0  0  0  0  0
  153.8900  137.3356  154.8316 H   0  0  0  0  0  0  0  0  0  0  0  0
  154.6333  138.8249  154.2511 H   0  0  0  0  0  0  0  0  0  0  0  0
  151.6813  141.5204  156.5852 H   0  0  0  0  0  0  0  0  0  0  0  0
  150.2945  140.4754  156.8118 H   0  0  0  0  0  0  0  0  0  0  0  0
  151.4212  139.1279  158.4474 H   0  0  0  0  0  0  0  0  0  0  0  0
  151.8925  140.7687  158.8164 H   0  0  0  0  0  0  0  0  0  0  0  0
  1  2  1  0  0  0  0
  1 20  1  0  0  0  0
  1 21  1  0  0  0  0
  1 22  1  0  0  0  0
  2 19  1  0  0  0  0
  2  3  2  0  0  0  0
  3  4  1  0  0  0  0
  4  5  1  0  0  0  0
  5  6  1  0  0  0  0
  5 19  2  0  0  0  0
  6  7  1  0  0  0  0
  6 23  1  0  0  0  0
  6 24  1  0  0  0  0
  7  8  1  0  0  0  0
  7 25  1  0  0  0  0
  7 26  1  0  0  0  0
  8  9  1  0  0  0  0
  9 10  2  0  0  0  0
  9 11  1  0  0  0  0
 11 18  1  0  0  0  0
 11 12  2  0  0  0  0
 12 13  1  0  0  0  0
 13 14  1  0  0  0  0
 13 15  1  0  0  0  0
 14 27  1  0  0  0  0
 14 28  1  0  0  0  0
 14 29  1  0  0  0  0
 15 16  2  0  0  0  0
 15 17  1  0  0  0  0
 17 18  1  0  0  0  0
 17 30  1  0  0  0  0
 17 31  1  0  0  0  0
 18 32  1  0  0  0  0
 18 33  1  0  0  0  0
M  CHG  1   8  -1
M  END
> <s_m_source_file>
AV-unprocessed.smi

> <i_m_source_file_index>
1864

> <i_lp_mmshare_version>
43012

> <i_f3d_flags>
0

> <s_epik_input>
W0NIM11jMW5vYyhuMSlbQ0gyXVtDSDJdW05IXUMoPU8pQzI9Tk4oW0NIM10pQyg9TylbQ0gyXVtDSDJdMg==

> <s_epik_cmdline>
J2VwaWtfcHl0aG9uJywgJy1waCcsICc3LjAnLCAnLXRuJywgJzgnLCAnLW1hJywgJzIwMCcsICctbWV0YWxfYmluZGluZycsICctaW1hZScsICc8aW5maWxlLm1hZT4nLCAnLW9tYWUnLCAnPG91dGZpbGUubWFlPic=

> <r_lp_tautomer_probability>
1

> <r_epik_Ionization_Penalty>
5.04632

> <r_epik_Ionization_Penalty_Charging>
5.04632

> <r_epik_Ionization_Penalty_Neutral>
3.43742e-09

> <r_epik_State_Penalty>
5.0462

> <r_epik_Charging_Adjusted_Penalty>
10.0925

> <i_epik_Tot_Q>
-1

> <i_epik_Tot_abs_Q>
1

> <r_epik_Metal_State_Penalty>
1.15274

> <b_epik_Metal_Only>
1

> <s_epik_Chemistry_Notes>
This compound has an imine and may undergo hydrolysis.

> <s_lp_Force_Field>
OPLS_2005

> <r_lp_Energy>
22.1734

> <b_lp_Chiralities_Consistent>
1

> <s_lp_Variant>
AV-unprocessed.smi:1864-2

> <Gold.Version>
5.8.1

> <Gold.Id.Protein>
6NUR|6NUR_protein|mol2

> <Gold.PLP.Fitness>
47.9872

> <Gold.PLP.PLP>
-40.7335

> <Gold.PLP.part.hbond>
-4.3892

> <Gold.PLP.part.metal>
0.0000

> <Gold.PLP.part.buried>
-3.6146

> <Gold.PLP.part.nonpolar>
-32.9173

> <Gold.PLP.part.repulsive>
0.4518

> <Gold.PLP.ligand.clash>
0.0000

> <Gold.PLP.ligand.torsion>
0.5369

> <Gold.PLP.Chemscore.Hbond>
2.7684

> <Gold.PLP.Chemscore.CHOScore>
0.0000

> <Gold.PLP.Chemscore.Metal>
0.0000

> <Gold.Chemscore.Hbonds>
donor molecule, donor type, donor heavy atom, donor atom, acceptor molecule, acceptor atom, score
      P1  H  6933  6945       L1     4  0.42
      P1  H  7989  7998       L1    16  1.00
      P1  H  7997  8008       L1    10  0.60
      P1  H  7997  8009       L1    12  0.01

> <Gold.PLP.Chemscore.Internal.Correction>
0.0224

> <Gold.Rescore>
     Score         DG    S(hbond)    S(metal)    S(lipo)     H(rot)  DE(clash)    DE(int)     intcor
     11.32     -12.30       1.29        0.00      60.32       1.77       0.40       0.59       ----

> <Gold.Chemscore.Fitness>
11.3155

> <Gold.Chemscore.DG>
-12.3025

> <Gold.Chemscore.ZeroCoef>
-5.4800

> <Gold.Chemscore.Hbond>
1.2888

> <Gold.Chemscore.Metal>
0.0000

> <Gold.Chemscore.Lipo>
60.3174

> <Gold.Chemscore.Internal_Hbond>
0.0000

> <Gold.Chemscore.DEClash>
0.3998

> <Gold.Chemscore.DEInternal>
0.5872

> <Gold.Chemscore.Rot>
1.7731

> <Gold.Chemscore.Internal.Correction>
   9.000000E+99

> <Gold.Chemscore.Hbonds>
donor molecule, donor type, donor heavy atom, donor atom, acceptor molecule, acceptor atom, score
      P1  H  6933  6945       L1     4  0.11
      P1  H  7989  7998       L1    16  0.55
      P1  H  7997  8008       L1    10  0.04

> <Gold.Chemscore.Hbond.Weighted>
-4.3046

> <Gold.Chemscore.Metal.Weighted>
-0.0000

> <Gold.Chemscore.Lipo.Weighted>
-7.0571

> <Gold.Chemscore.Internal_Hbond.Weighted>
0.0000

> <Gold.Chemscore.DEClash.Weighted>
0.3998

> <Gold.Chemscore.DEInternal.Weighted>
0.5872

> <Gold.Chemscore.Rot.Weighted>
4.5393

> <Gold.Chemscore.Internal.Correction.Weighted>
   9.000000E+99

> <Gold.Protein.RotatedTorsions>
[ 6907 6896 6895 6894 ] final -164.92 input  -60.11 | X-H torsion
[ 7974 7965 7964 7962 ] final -141.81 input  175.53 | X-H torsion
[ 8008 7997 7996 7995 ] final -140.42 input   59.86 | X-H torsion
[ 10167 10162 10161 10158 ] final   26.28 input  -65.29 | X-H torsion
[ 10718 10713 10712 10709 ] final -106.77 input   66.30 | X-H torsion
[ 10763 10752 10751 10750 ] final  170.90 input  -60.55 | X-H torsion
[ 11005 11000 10999 10996 ] final  -79.50 input  -57.11 | X-H torsion

> <Gold.Protein.ActiveResidues>
 VAL166  LYS551  ARG553  GLY616  TRP617  ASP618  TYR619  PRO620  LYS621  CYS622 
 ASP623  PHE694  ASN695  SER759  ASP760  ASP761  ALA762  ILE779  LEU786  VAL792 
 PHE793  MET794  SER795  GLU796  ALA797  LYS798  CYS799  TRP800  GLU811  SER814 

> <Gold.Protein.RotatedAtoms>
  151.4194  133.3703  159.2753 H   0  0  0  0  0  0  0  0  0  0  0  0  # atno 6907 bound_to 6896
  150.9304  134.8721  159.7558 H   0  0  0  0  0  0  0  0  0  0  0  0  # atno 6908 bound_to 6896
  152.5025  134.4139  159.9510 H   0  0  0  0  0  0  0  0  0  0  0  0  # atno 6909 bound_to 6896
  144.8491  140.6035  143.5402 H   0  0  0  0  0  0  0  0  0  0  0  0  # atno 7974 bound_to 7965
  155.4611  140.0546  157.2991 H   0  0  0  0  0  0  0  0  0  0  0  0  # atno 8008 bound_to 7997
  154.4737  140.2051  155.9886 H   0  0  0  0  0  0  0  0  0  0  0  0  # atno 8009 bound_to 7997
  156.1097  140.3206  155.8060 H   0  0  0  0  0  0  0  0  0  0  0  0  # atno 8010 bound_to 7997
  140.5036  144.0275  150.6343 H   0  0  0  0  0  0  0  0  0  0  0  0  # atno 10167 bound_to 10162
  156.0405  130.5629  150.7727 H   0  0  0  0  0  0  0  0  0  0  0  0  # atno 10718 bound_to 10713
  154.4042  135.2755  155.2077 H   0  0  0  0  0  0  0  0  0  0  0  0  # atno 10763 bound_to 10752
  154.4090  135.6027  153.5945 H   0  0  0  0  0  0  0  0  0  0  0  0  # atno 10764 bound_to 10752
  152.9831  135.5945  154.4315 H   0  0  0  0  0  0  0  0  0  0  0  0  # atno 10765 bound_to 10752
  141.1667  133.7109  156.8133 H   0  0  0  0  0  0  0  0  0  0  0  0  # atno 11005 bound_to 11000
  145.4536  139.1520  143.3905 LP  0  0  0  0  0  0  0  0  0  0  0  0  # atno 17320 bound_to 7965
  146.2769  140.4663  142.8791 LP  0  0  0  0  0  0  0  0  0  0  0  0  # atno 17321 bound_to 7965
  140.3578  143.2925  152.0417 LP  0  0  0  0  0  0  0  0  0  0  0  0  # atno 17342 bound_to 10162
  139.4878  144.6326  151.7040 LP  0  0  0  0  0  0  0  0  0  0  0  0  # atno 17343 bound_to 10162
  157.5216  131.0932  151.0070 LP  0  0  0  0  0  0  0  0  0  0  0  0  # atno 17370 bound_to 10713
  157.0399  130.5745  149.5355 LP  0  0  0  0  0  0  0  0  0  0  0  0  # atno 17371 bound_to 10713
  140.2172  134.8784  157.3338 LP  0  0  0  0  0  0  0  0  0  0  0  0  # atno 17394 bound_to 11000
  140.2025  134.4237  155.7655 LP  0  0  0  0  0  0  0  0  0  0  0  0  # atno 17395 bound_to 11000

$$$$
