AV-unprocessed.smi:1698|AV-procd|sdf|6813|dock10
  -GOLD-   22720 7593D 1   1.00000     0.00000
 Structure written by MMmdl.
 28 29  0  0  0  0  0  0  0  0  1 V2000
  144.8830  137.4326  152.6908 O   0  0  0  0  0  0  0  0  0  0  0  0
  146.0155  137.0311  152.4305 C   0  0  0  0  0  0  0  0  0  0  0  0
  146.2860  135.9502  151.6744 N   0  0  0  0  0  0  0  0  0  0  0  0
  145.3598  135.0845  151.0405 C   0  0  0  0  0  0  0  0  0  0  0  0
  145.6028  133.7147  150.7491 C   0  0  0  0  0  0  0  0  0  0  0  0
  144.5597  133.1548  150.1534 N   0  0  0  0  0  0  0  0  0  0  0  0
  143.6532  134.1541  150.0622 N   0  0  0  0  0  0  0  0  0  0  0  0
  144.0968  135.3468  150.5892 C   0  0  0  0  0  0  0  0  0  0  0  0
  147.1050  137.6690  152.8956 N   0  0  0  0  0  0  0  0  0  0  0  0
  147.1656  138.8648  153.7375 C   0  0  2  0  0  0  0  0  0  0  0  0
  146.7848  140.1225  152.9342 C   0  0  0  0  0  0  0  0  0  0  0  0
  147.1998  141.3643  153.7339 C   0  0  0  0  0  0  0  0  0  0  0  0
  148.6691  140.8722  154.7134 S   0  0  0  0  0  0  0  0  0  0  0  0
  149.8825  141.4370  154.1040 O   0  0  0  0  0  0  0  0  0  0  0  0
  148.3762  141.0693  156.1412 O   0  0  0  0  0  0  0  0  0  0  0  0
  148.5731  139.0871  154.3148 C   0  0  0  0  0  0  0  0  0  0  0  0
  142.7463  134.0082  149.6420 H   0  0  0  0  0  0  0  0  0  0  0  0
  147.2607  135.7279  151.5346 H   0  0  0  0  0  0  0  0  0  0  0  0
  146.4833  133.1207  150.9453 H   0  0  0  0  0  0  0  0  0  0  0  0
  143.4891  136.2395  150.5917 H   0  0  0  0  0  0  0  0  0  0  0  0
  147.9973  137.2837  152.6210 H   0  0  0  0  0  0  0  0  0  0  0  0
  146.4555  138.7779  154.5620 H   0  0  0  0  0  0  0  0  0  0  0  0
  147.3280  140.1218  151.9878 H   0  0  0  0  0  0  0  0  0  0  0  0
  145.7225  140.1417  152.6895 H   0  0  0  0  0  0  0  0  0  0  0  0
  147.4375  142.2185  153.0999 H   0  0  0  0  0  0  0  0  0  0  0  0
  146.4144  141.6561  154.4315 H   0  0  0  0  0  0  0  0  0  0  0  0
  148.7741  138.4931  155.2065 H   0  0  0  0  0  0  0  0  0  0  0  0
  149.3425  138.8709  153.5728 H   0  0  0  0  0  0  0  0  0  0  0  0
  1  2  2  0  0  0  0
  2  3  1  0  0  0  0
  2  9  1  0  0  0  0
  3  4  1  0  0  0  0
  3 18  1  0  0  0  0
  4  8  2  0  0  0  0
  4  5  1  0  0  0  0
  5  6  2  0  0  0  0
  5 19  1  0  0  0  0
  6  7  1  0  0  0  0
  7 17  1  0  0  0  0
  7  8  1  0  0  0  0
  8 20  1  0  0  0  0
  9 10  1  0  0  0  0
  9 21  1  0  0  0  0
 10 16  1  0  0  0  0
 10 11  1  0  0  0  0
 10 22  1  0  0  0  0
 11 12  1  0  0  0  0
 11 23  1  0  0  0  0
 11 24  1  0  0  0  0
 12 13  1  0  0  0  0
 12 25  1  0  0  0  0
 12 26  1  0  0  0  0
 13 14  2  0  0  0  0
 13 15  2  0  0  0  0
 13 16  1  0  0  0  0
 16 27  1  0  0  0  0
 16 28  1  0  0  0  0
M  END
> <s_m_source_file>
AV-unprocessed.smi

> <i_m_source_file_index>
1698

> <i_lp_mmshare_version>
43012

> <i_f3d_flags>
0

> <s_epik_input>
Tz1TMSg9TylbQ0gyXVtDSDJdW0NASF0oW0NIMl0xKVtOSF1DKD1PKVtOSF1jMltjSF1uW25IXVtjSF0y

> <s_epik_cmdline>
J2VwaWtfcHl0aG9uJywgJy1waCcsICc3LjAnLCAnLXRuJywgJzgnLCAnLW1hJywgJzIwMCcsICctbWV0YWxfYmluZGluZycsICctaW1hZScsICc8aW5maWxlLm1hZT4nLCAnLW9tYWUnLCAnPG91dGZpbGUubWFlPic=

> <r_lp_tautomer_probability>
1

> <r_epik_Ionization_Penalty>
3.85517e-05

> <r_epik_Ionization_Penalty_Charging>
0

> <r_epik_Ionization_Penalty_Neutral>
3.85517e-05

> <r_epik_State_Penalty>
-0

> <r_epik_Charging_Adjusted_Penalty>
0

> <i_epik_Tot_Q>
0

> <i_epik_Tot_abs_Q>
0

> <r_epik_Metal_State_Penalty>
-0

> <b_epik_Metal_Only>
0

> <s_lp_Force_Field>
OPLS_2005

> <r_lp_Energy>
17.454

> <b_lp_Chiralities_Consistent>
1

> <s_lp_Variant>
AV-unprocessed.smi:1698-1

> <Gold.Version>
5.8.1

> <Gold.Id.Protein>
6NUR|6NUR_protein|mol2

> <Gold.PLP.Fitness>
35.9035

> <Gold.PLP.PLP>
-22.0521

> <Gold.PLP.part.hbond>
-4.8707

> <Gold.PLP.part.metal>
0.0000

> <Gold.PLP.part.buried>
-0.4838

> <Gold.PLP.part.nonpolar>
-18.0035

> <Gold.PLP.part.repulsive>
0.8085

> <Gold.PLP.ligand.clash>
0.0000

> <Gold.PLP.ligand.torsion>
0.3142

> <Gold.PLP.Chemscore.Hbond>
3.8265

> <Gold.PLP.Chemscore.CHOScore>
1.0000

> <Gold.PLP.Chemscore.Metal>
0.0000

> <Gold.Chemscore.Hbonds>
donor molecule, donor type, donor heavy atom, donor atom, acceptor molecule, acceptor atom, score
      L1  H     3    18       P1  7948  0.94
      L1  H     7    17       P1 10186  0.99
      L1  H     9    21       P1  7948  1.00
      P1  H  7989  7998       L1    14  0.27
      P1  H  8011  8017       L1    14  0.62
      L1  C     8    20       P1 10171  1.00

> <Gold.PLP.Chemscore.Internal.Correction>
0.0002

> <Gold.Rescore>
     Score         DG    S(hbond)    S(metal)    S(lipo)     H(rot)  DE(clash)    DE(int)     intcor
     18.83     -19.97       3.65        0.00      41.59       1.00       0.77       0.37       ----

> <Gold.Chemscore.Fitness>
18.8284

> <Gold.Chemscore.DG>
-19.9676

> <Gold.Chemscore.ZeroCoef>
-5.4800

> <Gold.Chemscore.Hbond>
3.6471

> <Gold.Chemscore.Metal>
0.0000

> <Gold.Chemscore.Lipo>
41.5930

> <Gold.Chemscore.Internal_Hbond>
0.0000

> <Gold.Chemscore.DEClash>
0.7663

> <Gold.Chemscore.DEInternal>
0.3729

> <Gold.Chemscore.Rot>
1.0000

> <Gold.Chemscore.Internal.Correction>
   9.000000E+99

> <Gold.Chemscore.Hbonds>
donor molecule, donor type, donor heavy atom, donor atom, acceptor molecule, acceptor atom, score
      L1  H     3    18       P1  7948  0.91
      L1  H     7    17       P1 10186  0.93
      L1  H     9    21       P1  7948  0.97
      P1  H  7989  7998       L1    14  0.28
      P1  H  8011  8017       L1    14  0.58

> <Gold.Chemscore.Hbond.Weighted>
-12.1812

> <Gold.Chemscore.Metal.Weighted>
-0.0000

> <Gold.Chemscore.Lipo.Weighted>
-4.8664

> <Gold.Chemscore.Internal_Hbond.Weighted>
0.0000

> <Gold.Chemscore.DEClash.Weighted>
0.7663

> <Gold.Chemscore.DEInternal.Weighted>
0.3729

> <Gold.Chemscore.Rot.Weighted>
2.5600

> <Gold.Chemscore.Internal.Correction.Weighted>
   9.000000E+99

> <Gold.Protein.RotatedTorsions>
[ 6907 6896 6895 6894 ] final   33.09 input  -60.11 | X-H torsion
[ 7974 7965 7964 7962 ] final  -48.37 input  175.53 | X-H torsion
[ 8008 7997 7996 7995 ] final  -57.84 input   59.86 | X-H torsion
[ 10167 10162 10161 10158 ] final -101.19 input  -65.29 | X-H torsion
[ 10718 10713 10712 10709 ] final  142.15 input   66.30 | X-H torsion
[ 10763 10752 10751 10750 ] final  171.65 input  -60.55 | X-H torsion
[ 11005 11000 10999 10996 ] final   18.54 input  -57.11 | X-H torsion

> <Gold.Protein.ActiveResidues>
 VAL166  LYS551  ARG553  GLY616  TRP617  ASP618  TYR619  PRO620  LYS621  CYS622 
 ASP623  PHE694  ASN695  SER759  ASP760  ASP761  ALA762  ILE779  LEU786  VAL792 
 PHE793  MET794  SER795  GLU796  ALA797  LYS798  CYS799  TRP800  GLU811  SER814 

> <Gold.Protein.RotatedAtoms>
  152.0837  134.9454  160.0572 H   0  0  0  0  0  0  0  0  0  0  0  0  # atno 6907 bound_to 6896
  152.0733  133.4112  159.4477 H   0  0  0  0  0  0  0  0  0  0  0  0  # atno 6908 bound_to 6896
  150.6836  134.2987  159.4740 H   0  0  0  0  0  0  0  0  0  0  0  0  # atno 6909 bound_to 6896
  145.9519  140.7564  142.9500 H   0  0  0  0  0  0  0  0  0  0  0  0  # atno 7974 bound_to 7965
  154.4284  140.1097  156.5861 H   0  0  0  0  0  0  0  0  0  0  0  0  # atno 8008 bound_to 7997
  155.6061  140.3494  155.4589 H   0  0  0  0  0  0  0  0  0  0  0  0  # atno 8009 bound_to 7997
  156.0136  140.1224  157.0419 H   0  0  0  0  0  0  0  0  0  0  0  0  # atno 8010 bound_to 7997
  140.2439  143.3519  152.0776 H   0  0  0  0  0  0  0  0  0  0  0  0  # atno 10167 bound_to 10162
  157.3838  131.0996  151.0712 H   0  0  0  0  0  0  0  0  0  0  0  0  # atno 10718 bound_to 10713
  154.4149  135.2757  155.2013 H   0  0  0  0  0  0  0  0  0  0  0  0  # atno 10763 bound_to 10752
  154.3983  135.6050  153.5886 H   0  0  0  0  0  0  0  0  0  0  0  0  # atno 10764 bound_to 10752
  152.9832  135.5920  154.4436 H   0  0  0  0  0  0  0  0  0  0  0  0  # atno 10765 bound_to 10752
  140.4236  134.1492  155.7675 H   0  0  0  0  0  0  0  0  0  0  0  0  # atno 11005 bound_to 11000
  144.6797  140.2448  143.7339 LP  0  0  0  0  0  0  0  0  0  0  0  0  # atno 17320 bound_to 7965
  145.8160  139.2023  143.1966 LP  0  0  0  0  0  0  0  0  0  0  0  0  # atno 17321 bound_to 7965
  139.5068  144.6820  151.5983 LP  0  0  0  0  0  0  0  0  0  0  0  0  # atno 17342 bound_to 10162
  140.6092  143.9467  150.6441 LP  0  0  0  0  0  0  0  0  0  0  0  0  # atno 17343 bound_to 10162
  157.1771  130.6293  149.5659 LP  0  0  0  0  0  0  0  0  0  0  0  0  # atno 17370 bound_to 10713
  155.9782  130.4766  150.6640 LP  0  0  0  0  0  0  0  0  0  0  0  0  # atno 17371 bound_to 10713
  141.1774  133.8486  157.1375 LP  0  0  0  0  0  0  0  0  0  0  0  0  # atno 17394 bound_to 11000
  140.0182  134.9957  157.0538 LP  0  0  0  0  0  0  0  0  0  0  0  0  # atno 17395 bound_to 11000

$$$$
