AV-unprocessed.smi:754|AV-procd|sdf|3608|dock9
  -GOLD-   22720 1 03D 1   1.00000     0.00000
 Structure written by MMmdl.
 37 38  0  0  0  0  0  0  0  0  1 V2000
  153.7837  141.6460  160.6781 C   0  0  0  0  0  0  0  0  0  0  0  0
  152.4094  142.3172  160.7185 C   0  0  0  0  0  0  0  0  0  0  0  0
  151.5510  141.6530  159.8069 O   0  0  0  0  0  0  0  0  0  0  0  0
  151.9116  141.8658  158.4514 C   0  0  1  0  0  0  0  0  0  0  0  0
  151.1940  140.9564  157.4491 C   0  0  0  0  0  0  0  0  0  0  0  0
  151.1329  142.1870  156.5430 C   0  0  1  0  0  0  0  0  0  0  0  0
  149.8867  142.2658  155.7881 N   0  0  0  0  0  0  0  0  0  0  0  0
  149.5410  141.4239  154.8030 C   0  0  0  0  0  0  0  0  0  0  0  0
  150.2552  140.4929  154.4294 O   0  0  0  0  0  0  0  0  0  0  0  0
  148.1881  141.6770  154.1330 C   0  0  0  0  0  0  0  0  0  0  0  0
  147.1104  141.7050  155.1044 N   0  0  0  0  0  0  0  0  0  0  0  0
  145.7857  141.7321  154.9448 C   0  0  0  0  0  0  0  0  0  0  0  0
  145.1531  141.7422  156.1081 N   0  0  0  0  0  0  0  0  0  0  0  0
  146.1876  141.7177  157.0289 N   0  0  0  0  0  0  0  0  0  0  0  0
  147.3515  141.6952  156.4391 N   0  0  0  0  0  0  0  0  0  0  0  0
  151.1889  143.0781  157.8139 C   0  0  0  0  0  0  0  0  0  0  0  0
  149.8485  143.4769  158.4563 C   0  0  0  0  0  0  0  0  0  0  0  0
  152.0215  144.3546  157.6959 C   0  0  0  0  0  0  0  0  0  0  0  0
  154.4738  142.1282  161.3706 H   0  0  0  0  0  0  0  0  0  0  0  0
  154.2167  141.7031  159.6791 H   0  0  0  0  0  0  0  0  0  0  0  0
  153.7128  140.5936  160.9537 H   0  0  0  0  0  0  0  0  0  0  0  0
  151.9988  142.2648  161.7280 H   0  0  0  0  0  0  0  0  0  0  0  0
  152.5027  143.3712  160.4536 H   0  0  0  0  0  0  0  0  0  0  0  0
  152.9925  141.8974  158.2934 H   0  0  0  0  0  0  0  0  0  0  0  0
  151.7998  140.1353  157.0650 H   0  0  0  0  0  0  0  0  0  0  0  0
  150.2192  140.6125  157.7998 H   0  0  0  0  0  0  0  0  0  0  0  0
  152.0303  142.2742  155.9256 H   0  0  0  0  0  0  0  0  0  0  0  0
  149.2462  143.0069  156.0334 H   0  0  0  0  0  0  0  0  0  0  0  0
  148.1953  142.6195  153.5829 H   0  0  0  0  0  0  0  0  0  0  0  0
  147.9897  140.8835  153.4117 H   0  0  0  0  0  0  0  0  0  0  0  0
  145.2903  141.7409  153.9851 H   0  0  0  0  0  0  0  0  0  0  0  0
  149.3178  144.2152  157.8543 H   0  0  0  0  0  0  0  0  0  0  0  0
  149.9954  143.9121  159.4452 H   0  0  0  0  0  0  0  0  0  0  0  0
  149.1819  142.6234  158.5810 H   0  0  0  0  0  0  0  0  0  0  0  0
  151.5226  145.1030  157.0797 H   0  0  0  0  0  0  0  0  0  0  0  0
  152.9923  144.1587  157.2398 H   0  0  0  0  0  0  0  0  0  0  0  0
  152.2085  144.8017  158.6726 H   0  0  0  0  0  0  0  0  0  0  0  0
  1  2  1  0  0  0  0
  1 19  1  0  0  0  0
  1 20  1  0  0  0  0
  1 21  1  0  0  0  0
  2  3  1  0  0  0  0
  2 22  1  0  0  0  0
  2 23  1  0  0  0  0
  3  4  1  0  0  0  0
  4 16  1  0  0  0  0
  4  5  1  0  0  0  0
  4 24  1  0  0  0  0
  5  6  1  0  0  0  0
  5 25  1  0  0  0  0
  5 26  1  0  0  0  0
  6  7  1  0  0  0  0
  6 16  1  0  0  0  0
  6 27  1  0  0  0  0
  7  8  1  0  0  0  0
  7 28  1  0  0  0  0
  8  9  2  0  0  0  0
  8 10  1  0  0  0  0
 10 11  1  0  0  0  0
 10 29  1  0  0  0  0
 10 30  1  0  0  0  0
 11 15  1  0  0  0  0
 11 12  1  0  0  0  0
 12 13  2  0  0  0  0
 12 31  1  0  0  0  0
 13 14  1  0  0  0  0
 14 15  2  0  0  0  0
 16 17  1  0  0  0  0
 16 18  1  0  0  0  0
 17 32  1  0  0  0  0
 17 33  1  0  0  0  0
 17 34  1  0  0  0  0
 18 35  1  0  0  0  0
 18 36  1  0  0  0  0
 18 37  1  0  0  0  0
M  END
> <s_m_source_file>
AV-unprocessed.smi

> <i_m_source_file_index>
754

> <i_lp_mmshare_version>
43012

> <i_f3d_flags>
0

> <s_epik_input>
W0NIM11bQ0gyXU9bQ0BASF0oQzEoW0NIM10pW0NIM10pW0NIMl1bQ0BIXTFbTkhdQyg9TylbQ0gyXW4yW2NIXW5ubjI=

> <s_epik_cmdline>
J2VwaWtfcHl0aG9uJywgJy1waCcsICc3LjAnLCAnLXRuJywgJzgnLCAnLW1hJywgJzIwMCcsICctbWV0YWxfYmluZGluZycsICctaW1hZScsICc8aW5maWxlLm1hZT4nLCAnLW9tYWUnLCAnPG91dGZpbGUubWFlPic=

> <r_lp_tautomer_probability>
1

> <r_epik_Ionization_Penalty>
8.28422e-07

> <r_epik_Ionization_Penalty_Charging>
0

> <r_epik_Ionization_Penalty_Neutral>
8.28422e-07

> <r_epik_State_Penalty>
-0

> <r_epik_Charging_Adjusted_Penalty>
0

> <i_epik_Tot_Q>
0

> <i_epik_Tot_abs_Q>
0

> <r_epik_Metal_State_Penalty>
-0

> <b_epik_Metal_Only>
0

> <s_lp_Force_Field>
OPLS_2005

> <r_lp_Energy>
20.8169

> <b_lp_Chiralities_Consistent>
1

> <s_lp_Variant>
AV-unprocessed.smi:754-2

> <Gold.Version>
5.8.1

> <Gold.Id.Protein>
6NUR|6NUR_protein|mol2

> <Gold.PLP.Fitness>
43.6956

> <Gold.PLP.PLP>
-35.9444

> <Gold.PLP.part.hbond>
-2.7158

> <Gold.PLP.part.metal>
0.0000

> <Gold.PLP.part.buried>
-5.4214

> <Gold.PLP.part.nonpolar>
-28.3979

> <Gold.PLP.part.repulsive>
0.4720

> <Gold.PLP.ligand.clash>
0.0000

> <Gold.PLP.ligand.torsion>
0.4571

> <Gold.PLP.Chemscore.Hbond>
1.7760

> <Gold.PLP.Chemscore.CHOScore>
1.0000

> <Gold.PLP.Chemscore.Metal>
0.0000

> <Gold.Chemscore.Hbonds>
donor molecule, donor type, donor heavy atom, donor atom, acceptor molecule, acceptor atom, score
      L1  H     7    28       P1  8028  0.83
      P1  H  7989  7998       L1     9  0.93
      L1  C    12    31       P1 10175  0.86

> <Gold.PLP.Chemscore.Internal.Correction>
0.3374

> <Gold.Rescore>
     Score         DG    S(hbond)    S(metal)    S(lipo)     H(rot)  DE(clash)    DE(int)     intcor
     12.73     -14.43       1.67        0.00      82.70       2.46       0.09       1.61       ----

> <Gold.Chemscore.Fitness>
12.7301

> <Gold.Chemscore.DG>
-14.4345

> <Gold.Chemscore.ZeroCoef>
-5.4800

> <Gold.Chemscore.Hbond>
1.6707

> <Gold.Chemscore.Metal>
0.0000

> <Gold.Chemscore.Lipo>
82.7013

> <Gold.Chemscore.Internal_Hbond>
0.0000

> <Gold.Chemscore.DEClash>
0.0920

> <Gold.Chemscore.DEInternal>
1.6123

> <Gold.Chemscore.Rot>
2.4616

> <Gold.Chemscore.Internal.Correction>
   9.000000E+99

> <Gold.Chemscore.Hbonds>
donor molecule, donor type, donor heavy atom, donor atom, acceptor molecule, acceptor atom, score
      L1  H     7    28       P1  8028  0.81
      P1  H  7989  7998       L1     9  0.84

> <Gold.Chemscore.Hbond.Weighted>
-5.5800

> <Gold.Chemscore.Metal.Weighted>
-0.0000

> <Gold.Chemscore.Lipo.Weighted>
-9.6761

> <Gold.Chemscore.Internal_Hbond.Weighted>
0.0000

> <Gold.Chemscore.DEClash.Weighted>
0.0920

> <Gold.Chemscore.DEInternal.Weighted>
1.6123

> <Gold.Chemscore.Rot.Weighted>
6.3016

> <Gold.Chemscore.Internal.Correction.Weighted>
   9.000000E+99

> <Gold.Protein.RotatedTorsions>
[ 6907 6896 6895 6894 ] final -176.64 input  -60.11 | X-H torsion
[ 7974 7965 7964 7962 ] final  -60.39 input  175.53 | X-H torsion
[ 8008 7997 7996 7995 ] final -165.80 input   59.86 | X-H torsion
[ 10167 10162 10161 10158 ] final  161.92 input  -65.29 | X-H torsion
[ 10718 10713 10712 10709 ] final    5.10 input   66.30 | X-H torsion
[ 10763 10752 10751 10750 ] final   65.82 input  -60.55 | X-H torsion
[ 11005 11000 10999 10996 ] final   14.83 input  -57.11 | X-H torsion

> <Gold.Protein.ActiveResidues>
 VAL166  LYS551  ARG553  GLY616  TRP617  ASP618  TYR619  PRO620  LYS621  CYS622 
 ASP623  PHE694  ASN695  SER759  ASP760  ASP761  ALA762  ILE779  LEU786  VAL792 
 PHE793  MET794  SER795  GLU796  ALA797  LYS798  CYS799  TRP800  GLU811  SER814 

> <Gold.Protein.RotatedAtoms>
  151.6081  133.3350  159.3061 H   0  0  0  0  0  0  0  0  0  0  0  0  # atno 6907 bound_to 6896
  150.8171  134.7362  159.6751 H   0  0  0  0  0  0  0  0  0  0  0  0  # atno 6908 bound_to 6896
  152.4267  134.5861  160.0013 H   0  0  0  0  0  0  0  0  0  0  0  0  # atno 6909 bound_to 6896
  145.8161  140.8569  143.0157 H   0  0  0  0  0  0  0  0  0  0  0  0  # atno 7974 bound_to 7965
  155.8548  140.0969  157.1651 H   0  0  0  0  0  0  0  0  0  0  0  0  # atno 8008 bound_to 7997
  154.3987  140.1376  156.3951 H   0  0  0  0  0  0  0  0  0  0  0  0  # atno 8009 bound_to 7997
  155.7921  140.3455  155.5358 H   0  0  0  0  0  0  0  0  0  0  0  0  # atno 8010 bound_to 7997
  139.4854  144.4489  151.8855 H   0  0  0  0  0  0  0  0  0  0  0  0  # atno 10167 bound_to 10162
  156.9024  130.5726  149.5648 H   0  0  0  0  0  0  0  0  0  0  0  0  # atno 10718 bound_to 10713
  153.0113  135.5343  154.6727 H   0  0  0  0  0  0  0  0  0  0  0  0  # atno 10763 bound_to 10752
  154.5907  135.2858  155.0640 H   0  0  0  0  0  0  0  0  0  0  0  0  # atno 10764 bound_to 10752
  154.1734  135.6528  153.5068 H   0  0  0  0  0  0  0  0  0  0  0  0  # atno 10765 bound_to 10752
  140.4651  134.1087  155.7723 H   0  0  0  0  0  0  0  0  0  0  0  0  # atno 11005 bound_to 11000
  144.6752  140.0466  143.7480 LP  0  0  0  0  0  0  0  0  0  0  0  0  # atno 17320 bound_to 7965
  145.9725  139.2880  143.1090 LP  0  0  0  0  0  0  0  0  0  0  0  0  # atno 17321 bound_to 7965
  140.3945  144.2573  150.5897 LP  0  0  0  0  0  0  0  0  0  0  0  0  # atno 17342 bound_to 10162
  140.5115  143.2289  151.8528 LP  0  0  0  0  0  0  0  0  0  0  0  0  # atno 17343 bound_to 10162
  156.0576  130.5634  150.9124 LP  0  0  0  0  0  0  0  0  0  0  0  0  # atno 17370 bound_to 10713
  157.6018  131.0941  150.8947 LP  0  0  0  0  0  0  0  0  0  0  0  0  # atno 17371 bound_to 10713
  141.1603  133.8805  157.1866 LP  0  0  0  0  0  0  0  0  0  0  0  0  # atno 17394 bound_to 11000
  139.9920  135.0061  156.9997 LP  0  0  0  0  0  0  0  0  0  0  0  0  # atno 17395 bound_to 11000

$$$$
