AV-unprocessed.smi:913|AV-procd|sdf|4149|dock4
  -GOLD-   22720 2 53D 1   1.00000     0.00000
 Structure written by MMmdl.
 20 20  0  0  0  0  0  0  0  0  3 V2000
  148.8695  140.2770  154.2677 C   0  0  0  0  0  0  0  0  0  0  0  0
  149.9516  139.6928  155.1504 C   0  0  0  0  0  0  0  0  0  0  0  0
  149.6407  139.2492  156.3099 N   0  0  0  0  0  0  0  0  0  0  0  0
  150.6526  138.7093  157.1161 C   0  0  0  0  0  0  0  0  0  0  0  0
  150.1795  138.2619  158.3337 N   0  0  0  0  0  0  0  0  0  0  0  0
  151.9509  138.6463  156.7143 C   0  0  0  0  0  0  0  0  0  0  0  0
  153.0577  138.0404  157.5762 C   0  0  0  0  0  0  0  0  0  0  0  0
  152.7571  136.6088  158.0235 C   0  0  0  0  0  0  0  0  0  0  0  0
  152.5549  135.7611  157.1255 O   0  0  0  0  0  0  0  0  0  0  0  0
  152.7426  136.3815  159.2532 O   0  5  0  0  0  0  0  0  0  0  0  0
  152.2633  139.1729  155.3731 C   0  0  0  0  0  0  0  0  0  0  0  0
  153.4181  139.1506  154.9487 O   0  0  0  0  0  0  0  0  0  0  0  0
  151.2303  139.6768  154.6342 N   0  5  0  0  0  0  0  0  0  0  0  0
  147.8904  140.2015  154.7424 H   0  0  0  0  0  0  0  0  0  0  0  0
  148.8295  139.7453  153.3166 H   0  0  0  0  0  0  0  0  0  0  0  0
  149.0730  141.3294  154.0684 H   0  0  0  0  0  0  0  0  0  0  0  0
  149.1974  138.3445  158.5569 H   0  0  0  0  0  0  0  0  0  0  0  0
  150.6944  137.5739  158.8627 H   0  0  0  0  0  0  0  0  0  0  0  0
  153.9864  138.0472  157.0041 H   0  0  0  0  0  0  0  0  0  0  0  0
  153.2583  138.6518  158.4562 H   0  0  0  0  0  0  0  0  0  0  0  0
  1  2  1  0  0  0  0
  1 14  1  0  0  0  0
  1 15  1  0  0  0  0
  1 16  1  0  0  0  0
  2 13  1  0  0  0  0
  2  3  2  0  0  0  0
  3  4  1  0  0  0  0
  4  5  1  0  0  0  0
  4  6  2  0  0  0  0
  5 17  1  0  0  0  0
  5 18  1  0  0  0  0
  6  7  1  0  0  0  0
  6 11  1  0  0  0  0
  7  8  1  0  0  0  0
  7 19  1  0  0  0  0
  7 20  1  0  0  0  0
  8  9  2  0  0  0  0
  8 10  1  0  0  0  0
 11 12  2  0  0  0  0
 11 13  1  0  0  0  0
M  CHG  1  10  -1
M  CHG  1  13  -1
M  END
> <s_m_source_file>
AV-unprocessed.smi

> <i_m_source_file_index>
913

> <i_lp_mmshare_version>
43012

> <i_f3d_flags>
0

> <s_epik_input>
W0NIM11jMW5jKFtOSDJdKWMoYyg9TylbbkhdMSlbQ0gyXUMoPU8pW09IXQ==

> <s_epik_cmdline>
J2VwaWtfcHl0aG9uJywgJy1waCcsICc3LjAnLCAnLXRuJywgJzgnLCAnLW1hJywgJzIwMCcsICctbWV0YWxfYmluZGluZycsICctaW1hZScsICc8aW5maWxlLm1hZT4nLCAnLW9tYWUnLCAnPG91dGZpbGUubWFlPic=

> <r_lp_tautomer_probability>
0.994035

> <r_epik_Ionization_Penalty>
6.8797

> <r_epik_Ionization_Penalty_Charging>
0.00156716

> <r_epik_Ionization_Penalty_Neutral>
6.87813

> <r_epik_State_Penalty>
4.11317

> <r_epik_Charging_Adjusted_Penalty>
4.11474

> <i_epik_Tot_Q>
-2

> <i_epik_Tot_abs_Q>
2

> <r_epik_Metal_State_Penalty>
0.657697

> <b_epik_Metal_Only>
1

> <s_lp_Force_Field>
OPLS_2005

> <r_lp_Energy>
14.3997

> <b_lp_Chiralities_Consistent>
1

> <s_lp_Variant>
AV-unprocessed.smi:913-2

> <Gold.Version>
5.8.1

> <Gold.Id.Protein>
6NUR|6NUR_protein|mol2

> <Gold.PLP.Fitness>
34.0378

> <Gold.PLP.PLP>
-16.0904

> <Gold.PLP.part.hbond>
-4.0000

> <Gold.PLP.part.metal>
0.0000

> <Gold.PLP.part.buried>
-3.5105

> <Gold.PLP.part.nonpolar>
-9.6576

> <Gold.PLP.part.repulsive>
0.2052

> <Gold.PLP.ligand.clash>
0.0000

> <Gold.PLP.ligand.torsion>
0.0267

> <Gold.PLP.Chemscore.Hbond>
6.0000

> <Gold.PLP.Chemscore.CHOScore>
0.0000

> <Gold.PLP.Chemscore.Metal>
0.0000

> <Gold.Chemscore.Hbonds>
donor molecule, donor type, donor heavy atom, donor atom, acceptor molecule, acceptor atom, score
      P1  H  6896  6908       L1    10  1.86
      P1  H  7989  7998       L1    13  1.00
      P1  H  7997  8010       L1    12  0.94
      P1  H 10752 10763       L1     9  1.82

> <Gold.PLP.Chemscore.Internal.Correction>
0.0009

> <Gold.Rescore>
     Score         DG    S(hbond)    S(metal)    S(lipo)     H(rot)  DE(clash)    DE(int)     intcor
     15.51     -15.69       3.75        0.00      16.78       1.67       0.04       0.14       ----

> <Gold.Chemscore.Fitness>
15.5090

> <Gold.Chemscore.DG>
-15.6861

> <Gold.Chemscore.ZeroCoef>
-5.4800

> <Gold.Chemscore.Hbond>
3.7463

> <Gold.Chemscore.Metal>
0.0000

> <Gold.Chemscore.Lipo>
16.7839

> <Gold.Chemscore.Internal_Hbond>
0.0000

> <Gold.Chemscore.DEClash>
0.0402

> <Gold.Chemscore.DEInternal>
0.1368

> <Gold.Chemscore.Rot>
1.6681

> <Gold.Chemscore.Internal.Correction>
   9.000000E+99

> <Gold.Chemscore.Hbonds>
donor molecule, donor type, donor heavy atom, donor atom, acceptor molecule, acceptor atom, score
      P1  H  6896  6908       L1    10  0.91
      P1  H  7989  7998       L1    13  0.89
      P1  H  7997  8010       L1    12  0.90
      P1  H 10752 10763       L1     9  0.87

> <Gold.Chemscore.Hbond.Weighted>
-12.5126

> <Gold.Chemscore.Metal.Weighted>
-0.0000

> <Gold.Chemscore.Lipo.Weighted>
-1.9637

> <Gold.Chemscore.Internal_Hbond.Weighted>
0.0000

> <Gold.Chemscore.DEClash.Weighted>
0.0402

> <Gold.Chemscore.DEInternal.Weighted>
0.1368

> <Gold.Chemscore.Rot.Weighted>
4.2703

> <Gold.Chemscore.Internal.Correction.Weighted>
   9.000000E+99

> <Gold.Protein.RotatedTorsions>
[ 6907 6896 6895 6894 ] final  -86.14 input  -60.11 | X-H torsion
[ 7974 7965 7964 7962 ] final   71.15 input  175.53 | X-H torsion
[ 8008 7997 7996 7995 ] final  127.49 input   59.86 | X-H torsion
[ 10167 10162 10161 10158 ] final  117.19 input  -65.29 | X-H torsion
[ 10718 10713 10712 10709 ] final -143.02 input   66.30 | X-H torsion
[ 10763 10752 10751 10750 ] final  107.29 input  -60.55 | X-H torsion
[ 11005 11000 10999 10996 ] final  -31.55 input  -57.11 | X-H torsion

> <Gold.Protein.ActiveResidues>
 VAL166  LYS551  ARG553  GLY616  TRP617  ASP618  TYR619  PRO620  LYS621  CYS622 
 ASP623  PHE694  ASN695  SER759  ASP760  ASP761  ALA762  ILE779  LEU786  VAL792 
 PHE793  MET794  SER795  GLU796  ALA797  LYS798  CYS799  TRP800  GLU811  SER814 

> <Gold.Protein.RotatedAtoms>
  150.6868  134.3097  159.4740 H   0  0  0  0  0  0  0  0  0  0  0  0  # atno 6907 bound_to 6896
  152.0984  134.9356  160.0579 H   0  0  0  0  0  0  0  0  0  0  0  0  # atno 6908 bound_to 6896
  152.0645  133.4042  159.4469 H   0  0  0  0  0  0  0  0  0  0  0  0  # atno 6909 bound_to 6896
  145.7693  139.2836  143.1330 H   0  0  0  0  0  0  0  0  0  0  0  0  # atno 7974 bound_to 7965
  156.2892  140.2667  156.2282 H   0  0  0  0  0  0  0  0  0  0  0  0  # atno 8008 bound_to 7997
  155.0099  140.0387  157.2413 H   0  0  0  0  0  0  0  0  0  0  0  0  # atno 8009 bound_to 7997
  154.7527  140.2746  155.6284 H   0  0  0  0  0  0  0  0  0  0  0  0  # atno 8010 bound_to 7997
  139.6195  144.7098  151.2665 H   0  0  0  0  0  0  0  0  0  0  0  0  # atno 10167 bound_to 10162
  156.3529  130.7698  151.1853 H   0  0  0  0  0  0  0  0  0  0  0  0  # atno 10718 bound_to 10713
  153.4047  135.3849  155.2011 H   0  0  0  0  0  0  0  0  0  0  0  0  # atno 10763 bound_to 10752
  154.8732  135.3780  154.4575 H   0  0  0  0  0  0  0  0  0  0  0  0  # atno 10764 bound_to 10752
  153.5076  135.7087  153.5860 H   0  0  0  0  0  0  0  0  0  0  0  0  # atno 10765 bound_to 10752
  140.9477  133.7239  156.1173 H   0  0  0  0  0  0  0  0  0  0  0  0  # atno 11005 bound_to 11000
  146.0186  140.8369  142.9935 LP  0  0  0  0  0  0  0  0  0  0  0  0  # atno 17320 bound_to 7965
  144.6815  140.2594  143.7321 LP  0  0  0  0  0  0  0  0  0  0  0  0  # atno 17321 bound_to 7965
  140.7373  143.6682  150.8104 LP  0  0  0  0  0  0  0  0  0  0  0  0  # atno 17342 bound_to 10162
  140.0291  143.5462  152.2768 LP  0  0  0  0  0  0  0  0  0  0  0  0  # atno 17343 bound_to 10162
  157.7463  131.0422  150.4684 LP  0  0  0  0  0  0  0  0  0  0  0  0  # atno 17370 bound_to 10713
  156.4882  130.4089  149.6422 LP  0  0  0  0  0  0  0  0  0  0  0  0  # atno 17371 bound_to 10713
  140.7646  134.3901  157.5519 LP  0  0  0  0  0  0  0  0  0  0  0  0  # atno 17394 bound_to 11000
  139.8838  134.8983  156.2742 LP  0  0  0  0  0  0  0  0  0  0  0  0  # atno 17395 bound_to 11000

$$$$
