AV-unprocessed.smi:1950|AV-procd|sdf|7879|dock2
  -GOLD-   2272010 33D 1   1.00000     0.00000
 Structure written by MMmdl.
 33 34  0  0  0  0  0  0  0  0  1 V2000
  151.3227  141.0504  158.5147 C   0  0  0  0  0  0  0  0  0  0  0  0
  152.1605  140.2279  157.5331 C   0  0  0  0  0  0  0  0  0  0  0  0
  153.1080  139.5822  157.9813 O   0  0  0  0  0  0  0  0  0  0  0  0
  151.8323  140.2302  156.2187 N   0  0  0  0  0  0  0  0  0  0  0  0
  152.5200  139.3957  155.2269 C   0  0  0  0  0  0  0  0  0  0  0  0
  151.5694  138.2689  154.7829 C   0  0  0  0  0  0  0  0  0  0  0  0
  150.2357  138.8345  154.2479 C   0  0  0  0  0  0  0  0  0  0  0  0
  149.2848  137.7446  154.0447 N   0  0  0  0  0  0  0  0  0  0  0  0
  148.5443  137.1577  154.9964 C   0  0  0  0  0  0  0  0  0  0  0  0
  148.5813  137.4766  156.1850 O   0  0  0  0  0  0  0  0  0  0  0  0
  147.7715  136.1877  154.4765 N   0  0  0  0  0  0  0  0  0  0  0  0
  146.8454  135.3448  155.1462 C   0  0  0  0  0  0  0  0  0  0  0  0
  146.4592  135.5252  156.4191 N   0  0  0  0  0  0  0  0  0  0  0  0
  145.5454  134.5619  156.8265 N   0  0  0  0  0  0  0  0  0  0  0  0
  145.2793  133.6935  155.8466 C   0  0  0  0  0  0  0  0  0  0  0  0
  146.1180  133.9685  154.3294 S   0  0  0  0  0  0  0  0  0  0  0  0
  149.6321  139.8781  155.2130 C   0  0  0  0  0  0  0  0  0  0  0  0
  150.6797  140.9246  155.6319 C   0  0  0  0  0  0  0  0  0  0  0  0
  150.2780  140.7392  158.4879 H   0  0  0  0  0  0  0  0  0  0  0  0
  151.3832  142.1131  158.2792 H   0  0  0  0  0  0  0  0  0  0  0  0
  151.6826  140.9145  159.5349 H   0  0  0  0  0  0  0  0  0  0  0  0
  152.8017  140.0093  154.3701 H   0  0  0  0  0  0  0  0  0  0  0  0
  153.4506  138.9699  155.6045 H   0  0  0  0  0  0  0  0  0  0  0  0
  152.0491  137.6560  154.0187 H   0  0  0  0  0  0  0  0  0  0  0  0
  151.3787  137.6105  155.6319 H   0  0  0  0  0  0  0  0  0  0  0  0
  150.4468  139.3414  153.3045 H   0  0  0  0  0  0  0  0  0  0  0  0
  149.1818  137.4118  153.0972 H   0  0  0  0  0  0  0  0  0  0  0  0
  147.8541  136.0352  153.4823 H   0  0  0  0  0  0  0  0  0  0  0  0
  144.5840  132.8853  156.0183 H   0  0  0  0  0  0  0  0  0  0  0  0
  148.7797  140.3713  154.7440 H   0  0  0  0  0  0  0  0  0  0  0  0
  149.2492  139.3811  156.1060 H   0  0  0  0  0  0  0  0  0  0  0  0
  150.2269  141.6589  156.2966 H   0  0  0  0  0  0  0  0  0  0  0  0
  151.0088  141.4896  154.7585 H   0  0  0  0  0  0  0  0  0  0  0  0
  1  2  1  0  0  0  0
  1 19  1  0  0  0  0
  1 20  1  0  0  0  0
  1 21  1  0  0  0  0
  2  3  2  0  0  0  0
  2  4  1  0  0  0  0
  4 18  1  0  0  0  0
  4  5  1  0  0  0  0
  5  6  1  0  0  0  0
  5 22  1  0  0  0  0
  5 23  1  0  0  0  0
  6  7  1  0  0  0  0
  6 24  1  0  0  0  0
  6 25  1  0  0  0  0
  7  8  1  0  0  0  0
  7 17  1  0  0  0  0
  7 26  1  0  0  0  0
  8  9  1  0  0  0  0
  8 27  1  0  0  0  0
  9 10  2  0  0  0  0
  9 11  1  0  0  0  0
 11 12  1  0  0  0  0
 11 28  1  0  0  0  0
 12 16  1  0  0  0  0
 12 13  2  0  0  0  0
 13 14  1  0  0  0  0
 14 15  2  0  0  0  0
 15 16  1  0  0  0  0
 15 29  1  0  0  0  0
 17 18  1  0  0  0  0
 17 30  1  0  0  0  0
 17 31  1  0  0  0  0
 18 32  1  0  0  0  0
 18 33  1  0  0  0  0
M  END
> <s_m_source_file>
AV-unprocessed.smi

> <i_m_source_file_index>
1950

> <i_lp_mmshare_version>
43012

> <i_f3d_flags>
0

> <s_epik_input>
W0NIM11DKD1PKU4xW0NIMl1bQ0gyXVtDSF0oW0NIMl1bQ0gyXTEpW05IXUMoPU8pW05IXWMybm5bY0hdczI=

> <s_epik_cmdline>
J2VwaWtfcHl0aG9uJywgJy1waCcsICc3LjAnLCAnLXRuJywgJzgnLCAnLW1hJywgJzIwMCcsICctbWV0YWxfYmluZGluZycsICctaW1hZScsICc8aW5maWxlLm1hZT4nLCAnLW9tYWUnLCAnPG91dGZpbGUubWFlPic=

> <r_lp_tautomer_probability>
1

> <r_epik_Ionization_Penalty>
0.00190949

> <r_epik_Ionization_Penalty_Charging>
0

> <r_epik_Ionization_Penalty_Neutral>
0.00190949

> <r_epik_State_Penalty>
-0

> <r_epik_Charging_Adjusted_Penalty>
0

> <i_epik_Tot_Q>
0

> <i_epik_Tot_abs_Q>
0

> <r_epik_Metal_State_Penalty>
0.336167

> <b_epik_Metal_Only>
0

> <s_lp_Force_Field>
OPLS_2005

> <r_lp_Energy>
22.3171

> <b_lp_Chiralities_Consistent>
1

> <s_lp_Variant>
AV-unprocessed.smi:1950-1

> <Gold.Version>
5.8.1

> <Gold.Id.Protein>
6NUR|6NUR_protein|mol2

> <Gold.PLP.Fitness>
35.0709

> <Gold.PLP.PLP>
-23.7484

> <Gold.PLP.part.hbond>
-3.0000

> <Gold.PLP.part.metal>
0.0000

> <Gold.PLP.part.buried>
-0.9228

> <Gold.PLP.part.nonpolar>
-19.4155

> <Gold.PLP.part.repulsive>
0.0544

> <Gold.PLP.ligand.clash>
0.0000

> <Gold.PLP.ligand.torsion>
0.2874

> <Gold.PLP.Chemscore.Hbond>
2.9600

> <Gold.PLP.Chemscore.CHOScore>
1.0000

> <Gold.PLP.Chemscore.Metal>
0.0000

> <Gold.Chemscore.Hbonds>
donor molecule, donor type, donor heavy atom, donor atom, acceptor molecule, acceptor atom, score
      L1  H     8    27       P1  7948  1.00
      L1  H    11    28       P1  7948  0.94
      P1  H  7997  8009       L1     3  1.00
      L1  C    15    29       P1 10957  1.00

> <Gold.PLP.Chemscore.Internal.Correction>
0.0173

> <Gold.Rescore>
     Score         DG    S(hbond)    S(metal)    S(lipo)     H(rot)  DE(clash)    DE(int)     intcor
     14.50     -17.59       2.77        0.00      46.17       1.00       0.15       2.94       ----

> <Gold.Chemscore.Fitness>
14.5040

> <Gold.Chemscore.DG>
-17.5898

> <Gold.Chemscore.ZeroCoef>
-5.4800

> <Gold.Chemscore.Hbond>
2.7749

> <Gold.Chemscore.Metal>
0.0000

> <Gold.Chemscore.Lipo>
46.1668

> <Gold.Chemscore.Internal_Hbond>
0.0000

> <Gold.Chemscore.DEClash>
0.1469

> <Gold.Chemscore.DEInternal>
2.9389

> <Gold.Chemscore.Rot>
1.0000

> <Gold.Chemscore.Internal.Correction>
   9.000000E+99

> <Gold.Chemscore.Hbonds>
donor molecule, donor type, donor heavy atom, donor atom, acceptor molecule, acceptor atom, score
      L1  H     8    27       P1  7948  0.98
      L1  H    11    28       P1  7948  0.89
      P1  H  7997  8009       L1     3  0.65

> <Gold.Chemscore.Hbond.Weighted>
-9.2683

> <Gold.Chemscore.Metal.Weighted>
-0.0000

> <Gold.Chemscore.Lipo.Weighted>
-5.4015

> <Gold.Chemscore.Internal_Hbond.Weighted>
0.0000

> <Gold.Chemscore.DEClash.Weighted>
0.1469

> <Gold.Chemscore.DEInternal.Weighted>
2.9389

> <Gold.Chemscore.Rot.Weighted>
2.5600

> <Gold.Chemscore.Internal.Correction.Weighted>
   9.000000E+99

> <Gold.Protein.RotatedTorsions>
[ 6907 6896 6895 6894 ] final   48.38 input  -60.11 | X-H torsion
[ 7974 7965 7964 7962 ] final  120.26 input  175.53 | X-H torsion
[ 8008 7997 7996 7995 ] final  153.90 input   59.86 | X-H torsion
[ 10167 10162 10161 10158 ] final   -7.57 input  -65.29 | X-H torsion
[ 10718 10713 10712 10709 ] final  -70.31 input   66.30 | X-H torsion
[ 10763 10752 10751 10750 ] final   74.44 input  -60.55 | X-H torsion
[ 11005 11000 10999 10996 ] final -117.38 input  -57.11 | X-H torsion

> <Gold.Protein.ActiveResidues>
 VAL166  LYS551  ARG553  GLY616  TRP617  ASP618  TYR619  PRO620  LYS621  CYS622 
 ASP623  PHE694  ASN695  SER759  ASP760  ASP761  ALA762  ILE779  LEU786  VAL792 
 PHE793  MET794  SER795  GLU796  ALA797  LYS798  CYS799  TRP800  GLU811  SER814 

> <Gold.Protein.RotatedAtoms>
  152.2789  134.7851  160.0400 H   0  0  0  0  0  0  0  0  0  0  0  0  # atno 6907 bound_to 6896
  151.8437  133.3423  159.3659 H   0  0  0  0  0  0  0  0  0  0  0  0  # atno 6908 bound_to 6896
  150.7181  134.5295  159.5737 H   0  0  0  0  0  0  0  0  0  0  0  0  # atno 6909 bound_to 6896
  145.1332  139.3314  143.4654 H   0  0  0  0  0  0  0  0  0  0  0  0  # atno 7974 bound_to 7965
  156.2558  140.1981  156.6562 H   0  0  0  0  0  0  0  0  0  0  0  0  # atno 8008 bound_to 7997
  154.6499  140.0573  156.9968 H   0  0  0  0  0  0  0  0  0  0  0  0  # atno 8009 bound_to 7997
  155.1434  140.3245  155.4449 H   0  0  0  0  0  0  0  0  0  0  0  0  # atno 8010 bound_to 7997
  140.7033  143.6066  150.8745 H   0  0  0  0  0  0  0  0  0  0  0  0  # atno 10167 bound_to 10162
  156.0414  130.4329  150.2276 H   0  0  0  0  0  0  0  0  0  0  0  0  # atno 10718 bound_to 10713
  153.0587  135.5025  154.8043 H   0  0  0  0  0  0  0  0  0  0  0  0  # atno 10763 bound_to 10752
  154.6848  135.2974  154.9565 H   0  0  0  0  0  0  0  0  0  0  0  0  # atno 10764 bound_to 10752
  154.0339  135.6726  153.4836 H   0  0  0  0  0  0  0  0  0  0  0  0  # atno 10765 bound_to 10752
  141.0358  133.9911  157.3072 H   0  0  0  0  0  0  0  0  0  0  0  0  # atno 11005 bound_to 11000
  146.3512  140.1340  142.8596 LP  0  0  0  0  0  0  0  0  0  0  0  0  # atno 17320 bound_to 7965
  145.0612  140.9089  143.4937 LP  0  0  0  0  0  0  0  0  0  0  0  0  # atno 17321 bound_to 7965
  139.9789  143.5973  152.2949 LP  0  0  0  0  0  0  0  0  0  0  0  0  # atno 17342 bound_to 10162
  139.6587  144.7662  151.2005 LP  0  0  0  0  0  0  0  0  0  0  0  0  # atno 17343 bound_to 10162
  157.0371  131.0024  151.3295 LP  0  0  0  0  0  0  0  0  0  0  0  0  # atno 17370 bound_to 10713
  157.5236  130.8013  149.7837 LP  0  0  0  0  0  0  0  0  0  0  0  0  # atno 17371 bound_to 10713
  139.9240  135.0201  156.8167 LP  0  0  0  0  0  0  0  0  0  0  0  0  # atno 17394 bound_to 11000
  140.6324  133.9893  155.7668 LP  0  0  0  0  0  0  0  0  0  0  0  0  # atno 17395 bound_to 11000

$$$$
