AV-unprocessed.smi:2377|AV-procd|sdf|9448|dock9
  -GOLD-   2272013 83D 1   1.00000     0.00000
 Structure written by MMmdl.
 23 23  0  0  0  0  0  0  0  0  1 V2000
  151.4754  138.7241  154.7533 C   0  0  0  0  0  0  0  0  0  0  0  0
  150.9020  140.0412  154.9979 N   0  0  0  0  0  0  0  0  0  0  0  0
  151.2553  140.5889  156.3053 C   0  0  0  0  0  0  0  0  0  0  0  0
  150.9398  142.0932  156.3969 C   0  0  1  0  0  0  0  0  0  0  0  0
  149.5385  142.2521  156.3240 O   0  0  0  0  0  0  0  0  0  0  0  0
  151.5197  142.7358  157.6485 C   0  0  0  0  0  0  0  0  0  0  0  0
  152.1256  141.9484  158.6502 C   0  0  0  0  0  0  0  0  0  0  0  0
  152.6430  142.5831  159.7957 C   0  0  0  0  0  0  0  0  0  0  0  0
  152.5309  143.9840  159.8941 C   0  0  0  0  0  0  0  0  0  0  0  0
  151.9517  144.7496  158.9451 N   0  0  0  0  0  0  0  0  0  0  0  0
  151.4579  144.1327  157.8498 C   0  0  0  0  0  0  0  0  0  0  0  0
  151.1984  138.3624  153.7631 H   0  0  0  0  0  0  0  0  0  0  0  0
  151.1204  137.9988  155.4860 H   0  0  0  0  0  0  0  0  0  0  0  0
  152.5641  138.7541  154.8050 H   0  0  0  0  0  0  0  0  0  0  0  0
  149.8916  139.9927  154.9158 H   0  0  0  0  0  0  0  0  0  0  0  0
  150.7014  140.0596  157.0819 H   0  0  0  0  0  0  0  0  0  0  0  0
  152.3132  140.4169  156.5082 H   0  0  0  0  0  0  0  0  0  0  0  0
  151.3568  142.5940  155.5218 H   0  0  0  0  0  0  0  0  0  0  0  0
  149.3424  143.1764  156.2978 H   0  0  0  0  0  0  0  0  0  0  0  0
  152.1931  140.8755  158.5463 H   0  0  0  0  0  0  0  0  0  0  0  0
  153.1130  142.0102  160.5813 H   0  0  0  0  0  0  0  0  0  0  0  0
  152.9163  144.5030  160.7592 H   0  0  0  0  0  0  0  0  0  0  0  0
  150.9985  144.7740  157.1120 H   0  0  0  0  0  0  0  0  0  0  0  0
  1  2  1  0  0  0  0
  1 12  1  0  0  0  0
  1 13  1  0  0  0  0
  1 14  1  0  0  0  0
  2  3  1  0  0  0  0
  2 15  1  0  0  0  0
  3  4  1  0  0  0  0
  3 16  1  0  0  0  0
  3 17  1  0  0  0  0
  4  5  1  0  0  0  0
  4  6  1  0  0  0  0
  4 18  1  0  0  0  0
  5 19  1  0  0  0  0
  6 11  1  0  0  0  0
  6  7  2  0  0  0  0
  7  8  1  0  0  0  0
  7 20  1  0  0  0  0
  8  9  2  0  0  0  0
  8 21  1  0  0  0  0
  9 10  1  0  0  0  0
  9 22  1  0  0  0  0
 10 11  2  0  0  0  0
 11 23  1  0  0  0  0
M  END
> <s_m_source_file>
AV-unprocessed.smi

> <i_m_source_file_index>
2377

> <i_lp_mmshare_version>
43012

> <i_f3d_flags>
0

> <s_epik_input>
W0NIM11bTkhdW0NIMl1bQ0BIXShbT0hdKWMxW2NIXVtjSF1bY0hdbltjSF0x

> <s_epik_cmdline>
J2VwaWtfcHl0aG9uJywgJy1waCcsICc3LjAnLCAnLXRuJywgJzgnLCAnLW1hJywgJzIwMCcsICctbWV0YWxfYmluZGluZycsICctaW1hZScsICc8aW5maWxlLm1hZT4nLCAnLW9tYWUnLCAnPG91dGZpbGUubWFlPic=

> <r_epik_Ionization_Penalty>
2.4626

> <r_epik_Ionization_Penalty_Charging>
0

> <r_epik_Ionization_Penalty_Neutral>
2.4626

> <r_epik_State_Penalty>
2.6219

> <r_epik_Charging_Adjusted_Penalty>
2.6219

> <i_epik_Tot_Q>
0

> <i_epik_Tot_abs_Q>
0

> <r_epik_Metal_State_Penalty>
2.61964

> <b_epik_Metal_Only>
0

> <s_lp_Force_Field>
OPLS_2005

> <r_lp_Energy>
6.69751

> <b_lp_Chiralities_Consistent>
1

> <s_lp_Variant>
AV-unprocessed.smi:2377-4

> <Gold.Version>
5.8.1

> <Gold.Id.Protein>
6NUR|6NUR_protein|mol2

> <Gold.PLP.Fitness>
37.0441

> <Gold.PLP.PLP>
-28.3447

> <Gold.PLP.part.hbond>
-2.0000

> <Gold.PLP.part.metal>
0.0000

> <Gold.PLP.part.buried>
-5.3737

> <Gold.PLP.part.nonpolar>
-21.0448

> <Gold.PLP.part.repulsive>
0.0527

> <Gold.PLP.ligand.clash>
0.0000

> <Gold.PLP.ligand.torsion>
0.1548

> <Gold.PLP.Chemscore.Hbond>
2.0000

> <Gold.PLP.Chemscore.CHOScore>
1.0000

> <Gold.PLP.Chemscore.Metal>
0.0000

> <Gold.Chemscore.Hbonds>
donor molecule, donor type, donor heavy atom, donor atom, acceptor molecule, acceptor atom, score
      L1  H     5    19       P1  8028  1.00
      P1  H  7989  7998       L1     2  0.85
      L1  C    11    23       P1  8028  1.00

> <Gold.PLP.Chemscore.Internal.Correction>
0.0091

> <Gold.Rescore>
     Score         DG    S(hbond)    S(metal)    S(lipo)     H(rot)  DE(clash)    DE(int)     intcor
     13.90     -14.04       1.29        0.00      78.75       1.94       0.11       0.03       ----

> <Gold.Chemscore.Fitness>
13.9006

> <Gold.Chemscore.DG>
-14.0417

> <Gold.Chemscore.ZeroCoef>
-5.4800

> <Gold.Chemscore.Hbond>
1.2891

> <Gold.Chemscore.Metal>
0.0000

> <Gold.Chemscore.Lipo>
78.7459

> <Gold.Chemscore.Internal_Hbond>
0.0000

> <Gold.Chemscore.DEClash>
0.1148

> <Gold.Chemscore.DEInternal>
0.0263

> <Gold.Chemscore.Rot>
1.9363

> <Gold.Chemscore.Internal.Correction>
   9.000000E+99

> <Gold.Chemscore.Hbonds>
donor molecule, donor type, donor heavy atom, donor atom, acceptor molecule, acceptor atom, score
      L1  H     5    19       P1  8028  1.00
      P1  H  7989  7998       L1     2  0.10

> <Gold.Chemscore.Hbond.Weighted>
-4.3055

> <Gold.Chemscore.Metal.Weighted>
-0.0000

> <Gold.Chemscore.Lipo.Weighted>
-9.2133

> <Gold.Chemscore.Internal_Hbond.Weighted>
0.0000

> <Gold.Chemscore.DEClash.Weighted>
0.1148

> <Gold.Chemscore.DEInternal.Weighted>
0.0263

> <Gold.Chemscore.Rot.Weighted>
4.9570

> <Gold.Chemscore.Internal.Correction.Weighted>
   9.000000E+99

> <Gold.Protein.RotatedTorsions>
[ 6907 6896 6895 6894 ] final  136.03 input  -60.11 | X-H torsion
[ 7974 7965 7964 7962 ] final -101.84 input  175.53 | X-H torsion
[ 8008 7997 7996 7995 ] final   50.92 input   59.86 | X-H torsion
[ 10167 10162 10161 10158 ] final  112.92 input  -65.29 | X-H torsion
[ 10718 10713 10712 10709 ] final   17.52 input   66.30 | X-H torsion
[ 10763 10752 10751 10750 ] final  -70.22 input  -60.55 | X-H torsion
[ 11005 11000 10999 10996 ] final   47.90 input  -57.11 | X-H torsion

> <Gold.Protein.ActiveResidues>
 VAL166  LYS551  ARG553  GLY616  TRP617  ASP618  TYR619  PRO620  LYS621  CYS622 
 ASP623  PHE694  ASN695  SER759  ASP760  ASP761  ALA762  ILE779  LEU786  VAL792 
 PHE793  MET794  SER795  GLU796  ALA797  LYS798  CYS799  TRP800  GLU811  SER814 

> <Gold.Protein.RotatedAtoms>
  152.2939  133.5588  159.5574 H   0  0  0  0  0  0  0  0  0  0  0  0  # atno 6907 bound_to 6896
  150.7247  134.0389  159.3767 H   0  0  0  0  0  0  0  0  0  0  0  0  # atno 6908 bound_to 6896
  151.8293  135.0627  160.0485 H   0  0  0  0  0  0  0  0  0  0  0  0  # atno 6909 bound_to 6896
  145.2764  140.9314  143.2957 H   0  0  0  0  0  0  0  0  0  0  0  0  # atno 7974 bound_to 7965
  155.4267  140.3449  155.4276 H   0  0  0  0  0  0  0  0  0  0  0  0  # atno 8008 bound_to 7997
  156.1361  140.1528  156.9023 H   0  0  0  0  0  0  0  0  0  0  0  0  # atno 8009 bound_to 7997
  154.4933  140.0835  156.7622 H   0  0  0  0  0  0  0  0  0  0  0  0  # atno 8010 bound_to 7997
  139.6499  144.7128  151.2068 H   0  0  0  0  0  0  0  0  0  0  0  0  # atno 10167 bound_to 10162
  157.0833  130.6397  149.5831 H   0  0  0  0  0  0  0  0  0  0  0  0  # atno 10718 bound_to 10713
  154.4146  135.6001  153.5973 H   0  0  0  0  0  0  0  0  0  0  0  0  # atno 10763 bound_to 10752
  152.9791  135.5937  154.4029 H   0  0  0  0  0  0  0  0  0  0  0  0  # atno 10764 bound_to 10752
  154.3846  135.2841  155.2169 H   0  0  0  0  0  0  0  0  0  0  0  0  # atno 10765 bound_to 10752
  140.1238  134.4794  155.8575 H   0  0  0  0  0  0  0  0  0  0  0  0  # atno 11005 bound_to 11000
  144.9291  139.4320  143.6504 LP  0  0  0  0  0  0  0  0  0  0  0  0  # atno 17320 bound_to 7965
  146.3230  139.8192  142.8930 LP  0  0  0  0  0  0  0  0  0  0  0  0  # atno 17321 bound_to 7965
  140.7533  143.6167  150.8553 LP  0  0  0  0  0  0  0  0  0  0  0  0  # atno 17342 bound_to 10162
  139.9814  143.5947  152.2941 LP  0  0  0  0  0  0  0  0  0  0  0  0  # atno 17343 bound_to 10162
  155.9918  130.4973  150.7312 LP  0  0  0  0  0  0  0  0  0  0  0  0  # atno 17370 bound_to 10713
  157.4782  131.0900  151.0566 LP  0  0  0  0  0  0  0  0  0  0  0  0  # atno 17371 bound_to 10713
  141.2157  133.6770  156.6940 LP  0  0  0  0  0  0  0  0  0  0  0  0  # atno 17394 bound_to 11000
  140.2930  134.8225  157.4033 LP  0  0  0  0  0  0  0  0  0  0  0  0  # atno 17395 bound_to 11000

$$$$
