AV-unprocessed.smi:212|AV-procd|sdf|1617|dock4
  -GOLD-   2262019543D 1   1.00000     0.00000
 Structure written by MMmdl.
 65 68  0  0  0  0  0  0  0  0  2 V2000
  150.4629  132.7478  154.9785 C   0  0  0  0  0  0  0  0  0  0  0  0
  148.9869  133.1437  154.7808 C   0  0  2  0  0  0  0  0  0  0  0  0
  148.5967  133.2357  153.2913 C   0  0  0  0  0  0  0  0  0  0  0  0
  147.1533  133.5513  153.1407 N   0  3  2  0  0  0  0  0  0  0  0  0
  146.6919  133.5294  151.7271 C   0  0  0  0  0  0  0  0  0  0  0  0
  145.1528  133.6188  151.6036 C   0  0  0  0  0  0  0  0  0  0  0  0
  144.7087  135.0908  151.5787 C   0  0  0  0  0  0  0  0  0  0  0  0
  144.6217  132.8812  150.3604 C   0  0  0  0  0  0  0  0  0  0  0  0
  144.5627  133.0399  152.7506 O   0  0  0  0  0  0  0  0  0  0  0  0
  146.7674  134.7899  153.8652 C   0  0  0  0  0  0  0  0  0  0  0  0
  147.1908  134.7313  155.3472 C   0  0  0  0  0  0  0  0  0  0  0  0
  148.5941  134.3569  155.5053 N   0  0  0  0  0  0  0  0  0  0  0  0
  149.4659  135.3927  155.5246 C   0  0  0  0  0  0  0  0  0  0  0  0
  150.2739  135.6298  154.4588 N   0  0  0  0  0  0  0  0  0  0  0  0
  151.1404  136.6471  154.4911 C   0  0  0  0  0  0  0  0  0  0  0  0
  151.3570  137.5286  155.4701 N   0  0  0  0  0  0  0  0  0  0  0  0
  150.5466  137.2895  156.5411 C   0  0  0  0  0  0  0  0  0  0  0  0
  149.5800  136.2516  156.6486 C   0  0  0  0  0  0  0  0  0  0  0  0
  148.9443  136.3148  157.8815 N   0  0  0  0  0  0  0  0  0  0  0  0
  149.5041  137.3354  158.4725 C   0  0  0  0  0  0  0  0  0  0  0  0
  150.4728  137.9814  157.7373 N   0  0  0  0  0  0  0  0  0  0  0  0
  151.2526  139.1332  158.1576 C   0  0  0  0  0  0  0  0  0  0  0  0
  150.6866  140.4802  157.6417 C   0  0  2  0  0  0  0  0  0  0  0  0
  150.3570  140.4007  156.1285 C   0  0  0  0  0  0  0  0  0  0  0  0
  151.5201  140.2398  155.3443 O   0  0  0  0  0  0  0  0  0  0  0  0
  151.6662  141.6416  157.9687 C   0  0  2  0  0  0  0  0  0  0  0  0
  152.0526  141.7618  159.4343 C   0  0  0  0  0  0  0  0  0  0  0  0
  152.6060  143.1799  159.5141 C   0  0  0  0  0  0  0  0  0  0  0  0
  151.8795  143.9306  158.5493 O   0  0  0  0  0  0  0  0  0  0  0  0
  151.1227  143.0539  157.7209 C   0  0  0  0  0  0  0  0  0  0  0  0
  150.6700  131.7822  154.5171 H   0  0  0  0  0  0  0  0  0  0  0  0
  150.7087  132.6624  156.0375 H   0  0  0  0  0  0  0  0  0  0  0  0
  151.1437  133.4740  154.5327 H   0  0  0  0  0  0  0  0  0  0  0  0
  148.3940  132.3399  155.2197 H   0  0  0  0  0  0  0  0  0  0  0  0
  149.1934  133.9920  152.7793 H   0  0  0  0  0  0  0  0  0  0  0  0
  148.8074  132.2830  152.8036 H   0  0  0  0  0  0  0  0  0  0  0  0
  147.1686  134.3326  151.1625 H   0  0  0  0  0  0  0  0  0  0  0  0
  147.0211  132.6066  151.2464 H   0  0  0  0  0  0  0  0  0  0  0  0
  145.1233  135.6131  150.7159 H   0  0  0  0  0  0  0  0  0  0  0  0
  145.0373  135.6222  152.4727 H   0  0  0  0  0  0  0  0  0  0  0  0
  143.6230  135.1805  151.5246 H   0  0  0  0  0  0  0  0  0  0  0  0
  145.0565  133.2884  149.4467 H   0  0  0  0  0  0  0  0  0  0  0  0
  143.5381  132.9740  150.2773 H   0  0  0  0  0  0  0  0  0  0  0  0
  144.8532  131.8162  150.3890 H   0  0  0  0  0  0  0  0  0  0  0  0
  144.9278  133.4531  153.5190 H   0  0  0  0  0  0  0  0  0  0  0  0
  147.2227  135.6505  153.3742 H   0  0  0  0  0  0  0  0  0  0  0  0
  145.6890  134.9358  153.8033 H   0  0  0  0  0  0  0  0  0  0  0  0
  146.9957  135.6882  155.8336 H   0  0  0  0  0  0  0  0  0  0  0  0
  146.5847  133.9916  155.8716 H   0  0  0  0  0  0  0  0  0  0  0  0
  151.7484  136.7718  153.6073 H   0  0  0  0  0  0  0  0  0  0  0  0
  149.2233  137.6493  159.4675 H   0  0  0  0  0  0  0  0  0  0  0  0
  151.2797  139.1141  159.2466 H   0  0  0  0  0  0  0  0  0  0  0  0
  152.2822  139.0052  157.8212 H   0  0  0  0  0  0  0  0  0  0  0  0
  149.7541  140.6614  158.1791 H   0  0  0  0  0  0  0  0  0  0  0  0
  149.6628  139.5845  155.9259 H   0  0  0  0  0  0  0  0  0  0  0  0
  149.8781  141.3119  155.7729 H   0  0  0  0  0  0  0  0  0  0  0  0
  152.1862  139.8292  155.8745 H   0  0  0  0  0  0  0  0  0  0  0  0
  152.5800  141.5164  157.3853 H   0  0  0  0  0  0  0  0  0  0  0  0
  151.1706  141.6680  160.0699 H   0  0  0  0  0  0  0  0  0  0  0  0
  152.7848  141.0192  159.7524 H   0  0  0  0  0  0  0  0  0  0  0  0
  152.5092  143.6100  160.5111 H   0  0  0  0  0  0  0  0  0  0  0  0
  153.6615  143.1924  159.2399 H   0  0  0  0  0  0  0  0  0  0  0  0
  151.1967  143.3528  156.6751 H   0  0  0  0  0  0  0  0  0  0  0  0
  150.0759  143.1237  158.0203 H   0  0  0  0  0  0  0  0  0  0  0  0
  146.6623  132.7964  153.5980 H   0  0  0  0  0  0  0  0  0  0  0  0
  1  2  1  0  0  0  0
  1 31  1  0  0  0  0
  1 32  1  0  0  0  0
  1 33  1  0  0  0  0
  2 12  1  0  0  0  0
  2  3  1  0  0  0  0
  2 34  1  0  0  0  0
  3  4  1  0  0  0  0
  3 35  1  0  0  0  0
  3 36  1  0  0  0  0
  4  5  1  0  0  0  0
  4 10  1  0  0  0  0
  4 65  1  0  0  0  0
  5  6  1  0  0  0  0
  5 37  1  0  0  0  0
  5 38  1  0  0  0  0
  6  7  1  0  0  0  0
  6  8  1  0  0  0  0
  6  9  1  0  0  0  0
  7 39  1  0  0  0  0
  7 40  1  0  0  0  0
  7 41  1  0  0  0  0
  8 42  1  0  0  0  0
  8 43  1  0  0  0  0
  8 44  1  0  0  0  0
  9 45  1  0  0  0  0
 10 11  1  0  0  0  0
 10 46  1  0  0  0  0
 10 47  1  0  0  0  0
 11 12  1  0  0  0  0
 11 48  1  0  0  0  0
 11 49  1  0  0  0  0
 12 13  1  0  0  0  0
 13 18  1  0  0  0  0
 13 14  2  0  0  0  0
 14 15  1  0  0  0  0
 15 16  2  0  0  0  0
 15 50  1  0  0  0  0
 16 17  1  0  0  0  0
 17 21  1  0  0  0  0
 17 18  2  0  0  0  0
 18 19  1  0  0  0  0
 19 20  2  0  0  0  0
 20 21  1  0  0  0  0
 20 51  1  0  0  0  0
 21 22  1  0  0  0  0
 22 23  1  0  0  0  0
 22 52  1  0  0  0  0
 22 53  1  0  0  0  0
 23 24  1  0  0  0  0
 23 26  1  0  0  0  0
 23 54  1  0  0  0  0
 24 25  1  0  0  0  0
 24 55  1  0  0  0  0
 24 56  1  0  0  0  0
 25 57  1  0  0  0  0
 26 30  1  0  0  0  0
 26 27  1  0  0  0  0
 26 58  1  0  0  0  0
 27 28  1  0  0  0  0
 27 59  1  0  0  0  0
 27 60  1  0  0  0  0
 28 29  1  0  0  0  0
 28 61  1  0  0  0  0
 28 62  1  0  0  0  0
 29 30  1  0  0  0  0
 30 63  1  0  0  0  0
 30 64  1  0  0  0  0
M  CHG  1   4   1
M  END
> <s_m_source_file>
AV-unprocessed.smi

> <i_m_source_file_index>
212

> <i_lp_mmshare_version>
43012

> <i_f3d_flags>
0

> <s_epik_input>
W0NIM11bQ0BASF0xW0NIMl1OKFtDSDJdQyhbQ0gzXSkoW0NIM10pW09IXSlbQ0gyXVtDSDJdTjFjKG5bY0hdbjIpYyhjMjMpbltjSF1uM1tDSDJdW0NASF0oW0NIMl1bT0hdKVtDQEBIXTRbQ0gyXVtDSDJdT1tDSDJdNA==

> <s_epik_cmdline>
J2VwaWtfcHl0aG9uJywgJy1waCcsICc3LjAnLCAnLXRuJywgJzgnLCAnLW1hJywgJzIwMCcsICctbWV0YWxfYmluZGluZycsICctaW1hZScsICc8aW5maWxlLm1hZT4nLCAnLW9tYWUnLCAnPG91dGZpbGUubWFlPic=

> <r_lp_tautomer_probability>
1

> <r_epik_Ionization_Penalty>
0.00182193

> <r_epik_Ionization_Penalty_Charging>
0.00173996

> <r_epik_Ionization_Penalty_Neutral>
8.19718e-05

> <r_epik_State_Penalty>
-0

> <r_epik_Charging_Adjusted_Penalty>
0.00173996

> <i_epik_Tot_Q>
1

> <i_epik_Tot_abs_Q>
1

> <r_epik_Metal_State_Penalty>
-0

> <b_epik_Metal_Only>
0

> <s_lp_Force_Field>
OPLS_2005

> <r_lp_Energy>
60.482

> <b_lp_Chiralities_Consistent>
1

> <s_lp_Variant>
AV-unprocessed.smi:212-1

> <Gold.Version>
5.8.1

> <Gold.Id.Protein>
6NUR|6NUR_protein|mol2

> <Gold.PLP.Fitness>
43.4779

> <Gold.PLP.PLP>
-40.2078

> <Gold.PLP.part.hbond>
-1.3898

> <Gold.PLP.part.metal>
0.0000

> <Gold.PLP.part.buried>
-5.7981

> <Gold.PLP.part.nonpolar>
-33.3260

> <Gold.PLP.part.repulsive>
0.3418

> <Gold.PLP.ligand.clash>
0.0000

> <Gold.PLP.ligand.torsion>
1.5241

> <Gold.PLP.Chemscore.Hbond>
0.9280

> <Gold.PLP.Chemscore.CHOScore>
0.8171

> <Gold.PLP.Chemscore.Metal>
0.0000

> <Gold.Chemscore.Hbonds>
donor molecule, donor type, donor heavy atom, donor atom, acceptor molecule, acceptor atom, score
      P1  H  7989  7998       L1    25  0.94
      L1  C    15    50       P1  7949  0.89

> <Gold.PLP.Chemscore.Internal.Correction>
1.0831

> <Gold.Rescore>
     Score         DG    S(hbond)    S(metal)    S(lipo)     H(rot)  DE(clash)    DE(int)     intcor
      8.80     -11.40       0.97        0.00     103.48       3.68       0.20       2.39       ----

> <Gold.Chemscore.Fitness>
8.8044

> <Gold.Chemscore.DG>
-11.4017

> <Gold.Chemscore.ZeroCoef>
-5.4800

> <Gold.Chemscore.Hbond>
0.9697

> <Gold.Chemscore.Metal>
0.0000

> <Gold.Chemscore.Lipo>
103.4766

> <Gold.Chemscore.Internal_Hbond>
0.0000

> <Gold.Chemscore.DEClash>
0.2033

> <Gold.Chemscore.DEInternal>
2.3940

> <Gold.Chemscore.Rot>
3.6812

> <Gold.Chemscore.Internal.Correction>
   9.000000E+99

> <Gold.Chemscore.Hbonds>
donor molecule, donor type, donor heavy atom, donor atom, acceptor molecule, acceptor atom, score
      P1  H  7989  7998       L1    25  0.90

> <Gold.Chemscore.Hbond.Weighted>
-3.2389

> <Gold.Chemscore.Metal.Weighted>
-0.0000

> <Gold.Chemscore.Lipo.Weighted>
-12.1068

> <Gold.Chemscore.Internal_Hbond.Weighted>
0.0000

> <Gold.Chemscore.DEClash.Weighted>
0.2033

> <Gold.Chemscore.DEInternal.Weighted>
2.3940

> <Gold.Chemscore.Rot.Weighted>
9.4239

> <Gold.Chemscore.Internal.Correction.Weighted>
   9.000000E+99

> <Gold.Protein.RotatedTorsions>
[ 6907 6896 6895 6894 ] final  134.74 input  -60.11 | X-H torsion
[ 7974 7965 7964 7962 ] final -134.36 input  175.53 | X-H torsion
[ 8008 7997 7996 7995 ] final -110.31 input   59.86 | X-H torsion
[ 10167 10162 10161 10158 ] final   46.53 input  -65.29 | X-H torsion
[ 10718 10713 10712 10709 ] final   76.83 input   66.30 | X-H torsion
[ 10763 10752 10751 10750 ] final   89.84 input  -60.55 | X-H torsion
[ 11005 11000 10999 10996 ] final  121.05 input  -57.11 | X-H torsion

> <Gold.Protein.ActiveResidues>
 VAL166  LYS551  ARG553  GLY616  TRP617  ASP618  TYR619  PRO620  LYS621  CYS622 
 ASP623  PHE694  ASN695  SER759  ASP760  ASP761  ALA762  ILE779  LEU786  VAL792 
 PHE793  MET794  SER795  GLU796  ALA797  LYS798  CYS799  TRP800  GLU811  SER814 

> <Gold.Protein.RotatedAtoms>
  152.3080  133.5723  159.5661 H   0  0  0  0  0  0  0  0  0  0  0  0  # atno 6907 bound_to 6896
  150.7309  134.0194  159.3705 H   0  0  0  0  0  0  0  0  0  0  0  0  # atno 6908 bound_to 6896
  151.8089  135.0687  160.0461 H   0  0  0  0  0  0  0  0  0  0  0  0  # atno 6909 bound_to 6896
  144.9110  140.6895  143.5025 H   0  0  0  0  0  0  0  0  0  0  0  0  # atno 7974 bound_to 7965
  154.9726  140.0397  157.2241 H   0  0  0  0  0  0  0  0  0  0  0  0  # atno 8008 bound_to 7997
  154.7787  140.2815  155.6058 H   0  0  0  0  0  0  0  0  0  0  0  0  # atno 8009 bound_to 7997
  156.2933  140.2596  156.2607 H   0  0  0  0  0  0  0  0  0  0  0  0  # atno 8010 bound_to 7997
  140.3129  144.2798  150.6196 H   0  0  0  0  0  0  0  0  0  0  0  0  # atno 10167 bound_to 10162
  157.6688  130.9793  150.1554 H   0  0  0  0  0  0  0  0  0  0  0  0  # atno 10718 bound_to 10713
  153.1912  135.4456  155.0152 H   0  0  0  0  0  0  0  0  0  0  0  0  # atno 10763 bound_to 10752
  154.8091  135.3287  154.7354 H   0  0  0  0  0  0  0  0  0  0  0  0  # atno 10764 bound_to 10752
  153.7808  135.6977  153.4944 H   0  0  0  0  0  0  0  0  0  0  0  0  # atno 10765 bound_to 10752
  139.9210  134.9637  156.7900 H   0  0  0  0  0  0  0  0  0  0  0  0  # atno 11005 bound_to 11000
  145.3455  139.1720  143.4463 LP  0  0  0  0  0  0  0  0  0  0  0  0  # atno 17320 bound_to 7965
  146.3158  140.3501  142.8655 LP  0  0  0  0  0  0  0  0  0  0  0  0  # atno 17321 bound_to 7965
  140.5552  143.2200  151.7860 LP  0  0  0  0  0  0  0  0  0  0  0  0  # atno 17342 bound_to 10162
  139.4890  144.4423  151.9750 LP  0  0  0  0  0  0  0  0  0  0  0  0  # atno 17343 bound_to 10162
  156.2343  130.3685  149.8409 LP  0  0  0  0  0  0  0  0  0  0  0  0  # atno 17370 bound_to 10713
  156.6227  130.8633  151.3479 LP  0  0  0  0  0  0  0  0  0  0  0  0  # atno 17371 bound_to 10713
  140.6475  133.9762  155.7738 LP  0  0  0  0  0  0  0  0  0  0  0  0  # atno 17394 bound_to 11000
  141.0730  134.0177  157.3498 LP  0  0  0  0  0  0  0  0  0  0  0  0  # atno 17395 bound_to 11000

$$$$
