AV-unprocessed.smi:2249|AV-procd|sdf|9098|dock6
  -GOLD-   2272012293D 1   1.00000     0.00000
 Structure written by MMmdl.
 38 39  0  0  0  0  0  0  0  0  1 V2000
  149.7415  133.0547  155.8736 C   0  0  0  0  0  0  0  0  0  0  0  0
  150.1535  133.3123  154.4121 C   0  0  2  0  0  0  0  0  0  0  0  0
  150.1041  134.7520  154.1584 N   0  0  0  0  0  0  0  0  0  0  0  0
  150.7870  135.6888  154.8328 C   0  0  0  0  0  0  0  0  0  0  0  0
  151.5436  135.4357  155.7706 O   0  0  0  0  0  0  0  0  0  0  0  0
  150.5284  136.9162  154.3488 N   0  0  0  0  0  0  0  0  0  0  0  0
  151.0306  138.1130  154.7538 C   0  0  0  0  0  0  0  0  0  0  0  0
  152.2696  138.4003  155.2584 C   0  0  0  0  0  0  0  0  0  0  0  0
  152.1905  139.8037  155.4881 C   0  0  0  0  0  0  0  0  0  0  0  0
  151.0146  140.3203  155.1538 N   0  0  0  0  0  0  0  0  0  0  0  0
  150.2918  139.2748  154.6962 N   0  0  0  0  0  0  0  0  0  0  0  0
  148.9311  139.4782  154.2383 C   0  0  0  0  0  0  0  0  0  0  0  0
  149.2701  132.5600  153.3825 C   0  0  0  0  0  0  0  0  0  0  0  0
  147.9024  133.2379  153.1626 C   0  0  0  0  0  0  0  0  0  0  0  0
  147.0238  132.4238  152.1987 C   0  0  0  0  0  0  0  0  0  0  0  0
  146.8528  131.1015  152.6930 O   0  0  0  0  0  0  0  0  0  0  0  0
  148.0802  130.3901  152.7900 C   0  0  0  0  0  0  0  0  0  0  0  0
  149.0168  131.0913  153.7866 C   0  0  0  0  0  0  0  0  0  0  0  0
  149.8862  132.0127  156.1569 H   0  0  0  0  0  0  0  0  0  0  0  0
  148.6940  133.3070  156.0418 H   0  0  0  0  0  0  0  0  0  0  0  0
  150.3402  133.6523  156.5619 H   0  0  0  0  0  0  0  0  0  0  0  0
  151.1807  132.9657  154.2840 H   0  0  0  0  0  0  0  0  0  0  0  0
  149.5047  135.0554  153.4049 H   0  0  0  0  0  0  0  0  0  0  0  0
  149.8746  136.9624  153.5812 H   0  0  0  0  0  0  0  0  0  0  0  0
  153.1027  137.7383  155.4400 H   0  0  0  0  0  0  0  0  0  0  0  0
  152.9497  140.4608  155.8861 H   0  0  0  0  0  0  0  0  0  0  0  0
  148.2404  138.9662  154.9083 H   0  0  0  0  0  0  0  0  0  0  0  0
  148.8180  139.0749  153.2318 H   0  0  0  0  0  0  0  0  0  0  0  0
  148.6857  140.5412  154.2217 H   0  0  0  0  0  0  0  0  0  0  0  0
  149.7963  132.5550  152.4265 H   0  0  0  0  0  0  0  0  0  0  0  0
  147.3855  133.3483  154.1168 H   0  0  0  0  0  0  0  0  0  0  0  0
  148.0280  134.2410  152.7567 H   0  0  0  0  0  0  0  0  0  0  0  0
  146.0439  132.8914  152.1008 H   0  0  0  0  0  0  0  0  0  0  0  0
  147.4634  132.3970  151.2004 H   0  0  0  0  0  0  0  0  0  0  0  0
  147.8709  129.3742  153.1252 H   0  0  0  0  0  0  0  0  0  0  0  0
  148.5471  130.3105  151.8070 H   0  0  0  0  0  0  0  0  0  0  0  0
  149.9529  130.5354  153.8423 H   0  0  0  0  0  0  0  0  0  0  0  0
  148.5748  131.0546  154.7833 H   0  0  0  0  0  0  0  0  0  0  0  0
  1  2  1  0  0  0  0
  1 19  1  0  0  0  0
  1 20  1  0  0  0  0
  1 21  1  0  0  0  0
  2  3  1  0  0  0  0
  2 13  1  0  0  0  0
  2 22  1  0  0  0  0
  3  4  1  0  0  0  0
  3 23  1  0  0  0  0
  4  5  2  0  0  0  0
  4  6  1  0  0  0  0
  6  7  1  0  0  0  0
  6 24  1  0  0  0  0
  7 11  1  0  0  0  0
  7  8  2  0  0  0  0
  8  9  1  0  0  0  0
  8 25  1  0  0  0  0
  9 10  2  0  0  0  0
  9 26  1  0  0  0  0
 10 11  1  0  0  0  0
 11 12  1  0  0  0  0
 12 27  1  0  0  0  0
 12 28  1  0  0  0  0
 12 29  1  0  0  0  0
 13 18  1  0  0  0  0
 13 14  1  0  0  0  0
 13 30  1  0  0  0  0
 14 15  1  0  0  0  0
 14 31  1  0  0  0  0
 14 32  1  0  0  0  0
 15 16  1  0  0  0  0
 15 33  1  0  0  0  0
 15 34  1  0  0  0  0
 16 17  1  0  0  0  0
 17 18  1  0  0  0  0
 17 35  1  0  0  0  0
 17 36  1  0  0  0  0
 18 37  1  0  0  0  0
 18 38  1  0  0  0  0
M  END
> <s_m_source_file>
AV-unprocessed.smi

> <i_m_source_file_index>
2249

> <i_lp_mmshare_version>
43012

> <i_f3d_flags>
0

> <s_epik_input>
W0NIMl0xW0NIMl1PW0NIMl1bQ0gyXVtDSF0xW0NASF0oW0NIM10pW05IXUMoPU8pW05IXWMyW2NIXVtjSF1ubjJbQ0gzXQ==

> <s_epik_cmdline>
J2VwaWtfcHl0aG9uJywgJy1waCcsICc3LjAnLCAnLXRuJywgJzgnLCAnLW1hJywgJzIwMCcsICctbWV0YWxfYmluZGluZycsICctaW1hZScsICc8aW5maWxlLm1hZT4nLCAnLW9tYWUnLCAnPG91dGZpbGUubWFlPic=

> <r_lp_tautomer_probability>
1

> <r_epik_Ionization_Penalty>
4.67687e-05

> <r_epik_Ionization_Penalty_Charging>
0

> <r_epik_Ionization_Penalty_Neutral>
4.67687e-05

> <r_epik_State_Penalty>
-0

> <r_epik_Charging_Adjusted_Penalty>
0

> <i_epik_Tot_Q>
0

> <i_epik_Tot_abs_Q>
0

> <r_epik_Metal_State_Penalty>
-0

> <b_epik_Metal_Only>
0

> <s_lp_Force_Field>
OPLS_2005

> <r_lp_Energy>
12.7763

> <b_lp_Chiralities_Consistent>
1

> <s_lp_Variant>
AV-unprocessed.smi:2249-1

> <Gold.Version>
5.8.1

> <Gold.Id.Protein>
6NUR|6NUR_protein|mol2

> <Gold.PLP.Fitness>
43.2728

> <Gold.PLP.PLP>
-32.4696

> <Gold.PLP.part.hbond>
-4.7544

> <Gold.PLP.part.metal>
0.0000

> <Gold.PLP.part.buried>
-0.7235

> <Gold.PLP.part.nonpolar>
-27.7020

> <Gold.PLP.part.repulsive>
0.3761

> <Gold.PLP.ligand.clash>
0.0000

> <Gold.PLP.ligand.torsion>
0.4584

> <Gold.PLP.Chemscore.Hbond>
3.9000

> <Gold.PLP.Chemscore.CHOScore>
0.0000

> <Gold.PLP.Chemscore.Metal>
0.0000

> <Gold.Chemscore.Hbonds>
donor molecule, donor type, donor heavy atom, donor atom, acceptor molecule, acceptor atom, score
      L1  H     3    23       P1  7948  0.50
      L1  H     6    24       P1  7948  0.96
      P1  H  7989  7998       L1    10  0.51
      P1  H 10752 10764       L1     5  1.00

> <Gold.PLP.Chemscore.Internal.Correction>
0.0200

> <Gold.Rescore>
     Score         DG    S(hbond)    S(metal)    S(lipo)     H(rot)  DE(clash)    DE(int)     intcor
     13.24     -15.33       1.91        0.00      57.08       1.26       0.38       1.72       ----

> <Gold.Chemscore.Fitness>
13.2351

> <Gold.Chemscore.DG>
-15.3290

> <Gold.Chemscore.ZeroCoef>
-5.4800

> <Gold.Chemscore.Hbond>
1.9142

> <Gold.Chemscore.Metal>
0.0000

> <Gold.Chemscore.Lipo>
57.0760

> <Gold.Chemscore.Internal_Hbond>
0.0000

> <Gold.Chemscore.DEClash>
0.3789

> <Gold.Chemscore.DEInternal>
1.7150

> <Gold.Chemscore.Rot>
1.2588

> <Gold.Chemscore.Internal.Correction>
   9.000000E+99

> <Gold.Chemscore.Hbonds>
donor molecule, donor type, donor heavy atom, donor atom, acceptor molecule, acceptor atom, score
      L1  H     3    23       P1  7948  0.02
      L1  H     6    24       P1  7948  0.40
      P1  H  7989  7998       L1    10  0.01
      P1  H 10752 10764       L1     5  0.30

> <Gold.Chemscore.Hbond.Weighted>
-6.3935

> <Gold.Chemscore.Metal.Weighted>
-0.0000

> <Gold.Chemscore.Lipo.Weighted>
-6.6779

> <Gold.Chemscore.Internal_Hbond.Weighted>
0.0000

> <Gold.Chemscore.DEClash.Weighted>
0.3789

> <Gold.Chemscore.DEInternal.Weighted>
1.7150

> <Gold.Chemscore.Rot.Weighted>
3.2224

> <Gold.Chemscore.Internal.Correction.Weighted>
   9.000000E+99

> <Gold.Protein.RotatedTorsions>
[ 6907 6896 6895 6894 ] final  119.93 input  -60.11 | X-H torsion
[ 7974 7965 7964 7962 ] final    3.27 input  175.53 | X-H torsion
[ 8008 7997 7996 7995 ] final   36.00 input   59.86 | X-H torsion
[ 10167 10162 10161 10158 ] final  -82.80 input  -65.29 | X-H torsion
[ 10718 10713 10712 10709 ] final  -85.99 input   66.30 | X-H torsion
[ 10763 10752 10751 10750 ] final  -35.28 input  -60.55 | X-H torsion
[ 11005 11000 10999 10996 ] final   54.18 input  -57.11 | X-H torsion

> <Gold.Protein.ActiveResidues>
 VAL166  LYS551  ARG553  GLY616  TRP617  ASP618  TYR619  PRO620  LYS621  CYS622 
 ASP623  PHE694  ASN695  SER759  ASP760  ASP761  ALA762  ILE779  LEU786  VAL792 
 PHE793  MET794  SER795  GLU796  ALA797  LYS798  CYS799  TRP800  GLU811  SER814 

> <Gold.Protein.RotatedAtoms>
  152.4436  133.7494  159.6685 H   0  0  0  0  0  0  0  0  0  0  0  0  # atno 6907 bound_to 6896
  150.8331  133.8047  159.3096 H   0  0  0  0  0  0  0  0  0  0  0  0  # atno 6908 bound_to 6896
  151.5695  135.1065  160.0043 H   0  0  0  0  0  0  0  0  0  0  0  0  # atno 6909 bound_to 6896
  146.2445  140.0710  142.8362 H   0  0  0  0  0  0  0  0  0  0  0  0  # atno 7974 bound_to 7965
  155.1803  140.3299  155.4376 H   0  0  0  0  0  0  0  0  0  0  0  0  # atno 8008 bound_to 7997
  156.2479  140.1928  156.6851 H   0  0  0  0  0  0  0  0  0  0  0  0  # atno 8009 bound_to 7997
  154.6276  140.0587  156.9679 H   0  0  0  0  0  0  0  0  0  0  0  0  # atno 8010 bound_to 7997
  140.4286  143.2557  151.8790 H   0  0  0  0  0  0  0  0  0  0  0  0  # atno 10167 bound_to 10162
  155.9992  130.4750  150.4646 H   0  0  0  0  0  0  0  0  0  0  0  0  # atno 10718 bound_to 10713
  153.8606  135.6840  153.4783 H   0  0  0  0  0  0  0  0  0  0  0  0  # atno 10763 bound_to 10752
  153.1344  135.4684  154.9397 H   0  0  0  0  0  0  0  0  0  0  0  0  # atno 10764 bound_to 10752
  154.7760  135.3253  154.8039 H   0  0  0  0  0  0  0  0  0  0  0  0  # atno 10765 bound_to 10752
  140.0707  134.5474  155.9050 H   0  0  0  0  0  0  0  0  0  0  0  0  # atno 11005 bound_to 11000
  145.0816  140.9224  143.4822 LP  0  0  0  0  0  0  0  0  0  0  0  0  # atno 17320 bound_to 7965
  145.0864  139.2921  143.5757 LP  0  0  0  0  0  0  0  0  0  0  0  0  # atno 17321 bound_to 7965
  139.4784  144.5359  151.8599 LP  0  0  0  0  0  0  0  0  0  0  0  0  # atno 17342 bound_to 10162
  140.4453  144.1931  150.5893 LP  0  0  0  0  0  0  0  0  0  0  0  0  # atno 17343 bound_to 10162
  157.2667  131.0578  151.2286 LP  0  0  0  0  0  0  0  0  0  0  0  0  # atno 17370 bound_to 10713
  157.3381  130.7019  149.6364 LP  0  0  0  0  0  0  0  0  0  0  0  0  # atno 17371 bound_to 10713
  141.2010  133.6616  156.5930 LP  0  0  0  0  0  0  0  0  0  0  0  0  # atno 17394 bound_to 11000
  140.3632  134.7670  157.4548 LP  0  0  0  0  0  0  0  0  0  0  0  0  # atno 17395 bound_to 11000

$$$$
