AV-unprocessed.smi:1824|AV-procd|sdf|7407|dock6
  -GOLD-   22720 9 83D 1   1.00000     0.00000
 Structure written by MMmdl.
 45 47  0  0  0  0  0  0  0  0  2 V2000
  147.7032  135.6303  157.4340 C   0  0  0  0  0  0  0  0  0  0  0  0
  149.2036  135.5629  157.7662 C   0  0  2  0  0  0  0  0  0  0  0  0
  150.0513  136.5723  156.9658 C   0  0  0  0  0  0  0  0  0  0  0  0
  150.2219  136.1838  155.5665 N   0  0  0  0  0  0  0  0  0  0  0  0
  151.0541  137.1246  154.8142 C   0  0  0  0  0  0  0  0  0  0  0  0
  150.6950  138.6141  154.9865 C   0  0  2  0  0  0  0  0  0  0  0  0
  151.0442  139.2963  153.7981 O   0  0  0  0  0  0  0  0  0  0  0  0
  151.4445  139.2393  156.1793 C   0  0  0  0  0  0  0  0  0  0  0  0
  151.0452  140.6299  156.4417 N   0  0  0  0  0  0  0  0  0  0  0  0
  150.2252  141.4465  155.7262 C   0  0  0  0  0  0  0  0  0  0  0  0
  150.1653  142.6419  156.3757 N   0  3  0  0  0  0  0  0  0  0  0  0
  150.9608  142.5900  157.5224 C   0  0  0  0  0  0  0  0  0  0  0  0
  151.2198  143.5497  158.4956 C   0  0  0  0  0  0  0  0  0  0  0  0
  152.0870  143.1747  159.5427 C   0  0  0  0  0  0  0  0  0  0  0  0
  152.3736  144.0712  160.5161 F   0  0  0  0  0  0  0  0  0  0  0  0
  152.6613  141.8869  159.5942 C   0  0  0  0  0  0  0  0  0  0  0  0
  153.4909  141.5685  160.6159 F   0  0  0  0  0  0  0  0  0  0  0  0
  152.3896  140.9219  158.6021 C   0  0  0  0  0  0  0  0  0  0  0  0
  151.5303  141.3002  157.5711 C   0  0  0  0  0  0  0  0  0  0  0  0
  150.7846  134.8400  155.5173 C   0  0  0  0  0  0  0  0  0  0  0  0
  149.9042  133.8178  156.2581 C   0  0  1  0  0  0  0  0  0  0  0  0
  150.5348  132.4214  156.2783 C   0  0  0  0  0  0  0  0  0  0  0  0
  149.7225  134.2416  157.6077 O   0  0  0  0  0  0  0  0  0  0  0  0
  147.2983  136.6148  157.6692 H   0  0  0  0  0  0  0  0  0  0  0  0
  147.1437  134.8959  158.0136 H   0  0  0  0  0  0  0  0  0  0  0  0
  147.5075  135.4424  156.3786 H   0  0  0  0  0  0  0  0  0  0  0  0
  149.3053  135.8061  158.8241 H   0  0  0  0  0  0  0  0  0  0  0  0
  149.5859  137.5540  157.0407 H   0  0  0  0  0  0  0  0  0  0  0  0
  151.0310  136.6598  157.4380 H   0  0  0  0  0  0  0  0  0  0  0  0
  152.0989  136.9727  155.0894 H   0  0  0  0  0  0  0  0  0  0  0  0
  150.9936  136.8875  153.7508 H   0  0  0  0  0  0  0  0  0  0  0  0
  149.6258  138.7393  155.1526 H   0  0  0  0  0  0  0  0  0  0  0  0
  151.7227  138.8025  153.3623 H   0  0  0  0  0  0  0  0  0  0  0  0
  151.2323  138.6715  157.0862 H   0  0  0  0  0  0  0  0  0  0  0  0
  152.5248  139.1939  156.0386 H   0  0  0  0  0  0  0  0  0  0  0  0
  149.7137  141.1917  154.8090 H   0  0  0  0  0  0  0  0  0  0  0  0
  150.7837  144.5372  158.4593 H   0  0  0  0  0  0  0  0  0  0  0  0
  152.8404  139.9420  158.6488 H   0  0  0  0  0  0  0  0  0  0  0  0
  150.8977  134.5259  154.4790 H   0  0  0  0  0  0  0  0  0  0  0  0
  151.7857  134.8433  155.9521 H   0  0  0  0  0  0  0  0  0  0  0  0
  148.9336  133.7483  155.7660 H   0  0  0  0  0  0  0  0  0  0  0  0
  150.6870  132.0447  155.2665 H   0  0  0  0  0  0  0  0  0  0  0  0
  149.8944  131.7126  156.8037 H   0  0  0  0  0  0  0  0  0  0  0  0
  151.5020  132.4326  156.7813 H   0  0  0  0  0  0  0  0  0  0  0  0
  149.6213  143.4335  156.0566 H   0  0  0  0  0  0  0  0  0  0  0  0
  1  2  1  0  0  0  0
  1 24  1  0  0  0  0
  1 25  1  0  0  0  0
  1 26  1  0  0  0  0
  2 23  1  0  0  0  0
  2  3  1  0  0  0  0
  2 27  1  0  0  0  0
  3  4  1  0  0  0  0
  3 28  1  0  0  0  0
  3 29  1  0  0  0  0
  4  5  1  0  0  0  0
  4 20  1  0  0  0  0
  5  6  1  0  0  0  0
  5 30  1  0  0  0  0
  5 31  1  0  0  0  0
  6  7  1  0  0  0  0
  6  8  1  0  0  0  0
  6 32  1  0  0  0  0
  7 33  1  0  0  0  0
  8  9  1  0  0  0  0
  8 34  1  0  0  0  0
  8 35  1  0  0  0  0
  9 19  1  0  0  0  0
  9 10  1  0  0  0  0
 10 11  2  0  0  0  0
 10 36  1  0  0  0  0
 11 12  1  0  0  0  0
 11 45  1  0  0  0  0
 12 19  2  0  0  0  0
 12 13  1  0  0  0  0
 13 14  2  0  0  0  0
 13 37  1  0  0  0  0
 14 15  1  0  0  0  0
 14 16  1  0  0  0  0
 16 17  1  0  0  0  0
 16 18  2  0  0  0  0
 18 19  1  0  0  0  0
 18 38  1  0  0  0  0
 20 21  1  0  0  0  0
 20 39  1  0  0  0  0
 20 40  1  0  0  0  0
 21 22  1  0  0  0  0
 21 23  1  0  0  0  0
 21 41  1  0  0  0  0
 22 42  1  0  0  0  0
 22 43  1  0  0  0  0
 22 44  1  0  0  0  0
M  CHG  1  11   1
M  END
> <s_m_source_file>
AV-unprocessed.smi

> <i_m_source_file_index>
1824

> <i_lp_mmshare_version>
43012

> <i_f3d_flags>
0

> <s_epik_input>
W0NIM11bQ0BASF0xW0NIMl1OKFtDSDJdW0NASF0oTzEpW0NIM10pW0NIMl1bQ0BIXShbT0hdKVtDSDJdbihbY0hdbjIpYyhjMjMpW2NIXWMoRiljKEYpW2NIXTM=

> <s_epik_cmdline>
J2VwaWtfcHl0aG9uJywgJy1waCcsICc3LjAnLCAnLXRuJywgJzgnLCAnLW1hJywgJzIwMCcsICctbWV0YWxfYmluZGluZycsICctaW1hZScsICc8aW5maWxlLm1hZT4nLCAnLW9tYWUnLCAnPG91dGZpbGUubWFlPic=

> <r_epik_Ionization_Penalty>
2.58709

> <r_epik_Ionization_Penalty_Charging>
2.37273

> <r_epik_Ionization_Penalty_Neutral>
0.214359

> <r_epik_State_Penalty>
2.71799

> <r_epik_Charging_Adjusted_Penalty>
5.09071

> <i_epik_Tot_Q>
1

> <i_epik_Tot_abs_Q>
1

> <r_epik_Metal_State_Penalty>
6.80217

> <b_epik_Metal_Only>
0

> <s_lp_Force_Field>
OPLS_2005

> <r_lp_Energy>
35.5782

> <b_lp_Chiralities_Consistent>
1

> <s_lp_Variant>
AV-unprocessed.smi:1824-15

> <Gold.Version>
5.8.1

> <Gold.Id.Protein>
6NUR|6NUR_protein|mol2

> <Gold.PLP.Fitness>
52.3865

> <Gold.PLP.PLP>
-41.3053

> <Gold.PLP.part.hbond>
-3.8268

> <Gold.PLP.part.metal>
0.0000

> <Gold.PLP.part.buried>
-2.3137

> <Gold.PLP.part.nonpolar>
-35.4498

> <Gold.PLP.part.repulsive>
0.1912

> <Gold.PLP.ligand.clash>
0.0000

> <Gold.PLP.ligand.torsion>
0.4693

> <Gold.PLP.Chemscore.Hbond>
4.0000

> <Gold.PLP.Chemscore.CHOScore>
0.0000

> <Gold.PLP.Chemscore.Metal>
0.0000

> <Gold.Chemscore.Hbonds>
donor molecule, donor type, donor heavy atom, donor atom, acceptor molecule, acceptor atom, score
      L1  H    11    45       P1  8028  2.00
      P1  H  6896  6909       L1    23  1.00
      P1  H  7989  7998       L1     7  0.90

> <Gold.PLP.Chemscore.Internal.Correction>
0.0197

> <Gold.Rescore>
     Score         DG    S(hbond)    S(metal)    S(lipo)     H(rot)  DE(clash)    DE(int)     intcor
     17.63     -19.80       2.71        0.00      95.73       2.32       1.55       0.62       ----

> <Gold.Chemscore.Fitness>
17.6269

> <Gold.Chemscore.DG>
-19.8039

> <Gold.Chemscore.ZeroCoef>
-5.4800

> <Gold.Chemscore.Hbond>
2.7140

> <Gold.Chemscore.Metal>
0.0000

> <Gold.Chemscore.Lipo>
95.7330

> <Gold.Chemscore.Internal_Hbond>
0.0000

> <Gold.Chemscore.DEClash>
1.5534

> <Gold.Chemscore.DEInternal>
0.6236

> <Gold.Chemscore.Rot>
2.3210

> <Gold.Chemscore.Internal.Correction>
   9.000000E+99

> <Gold.Chemscore.Hbonds>
donor molecule, donor type, donor heavy atom, donor atom, acceptor molecule, acceptor atom, score
      L1  H    11    45       P1  8028  0.93
      P1  H  6896  6909       L1    23  0.24
      P1  H  7989  7998       L1     7  0.17

> <Gold.Chemscore.Hbond.Weighted>
-9.0648

> <Gold.Chemscore.Metal.Weighted>
-0.0000

> <Gold.Chemscore.Lipo.Weighted>
-11.2008

> <Gold.Chemscore.Internal_Hbond.Weighted>
0.0000

> <Gold.Chemscore.DEClash.Weighted>
1.5534

> <Gold.Chemscore.DEInternal.Weighted>
0.6236

> <Gold.Chemscore.Rot.Weighted>
5.9416

> <Gold.Chemscore.Internal.Correction.Weighted>
   9.000000E+99

> <Gold.Protein.RotatedTorsions>
[ 6907 6896 6895 6894 ] final   16.94 input  -60.11 | X-H torsion
[ 7974 7965 7964 7962 ] final  -68.96 input  175.53 | X-H torsion
[ 8008 7997 7996 7995 ] final  151.49 input   59.86 | X-H torsion
[ 10167 10162 10161 10158 ] final   24.52 input  -65.29 | X-H torsion
[ 10718 10713 10712 10709 ] final  141.43 input   66.30 | X-H torsion
[ 10763 10752 10751 10750 ] final    3.06 input  -60.55 | X-H torsion
[ 11005 11000 10999 10996 ] final   87.73 input  -57.11 | X-H torsion

> <Gold.Protein.ActiveResidues>
 VAL166  LYS551  ARG553  GLY616  TRP617  ASP618  TYR619  PRO620  LYS621  CYS622 
 ASP623  PHE694  ASN695  SER759  ASP760  ASP761  ALA762  ILE779  LEU786  VAL792 
 PHE793  MET794  SER795  GLU796  ALA797  LYS798  CYS799  TRP800  GLU811  SER814 

> <Gold.Protein.RotatedAtoms>
  151.8418  135.0587  160.0448 H   0  0  0  0  0  0  0  0  0  0  0  0  # atno 6907 bound_to 6896
  152.2803  133.5459  159.5502 H   0  0  0  0  0  0  0  0  0  0  0  0  # atno 6908 bound_to 6896
  150.7187  134.0490  159.3834 H   0  0  0  0  0  0  0  0  0  0  0  0  # atno 6909 bound_to 6896
  145.7099  140.9082  143.0686 H   0  0  0  0  0  0  0  0  0  0  0  0  # atno 7974 bound_to 7965
  156.2671  140.2046  156.6184 H   0  0  0  0  0  0  0  0  0  0  0  0  # atno 8008 bound_to 7997
  154.6776  140.0543  157.0256 H   0  0  0  0  0  0  0  0  0  0  0  0  # atno 8009 bound_to 7997
  155.1047  140.3209  155.4540 H   0  0  0  0  0  0  0  0  0  0  0  0  # atno 8010 bound_to 7997
  140.5181  144.0048  150.6403 H   0  0  0  0  0  0  0  0  0  0  0  0  # atno 10167 bound_to 10162
  157.3921  131.1006  151.0636 H   0  0  0  0  0  0  0  0  0  0  0  0  # atno 10718 bound_to 10713
  153.2879  135.6946  153.7321 H   0  0  0  0  0  0  0  0  0  0  0  0  # atno 10763 bound_to 10752
  153.6284  135.3414  155.3034 H   0  0  0  0  0  0  0  0  0  0  0  0  # atno 10764 bound_to 10752
  154.8515  135.4403  154.1952 H   0  0  0  0  0  0  0  0  0  0  0  0  # atno 10765 bound_to 10752
  139.8912  134.8442  156.2901 H   0  0  0  0  0  0  0  0  0  0  0  0  # atno 11005 bound_to 11000
  144.6945  139.9060  143.7461 LP  0  0  0  0  0  0  0  0  0  0  0  0  # atno 17320 bound_to 7965
  146.0722  139.3711  143.0516 LP  0  0  0  0  0  0  0  0  0  0  0  0  # atno 17321 bound_to 7965
  140.3390  143.3031  152.0608 LP  0  0  0  0  0  0  0  0  0  0  0  0  # atno 17342 bound_to 10162
  139.4915  144.6456  151.6785 LP  0  0  0  0  0  0  0  0  0  0  0  0  # atno 17343 bound_to 10162
  157.1666  130.6249  149.5627 LP  0  0  0  0  0  0  0  0  0  0  0  0  # atno 17370 bound_to 10713
  155.9801  130.4799  150.6753 LP  0  0  0  0  0  0  0  0  0  0  0  0  # atno 17371 bound_to 10713
  140.9981  133.7168  156.0918 LP  0  0  0  0  0  0  0  0  0  0  0  0  # atno 17394 bound_to 11000
  140.7534  134.4019  157.5537 LP  0  0  0  0  0  0  0  0  0  0  0  0  # atno 17395 bound_to 11000

$$$$
