AV-unprocessed.smi:2074|AV-procd|sdf|8452|dock6
  -GOLD-   2272011143D 1   1.00000     0.00000
 Structure written by MMmdl.
 43 44  0  0  0  0  0  0  0  0  1 V2000
  145.4877  142.6449  153.6643 C   0  0  0  0  0  0  0  0  0  0  0  0
  146.0638  141.9084  154.8391 C   0  0  0  0  0  0  0  0  0  0  0  0
  145.3568  141.8042  155.9516 N   0  0  0  0  0  0  0  0  0  0  0  0
  146.1568  141.0891  156.8478 O   0  0  0  0  0  0  0  0  0  0  0  0
  147.3291  140.7898  156.2327 C   0  0  0  0  0  0  0  0  0  0  0  0
  148.3301  140.0294  157.0344 C   0  0  0  0  0  0  0  0  0  0  0  0
  147.3357  141.2757  154.9543 C   0  0  0  0  0  0  0  0  0  0  0  0
  148.4261  141.1764  153.9163 C   0  0  0  0  0  0  0  0  0  0  0  0
  149.7888  141.0072  154.5932 C   0  0  0  0  0  0  0  0  0  0  0  0
  150.5224  140.0671  154.2857 O   0  0  0  0  0  0  0  0  0  0  0  0
  150.1100  141.9173  155.5256 N   0  0  0  0  0  0  0  0  0  0  0  0
  151.3208  141.8882  156.3416 C   0  0  0  0  0  0  0  0  0  0  0  0
  151.3464  143.0095  157.4205 C   0  0  2  0  0  0  0  0  0  0  0  0
  151.9659  144.2847  156.7938 C   0  0  0  0  0  0  0  0  0  0  0  0
  152.0211  142.6083  158.6767 N   0  0  0  0  0  0  0  0  0  0  0  0
  152.1851  143.7249  159.6152 C   0  0  0  0  0  0  0  0  0  0  0  0
  152.9166  143.3172  160.9059 C   0  0  0  0  0  0  0  0  0  0  0  0
  154.1843  142.7620  160.5843 O   0  0  0  0  0  0  0  0  0  0  0  0
  154.0695  141.6277  159.7368 C   0  0  0  0  0  0  0  0  0  0  0  0
  153.3460  142.0232  158.4380 C   0  0  0  0  0  0  0  0  0  0  0  0
  145.7947  142.1862  152.7244 H   0  0  0  0  0  0  0  0  0  0  0  0
  145.8254  143.6814  153.6546 H   0  0  0  0  0  0  0  0  0  0  0  0
  144.3974  142.6501  153.6877 H   0  0  0  0  0  0  0  0  0  0  0  0
  149.3365  140.4076  156.8546 H   0  0  0  0  0  0  0  0  0  0  0  0
  148.3129  138.9723  156.7697 H   0  0  0  0  0  0  0  0  0  0  0  0
  148.1249  140.1152  158.1018 H   0  0  0  0  0  0  0  0  0  0  0  0
  148.2679  140.3271  153.2513 H   0  0  0  0  0  0  0  0  0  0  0  0
  148.4348  142.0613  153.2784 H   0  0  0  0  0  0  0  0  0  0  0  0
  149.4533  142.6614  155.7108 H   0  0  0  0  0  0  0  0  0  0  0  0
  151.3865  140.8919  156.7757 H   0  0  0  0  0  0  0  0  0  0  0  0
  152.1817  141.9896  155.6801 H   0  0  0  0  0  0  0  0  0  0  0  0
  150.3084  143.2450  157.6612 H   0  0  0  0  0  0  0  0  0  0  0  0
  151.5322  144.5296  155.8255 H   0  0  0  0  0  0  0  0  0  0  0  0
  153.0405  144.1697  156.6479 H   0  0  0  0  0  0  0  0  0  0  0  0
  151.8009  145.1668  157.4113 H   0  0  0  0  0  0  0  0  0  0  0  0
  152.7292  144.5380  159.1320 H   0  0  0  0  0  0  0  0  0  0  0  0
  151.2189  144.1237  159.9162 H   0  0  0  0  0  0  0  0  0  0  0  0
  153.0616  144.1854  161.5488 H   0  0  0  0  0  0  0  0  0  0  0  0
  152.3265  142.5947  161.4720 H   0  0  0  0  0  0  0  0  0  0  0  0
  155.0671  141.2493  159.5136 H   0  0  0  0  0  0  0  0  0  0  0  0
  153.5323  140.8298  160.2519 H   0  0  0  0  0  0  0  0  0  0  0  0
  153.2647  141.1225  157.8321 H   0  0  0  0  0  0  0  0  0  0  0  0
  153.9653  142.7264  157.8789 H   0  0  0  0  0  0  0  0  0  0  0  0
  1  2  1  0  0  0  0
  1 21  1  0  0  0  0
  1 22  1  0  0  0  0
  1 23  1  0  0  0  0
  2  7  1  0  0  0  0
  2  3  2  0  0  0  0
  3  4  1  0  0  0  0
  4  5  1  0  0  0  0
  5  6  1  0  0  0  0
  5  7  2  0  0  0  0
  6 24  1  0  0  0  0
  6 25  1  0  0  0  0
  6 26  1  0  0  0  0
  7  8  1  0  0  0  0
  8  9  1  0  0  0  0
  8 27  1  0  0  0  0
  8 28  1  0  0  0  0
  9 10  2  0  0  0  0
  9 11  1  0  0  0  0
 11 12  1  0  0  0  0
 11 29  1  0  0  0  0
 12 13  1  0  0  0  0
 12 30  1  0  0  0  0
 12 31  1  0  0  0  0
 13 14  1  0  0  0  0
 13 15  1  0  0  0  0
 13 32  1  0  0  0  0
 14 33  1  0  0  0  0
 14 34  1  0  0  0  0
 14 35  1  0  0  0  0
 15 20  1  0  0  0  0
 15 16  1  0  0  0  0
 16 17  1  0  0  0  0
 16 36  1  0  0  0  0
 16 37  1  0  0  0  0
 17 18  1  0  0  0  0
 17 38  1  0  0  0  0
 17 39  1  0  0  0  0
 18 19  1  0  0  0  0
 19 20  1  0  0  0  0
 19 40  1  0  0  0  0
 19 41  1  0  0  0  0
 20 42  1  0  0  0  0
 20 43  1  0  0  0  0
M  END
> <s_m_source_file>
AV-unprocessed.smi

> <i_m_source_file_index>
2074

> <i_lp_mmshare_version>
43012

> <i_f3d_flags>
0

> <s_epik_input>
W0NIM11jMW5vYyhbQ0gzXSljMVtDSDJdQyg9TylbTkhdW0NIMl1bQ0BIXShbQ0gzXSlOMltDSDJdW0NIMl1PW0NIMl1bQ0gyXTI=

> <s_epik_cmdline>
J2VwaWtfcHl0aG9uJywgJy1waCcsICc3LjAnLCAnLXRuJywgJzgnLCAnLW1hJywgJzIwMCcsICctbWV0YWxfYmluZGluZycsICctaW1hZScsICc8aW5maWxlLm1hZT4nLCAnLW9tYWUnLCAnPG91dGZpbGUubWFlPic=

> <r_epik_Ionization_Penalty>
0.234179

> <r_epik_Ionization_Penalty_Charging>
0

> <r_epik_Ionization_Penalty_Neutral>
0.234179

> <r_epik_State_Penalty>
0.224936

> <r_epik_Charging_Adjusted_Penalty>
0.224936

> <i_epik_Tot_Q>
0

> <i_epik_Tot_abs_Q>
0

> <r_epik_Metal_State_Penalty>
0.224936

> <b_epik_Metal_Only>
0

> <s_lp_Force_Field>
OPLS_2005

> <r_lp_Energy>
22.7236

> <b_lp_Chiralities_Consistent>
1

> <s_lp_Variant>
AV-unprocessed.smi:2074-1

> <Gold.Version>
5.8.1

> <Gold.Id.Protein>
6NUR|6NUR_protein|mol2

> <Gold.PLP.Fitness>
48.1445

> <Gold.PLP.PLP>
-43.9173

> <Gold.PLP.part.hbond>
-2.0000

> <Gold.PLP.part.metal>
0.0000

> <Gold.PLP.part.buried>
-4.7535

> <Gold.PLP.part.nonpolar>
-36.2526

> <Gold.PLP.part.repulsive>
0.4563

> <Gold.PLP.ligand.clash>
0.0000

> <Gold.PLP.ligand.torsion>
0.9109

> <Gold.PLP.Chemscore.Hbond>
2.0000

> <Gold.PLP.Chemscore.CHOScore>
0.0000

> <Gold.PLP.Chemscore.Metal>
0.0000

> <Gold.Chemscore.Hbonds>
donor molecule, donor type, donor heavy atom, donor atom, acceptor molecule, acceptor atom, score
      L1  H    11    29       P1  8028  0.75
      P1  H  7989  7998       L1    10  0.95

> <Gold.PLP.Chemscore.Internal.Correction>
0.0490

> <Gold.Rescore>
     Score         DG    S(hbond)    S(metal)    S(lipo)     H(rot)  DE(clash)    DE(int)     intcor
     15.17     -17.85       1.45        0.00     101.91       1.72       0.36       2.32       ----

> <Gold.Chemscore.Fitness>
15.1681

> <Gold.Chemscore.DG>
-17.8502

> <Gold.Chemscore.ZeroCoef>
-5.4800

> <Gold.Chemscore.Hbond>
1.4518

> <Gold.Chemscore.Metal>
0.0000

> <Gold.Chemscore.Lipo>
101.9068

> <Gold.Chemscore.Internal_Hbond>
0.0000

> <Gold.Chemscore.DEClash>
0.3624

> <Gold.Chemscore.DEInternal>
2.3198

> <Gold.Chemscore.Rot>
1.7195

> <Gold.Chemscore.Internal.Correction>
   9.000000E+99

> <Gold.Chemscore.Hbonds>
donor molecule, donor type, donor heavy atom, donor atom, acceptor molecule, acceptor atom, score
      L1  H    11    29       P1  8028  0.69
      P1  H  7989  7998       L1    10  0.21

> <Gold.Chemscore.Hbond.Weighted>
-4.8489

> <Gold.Chemscore.Metal.Weighted>
-0.0000

> <Gold.Chemscore.Lipo.Weighted>
-11.9231

> <Gold.Chemscore.Internal_Hbond.Weighted>
0.0000

> <Gold.Chemscore.DEClash.Weighted>
0.3624

> <Gold.Chemscore.DEInternal.Weighted>
2.3198

> <Gold.Chemscore.Rot.Weighted>
4.4018

> <Gold.Chemscore.Internal.Correction.Weighted>
   9.000000E+99

> <Gold.Protein.RotatedTorsions>
[ 6907 6896 6895 6894 ] final  -35.59 input  -60.11 | X-H torsion
[ 7974 7965 7964 7962 ] final  138.02 input  175.53 | X-H torsion
[ 8008 7997 7996 7995 ] final -147.14 input   59.86 | X-H torsion
[ 10167 10162 10161 10158 ] final  -56.45 input  -65.29 | X-H torsion
[ 10718 10713 10712 10709 ] final   52.10 input   66.30 | X-H torsion
[ 10763 10752 10751 10750 ] final   74.29 input  -60.55 | X-H torsion
[ 11005 11000 10999 10996 ] final  -58.19 input  -57.11 | X-H torsion

> <Gold.Protein.ActiveResidues>
 VAL166  LYS551  ARG553  GLY616  TRP617  ASP618  TYR619  PRO620  LYS621  CYS622 
 ASP623  PHE694  ASN695  SER759  ASP760  ASP761  ALA762  ILE779  LEU786  VAL792 
 PHE793  MET794  SER795  GLU796  ALA797  LYS798  CYS799  TRP800  GLU811  SER814 

> <Gold.Protein.RotatedAtoms>
  151.0379  134.9586  159.8145 H   0  0  0  0  0  0  0  0  0  0  0  0  # atno 6907 bound_to 6896
  152.5358  134.2696  159.8976 H   0  0  0  0  0  0  0  0  0  0  0  0  # atno 6908 bound_to 6896
  151.2707  133.4214  159.2655 H   0  0  0  0  0  0  0  0  0  0  0  0  # atno 6909 bound_to 6896
  144.9412  139.4929  143.5571 H   0  0  0  0  0  0  0  0  0  0  0  0  # atno 7974 bound_to 7965
  155.5707  140.0634  157.2807 H   0  0  0  0  0  0  0  0  0  0  0  0  # atno 8008 bound_to 7997
  154.4362  140.1869  156.0922 H   0  0  0  0  0  0  0  0  0  0  0  0  # atno 8009 bound_to 7997
  156.0379  140.3299  155.7214 H   0  0  0  0  0  0  0  0  0  0  0  0  # atno 8010 bound_to 7997
  140.6316  143.2462  151.5226 H   0  0  0  0  0  0  0  0  0  0  0  0  # atno 10167 bound_to 10162
  157.5043  130.8459  149.8355 H   0  0  0  0  0  0  0  0  0  0  0  0  # atno 10718 bound_to 10713
  153.0577  135.5031  154.8020 H   0  0  0  0  0  0  0  0  0  0  0  0  # atno 10763 bound_to 10752
  154.6833  135.2972  154.9585 H   0  0  0  0  0  0  0  0  0  0  0  0  # atno 10764 bound_to 10752
  154.0363  135.6723  153.4838 H   0  0  0  0  0  0  0  0  0  0  0  0  # atno 10765 bound_to 10752
  141.1197  133.6612  156.4883 H   0  0  0  0  0  0  0  0  0  0  0  0  # atno 11005 bound_to 11000
  146.3286  139.8432  142.8886 LP  0  0  0  0  0  0  0  0  0  0  0  0  # atno 17320 bound_to 7965
  145.2988  141.0188  143.3620 LP  0  0  0  0  0  0  0  0  0  0  0  0  # atno 17321 bound_to 7965
  139.5530  144.2347  152.1563 LP  0  0  0  0  0  0  0  0  0  0  0  0  # atno 17342 bound_to 10162
  140.1593  144.5041  150.6642 LP  0  0  0  0  0  0  0  0  0  0  0  0  # atno 17343 bound_to 10162
  156.0249  130.3783  150.1853 LP  0  0  0  0  0  0  0  0  0  0  0  0  # atno 17370 bound_to 10713
  157.0043  130.9932  151.3382 LP  0  0  0  0  0  0  0  0  0  0  0  0  # atno 17371 bound_to 10713
  140.4544  134.6899  157.5055 LP  0  0  0  0  0  0  0  0  0  0  0  0  # atno 17394 bound_to 11000
  140.0145  134.6641  155.9331 LP  0  0  0  0  0  0  0  0  0  0  0  0  # atno 17395 bound_to 11000

$$$$
