AV-unprocessed.smi:1987|AV-procd|sdf|8057|dock9
  -GOLD-   2272010263D 1   1.00000     0.00000
 Structure written by MMmdl.
 37 39  0  0  0  0  0  0  0  0  2 V2000
  151.2983  136.0956  156.1438 O   0  0  0  0  0  0  0  0  0  0  0  0
  150.6342  136.2547  155.1203 C   0  0  0  0  0  0  0  0  0  0  0  0
  150.8978  137.4545  154.2119 C   0  0  0  0  0  0  0  0  0  0  0  0
  151.4724  138.5422  154.9823 N   0  0  0  0  0  0  0  0  0  0  0  0
  152.4951  138.5645  155.8395 C   0  0  0  0  0  0  0  0  0  0  0  0
  152.7304  139.7885  156.2872 N   0  0  0  0  0  0  0  0  0  0  0  0
  151.7657  140.5491  155.6485 N   0  0  0  0  0  0  0  0  0  0  0  0
  151.0168  139.8156  154.8721 N   0  0  0  0  0  0  0  0  0  0  0  0
  149.6956  135.3915  154.7031 N   0  0  0  0  0  0  0  0  0  0  0  0
  149.4361  134.0827  155.2900 C   0  0  0  0  0  0  0  0  0  0  0  0
  149.0610  133.0454  154.2120 C   0  0  1  0  0  0  0  0  0  0  0  0
  148.6354  131.6863  154.7632 C   0  0  0  0  0  0  0  0  0  0  0  0
  147.8069  131.0613  153.6320 C   0  0  0  0  0  0  0  0  0  0  0  0
  147.4237  132.1646  152.7197 N   0  3  1  0  0  0  0  0  0  0  0  0
  146.0025  132.1579  152.3142 C   0  0  0  0  0  0  0  0  0  0  0  0
  145.7780  131.6537  150.9091 C   0  0  0  0  0  0  0  0  0  0  0  0
  145.6882  133.1351  151.2067 C   0  0  0  0  0  0  0  0  0  0  0  0
  147.8634  133.4287  153.3410 C   0  0  0  0  0  0  0  0  0  0  0  0
  151.5772  137.1793  153.4035 H   0  0  0  0  0  0  0  0  0  0  0  0
  149.9675  137.7960  153.7561 H   0  0  0  0  0  0  0  0  0  0  0  0
  153.0727  137.6956  156.1193 H   0  0  0  0  0  0  0  0  0  0  0  0
  149.1877  135.6197  153.8601 H   0  0  0  0  0  0  0  0  0  0  0  0
  150.3047  133.7473  155.8588 H   0  0  0  0  0  0  0  0  0  0  0  0
  148.6204  134.1947  156.0048 H   0  0  0  0  0  0  0  0  0  0  0  0
  149.9184  132.8868  153.5558 H   0  0  0  0  0  0  0  0  0  0  0  0
  149.4837  131.0665  155.0549 H   0  0  0  0  0  0  0  0  0  0  0  0
  148.0048  131.8206  155.6431 H   0  0  0  0  0  0  0  0  0  0  0  0
  148.3979  130.3384  153.0690 H   0  0  0  0  0  0  0  0  0  0  0  0
  146.9380  130.5363  154.0322 H   0  0  0  0  0  0  0  0  0  0  0  0
  145.2736  131.9600  153.0984 H   0  0  0  0  0  0  0  0  0  0  0  0
  146.6399  131.3060  150.3422 H   0  0  0  0  0  0  0  0  0  0  0  0
  144.8464  131.1293  150.7066 H   0  0  0  0  0  0  0  0  0  0  0  0
  144.6979  133.5857  151.2010 H   0  0  0  0  0  0  0  0  0  0  0  0
  146.4904  133.7721  150.8378 H   0  0  0  0  0  0  0  0  0  0  0  0
  147.0631  133.8329  153.9636 H   0  0  0  0  0  0  0  0  0  0  0  0
  148.1129  134.1745  152.5851 H   0  0  0  0  0  0  0  0  0  0  0  0
  147.9792  132.0471  151.8845 H   0  0  0  0  0  0  0  0  0  0  0  0
  1  2  2  0  0  0  0
  2  3  1  0  0  0  0
  2  9  1  0  0  0  0
  3  4  1  0  0  0  0
  3 19  1  0  0  0  0
  3 20  1  0  0  0  0
  4  8  1  0  0  0  0
  4  5  1  0  0  0  0
  5  6  2  0  0  0  0
  5 21  1  0  0  0  0
  6  7  1  0  0  0  0
  7  8  2  0  0  0  0
  9 10  1  0  0  0  0
  9 22  1  0  0  0  0
 10 11  1  0  0  0  0
 10 23  1  0  0  0  0
 10 24  1  0  0  0  0
 11 18  1  0  0  0  0
 11 12  1  0  0  0  0
 11 25  1  0  0  0  0
 12 13  1  0  0  0  0
 12 26  1  0  0  0  0
 12 27  1  0  0  0  0
 13 14  1  0  0  0  0
 13 28  1  0  0  0  0
 13 29  1  0  0  0  0
 14 15  1  0  0  0  0
 14 18  1  0  0  0  0
 14 37  1  0  0  0  0
 15 17  1  0  0  0  0
 15 16  1  0  0  0  0
 15 30  1  0  0  0  0
 16 17  1  0  0  0  0
 16 31  1  0  0  0  0
 16 32  1  0  0  0  0
 17 33  1  0  0  0  0
 17 34  1  0  0  0  0
 18 35  1  0  0  0  0
 18 36  1  0  0  0  0
M  CHG  1  14   1
M  END
> <s_m_source_file>
AV-unprocessed.smi

> <i_m_source_file_index>
1987

> <i_lp_mmshare_version>
43012

> <i_f3d_flags>
0

> <s_epik_input>
bjFubltjSF1uMVtDSDJdQyg9TylbTkhdW0NIMl1bQ0BASF0yW0NIMl1bQ0gyXU4oW0NIMl0yKVtDSF0zW0NIMl1bQ0gyXTM=

> <s_epik_cmdline>
J2VwaWtfcHl0aG9uJywgJy1waCcsICc3LjAnLCAnLXRuJywgJzgnLCAnLW1hJywgJzIwMCcsICctbWV0YWxfYmluZGluZycsICctaW1hZScsICc8aW5maWxlLm1hZT4nLCAnLW9tYWUnLCAnPG91dGZpbGUubWFlPic=

> <r_lp_tautomer_probability>
1

> <r_epik_Ionization_Penalty>
0.000242849

> <r_epik_Ionization_Penalty_Charging>
0.000241326

> <r_epik_Ionization_Penalty_Neutral>
1.52322e-06

> <r_epik_State_Penalty>
-0

> <r_epik_Charging_Adjusted_Penalty>
0.000241326

> <i_epik_Tot_Q>
1

> <i_epik_Tot_abs_Q>
1

> <r_epik_Metal_State_Penalty>
-0

> <b_epik_Metal_Only>
0

> <s_lp_Force_Field>
OPLS_2005

> <r_lp_Energy>
37.5901

> <b_lp_Chiralities_Consistent>
1

> <s_lp_Variant>
AV-unprocessed.smi:1987-4

> <Gold.Version>
5.8.1

> <Gold.Id.Protein>
6NUR|6NUR_protein|mol2

> <Gold.PLP.Fitness>
43.3499

> <Gold.PLP.PLP>
-32.0877

> <Gold.PLP.part.hbond>
-5.9407

> <Gold.PLP.part.metal>
0.0000

> <Gold.PLP.part.buried>
1.7435

> <Gold.PLP.part.nonpolar>
-27.4426

> <Gold.PLP.part.repulsive>
0.1430

> <Gold.PLP.ligand.clash>
0.0000

> <Gold.PLP.ligand.torsion>
1.3380

> <Gold.PLP.Chemscore.Hbond>
4.2180

> <Gold.PLP.Chemscore.CHOScore>
0.0000

> <Gold.PLP.Chemscore.Metal>
0.0000

> <Gold.Chemscore.Hbonds>
donor molecule, donor type, donor heavy atom, donor atom, acceptor molecule, acceptor atom, score
      L1  H     9    22       P1  7948  0.89
      L1  H    14    37       P1 10747  0.50
      P1  H  7989  7998       L1     8  0.30
      P1  H  7997  8009       L1     6  1.00
      P1  H 10752 10763       L1     1  0.32

> <Gold.PLP.Chemscore.Internal.Correction>
1.2843

> <Gold.Rescore>
     Score         DG    S(hbond)    S(metal)    S(lipo)     H(rot)  DE(clash)    DE(int)     intcor
     10.78     -14.66       2.65        0.00      60.15       2.62       1.25       2.63       ----

> <Gold.Chemscore.Fitness>
10.7850

> <Gold.Chemscore.DG>
-14.6633

> <Gold.Chemscore.ZeroCoef>
-5.4800

> <Gold.Chemscore.Hbond>
2.6539

> <Gold.Chemscore.Metal>
0.0000

> <Gold.Chemscore.Lipo>
60.1516

> <Gold.Chemscore.Internal_Hbond>
0.0000

> <Gold.Chemscore.DEClash>
1.2475

> <Gold.Chemscore.DEInternal>
2.6308

> <Gold.Chemscore.Rot>
2.6244

> <Gold.Chemscore.Internal.Correction>
   9.000000E+99

> <Gold.Chemscore.Hbonds>
donor molecule, donor type, donor heavy atom, donor atom, acceptor molecule, acceptor atom, score
      L1  H     9    22       P1  7948  0.59
      L1  H    14    37       P1 10747  0.49
      P1  H  7997  8009       L1     6  0.81
      P1  H 10752 10763       L1     1  0.02

> <Gold.Chemscore.Hbond.Weighted>
-8.8641

> <Gold.Chemscore.Metal.Weighted>
-0.0000

> <Gold.Chemscore.Lipo.Weighted>
-7.0377

> <Gold.Chemscore.Internal_Hbond.Weighted>
0.0000

> <Gold.Chemscore.DEClash.Weighted>
1.2475

> <Gold.Chemscore.DEInternal.Weighted>
2.6308

> <Gold.Chemscore.Rot.Weighted>
6.7186

> <Gold.Chemscore.Internal.Correction.Weighted>
   9.000000E+99

> <Gold.Protein.RotatedTorsions>
[ 6907 6896 6895 6894 ] final   -0.54 input  -60.11 | X-H torsion
[ 7974 7965 7964 7962 ] final -141.29 input  175.53 | X-H torsion
[ 8008 7997 7996 7995 ] final -158.10 input   59.86 | X-H torsion
[ 10167 10162 10161 10158 ] final    2.35 input  -65.29 | X-H torsion
[ 10718 10713 10712 10709 ] final  -26.32 input   66.30 | X-H torsion
[ 10763 10752 10751 10750 ] final   85.01 input  -60.55 | X-H torsion
[ 11005 11000 10999 10996 ] final   16.16 input  -57.11 | X-H torsion

> <Gold.Protein.ActiveResidues>
 VAL166  LYS551  ARG553  GLY616  TRP617  ASP618  TYR619  PRO620  LYS621  CYS622 
 ASP623  PHE694  ASN695  SER759  ASP760  ASP761  ALA762  ILE779  LEU786  VAL792 
 PHE793  MET794  SER795  GLU796  ALA797  LYS798  CYS799  TRP800  GLU811  SER814 

> <Gold.Protein.RotatedAtoms>
  151.5607  135.1065  159.9971 H   0  0  0  0  0  0  0  0  0  0  0  0  # atno 6907 bound_to 6896
  152.4448  133.7511  159.6705 H   0  0  0  0  0  0  0  0  0  0  0  0  # atno 6908 bound_to 6896
  150.8361  133.7943  159.3103 H   0  0  0  0  0  0  0  0  0  0  0  0  # atno 6909 bound_to 6896
  144.8530  140.6097  143.5377 H   0  0  0  0  0  0  0  0  0  0  0  0  # atno 7974 bound_to 7965
  155.7425  140.0816  157.2239 H   0  0  0  0  0  0  0  0  0  0  0  0  # atno 8008 bound_to 7997
  154.4020  140.1575  156.2687 H   0  0  0  0  0  0  0  0  0  0  0  0  # atno 8009 bound_to 7997
  155.9007  140.3410  155.6027 H   0  0  0  0  0  0  0  0  0  0  0  0  # atno 8010 bound_to 7997
  140.6639  143.7231  150.7790 H   0  0  0  0  0  0  0  0  0  0  0  0  # atno 10167 bound_to 10162
  156.4527  130.4487  149.6979 H   0  0  0  0  0  0  0  0  0  0  0  0  # atno 10718 bound_to 10713
  153.1435  135.4633  154.9531 H   0  0  0  0  0  0  0  0  0  0  0  0  # atno 10763 bound_to 10752
  154.7767  135.3175  154.8079 H   0  0  0  0  0  0  0  0  0  0  0  0  # atno 10764 bound_to 10752
  153.8598  135.6913  153.4838 H   0  0  0  0  0  0  0  0  0  0  0  0  # atno 10765 bound_to 10752
  140.4503  134.1231  155.7701 H   0  0  0  0  0  0  0  0  0  0  0  0  # atno 11005 bound_to 11000
  145.4461  139.1529  143.3944 LP  0  0  0  0  0  0  0  0  0  0  0  0  # atno 17320 bound_to 7965
  146.2800  140.4585  142.8780 LP  0  0  0  0  0  0  0  0  0  0  0  0  # atno 17321 bound_to 7965
  140.0904  143.4883  152.2481 LP  0  0  0  0  0  0  0  0  0  0  0  0  # atno 17342 bound_to 10162
  139.5882  144.7539  151.3468 LP  0  0  0  0  0  0  0  0  0  0  0  0  # atno 17343 bound_to 10162
  156.3799  130.7574  151.2565 LP  0  0  0  0  0  0  0  0  0  0  0  0  # atno 17370 bound_to 10713
  157.7502  131.0298  150.4111 LP  0  0  0  0  0  0  0  0  0  0  0  0  # atno 17371 bound_to 10713
  141.1667  133.8689  157.1693 LP  0  0  0  0  0  0  0  0  0  0  0  0  # atno 17394 bound_to 11000
  140.0011  135.0027  157.0192 LP  0  0  0  0  0  0  0  0  0  0  0  0  # atno 17395 bound_to 11000

$$$$
