AV-unprocessed.smi:22|AV-procd|sdf|171|dock6
  -GOLD-   2262015423D 1   1.00000     0.00000
 Structure written by MMmdl.
 56 59  0  0  0  0  0  0  0  0  2 V2000
  144.2008  132.4130  148.8768 C   0  0  0  0  0  0  0  0  0  0  0  0
  145.1037  133.3286  149.6237 N   0  3  2  0  0  0  0  0  0  0  0  0
  146.2102  132.5920  150.3067 C   0  0  0  0  0  0  0  0  0  0  0  0
  145.7424  131.3876  151.1461 C   0  0  0  0  0  0  0  0  0  0  0  0
  146.7713  130.9672  152.0175 O   0  0  0  0  0  0  0  0  0  0  0  0
  144.3264  134.2769  150.4884 C   0  0  0  0  0  0  0  0  0  0  0  0
  145.2715  135.3288  151.1172 C   0  0  0  0  0  0  0  0  0  0  0  0
  144.5077  136.3374  151.9892 C   0  0  0  0  0  0  0  0  0  0  0  0
  143.7266  135.6515  153.0167 N   0  0  0  0  0  0  0  0  0  0  0  0
  143.2378  136.4000  154.0382 C   0  0  0  0  0  0  0  0  0  0  0  0
  143.7650  136.2742  155.2856 N   0  0  0  0  0  0  0  0  0  0  0  0
  143.2997  137.0181  156.2933 C   0  0  0  0  0  0  0  0  0  0  0  0
  142.3270  137.9310  156.2762 N   0  0  0  0  0  0  0  0  0  0  0  0
  141.7856  138.0545  155.0307 C   0  0  0  0  0  0  0  0  0  0  0  0
  142.1796  137.3364  153.8662 C   0  0  0  0  0  0  0  0  0  0  0  0
  141.3989  137.7253  152.7841 N   0  0  0  0  0  0  0  0  0  0  0  0
  140.5958  138.6274  153.2787 C   0  0  0  0  0  0  0  0  0  0  0  0
  140.7532  138.8815  154.6227 N   0  0  0  0  0  0  0  0  0  0  0  0
  139.9969  139.8325  155.4240 C   0  0  0  0  0  0  0  0  0  0  0  0
  140.1082  141.2921  154.9239 C   0  0  2  0  0  0  0  0  0  0  0  0
  141.4785  141.6259  154.7807 O   0  0  0  0  0  0  0  0  0  0  0  0
  139.4688  142.2955  155.8756 C   0  0  0  0  0  0  0  0  0  0  0  0
  139.0508  143.4237  154.9423 C   0  0  0  0  0  0  0  0  0  0  0  0
  138.5814  142.7314  153.7979 O   0  0  0  0  0  0  0  0  0  0  0  0
  139.3927  141.5790  153.5872 C   0  0  0  0  0  0  0  0  0  0  0  0
  142.7961  134.6497  152.5041 C   0  0  0  0  0  0  0  0  0  0  0  0
  143.5268  133.6105  151.6382 C   0  0  0  0  0  0  0  0  0  0  0  0
  143.8095  131.6336  149.5318 H   0  0  0  0  0  0  0  0  0  0  0  0
  144.7161  131.9367  148.0440 H   0  0  0  0  0  0  0  0  0  0  0  0
  143.3492  132.9333  148.4422 H   0  0  0  0  0  0  0  0  0  0  0  0
  146.9139  132.1957  149.5758 H   0  0  0  0  0  0  0  0  0  0  0  0
  146.7656  133.2872  150.9380 H   0  0  0  0  0  0  0  0  0  0  0  0
  144.8846  131.6775  151.7535 H   0  0  0  0  0  0  0  0  0  0  0  0
  145.4070  130.5537  150.5310 H   0  0  0  0  0  0  0  0  0  0  0  0
  147.4937  130.6436  151.5004 H   0  0  0  0  0  0  0  0  0  0  0  0
  143.6014  134.7884  149.8525 H   0  0  0  0  0  0  0  0  0  0  0  0
  146.0241  134.8251  151.7257 H   0  0  0  0  0  0  0  0  0  0  0  0
  145.8188  135.8827  150.3563 H   0  0  0  0  0  0  0  0  0  0  0  0
  145.2180  137.0217  152.4562 H   0  0  0  0  0  0  0  0  0  0  0  0
  143.8420  136.9376  151.3671 H   0  0  0  0  0  0  0  0  0  0  0  0
  143.7759  136.8604  157.2498 H   0  0  0  0  0  0  0  0  0  0  0  0
  139.8566  139.1324  152.6738 H   0  0  0  0  0  0  0  0  0  0  0  0
  138.9527  139.5174  155.4313 H   0  0  0  0  0  0  0  0  0  0  0  0
  140.3433  139.7600  156.4559 H   0  0  0  0  0  0  0  0  0  0  0  0
  141.6084  141.9911  153.9188 H   0  0  0  0  0  0  0  0  0  0  0  0
  138.5767  141.8673  156.3349 H   0  0  0  0  0  0  0  0  0  0  0  0
  140.1303  142.6240  156.6785 H   0  0  0  0  0  0  0  0  0  0  0  0
  138.2795  144.0643  155.3698 H   0  0  0  0  0  0  0  0  0  0  0  0
  139.9056  144.0449  154.6703 H   0  0  0  0  0  0  0  0  0  0  0  0
  140.0947  141.7561  152.7710 H   0  0  0  0  0  0  0  0  0  0  0  0
  138.7394  140.7625  153.2826 H   0  0  0  0  0  0  0  0  0  0  0  0
  142.2763  134.1396  153.3146 H   0  0  0  0  0  0  0  0  0  0  0  0
  142.0306  135.1533  151.9123 H   0  0  0  0  0  0  0  0  0  0  0  0
  142.7763  132.9242  151.2456 H   0  0  0  0  0  0  0  0  0  0  0  0
  144.1963  133.0263  152.2716 H   0  0  0  0  0  0  0  0  0  0  0  0
  145.5600  133.9069  148.9322 H   0  0  0  0  0  0  0  0  0  0  0  0
  1  2  1  0  0  0  0
  1 28  1  0  0  0  0
  1 29  1  0  0  0  0
  1 30  1  0  0  0  0
  2  3  1  0  0  0  0
  2  6  1  0  0  0  0
  2 56  1  0  0  0  0
  3  4  1  0  0  0  0
  3 31  1  0  0  0  0
  3 32  1  0  0  0  0
  4  5  1  0  0  0  0
  4 33  1  0  0  0  0
  4 34  1  0  0  0  0
  5 35  1  0  0  0  0
  6 27  1  0  0  0  0
  6  7  1  0  0  0  0
  6 36  1  0  0  0  0
  7  8  1  0  0  0  0
  7 37  1  0  0  0  0
  7 38  1  0  0  0  0
  8  9  1  0  0  0  0
  8 39  1  0  0  0  0
  8 40  1  0  0  0  0
  9 10  1  0  0  0  0
  9 26  1  0  0  0  0
 10 15  1  0  0  0  0
 10 11  2  0  0  0  0
 11 12  1  0  0  0  0
 12 13  2  0  0  0  0
 12 41  1  0  0  0  0
 13 14  1  0  0  0  0
 14 18  1  0  0  0  0
 14 15  2  0  0  0  0
 15 16  1  0  0  0  0
 16 17  2  0  0  0  0
 17 18  1  0  0  0  0
 17 42  1  0  0  0  0
 18 19  1  0  0  0  0
 19 20  1  0  0  0  0
 19 43  1  0  0  0  0
 19 44  1  0  0  0  0
 20 25  1  0  0  0  0
 20 21  1  0  0  0  0
 20 22  1  0  0  0  0
 21 45  1  0  0  0  0
 22 23  1  0  0  0  0
 22 46  1  0  0  0  0
 22 47  1  0  0  0  0
 23 24  1  0  0  0  0
 23 48  1  0  0  0  0
 23 49  1  0  0  0  0
 24 25  1  0  0  0  0
 25 50  1  0  0  0  0
 25 51  1  0  0  0  0
 26 27  1  0  0  0  0
 26 52  1  0  0  0  0
 26 53  1  0  0  0  0
 27 54  1  0  0  0  0
 27 55  1  0  0  0  0
M  CHG  1   2   1
M  END
> <s_m_source_file>
AV-unprocessed.smi

> <i_m_source_file_index>
22

> <i_lp_mmshare_version>
43012

> <i_f3d_flags>
0

> <s_epik_input>
W09IXVtDSDJdW0NIMl1OKFtDSDNdKVtDSF0xW0NIMl1bQ0gyXU4oW0NIMl1bQ0gyXTEpYyhuW2NIXW4yKWMoYzIzKW5bY0hdbjNbQ0gyXVtDQEBdNChbT0hdKVtDSDJdW0NIMl1PW0NIMl00

> <s_epik_cmdline>
J2VwaWtfcHl0aG9uJywgJy1waCcsICc3LjAnLCAnLXRuJywgJzgnLCAnLW1hJywgJzIwMCcsICctbWV0YWxfYmluZGluZycsICctaW1hZScsICc8aW5maWxlLm1hZT4nLCAnLW9tYWUnLCAnPG91dGZpbGUubWFlPic=

> <r_lp_tautomer_probability>
1

> <r_epik_Ionization_Penalty>
0.00317524

> <r_epik_Ionization_Penalty_Charging>
0.00191487

> <r_epik_Ionization_Penalty_Neutral>
0.00126037

> <r_epik_State_Penalty>
-0

> <r_epik_Charging_Adjusted_Penalty>
0.00191487

> <i_epik_Tot_Q>
1

> <i_epik_Tot_abs_Q>
1

> <r_epik_Metal_State_Penalty>
-0

> <b_epik_Metal_Only>
0

> <s_lp_Force_Field>
OPLS_2005

> <r_lp_Energy>
48.0385

> <b_lp_Chiralities_Consistent>
1

> <s_lp_Variant>
AV-unprocessed.smi:22-3

> <Gold.Version>
5.8.1

> <Gold.Id.Protein>
6NUR|6NUR_protein|mol2

> <Gold.PLP.Fitness>
46.8668

> <Gold.PLP.PLP>
-33.3299

> <Gold.PLP.part.hbond>
-4.8355

> <Gold.PLP.part.metal>
0.0000

> <Gold.PLP.part.buried>
-1.1023

> <Gold.PLP.part.nonpolar>
-26.2308

> <Gold.PLP.part.repulsive>
0.6185

> <Gold.PLP.ligand.clash>
0.0000

> <Gold.PLP.ligand.torsion>
0.4189

> <Gold.PLP.Chemscore.Hbond>
3.6673

> <Gold.PLP.Chemscore.CHOScore>
0.9740

> <Gold.PLP.Chemscore.Metal>
0.0000

> <Gold.Chemscore.Hbonds>
donor molecule, donor type, donor heavy atom, donor atom, acceptor molecule, acceptor atom, score
      L1  H     2    56       P1  7921  1.00
      L1  H     5    35       P1 10747  1.00
      L1  H    21    45       P1 10174  0.83
      P1  H 10162 10167       L1    24  0.23
      L1  C    17    42       P1 10160  0.84

> <Gold.PLP.Chemscore.Internal.Correction>
0.4510

> <Gold.Rescore>
     Score         DG    S(hbond)    S(metal)    S(lipo)     H(rot)  DE(clash)    DE(int)     intcor
     13.35     -13.97       2.74        0.00      76.55       3.76       0.02       0.60       ----

> <Gold.Chemscore.Fitness>
13.3491

> <Gold.Chemscore.DG>
-13.9717

> <Gold.Chemscore.ZeroCoef>
-5.4800

> <Gold.Chemscore.Hbond>
2.7416

> <Gold.Chemscore.Metal>
0.0000

> <Gold.Chemscore.Lipo>
76.5468

> <Gold.Chemscore.Internal_Hbond>
0.0000

> <Gold.Chemscore.DEClash>
0.0234

> <Gold.Chemscore.DEInternal>
0.5993

> <Gold.Chemscore.Rot>
3.7583

> <Gold.Chemscore.Internal.Correction>
   9.000000E+99

> <Gold.Chemscore.Hbonds>
donor molecule, donor type, donor heavy atom, donor atom, acceptor molecule, acceptor atom, score
      L1  H     2    56       P1  7921  0.60
      L1  H     5    35       P1 10747  0.97
      L1  H    21    45       P1 10174  0.56

> <Gold.Chemscore.Hbond.Weighted>
-9.1570

> <Gold.Chemscore.Metal.Weighted>
-0.0000

> <Gold.Chemscore.Lipo.Weighted>
-8.9560

> <Gold.Chemscore.Internal_Hbond.Weighted>
0.0000

> <Gold.Chemscore.DEClash.Weighted>
0.0234

> <Gold.Chemscore.DEInternal.Weighted>
0.5993

> <Gold.Chemscore.Rot.Weighted>
9.6213

> <Gold.Chemscore.Internal.Correction.Weighted>
   9.000000E+99

> <Gold.Protein.RotatedTorsions>
[ 6907 6896 6895 6894 ] final  130.28 input  -60.11 | X-H torsion
[ 7974 7965 7964 7962 ] final  106.25 input  175.53 | X-H torsion
[ 8008 7997 7996 7995 ] final -143.86 input   59.86 | X-H torsion
[ 10167 10162 10161 10158 ] final -155.56 input  -65.29 | X-H torsion
[ 10718 10713 10712 10709 ] final -150.89 input   66.30 | X-H torsion
[ 10763 10752 10751 10750 ] final  143.54 input  -60.55 | X-H torsion
[ 11005 11000 10999 10996 ] final   50.61 input  -57.11 | X-H torsion

> <Gold.Protein.ActiveResidues>
 VAL166  LYS551  ARG553  GLY616  TRP617  ASP618  TYR619  PRO620  LYS621  CYS622 
 ASP623  PHE694  ASN695  SER759  ASP760  ASP761  ALA762  ILE779  LEU786  VAL792 
 PHE793  MET794  SER795  GLU796  ALA797  LYS798  CYS799  TRP800  GLU811  SER814 

> <Gold.Protein.RotatedAtoms>
  152.3542  133.6216  159.5966 H   0  0  0  0  0  0  0  0  0  0  0  0  # atno 6907 bound_to 6896
  150.7557  133.9527  159.3499 H   0  0  0  0  0  0  0  0  0  0  0  0  # atno 6908 bound_to 6896
  151.7374  135.0862  160.0361 H   0  0  0  0  0  0  0  0  0  0  0  0  # atno 6909 bound_to 6896
  145.3090  139.2546  143.3773 H   0  0  0  0  0  0  0  0  0  0  0  0  # atno 7974 bound_to 7965
  155.5175  140.0588  157.2912 H   0  0  0  0  0  0  0  0  0  0  0  0  # atno 8008 bound_to 7997
  154.4529  140.1958  156.0411 H   0  0  0  0  0  0  0  0  0  0  0  0  # atno 8009 bound_to 7997
  156.0742  140.3256  155.7617 H   0  0  0  0  0  0  0  0  0  0  0  0  # atno 8010 bound_to 7997
  139.6921  143.9403  152.2390 H   0  0  0  0  0  0  0  0  0  0  0  0  # atno 10167 bound_to 10162
  156.4521  130.8172  151.2403 H   0  0  0  0  0  0  0  0  0  0  0  0  # atno 10718 bound_to 10713
  153.9740  135.2948  155.3425 H   0  0  0  0  0  0  0  0  0  0  0  0  # atno 10763 bound_to 10752
  154.7306  135.5069  153.8961 H   0  0  0  0  0  0  0  0  0  0  0  0  # atno 10764 bound_to 10752
  153.0886  135.6701  154.0012 H   0  0  0  0  0  0  0  0  0  0  0  0  # atno 10765 bound_to 10752
  140.1002  134.5091  155.8769 H   0  0  0  0  0  0  0  0  0  0  0  0  # atno 11005 bound_to 11000
  146.3124  140.3622  142.8666 LP  0  0  0  0  0  0  0  0  0  0  0  0  # atno 17320 bound_to 7965
  144.9031  140.7667  143.5854 LP  0  0  0  0  0  0  0  0  0  0  0  0  # atno 17321 bound_to 7965
  139.9222  144.6793  150.8450 LP  0  0  0  0  0  0  0  0  0  0  0  0  # atno 17342 bound_to 10162
  140.7686  143.3367  151.2294 LP  0  0  0  0  0  0  0  0  0  0  0  0  # atno 17343 bound_to 10162
  157.7502  131.0134  150.3425 LP  0  0  0  0  0  0  0  0  0  0  0  0  # atno 17370 bound_to 10713
  156.3805  130.3879  149.7105 LP  0  0  0  0  0  0  0  0  0  0  0  0  # atno 17371 bound_to 10713
  141.2103  133.6694  156.6504 LP  0  0  0  0  0  0  0  0  0  0  0  0  # atno 17394 bound_to 11000
  140.3230  134.7992  157.4267 LP  0  0  0  0  0  0  0  0  0  0  0  0  # atno 17395 bound_to 11000

$$$$
