AV-unprocessed.smi:332|AV-procd|sdf|2353|dock4
  -GOLD-   2262022263D 1   1.00000     0.00000
 Structure written by MMmdl.
 42 44  0  0  0  0  0  0  0  0  1 V2000
  148.7280  141.3765  157.8026 C   0  0  0  0  0  0  0  0  0  0  0  0
  149.1462  142.8452  157.9819 C   0  0  1  0  0  0  0  0  0  0  0  0
  147.9505  143.6330  158.2784 N   0  0  0  0  0  0  0  0  0  0  0  0
  146.9817  143.2967  159.1439 C   0  0  0  0  0  0  0  0  0  0  0  0
  147.0177  142.2868  159.8477 O   0  0  0  0  0  0  0  0  0  0  0  0
  145.7921  144.2612  159.2321 C   0  0  0  0  0  0  0  0  0  0  0  0
  144.9239  143.9825  160.3880 N   0  0  0  0  0  0  0  0  0  0  0  0
  143.5854  143.6329  160.1201 C   0  0  0  0  0  0  0  0  0  0  0  0
  142.7108  143.3663  161.1031 C   0  0  0  0  0  0  0  0  0  0  0  0
  143.1731  143.4456  162.4686 C   0  0  0  0  0  0  0  0  0  0  0  0
  144.4509  143.7807  162.7363 C   0  0  0  0  0  0  0  0  0  0  0  0
  145.4106  144.0727  161.6650 C   0  0  0  0  0  0  0  0  0  0  0  0
  146.5798  144.3798  161.9008 O   0  0  0  0  0  0  0  0  0  0  0  0
  150.1903  143.0431  159.1092 C   0  0  2  0  0  0  0  0  0  0  0  0
  150.3484  144.5160  159.5680 C   0  0  0  0  0  0  0  0  0  0  0  0
  151.8610  144.7665  159.4476 C   0  0  1  0  0  0  0  0  0  0  0  0
  152.6079  143.9529  160.5198 C   0  0  0  0  0  0  0  0  0  0  0  0
  152.4834  142.5099  159.9962 C   0  0  0  0  0  0  0  0  0  0  0  0
  151.6453  142.6835  158.7149 C   0  0  2  0  0  0  0  0  0  0  0  0
  152.1929  144.0011  158.1743 C   0  0  0  0  0  0  0  0  0  0  0  0
  149.5659  140.7506  157.4989 H   0  0  0  0  0  0  0  0  0  0  0  0
  147.9630  141.2811  157.0310 H   0  0  0  0  0  0  0  0  0  0  0  0
  148.3208  140.9635  158.7261 H   0  0  0  0  0  0  0  0  0  0  0  0
  149.5886  143.1827  157.0435 H   0  0  0  0  0  0  0  0  0  0  0  0
  147.8332  144.4876  157.7537 H   0  0  0  0  0  0  0  0  0  0  0  0
  146.1848  145.2778  159.2765 H   0  0  0  0  0  0  0  0  0  0  0  0
  145.2072  144.2198  158.3111 H   0  0  0  0  0  0  0  0  0  0  0  0
  143.3167  143.6034  159.0740 H   0  0  0  0  0  0  0  0  0  0  0  0
  141.6874  143.1040  160.8787 H   0  0  0  0  0  0  0  0  0  0  0  0
  142.4906  143.2370  163.2794 H   0  0  0  0  0  0  0  0  0  0  0  0
  144.7790  143.8369  163.7640 H   0  0  0  0  0  0  0  0  0  0  0  0
  149.8831  142.4324  159.9599 H   0  0  0  0  0  0  0  0  0  0  0  0
  149.8134  145.2030  158.9110 H   0  0  0  0  0  0  0  0  0  0  0  0
  149.9784  144.6772  160.5811 H   0  0  0  0  0  0  0  0  0  0  0  0
  152.1286  145.8235  159.4335 H   0  0  0  0  0  0  0  0  0  0  0  0
  153.6555  144.2512  160.5774 H   0  0  0  0  0  0  0  0  0  0  0  0
  152.1685  144.0761  161.5103 H   0  0  0  0  0  0  0  0  0  0  0  0
  153.4680  142.1037  159.7607 H   0  0  0  0  0  0  0  0  0  0  0  0
  152.0127  141.8416  160.7182 H   0  0  0  0  0  0  0  0  0  0  0  0
  151.7389  141.8396  158.0329 H   0  0  0  0  0  0  0  0  0  0  0  0
  151.6603  144.3698  157.2963 H   0  0  0  0  0  0  0  0  0  0  0  0
  153.2618  143.9687  157.9555 H   0  0  0  0  0  0  0  0  0  0  0  0
  1  2  1  0  0  0  0
  1 21  1  0  0  0  0
  1 22  1  0  0  0  0
  1 23  1  0  0  0  0
  2  3  1  0  0  0  0
  2 14  1  0  0  0  0
  2 24  1  0  0  0  0
  3  4  1  0  0  0  0
  3 25  1  0  0  0  0
  4  5  2  0  0  0  0
  4  6  1  0  0  0  0
  6  7  1  0  0  0  0
  6 26  1  0  0  0  0
  6 27  1  0  0  0  0
  7 12  1  0  0  0  0
  7  8  1  0  0  0  0
  8  9  2  0  0  0  0
  8 28  1  0  0  0  0
  9 10  1  0  0  0  0
  9 29  1  0  0  0  0
 10 11  2  0  0  0  0
 10 30  1  0  0  0  0
 11 12  1  0  0  0  0
 11 31  1  0  0  0  0
 12 13  2  0  0  0  0
 14 19  1  0  0  0  0
 14 15  1  0  0  0  0
 14 32  1  0  0  0  0
 15 16  1  0  0  0  0
 15 33  1  0  0  0  0
 15 34  1  0  0  0  0
 16 20  1  0  0  0  0
 16 17  1  0  0  0  0
 16 35  1  0  0  0  0
 17 18  1  0  0  0  0
 17 36  1  0  0  0  0
 17 37  1  0  0  0  0
 18 19  1  0  0  0  0
 18 38  1  0  0  0  0
 18 39  1  0  0  0  0
 19 20  1  0  0  0  0
 19 40  1  0  0  0  0
 20 41  1  0  0  0  0
 20 42  1  0  0  0  0
M  END
> <s_m_source_file>
AV-unprocessed.smi

> <i_m_source_file_index>
332

> <i_lp_mmshare_version>
43012

> <i_f3d_flags>
0

> <s_epik_input>
W0NIMl0xW0NIMl1bQ0BIXShbQ0gyXTIpW0NAQEhdKFtDSDJdW0NAQEhdMTIpW0NASF0oW0NIM10pW05IXUMoPU8pW0NIMl1uM1tjSF1bY0hdW2NIXVtjSF1jMz1P

> <s_epik_cmdline>
J2VwaWtfcHl0aG9uJywgJy1waCcsICc3LjAnLCAnLXRuJywgJzgnLCAnLW1hJywgJzIwMCcsICctbWV0YWxfYmluZGluZycsICctaW1hZScsICc8aW5maWxlLm1hZT4nLCAnLW9tYWUnLCAnPG91dGZpbGUubWFlPic=

> <r_lp_tautomer_probability>
1

> <r_epik_Ionization_Penalty>
4.05802e-07

> <r_epik_Ionization_Penalty_Charging>
3.84175e-07

> <r_epik_Ionization_Penalty_Neutral>
2.16269e-08

> <r_epik_State_Penalty>
-0

> <r_epik_Charging_Adjusted_Penalty>
3.84175e-07

> <i_epik_Tot_Q>
0

> <i_epik_Tot_abs_Q>
0

> <r_epik_Metal_State_Penalty>
-0

> <b_epik_Metal_Only>
0

> <s_lp_Force_Field>
OPLS_2005

> <r_lp_Energy>
60.1573

> <b_lp_Chiralities_Consistent>
1

> <s_lp_Variant>
AV-unprocessed.smi:332-2

> <Gold.Version>
5.8.1

> <Gold.Id.Protein>
6NUR|6NUR_protein|mol2

> <Gold.PLP.Fitness>
41.3310

> <Gold.PLP.PLP>
-36.5471

> <Gold.PLP.part.hbond>
-4.6684

> <Gold.PLP.part.metal>
0.0000

> <Gold.PLP.part.buried>
-0.5991

> <Gold.PLP.part.nonpolar>
-32.3190

> <Gold.PLP.part.repulsive>
0.2044

> <Gold.PLP.ligand.clash>
0.0000

> <Gold.PLP.ligand.torsion>
0.6578

> <Gold.PLP.Chemscore.Hbond>
2.0191

> <Gold.PLP.Chemscore.CHOScore>
0.0000

> <Gold.PLP.Chemscore.Metal>
0.0000

> <Gold.Chemscore.Hbonds>
donor molecule, donor type, donor heavy atom, donor atom, acceptor molecule, acceptor atom, score
      L1  H     3    25       P1  8029  0.68
      P1  H  6933  6944       L1     5  0.37
      P1  H  6934  6946       L1     5  0.85

> <Gold.PLP.Chemscore.Internal.Correction>
0.0421

> <Gold.Rescore>
     Score         DG    S(hbond)    S(metal)    S(lipo)     H(rot)  DE(clash)    DE(int)     intcor
     15.55     -18.70       1.31        0.00     109.25       1.54       1.15       2.01       ----

> <Gold.Chemscore.Fitness>
15.5477

> <Gold.Chemscore.DG>
-18.7024

> <Gold.Chemscore.ZeroCoef>
-5.4800

> <Gold.Chemscore.Hbond>
1.3121

> <Gold.Chemscore.Metal>
0.0000

> <Gold.Chemscore.Lipo>
109.2458

> <Gold.Chemscore.Internal_Hbond>
0.0000

> <Gold.Chemscore.DEClash>
1.1488

> <Gold.Chemscore.DEInternal>
2.0060

> <Gold.Chemscore.Rot>
1.5398

> <Gold.Chemscore.Internal.Correction>
   9.000000E+99

> <Gold.Chemscore.Hbonds>
donor molecule, donor type, donor heavy atom, donor atom, acceptor molecule, acceptor atom, score
      L1  H     3    25       P1  8029  0.07
      P1  H  6933  6944       L1     5  0.34
      P1  H  6934  6946       L1     5  0.83

> <Gold.Chemscore.Hbond.Weighted>
-4.3825

> <Gold.Chemscore.Metal.Weighted>
-0.0000

> <Gold.Chemscore.Lipo.Weighted>
-12.7818

> <Gold.Chemscore.Internal_Hbond.Weighted>
0.0000

> <Gold.Chemscore.DEClash.Weighted>
1.1488

> <Gold.Chemscore.DEInternal.Weighted>
2.0060

> <Gold.Chemscore.Rot.Weighted>
3.9419

> <Gold.Chemscore.Internal.Correction.Weighted>
   9.000000E+99

> <Gold.Protein.RotatedTorsions>
[ 6907 6896 6895 6894 ] final  -56.78 input  -60.11 | X-H torsion
[ 7974 7965 7964 7962 ] final  -83.33 input  175.53 | X-H torsion
[ 8008 7997 7996 7995 ] final   66.33 input   59.86 | X-H torsion
[ 10167 10162 10161 10158 ] final  -53.75 input  -65.29 | X-H torsion
[ 10718 10713 10712 10709 ] final  -27.57 input   66.30 | X-H torsion
[ 10763 10752 10751 10750 ] final  104.70 input  -60.55 | X-H torsion
[ 11005 11000 10999 10996 ] final  -87.13 input  -57.11 | X-H torsion

> <Gold.Protein.ActiveResidues>
 VAL166  LYS551  ARG553  GLY616  TRP617  ASP618  TYR619  PRO620  LYS621  CYS622 
 ASP623  PHE694  ASN695  SER759  ASP760  ASP761  ALA762  ILE779  LEU786  VAL792 
 PHE793  MET794  SER795  GLU796  ALA797  LYS798  CYS799  TRP800  GLU811  SER814 

> <Gold.Protein.RotatedAtoms>
  150.8140  134.7311  159.6712 H   0  0  0  0  0  0  0  0  0  0  0  0  # atno 6907 bound_to 6896
  152.4259  134.5866  159.9972 H   0  0  0  0  0  0  0  0  0  0  0  0  # atno 6908 bound_to 6896
  151.6068  133.3314  159.3095 H   0  0  0  0  0  0  0  0  0  0  0  0  # atno 6909 bound_to 6896
  145.5213  140.9531  143.1653 H   0  0  0  0  0  0  0  0  0  0  0  0  # atno 7974 bound_to 7965
  155.6756  140.3497  155.4835 H   0  0  0  0  0  0  0  0  0  0  0  0  # atno 8008 bound_to 7997
  155.9651  140.1145  157.0885 H   0  0  0  0  0  0  0  0  0  0  0  0  # atno 8009 bound_to 7997
  154.4152  140.1168  156.5217 H   0  0  0  0  0  0  0  0  0  0  0  0  # atno 8010 bound_to 7997
  140.6468  143.2540  151.4838 H   0  0  0  0  0  0  0  0  0  0  0  0  # atno 10167 bound_to 10162
  156.4365  130.4455  149.7081 H   0  0  0  0  0  0  0  0  0  0  0  0  # atno 10718 bound_to 10713
  153.3694  135.3934  155.1777 H   0  0  0  0  0  0  0  0  0  0  0  0  # atno 10763 bound_to 10752
  154.8692  135.3699  154.4997 H   0  0  0  0  0  0  0  0  0  0  0  0  # atno 10764 bound_to 10752
  153.5463  135.7083  153.5673 H   0  0  0  0  0  0  0  0  0  0  0  0  # atno 10765 bound_to 10752
  141.1621  133.7494  156.9262 H   0  0  0  0  0  0  0  0  0  0  0  0  # atno 11005 bound_to 11000
  144.7674  139.6813  143.7209 LP  0  0  0  0  0  0  0  0  0  0  0  0  # atno 17320 bound_to 7965
  146.2104  139.5456  142.9685 LP  0  0  0  0  0  0  0  0  0  0  0  0  # atno 17321 bound_to 7965
  139.5679  144.1998  152.1792 LP  0  0  0  0  0  0  0  0  0  0  0  0  # atno 17342 bound_to 10162
  140.1286  144.5309  150.6817 LP  0  0  0  0  0  0  0  0  0  0  0  0  # atno 17343 bound_to 10162
  156.3963  130.7652  151.2657 LP  0  0  0  0  0  0  0  0  0  0  0  0  # atno 17370 bound_to 10713
  157.7507  131.0253  150.3912 LP  0  0  0  0  0  0  0  0  0  0  0  0  # atno 17371 bound_to 10713
  140.1417  134.9289  157.2476 LP  0  0  0  0  0  0  0  0  0  0  0  0  # atno 17394 bound_to 11000
  140.2828  134.3330  155.7338 LP  0  0  0  0  0  0  0  0  0  0  0  0  # atno 17395 bound_to 11000

$$$$
