AV-unprocessed.smi:1933|AV-procd|sdf|7819|dock3
  -GOLD-   22720 9563D 1   1.00000     0.00000
 Structure written by MMmdl.
 48 50  0  0  0  0  0  0  0  0  2 V2000
  145.2228  135.9805  153.9025 O   0  0  0  0  0  0  0  0  0  0  0  0
  146.2079  136.0638  153.1689 C   0  0  0  0  0  0  0  0  0  0  0  0
  147.2083  136.9353  153.3663 N   0  0  0  0  0  0  0  0  0  0  0  0
  147.2906  137.9101  154.4502 C   0  0  0  0  0  0  0  0  0  0  0  0
  148.4481  138.9312  154.2670 C   0  0  2  0  0  0  0  0  0  0  0  0
  149.7667  138.5406  154.9959 C   0  0  2  0  0  0  0  0  0  0  0  0
  150.9446  139.4523  154.6791 C   0  0  0  0  0  0  0  0  0  0  0  0
  152.1339  138.5911  155.0736 C   0  0  0  0  0  0  0  0  0  0  0  0
  151.7749  137.3012  154.6094 O   0  0  0  0  0  0  0  0  0  0  0  0
  150.3569  137.1649  154.6359 C   0  0  0  0  0  0  0  0  0  0  0  0
  148.0366  140.3091  154.6745 N   0  3  0  0  0  0  0  0  0  0  0  0
  147.0909  140.9648  153.7388 C   0  0  0  0  0  0  0  0  0  0  0  0
  146.8956  142.4386  154.1346 C   0  0  0  0  0  0  0  0  0  0  0  0
  146.4461  142.5201  155.4822 O   0  0  0  0  0  0  0  0  0  0  0  0
  147.3827  141.9611  156.3961 C   0  0  0  0  0  0  0  0  0  0  0  0
  147.5806  140.4696  156.0790 C   0  0  0  0  0  0  0  0  0  0  0  0
  146.4380  135.3029  152.0846 N   0  0  0  0  0  0  0  0  0  0  0  0
  145.6569  134.2281  151.5837 C   0  0  0  0  0  0  0  0  0  0  0  0
  146.3978  133.1503  151.0483 C   0  0  0  0  0  0  0  0  0  0  0  0
  145.7171  132.0312  150.5310 C   0  0  0  0  0  0  0  0  0  0  0  0
  144.3113  132.0186  150.5634 C   0  0  0  0  0  0  0  0  0  0  0  0
  143.6507  133.1316  151.1151 C   0  0  0  0  0  0  0  0  0  0  0  0
  144.3009  134.2055  151.6112 N   0  0  0  0  0  0  0  0  0  0  0  0
  147.9743  136.9267  152.7085 H   0  0  0  0  0  0  0  0  0  0  0  0
  146.3311  138.4259  154.4723 H   0  0  0  0  0  0  0  0  0  0  0  0
  147.3823  137.4050  155.4125 H   0  0  0  0  0  0  0  0  0  0  0  0
  148.6839  138.9803  153.2027 H   0  0  0  0  0  0  0  0  0  0  0  0
  149.6068  138.5628  156.0750 H   0  0  0  0  0  0  0  0  0  0  0  0
  150.9850  139.6722  153.6110 H   0  0  0  0  0  0  0  0  0  0  0  0
  150.9167  140.3966  155.2235 H   0  0  0  0  0  0  0  0  0  0  0  0
  153.0704  138.9322  154.6318 H   0  0  0  0  0  0  0  0  0  0  0  0
  152.2511  138.5658  156.1581 H   0  0  0  0  0  0  0  0  0  0  0  0
  150.0746  136.4058  155.3651 H   0  0  0  0  0  0  0  0  0  0  0  0
  150.0314  136.8273  153.6516 H   0  0  0  0  0  0  0  0  0  0  0  0
  147.4729  140.9101  152.7188 H   0  0  0  0  0  0  0  0  0  0  0  0
  146.1297  140.4501  153.7508 H   0  0  0  0  0  0  0  0  0  0  0  0
  147.8239  142.9998  154.0151 H   0  0  0  0  0  0  0  0  0  0  0  0
  146.1553  142.9068  153.4856 H   0  0  0  0  0  0  0  0  0  0  0  0
  148.3297  142.5010  156.3436 H   0  0  0  0  0  0  0  0  0  0  0  0
  147.0024  142.0827  157.4105 H   0  0  0  0  0  0  0  0  0  0  0  0
  146.6374  139.9445  156.2346 H   0  0  0  0  0  0  0  0  0  0  0  0
  148.3074  140.0428  156.7694 H   0  0  0  0  0  0  0  0  0  0  0  0
  147.2818  135.5006  151.5674 H   0  0  0  0  0  0  0  0  0  0  0  0
  147.4778  133.1760  151.0320 H   0  0  0  0  0  0  0  0  0  0  0  0
  146.2653  131.1977  150.1171 H   0  0  0  0  0  0  0  0  0  0  0  0
  143.7541  131.1783  150.1765 H   0  0  0  0  0  0  0  0  0  0  0  0
  142.5720  133.1612  151.1607 H   0  0  0  0  0  0  0  0  0  0  0  0
  148.8840  140.8545  154.6041 H   0  0  0  0  0  0  0  0  0  0  0  0
  1  2  2  0  0  0  0
  2  3  1  0  0  0  0
  2 17  1  0  0  0  0
  3  4  1  0  0  0  0
  3 24  1  0  0  0  0
  4  5  1  0  0  0  0
  4 25  1  0  0  0  0
  4 26  1  0  0  0  0
  5  6  1  0  0  0  0
  5 11  1  0  0  0  0
  5 27  1  0  0  0  0
  6 10  1  0  0  0  0
  6  7  1  0  0  0  0
  6 28  1  0  0  0  0
  7  8  1  0  0  0  0
  7 29  1  0  0  0  0
  7 30  1  0  0  0  0
  8  9  1  0  0  0  0
  8 31  1  0  0  0  0
  8 32  1  0  0  0  0
  9 10  1  0  0  0  0
 10 33  1  0  0  0  0
 10 34  1  0  0  0  0
 11 16  1  0  0  0  0
 11 12  1  0  0  0  0
 11 48  1  0  0  0  0
 12 13  1  0  0  0  0
 12 35  1  0  0  0  0
 12 36  1  0  0  0  0
 13 14  1  0  0  0  0
 13 37  1  0  0  0  0
 13 38  1  0  0  0  0
 14 15  1  0  0  0  0
 15 16  1  0  0  0  0
 15 39  1  0  0  0  0
 15 40  1  0  0  0  0
 16 41  1  0  0  0  0
 16 42  1  0  0  0  0
 17 18  1  0  0  0  0
 17 43  1  0  0  0  0
 18 23  1  0  0  0  0
 18 19  2  0  0  0  0
 19 20  1  0  0  0  0
 19 44  1  0  0  0  0
 20 21  2  0  0  0  0
 20 45  1  0  0  0  0
 21 22  1  0  0  0  0
 21 46  1  0  0  0  0
 22 23  2  0  0  0  0
 22 47  1  0  0  0  0
M  CHG  1  11   1
M  END
> <s_m_source_file>
AV-unprocessed.smi

> <i_m_source_file_index>
1933

> <i_lp_mmshare_version>
43012

> <i_f3d_flags>
0

> <s_epik_input>
bjFbY0hdW2NIXVtjSF1bY0hdYzFbTkhdQyg9TylbTkhdW0NIMl1bQ0BIXShbQ0BASF0yW0NIMl1bQ0gyXU9bQ0gyXTIpTjNbQ0gyXVtDSDJdT1tDSDJdW0NIMl0z

> <s_epik_cmdline>
J2VwaWtfcHl0aG9uJywgJy1waCcsICc3LjAnLCAnLXRuJywgJzgnLCAnLW1hJywgJzIwMCcsICctbWV0YWxfYmluZGluZycsICctaW1hZScsICc8aW5maWxlLm1hZT4nLCAnLW9tYWUnLCAnPG91dGZpbGUubWFlPic=

> <r_epik_Ionization_Penalty>
0.983294

> <r_epik_Ionization_Penalty_Charging>
0.98326

> <r_epik_Ionization_Penalty_Neutral>
3.39688e-05

> <r_epik_State_Penalty>
1.0303

> <r_epik_Charging_Adjusted_Penalty>
2.01356

> <i_epik_Tot_Q>
1

> <i_epik_Tot_abs_Q>
1

> <r_epik_Metal_State_Penalty>
1.0303

> <b_epik_Metal_Only>
0

> <s_lp_Force_Field>
OPLS_2005

> <r_lp_Energy>
40.1747

> <b_lp_Chiralities_Consistent>
1

> <s_lp_Variant>
AV-unprocessed.smi:1933-5

> <Gold.Version>
5.8.1

> <Gold.Id.Protein>
6NUR|6NUR_protein|mol2

> <Gold.PLP.Fitness>
44.3253

> <Gold.PLP.PLP>
-34.9603

> <Gold.PLP.part.hbond>
-2.6354

> <Gold.PLP.part.metal>
0.0000

> <Gold.PLP.part.buried>
-3.9666

> <Gold.PLP.part.nonpolar>
-29.3235

> <Gold.PLP.part.repulsive>
0.5553

> <Gold.PLP.ligand.clash>
0.0000

> <Gold.PLP.ligand.torsion>
0.9939

> <Gold.PLP.Chemscore.Hbond>
2.7093

> <Gold.PLP.Chemscore.CHOScore>
0.9800

> <Gold.PLP.Chemscore.Metal>
0.0000

> <Gold.Chemscore.Hbonds>
donor molecule, donor type, donor heavy atom, donor atom, acceptor molecule, acceptor atom, score
      L1  H     3    24       P1  7948  0.84
      L1  H    17    43       P1  7948  0.82
      P1  H 10752 10764       L1     9  1.00
      L1  C    22    47       P1 10186  0.86

> <Gold.PLP.Chemscore.Internal.Correction>
0.2849

> <Gold.Rescore>
     Score         DG    S(hbond)    S(metal)    S(lipo)     H(rot)  DE(clash)    DE(int)     intcor
     17.96     -19.63       2.70        0.00      82.54       1.77       0.00       1.67       ----

> <Gold.Chemscore.Fitness>
17.9596

> <Gold.Chemscore.DG>
-19.6272

> <Gold.Chemscore.ZeroCoef>
-5.4800

> <Gold.Chemscore.Hbond>
2.6989

> <Gold.Chemscore.Metal>
0.0000

> <Gold.Chemscore.Lipo>
82.5356

> <Gold.Chemscore.Internal_Hbond>
0.0000

> <Gold.Chemscore.DEClash>
0.0000

> <Gold.Chemscore.DEInternal>
1.6676

> <Gold.Chemscore.Rot>
1.7671

> <Gold.Chemscore.Internal.Correction>
   9.000000E+99

> <Gold.Chemscore.Hbonds>
donor molecule, donor type, donor heavy atom, donor atom, acceptor molecule, acceptor atom, score
      L1  H     3    24       P1  7948  0.80
      L1  H    17    43       P1  7948  0.80
      P1  H 10752 10764       L1     9  0.86

> <Gold.Chemscore.Hbond.Weighted>
-9.0143

> <Gold.Chemscore.Metal.Weighted>
-0.0000

> <Gold.Chemscore.Lipo.Weighted>
-9.6567

> <Gold.Chemscore.Internal_Hbond.Weighted>
0.0000

> <Gold.Chemscore.DEClash.Weighted>
0.0000

> <Gold.Chemscore.DEInternal.Weighted>
1.6676

> <Gold.Chemscore.Rot.Weighted>
4.5238

> <Gold.Chemscore.Internal.Correction.Weighted>
   9.000000E+99

> <Gold.Protein.RotatedTorsions>
[ 6907 6896 6895 6894 ] final   18.01 input  -60.11 | X-H torsion
[ 7974 7965 7964 7962 ] final -176.98 input  175.53 | X-H torsion
[ 8008 7997 7996 7995 ] final   38.72 input   59.86 | X-H torsion
[ 10167 10162 10161 10158 ] final  155.49 input  -65.29 | X-H torsion
[ 10718 10713 10712 10709 ] final   33.67 input   66.30 | X-H torsion
[ 10763 10752 10751 10750 ] final  -74.50 input  -60.55 | X-H torsion
[ 11005 11000 10999 10996 ] final  -21.80 input  -57.11 | X-H torsion

> <Gold.Protein.ActiveResidues>
 VAL166  LYS551  ARG553  GLY616  TRP617  ASP618  TYR619  PRO620  LYS621  CYS622 
 ASP623  PHE694  ASN695  SER759  ASP760  ASP761  ALA762  ILE779  LEU786  VAL792 
 PHE793  MET794  SER795  GLU796  ALA797  LYS798  CYS799  TRP800  GLU811  SER814 

> <Gold.Protein.RotatedAtoms>
  151.8586  135.0532  160.0466 H   0  0  0  0  0  0  0  0  0  0  0  0  # atno 6907 bound_to 6896
  152.2680  133.5352  159.5430 H   0  0  0  0  0  0  0  0  0  0  0  0  # atno 6908 bound_to 6896
  150.7141  134.0653  159.3888 H   0  0  0  0  0  0  0  0  0  0  0  0  # atno 6909 bound_to 6896
  144.7127  140.1089  143.6412 H   0  0  0  0  0  0  0  0  0  0  0  0  # atno 7974 bound_to 7965
  155.2248  140.3333  155.4311 H   0  0  0  0  0  0  0  0  0  0  0  0  # atno 8008 bound_to 7997
  156.2319  140.1854  156.7268 H   0  0  0  0  0  0  0  0  0  0  0  0  # atno 8009 bound_to 7997
  154.5992  140.0626  156.9331 H   0  0  0  0  0  0  0  0  0  0  0  0  # atno 8010 bound_to 7997
  139.4821  144.5093  151.8049 H   0  0  0  0  0  0  0  0  0  0  0  0  # atno 10167 bound_to 10162
  157.3008  130.7350  149.6666 H   0  0  0  0  0  0  0  0  0  0  0  0  # atno 10718 bound_to 10713
  154.4739  135.5862  153.6341 H   0  0  0  0  0  0  0  0  0  0  0  0  # atno 10763 bound_to 10752
  152.9838  135.6073  154.3332 H   0  0  0  0  0  0  0  0  0  0  0  0  # atno 10764 bound_to 10752
  154.3216  135.2843  155.2495 H   0  0  0  0  0  0  0  0  0  0  0  0  # atno 10765 bound_to 10752
  140.8596  133.7798  156.0059 H   0  0  0  0  0  0  0  0  0  0  0  0  # atno 11005 bound_to 11000
  145.9472  139.2709  143.1233 LP  0  0  0  0  0  0  0  0  0  0  0  0  # atno 17320 bound_to 7965
  145.9361  140.9013  143.0331 LP  0  0  0  0  0  0  0  0  0  0  0  0  # atno 17321 bound_to 7965
  140.4595  144.1742  150.5905 LP  0  0  0  0  0  0  0  0  0  0  0  0  # atno 17342 bound_to 10162
  140.4500  143.2491  151.9360 LP  0  0  0  0  0  0  0  0  0  0  0  0  # atno 17343 bound_to 10162
  155.9671  130.4280  150.4771 LP  0  0  0  0  0  0  0  0  0  0  0  0  # atno 17370 bound_to 10713
  157.2751  131.0595  151.2234 LP  0  0  0  0  0  0  0  0  0  0  0  0  # atno 17371 bound_to 10713
  140.8698  134.2740  157.5196 LP  0  0  0  0  0  0  0  0  0  0  0  0  # atno 17394 bound_to 11000
  139.8706  134.9561  156.4228 LP  0  0  0  0  0  0  0  0  0  0  0  0  # atno 17395 bound_to 11000

$$$$
