AV-unprocessed.smi:45|AV-procd|sdf|412|dock5
  -GOLD-   2262016273D 1   1.00000     0.00000
 Structure written by MMmdl.
 61 64  0  0  0  0  0  0  0  0  2 V2000
  149.7901  141.5402  156.7723 C   0  0  0  0  0  0  0  0  0  0  0  0
  150.1734  140.4766  155.9128 O   0  0  0  0  0  0  0  0  0  0  0  0
  149.2318  139.9698  155.0409 C   0  0  0  0  0  0  0  0  0  0  0  0
  148.0906  140.6906  154.6054 C   0  0  0  0  0  0  0  0  0  0  0  0
  147.1708  140.1049  153.7144 C   0  0  0  0  0  0  0  0  0  0  0  0
  147.3734  138.7924  153.2438 C   0  0  0  0  0  0  0  0  0  0  0  0
  146.3793  138.1608  152.2891 C   0  0  0  0  0  0  0  0  0  0  0  0
  145.0348  138.0793  152.8408 N   0  0  0  0  0  0  0  0  0  0  0  0
  144.3163  136.8730  152.8463 C   0  0  0  0  0  0  0  0  0  0  0  0
  144.9176  135.7656  152.3361 N   0  3  0  0  0  0  0  0  0  0  0  0
  144.2894  134.5785  152.3273 C   0  0  0  0  0  0  0  0  0  0  0  0
  144.9367  133.4664  151.7909 N   0  0  0  0  0  0  0  0  0  0  0  0
  146.2657  133.0682  152.2433 C   0  0  0  0  0  0  0  0  0  0  0  0
  146.3168  131.5464  152.1163 C   0  0  0  0  0  0  0  0  0  0  0  0
  145.3460  131.2654  150.9768 C   0  0  0  0  0  0  0  0  0  0  0  0
  144.2566  132.3310  151.1653 C   0  0  2  0  0  0  0  0  0  0  0  0
  143.5491  132.6944  149.8424 C   0  0  0  0  0  0  0  0  0  0  0  0
  142.4161  131.8724  149.6638 O   0  0  0  0  0  0  0  0  0  0  0  0
  143.0489  134.4298  152.8097 N   0  0  0  0  0  0  0  0  0  0  0  0
  142.4085  135.4956  153.3251 C   0  0  0  0  0  0  0  0  0  0  0  0
  143.0050  136.7704  153.3785 C   0  0  0  0  0  0  0  0  0  0  0  0
  142.2457  137.9456  153.9322 C   0  0  0  0  0  0  0  0  0  0  0  0
  142.5717  138.4729  154.9957 O   0  0  0  0  0  0  0  0  0  0  0  0
  141.1958  138.3461  153.1976 N   0  0  0  0  0  0  0  0  0  0  0  0
  140.3584  139.4993  153.5051 C   0  0  0  0  0  0  0  0  0  0  0  0
  138.9743  139.0966  153.9842 C   0  0  0  0  0  0  0  0  0  0  0  0
  138.0900  140.0808  154.1750 N   0  0  0  0  0  0  0  0  0  0  0  0
  136.8551  139.7209  154.5875 C   0  0  0  0  0  0  0  0  0  0  0  0
  136.5109  138.3719  154.8076 C   0  0  0  0  0  0  0  0  0  0  0  0
  137.5258  137.4228  154.5724 C   0  0  0  0  0  0  0  0  0  0  0  0
  138.7588  137.7881  154.1593 N   0  0  0  0  0  0  0  0  0  0  0  0
  148.5063  138.0714  153.6691 C   0  0  0  0  0  0  0  0  0  0  0  0
  149.4272  138.6552  154.5612 C   0  0  0  0  0  0  0  0  0  0  0  0
  150.8034  137.7412  155.0660 Cl  0  0  0  0  0  0  0  0  0  0  0  0
  143.5218  131.9606  151.8821 H   0  0  0  0  0  0  0  0  0  0  0  0
  150.6387  141.8230  157.3950 H   0  0  0  0  0  0  0  0  0  0  0  0
  148.9784  141.2427  157.4377 H   0  0  0  0  0  0  0  0  0  0  0  0
  149.4896  142.4223  156.2054 H   0  0  0  0  0  0  0  0  0  0  0  0
  147.8960  141.6976  154.9417 H   0  0  0  0  0  0  0  0  0  0  0  0
  146.3062  140.6678  153.3938 H   0  0  0  0  0  0  0  0  0  0  0  0
  146.3580  138.7508  151.3722 H   0  0  0  0  0  0  0  0  0  0  0  0
  146.7180  137.1596  152.0194 H   0  0  0  0  0  0  0  0  0  0  0  0
  144.6324  138.9050  153.2624 H   0  0  0  0  0  0  0  0  0  0  0  0
  147.0098  133.5351  151.5970 H   0  0  0  0  0  0  0  0  0  0  0  0
  146.4654  133.3788  153.2696 H   0  0  0  0  0  0  0  0  0  0  0  0
  147.3222  131.1691  151.9272 H   0  0  0  0  0  0  0  0  0  0  0  0
  145.9496  131.0853  153.0344 H   0  0  0  0  0  0  0  0  0  0  0  0
  145.8589  131.4059  150.0239 H   0  0  0  0  0  0  0  0  0  0  0  0
  144.9508  130.2492  150.9966 H   0  0  0  0  0  0  0  0  0  0  0  0
  143.2113  133.7297  149.8314 H   0  0  0  0  0  0  0  0  0  0  0  0
  144.2227  132.5714  148.9936 H   0  0  0  0  0  0  0  0  0  0  0  0
  141.6443  132.4181  149.6488 H   0  0  0  0  0  0  0  0  0  0  0  0
  141.4060  135.3230  153.6893 H   0  0  0  0  0  0  0  0  0  0  0  0
  140.9831  137.8481  152.3458 H   0  0  0  0  0  0  0  0  0  0  0  0
  140.8458  140.0798  154.2889 H   0  0  0  0  0  0  0  0  0  0  0  0
  140.2894  140.1564  152.6358 H   0  0  0  0  0  0  0  0  0  0  0  0
  136.1382  140.5132  154.7432 H   0  0  0  0  0  0  0  0  0  0  0  0
  135.5243  138.0817  155.1377 H   0  0  0  0  0  0  0  0  0  0  0  0
  137.3473  136.3673  154.7145 H   0  0  0  0  0  0  0  0  0  0  0  0
  148.6721  137.0645  153.3151 H   0  0  0  0  0  0  0  0  0  0  0  0
  145.8602  135.8488  151.9561 H   0  0  0  0  0  0  0  0  0  0  0  0
  1  2  1  0  0  0  0
  1 36  1  0  0  0  0
  1 37  1  0  0  0  0
  1 38  1  0  0  0  0
  2  3  1  0  0  0  0
  3 33  1  0  0  0  0
  3  4  2  0  0  0  0
  4  5  1  0  0  0  0
  4 39  1  0  0  0  0
  5  6  2  0  0  0  0
  5 40  1  0  0  0  0
  6  7  1  0  0  0  0
  6 32  1  0  0  0  0
  7  8  1  0  0  0  0
  7 41  1  0  0  0  0
  7 42  1  0  0  0  0
  8  9  1  0  0  0  0
  8 43  1  0  0  0  0
  9 21  1  0  0  0  0
  9 10  2  0  0  0  0
 10 11  1  0  0  0  0
 10 61  1  0  0  0  0
 11 12  1  0  0  0  0
 11 19  2  0  0  0  0
 12 16  1  0  0  0  0
 12 13  1  0  0  0  0
 13 14  1  0  0  0  0
 13 44  1  0  0  0  0
 13 45  1  0  0  0  0
 14 15  1  0  0  0  0
 14 46  1  0  0  0  0
 14 47  1  0  0  0  0
 15 16  1  0  0  0  0
 15 48  1  0  0  0  0
 15 49  1  0  0  0  0
 16 35  1  0  0  0  0
 16 17  1  0  0  0  0
 17 18  1  0  0  0  0
 17 50  1  0  0  0  0
 17 51  1  0  0  0  0
 18 52  1  0  0  0  0
 19 20  1  0  0  0  0
 20 21  2  0  0  0  0
 20 53  1  0  0  0  0
 21 22  1  0  0  0  0
 22 23  2  0  0  0  0
 22 24  1  0  0  0  0
 24 25  1  0  0  0  0
 24 54  1  0  0  0  0
 25 26  1  0  0  0  0
 25 55  1  0  0  0  0
 25 56  1  0  0  0  0
 26 31  1  0  0  0  0
 26 27  2  0  0  0  0
 27 28  1  0  0  0  0
 28 29  2  0  0  0  0
 28 57  1  0  0  0  0
 29 30  1  0  0  0  0
 29 58  1  0  0  0  0
 30 31  2  0  0  0  0
 30 59  1  0  0  0  0
 32 33  2  0  0  0  0
 32 60  1  0  0  0  0
 33 34  1  0  0  0  0
M  CHG  1  10   1
M  END
> <s_m_source_file>
AV-unprocessed.smi

> <i_m_source_file_index>
45

> <i_lp_mmshare_version>
43012

> <i_f3d_flags>
0

> <s_epik_input>
W0NIM11PYzFbY0hdW2NIXWMoW2NIXWMxQ2wpW0NIMl1bTkhdYzJuYyhOM1tDSDJdW0NIMl1bQ0gyXVtDQEhdM1tDSDJdW09IXSluW2NIXWMyQyg9TylbTkhdW0NIMl1jNG5bY0hdW2NIXVtjSF1uNA==

> <s_epik_cmdline>
J2VwaWtfcHl0aG9uJywgJy1waCcsICc3LjAnLCAnLXRuJywgJzgnLCAnLW1hJywgJzIwMCcsICctbWV0YWxfYmluZGluZycsICctaW1hZScsICc8aW5maWxlLm1hZT4nLCAnLW9tYWUnLCAnPG91dGZpbGUubWFlPic=

> <r_lp_tautomer_probability>
0.424989

> <r_epik_Ionization_Penalty>
2.31209

> <r_epik_Ionization_Penalty_Charging>
2.31199

> <r_epik_Ionization_Penalty_Neutral>
9.65277e-05

> <r_epik_State_Penalty>
2.29675

> <r_epik_Charging_Adjusted_Penalty>
4.60874

> <i_epik_Tot_Q>
1

> <i_epik_Tot_abs_Q>
1

> <r_epik_Metal_State_Penalty>
2.3404

> <b_epik_Metal_Only>
0

> <s_epik_Chemistry_Notes>
This compound contains an electron-poor aromatic ring that is susceptible to covalent hydrolysis at low pH, typically resulting in measured values for nitrogen ring protonation that are around two units higher than predicted values.

> <s_lp_Force_Field>
OPLS_2005

> <r_lp_Energy>
35.4262

> <b_lp_Chiralities_Consistent>
1

> <s_lp_Variant>
AV-unprocessed.smi:45-6

> <Gold.Version>
5.8.1

> <Gold.Id.Protein>
6NUR|6NUR_protein|mol2

> <Gold.PLP.Fitness>
59.3115

> <Gold.PLP.PLP>
-52.9196

> <Gold.PLP.part.hbond>
-6.6568

> <Gold.PLP.part.metal>
0.0000

> <Gold.PLP.part.buried>
5.2478

> <Gold.PLP.part.nonpolar>
-53.6275

> <Gold.PLP.part.repulsive>
0.7252

> <Gold.PLP.ligand.clash>
0.0000

> <Gold.PLP.ligand.torsion>
2.8009

> <Gold.PLP.Chemscore.Hbond>
3.3658

> <Gold.PLP.Chemscore.CHOScore>
0.0000

> <Gold.PLP.Chemscore.Metal>
0.0000

> <Gold.Chemscore.Hbonds>
donor molecule, donor type, donor heavy atom, donor atom, acceptor molecule, acceptor atom, score
      L1  H     8    43       P1 10175  1.25
      L1  H    18    52       P1 10186  0.76
      P1  H 10785 10796       L1    18  0.81

> <Gold.PLP.Chemscore.Internal.Correction>
1.8962

> <Gold.Rescore>
     Score         DG    S(hbond)    S(metal)    S(lipo)     H(rot)  DE(clash)    DE(int)     intcor
     14.72     -21.17       2.28        0.00     133.29       2.94       3.61       2.84       ----

> <Gold.Chemscore.Fitness>
14.7182

> <Gold.Chemscore.DG>
-21.1670

> <Gold.Chemscore.ZeroCoef>
-5.4800

> <Gold.Chemscore.Hbond>
2.2806

> <Gold.Chemscore.Metal>
0.0000

> <Gold.Chemscore.Lipo>
133.2885

> <Gold.Chemscore.Internal_Hbond>
0.0000

> <Gold.Chemscore.DEClash>
3.6051

> <Gold.Chemscore.DEInternal>
2.8437

> <Gold.Chemscore.Rot>
2.9395

> <Gold.Chemscore.Internal.Correction>
   9.000000E+99

> <Gold.Chemscore.Hbonds>
donor molecule, donor type, donor heavy atom, donor atom, acceptor molecule, acceptor atom, score
      L1  H     8    43       P1 10175  0.60
      L1  H    18    52       P1 10186  0.73
      P1  H 10785 10796       L1    18  0.36

> <Gold.Chemscore.Hbond.Weighted>
-7.6174

> <Gold.Chemscore.Metal.Weighted>
-0.0000

> <Gold.Chemscore.Lipo.Weighted>
-15.5948

> <Gold.Chemscore.Internal_Hbond.Weighted>
0.0000

> <Gold.Chemscore.DEClash.Weighted>
3.6051

> <Gold.Chemscore.DEInternal.Weighted>
2.8437

> <Gold.Chemscore.Rot.Weighted>
7.5251

> <Gold.Chemscore.Internal.Correction.Weighted>
   9.000000E+99

> <Gold.Protein.RotatedTorsions>
[ 6907 6896 6895 6894 ] final    7.15 input  -60.11 | X-H torsion
[ 7974 7965 7964 7962 ] final -151.28 input  175.53 | X-H torsion
[ 8008 7997 7996 7995 ] final   86.17 input   59.86 | X-H torsion
[ 10167 10162 10161 10158 ] final   27.95 input  -65.29 | X-H torsion
[ 10718 10713 10712 10709 ] final  104.54 input   66.30 | X-H torsion
[ 10763 10752 10751 10750 ] final  -66.90 input  -60.55 | X-H torsion
[ 11005 11000 10999 10996 ] final  -86.99 input  -57.11 | X-H torsion

> <Gold.Protein.ActiveResidues>
 VAL166  LYS551  ARG553  GLY616  TRP617  ASP618  TYR619  PRO620  LYS621  CYS622 
 ASP623  PHE694  ASN695  SER759  ASP760  ASP761  ALA762  ILE779  LEU786  VAL792 
 PHE793  MET794  SER795  GLU796  ALA797  LYS798  CYS799  TRP800  GLU811  SER814 

> <Gold.Protein.RotatedAtoms>
  151.6852  135.0955  160.0223 H   0  0  0  0  0  0  0  0  0  0  0  0  # atno 6907 bound_to 6896
  152.3811  133.6543  159.6171 H   0  0  0  0  0  0  0  0  0  0  0  0  # atno 6908 bound_to 6896
  150.7748  133.9028  159.3387 H   0  0  0  0  0  0  0  0  0  0  0  0  # atno 6909 bound_to 6896
  144.7859  140.4819  143.5807 H   0  0  0  0  0  0  0  0  0  0  0  0  # atno 7974 bound_to 7965
  155.9594  140.3394  155.6477 H   0  0  0  0  0  0  0  0  0  0  0  0  # atno 8008 bound_to 7997
  155.6818  140.0738  157.2500 H   0  0  0  0  0  0  0  0  0  0  0  0  # atno 8009 bound_to 7997
  154.4139  140.1673  156.1978 H   0  0  0  0  0  0  0  0  0  0  0  0  # atno 8010 bound_to 7997
  140.4895  144.0490  150.6292 H   0  0  0  0  0  0  0  0  0  0  0  0  # atno 10167 bound_to 10162
  157.6737  131.0806  150.5721 H   0  0  0  0  0  0  0  0  0  0  0  0  # atno 10718 bound_to 10713
  154.3666  135.6104  153.5718 H   0  0  0  0  0  0  0  0  0  0  0  0  # atno 10763 bound_to 10752
  152.9791  135.5828  154.4571 H   0  0  0  0  0  0  0  0  0  0  0  0  # atno 10764 bound_to 10752
  154.4317  135.2848  155.1885 H   0  0  0  0  0  0  0  0  0  0  0  0  # atno 10765 bound_to 10752
  141.1623  133.7486  156.9242 H   0  0  0  0  0  0  0  0  0  0  0  0  # atno 11005 bound_to 11000
  145.5924  139.1497  143.3175 LP  0  0  0  0  0  0  0  0  0  0  0  0  # atno 17320 bound_to 7965
  146.2090  140.6049  142.9068 LP  0  0  0  0  0  0  0  0  0  0  0  0  # atno 17321 bound_to 7965
  140.3755  143.2831  152.0230 LP  0  0  0  0  0  0  0  0  0  0  0  0  # atno 17342 bound_to 10162
  139.4848  144.6196  151.7280 LP  0  0  0  0  0  0  0  0  0  0  0  0  # atno 17343 bound_to 10162
  156.6023  130.4357  149.5892 LP  0  0  0  0  0  0  0  0  0  0  0  0  # atno 17370 bound_to 10713
  156.2497  130.6900  151.1633 LP  0  0  0  0  0  0  0  0  0  0  0  0  # atno 17371 bound_to 10713
  140.1430  134.9280  157.2493 LP  0  0  0  0  0  0  0  0  0  0  0  0  # atno 17394 bound_to 11000
  140.2813  134.3346  155.7342 LP  0  0  0  0  0  0  0  0  0  0  0  0  # atno 17395 bound_to 11000

$$$$
