AV-unprocessed.smi:86|AV-procd|sdf|813|dock1
  -GOLD-   2262017213D 1   1.00000     0.00000
 Structure written by MMmdl.
 51 55  0  0  0  0  0  0  0  0  1 V2000
  148.1875  134.7492  154.3117 O   0  0  0  0  0  0  0  0  0  0  0  0
  149.3652  134.3226  154.9659 C   0  0  0  0  0  0  0  0  0  0  0  0
  150.0586  135.4901  155.6895 C   0  0  0  0  0  0  0  0  0  0  0  0
  150.5116  136.5604  154.6757 C   0  0  0  0  0  0  0  0  0  0  0  0
  151.0658  137.7564  155.2927 N   0  0  0  0  0  0  0  0  0  0  0  0
  152.3958  138.0951  155.3852 C   0  0  0  0  0  0  0  0  0  0  0  0
  152.6400  139.2247  155.9895 N   0  0  0  0  0  0  0  0  0  0  0  0
  151.3860  139.7032  156.3546 C   0  0  0  0  0  0  0  0  0  0  0  0
  150.9141  140.8661  157.0351 C   0  0  0  0  0  0  0  0  0  0  0  0
  151.7082  141.8545  157.5234 N   0  0  0  0  0  0  0  0  0  0  0  0
  151.2577  143.2257  157.7029 C   0  0  0  0  0  0  0  0  0  0  0  0
  152.4553  143.9357  158.3375 C   0  0  1  0  0  0  0  0  0  0  0  0
  152.1510  145.2505  159.0823 C   0  0  0  0  0  0  0  0  0  0  0  0
  151.4741  145.0271  160.4428 C   0  0  0  0  0  0  0  0  0  0  0  0
  152.2856  144.0440  161.3002 C   0  0  1  0  0  0  0  0  0  0  0  0
  151.6326  143.8535  162.5376 O   0  0  0  0  0  0  0  0  0  0  0  0
  152.4227  142.6932  160.5825 C   0  0  0  0  0  0  0  0  0  0  0  0
  153.0974  142.8362  159.2004 C   0  0  1  0  0  0  0  0  0  0  0  0
  152.8835  141.5776  158.3455 C   0  0  0  0  0  0  0  0  0  0  0  0
  149.5712  140.9765  157.2143 N   0  0  0  0  0  0  0  0  0  0  0  0
  148.7434  140.0315  156.7614 C   0  0  0  0  0  0  0  0  0  0  0  0
  149.0404  138.9064  156.1113 N   0  0  0  0  0  0  0  0  0  0  0  0
  150.3854  138.7819  155.9272 C   0  0  0  0  0  0  0  0  0  0  0  0
  149.3233  136.0100  156.9325 C   0  0  0  0  0  0  0  0  0  0  0  0
  150.2060  135.2975  157.8251 O   0  0  0  0  0  0  0  0  0  0  0  0
  151.1080  135.0595  156.7243 C   0  0  0  0  0  0  0  0  0  0  0  0
  148.4006  134.9612  153.4159 H   0  0  0  0  0  0  0  0  0  0  0  0
  149.0861  133.5432  155.6756 H   0  0  0  0  0  0  0  0  0  0  0  0
  150.0251  133.8471  154.2404 H   0  0  0  0  0  0  0  0  0  0  0  0
  151.2483  136.1521  153.9833 H   0  0  0  0  0  0  0  0  0  0  0  0
  149.6723  136.8723  154.0530 H   0  0  0  0  0  0  0  0  0  0  0  0
  153.1873  137.4765  154.9888 H   0  0  0  0  0  0  0  0  0  0  0  0
  150.9838  143.6870  156.7538 H   0  0  0  0  0  0  0  0  0  0  0  0
  150.3899  143.2411  158.3628 H   0  0  0  0  0  0  0  0  0  0  0  0
  153.1487  144.1681  157.5274 H   0  0  0  0  0  0  0  0  0  0  0  0
  153.0891  145.7822  159.2465 H   0  0  0  0  0  0  0  0  0  0  0  0
  151.5389  145.9024  158.4586 H   0  0  0  0  0  0  0  0  0  0  0  0
  151.3716  145.9814  160.9609 H   0  0  0  0  0  0  0  0  0  0  0  0
  150.4627  144.6468  160.2944 H   0  0  0  0  0  0  0  0  0  0  0  0
  153.2747  144.4580  161.4997 H   0  0  0  0  0  0  0  0  0  0  0  0
  150.9316  143.2315  162.4147 H   0  0  0  0  0  0  0  0  0  0  0  0
  152.9948  141.9971  161.1973 H   0  0  0  0  0  0  0  0  0  0  0  0
  151.4318  142.2509  160.4654 H   0  0  0  0  0  0  0  0  0  0  0  0
  154.1600  143.0351  159.3451 H   0  0  0  0  0  0  0  0  0  0  0  0
  152.7618  140.6892  158.9669 H   0  0  0  0  0  0  0  0  0  0  0  0
  153.7357  141.4133  157.6854 H   0  0  0  0  0  0  0  0  0  0  0  0
  147.6931  140.2009  156.9473 H   0  0  0  0  0  0  0  0  0  0  0  0
  149.3932  137.0902  157.0704 H   0  0  0  0  0  0  0  0  0  0  0  0
  148.2884  135.6750  157.0121 H   0  0  0  0  0  0  0  0  0  0  0  0
  151.4090  134.0143  156.6452 H   0  0  0  0  0  0  0  0  0  0  0  0
  151.9798  135.7129  156.7760 H   0  0  0  0  0  0  0  0  0  0  0  0
  1  2  1  0  0  0  0
  1 27  1  0  0  0  0
  2  3  1  0  0  0  0
  2 28  1  0  0  0  0
  2 29  1  0  0  0  0
  3 26  1  0  0  0  0
  3  4  1  0  0  0  0
  3 24  1  0  0  0  0
  4  5  1  0  0  0  0
  4 30  1  0  0  0  0
  4 31  1  0  0  0  0
  5 23  1  0  0  0  0
  5  6  1  0  0  0  0
  6  7  2  0  0  0  0
  6 32  1  0  0  0  0
  7  8  1  0  0  0  0
  8 23  2  0  0  0  0
  8  9  1  0  0  0  0
  9 10  1  0  0  0  0
  9 20  2  0  0  0  0
 10 19  1  0  0  0  0
 10 11  1  0  0  0  0
 11 12  1  0  0  0  0
 11 33  1  0  0  0  0
 11 34  1  0  0  0  0
 12 18  1  0  0  0  0
 12 13  1  0  0  0  0
 12 35  1  0  0  0  0
 13 14  1  0  0  0  0
 13 36  1  0  0  0  0
 13 37  1  0  0  0  0
 14 15  1  0  0  0  0
 14 38  1  0  0  0  0
 14 39  1  0  0  0  0
 15 16  1  0  0  0  0
 15 17  1  0  0  0  0
 15 40  1  0  0  0  0
 16 41  1  0  0  0  0
 17 18  1  0  0  0  0
 17 42  1  0  0  0  0
 17 43  1  0  0  0  0
 18 19  1  0  0  0  0
 18 44  1  0  0  0  0
 19 45  1  0  0  0  0
 19 46  1  0  0  0  0
 20 21  1  0  0  0  0
 21 22  2  0  0  0  0
 21 47  1  0  0  0  0
 22 23  1  0  0  0  0
 24 25  1  0  0  0  0
 24 48  1  0  0  0  0
 24 49  1  0  0  0  0
 25 26  1  0  0  0  0
 26 50  1  0  0  0  0
 26 51  1  0  0  0  0
M  END
> <s_m_source_file>
AV-unprocessed.smi

> <i_m_source_file_index>
86

> <i_lp_mmshare_version>
43012

> <i_f3d_flags>
0

> <s_epik_input>
W0NIMl0xT1tDSDJdQzEoW0NIMl1bT0hdKVtDSDJdbihbY0hdbjIpYyhjMjMpbltjSF1uYzNOKFtDSDJdNClbQ0gyXVtDQEBIXShbQ0BIXTQ1KVtDSDJdW0NASF0oW09IXSlbQ0gyXVtDSDJdNQ==

> <s_epik_cmdline>
J2VwaWtfcHl0aG9uJywgJy1waCcsICc3LjAnLCAnLXRuJywgJzgnLCAnLW1hJywgJzIwMCcsICctbWV0YWxfYmluZGluZycsICctaW1hZScsICc8aW5maWxlLm1hZT4nLCAnLW9tYWUnLCAnPG91dGZpbGUubWFlPic=

> <r_lp_tautomer_probability>
1

> <r_epik_Ionization_Penalty>
0.00425795

> <r_epik_Ionization_Penalty_Charging>
0

> <r_epik_Ionization_Penalty_Neutral>
0.00425795

> <r_epik_State_Penalty>
0.00299946

> <r_epik_Charging_Adjusted_Penalty>
0.00299946

> <i_epik_Tot_Q>
0

> <i_epik_Tot_abs_Q>
0

> <r_epik_Metal_State_Penalty>
-0

> <b_epik_Metal_Only>
0

> <s_lp_Force_Field>
OPLS_2005

> <r_lp_Energy>
54.7951

> <b_lp_Chiralities_Consistent>
1

> <s_lp_Variant>
AV-unprocessed.smi:86-2

> <Gold.Version>
5.8.1

> <Gold.Id.Protein>
6NUR|6NUR_protein|mol2

> <Gold.PLP.Fitness>
54.1196

> <Gold.PLP.PLP>
-47.3536

> <Gold.PLP.part.hbond>
-4.5042

> <Gold.PLP.part.metal>
0.0000

> <Gold.PLP.part.buried>
-6.8290

> <Gold.PLP.part.nonpolar>
-36.4275

> <Gold.PLP.part.repulsive>
0.0523

> <Gold.PLP.ligand.clash>
0.0000

> <Gold.PLP.ligand.torsion>
0.9801

> <Gold.PLP.Chemscore.Hbond>
2.7520

> <Gold.PLP.Chemscore.CHOScore>
0.0000

> <Gold.PLP.Chemscore.Metal>
0.0000

> <Gold.Chemscore.Hbonds>
donor molecule, donor type, donor heavy atom, donor atom, acceptor molecule, acceptor atom, score
      L1  H     1    27       P1  7948  0.94
      P1  H  6896  6907       L1    25  0.74
      P1  H  7997  8008       L1     7  1.00

> <Gold.PLP.Chemscore.Internal.Correction>
0.4701

> <Gold.Rescore>
     Score         DG    S(hbond)    S(metal)    S(lipo)     H(rot)  DE(clash)    DE(int)     intcor
     17.95     -21.64       2.68        0.00     122.16       2.76       2.68       1.01       ----

> <Gold.Chemscore.Fitness>
17.9477

> <Gold.Chemscore.DG>
-21.6444

> <Gold.Chemscore.ZeroCoef>
-5.4800

> <Gold.Chemscore.Hbond>
2.6780

> <Gold.Chemscore.Metal>
0.0000

> <Gold.Chemscore.Lipo>
122.1635

> <Gold.Chemscore.Internal_Hbond>
0.0000

> <Gold.Chemscore.DEClash>
2.6830

> <Gold.Chemscore.DEInternal>
1.0137

> <Gold.Chemscore.Rot>
2.7630

> <Gold.Chemscore.Internal.Correction>
   9.000000E+99

> <Gold.Chemscore.Hbonds>
donor molecule, donor type, donor heavy atom, donor atom, acceptor molecule, acceptor atom, score
      L1  H     1    27       P1  7948  0.76
      P1  H  6896  6907       L1    25  0.67
      P1  H  7997  8008       L1     7  0.98

> <Gold.Chemscore.Hbond.Weighted>
-8.9446

> <Gold.Chemscore.Metal.Weighted>
-0.0000

> <Gold.Chemscore.Lipo.Weighted>
-14.2931

> <Gold.Chemscore.Internal_Hbond.Weighted>
0.0000

> <Gold.Chemscore.DEClash.Weighted>
2.6830

> <Gold.Chemscore.DEInternal.Weighted>
1.0137

> <Gold.Chemscore.Rot.Weighted>
7.0734

> <Gold.Chemscore.Internal.Correction.Weighted>
   9.000000E+99

> <Gold.Protein.RotatedTorsions>
[ 6907 6896 6895 6894 ] final  -79.17 input  -60.11 | X-H torsion
[ 7974 7965 7964 7962 ] final  107.38 input  175.53 | X-H torsion
[ 8008 7997 7996 7995 ] final  -30.47 input   59.86 | X-H torsion
[ 10167 10162 10161 10158 ] final -113.91 input  -65.29 | X-H torsion
[ 10718 10713 10712 10709 ] final -161.61 input   66.30 | X-H torsion
[ 10763 10752 10751 10750 ] final  116.38 input  -60.55 | X-H torsion
[ 11005 11000 10999 10996 ] final   -8.22 input  -57.11 | X-H torsion

> <Gold.Protein.ActiveResidues>
 VAL166  LYS551  ARG553  GLY616  TRP617  ASP618  TYR619  PRO620  LYS621  CYS622 
 ASP623  PHE694  ASN695  SER759  ASP760  ASP761  ALA762  ILE779  LEU786  VAL792 
 PHE793  MET794  SER795  GLU796  ALA797  LYS798  CYS799  TRP800  GLU811  SER814 

> <Gold.Protein.RotatedAtoms>
  150.6956  134.4161  159.5183 H   0  0  0  0  0  0  0  0  0  0  0  0  # atno 6907 bound_to 6896
  152.1912  134.8668  160.0526 H   0  0  0  0  0  0  0  0  0  0  0  0  # atno 6908 bound_to 6896
  151.9622  133.3664  159.4076 H   0  0  0  0  0  0  0  0  0  0  0  0  # atno 6909 bound_to 6896
  145.2943  139.2590  143.3848 H   0  0  0  0  0  0  0  0  0  0  0  0  # atno 7974 bound_to 7965
  154.4249  140.1790  156.1412 H   0  0  0  0  0  0  0  0  0  0  0  0  # atno 8008 bound_to 7997
  155.9990  140.3362  155.6802 H   0  0  0  0  0  0  0  0  0  0  0  0  # atno 8009 bound_to 7997
  155.6268  140.0665  157.2652 H   0  0  0  0  0  0  0  0  0  0  0  0  # atno 8010 bound_to 7997
  140.1067  143.4564  152.1778 H   0  0  0  0  0  0  0  0  0  0  0  0  # atno 10167 bound_to 10162
  156.5987  130.8801  151.2908 H   0  0  0  0  0  0  0  0  0  0  0  0  # atno 10718 bound_to 10713
  153.5364  135.3568  155.2698 H   0  0  0  0  0  0  0  0  0  0  0  0  # atno 10763 bound_to 10752
  154.8722  135.4080  154.3094 H   0  0  0  0  0  0  0  0  0  0  0  0  # atno 10764 bound_to 10752
  153.3792  135.7067  153.6646 H   0  0  0  0  0  0  0  0  0  0  0  0  # atno 10765 bound_to 10752
  140.7211  133.8827  155.8822 H   0  0  0  0  0  0  0  0  0  0  0  0  # atno 11005 bound_to 11000
  146.3174  140.3442  142.8650 LP  0  0  0  0  0  0  0  0  0  0  0  0  # atno 17320 bound_to 7965
  144.9146  140.7797  143.5786 LP  0  0  0  0  0  0  0  0  0  0  0  0  # atno 17321 bound_to 7965
  139.5642  144.7424  151.4070 LP  0  0  0  0  0  0  0  0  0  0  0  0  # atno 17342 bound_to 10162
  140.6948  143.7774  150.7310 LP  0  0  0  0  0  0  0  0  0  0  0  0  # atno 17343 bound_to 10162
  157.7285  130.9658  150.1746 LP  0  0  0  0  0  0  0  0  0  0  0  0  # atno 17370 bound_to 10713
  156.2487  130.3698  149.8256 LP  0  0  0  0  0  0  0  0  0  0  0  0  # atno 17371 bound_to 10713
  141.0002  134.1160  157.4324 LP  0  0  0  0  0  0  0  0  0  0  0  0  # atno 17394 bound_to 11000
  139.8848  135.0066  156.6392 LP  0  0  0  0  0  0  0  0  0  0  0  0  # atno 17395 bound_to 11000

$$$$
