AV-unprocessed.smi:2380|AV-procd|sdf|9456|dock4
  -GOLD-   2272013 83D 1   1.00000     0.00000
 Structure written by MMmdl.
 42 43  0  0  0  0  0  0  0  0  2 V2000
  153.1471  143.4722  160.0225 C   0  0  0  0  0  0  0  0  0  0  0  0
  152.5598  142.4039  159.1243 C   0  0  0  0  0  0  0  0  0  0  0  0
  153.0005  141.0696  159.2095 C   0  0  0  0  0  0  0  0  0  0  0  0
  152.4186  140.1208  158.3460 C   0  0  0  0  0  0  0  0  0  0  0  0
  152.8449  138.6685  158.3834 C   0  0  0  0  0  0  0  0  0  0  0  0
  151.4644  140.4336  157.4435 N   0  0  0  0  0  0  0  0  0  0  0  0
  151.0330  141.7158  157.3519 C   0  0  0  0  0  0  0  0  0  0  0  0
  150.0379  142.1478  156.4354 N   0  0  0  0  0  0  0  0  0  0  0  0
  149.3643  141.4119  155.5337 C   0  0  0  0  0  0  0  0  0  0  0  0
  149.4907  140.1989  155.3647 O   0  0  0  0  0  0  0  0  0  0  0  0
  148.5182  142.1710  154.8218 N   0  0  0  0  0  0  0  0  0  0  0  0
  147.6251  141.6834  153.7708 C   0  0  2  0  0  0  0  0  0  0  0  0
  146.5398  142.7182  153.4087 C   0  0  0  0  0  0  0  0  0  0  0  0
  145.5007  142.8804  154.5319 C   0  0  0  0  0  0  0  0  0  0  0  0
  144.8889  141.5749  154.8835 N   0  3  2  0  0  0  0  0  0  0  0  0
  143.7975  141.7129  155.8714 C   0  0  0  0  0  0  0  0  0  0  0  0
  145.9054  140.5775  155.3009 C   0  0  0  0  0  0  0  0  0  0  0  0
  146.9604  140.3631  154.1999 C   0  0  0  0  0  0  0  0  0  0  0  0
  151.5640  142.7290  158.1812 C   0  0  0  0  0  0  0  0  0  0  0  0
  153.5828  143.0330  160.9202 H   0  0  0  0  0  0  0  0  0  0  0  0
  152.3781  144.1806  160.3315 H   0  0  0  0  0  0  0  0  0  0  0  0
  153.9276  144.0196  159.4940 H   0  0  0  0  0  0  0  0  0  0  0  0
  153.7643  140.7817  159.9171 H   0  0  0  0  0  0  0  0  0  0  0  0
  153.5132  138.4741  159.2227 H   0  0  0  0  0  0  0  0  0  0  0  0
  153.3667  138.4050  157.4631 H   0  0  0  0  0  0  0  0  0  0  0  0
  151.9756  138.0181  158.4846 H   0  0  0  0  0  0  0  0  0  0  0  0
  149.8177  143.1319  156.4688 H   0  0  0  0  0  0  0  0  0  0  0  0
  148.4767  143.1571  155.0342 H   0  0  0  0  0  0  0  0  0  0  0  0
  148.2312  141.4842  152.8850 H   0  0  0  0  0  0  0  0  0  0  0  0
  146.9885  143.6836  153.1720 H   0  0  0  0  0  0  0  0  0  0  0  0
  146.0306  142.3954  152.4997 H   0  0  0  0  0  0  0  0  0  0  0  0
  145.9642  143.3202  155.4167 H   0  0  0  0  0  0  0  0  0  0  0  0
  144.7224  143.5721  154.2070 H   0  0  0  0  0  0  0  0  0  0  0  0
  144.1744  142.0973  156.8199 H   0  0  0  0  0  0  0  0  0  0  0  0
  143.3218  140.7495  156.0569 H   0  0  0  0  0  0  0  0  0  0  0  0
  143.0303  142.3961  155.5057 H   0  0  0  0  0  0  0  0  0  0  0  0
  146.3830  140.9069  156.2250 H   0  0  0  0  0  0  0  0  0  0  0  0
  145.4145  139.6287  155.5209 H   0  0  0  0  0  0  0  0  0  0  0  0
  146.4806  139.9071  153.3327 H   0  0  0  0  0  0  0  0  0  0  0  0
  147.7149  139.6507  154.5363 H   0  0  0  0  0  0  0  0  0  0  0  0
  151.2124  143.7474  158.0974 H   0  0  0  0  0  0  0  0  0  0  0  0
  144.4662  141.2185  154.0381 H   0  0  0  0  0  0  0  0  0  0  0  0
  1  2  1  0  0  0  0
  1 20  1  0  0  0  0
  1 21  1  0  0  0  0
  1 22  1  0  0  0  0
  2 19  1  0  0  0  0
  2  3  2  0  0  0  0
  3  4  1  0  0  0  0
  3 23  1  0  0  0  0
  4  5  1  0  0  0  0
  4  6  2  0  0  0  0
  5 24  1  0  0  0  0
  5 25  1  0  0  0  0
  5 26  1  0  0  0  0
  6  7  1  0  0  0  0
  7  8  1  0  0  0  0
  7 19  2  0  0  0  0
  8  9  1  0  0  0  0
  8 27  1  0  0  0  0
  9 10  2  0  0  0  0
  9 11  1  0  0  0  0
 11 12  1  0  0  0  0
 11 28  1  0  0  0  0
 12 18  1  0  0  0  0
 12 13  1  0  0  0  0
 12 29  1  0  0  0  0
 13 14  1  0  0  0  0
 13 30  1  0  0  0  0
 13 31  1  0  0  0  0
 14 15  1  0  0  0  0
 14 32  1  0  0  0  0
 14 33  1  0  0  0  0
 15 16  1  0  0  0  0
 15 17  1  0  0  0  0
 15 42  1  0  0  0  0
 16 34  1  0  0  0  0
 16 35  1  0  0  0  0
 16 36  1  0  0  0  0
 17 18  1  0  0  0  0
 17 37  1  0  0  0  0
 17 38  1  0  0  0  0
 18 39  1  0  0  0  0
 18 40  1  0  0  0  0
 19 41  1  0  0  0  0
M  CHG  1  15   1
M  END
> <s_m_source_file>
AV-unprocessed.smi

> <i_m_source_file_index>
2380

> <i_lp_mmshare_version>
43012

> <i_f3d_flags>
0

> <s_epik_input>
W0NIM11jMVtjSF1jKFtDSDNdKW5jKFtjSF0xKVtOSF1DKD1PKVtOSF1bQ0hdMltDSDJdW0NIMl1OKFtDSDNdKVtDSDJdW0NIMl0y

> <s_epik_cmdline>
J2VwaWtfcHl0aG9uJywgJy1waCcsICc3LjAnLCAnLXRuJywgJzgnLCAnLW1hJywgJzIwMCcsICctbWV0YWxfYmluZGluZycsICctaW1hZScsICc8aW5maWxlLm1hZT4nLCAnLW9tYWUnLCAnPG91dGZpbGUubWFlPic=

> <r_epik_Ionization_Penalty>
0.00385557

> <r_epik_Ionization_Penalty_Charging>
0.00366825

> <r_epik_Ionization_Penalty_Neutral>
0.000187322

> <r_epik_State_Penalty>
0.00261101

> <r_epik_Charging_Adjusted_Penalty>
0.00627926

> <i_epik_Tot_Q>
1

> <i_epik_Tot_abs_Q>
1

> <r_epik_Metal_State_Penalty>
-0

> <b_epik_Metal_Only>
0

> <s_lp_Force_Field>
OPLS_2005

> <r_lp_Energy>
16.4741

> <b_lp_Chiralities_Consistent>
1

> <s_lp_Variant>
AV-unprocessed.smi:2380-2

> <Gold.Version>
5.8.1

> <Gold.Id.Protein>
6NUR|6NUR_protein|mol2

> <Gold.PLP.Fitness>
44.3714

> <Gold.PLP.PLP>
-32.9065

> <Gold.PLP.part.hbond>
-3.0000

> <Gold.PLP.part.metal>
0.0000

> <Gold.PLP.part.buried>
-6.7691

> <Gold.PLP.part.nonpolar>
-23.3934

> <Gold.PLP.part.repulsive>
0.3187

> <Gold.PLP.ligand.clash>
0.0000

> <Gold.PLP.ligand.torsion>
0.2094

> <Gold.PLP.Chemscore.Hbond>
3.9600

> <Gold.PLP.Chemscore.CHOScore>
0.0000

> <Gold.PLP.Chemscore.Metal>
0.0000

> <Gold.Chemscore.Hbonds>
donor molecule, donor type, donor heavy atom, donor atom, acceptor molecule, acceptor atom, score
      L1  H     8    27       P1  8028  0.99
      L1  H    11    28       P1  8028  1.00
      L1  H    15    42       P1 10175  2.00

> <Gold.PLP.Chemscore.Internal.Correction>
0.0036

> <Gold.Rescore>
     Score         DG    S(hbond)    S(metal)    S(lipo)     H(rot)  DE(clash)    DE(int)     intcor
     18.96     -21.99       2.84        0.00      81.96       1.00       0.10       2.93       ----

> <Gold.Chemscore.Fitness>
18.9610

> <Gold.Chemscore.DG>
-21.9910

> <Gold.Chemscore.ZeroCoef>
-5.4800

> <Gold.Chemscore.Hbond>
2.8390

> <Gold.Chemscore.Metal>
0.0000

> <Gold.Chemscore.Lipo>
81.9567

> <Gold.Chemscore.Internal_Hbond>
0.0000

> <Gold.Chemscore.DEClash>
0.0982

> <Gold.Chemscore.DEInternal>
2.9319

> <Gold.Chemscore.Rot>
1.0000

> <Gold.Chemscore.Internal.Correction>
   9.000000E+99

> <Gold.Chemscore.Hbonds>
donor molecule, donor type, donor heavy atom, donor atom, acceptor molecule, acceptor atom, score
      L1  H     8    27       P1  8028  0.90
      L1  H    11    28       P1  8028  1.00
      L1  H    15    42       P1 10175  0.60

> <Gold.Chemscore.Hbond.Weighted>
-9.4821

> <Gold.Chemscore.Metal.Weighted>
-0.0000

> <Gold.Chemscore.Lipo.Weighted>
-9.5889

> <Gold.Chemscore.Internal_Hbond.Weighted>
0.0000

> <Gold.Chemscore.DEClash.Weighted>
0.0982

> <Gold.Chemscore.DEInternal.Weighted>
2.9319

> <Gold.Chemscore.Rot.Weighted>
2.5600

> <Gold.Chemscore.Internal.Correction.Weighted>
   9.000000E+99

> <Gold.Protein.RotatedTorsions>
[ 6907 6896 6895 6894 ] final  102.93 input  -60.11 | X-H torsion
[ 7974 7965 7964 7962 ] final  143.18 input  175.53 | X-H torsion
[ 8008 7997 7996 7995 ] final -175.35 input   59.86 | X-H torsion
[ 10167 10162 10161 10158 ] final  -78.29 input  -65.29 | X-H torsion
[ 10718 10713 10712 10709 ] final   93.39 input   66.30 | X-H torsion
[ 10763 10752 10751 10750 ] final -134.68 input  -60.55 | X-H torsion
[ 11005 11000 10999 10996 ] final  -13.93 input  -57.11 | X-H torsion

> <Gold.Protein.ActiveResidues>
 VAL166  LYS551  ARG553  GLY616  TRP617  ASP618  TYR619  PRO620  LYS621  CYS622 
 ASP623  PHE694  ASN695  SER759  ASP760  ASP761  ALA762  ILE779  LEU786  VAL792 
 PHE793  MET794  SER795  GLU796  ALA797  LYS798  CYS799  TRP800  GLU811  SER814 

> <Gold.Protein.RotatedAtoms>
  152.5310  133.9901  159.7846 H   0  0  0  0  0  0  0  0  0  0  0  0  # atno 6907 bound_to 6896
  151.0139  133.5931  159.2686 H   0  0  0  0  0  0  0  0  0  0  0  0  # atno 6908 bound_to 6896
  151.2996  135.0771  159.9287 H   0  0  0  0  0  0  0  0  0  0  0  0  # atno 6909 bound_to 6896
  144.8943  139.5513  143.5783 H   0  0  0  0  0  0  0  0  0  0  0  0  # atno 7974 bound_to 7965
  155.9814  140.1182  157.0723 H   0  0  0  0  0  0  0  0  0  0  0  0  # atno 8008 bound_to 7997
  154.4184  140.1143  156.5509 H   0  0  0  0  0  0  0  0  0  0  0  0  # atno 8009 bound_to 7997
  155.6465  140.3473  155.4735 H   0  0  0  0  0  0  0  0  0  0  0  0  # atno 8010 bound_to 7997
  140.4695  143.2430  151.8226 H   0  0  0  0  0  0  0  0  0  0  0  0  # atno 10167 bound_to 10162
  157.6955  131.0476  150.4026 H   0  0  0  0  0  0  0  0  0  0  0  0  # atno 10718 bound_to 10713
  154.8715  135.3727  154.4775 H   0  0  0  0  0  0  0  0  0  0  0  0  # atno 10763 bound_to 10752
  153.5431  135.7026  153.5632 H   0  0  0  0  0  0  0  0  0  0  0  0  # atno 10764 bound_to 10752
  153.3785  135.4003  155.1804 H   0  0  0  0  0  0  0  0  0  0  0  0  # atno 10765 bound_to 10752
  140.7812  133.8361  155.9293 H   0  0  0  0  0  0  0  0  0  0  0  0  # atno 11005 bound_to 11000
  146.3072  139.7621  142.9047 LP  0  0  0  0  0  0  0  0  0  0  0  0  # atno 17320 bound_to 7965
  145.3727  141.0345  143.3222 LP  0  0  0  0  0  0  0  0  0  0  0  0  # atno 17321 bound_to 7965
  139.4816  144.4909  151.9186 LP  0  0  0  0  0  0  0  0  0  0  0  0  # atno 17342 bound_to 10162
  140.3994  144.2512  150.5894 LP  0  0  0  0  0  0  0  0  0  0  0  0  # atno 17343 bound_to 10162
  156.4418  130.3993  149.6692 LP  0  0  0  0  0  0  0  0  0  0  0  0  # atno 17370 bound_to 10713
  156.3873  130.7609  151.2607 LP  0  0  0  0  0  0  0  0  0  0  0  0  # atno 17371 bound_to 10713
  140.9481  134.1814  157.4748 LP  0  0  0  0  0  0  0  0  0  0  0  0  # atno 17394 bound_to 11000
  139.8742  134.9898  156.5475 LP  0  0  0  0  0  0  0  0  0  0  0  0  # atno 17395 bound_to 11000

$$$$
