AV-unprocessed.smi:1454|AV-procd|sdf|5913|dock7
  -GOLD-   22720 5593D 1   1.00000     0.00000
 Structure written by MMmdl.
 44 45  0  0  0  0  0  0  0  0  1 V2000
  152.8250  136.0037  156.6220 O   0  0  0  0  0  0  0  0  0  0  0  0
  152.1200  136.9537  156.9640 C   0  0  0  0  0  0  0  0  0  0  0  0
  152.7304  138.3395  157.1990 C   0  0  0  0  0  0  0  0  0  0  0  0
  151.7338  139.3502  157.8009 C   0  0  0  0  0  0  0  0  0  0  0  0
  152.3974  140.5844  158.2055 N   0  0  0  0  0  0  0  0  0  0  0  0
  151.8607  141.5281  158.9943 C   0  0  0  0  0  0  0  0  0  0  0  0
  150.7225  141.4504  159.4585 O   0  0  0  0  0  0  0  0  0  0  0  0
  152.7474  142.7459  159.3029 C   0  0  0  0  0  0  0  0  0  0  0  0
  153.0341  142.8853  160.8167 C   0  0  0  0  0  0  0  0  0  0  0  0
  152.4749  144.2448  161.2554 C   0  0  0  0  0  0  0  0  0  0  0  0
  151.4616  144.6290  160.1812 C   0  0  0  0  0  0  0  0  0  0  0  0
  152.0642  144.0655  158.8954 C   0  0  0  0  0  0  0  0  0  0  0  0
  150.7951  136.8532  157.1432 N   0  0  0  0  0  0  0  0  0  0  0  0
  150.0310  135.6283  156.9507 C   0  0  0  0  0  0  0  0  0  0  0  0
  150.1735  135.1208  155.5096 C   0  0  0  0  0  0  0  0  0  0  0  0
  149.8388  133.6471  155.3889 C   0  0  0  0  0  0  0  0  0  0  0  0
  150.6667  132.6657  155.9718 C   0  0  0  0  0  0  0  0  0  0  0  0
  150.3166  131.3095  155.8261 C   0  0  0  0  0  0  0  0  0  0  0  0
  149.1506  130.9921  155.1009 C   0  0  0  0  0  0  0  0  0  0  0  0
  148.3505  131.9233  154.5384 N   0  0  0  0  0  0  0  0  0  0  0  0
  148.6934  133.2214  154.6831 C   0  0  0  0  0  0  0  0  0  0  0  0
  153.5892  138.2253  157.8612 H   0  0  0  0  0  0  0  0  0  0  0  0
  153.1145  138.7202  156.2514 H   0  0  0  0  0  0  0  0  0  0  0  0
  150.9334  139.5726  157.0930 H   0  0  0  0  0  0  0  0  0  0  0  0
  151.2573  138.9292  158.6869 H   0  0  0  0  0  0  0  0  0  0  0  0
  153.3383  140.7280  157.8680 H   0  0  0  0  0  0  0  0  0  0  0  0
  153.6864  142.6471  158.7555 H   0  0  0  0  0  0  0  0  0  0  0  0
  152.5602  142.0900  161.3951 H   0  0  0  0  0  0  0  0  0  0  0  0
  154.1029  142.8241  161.0243 H   0  0  0  0  0  0  0  0  0  0  0  0
  152.0344  144.2144  162.2526 H   0  0  0  0  0  0  0  0  0  0  0  0
  153.2802  144.9804  161.2734 H   0  0  0  0  0  0  0  0  0  0  0  0
  150.5039  144.1484  160.3856 H   0  0  0  0  0  0  0  0  0  0  0  0
  151.2914  145.7046  160.1299 H   0  0  0  0  0  0  0  0  0  0  0  0
  152.8141  144.7575  158.5102 H   0  0  0  0  0  0  0  0  0  0  0  0
  151.3120  143.9444  158.1142 H   0  0  0  0  0  0  0  0  0  0  0  0
  150.2845  137.6776  157.4255 H   0  0  0  0  0  0  0  0  0  0  0  0
  150.3841  134.8684  157.6498 H   0  0  0  0  0  0  0  0  0  0  0  0
  148.9813  135.8174  157.1812 H   0  0  0  0  0  0  0  0  0  0  0  0
  149.5212  135.6892  154.8452 H   0  0  0  0  0  0  0  0  0  0  0  0
  151.1924  135.2819  155.1543 H   0  0  0  0  0  0  0  0  0  0  0  0
  151.5555  132.9451  156.5184 H   0  0  0  0  0  0  0  0  0  0  0  0
  150.9273  130.5308  156.2584 H   0  0  0  0  0  0  0  0  0  0  0  0
  148.8535  129.9624  154.9680 H   0  0  0  0  0  0  0  0  0  0  0  0
  148.0350  133.9412  154.2192 H   0  0  0  0  0  0  0  0  0  0  0  0
  1  2  2  0  0  0  0
  2  3  1  0  0  0  0
  2 13  1  0  0  0  0
  3  4  1  0  0  0  0
  3 22  1  0  0  0  0
  3 23  1  0  0  0  0
  4  5  1  0  0  0  0
  4 24  1  0  0  0  0
  4 25  1  0  0  0  0
  5  6  1  0  0  0  0
  5 26  1  0  0  0  0
  6  7  2  0  0  0  0
  6  8  1  0  0  0  0
  8 12  1  0  0  0  0
  8  9  1  0  0  0  0
  8 27  1  0  0  0  0
  9 10  1  0  0  0  0
  9 28  1  0  0  0  0
  9 29  1  0  0  0  0
 10 11  1  0  0  0  0
 10 30  1  0  0  0  0
 10 31  1  0  0  0  0
 11 12  1  0  0  0  0
 11 32  1  0  0  0  0
 11 33  1  0  0  0  0
 12 34  1  0  0  0  0
 12 35  1  0  0  0  0
 13 14  1  0  0  0  0
 13 36  1  0  0  0  0
 14 15  1  0  0  0  0
 14 37  1  0  0  0  0
 14 38  1  0  0  0  0
 15 16  1  0  0  0  0
 15 39  1  0  0  0  0
 15 40  1  0  0  0  0
 16 21  1  0  0  0  0
 16 17  2  0  0  0  0
 17 18  1  0  0  0  0
 17 41  1  0  0  0  0
 18 19  2  0  0  0  0
 18 42  1  0  0  0  0
 19 20  1  0  0  0  0
 19 43  1  0  0  0  0
 20 21  2  0  0  0  0
 21 44  1  0  0  0  0
M  END
> <s_m_source_file>
AV-unprocessed.smi

> <i_m_source_file_index>
1454

> <i_lp_mmshare_version>
43012

> <i_f3d_flags>
0

> <s_epik_input>
W2NIXTFuW2NIXVtjSF1bY0hdYzFbQ0gyXVtDSDJdW05IXUMoPU8pW0NIMl1bQ0gyXVtOSF1DKD1PKVtDSF0yW0NIMl1bQ0gyXVtDSDJdW0NIMl0y

> <s_epik_cmdline>
J2VwaWtfcHl0aG9uJywgJy1waCcsICc3LjAnLCAnLXRuJywgJzgnLCAnLW1hJywgJzIwMCcsICctbWV0YWxfYmluZGluZycsICctaW1hZScsICc8aW5maWxlLm1hZT4nLCAnLW9tYWUnLCAnPG91dGZpbGUubWFlPic=

> <r_epik_Ionization_Penalty>
0.013238

> <r_epik_Ionization_Penalty_Charging>
0

> <r_epik_Ionization_Penalty_Neutral>
0.013238

> <r_epik_State_Penalty>
0.0102918

> <r_epik_Charging_Adjusted_Penalty>
0.0102918

> <i_epik_Tot_Q>
0

> <i_epik_Tot_abs_Q>
0

> <r_epik_Metal_State_Penalty>
0.0100665

> <b_epik_Metal_Only>
0

> <s_lp_Force_Field>
OPLS_2005

> <r_lp_Energy>
20.9977

> <b_lp_Chiralities_Consistent>
1

> <s_lp_Variant>
AV-unprocessed.smi:1454-1

> <Gold.Version>
5.8.1

> <Gold.Id.Protein>
6NUR|6NUR_protein|mol2

> <Gold.PLP.Fitness>
47.4595

> <Gold.PLP.PLP>
-42.0819

> <Gold.PLP.part.hbond>
-1.3704

> <Gold.PLP.part.metal>
0.0000

> <Gold.PLP.part.buried>
-5.3762

> <Gold.PLP.part.nonpolar>
-34.8396

> <Gold.PLP.part.repulsive>
0.2837

> <Gold.PLP.ligand.clash>
0.0884

> <Gold.PLP.ligand.torsion>
0.3439

> <Gold.PLP.Chemscore.Hbond>
1.0000

> <Gold.PLP.Chemscore.CHOScore>
1.0000

> <Gold.PLP.Chemscore.Metal>
0.0000

> <Gold.Chemscore.Hbonds>
donor molecule, donor type, donor heavy atom, donor atom, acceptor molecule, acceptor atom, score
      P1  H 10752 10763       L1     1  1.00

> <Gold.PLP.Chemscore.Internal.Correction>
0.1539

> <Gold.Rescore>
     Score         DG    S(hbond)    S(metal)    S(lipo)     H(rot)  DE(clash)    DE(int)     intcor
     14.30     -16.17       1.00        0.00     108.74       2.10       0.00       1.87       ----

> <Gold.Chemscore.Fitness>
14.2955

> <Gold.Chemscore.DG>
-16.1727

> <Gold.Chemscore.ZeroCoef>
-5.4800

> <Gold.Chemscore.Hbond>
0.9989

> <Gold.Chemscore.Metal>
0.0000

> <Gold.Chemscore.Lipo>
108.7374

> <Gold.Chemscore.Internal_Hbond>
0.0000

> <Gold.Chemscore.DEClash>
0.0030

> <Gold.Chemscore.DEInternal>
1.8743

> <Gold.Chemscore.Rot>
2.0961

> <Gold.Chemscore.Internal.Correction>
   9.000000E+99

> <Gold.Chemscore.Hbonds>
donor molecule, donor type, donor heavy atom, donor atom, acceptor molecule, acceptor atom, score
      P1  H 10752 10763       L1     1  0.98

> <Gold.Chemscore.Hbond.Weighted>
-3.3365

> <Gold.Chemscore.Metal.Weighted>
-0.0000

> <Gold.Chemscore.Lipo.Weighted>
-12.7223

> <Gold.Chemscore.Internal_Hbond.Weighted>
0.0000

> <Gold.Chemscore.DEClash.Weighted>
0.0030

> <Gold.Chemscore.DEInternal.Weighted>
1.8743

> <Gold.Chemscore.Rot.Weighted>
5.3660

> <Gold.Chemscore.Internal.Correction.Weighted>
   9.000000E+99

> <Gold.Protein.RotatedTorsions>
[ 6907 6896 6895 6894 ] final -165.87 input  -60.11 | X-H torsion
[ 7974 7965 7964 7962 ] final   -0.52 input  175.53 | X-H torsion
[ 8008 7997 7996 7995 ] final -148.83 input   59.86 | X-H torsion
[ 10167 10162 10161 10158 ] final   -6.59 input  -65.29 | X-H torsion
[ 10718 10713 10712 10709 ] final -179.85 input   66.30 | X-H torsion
[ 10763 10752 10751 10750 ] final  108.88 input  -60.55 | X-H torsion
[ 11005 11000 10999 10996 ] final  136.34 input  -57.11 | X-H torsion

> <Gold.Protein.ActiveResidues>
 VAL166  LYS551  ARG553  GLY616  TRP617  ASP618  TYR619  PRO620  LYS621  CYS622 
 ASP623  PHE694  ASN695  SER759  ASP760  ASP761  ALA762  ILE779  LEU786  VAL792 
 PHE793  MET794  SER795  GLU796  ALA797  LYS798  CYS799  TRP800  GLU811  SER814 

> <Gold.Protein.RotatedAtoms>
  151.4345  133.3661  159.2772 H   0  0  0  0  0  0  0  0  0  0  0  0  # atno 6907 bound_to 6896
  150.9201  134.8620  159.7494 H   0  0  0  0  0  0  0  0  0  0  0  0  # atno 6908 bound_to 6896
  152.4977  134.4282  159.9555 H   0  0  0  0  0  0  0  0  0  0  0  0  # atno 6909 bound_to 6896
  146.2426  140.1281  142.8338 H   0  0  0  0  0  0  0  0  0  0  0  0  # atno 7974 bound_to 7965
  155.5978  140.0659  157.2741 H   0  0  0  0  0  0  0  0  0  0  0  0  # atno 8008 bound_to 7997
  154.4287  140.1823  156.1189 H   0  0  0  0  0  0  0  0  0  0  0  0  # atno 8009 bound_to 7997
  156.0182  140.3319  155.7015 H   0  0  0  0  0  0  0  0  0  0  0  0  # atno 8010 bound_to 7997
  140.7002  143.6177  150.8642 H   0  0  0  0  0  0  0  0  0  0  0  0  # atno 10167 bound_to 10162
  156.8652  130.9765  151.3079 H   0  0  0  0  0  0  0  0  0  0  0  0  # atno 10718 bound_to 10713
  153.4269  135.3798  155.2146 H   0  0  0  0  0  0  0  0  0  0  0  0  # atno 10763 bound_to 10752
  154.8748  135.3830  154.4315 H   0  0  0  0  0  0  0  0  0  0  0  0  # atno 10764 bound_to 10752
  153.4843  135.7088  153.5983 H   0  0  0  0  0  0  0  0  0  0  0  0  # atno 10765 bound_to 10752
  140.0039  134.9467  157.0133 H   0  0  0  0  0  0  0  0  0  0  0  0  # atno 11005 bound_to 11000
  145.0349  140.8900  143.5087 LP  0  0  0  0  0  0  0  0  0  0  0  0  # atno 17320 bound_to 7965
  145.1352  139.2607  143.5519 LP  0  0  0  0  0  0  0  0  0  0  0  0  # atno 17321 bound_to 7965
  139.9899  143.5859  152.2914 LP  0  0  0  0  0  0  0  0  0  0  0  0  # atno 17342 bound_to 10162
  139.6510  144.7660  151.2148 LP  0  0  0  0  0  0  0  0  0  0  0  0  # atno 17343 bound_to 10162
  157.6227  130.8667  149.9136 LP  0  0  0  0  0  0  0  0  0  0  0  0  # atno 17370 bound_to 10713
  156.0755  130.3679  150.0686 LP  0  0  0  0  0  0  0  0  0  0  0  0  # atno 17371 bound_to 10713
  140.4676  134.1419  155.7199 LP  0  0  0  0  0  0  0  0  0  0  0  0  # atno 17394 bound_to 11000
  141.1663  133.8697  157.1705 LP  0  0  0  0  0  0  0  0  0  0  0  0  # atno 17395 bound_to 11000

$$$$
