AV-unprocessed.smi:1106|AV-procd|sdf|4780|dock8
  -GOLD-   22720 3323D 1   1.00000     0.00000
 Structure written by MMmdl.
 48 49  0  0  0  0  0  0  0  0  2 V2000
  152.6581  139.1096  158.6791 C   0  0  0  0  0  0  0  0  0  0  0  0
  152.5684  138.1643  157.4719 C   0  0  0  0  0  0  0  0  0  0  0  0
  151.4135  137.3057  157.5161 N   0  0  0  0  0  0  0  0  0  0  0  0
  150.5452  137.3118  158.5904 C   0  0  0  0  0  0  0  0  0  0  0  0
  149.4572  136.5145  158.6574 C   0  0  0  0  0  0  0  0  0  0  0  0
  148.5721  136.5452  159.7744 C   0  0  0  0  0  0  0  0  0  0  0  0
  147.8670  136.5854  160.6914 N   0  0  0  0  0  0  0  0  0  0  0  0
  149.1368  135.5813  157.5795 C   0  0  0  0  0  0  0  0  0  0  0  0
  148.1413  134.8541  157.5768 O   0  0  0  0  0  0  0  0  0  0  0  0
  150.0626  135.5828  156.5056 N   0  0  0  0  0  0  0  0  0  0  0  0
  149.8045  134.6829  155.3925 C   0  0  0  0  0  0  0  0  0  0  0  0
  148.4482  134.9429  154.7011 C   0  0  1  0  0  0  0  0  0  0  0  0
  148.5028  136.2029  154.0610 O   0  0  0  0  0  0  0  0  0  0  0  0
  148.1621  133.8931  153.6091 C   0  0  0  0  0  0  0  0  0  0  0  0
  147.2658  134.4190  152.5481 N   0  3  2  0  0  0  0  0  0  0  0  0
  145.9681  134.9178  153.0750 C   0  0  0  0  0  0  0  0  0  0  0  0
  145.1364  135.5831  151.9641 C   0  0  0  0  0  0  0  0  0  0  0  0
  144.9101  134.6452  150.7641 C   0  0  2  0  0  0  0  0  0  0  0  0
  143.8817  133.5387  151.0570 C   0  0  0  0  0  0  0  0  0  0  0  0
  146.2638  134.0870  150.2875 C   0  0  0  0  0  0  0  0  0  0  0  0
  147.0712  133.4547  151.4358 C   0  0  0  0  0  0  0  0  0  0  0  0
  151.1944  136.4293  156.4277 C   0  0  0  0  0  0  0  0  0  0  0  0
  151.9531  136.4123  155.4546 O   0  0  0  0  0  0  0  0  0  0  0  0
  153.5240  139.7656  158.5909 H   0  0  0  0  0  0  0  0  0  0  0  0
  152.7557  138.5592  159.6150 H   0  0  0  0  0  0  0  0  0  0  0  0
  151.7707  139.7391  158.7515 H   0  0  0  0  0  0  0  0  0  0  0  0
  152.4845  138.7318  156.5442 H   0  0  0  0  0  0  0  0  0  0  0  0
  153.4498  137.5283  157.3697 H   0  0  0  0  0  0  0  0  0  0  0  0
  150.7425  137.9850  159.4124 H   0  0  0  0  0  0  0  0  0  0  0  0
  150.6460  134.7198  154.6985 H   0  0  0  0  0  0  0  0  0  0  0  0
  149.8482  133.6733  155.8053 H   0  0  0  0  0  0  0  0  0  0  0  0
  147.6472  134.9505  155.4401 H   0  0  0  0  0  0  0  0  0  0  0  0
  148.5786  136.0659  153.1282 H   0  0  0  0  0  0  0  0  0  0  0  0
  149.1123  133.5734  153.1773 H   0  0  0  0  0  0  0  0  0  0  0  0
  147.7133  132.9974  154.0415 H   0  0  0  0  0  0  0  0  0  0  0  0
  145.4121  134.0930  153.5227 H   0  0  0  0  0  0  0  0  0  0  0  0
  146.1375  135.6430  153.8703 H   0  0  0  0  0  0  0  0  0  0  0  0
  144.1805  135.9231  152.3642 H   0  0  0  0  0  0  0  0  0  0  0  0
  145.6564  136.4797  151.6236 H   0  0  0  0  0  0  0  0  0  0  0  0
  144.4954  135.2440  149.9520 H   0  0  0  0  0  0  0  0  0  0  0  0
  144.2080  132.8731  151.8557 H   0  0  0  0  0  0  0  0  0  0  0  0
  143.7046  132.9280  150.1714 H   0  0  0  0  0  0  0  0  0  0  0  0
  142.9234  133.9655  151.3545 H   0  0  0  0  0  0  0  0  0  0  0  0
  146.1135  133.3593  149.4893 H   0  0  0  0  0  0  0  0  0  0  0  0
  146.8485  134.8976  149.8504 H   0  0  0  0  0  0  0  0  0  0  0  0
  148.0421  133.1395  151.0517 H   0  0  0  0  0  0  0  0  0  0  0  0
  146.5749  132.5579  151.8090 H   0  0  0  0  0  0  0  0  0  0  0  0
  147.7474  135.2111  152.1463 H   0  0  0  0  0  0  0  0  0  0  0  0
  1  2  1  0  0  0  0
  1 24  1  0  0  0  0
  1 25  1  0  0  0  0
  1 26  1  0  0  0  0
  2  3  1  0  0  0  0
  2 27  1  0  0  0  0
  2 28  1  0  0  0  0
  3 22  1  0  0  0  0
  3  4  1  0  0  0  0
  4  5  2  0  0  0  0
  4 29  1  0  0  0  0
  5  6  1  0  0  0  0
  5  8  1  0  0  0  0
  6  7  3  0  0  0  0
  8  9  2  0  0  0  0
  8 10  1  0  0  0  0
 10 11  1  0  0  0  0
 10 22  1  0  0  0  0
 11 12  1  0  0  0  0
 11 30  1  0  0  0  0
 11 31  1  0  0  0  0
 12 13  1  0  0  0  0
 12 14  1  0  0  0  0
 12 32  1  0  0  0  0
 13 33  1  0  0  0  0
 14 15  1  0  0  0  0
 14 34  1  0  0  0  0
 14 35  1  0  0  0  0
 15 21  1  0  0  0  0
 15 16  1  0  0  0  0
 15 48  1  0  0  0  0
 16 17  1  0  0  0  0
 16 36  1  0  0  0  0
 16 37  1  0  0  0  0
 17 18  1  0  0  0  0
 17 38  1  0  0  0  0
 17 39  1  0  0  0  0
 18 19  1  0  0  0  0
 18 20  1  0  0  0  0
 18 40  1  0  0  0  0
 19 41  1  0  0  0  0
 19 42  1  0  0  0  0
 19 43  1  0  0  0  0
 20 21  1  0  0  0  0
 20 44  1  0  0  0  0
 20 45  1  0  0  0  0
 21 46  1  0  0  0  0
 21 47  1  0  0  0  0
 22 23  2  0  0  0  0
M  CHG  1  15   1
M  END
> <s_m_source_file>
AV-unprocessed.smi

> <i_m_source_file_index>
1106

> <i_lp_mmshare_version>
43012

> <i_f3d_flags>
0

> <s_epik_input>
W0NIM11bQ0gyXW4xW2NIXWMoQyNOKWMoPU8pbihjMT1PKVtDSDJdW0NASF0oW09IXSlbQ0gyXU4yW0NIMl1bQ0gyXVtDSF0oW0NIM10pW0NIMl1bQ0gyXTI=

> <s_epik_cmdline>
J2VwaWtfcHl0aG9uJywgJy1waCcsICc3LjAnLCAnLXRuJywgJzgnLCAnLW1hJywgJzIwMCcsICctbWV0YWxfYmluZGluZycsICctaW1hZScsICc8aW5maWxlLm1hZT4nLCAnLW9tYWUnLCAnPG91dGZpbGUubWFlPic=

> <r_epik_Ionization_Penalty>
0.00136816

> <r_epik_Ionization_Penalty_Charging>
0.00136813

> <r_epik_Ionization_Penalty_Neutral>
3.19882e-08

> <r_epik_State_Penalty>
0.000910892

> <r_epik_Charging_Adjusted_Penalty>
0.00227902

> <i_epik_Tot_Q>
1

> <i_epik_Tot_abs_Q>
1

> <r_epik_Metal_State_Penalty>
-0

> <b_epik_Metal_Only>
0

> <s_lp_Force_Field>
OPLS_2005

> <r_lp_Energy>
30.5318

> <b_lp_Chiralities_Consistent>
1

> <s_lp_Variant>
AV-unprocessed.smi:1106-4

> <Gold.Version>
5.8.1

> <Gold.Id.Protein>
6NUR|6NUR_protein|mol2

> <Gold.PLP.Fitness>
46.4823

> <Gold.PLP.PLP>
-30.2330

> <Gold.PLP.part.hbond>
-4.6870

> <Gold.PLP.part.metal>
0.0000

> <Gold.PLP.part.buried>
-4.6370

> <Gold.PLP.part.nonpolar>
-21.6011

> <Gold.PLP.part.repulsive>
0.0497

> <Gold.PLP.ligand.clash>
0.0000

> <Gold.PLP.ligand.torsion>
0.3290

> <Gold.PLP.Chemscore.Hbond>
5.6176

> <Gold.PLP.Chemscore.CHOScore>
0.0000

> <Gold.PLP.Chemscore.Metal>
0.0000

> <Gold.Chemscore.Hbonds>
donor molecule, donor type, donor heavy atom, donor atom, acceptor molecule, acceptor atom, score
      L1  H    13    33       P1  7948  0.49
      L1  H    15    48       P1  7948  2.00
      P1  H  6931  6943       L1     7  0.14
      P1  H 10752 10764       L1    23  0.98

> <Gold.PLP.Chemscore.Internal.Correction>
0.0544

> <Gold.Rescore>
     Score         DG    S(hbond)    S(metal)    S(lipo)     H(rot)  DE(clash)    DE(int)     intcor
     16.92     -18.62       3.77        0.00      59.13       2.48       0.13       1.57       ----

> <Gold.Chemscore.Fitness>
16.9177

> <Gold.Chemscore.DG>
-18.6221

> <Gold.Chemscore.ZeroCoef>
-5.4800

> <Gold.Chemscore.Hbond>
3.7671

> <Gold.Chemscore.Metal>
0.0000

> <Gold.Chemscore.Lipo>
59.1319

> <Gold.Chemscore.Internal_Hbond>
0.0000

> <Gold.Chemscore.DEClash>
0.1345

> <Gold.Chemscore.DEInternal>
1.5700

> <Gold.Chemscore.Rot>
2.4838

> <Gold.Chemscore.Internal.Correction>
   9.000000E+99

> <Gold.Chemscore.Hbonds>
donor molecule, donor type, donor heavy atom, donor atom, acceptor molecule, acceptor atom, score
      L1  H    13    33       P1  7948  0.48
      L1  H    15    48       P1  7948  0.92
      P1  H  6931  6943       L1     7  0.02
      P1  H 10752 10764       L1    23  0.92

> <Gold.Chemscore.Hbond.Weighted>
-12.5821

> <Gold.Chemscore.Metal.Weighted>
-0.0000

> <Gold.Chemscore.Lipo.Weighted>
-6.9184

> <Gold.Chemscore.Internal_Hbond.Weighted>
0.0000

> <Gold.Chemscore.DEClash.Weighted>
0.1345

> <Gold.Chemscore.DEInternal.Weighted>
1.5700

> <Gold.Chemscore.Rot.Weighted>
6.3585

> <Gold.Chemscore.Internal.Correction.Weighted>
   9.000000E+99

> <Gold.Protein.RotatedTorsions>
[ 6907 6896 6895 6894 ] final -131.36 input  -60.11 | X-H torsion
[ 7974 7965 7964 7962 ] final  -27.81 input  175.53 | X-H torsion
[ 8008 7997 7996 7995 ] final   69.23 input   59.86 | X-H torsion
[ 10167 10162 10161 10158 ] final   21.60 input  -65.29 | X-H torsion
[ 10718 10713 10712 10709 ] final  150.49 input   66.30 | X-H torsion
[ 10763 10752 10751 10750 ] final  -56.48 input  -60.55 | X-H torsion
[ 11005 11000 10999 10996 ] final   49.06 input  -57.11 | X-H torsion

> <Gold.Protein.ActiveResidues>
 VAL166  LYS551  ARG553  GLY616  TRP617  ASP618  TYR619  PRO620  LYS621  CYS622 
 ASP623  PHE694  ASN695  SER759  ASP760  ASP761  ALA762  ILE779  LEU786  VAL792 
 PHE793  MET794  SER795  GLU796  ALA797  LYS798  CYS799  TRP800  GLU811  SER814 

> <Gold.Protein.RotatedAtoms>
  150.9501  133.6559  159.2773 H   0  0  0  0  0  0  0  0  0  0  0  0  # atno 6907 bound_to 6896
  151.3918  135.0956  159.9538 H   0  0  0  0  0  0  0  0  0  0  0  0  # atno 6908 bound_to 6896
  152.5106  133.9013  159.7497 H   0  0  0  0  0  0  0  0  0  0  0  0  # atno 6909 bound_to 6896
  146.1332  140.5201  142.8684 H   0  0  0  0  0  0  0  0  0  0  0  0  # atno 7974 bound_to 7965
  155.7204  140.3493  155.5013 H   0  0  0  0  0  0  0  0  0  0  0  0  # atno 8008 bound_to 7997
  155.9274  140.1078  157.1181 H   0  0  0  0  0  0  0  0  0  0  0  0  # atno 8009 bound_to 7997
  154.4079  140.1237  156.4745 H   0  0  0  0  0  0  0  0  0  0  0  0  # atno 8010 bound_to 7997
  140.5414  143.9670  150.6521 H   0  0  0  0  0  0  0  0  0  0  0  0  # atno 10167 bound_to 10162
  157.2828  131.0838  151.1519 H   0  0  0  0  0  0  0  0  0  0  0  0  # atno 10718 bound_to 10713
  154.2073  135.6400  153.5104 H   0  0  0  0  0  0  0  0  0  0  0  0  # atno 10763 bound_to 10752
  152.9998  135.5465  154.6252 H   0  0  0  0  0  0  0  0  0  0  0  0  # atno 10764 bound_to 10752
  154.5680  135.2914  155.0828 H   0  0  0  0  0  0  0  0  0  0  0  0  # atno 10765 bound_to 10752
  140.1136  134.4922  155.8656 H   0  0  0  0  0  0  0  0  0  0  0  0  # atno 11005 bound_to 11000
  144.7712  140.5641  143.6669 LP  0  0  0  0  0  0  0  0  0  0  0  0  # atno 17320 bound_to 7965
  145.5215  139.1476  143.3550 LP  0  0  0  0  0  0  0  0  0  0  0  0  # atno 17321 bound_to 7965
  140.3072  143.3222  152.0915 LP  0  0  0  0  0  0  0  0  0  0  0  0  # atno 17342 bound_to 10162
  139.4990  144.6659  151.6356 LP  0  0  0  0  0  0  0  0  0  0  0  0  # atno 17343 bound_to 10162
  157.2946  130.6813  149.6132 LP  0  0  0  0  0  0  0  0  0  0  0  0  # atno 17370 bound_to 10713
  155.9665  130.4410  150.5324 LP  0  0  0  0  0  0  0  0  0  0  0  0  # atno 17371 bound_to 10713
  141.2136  133.6736  156.6753 LP  0  0  0  0  0  0  0  0  0  0  0  0  # atno 17394 bound_to 11000
  140.3058  134.8127  157.4135 LP  0  0  0  0  0  0  0  0  0  0  0  0  # atno 17395 bound_to 11000

$$$$
