AV-unprocessed.smi:1887|AV-procd|sdf|7656|dock10
  -GOLD-   22720 9393D 1   1.00000     0.00000
 Structure written by MMmdl.
 43 45  0  0  0  0  0  0  0  0  2 V2000
  154.9345  134.9122  158.2101 C   0  0  0  0  0  0  0  0  0  0  0  0
  154.0038  135.0793  157.1565 O   0  0  0  0  0  0  0  0  0  0  0  0
  153.0791  136.1253  157.4039 C   0  0  0  0  0  0  0  0  0  0  0  0
  153.8042  137.4768  157.3455 C   0  0  0  0  0  0  0  0  0  0  0  0
  152.8754  138.6024  157.4186 N   0  0  0  0  0  0  0  0  0  0  0  0
  152.6339  139.4193  158.4764 C   0  0  0  0  0  0  0  0  0  0  0  0
  153.3108  139.2600  159.7036 N   0  0  0  0  0  0  0  0  0  0  0  0
  153.3813  138.0442  160.2843 N   0  0  0  0  0  0  0  0  0  0  0  0
  154.0584  138.2408  161.4027 C   0  0  0  0  0  0  0  0  0  0  0  0
  154.3382  137.0683  162.2982 C   0  0  0  0  0  0  0  0  0  0  0  0
  154.4310  139.6055  161.5804 C   0  0  0  0  0  0  0  0  0  0  0  0
  155.2001  140.2028  162.7268 C   0  0  0  0  0  0  0  0  0  0  0  0
  153.9273  140.2310  160.4717 C   0  0  0  0  0  0  0  0  0  0  0  0
  153.9743  141.6710  160.0672 C   0  0  0  0  0  0  0  0  0  0  0  0
  151.7440  140.3875  158.2508 N   0  0  0  0  0  0  0  0  0  0  0  0
  151.3822  140.1647  156.9299 C   0  0  0  0  0  0  0  0  0  0  0  0
  152.0530  139.1031  156.4058 C   0  0  0  0  0  0  0  0  0  0  0  0
  151.8978  138.6366  155.0110 C   0  0  0  0  0  0  0  0  0  0  0  0
  152.5382  137.6761  154.5882 O   0  0  0  0  0  0  0  0  0  0  0  0
  150.9958  139.3948  154.3105 N   0  5  0  0  0  0  0  0  0  0  0  0
  150.2941  140.4761  154.7992 C   0  0  0  0  0  0  0  0  0  0  0  0
  149.5043  141.1093  154.0974 O   0  0  0  0  0  0  0  0  0  0  0  0
  150.4702  140.8718  156.0996 N   0  0  0  0  0  0  0  0  0  0  0  0
  149.7391  142.0189  156.6453 C   0  0  0  0  0  0  0  0  0  0  0  0
  155.6204  134.1014  157.9651 H   0  0  0  0  0  0  0  0  0  0  0  0
  154.4307  134.6567  159.1431 H   0  0  0  0  0  0  0  0  0  0  0  0
  155.5230  135.8174  158.3644 H   0  0  0  0  0  0  0  0  0  0  0  0
  152.2756  136.0977  156.6666 H   0  0  0  0  0  0  0  0  0  0  0  0
  152.6241  135.9924  158.3863 H   0  0  0  0  0  0  0  0  0  0  0  0
  154.5280  137.5590  158.1553 H   0  0  0  0  0  0  0  0  0  0  0  0
  154.3900  137.5389  156.4300 H   0  0  0  0  0  0  0  0  0  0  0  0
  154.6680  137.3894  163.2861 H   0  0  0  0  0  0  0  0  0  0  0  0
  155.1196  136.4351  161.8780 H   0  0  0  0  0  0  0  0  0  0  0  0
  153.4477  136.4538  162.4333 H   0  0  0  0  0  0  0  0  0  0  0  0
  155.1106  141.2886  162.7609 H   0  0  0  0  0  0  0  0  0  0  0  0
  156.2627  139.9698  162.6593 H   0  0  0  0  0  0  0  0  0  0  0  0
  154.8482  139.8279  163.6878 H   0  0  0  0  0  0  0  0  0  0  0  0
  154.8621  142.1603  160.4668 H   0  0  0  0  0  0  0  0  0  0  0  0
  153.0984  142.2023  160.4390 H   0  0  0  0  0  0  0  0  0  0  0  0
  153.9996  141.7831  158.9832 H   0  0  0  0  0  0  0  0  0  0  0  0
  148.6633  141.8810  156.5278 H   0  0  0  0  0  0  0  0  0  0  0  0
  150.0252  142.9333  156.1241 H   0  0  0  0  0  0  0  0  0  0  0  0
  149.9299  142.1728  157.7073 H   0  0  0  0  0  0  0  0  0  0  0  0
  1  2  1  0  0  0  0
  1 25  1  0  0  0  0
  1 26  1  0  0  0  0
  1 27  1  0  0  0  0
  2  3  1  0  0  0  0
  3  4  1  0  0  0  0
  3 28  1  0  0  0  0
  3 29  1  0  0  0  0
  4  5  1  0  0  0  0
  4 30  1  0  0  0  0
  4 31  1  0  0  0  0
  5 17  1  0  0  0  0
  5  6  1  0  0  0  0
  6  7  1  0  0  0  0
  6 15  2  0  0  0  0
  7 13  1  0  0  0  0
  7  8  1  0  0  0  0
  8  9  2  0  0  0  0
  9 10  1  0  0  0  0
  9 11  1  0  0  0  0
 10 32  1  0  0  0  0
 10 33  1  0  0  0  0
 10 34  1  0  0  0  0
 11 12  1  0  0  0  0
 11 13  2  0  0  0  0
 12 35  1  0  0  0  0
 12 36  1  0  0  0  0
 12 37  1  0  0  0  0
 13 14  1  0  0  0  0
 14 38  1  0  0  0  0
 14 39  1  0  0  0  0
 14 40  1  0  0  0  0
 15 16  1  0  0  0  0
 16 23  1  0  0  0  0
 16 17  2  0  0  0  0
 17 18  1  0  0  0  0
 18 19  2  0  0  0  0
 18 20  1  0  0  0  0
 20 21  1  0  0  0  0
 21 22  2  0  0  0  0
 21 23  1  0  0  0  0
 23 24  1  0  0  0  0
 24 41  1  0  0  0  0
 24 42  1  0  0  0  0
 24 43  1  0  0  0  0
M  CHG  1  20  -1
M  END
> <s_m_source_file>
AV-unprocessed.smi

> <i_m_source_file_index>
1887

> <i_lp_mmshare_version>
43012

> <i_f3d_flags>
0

> <s_epik_input>
W0NIM11uMWMoPU8pW25IXWMoPU8pYyhjMTIpbihbQ0gyXVtDSDJdT1tDSDNdKWMobjIpLW4zbmMoW0NIM10pYyhbQ0gzXSljM1tDSDNd

> <s_epik_cmdline>
J2VwaWtfcHl0aG9uJywgJy1waCcsICc3LjAnLCAnLXRuJywgJzgnLCAnLW1hJywgJzIwMCcsICctbWV0YWxfYmluZGluZycsICctaW1hZScsICc8aW5maWxlLm1hZT4nLCAnLW9tYWUnLCAnPG91dGZpbGUubWFlPic=

> <r_lp_tautomer_probability>
1

> <r_epik_Ionization_Penalty>
3.98818

> <r_epik_Ionization_Penalty_Charging>
0.0180637

> <r_epik_Ionization_Penalty_Neutral>
3.97012

> <r_epik_State_Penalty>
3.96767

> <r_epik_Charging_Adjusted_Penalty>
3.98573

> <i_epik_Tot_Q>
-1

> <i_epik_Tot_abs_Q>
1

> <r_epik_Metal_State_Penalty>
0.612715

> <b_epik_Metal_Only>
1

> <s_lp_Force_Field>
OPLS_2005

> <r_lp_Energy>
28.3599

> <b_lp_Chiralities_Consistent>
1

> <s_lp_Variant>
AV-unprocessed.smi:1887-2

> <Gold.Version>
5.8.1

> <Gold.Id.Protein>
6NUR|6NUR_protein|mol2

> <Gold.PLP.Fitness>
41.3527

> <Gold.PLP.PLP>
-37.0877

> <Gold.PLP.part.hbond>
-4.8971

> <Gold.PLP.part.metal>
0.0000

> <Gold.PLP.part.buried>
0.5707

> <Gold.PLP.part.nonpolar>
-31.7384

> <Gold.PLP.part.repulsive>
0.4489

> <Gold.PLP.ligand.clash>
0.0000

> <Gold.PLP.ligand.torsion>
1.0657

> <Gold.PLP.Chemscore.Hbond>
1.9937

> <Gold.PLP.Chemscore.CHOScore>
0.0000

> <Gold.PLP.Chemscore.Metal>
0.0000

> <Gold.Chemscore.Hbonds>
donor molecule, donor type, donor heavy atom, donor atom, acceptor molecule, acceptor atom, score
      P1  H  8011  8017       L1    22  0.45
      P1  H 10752 10763       L1     2  1.00
      P1  H 10752 10765       L1    19  0.54

> <Gold.PLP.Chemscore.Internal.Correction>
0.4152

> <Gold.Rescore>
     Score         DG    S(hbond)    S(metal)    S(lipo)     H(rot)  DE(clash)    DE(int)     intcor
     11.98     -13.93       1.32        0.00      67.12       1.48       0.08       1.87       ----

> <Gold.Chemscore.Fitness>
11.9811

> <Gold.Chemscore.DG>
-13.9303

> <Gold.Chemscore.ZeroCoef>
-5.4800

> <Gold.Chemscore.Hbond>
1.3158

> <Gold.Chemscore.Metal>
0.0000

> <Gold.Chemscore.Lipo>
67.1153

> <Gold.Chemscore.Internal_Hbond>
0.0000

> <Gold.Chemscore.DEClash>
0.0813

> <Gold.Chemscore.DEInternal>
1.8679

> <Gold.Chemscore.Rot>
1.4832

> <Gold.Chemscore.Internal.Correction>
   9.000000E+99

> <Gold.Chemscore.Hbonds>
donor molecule, donor type, donor heavy atom, donor atom, acceptor molecule, acceptor atom, score
      P1  H  8011  8017       L1    22  0.44
      P1  H 10752 10763       L1     2  0.24
      P1  H 10752 10765       L1    19  0.50

> <Gold.Chemscore.Hbond.Weighted>
-4.3948

> <Gold.Chemscore.Metal.Weighted>
-0.0000

> <Gold.Chemscore.Lipo.Weighted>
-7.8525

> <Gold.Chemscore.Internal_Hbond.Weighted>
0.0000

> <Gold.Chemscore.DEClash.Weighted>
0.0813

> <Gold.Chemscore.DEInternal.Weighted>
1.8679

> <Gold.Chemscore.Rot.Weighted>
3.7970

> <Gold.Chemscore.Internal.Correction.Weighted>
   9.000000E+99

> <Gold.Protein.RotatedTorsions>
[ 6907 6896 6895 6894 ] final -157.75 input  -60.11 | X-H torsion
[ 7974 7965 7964 7962 ] final  -82.53 input  175.53 | X-H torsion
[ 8008 7997 7996 7995 ] final  172.79 input   59.86 | X-H torsion
[ 10167 10162 10161 10158 ] final  -95.84 input  -65.29 | X-H torsion
[ 10718 10713 10712 10709 ] final   75.18 input   66.30 | X-H torsion
[ 10763 10752 10751 10750 ] final  159.77 input  -60.55 | X-H torsion
[ 11005 11000 10999 10996 ] final  -14.72 input  -57.11 | X-H torsion

> <Gold.Protein.ActiveResidues>
 VAL166  LYS551  ARG553  GLY616  TRP617  ASP618  TYR619  PRO620  LYS621  CYS622 
 ASP623  PHE694  ASN695  SER759  ASP760  ASP761  ALA762  ILE779  LEU786  VAL792 
 PHE793  MET794  SER795  GLU796  ALA797  LYS798  CYS799  TRP800  GLU811  SER814 

> <Gold.Protein.RotatedAtoms>
  151.3077  133.4094  159.2644 H   0  0  0  0  0  0  0  0  0  0  0  0  # atno 6907 bound_to 6896
  151.0141  134.9420  159.8034 H   0  0  0  0  0  0  0  0  0  0  0  0  # atno 6908 bound_to 6896
  152.5308  134.3041  159.9142 H   0  0  0  0  0  0  0  0  0  0  0  0  # atno 6909 bound_to 6896
  145.5321  140.9520  143.1597 H   0  0  0  0  0  0  0  0  0  0  0  0  # atno 7974 bound_to 7965
  156.1140  140.1477  156.9299 H   0  0  0  0  0  0  0  0  0  0  0  0  # atno 8008 bound_to 7997
  154.4787  140.0886  156.7368 H   0  0  0  0  0  0  0  0  0  0  0  0  # atno 8009 bound_to 7997
  155.4546  140.3436  155.4307 H   0  0  0  0  0  0  0  0  0  0  0  0  # atno 8010 bound_to 7997
  140.3000  143.3168  152.0258 H   0  0  0  0  0  0  0  0  0  0  0  0  # atno 10167 bound_to 10162
  157.6623  130.9714  150.1316 H   0  0  0  0  0  0  0  0  0  0  0  0  # atno 10718 bound_to 10713
  154.2370  135.2776  155.2868 H   0  0  0  0  0  0  0  0  0  0  0  0  # atno 10763 bound_to 10752
  154.5577  135.5656  153.6982 H   0  0  0  0  0  0  0  0  0  0  0  0  # atno 10764 bound_to 10752
  153.0008  135.6290  154.2513 H   0  0  0  0  0  0  0  0  0  0  0  0  # atno 10765 bound_to 10752
  140.7893  133.8301  155.9364 H   0  0  0  0  0  0  0  0  0  0  0  0  # atno 11005 bound_to 11000
  144.7620  139.6933  143.7230 LP  0  0  0  0  0  0  0  0  0  0  0  0  # atno 17320 bound_to 7965
  146.2037  139.5348  142.9726 LP  0  0  0  0  0  0  0  0  0  0  0  0  # atno 17321 bound_to 7965
  139.4917  144.6463  151.6772 LP  0  0  0  0  0  0  0  0  0  0  0  0  # atno 17342 bound_to 10162
  140.5659  144.0191  150.6192 LP  0  0  0  0  0  0  0  0  0  0  0  0  # atno 17343 bound_to 10162
  156.2161  130.3670  149.8611 LP  0  0  0  0  0  0  0  0  0  0  0  0  # atno 17370 bound_to 10713
  156.6477  130.8730  151.3525 LP  0  0  0  0  0  0  0  0  0  0  0  0  # atno 17371 bound_to 10713
  140.9406  134.1906  157.4800 LP  0  0  0  0  0  0  0  0  0  0  0  0  # atno 17394 bound_to 11000
  139.8733  134.9870  156.5349 LP  0  0  0  0  0  0  0  0  0  0  0  0  # atno 17395 bound_to 11000

$$$$
