AV-unprocessed.smi:1005|AV-procd|sdf|4389|dock4
  -GOLD-   22720 2313D 1   1.00000     0.00000
 Structure written by MMmdl.
 55 57  0  0  0  0  0  0  0  0  1 V2000
  153.0238  143.1840  161.7011 C   0  0  0  0  0  0  0  0  0  0  0  0
  152.4759  142.7529  160.3521 C   0  0  0  0  0  0  0  0  0  0  0  0
  152.8823  141.5124  159.8092 C   0  0  0  0  0  0  0  0  0  0  0  0
  152.4008  141.0784  158.5544 C   0  0  0  0  0  0  0  0  0  0  0  0
  152.6608  139.9208  157.8402 N   0  0  0  0  0  0  0  0  0  0  0  0
  151.9247  140.1077  156.7478 C   0  0  0  0  0  0  0  0  0  0  0  0
  151.2177  141.2510  156.6714 N   0  0  0  0  0  0  0  0  0  0  0  0
  150.3588  141.6913  155.5888 C   0  0  0  0  0  0  0  0  0  0  0  0
  148.9378  141.1052  155.7108 C   0  0  1  0  0  0  0  0  0  0  0  0
  148.0628  142.1077  156.1869 O   0  0  0  0  0  0  0  0  0  0  0  0
  148.3833  140.5754  154.3734 C   0  0  0  0  0  0  0  0  0  0  0  0
  147.4553  139.4490  154.4825 N   0  0  0  0  0  0  0  0  0  0  0  0
  148.0083  138.3886  155.3161 C   0  0  0  0  0  0  0  0  0  0  0  0
  147.0391  137.2022  155.4499 C   0  0  0  0  0  0  0  0  0  0  0  0
  146.6922  136.7236  154.1544 O   0  0  0  0  0  0  0  0  0  0  0  0
  146.0857  137.7202  153.3339 C   0  0  2  0  0  0  0  0  0  0  0  0
  145.7116  137.1152  151.9672 C   0  0  0  0  0  0  0  0  0  0  0  0
  144.7666  135.9977  152.0067 N   0  0  0  0  0  0  0  0  0  0  0  0
  144.6726  135.2951  150.7327 C   0  0  0  0  0  0  0  0  0  0  0  0
  143.4496  136.4534  152.4286 C   0  0  0  0  0  0  0  0  0  0  0  0
  147.0814  138.8869  153.1867 C   0  0  0  0  0  0  0  0  0  0  0  0
  151.4965  141.9274  157.8529 C   0  0  0  0  0  0  0  0  0  0  0  0
  151.0796  143.1600  158.3848 C   0  0  0  0  0  0  0  0  0  0  0  0
  151.5690  143.5781  159.6394 C   0  0  0  0  0  0  0  0  0  0  0  0
  151.1123  144.9120  160.2032 C   0  0  0  0  0  0  0  0  0  0  0  0
  153.7140  142.4436  162.1063 H   0  0  0  0  0  0  0  0  0  0  0  0
  152.2131  143.3144  162.4182 H   0  0  0  0  0  0  0  0  0  0  0  0
  153.5621  144.1277  161.6107 H   0  0  0  0  0  0  0  0  0  0  0  0
  153.5715  140.8828  160.3524 H   0  0  0  0  0  0  0  0  0  0  0  0
  151.9028  139.3750  155.9544 H   0  0  0  0  0  0  0  0  0  0  0  0
  150.3330  142.7818  155.5702 H   0  0  0  0  0  0  0  0  0  0  0  0
  150.8237  141.3760  154.6542 H   0  0  0  0  0  0  0  0  0  0  0  0
  148.9296  140.3095  156.4556 H   0  0  0  0  0  0  0  0  0  0  0  0
  148.3100  142.9316  155.7959 H   0  0  0  0  0  0  0  0  0  0  0  0
  147.8953  141.3922  153.8393 H   0  0  0  0  0  0  0  0  0  0  0  0
  149.2289  140.2755  153.7527 H   0  0  0  0  0  0  0  0  0  0  0  0
  148.9499  138.0375  154.8907 H   0  0  0  0  0  0  0  0  0  0  0  0
  148.2400  138.7782  156.3079 H   0  0  0  0  0  0  0  0  0  0  0  0
  147.5030  136.3947  156.0165 H   0  0  0  0  0  0  0  0  0  0  0  0
  146.1380  137.4972  155.9896 H   0  0  0  0  0  0  0  0  0  0  0  0
  145.1791  138.0886  153.8182 H   0  0  0  0  0  0  0  0  0  0  0  0
  145.2582  137.9123  151.3762 H   0  0  0  0  0  0  0  0  0  0  0  0
  146.6162  136.8275  151.4290 H   0  0  0  0  0  0  0  0  0  0  0  0
  143.9208  134.5065  150.7806 H   0  0  0  0  0  0  0  0  0  0  0  0
  145.6172  134.8175  150.4751 H   0  0  0  0  0  0  0  0  0  0  0  0
  144.3979  135.9754  149.9256 H   0  0  0  0  0  0  0  0  0  0  0  0
  142.7566  135.6151  152.5081 H   0  0  0  0  0  0  0  0  0  0  0  0
  143.0349  137.1712  151.7193 H   0  0  0  0  0  0  0  0  0  0  0  0
  143.4992  136.9315  153.4074 H   0  0  0  0  0  0  0  0  0  0  0  0
  146.6199  139.6508  152.5634 H   0  0  0  0  0  0  0  0  0  0  0  0
  147.9728  138.5464  152.6573 H   0  0  0  0  0  0  0  0  0  0  0  0
  150.3894  143.7783  157.8304 H   0  0  0  0  0  0  0  0  0  0  0  0
  150.4175  145.4125  159.5281 H   0  0  0  0  0  0  0  0  0  0  0  0
  151.9645  145.5744  160.3568 H   0  0  0  0  0  0  0  0  0  0  0  0
  150.6061  144.7699  161.1583 H   0  0  0  0  0  0  0  0  0  0  0  0
  1  2  1  0  0  0  0
  1 26  1  0  0  0  0
  1 27  1  0  0  0  0
  1 28  1  0  0  0  0
  2 24  1  0  0  0  0
  2  3  2  0  0  0  0
  3  4  1  0  0  0  0
  3 29  1  0  0  0  0
  4 22  2  0  0  0  0
  4  5  1  0  0  0  0
  5  6  2  0  0  0  0
  6  7  1  0  0  0  0
  6 30  1  0  0  0  0
  7  8  1  0  0  0  0
  7 22  1  0  0  0  0
  8  9  1  0  0  0  0
  8 31  1  0  0  0  0
  8 32  1  0  0  0  0
  9 10  1  0  0  0  0
  9 11  1  0  0  0  0
  9 33  1  0  0  0  0
 10 34  1  0  0  0  0
 11 12  1  0  0  0  0
 11 35  1  0  0  0  0
 11 36  1  0  0  0  0
 12 21  1  0  0  0  0
 12 13  1  0  0  0  0
 13 14  1  0  0  0  0
 13 37  1  0  0  0  0
 13 38  1  0  0  0  0
 14 15  1  0  0  0  0
 14 39  1  0  0  0  0
 14 40  1  0  0  0  0
 15 16  1  0  0  0  0
 16 17  1  0  0  0  0
 16 21  1  0  0  0  0
 16 41  1  0  0  0  0
 17 18  1  0  0  0  0
 17 42  1  0  0  0  0
 17 43  1  0  0  0  0
 18 19  1  0  0  0  0
 18 20  1  0  0  0  0
 19 44  1  0  0  0  0
 19 45  1  0  0  0  0
 19 46  1  0  0  0  0
 20 47  1  0  0  0  0
 20 48  1  0  0  0  0
 20 49  1  0  0  0  0
 21 50  1  0  0  0  0
 21 51  1  0  0  0  0
 22 23  1  0  0  0  0
 23 24  2  0  0  0  0
 23 52  1  0  0  0  0
 24 25  1  0  0  0  0
 25 53  1  0  0  0  0
 25 54  1  0  0  0  0
 25 55  1  0  0  0  0
M  END
> <s_m_source_file>
AV-unprocessed.smi

> <i_m_source_file_index>
1005

> <i_lp_mmshare_version>
43012

> <i_f3d_flags>
0

> <s_epik_input>
W0NIM11jKFtjSF0xKWMoW0NIM10pW2NIXWMoYzEyKW4oW2NIXW4yKVtDSDJdW0NASF0oW09IXSlbQ0gyXU4zW0NIMl1bQ0gyXU9bQ0BIXShbQ0gyXTMpW0NIMl1OKFtDSDNdKVtDSDNd

> <s_epik_cmdline>
J2VwaWtfcHl0aG9uJywgJy1waCcsICc3LjAnLCAnLXRuJywgJzgnLCAnLW1hJywgJzIwMCcsICctbWV0YWxfYmluZGluZycsICctaW1hZScsICc8aW5maWxlLm1hZT4nLCAnLW9tYWUnLCAnPG91dGZpbGUubWFlPic=

> <r_epik_Ionization_Penalty>
2.78613

> <r_epik_Ionization_Penalty_Charging>
0

> <r_epik_Ionization_Penalty_Neutral>
2.78613

> <r_epik_State_Penalty>
2.57336

> <r_epik_Charging_Adjusted_Penalty>
2.57336

> <i_epik_Tot_Q>
0

> <i_epik_Tot_abs_Q>
0

> <r_epik_Metal_State_Penalty>
2.49087

> <b_epik_Metal_Only>
0

> <s_lp_Force_Field>
OPLS_2005

> <r_lp_Energy>
32.9837

> <b_lp_Chiralities_Consistent>
1

> <s_lp_Variant>
AV-unprocessed.smi:1005-28

> <Gold.Version>
5.8.1

> <Gold.Id.Protein>
6NUR|6NUR_protein|mol2

> <Gold.PLP.Fitness>
48.0942

> <Gold.PLP.PLP>
-44.8787

> <Gold.PLP.part.hbond>
-2.0000

> <Gold.PLP.part.metal>
0.0000

> <Gold.PLP.part.buried>
-5.2048

> <Gold.PLP.part.nonpolar>
-37.4489

> <Gold.PLP.part.repulsive>
0.7781

> <Gold.PLP.ligand.clash>
0.0000

> <Gold.PLP.ligand.torsion>
1.4351

> <Gold.PLP.Chemscore.Hbond>
2.0000

> <Gold.PLP.Chemscore.CHOScore>
0.0000

> <Gold.PLP.Chemscore.Metal>
0.0000

> <Gold.Chemscore.Hbonds>
donor molecule, donor type, donor heavy atom, donor atom, acceptor molecule, acceptor atom, score
      L1  H    10    34       P1  8028  1.00
      P1  H  7997  8010       L1     5  0.81

> <Gold.PLP.Chemscore.Internal.Correction>
0.0856

> <Gold.Rescore>
     Score         DG    S(hbond)    S(metal)    S(lipo)     H(rot)  DE(clash)    DE(int)     intcor
     16.81     -18.47       1.20        0.00     126.91       2.29       0.23       1.43       ----

> <Gold.Chemscore.Fitness>
16.8101

> <Gold.Chemscore.DG>
-18.4654

> <Gold.Chemscore.ZeroCoef>
-5.4800

> <Gold.Chemscore.Hbond>
1.1969

> <Gold.Chemscore.Metal>
0.0000

> <Gold.Chemscore.Lipo>
126.9133

> <Gold.Chemscore.Internal_Hbond>
0.0000

> <Gold.Chemscore.DEClash>
0.2254

> <Gold.Chemscore.DEInternal>
1.4298

> <Gold.Chemscore.Rot>
2.2895

> <Gold.Chemscore.Internal.Correction>
   9.000000E+99

> <Gold.Chemscore.Hbonds>
donor molecule, donor type, donor heavy atom, donor atom, acceptor molecule, acceptor atom, score
      L1  H    10    34       P1  8028  0.95
      P1  H  7997  8010       L1     5  0.16

> <Gold.Chemscore.Hbond.Weighted>
-3.9977

> <Gold.Chemscore.Metal.Weighted>
-0.0000

> <Gold.Chemscore.Lipo.Weighted>
-14.8489

> <Gold.Chemscore.Internal_Hbond.Weighted>
0.0000

> <Gold.Chemscore.DEClash.Weighted>
0.2254

> <Gold.Chemscore.DEInternal.Weighted>
1.4298

> <Gold.Chemscore.Rot.Weighted>
5.8612

> <Gold.Chemscore.Internal.Correction.Weighted>
   9.000000E+99

> <Gold.Protein.RotatedTorsions>
[ 6907 6896 6895 6894 ] final  149.48 input  -60.11 | X-H torsion
[ 7974 7965 7964 7962 ] final  -32.37 input  175.53 | X-H torsion
[ 8008 7997 7996 7995 ] final   32.73 input   59.86 | X-H torsion
[ 10167 10162 10161 10158 ] final -119.91 input  -65.29 | X-H torsion
[ 10718 10713 10712 10709 ] final -127.59 input   66.30 | X-H torsion
[ 10763 10752 10751 10750 ] final  -89.96 input  -60.55 | X-H torsion
[ 11005 11000 10999 10996 ] final  -36.58 input  -57.11 | X-H torsion

> <Gold.Protein.ActiveResidues>
 VAL166  LYS551  ARG553  GLY616  TRP617  ASP618  TYR619  PRO620  LYS621  CYS622 
 ASP623  PHE694  ASN695  SER759  ASP760  ASP761  ALA762  ILE779  LEU786  VAL792 
 PHE793  MET794  SER795  GLU796  ALA797  LYS798  CYS799  TRP800  GLU811  SER814 

> <Gold.Protein.RotatedAtoms>
  152.1274  133.4388  159.4704 H   0  0  0  0  0  0  0  0  0  0  0  0  # atno 6907 bound_to 6896
  150.6876  134.2462  159.4501 H   0  0  0  0  0  0  0  0  0  0  0  0  # atno 6908 bound_to 6896
  152.0343  134.9749  160.0623 H   0  0  0  0  0  0  0  0  0  0  0  0  # atno 6909 bound_to 6896
  146.0995  140.5784  142.8827 H   0  0  0  0  0  0  0  0  0  0  0  0  # atno 7974 bound_to 7965
  155.1273  140.3254  155.4483 H   0  0  0  0  0  0  0  0  0  0  0  0  # atno 8008 bound_to 7997
  156.2645  140.2016  156.6342 H   0  0  0  0  0  0  0  0  0  0  0  0  # atno 8009 bound_to 7997
  154.6639  140.0544  157.0079 H   0  0  0  0  0  0  0  0  0  0  0  0  # atno 8010 bound_to 7997
  140.0415  143.5149  152.2127 H   0  0  0  0  0  0  0  0  0  0  0  0  # atno 10167 bound_to 10162
  156.1871  130.6770  151.0378 H   0  0  0  0  0  0  0  0  0  0  0  0  # atno 10718 bound_to 10713
  154.6608  135.5322  153.8015 H   0  0  0  0  0  0  0  0  0  0  0  0  # atno 10763 bound_to 10752
  153.0441  135.6505  154.0875 H   0  0  0  0  0  0  0  0  0  0  0  0  # atno 10764 bound_to 10752
  154.0784  135.2949  155.3275 H   0  0  0  0  0  0  0  0  0  0  0  0  # atno 10765 bound_to 10752
  140.9885  133.7017  156.1808 H   0  0  0  0  0  0  0  0  0  0  0  0  # atno 11005 bound_to 11000
  144.7421  140.4971  143.6861 LP  0  0  0  0  0  0  0  0  0  0  0  0  # atno 17320 bound_to 7965
  145.5882  139.1493  143.3197 LP  0  0  0  0  0  0  0  0  0  0  0  0  # atno 17321 bound_to 7965
  139.6011  144.7582  151.3170 LP  0  0  0  0  0  0  0  0  0  0  0  0  # atno 17342 bound_to 10162
  140.7258  143.7008  150.7846 LP  0  0  0  0  0  0  0  0  0  0  0  0  # atno 17343 bound_to 10162
  157.6906  131.0811  150.7119 LP  0  0  0  0  0  0  0  0  0  0  0  0  # atno 17370 bound_to 10713
  156.7176  130.4671  149.5531 LP  0  0  0  0  0  0  0  0  0  0  0  0  # atno 17371 bound_to 10713
  140.7076  134.4496  157.5583 LP  0  0  0  0  0  0  0  0  0  0  0  0  # atno 17394 bound_to 11000
  139.8981  134.8620  156.2014 LP  0  0  0  0  0  0  0  0  0  0  0  0  # atno 17395 bound_to 11000

$$$$
