AV-unprocessed.smi:2547|AV-procd|sdf|10006|dock6
  -GOLD-   2272014 53D 1   1.00000     0.00000
 Structure written by MMmdl.
 44 45  0  0  0  0  0  0  0  0  2 V2000
  144.2427  138.8582  155.3327 C   0  0  0  0  0  0  0  0  0  0  0  0
  145.1544  139.4452  154.3271 N   0  3  2  0  0  0  0  0  0  0  0  0
  145.9842  138.4182  153.6495 C   0  0  0  0  0  0  0  0  0  0  0  0
  146.8261  139.0420  152.5212 C   0  0  0  0  0  0  0  0  0  0  0  0
  147.6926  140.2096  153.0261 C   0  0  2  0  0  0  0  0  0  0  0  0
  148.7722  139.7163  153.8822 N   0  0  0  0  0  0  0  0  0  0  0  0
  149.6559  140.4579  154.5669 C   0  0  0  0  0  0  0  0  0  0  0  0
  149.6323  141.6917  154.5308 O   0  0  0  0  0  0  0  0  0  0  0  0
  150.5238  139.6222  155.2614 N   0  0  0  0  0  0  0  0  0  0  0  0
  151.2068  140.0170  156.2970 C   0  0  0  0  0  0  0  0  0  0  0  0
  152.0951  139.0865  156.9731 C   0  0  0  0  0  0  0  0  0  0  0  0
  152.8144  139.4679  158.0482 C   0  0  0  0  0  0  0  0  0  0  0  0
  152.7264  140.8175  158.5656 C   0  0  0  0  0  0  0  0  0  0  0  0
  151.9138  141.7075  157.9651 C   0  0  0  0  0  0  0  0  0  0  0  0
  151.8331  142.9940  158.4624 N   0  0  0  0  0  0  0  0  0  0  0  0
  152.6078  143.4059  159.6208 C   0  0  0  0  0  0  0  0  0  0  0  0
  151.2155  144.0628  157.6958 C   0  0  0  0  0  0  0  0  0  0  0  0
  151.1720  141.3094  156.8543 N   0  0  0  0  0  0  0  0  0  0  0  0
  146.8185  141.2223  153.7868 C   0  0  0  0  0  0  0  0  0  0  0  0
  145.9766  140.5475  154.8854 C   0  0  0  0  0  0  0  0  0  0  0  0
  144.8029  138.3898  156.1433 H   0  0  0  0  0  0  0  0  0  0  0  0
  143.6022  138.1025  154.8770 H   0  0  0  0  0  0  0  0  0  0  0  0
  143.5968  139.6255  155.7612 H   0  0  0  0  0  0  0  0  0  0  0  0
  146.6304  137.9289  154.3798 H   0  0  0  0  0  0  0  0  0  0  0  0
  145.3383  137.6444  153.2328 H   0  0  0  0  0  0  0  0  0  0  0  0
  147.4528  138.2807  152.0546 H   0  0  0  0  0  0  0  0  0  0  0  0
  146.1584  139.4055  151.7387 H   0  0  0  0  0  0  0  0  0  0  0  0
  148.1126  140.7162  152.1559 H   0  0  0  0  0  0  0  0  0  0  0  0
  148.8586  138.7137  153.9643 H   0  0  0  0  0  0  0  0  0  0  0  0
  152.2029  138.0664  156.6336 H   0  0  0  0  0  0  0  0  0  0  0  0
  153.4672  138.7563  158.5320 H   0  0  0  0  0  0  0  0  0  0  0  0
  153.3118  141.1016  159.4283 H   0  0  0  0  0  0  0  0  0  0  0  0
  152.8296  142.5520  160.2616 H   0  0  0  0  0  0  0  0  0  0  0  0
  152.0602  144.1393  160.2133 H   0  0  0  0  0  0  0  0  0  0  0  0
  153.5517  143.8510  159.3054 H   0  0  0  0  0  0  0  0  0  0  0  0
  150.4735  143.6634  157.0033 H   0  0  0  0  0  0  0  0  0  0  0  0
  151.9694  144.5975  157.1177 H   0  0  0  0  0  0  0  0  0  0  0  0
  150.7152  144.7736  158.3537 H   0  0  0  0  0  0  0  0  0  0  0  0
  147.4397  142.0082  154.2186 H   0  0  0  0  0  0  0  0  0  0  0  0
  146.1503  141.7180  153.0812 H   0  0  0  0  0  0  0  0  0  0  0  0
  145.3255  141.2895  155.3489 H   0  0  0  0  0  0  0  0  0  0  0  0
  146.6226  140.1592  155.6746 H   0  0  0  0  0  0  0  0  0  0  0  0
  144.5673  139.8564  153.6154 H   0  0  0  0  0  0  0  0  0  0  0  0
  150.5821  142.0223  156.4495 H   0  0  0  0  0  0  0  0  0  0  0  0
  1  2  1  0  0  0  0
  1 21  1  0  0  0  0
  1 22  1  0  0  0  0
  1 23  1  0  0  0  0
  2 20  1  0  0  0  0
  2  3  1  0  0  0  0
  2 43  1  0  0  0  0
  3  4  1  0  0  0  0
  3 24  1  0  0  0  0
  3 25  1  0  0  0  0
  4  5  1  0  0  0  0
  4 26  1  0  0  0  0
  4 27  1  0  0  0  0
  5  6  1  0  0  0  0
  5 19  1  0  0  0  0
  5 28  1  0  0  0  0
  6  7  1  0  0  0  0
  6 29  1  0  0  0  0
  7  8  2  0  0  0  0
  7  9  1  0  0  0  0
  9 10  2  0  0  0  0
 10 18  1  0  0  0  0
 10 11  1  0  0  0  0
 11 12  2  0  0  0  0
 11 30  1  0  0  0  0
 12 13  1  0  0  0  0
 12 31  1  0  0  0  0
 13 14  2  0  0  0  0
 13 32  1  0  0  0  0
 14 15  1  0  0  0  0
 14 18  1  0  0  0  0
 15 16  1  0  0  0  0
 15 17  1  0  0  0  0
 16 33  1  0  0  0  0
 16 34  1  0  0  0  0
 16 35  1  0  0  0  0
 17 36  1  0  0  0  0
 17 37  1  0  0  0  0
 17 38  1  0  0  0  0
 18 44  1  0  0  0  0
 19 20  1  0  0  0  0
 19 39  1  0  0  0  0
 19 40  1  0  0  0  0
 20 41  1  0  0  0  0
 20 42  1  0  0  0  0
M  CHG  1   2   1
M  END
> <s_m_source_file>
AV-unprocessed.smi

> <i_m_source_file_index>
2547

> <i_lp_mmshare_version>
43012

> <i_f3d_flags>
0

> <s_epik_input>
W0NIM11OMVtDSDJdW0NIMl1bQ0hdKFtDSDJdW0NIMl0xKVtOSF1DKD1PKVtOSF1jMltjSF1bY0hdW2NIXWMobjIpTihbQ0gzXSlbQ0gzXQ==

> <s_epik_cmdline>
J2VwaWtfcHl0aG9uJywgJy1waCcsICc3LjAnLCAnLXRuJywgJzgnLCAnLW1hJywgJzIwMCcsICctbWV0YWxfYmluZGluZycsICctaW1hZScsICc8aW5maWxlLm1hZT4nLCAnLW9tYWUnLCAnPG91dGZpbGUubWFlPic=

> <r_lp_tautomer_probability>
0.999994

> <r_epik_Ionization_Penalty>
1.33208

> <r_epik_Ionization_Penalty_Charging>
1.33208

> <r_epik_Ionization_Penalty_Neutral>
6.0327e-08

> <r_epik_State_Penalty>
3.49719

> <r_epik_Charging_Adjusted_Penalty>
4.82927

> <i_epik_Tot_Q>
1

> <i_epik_Tot_abs_Q>
1

> <r_epik_Metal_State_Penalty>
3.51567

> <b_epik_Metal_Only>
1

> <s_lp_Force_Field>
OPLS_2005

> <r_lp_Energy>
40.5886

> <b_lp_Chiralities_Consistent>
1

> <s_lp_Variant>
AV-unprocessed.smi:2547-6

> <Gold.Version>
5.8.1

> <Gold.Id.Protein>
6NUR|6NUR_protein|mol2

> <Gold.PLP.Fitness>
36.4805

> <Gold.PLP.PLP>
-30.4226

> <Gold.PLP.part.hbond>
-4.0000

> <Gold.PLP.part.metal>
0.0000

> <Gold.PLP.part.buried>
2.7958

> <Gold.PLP.part.nonpolar>
-29.4406

> <Gold.PLP.part.repulsive>
0.3992

> <Gold.PLP.ligand.clash>
0.0000

> <Gold.PLP.ligand.torsion>
0.1785

> <Gold.PLP.Chemscore.Hbond>
2.1092

> <Gold.PLP.Chemscore.CHOScore>
0.0000

> <Gold.PLP.Chemscore.Metal>
0.0000

> <Gold.Chemscore.Hbonds>
donor molecule, donor type, donor heavy atom, donor atom, acceptor molecule, acceptor atom, score
      L1  H     2    43       P1 10175  2.00
      P1  H  8011  8017       L1     8  0.13

> <Gold.PLP.Chemscore.Internal.Correction>
0.0873

> <Gold.Rescore>
     Score         DG    S(hbond)    S(metal)    S(lipo)     H(rot)  DE(clash)    DE(int)     intcor
     12.93     -15.26       1.17        0.00      72.21       1.00       1.46       0.87       ----

> <Gold.Chemscore.Fitness>
12.9285

> <Gold.Chemscore.DG>
-15.2624

> <Gold.Chemscore.ZeroCoef>
-5.4800

> <Gold.Chemscore.Hbond>
1.1657

> <Gold.Chemscore.Metal>
0.0000

> <Gold.Chemscore.Lipo>
72.2135

> <Gold.Chemscore.Internal_Hbond>
0.0000

> <Gold.Chemscore.DEClash>
1.4632

> <Gold.Chemscore.DEInternal>
0.8707

> <Gold.Chemscore.Rot>
1.0000

> <Gold.Chemscore.Internal.Correction>
   9.000000E+99

> <Gold.Chemscore.Hbonds>
donor molecule, donor type, donor heavy atom, donor atom, acceptor molecule, acceptor atom, score
      L1  H     2    43       P1 10175  0.97
      P1  H  8011  8017       L1     8  0.11

> <Gold.Chemscore.Hbond.Weighted>
-3.8934

> <Gold.Chemscore.Metal.Weighted>
-0.0000

> <Gold.Chemscore.Lipo.Weighted>
-8.4490

> <Gold.Chemscore.Internal_Hbond.Weighted>
0.0000

> <Gold.Chemscore.DEClash.Weighted>
1.4632

> <Gold.Chemscore.DEInternal.Weighted>
0.8707

> <Gold.Chemscore.Rot.Weighted>
2.5600

> <Gold.Chemscore.Internal.Correction.Weighted>
   9.000000E+99

> <Gold.Protein.RotatedTorsions>
[ 6907 6896 6895 6894 ] final  -33.36 input  -60.11 | X-H torsion
[ 7974 7965 7964 7962 ] final  161.48 input  175.53 | X-H torsion
[ 8008 7997 7996 7995 ] final -173.37 input   59.86 | X-H torsion
[ 10167 10162 10161 10158 ] final  -59.85 input  -65.29 | X-H torsion
[ 10718 10713 10712 10709 ] final   10.34 input   66.30 | X-H torsion
[ 10763 10752 10751 10750 ] final  137.06 input  -60.55 | X-H torsion
[ 11005 11000 10999 10996 ] final   62.32 input  -57.11 | X-H torsion

> <Gold.Protein.ActiveResidues>
 VAL166  LYS551  ARG553  GLY616  TRP617  ASP618  TYR619  PRO620  LYS621  CYS622 
 ASP623  PHE694  ASN695  SER759  ASP760  ASP761  ALA762  ILE779  LEU786  VAL792 
 PHE793  MET794  SER795  GLU796  ALA797  LYS798  CYS799  TRP800  GLU811  SER814 

> <Gold.Protein.RotatedAtoms>
  151.0666  134.9771  159.8287 H   0  0  0  0  0  0  0  0  0  0  0  0  # atno 6907 bound_to 6896
  152.5403  134.2351  159.8850 H   0  0  0  0  0  0  0  0  0  0  0  0  # atno 6908 bound_to 6896
  151.2373  133.4375  159.2639 H   0  0  0  0  0  0  0  0  0  0  0  0  # atno 6909 bound_to 6896
  144.7683  139.7904  143.6306 H   0  0  0  0  0  0  0  0  0  0  0  0  # atno 7974 bound_to 7965
  155.9566  140.1136  157.0932 H   0  0  0  0  0  0  0  0  0  0  0  0  # atno 8008 bound_to 7997
  154.4122  140.1190  156.5189 H   0  0  0  0  0  0  0  0  0  0  0  0  # atno 8009 bound_to 7997
  155.6775  140.3473  155.4844 H   0  0  0  0  0  0  0  0  0  0  0  0  # atno 8010 bound_to 7997
  140.6109  143.2387  151.5711 H   0  0  0  0  0  0  0  0  0  0  0  0  # atno 10167 bound_to 10162
  156.9796  130.6000  149.5675 H   0  0  0  0  0  0  0  0  0  0  0  0  # atno 10718 bound_to 10713
  153.8668  135.3060  155.3440 H   0  0  0  0  0  0  0  0  0  0  0  0  # atno 10763 bound_to 10752
  154.7824  135.4828  153.9876 H   0  0  0  0  0  0  0  0  0  0  0  0  # atno 10764 bound_to 10752
  153.1429  135.6828  153.9094 H   0  0  0  0  0  0  0  0  0  0  0  0  # atno 10765 bound_to 10752
  140.0100  134.6310  155.9795 H   0  0  0  0  0  0  0  0  0  0  0  0  # atno 11005 bound_to 11000
  146.1810  139.5002  142.9866 LP  0  0  0  0  0  0  0  0  0  0  0  0  # atno 17320 bound_to 7965
  145.6400  141.0286  143.1817 LP  0  0  0  0  0  0  0  0  0  0  0  0  # atno 17321 bound_to 7965
  139.5360  144.2779  152.1253 LP  0  0  0  0  0  0  0  0  0  0  0  0  # atno 17342 bound_to 10162
  140.1978  144.4688  150.6446 LP  0  0  0  0  0  0  0  0  0  0  0  0  # atno 17343 bound_to 10162
  156.0250  130.5344  150.8381 LP  0  0  0  0  0  0  0  0  0  0  0  0  # atno 17370 bound_to 10713
  157.5536  131.0944  150.9661 LP  0  0  0  0  0  0  0  0  0  0  0  0  # atno 17371 bound_to 10713
  141.1704  133.6537  156.4632 LP  0  0  0  0  0  0  0  0  0  0  0  0  # atno 17394 bound_to 11000
  140.4571  134.6875  157.5068 LP  0  0  0  0  0  0  0  0  0  0  0  0  # atno 17395 bound_to 11000

$$$$
