AV-unprocessed.smi:951|AV-procd|sdf|4251|dock2
  -GOLD-   22720 2153D 1   1.00000     0.00000
 Structure written by MMmdl.
 51 53  0  0  0  0  0  0  0  0  1 V2000
  146.7522  139.8997  151.9858 O   0  0  0  0  0  0  0  0  0  0  0  0
  146.7924  139.1880  152.9891 C   0  0  0  0  0  0  0  0  0  0  0  0
  146.4705  137.8842  152.9625 N   0  0  0  0  0  0  0  0  0  0  0  0
  146.0325  137.1548  151.7828 C   0  0  0  0  0  0  0  0  0  0  0  0
  144.8511  136.2394  152.1324 C   0  0  0  0  0  0  0  0  0  0  0  0
  144.9100  134.9169  151.3922 C   0  0  0  0  0  0  0  0  0  0  0  0
  146.0567  134.0975  151.4689 C   0  0  0  0  0  0  0  0  0  0  0  0
  146.0560  132.8756  150.7686 C   0  0  0  0  0  0  0  0  0  0  0  0
  144.9150  132.5217  150.0232 C   0  0  0  0  0  0  0  0  0  0  0  0
  143.8200  133.4089  150.0115 C   0  0  0  0  0  0  0  0  0  0  0  0
  143.8107  134.5831  150.6789 N   0  0  0  0  0  0  0  0  0  0  0  0
  147.2142  139.8098  154.3408 C   0  0  2  0  0  0  0  0  0  0  0  0
  146.4045  141.0837  154.6258 C   0  0  0  0  0  0  0  0  0  0  0  0
  147.2547  142.2024  154.0456 C   0  0  0  0  0  0  0  0  0  0  0  0
  148.6903  141.7225  154.2630 C   0  0  0  0  0  0  0  0  0  0  0  0
  148.6165  140.2622  154.3792 N   0  0  0  0  0  0  0  0  0  0  0  0
  149.6712  139.4240  154.5240 C   0  0  0  0  0  0  0  0  0  0  0  0
  150.8277  139.8458  154.5153 O   0  0  0  0  0  0  0  0  0  0  0  0
  149.4130  137.9121  154.7287 C   0  0  0  0  0  0  0  0  0  0  0  0
  148.5574  137.6515  155.9911 C   0  0  0  0  0  0  0  0  0  0  0  0
  149.3553  137.7948  157.2986 C   0  0  0  0  0  0  0  0  0  0  0  0
  150.5737  136.8604  157.2994 C   0  0  0  0  0  0  0  0  0  0  0  0
  151.4837  137.1336  156.0931 C   0  0  0  0  0  0  0  0  0  0  0  0
  150.7064  137.0567  154.7621 C   0  0  0  0  0  0  0  0  0  0  0  0
  146.5249  137.3656  153.8271 H   0  0  0  0  0  0  0  0  0  0  0  0
  145.7401  137.8613  151.0041 H   0  0  0  0  0  0  0  0  0  0  0  0
  146.8659  136.5679  151.3938 H   0  0  0  0  0  0  0  0  0  0  0  0
  144.8348  136.0427  153.2056 H   0  0  0  0  0  0  0  0  0  0  0  0
  143.9099  136.7397  151.8991 H   0  0  0  0  0  0  0  0  0  0  0  0
  146.9159  134.3954  152.0519 H   0  0  0  0  0  0  0  0  0  0  0  0
  146.9143  132.2210  150.8035 H   0  0  0  0  0  0  0  0  0  0  0  0
  144.8787  131.5925  149.4742 H   0  0  0  0  0  0  0  0  0  0  0  0
  142.9281  133.1695  149.4516 H   0  0  0  0  0  0  0  0  0  0  0  0
  147.0259  139.0762  155.1269 H   0  0  0  0  0  0  0  0  0  0  0  0
  145.3940  141.0704  154.2142 H   0  0  0  0  0  0  0  0  0  0  0  0
  146.3117  141.2202  155.7042 H   0  0  0  0  0  0  0  0  0  0  0  0
  147.0559  142.2953  152.9770 H   0  0  0  0  0  0  0  0  0  0  0  0
  147.0569  143.1705  154.5067 H   0  0  0  0  0  0  0  0  0  0  0  0
  149.3384  142.0409  153.4459 H   0  0  0  0  0  0  0  0  0  0  0  0
  149.0812  142.1363  155.1935 H   0  0  0  0  0  0  0  0  0  0  0  0
  148.8525  137.5514  153.8676 H   0  0  0  0  0  0  0  0  0  0  0  0
  147.6990  138.3239  156.0181 H   0  0  0  0  0  0  0  0  0  0  0  0
  148.1421  136.6444  155.9364 H   0  0  0  0  0  0  0  0  0  0  0  0
  149.6795  138.8278  157.4311 H   0  0  0  0  0  0  0  0  0  0  0  0
  148.7133  137.5646  158.1490 H   0  0  0  0  0  0  0  0  0  0  0  0
  151.1370  136.9832  158.2248 H   0  0  0  0  0  0  0  0  0  0  0  0
  150.2382  135.8227  157.2766 H   0  0  0  0  0  0  0  0  0  0  0  0
  151.9537  138.1097  156.2070 H   0  0  0  0  0  0  0  0  0  0  0  0
  152.3009  136.4118  156.0802 H   0  0  0  0  0  0  0  0  0  0  0  0
  150.4351  136.0158  154.5823 H   0  0  0  0  0  0  0  0  0  0  0  0
  151.3641  137.3346  153.9374 H   0  0  0  0  0  0  0  0  0  0  0  0
  1  2  2  0  0  0  0
  2  3  1  0  0  0  0
  2 12  1  0  0  0  0
  3  4  1  0  0  0  0
  3 25  1  0  0  0  0
  4  5  1  0  0  0  0
  4 26  1  0  0  0  0
  4 27  1  0  0  0  0
  5  6  1  0  0  0  0
  5 28  1  0  0  0  0
  5 29  1  0  0  0  0
  6 11  1  0  0  0  0
  6  7  2  0  0  0  0
  7  8  1  0  0  0  0
  7 30  1  0  0  0  0
  8  9  2  0  0  0  0
  8 31  1  0  0  0  0
  9 10  1  0  0  0  0
  9 32  1  0  0  0  0
 10 11  2  0  0  0  0
 10 33  1  0  0  0  0
 12 16  1  0  0  0  0
 12 13  1  0  0  0  0
 12 34  1  0  0  0  0
 13 14  1  0  0  0  0
 13 35  1  0  0  0  0
 13 36  1  0  0  0  0
 14 15  1  0  0  0  0
 14 37  1  0  0  0  0
 14 38  1  0  0  0  0
 15 16  1  0  0  0  0
 15 39  1  0  0  0  0
 15 40  1  0  0  0  0
 16 17  1  0  0  0  0
 17 18  2  0  0  0  0
 17 19  1  0  0  0  0
 19 24  1  0  0  0  0
 19 20  1  0  0  0  0
 19 41  1  0  0  0  0
 20 21  1  0  0  0  0
 20 42  1  0  0  0  0
 20 43  1  0  0  0  0
 21 22  1  0  0  0  0
 21 44  1  0  0  0  0
 21 45  1  0  0  0  0
 22 23  1  0  0  0  0
 22 46  1  0  0  0  0
 22 47  1  0  0  0  0
 23 24  1  0  0  0  0
 23 48  1  0  0  0  0
 23 49  1  0  0  0  0
 24 50  1  0  0  0  0
 24 51  1  0  0  0  0
M  END
> <s_m_source_file>
AV-unprocessed.smi

> <i_m_source_file_index>
951

> <i_lp_mmshare_version>
43012

> <i_f3d_flags>
0

> <s_epik_input>
bjFbY0hdW2NIXVtjSF1bY0hdYzFbQ0gyXVtDSDJdW05IXUMoPU8pW0NAQEhdMltDSDJdW0NIMl1bQ0gyXU4yQyg9TylbQ0hdM1tDSDJdW0NIMl1bQ0gyXVtDSDJdW0NIMl0z

> <s_epik_cmdline>
J2VwaWtfcHl0aG9uJywgJy1waCcsICc3LjAnLCAnLXRuJywgJzgnLCAnLW1hJywgJzIwMCcsICctbWV0YWxfYmluZGluZycsICctaW1hZScsICc8aW5maWxlLm1hZT4nLCAnLW9tYWUnLCAnPG91dGZpbGUubWFlPic=

> <r_epik_Ionization_Penalty>
0.0265505

> <r_epik_Ionization_Penalty_Charging>
0

> <r_epik_Ionization_Penalty_Neutral>
0.0265505

> <r_epik_State_Penalty>
0.02168

> <r_epik_Charging_Adjusted_Penalty>
0.02168

> <i_epik_Tot_Q>
0

> <i_epik_Tot_abs_Q>
0

> <r_epik_Metal_State_Penalty>
0.020746

> <b_epik_Metal_Only>
0

> <s_lp_Force_Field>
OPLS_2005

> <r_lp_Energy>
18.972

> <b_lp_Chiralities_Consistent>
1

> <s_lp_Variant>
AV-unprocessed.smi:951-1

> <Gold.Version>
5.8.1

> <Gold.Id.Protein>
6NUR|6NUR_protein|mol2

> <Gold.PLP.Fitness>
43.2233

> <Gold.PLP.PLP>
-39.0676

> <Gold.PLP.part.hbond>
-1.9821

> <Gold.PLP.part.metal>
0.0000

> <Gold.PLP.part.buried>
-4.8892

> <Gold.PLP.part.nonpolar>
-36.2478

> <Gold.PLP.part.repulsive>
2.1526

> <Gold.PLP.ligand.clash>
0.0000

> <Gold.PLP.ligand.torsion>
0.5457

> <Gold.PLP.Chemscore.Hbond>
1.0000

> <Gold.PLP.Chemscore.CHOScore>
0.7198

> <Gold.PLP.Chemscore.Metal>
0.0000

> <Gold.Chemscore.Hbonds>
donor molecule, donor type, donor heavy atom, donor atom, acceptor molecule, acceptor atom, score
      P1  H  7989  7998       L1    18  1.00
      L1  C    10    33       P1 10186  0.87

> <Gold.PLP.Chemscore.Internal.Correction>
0.0878

> <Gold.Rescore>
     Score         DG    S(hbond)    S(metal)    S(lipo)     H(rot)  DE(clash)    DE(int)     intcor
     13.58     -15.85       1.00        0.00      94.00       1.55       0.88       1.39       ----

> <Gold.Chemscore.Fitness>
13.5802

> <Gold.Chemscore.DG>
-15.8490

> <Gold.Chemscore.ZeroCoef>
-5.4800

> <Gold.Chemscore.Hbond>
1.0000

> <Gold.Chemscore.Metal>
0.0000

> <Gold.Chemscore.Lipo>
94.0041

> <Gold.Chemscore.Internal_Hbond>
0.0000

> <Gold.Chemscore.DEClash>
0.8812

> <Gold.Chemscore.DEInternal>
1.3876

> <Gold.Chemscore.Rot>
1.5506

> <Gold.Chemscore.Internal.Correction>
   9.000000E+99

> <Gold.Chemscore.Hbonds>
donor molecule, donor type, donor heavy atom, donor atom, acceptor molecule, acceptor atom, score
      P1  H  7989  7998       L1    18  1.00

> <Gold.Chemscore.Hbond.Weighted>
-3.3400

> <Gold.Chemscore.Metal.Weighted>
-0.0000

> <Gold.Chemscore.Lipo.Weighted>
-10.9985

> <Gold.Chemscore.Internal_Hbond.Weighted>
0.0000

> <Gold.Chemscore.DEClash.Weighted>
0.8812

> <Gold.Chemscore.DEInternal.Weighted>
1.3876

> <Gold.Chemscore.Rot.Weighted>
3.9695

> <Gold.Chemscore.Internal.Correction.Weighted>
   9.000000E+99

> <Gold.Protein.RotatedTorsions>
[ 6907 6896 6895 6894 ] final  174.73 input  -60.11 | X-H torsion
[ 7974 7965 7964 7962 ] final   20.32 input  175.53 | X-H torsion
[ 8008 7997 7996 7995 ] final  -82.13 input   59.86 | X-H torsion
[ 10167 10162 10161 10158 ] final -135.09 input  -65.29 | X-H torsion
[ 10718 10713 10712 10709 ] final  175.23 input   66.30 | X-H torsion
[ 10763 10752 10751 10750 ] final -168.59 input  -60.55 | X-H torsion
[ 11005 11000 10999 10996 ] final  -26.77 input  -57.11 | X-H torsion

> <Gold.Protein.ActiveResidues>
 VAL166  LYS551  ARG553  GLY616  TRP617  ASP618  TYR619  PRO620  LYS621  CYS622 
 ASP623  PHE694  ASN695  SER759  ASP760  ASP761  ALA762  ILE779  LEU786  VAL792 
 PHE793  MET794  SER795  GLU796  ALA797  LYS798  CYS799  TRP800  GLU811  SER814 

> <Gold.Protein.RotatedAtoms>
  151.7475  133.3325  159.3382 H   0  0  0  0  0  0  0  0  0  0  0  0  # atno 6907 bound_to 6896
  150.7548  134.6222  159.6151 H   0  0  0  0  0  0  0  0  0  0  0  0  # atno 6908 bound_to 6896
  152.3490  134.7034  160.0293 H   0  0  0  0  0  0  0  0  0  0  0  0  # atno 6909 bound_to 6896
  146.2116  139.8187  142.8684 H   0  0  0  0  0  0  0  0  0  0  0  0  # atno 7974 bound_to 7965
  154.6054  140.0637  156.9424 H   0  0  0  0  0  0  0  0  0  0  0  0  # atno 8008 bound_to 7997
  155.2061  140.3319  155.4317 H   0  0  0  0  0  0  0  0  0  0  0  0  # atno 8009 bound_to 7997
  156.2344  140.1856  156.7141 H   0  0  0  0  0  0  0  0  0  0  0  0  # atno 8010 bound_to 7997
  139.8814  143.6835  152.2626 H   0  0  0  0  0  0  0  0  0  0  0  0  # atno 10167 bound_to 10162
  156.9379  130.9992  151.2974 H   0  0  0  0  0  0  0  0  0  0  0  0  # atno 10718 bound_to 10713
  154.6612  135.2925  154.9863 H   0  0  0  0  0  0  0  0  0  0  0  0  # atno 10763 bound_to 10752
  154.0922  135.6589  153.4858 H   0  0  0  0  0  0  0  0  0  0  0  0  # atno 10764 bound_to 10752
  153.0431  135.5222  154.7565 H   0  0  0  0  0  0  0  0  0  0  0  0  # atno 10765 bound_to 10752
  140.9059  133.7493  156.0606 H   0  0  0  0  0  0  0  0  0  0  0  0  # atno 11005 bound_to 11000
  145.3119  141.0222  143.3549 LP  0  0  0  0  0  0  0  0  0  0  0  0  # atno 17320 bound_to 7965
  144.8929  139.4750  143.6669 LP  0  0  0  0  0  0  0  0  0  0  0  0  # atno 17321 bound_to 7965
  139.7193  144.7606  151.0982 LP  0  0  0  0  0  0  0  0  0  0  0  0  # atno 17342 bound_to 10162
  140.7744  143.5229  150.9515 LP  0  0  0  0  0  0  0  0  0  0  0  0  # atno 17343 bound_to 10162
  157.5804  130.8372  149.8515 LP  0  0  0  0  0  0  0  0  0  0  0  0  # atno 17370 bound_to 10713
  156.0418  130.3737  150.1417 LP  0  0  0  0  0  0  0  0  0  0  0  0  # atno 17371 bound_to 10713
  140.8171  134.3332  157.5393 LP  0  0  0  0  0  0  0  0  0  0  0  0  # atno 17394 bound_to 11000
  139.8749  134.9288  156.3459 LP  0  0  0  0  0  0  0  0  0  0  0  0  # atno 17395 bound_to 11000

$$$$
