AV-unprocessed.smi:767|AV-procd|sdf|3658|dock3
  -GOLD-   22720 1 63D 1   1.00000     0.00000
 Structure written by MMmdl.
 47 49  0  0  0  0  0  0  0  0  1 V2000
  145.8430  129.9789  151.6986 C   0  0  0  0  0  0  0  0  0  0  0  0
  145.6326  131.4522  151.4187 C   0  0  0  0  0  0  0  0  0  0  0  0
  144.4915  131.9010  150.7208 C   0  0  0  0  0  0  0  0  0  0  0  0
  144.3490  133.2820  150.4857 C   0  0  0  0  0  0  0  0  0  0  0  0
  145.3489  134.1577  150.9556 C   0  0  0  0  0  0  0  0  0  0  0  0
  145.2482  135.6511  150.7172 C   0  0  0  0  0  0  0  0  0  0  0  0
  145.0673  136.4296  152.0299 C   0  0  0  0  0  0  0  0  0  0  0  0
  146.3457  136.8697  152.5748 N   0  0  0  0  0  0  0  0  0  0  0  0
  146.4902  137.6164  153.6781 C   0  0  0  0  0  0  0  0  0  0  0  0
  145.5535  138.0097  154.3735 O   0  0  0  0  0  0  0  0  0  0  0  0
  147.7767  137.8925  153.9284 N   0  0  0  0  0  0  0  0  0  0  0  0
  148.2441  138.7065  155.0552 C   0  0  1  0  0  0  0  0  0  0  0  0
  149.7262  138.4872  155.3701 C   0  0  1  0  0  0  0  0  0  0  0  0
  150.7409  137.4493  155.0525 C   0  0  0  0  0  0  0  0  0  0  0  0
  151.9193  138.4158  154.7544 C   0  0  0  0  0  0  0  0  0  0  0  0
  151.3418  139.7460  154.7028 O   0  0  0  0  0  0  0  0  0  0  0  0
  150.0056  139.5213  154.2994 C   0  0  2  0  0  0  0  0  0  0  0  0
  148.6684  140.1863  154.6961 C   0  0  0  0  0  0  0  0  0  0  0  0
  147.9130  140.8742  153.5532 C   0  0  0  0  0  0  0  0  0  0  0  0
  148.7028  141.2064  155.8482 C   0  0  0  0  0  0  0  0  0  0  0  0
  146.4504  133.6070  151.6437 C   0  0  0  0  0  0  0  0  0  0  0  0
  146.5954  132.2842  151.8736 N   0  0  0  0  0  0  0  0  0  0  0  0
  145.0139  129.3816  151.3181 H   0  0  0  0  0  0  0  0  0  0  0  0
  145.9232  129.8043  152.7720 H   0  0  0  0  0  0  0  0  0  0  0  0
  146.7600  129.6301  151.2231 H   0  0  0  0  0  0  0  0  0  0  0  0
  143.7421  131.2064  150.3710 H   0  0  0  0  0  0  0  0  0  0  0  0
  143.4892  133.6593  149.9517 H   0  0  0  0  0  0  0  0  0  0  0  0
  146.1466  135.9870  150.1971 H   0  0  0  0  0  0  0  0  0  0  0  0
  144.4117  135.8479  150.0453 H   0  0  0  0  0  0  0  0  0  0  0  0
  144.4519  137.3131  151.8572 H   0  0  0  0  0  0  0  0  0  0  0  0
  144.5371  135.8215  152.7651 H   0  0  0  0  0  0  0  0  0  0  0  0
  147.1758  136.5954  152.0704 H   0  0  0  0  0  0  0  0  0  0  0  0
  148.4789  137.5267  153.3024 H   0  0  0  0  0  0  0  0  0  0  0  0
  147.6109  138.6405  155.9417 H   0  0  0  0  0  0  0  0  0  0  0  0
  149.9187  138.8609  156.3788 H   0  0  0  0  0  0  0  0  0  0  0  0
  150.9452  136.7837  155.8914 H   0  0  0  0  0  0  0  0  0  0  0  0
  150.4669  136.8554  154.1796 H   0  0  0  0  0  0  0  0  0  0  0  0
  152.6826  138.3798  155.5321 H   0  0  0  0  0  0  0  0  0  0  0  0
  152.3931  138.1692  153.8033 H   0  0  0  0  0  0  0  0  0  0  0  0
  149.9791  139.1253  153.2790 H   0  0  0  0  0  0  0  0  0  0  0  0
  148.3397  141.8501  153.3195 H   0  0  0  0  0  0  0  0  0  0  0  0
  146.8627  141.0246  153.8045 H   0  0  0  0  0  0  0  0  0  0  0  0
  147.9440  140.2913  152.6327 H   0  0  0  0  0  0  0  0  0  0  0  0
  149.2720  142.0945  155.5724 H   0  0  0  0  0  0  0  0  0  0  0  0
  149.1521  140.8180  156.7605 H   0  0  0  0  0  0  0  0  0  0  0  0
  147.6972  141.5344  156.1139 H   0  0  0  0  0  0  0  0  0  0  0  0
  147.2392  134.2436  152.0162 H   0  0  0  0  0  0  0  0  0  0  0  0
  1  2  1  0  0  0  0
  1 23  1  0  0  0  0
  1 24  1  0  0  0  0
  1 25  1  0  0  0  0
  2 22  1  0  0  0  0
  2  3  2  0  0  0  0
  3  4  1  0  0  0  0
  3 26  1  0  0  0  0
  4  5  2  0  0  0  0
  4 27  1  0  0  0  0
  5  6  1  0  0  0  0
  5 21  1  0  0  0  0
  6  7  1  0  0  0  0
  6 28  1  0  0  0  0
  6 29  1  0  0  0  0
  7  8  1  0  0  0  0
  7 30  1  0  0  0  0
  7 31  1  0  0  0  0
  8  9  1  0  0  0  0
  8 32  1  0  0  0  0
  9 10  2  0  0  0  0
  9 11  1  0  0  0  0
 11 12  1  0  0  0  0
 11 33  1  0  0  0  0
 12 18  1  0  0  0  0
 12 13  1  0  0  0  0
 12 34  1  0  0  0  0
 13 17  1  0  0  0  0
 13 14  1  0  0  0  0
 13 35  1  0  0  0  0
 14 15  1  0  0  0  0
 14 36  1  0  0  0  0
 14 37  1  0  0  0  0
 15 16  1  0  0  0  0
 15 38  1  0  0  0  0
 15 39  1  0  0  0  0
 16 17  1  0  0  0  0
 17 18  1  0  0  0  0
 17 40  1  0  0  0  0
 18 19  1  0  0  0  0
 18 20  1  0  0  0  0
 19 41  1  0  0  0  0
 19 42  1  0  0  0  0
 19 43  1  0  0  0  0
 20 44  1  0  0  0  0
 20 45  1  0  0  0  0
 20 46  1  0  0  0  0
 21 22  2  0  0  0  0
 21 47  1  0  0  0  0
M  END
> <s_m_source_file>
AV-unprocessed.smi

> <i_m_source_file_index>
767

> <i_lp_mmshare_version>
43012

> <i_f3d_flags>
0

> <s_epik_input>
W0NIM11jMVtjSF1bY0hdYyhbY0hdbjEpW0NIMl1bQ0gyXVtOSF1DKD1PKVtOSF1bQ0BIXTJDKFtDSDNdKShbQ0gzXSlbQ0BIXShbQ0BASF0yMylPW0NIMl1bQ0gyXTM=

> <s_epik_cmdline>
J2VwaWtfcHl0aG9uJywgJy1waCcsICc3LjAnLCAnLXRuJywgJzgnLCAnLW1hJywgJzIwMCcsICctbWV0YWxfYmluZGluZycsICctaW1hZScsICc8aW5maWxlLm1hZT4nLCAnLW9tYWUnLCAnPG91dGZpbGUubWFlPic=

> <r_epik_Ionization_Penalty>
0.0567523

> <r_epik_Ionization_Penalty_Charging>
0

> <r_epik_Ionization_Penalty_Neutral>
0.0567523

> <r_epik_State_Penalty>
0.0489186

> <r_epik_Charging_Adjusted_Penalty>
0.0489186

> <i_epik_Tot_Q>
0

> <i_epik_Tot_abs_Q>
0

> <r_epik_Metal_State_Penalty>
0.044622

> <b_epik_Metal_Only>
0

> <s_lp_Force_Field>
OPLS_2005

> <r_lp_Energy>
57.787

> <b_lp_Chiralities_Consistent>
1

> <s_lp_Variant>
AV-unprocessed.smi:767-2

> <Gold.Version>
5.8.1

> <Gold.Id.Protein>
6NUR|6NUR_protein|mol2

> <Gold.PLP.Fitness>
50.6252

> <Gold.PLP.PLP>
-39.4350

> <Gold.PLP.part.hbond>
-3.0000

> <Gold.PLP.part.metal>
0.0000

> <Gold.PLP.part.buried>
-6.4431

> <Gold.PLP.part.nonpolar>
-31.7745

> <Gold.PLP.part.repulsive>
0.6683

> <Gold.PLP.ligand.clash>
0.0000

> <Gold.PLP.ligand.torsion>
0.5029

> <Gold.PLP.Chemscore.Hbond>
2.9760

> <Gold.PLP.Chemscore.CHOScore>
1.0000

> <Gold.PLP.Chemscore.Metal>
0.0000

> <Gold.Chemscore.Hbonds>
donor molecule, donor type, donor heavy atom, donor atom, acceptor molecule, acceptor atom, score
      L1  H     8    32       P1  7948  1.00
      L1  H    11    33       P1  7948  0.98
      P1  H  7989  7998       L1    16  0.70
      L1  C    21    47       P1  7948  0.88

> <Gold.PLP.Chemscore.Internal.Correction>
0.2681

> <Gold.Rescore>
     Score         DG    S(hbond)    S(metal)    S(lipo)     H(rot)  DE(clash)    DE(int)     intcor
     21.94     -22.95       2.61        0.00     106.58       1.45       0.48       0.53       ----

> <Gold.Chemscore.Fitness>
21.9420

> <Gold.Chemscore.DG>
-22.9485

> <Gold.Chemscore.ZeroCoef>
-5.4800

> <Gold.Chemscore.Hbond>
2.6078

> <Gold.Chemscore.Metal>
0.0000

> <Gold.Chemscore.Lipo>
106.5795

> <Gold.Chemscore.Internal_Hbond>
0.0000

> <Gold.Chemscore.DEClash>
0.4800

> <Gold.Chemscore.DEInternal>
0.5264

> <Gold.Chemscore.Rot>
1.4497

> <Gold.Chemscore.Internal.Correction>
   9.000000E+99

> <Gold.Chemscore.Hbonds>
donor molecule, donor type, donor heavy atom, donor atom, acceptor molecule, acceptor atom, score
      L1  H     8    32       P1  7948  0.99
      L1  H    11    33       P1  7948  0.91
      P1  H  7989  7998       L1    16  0.07

> <Gold.Chemscore.Hbond.Weighted>
-8.7099

> <Gold.Chemscore.Metal.Weighted>
-0.0000

> <Gold.Chemscore.Lipo.Weighted>
-12.4698

> <Gold.Chemscore.Internal_Hbond.Weighted>
0.0000

> <Gold.Chemscore.DEClash.Weighted>
0.4800

> <Gold.Chemscore.DEInternal.Weighted>
0.5264

> <Gold.Chemscore.Rot.Weighted>
3.7112

> <Gold.Chemscore.Internal.Correction.Weighted>
   9.000000E+99

> <Gold.Protein.RotatedTorsions>
[ 6907 6896 6895 6894 ] final -155.49 input  -60.11 | X-H torsion
[ 7974 7965 7964 7962 ] final -168.39 input  175.53 | X-H torsion
[ 8008 7997 7996 7995 ] final -145.23 input   59.86 | X-H torsion
[ 10167 10162 10161 10158 ] final   33.18 input  -65.29 | X-H torsion
[ 10718 10713 10712 10709 ] final   67.62 input   66.30 | X-H torsion
[ 10763 10752 10751 10750 ] final    4.55 input  -60.55 | X-H torsion
[ 11005 11000 10999 10996 ] final   31.92 input  -57.11 | X-H torsion

> <Gold.Protein.ActiveResidues>
 VAL166  LYS551  ARG553  GLY616  TRP617  ASP618  TYR619  PRO620  LYS621  CYS622 
 ASP623  PHE694  ASN695  SER759  ASP760  ASP761  ALA762  ILE779  LEU786  VAL792 
 PHE793  MET794  SER795  GLU796  ALA797  LYS798  CYS799  TRP800  GLU811  SER814 

> <Gold.Protein.RotatedAtoms>
  151.2733  133.4245  159.2622 H   0  0  0  0  0  0  0  0  0  0  0  0  # atno 6907 bound_to 6896
  151.0426  134.9618  159.8180 H   0  0  0  0  0  0  0  0  0  0  0  0  # atno 6908 bound_to 6896
  152.5368  134.2690  159.9017 H   0  0  0  0  0  0  0  0  0  0  0  0  # atno 6909 bound_to 6896
  144.7204  140.2377  143.6296 H   0  0  0  0  0  0  0  0  0  0  0  0  # atno 7974 bound_to 7965
  155.5399  140.0607  157.2872 H   0  0  0  0  0  0  0  0  0  0  0  0  # atno 8008 bound_to 7997
  154.4456  140.1921  156.0624 H   0  0  0  0  0  0  0  0  0  0  0  0  # atno 8009 bound_to 7997
  156.0592  140.3274  155.7446 H   0  0  0  0  0  0  0  0  0  0  0  0  # atno 8010 bound_to 7997
  140.4431  144.1159  150.6177 H   0  0  0  0  0  0  0  0  0  0  0  0  # atno 10167 bound_to 10162
  157.6241  130.9330  150.0267 H   0  0  0  0  0  0  0  0  0  0  0  0  # atno 10718 bound_to 10713
  153.2699  135.6931  153.7491 H   0  0  0  0  0  0  0  0  0  0  0  0  # atno 10763 bound_to 10752
  153.6519  135.3375  155.3103 H   0  0  0  0  0  0  0  0  0  0  0  0  # atno 10764 bound_to 10752
  154.8460  135.4456  154.1718 H   0  0  0  0  0  0  0  0  0  0  0  0  # atno 10765 bound_to 10752
  140.2788  134.2997  155.7806 H   0  0  0  0  0  0  0  0  0  0  0  0  # atno 11005 bound_to 11000
  145.8350  139.2103  143.1861 LP  0  0  0  0  0  0  0  0  0  0  0  0  # atno 17320 bound_to 7965
  146.0397  140.8177  142.9835 LP  0  0  0  0  0  0  0  0  0  0  0  0  # atno 17321 bound_to 7965
  140.4295  143.2574  151.9613 LP  0  0  0  0  0  0  0  0  0  0  0  0  # atno 17342 bound_to 10162
  139.4791  144.5757  151.8016 LP  0  0  0  0  0  0  0  0  0  0  0  0  # atno 17343 bound_to 10162
  156.1403  130.3642  149.9593 LP  0  0  0  0  0  0  0  0  0  0  0  0  # atno 17370 bound_to 10713
  156.7635  130.9159  151.3642 LP  0  0  0  0  0  0  0  0  0  0  0  0  # atno 17371 bound_to 10713
  141.2166  133.7512  156.9449 LP  0  0  0  0  0  0  0  0  0  0  0  0  # atno 17394 bound_to 11000
  140.1303  134.9360  157.2327 LP  0  0  0  0  0  0  0  0  0  0  0  0  # atno 17395 bound_to 11000

$$$$
