AV-unprocessed.smi:438|AV-procd|sdf|2572|dock7
  -GOLD-   2262022553D 1   1.00000     0.00000
 Structure written by MMmdl.
 47 48  0  0  0  0  0  0  0  0  2 V2000
  147.6764  133.1439  160.5618 C   0  0  0  0  0  0  0  0  0  0  0  0
  147.5019  134.6411  160.7401 C   0  0  0  0  0  0  0  0  0  0  0  0
  148.1528  135.4466  159.7907 N   0  0  0  0  0  0  0  0  0  0  0  0
  148.0415  136.7185  159.8581 C   0  0  0  0  0  0  0  0  0  0  0  0
  148.8820  137.7623  158.6499 S   0  0  0  0  0  0  0  0  0  0  0  0
  150.0591  136.6535  157.8154 C   0  0  0  0  0  0  0  0  0  0  0  0
  150.9074  137.3772  156.7700 C   0  0  0  0  0  0  0  0  0  0  0  0
  151.6840  136.7376  156.0605 O   0  0  0  0  0  0  0  0  0  0  0  0
  150.7439  138.7066  156.6807 N   0  0  0  0  0  0  0  0  0  0  0  0
  151.3767  139.5883  155.6977 C   0  0  1  0  0  0  0  0  0  0  0  0
  150.9557  139.1607  154.2771 C   0  0  0  0  0  0  0  0  0  0  0  0
  149.4845  139.4979  153.9792 C   0  0  0  0  0  0  0  0  0  0  0  0
  149.1936  140.9862  154.2156 C   0  0  0  0  0  0  0  0  0  0  0  0
  149.5782  141.4050  155.6431 C   0  0  0  0  0  0  0  0  0  0  0  0
  151.0562  141.0865  155.9466 C   0  0  1  0  0  0  0  0  0  0  0  0
  151.4635  141.5778  157.3461 C   0  0  0  0  0  0  0  0  0  0  0  0
  147.3007  137.3721  160.8149 N   0  5  0  0  0  0  0  0  0  0  0  0
  146.6587  136.6628  161.7861 C   0  0  0  0  0  0  0  0  0  0  0  0
  146.0001  137.2114  162.6691 O   0  0  0  0  0  0  0  0  0  0  0  0
  146.7703  135.1937  161.7499 C   0  0  0  0  0  0  0  0  0  0  0  0
  146.0409  134.3759  162.8169 C   0  0  0  0  0  0  0  0  0  0  0  0
  144.5172  134.3319  162.6095 C   0  0  0  0  0  0  0  0  0  0  0  0
  144.1896  133.6279  161.4297 O   0  0  0  0  0  0  0  0  0  0  0  0
  148.2106  132.7159  161.4101 H   0  0  0  0  0  0  0  0  0  0  0  0
  148.2417  132.9220  159.6573 H   0  0  0  0  0  0  0  0  0  0  0  0
  146.7090  132.6506  160.4696 H   0  0  0  0  0  0  0  0  0  0  0  0
  149.4874  135.8777  157.3063 H   0  0  0  0  0  0  0  0  0  0  0  0
  150.6832  136.1429  158.5501 H   0  0  0  0  0  0  0  0  0  0  0  0
  150.0793  139.1367  157.3076 H   0  0  0  0  0  0  0  0  0  0  0  0
  152.4586  139.4594  155.7595 H   0  0  0  0  0  0  0  0  0  0  0  0
  151.5900  139.6677  153.5490 H   0  0  0  0  0  0  0  0  0  0  0  0
  151.1293  138.0925  154.1375 H   0  0  0  0  0  0  0  0  0  0  0  0
  149.2425  139.2277  152.9511 H   0  0  0  0  0  0  0  0  0  0  0  0
  148.8323  138.9006  154.6158 H   0  0  0  0  0  0  0  0  0  0  0  0
  149.7485  141.5872  153.4941 H   0  0  0  0  0  0  0  0  0  0  0  0
  148.1369  141.1900  154.0406 H   0  0  0  0  0  0  0  0  0  0  0  0
  149.3942  142.4726  155.7686 H   0  0  0  0  0  0  0  0  0  0  0  0
  148.9327  140.8964  156.3604 H   0  0  0  0  0  0  0  0  0  0  0  0
  151.6564  141.6567  155.2359 H   0  0  0  0  0  0  0  0  0  0  0  0
  150.8626  141.1139  158.1286 H   0  0  0  0  0  0  0  0  0  0  0  0
  151.3367  142.6571  157.4327 H   0  0  0  0  0  0  0  0  0  0  0  0
  152.5108  141.3529  157.5503 H   0  0  0  0  0  0  0  0  0  0  0  0
  146.2585  134.7529  163.8153 H   0  0  0  0  0  0  0  0  0  0  0  0
  146.4373  133.3600  162.8086 H   0  0  0  0  0  0  0  0  0  0  0  0
  144.0182  133.8633  163.4580 H   0  0  0  0  0  0  0  0  0  0  0  0
  144.1224  135.3447  162.5276 H   0  0  0  0  0  0  0  0  0  0  0  0
  144.8954  133.7359  160.8108 H   0  0  0  0  0  0  0  0  0  0  0  0
  1 24  1  0  0  0  0
  1 25  1  0  0  0  0
  1 26  1  0  0  0  0
  1  2  1  0  0  0  0
  2 20  2  0  0  0  0
  2  3  1  0  0  0  0
  3  4  2  0  0  0  0
  4  5  1  0  0  0  0
  4 17  1  0  0  0  0
  5  6  1  0  0  0  0
  6  7  1  0  0  0  0
  6 27  1  0  0  0  0
  6 28  1  0  0  0  0
  7  8  2  0  0  0  0
  7  9  1  0  0  0  0
  9 10  1  0  0  0  0
  9 29  1  0  0  0  0
 10 15  1  0  0  0  0
 10 11  1  0  0  0  0
 10 30  1  0  0  0  0
 11 12  1  0  0  0  0
 11 31  1  0  0  0  0
 11 32  1  0  0  0  0
 12 13  1  0  0  0  0
 12 33  1  0  0  0  0
 12 34  1  0  0  0  0
 13 14  1  0  0  0  0
 13 35  1  0  0  0  0
 13 36  1  0  0  0  0
 14 15  1  0  0  0  0
 14 37  1  0  0  0  0
 14 38  1  0  0  0  0
 15 16  1  0  0  0  0
 15 39  1  0  0  0  0
 16 40  1  0  0  0  0
 16 41  1  0  0  0  0
 16 42  1  0  0  0  0
 17 18  1  0  0  0  0
 18 19  2  0  0  0  0
 18 20  1  0  0  0  0
 20 21  1  0  0  0  0
 21 22  1  0  0  0  0
 21 43  1  0  0  0  0
 21 44  1  0  0  0  0
 22 23  1  0  0  0  0
 22 45  1  0  0  0  0
 22 46  1  0  0  0  0
 23 47  1  0  0  0  0
M  CHG  1  17  -1
M  END
> <s_m_source_file>
AV-unprocessed.smi

> <i_m_source_file_index>
438

> <i_lp_mmshare_version>
43012

> <i_f3d_flags>
0

> <s_epik_input>
W09IXVtDSDJdW0NIMl1jMWMoW09IXSluYyhuYzFbQ0gzXSlTW0NIMl1DKD1PKVtOSF1bQ0BASF0yW0NIMl1bQ0gyXVtDSDJdW0NIMl1bQ0BIXTJbQ0gzXQ==

> <s_epik_cmdline>
J2VwaWtfcHl0aG9uJywgJy1waCcsICc3LjAnLCAnLXRuJywgJzgnLCAnLW1hJywgJzIwMCcsICctbWV0YWxfYmluZGluZycsICctaW1hZScsICc8aW5maWxlLm1hZT4nLCAnLW9tYWUnLCAnPG91dGZpbGUubWFlPic=

> <r_lp_tautomer_probability>
1

> <r_epik_Ionization_Penalty>
3.69231

> <r_epik_Ionization_Penalty_Charging>
0.00434774

> <r_epik_Ionization_Penalty_Neutral>
3.68796

> <r_epik_State_Penalty>
2.13826

> <r_epik_Charging_Adjusted_Penalty>
2.14261

> <i_epik_Tot_Q>
-1

> <i_epik_Tot_abs_Q>
1

> <r_epik_Metal_State_Penalty>
0.260979

> <b_epik_Metal_Only>
0

> <s_lp_Force_Field>
OPLS_2005

> <r_lp_Energy>
18.1923

> <b_lp_Chiralities_Consistent>
1

> <s_lp_Variant>
AV-unprocessed.smi:438-10

> <Gold.Version>
5.8.1

> <Gold.Id.Protein>
6NUR|6NUR_protein|mol2

> <Gold.PLP.Fitness>
50.1400

> <Gold.PLP.PLP>
-36.8351

> <Gold.PLP.part.hbond>
-3.0732

> <Gold.PLP.part.metal>
0.0000

> <Gold.PLP.part.buried>
0.9408

> <Gold.PLP.part.nonpolar>
-34.4719

> <Gold.PLP.part.repulsive>
0.0200

> <Gold.PLP.ligand.clash>
0.0000

> <Gold.PLP.ligand.torsion>
0.3632

> <Gold.PLP.Chemscore.Hbond>
4.6681

> <Gold.PLP.Chemscore.CHOScore>
0.0000

> <Gold.PLP.Chemscore.Metal>
0.0000

> <Gold.Chemscore.Hbonds>
donor molecule, donor type, donor heavy atom, donor atom, acceptor molecule, acceptor atom, score
      P1  H  6931  6943       L1    17  0.62
      P1  H  6934  6947       L1    17  2.00
      P1  H 10752 10764       L1     8  0.68

> <Gold.PLP.Chemscore.Internal.Correction>
0.0269

> <Gold.Rescore>
     Score         DG    S(hbond)    S(metal)    S(lipo)     H(rot)  DE(clash)    DE(int)     intcor
     14.89     -16.49       2.35        0.00      88.04       2.79       1.10       0.50       ----

> <Gold.Chemscore.Fitness>
14.8852

> <Gold.Chemscore.DG>
-16.4885

> <Gold.Chemscore.ZeroCoef>
-5.4800

> <Gold.Chemscore.Hbond>
2.3523

> <Gold.Chemscore.Metal>
0.0000

> <Gold.Chemscore.Lipo>
88.0426

> <Gold.Chemscore.Internal_Hbond>
0.0000

> <Gold.Chemscore.DEClash>
1.1030

> <Gold.Chemscore.DEInternal>
0.5003

> <Gold.Chemscore.Rot>
2.7927

> <Gold.Chemscore.Internal.Correction>
   9.000000E+99

> <Gold.Chemscore.Hbonds>
donor molecule, donor type, donor heavy atom, donor atom, acceptor molecule, acceptor atom, score
      P1  H  6931  6943       L1    17  0.02
      P1  H  6934  6947       L1    17  0.91
      P1  H 10752 10764       L1     8  0.67

> <Gold.Chemscore.Hbond.Weighted>
-7.8568

> <Gold.Chemscore.Metal.Weighted>
-0.0000

> <Gold.Chemscore.Lipo.Weighted>
-10.3010

> <Gold.Chemscore.Internal_Hbond.Weighted>
0.0000

> <Gold.Chemscore.DEClash.Weighted>
1.1030

> <Gold.Chemscore.DEInternal.Weighted>
0.5003

> <Gold.Chemscore.Rot.Weighted>
7.1492

> <Gold.Chemscore.Internal.Correction.Weighted>
   9.000000E+99

> <Gold.Protein.RotatedTorsions>
[ 6907 6896 6895 6894 ] final   52.66 input  -60.11 | X-H torsion
[ 7974 7965 7964 7962 ] final  -78.79 input  175.53 | X-H torsion
[ 8008 7997 7996 7995 ] final  159.16 input   59.86 | X-H torsion
[ 10167 10162 10161 10158 ] final   41.22 input  -65.29 | X-H torsion
[ 10718 10713 10712 10709 ] final -116.81 input   66.30 | X-H torsion
[ 10763 10752 10751 10750 ] final  -42.00 input  -60.55 | X-H torsion
[ 11005 11000 10999 10996 ] final  167.79 input  -57.11 | X-H torsion

> <Gold.Protein.ActiveResidues>
 VAL166  LYS551  ARG553  GLY616  TRP617  ASP618  TYR619  PRO620  LYS621  CYS622 
 ASP623  PHE694  ASN695  SER759  ASP760  ASP761  ALA762  ILE779  LEU786  VAL792 
 PHE793  MET794  SER795  GLU796  ALA797  LYS798  CYS799  TRP800  GLU811  SER814 

> <Gold.Protein.RotatedAtoms>
  152.3256  134.7325  160.0302 H   0  0  0  0  0  0  0  0  0  0  0  0  # atno 6907 bound_to 6896
  151.7758  133.3340  159.3465 H   0  0  0  0  0  0  0  0  0  0  0  0  # atno 6908 bound_to 6896
  150.7394  134.5908  159.6031 H   0  0  0  0  0  0  0  0  0  0  0  0  # atno 6909 bound_to 6896
  145.5819  140.9447  143.1339 H   0  0  0  0  0  0  0  0  0  0  0  0  # atno 7974 bound_to 7965
  156.2257  140.1839  156.7369 H   0  0  0  0  0  0  0  0  0  0  0  0  # atno 8008 bound_to 7997
  154.5937  140.0647  156.9302 H   0  0  0  0  0  0  0  0  0  0  0  0  # atno 8009 bound_to 7997
  155.2292  140.3313  155.4308 H   0  0  0  0  0  0  0  0  0  0  0  0  # atno 8010 bound_to 7997
  140.3665  144.2161  150.6135 H   0  0  0  0  0  0  0  0  0  0  0  0  # atno 10167 bound_to 10162
  156.0989  130.6156  150.9083 H   0  0  0  0  0  0  0  0  0  0  0  0  # atno 10718 bound_to 10713
  153.9718  135.6727  153.4747 H   0  0  0  0  0  0  0  0  0  0  0  0  # atno 10763 bound_to 10752
  153.0789  135.4934  154.8458 H   0  0  0  0  0  0  0  0  0  0  0  0  # atno 10764 bound_to 10752
  154.7214  135.3118  154.9001 H   0  0  0  0  0  0  0  0  0  0  0  0  # atno 10765 bound_to 10752
  140.2805  134.7754  157.3754 H   0  0  0  0  0  0  0  0  0  0  0  0  # atno 11005 bound_to 11000
  144.7390  139.7502  143.7318 LP  0  0  0  0  0  0  0  0  0  0  0  0  # atno 17320 bound_to 7965
  146.1710  139.4861  142.9927 LP  0  0  0  0  0  0  0  0  0  0  0  0  # atno 17321 bound_to 7965
  140.5076  143.2300  151.8584 LP  0  0  0  0  0  0  0  0  0  0  0  0  # atno 17342 bound_to 10162
  139.4808  144.4987  151.9089 LP  0  0  0  0  0  0  0  0  0  0  0  0  # atno 17343 bound_to 10162
  157.6156  131.0933  150.8717 LP  0  0  0  0  0  0  0  0  0  0  0  0  # atno 17370 bound_to 10713
  156.8849  130.5192  149.5289 LP  0  0  0  0  0  0  0  0  0  0  0  0  # atno 17371 bound_to 10713
  140.1288  134.5122  155.8122 LP  0  0  0  0  0  0  0  0  0  0  0  0  # atno 17394 bound_to 11000
  141.2163  133.6782  156.7001 LP  0  0  0  0  0  0  0  0  0  0  0  0  # atno 17395 bound_to 11000

$$$$
