AV-unprocessed.smi:1866|AV-procd|sdf|7556|dock5
  -GOLD-   22720 9273D 1   1.00000     0.00000
 Structure written by MMmdl.
 30 31  0  0  0  0  0  0  0  0  1 V2000
  153.7924  141.3549  160.7688 C   0  0  0  0  0  0  0  0  0  0  0  0
  152.7580  142.0065  159.9160 C   0  0  0  0  0  0  0  0  0  0  0  0
  152.5176  143.3232  159.9456 N   0  0  0  0  0  0  0  0  0  0  0  0
  151.5099  143.6938  159.0662 N   0  0  0  0  0  0  0  0  0  0  0  0
  151.0183  142.6417  158.3972 C   0  0  0  0  0  0  0  0  0  0  0  0
  149.9783  142.7344  157.4348 N   0  0  0  0  0  0  0  0  0  0  0  0
  149.3797  141.7394  156.7566 C   0  0  0  0  0  0  0  0  0  0  0  0
  149.6443  140.5419  156.8674 O   0  0  0  0  0  0  0  0  0  0  0  0
  148.4405  142.2154  155.9264 N   0  0  0  0  0  0  0  0  0  0  0  0
  147.5797  141.4053  155.0666 C   0  0  2  0  0  0  0  0  0  0  0  0
  146.7502  140.4077  155.8972 C   0  0  0  0  0  0  0  0  0  0  0  0
  146.0034  139.4401  154.9746 C   0  0  0  0  0  0  0  0  0  0  0  0
  146.9932  138.6875  154.0705 C   0  0  0  0  0  0  0  0  0  0  0  0
  148.0025  139.5587  153.4667 N   0  0  0  0  0  0  0  0  0  0  0  0
  148.3741  140.7729  153.9097 C   0  0  0  0  0  0  0  0  0  0  0  0
  149.2997  141.3898  153.3845 O   0  0  0  0  0  0  0  0  0  0  0  0
  151.7536  141.0977  158.7932 S   0  0  0  0  0  0  0  0  0  0  0  0
  154.4593  142.1010  161.2025 H   0  0  0  0  0  0  0  0  0  0  0  0
  154.3861  140.6618  160.1726 H   0  0  0  0  0  0  0  0  0  0  0  0
  153.3134  140.8017  161.5768 H   0  0  0  0  0  0  0  0  0  0  0  0
  149.6504  143.6689  157.2412 H   0  0  0  0  0  0  0  0  0  0  0  0
  148.2860  143.2127  155.9038 H   0  0  0  0  0  0  0  0  0  0  0  0
  146.8763  142.0768  154.5702 H   0  0  0  0  0  0  0  0  0  0  0  0
  147.4017  139.8430  156.5662 H   0  0  0  0  0  0  0  0  0  0  0  0
  146.0391  140.9396  156.5303 H   0  0  0  0  0  0  0  0  0  0  0  0
  145.4147  138.7329  155.5592 H   0  0  0  0  0  0  0  0  0  0  0  0
  145.2967  139.9991  154.3597 H   0  0  0  0  0  0  0  0  0  0  0  0
  147.5169  137.9292  154.6536 H   0  0  0  0  0  0  0  0  0  0  0  0
  146.4566  138.1600  153.2816 H   0  0  0  0  0  0  0  0  0  0  0  0
  148.5098  139.1790  152.6803 H   0  0  0  0  0  0  0  0  0  0  0  0
  1  2  1  0  0  0  0
  1 18  1  0  0  0  0
  1 19  1  0  0  0  0
  1 20  1  0  0  0  0
  2 17  1  0  0  0  0
  2  3  2  0  0  0  0
  3  4  1  0  0  0  0
  4  5  2  0  0  0  0
  5  6  1  0  0  0  0
  5 17  1  0  0  0  0
  6  7  1  0  0  0  0
  6 21  1  0  0  0  0
  7  8  2  0  0  0  0
  7  9  1  0  0  0  0
  9 10  1  0  0  0  0
  9 22  1  0  0  0  0
 10 15  1  0  0  0  0
 10 11  1  0  0  0  0
 10 23  1  0  0  0  0
 11 12  1  0  0  0  0
 11 24  1  0  0  0  0
 11 25  1  0  0  0  0
 12 13  1  0  0  0  0
 12 26  1  0  0  0  0
 12 27  1  0  0  0  0
 13 14  1  0  0  0  0
 13 28  1  0  0  0  0
 13 29  1  0  0  0  0
 14 15  1  0  0  0  0
 14 30  1  0  0  0  0
 15 16  2  0  0  0  0
M  END
> <s_m_source_file>
AV-unprocessed.smi

> <i_m_source_file_index>
1866

> <i_lp_mmshare_version>
43012

> <i_f3d_flags>
0

> <s_epik_input>
W0NIM11jMW5uYyhzMSlbTkhdQyg9TylbTkhdW0NAQEhdMltDSDJdW0NIMl1bQ0gyXVtOSF1DMj1P

> <s_epik_cmdline>
J2VwaWtfcHl0aG9uJywgJy1waCcsICc3LjAnLCAnLXRuJywgJzgnLCAnLW1hJywgJzIwMCcsICctbWV0YWxfYmluZGluZycsICctaW1hZScsICc8aW5maWxlLm1hZT4nLCAnLW9tYWUnLCAnPG91dGZpbGUubWFlPic=

> <r_lp_tautomer_probability>
1

> <r_epik_Ionization_Penalty>
0.00093002

> <r_epik_Ionization_Penalty_Charging>
0

> <r_epik_Ionization_Penalty_Neutral>
0.00093002

> <r_epik_State_Penalty>
-0

> <r_epik_Charging_Adjusted_Penalty>
0

> <i_epik_Tot_Q>
0

> <i_epik_Tot_abs_Q>
0

> <r_epik_Metal_State_Penalty>
0.280775

> <b_epik_Metal_Only>
0

> <s_lp_Force_Field>
OPLS_2005

> <r_lp_Energy>
8.18213

> <b_lp_Chiralities_Consistent>
1

> <s_lp_Variant>
AV-unprocessed.smi:1866-1

> <Gold.Version>
5.8.1

> <Gold.Id.Protein>
6NUR|6NUR_protein|mol2

> <Gold.PLP.Fitness>
32.6590

> <Gold.PLP.PLP>
-22.3861

> <Gold.PLP.part.hbond>
-4.7535

> <Gold.PLP.part.metal>
0.0000

> <Gold.PLP.part.buried>
-3.3415

> <Gold.PLP.part.nonpolar>
-16.8742

> <Gold.PLP.part.repulsive>
3.6915

> <Gold.PLP.ligand.clash>
0.0000

> <Gold.PLP.ligand.torsion>
0.0544

> <Gold.PLP.Chemscore.Hbond>
3.4464

> <Gold.PLP.Chemscore.CHOScore>
0.0000

> <Gold.PLP.Chemscore.Metal>
0.0000

> <Gold.Chemscore.Hbonds>
donor molecule, donor type, donor heavy atom, donor atom, acceptor molecule, acceptor atom, score
      L1  H     6    21       P1  8028  0.78
      L1  H     9    22       P1  8028  1.00
      L1  H    14    30       P1  7957  0.63
      P1  H  7989  7998       L1    16  0.02
      P1  H  8011  8017       L1    16  0.98

> <Gold.PLP.Chemscore.Internal.Correction>
0.0424

> <Gold.Rescore>
     Score         DG    S(hbond)    S(metal)    S(lipo)     H(rot)  DE(clash)    DE(int)     intcor
     14.39     -18.65       3.29        0.00      40.61       1.00       3.00       1.26       ----

> <Gold.Chemscore.Fitness>
14.3885

> <Gold.Chemscore.DG>
-18.6531

> <Gold.Chemscore.ZeroCoef>
-5.4800

> <Gold.Chemscore.Hbond>
3.2881

> <Gold.Chemscore.Metal>
0.0000

> <Gold.Chemscore.Lipo>
40.6065

> <Gold.Chemscore.Internal_Hbond>
0.0000

> <Gold.Chemscore.DEClash>
3.0015

> <Gold.Chemscore.DEInternal>
1.2631

> <Gold.Chemscore.Rot>
1.0000

> <Gold.Chemscore.Internal.Correction>
   9.000000E+99

> <Gold.Chemscore.Hbonds>
donor molecule, donor type, donor heavy atom, donor atom, acceptor molecule, acceptor atom, score
      L1  H     6    21       P1  8028  0.59
      L1  H     9    22       P1  8028  0.80
      L1  H    14    30       P1  7957  0.61
      P1  H  7989  7998       L1    16  0.03
      P1  H  8011  8017       L1    16  0.89

> <Gold.Chemscore.Hbond.Weighted>
-10.9822

> <Gold.Chemscore.Metal.Weighted>
-0.0000

> <Gold.Chemscore.Lipo.Weighted>
-4.7510

> <Gold.Chemscore.Internal_Hbond.Weighted>
0.0000

> <Gold.Chemscore.DEClash.Weighted>
3.0015

> <Gold.Chemscore.DEInternal.Weighted>
1.2631

> <Gold.Chemscore.Rot.Weighted>
2.5600

> <Gold.Chemscore.Internal.Correction.Weighted>
   9.000000E+99

> <Gold.Protein.RotatedTorsions>
[ 6907 6896 6895 6894 ] final  -42.01 input  -60.11 | X-H torsion
[ 7974 7965 7964 7962 ] final   82.58 input  175.53 | X-H torsion
[ 8008 7997 7996 7995 ] final -126.07 input   59.86 | X-H torsion
[ 10167 10162 10161 10158 ] final -132.02 input  -65.29 | X-H torsion
[ 10718 10713 10712 10709 ] final   36.54 input   66.30 | X-H torsion
[ 10763 10752 10751 10750 ] final -171.18 input  -60.55 | X-H torsion
[ 11005 11000 10999 10996 ] final -128.37 input  -57.11 | X-H torsion

> <Gold.Protein.ActiveResidues>
 VAL166  LYS551  ARG553  GLY616  TRP617  ASP618  TYR619  PRO620  LYS621  CYS622 
 ASP623  PHE694  ASN695  SER759  ASP760  ASP761  ALA762  ILE779  LEU786  VAL792 
 PHE793  MET794  SER795  GLU796  ALA797  LYS798  CYS799  TRP800  GLU811  SER814 

> <Gold.Protein.RotatedAtoms>
  150.9601  134.8990  159.7724 H   0  0  0  0  0  0  0  0  0  0  0  0  # atno 6907 bound_to 6896
  152.5153  134.3685  159.9320 H   0  0  0  0  0  0  0  0  0  0  0  0  # atno 6908 bound_to 6896
  151.3697  133.3818  159.2733 H   0  0  0  0  0  0  0  0  0  0  0  0  # atno 6909 bound_to 6896
  145.6231  139.2390  143.2127 H   0  0  0  0  0  0  0  0  0  0  0  0  # atno 7974 bound_to 7965
  155.2237  140.0423  157.2952 H   0  0  0  0  0  0  0  0  0  0  0  0  # atno 8008 bound_to 7997
  154.5933  140.2432  155.7862 H   0  0  0  0  0  0  0  0  0  0  0  0  # atno 8009 bound_to 7997
  156.2273  140.2950  156.0108 H   0  0  0  0  0  0  0  0  0  0  0  0  # atno 8010 bound_to 7997
  139.9129  143.6473  152.2571 H   0  0  0  0  0  0  0  0  0  0  0  0  # atno 10167 bound_to 10162
  157.3361  130.7523  149.6880 H   0  0  0  0  0  0  0  0  0  0  0  0  # atno 10718 bound_to 10713
  154.6333  135.2889  155.0191 H   0  0  0  0  0  0  0  0  0  0  0  0  # atno 10763 bound_to 10752
  154.1343  135.6528  153.4932 H   0  0  0  0  0  0  0  0  0  0  0  0  # atno 10764 bound_to 10752
  153.0290  135.5318  154.7169 H   0  0  0  0  0  0  0  0  0  0  0  0  # atno 10765 bound_to 10752
  140.9522  134.1050  157.4051 H   0  0  0  0  0  0  0  0  0  0  0  0  # atno 11005 bound_to 11000
  146.1415  140.7051  142.9364 LP  0  0  0  0  0  0  0  0  0  0  0  0  # atno 17320 bound_to 7965
  144.7223  140.4413  143.6999 LP  0  0  0  0  0  0  0  0  0  0  0  0  # atno 17321 bound_to 7965
  139.6927  144.7645  151.1410 LP  0  0  0  0  0  0  0  0  0  0  0  0  # atno 17342 bound_to 10162
  140.7681  143.5566  150.9145 LP  0  0  0  0  0  0  0  0  0  0  0  0  # atno 17343 bound_to 10162
  155.9701  130.4181  150.4312 LP  0  0  0  0  0  0  0  0  0  0  0  0  # atno 17370 bound_to 10713
  157.2352  131.0513  151.2469 LP  0  0  0  0  0  0  0  0  0  0  0  0  # atno 17371 bound_to 10713
  139.8851  135.0069  156.6412 LP  0  0  0  0  0  0  0  0  0  0  0  0  # atno 17394 bound_to 11000
  140.7587  133.8836  155.8401 LP  0  0  0  0  0  0  0  0  0  0  0  0  # atno 17395 bound_to 11000

$$$$
