AV-unprocessed.smi:2740|AV-procd|sdf|10554|dock9
  -GOLD-   2272015 03D 1   1.00000     0.00000
 Structure written by MMmdl.
 31 32  0  0  0  0  0  0  0  0  1 V2000
  153.3504  142.2934  161.6744 C   0  0  0  0  0  0  0  0  0  0  0  0
  152.5428  142.7783  160.5185 C   0  0  0  0  0  0  0  0  0  0  0  0
  152.2135  144.0767  160.2125 C   0  0  0  0  0  0  0  0  0  0  0  0
  151.4410  144.2072  159.0561 N   0  0  0  0  0  0  0  0  0  0  0  0
  151.1859  143.0237  158.4877 C   0  0  0  0  0  0  0  0  0  0  0  0
  150.4209  142.8511  157.3044 N   0  0  0  0  0  0  0  0  0  0  0  0
  149.9302  141.7092  156.7911 C   0  0  0  0  0  0  0  0  0  0  0  0
  150.0575  140.5910  157.2909 O   0  0  0  0  0  0  0  0  0  0  0  0
  149.2702  141.9355  155.6464 N   0  0  0  0  0  0  0  0  0  0  0  0
  148.6154  140.9098  154.8425 C   0  0  0  0  0  0  0  0  0  0  0  0
  149.6282  139.9036  154.2720 C   0  0  2  0  0  0  0  0  0  0  0  0
  149.3981  138.4692  154.7398 C   0  0  0  0  0  0  0  0  0  0  0  0
  150.7673  137.8622  154.5338 C   0  0  0  0  0  0  0  0  0  0  0  0
  151.6890  139.0132  154.9304 C   0  0  0  0  0  0  0  0  0  0  0  0
  150.9481  140.2123  154.7116 O   0  0  0  0  0  0  0  0  0  0  0  0
  151.8889  141.6621  159.3466 S   0  0  0  0  0  0  0  0  0  0  0  0
  153.3521  143.0236  162.4841 H   0  0  0  0  0  0  0  0  0  0  0  0
  154.3839  142.1175  161.3760 H   0  0  0  0  0  0  0  0  0  0  0  0
  152.9476  141.3595  162.0670 H   0  0  0  0  0  0  0  0  0  0  0  0
  152.4855  144.9666  160.7605 H   0  0  0  0  0  0  0  0  0  0  0  0
  150.2311  143.6946  156.7838 H   0  0  0  0  0  0  0  0  0  0  0  0
  149.2082  142.8849  155.3091 H   0  0  0  0  0  0  0  0  0  0  0  0
  147.8862  140.3942  155.4682 H   0  0  0  0  0  0  0  0  0  0  0  0
  148.0527  141.3784  154.0335 H   0  0  0  0  0  0  0  0  0  0  0  0
  149.6195  139.9243  153.1809 H   0  0  0  0  0  0  0  0  0  0  0  0
  149.1334  138.4450  155.7979 H   0  0  0  0  0  0  0  0  0  0  0  0
  148.6148  137.9597  154.1780 H   0  0  0  0  0  0  0  0  0  0  0  0
  150.9324  136.9604  155.1239 H   0  0  0  0  0  0  0  0  0  0  0  0
  150.9093  137.6132  153.4813 H   0  0  0  0  0  0  0  0  0  0  0  0
  151.9442  138.9530  155.9889 H   0  0  0  0  0  0  0  0  0  0  0  0
  152.6168  139.0114  154.3580 H   0  0  0  0  0  0  0  0  0  0  0  0
  1  2  1  0  0  0  0
  1 17  1  0  0  0  0
  1 18  1  0  0  0  0
  1 19  1  0  0  0  0
  2 16  1  0  0  0  0
  2  3  2  0  0  0  0
  3  4  1  0  0  0  0
  3 20  1  0  0  0  0
  4  5  2  0  0  0  0
  5  6  1  0  0  0  0
  5 16  1  0  0  0  0
  6  7  1  0  0  0  0
  6 21  1  0  0  0  0
  7  8  2  0  0  0  0
  7  9  1  0  0  0  0
  9 10  1  0  0  0  0
  9 22  1  0  0  0  0
 10 11  1  0  0  0  0
 10 23  1  0  0  0  0
 10 24  1  0  0  0  0
 11 15  1  0  0  0  0
 11 12  1  0  0  0  0
 11 25  1  0  0  0  0
 12 13  1  0  0  0  0
 12 26  1  0  0  0  0
 12 27  1  0  0  0  0
 13 14  1  0  0  0  0
 13 28  1  0  0  0  0
 13 29  1  0  0  0  0
 14 15  1  0  0  0  0
 14 30  1  0  0  0  0
 14 31  1  0  0  0  0
M  END
> <s_m_source_file>
AV-unprocessed.smi

> <i_m_source_file_index>
2740

> <i_lp_mmshare_version>
43012

> <i_f3d_flags>
0

> <s_epik_input>
W0NIM11jMVtjSF1uYyhzMSlbTkhdQyg9TylbTkhdW0NIMl1bQ0BASF0yW0NIMl1bQ0gyXVtDSDJdTzI=

> <s_epik_cmdline>
J2VwaWtfcHl0aG9uJywgJy1waCcsICc3LjAnLCAnLXRuJywgJzgnLCAnLW1hJywgJzIwMCcsICctbWV0YWxfYmluZGluZycsICctaW1hZScsICc8aW5maWxlLm1hZT4nLCAnLW9tYWUnLCAnPG91dGZpbGUubWFlPic=

> <r_lp_tautomer_probability>
0.999

> <r_epik_Ionization_Penalty>
0.000387528

> <r_epik_Ionization_Penalty_Charging>
0

> <r_epik_Ionization_Penalty_Neutral>
0.000387528

> <r_epik_State_Penalty>
0.000177984

> <r_epik_Charging_Adjusted_Penalty>
0.000177984

> <i_epik_Tot_Q>
0

> <i_epik_Tot_abs_Q>
0

> <r_epik_Metal_State_Penalty>
0.00626158

> <b_epik_Metal_Only>
0

> <s_lp_Force_Field>
OPLS_2005

> <r_lp_Energy>
15.1526

> <b_lp_Chiralities_Consistent>
1

> <s_lp_Variant>
AV-unprocessed.smi:2740-1

> <Gold.Version>
5.8.1

> <Gold.Id.Protein>
6NUR|6NUR_protein|mol2

> <Gold.PLP.Fitness>
41.9764

> <Gold.PLP.PLP>
-34.6785

> <Gold.PLP.part.hbond>
-3.0000

> <Gold.PLP.part.metal>
0.0000

> <Gold.PLP.part.buried>
-4.9421

> <Gold.PLP.part.nonpolar>
-27.3579

> <Gold.PLP.part.repulsive>
0.3099

> <Gold.PLP.ligand.clash>
0.0000

> <Gold.PLP.ligand.torsion>
0.7924

> <Gold.PLP.Chemscore.Hbond>
2.9600

> <Gold.PLP.Chemscore.CHOScore>
0.0000

> <Gold.PLP.Chemscore.Metal>
0.0000

> <Gold.Chemscore.Hbonds>
donor molecule, donor type, donor heavy atom, donor atom, acceptor molecule, acceptor atom, score
      L1  H     6    21       P1  8028  0.94
      L1  H     9    22       P1  8028  0.99
      P1  H  7989  7998       L1    15  1.00

> <Gold.PLP.Chemscore.Internal.Correction>
0.0026

> <Gold.Rescore>
     Score         DG    S(hbond)    S(metal)    S(lipo)     H(rot)  DE(clash)    DE(int)     intcor
     13.64     -18.52       2.21        0.00      75.98       1.27       0.00       4.88       ----

> <Gold.Chemscore.Fitness>
13.6389

> <Gold.Chemscore.DG>
-18.5167

> <Gold.Chemscore.ZeroCoef>
-5.4800

> <Gold.Chemscore.Hbond>
2.2132

> <Gold.Chemscore.Metal>
0.0000

> <Gold.Chemscore.Lipo>
75.9848

> <Gold.Chemscore.Internal_Hbond>
0.0000

> <Gold.Chemscore.DEClash>
0.0000

> <Gold.Chemscore.DEInternal>
4.8778

> <Gold.Chemscore.Rot>
1.2678

> <Gold.Chemscore.Internal.Correction>
   9.000000E+99

> <Gold.Chemscore.Hbonds>
donor molecule, donor type, donor heavy atom, donor atom, acceptor molecule, acceptor atom, score
      L1  H     6    21       P1  8028  0.86
      L1  H     9    22       P1  8028  0.94
      P1  H  7989  7998       L1    15  0.24

> <Gold.Chemscore.Hbond.Weighted>
-7.3919

> <Gold.Chemscore.Metal.Weighted>
-0.0000

> <Gold.Chemscore.Lipo.Weighted>
-8.8902

> <Gold.Chemscore.Internal_Hbond.Weighted>
0.0000

> <Gold.Chemscore.DEClash.Weighted>
0.0000

> <Gold.Chemscore.DEInternal.Weighted>
4.8778

> <Gold.Chemscore.Rot.Weighted>
3.2455

> <Gold.Chemscore.Internal.Correction.Weighted>
   9.000000E+99

> <Gold.Protein.RotatedTorsions>
[ 6907 6896 6895 6894 ] final  113.26 input  -60.11 | X-H torsion
[ 7974 7965 7964 7962 ] final  -77.93 input  175.53 | X-H torsion
[ 8008 7997 7996 7995 ] final  -96.09 input   59.86 | X-H torsion
[ 10167 10162 10161 10158 ] final -124.56 input  -65.29 | X-H torsion
[ 10718 10713 10712 10709 ] final  -92.56 input   66.30 | X-H torsion
[ 10763 10752 10751 10750 ] final  166.93 input  -60.55 | X-H torsion
[ 11005 11000 10999 10996 ] final  -70.26 input  -57.11 | X-H torsion

> <Gold.Protein.ActiveResidues>
 VAL166  LYS551  ARG553  GLY616  TRP617  ASP618  TYR619  PRO620  LYS621  CYS622 
 ASP623  PHE694  ASN695  SER759  ASP760  ASP761  ALA762  ILE779  LEU786  VAL792 
 PHE793  MET794  SER795  GLU796  ALA797  LYS798  CYS799  TRP800  GLU811  SER814 

> <Gold.Protein.RotatedAtoms>
  152.4870  133.8400  159.7147 H   0  0  0  0  0  0  0  0  0  0  0  0  # atno 6907 bound_to 6896
  150.8966  133.7164  159.2897 H   0  0  0  0  0  0  0  0  0  0  0  0  # atno 6908 bound_to 6896
  151.4619  135.1043  159.9779 H   0  0  0  0  0  0  0  0  0  0  0  0  # atno 6909 bound_to 6896
  145.5932  140.9425  143.1281 H   0  0  0  0  0  0  0  0  0  0  0  0  # atno 7974 bound_to 7965
  154.7699  140.0474  157.1043 H   0  0  0  0  0  0  0  0  0  0  0  0  # atno 8008 bound_to 7997
  154.9833  140.3104  155.4917 H   0  0  0  0  0  0  0  0  0  0  0  0  # atno 8009 bound_to 7997
  156.2919  140.2232  156.4934 H   0  0  0  0  0  0  0  0  0  0  0  0  # atno 8010 bound_to 7997
  139.9915  143.5635  152.2340 H   0  0  0  0  0  0  0  0  0  0  0  0  # atno 10167 bound_to 10162
  156.0003  130.4992  150.5644 H   0  0  0  0  0  0  0  0  0  0  0  0  # atno 10718 bound_to 10713
  154.3464  135.2753  155.2395 H   0  0  0  0  0  0  0  0  0  0  0  0  # atno 10763 bound_to 10752
  154.4644  135.5899  153.6281 H   0  0  0  0  0  0  0  0  0  0  0  0  # atno 10764 bound_to 10752
  152.9853  135.6073  154.3670 H   0  0  0  0  0  0  0  0  0  0  0  0  # atno 10765 bound_to 10752
  141.1570  133.6785  156.6725 H   0  0  0  0  0  0  0  0  0  0  0  0  # atno 11005 bound_to 11000
  144.7342  139.7634  143.7335 LP  0  0  0  0  0  0  0  0  0  0  0  0  # atno 17320 bound_to 7965
  146.1632  139.4753  142.9975 LP  0  0  0  0  0  0  0  0  0  0  0  0  # atno 17321 bound_to 7965
  139.6336  144.7647  151.2484 LP  0  0  0  0  0  0  0  0  0  0  0  0  # atno 17342 bound_to 10162
  140.7453  143.6436  150.8312 LP  0  0  0  0  0  0  0  0  0  0  0  0  # atno 17343 bound_to 10162
  157.3548  131.0740  151.1684 LP  0  0  0  0  0  0  0  0  0  0  0  0  # atno 17370 bound_to 10713
  157.2488  130.6604  149.5922 LP  0  0  0  0  0  0  0  0  0  0  0  0  # atno 17371 bound_to 10713
  140.3164  134.8044  157.4217 LP  0  0  0  0  0  0  0  0  0  0  0  0  # atno 17394 bound_to 11000
  140.1134  134.5315  155.8246 LP  0  0  0  0  0  0  0  0  0  0  0  0  # atno 17395 bound_to 11000

$$$$
