AV-unprocessed.smi:307|AV-procd|sdf|2284|dock2
  -GOLD-   2262022183D 1   1.00000     0.00000
 Structure written by MMmdl.
 38 39  0  0  0  0  0  0  0  0  1 V2000
  146.1676  138.9719  153.9318 O   0  0  0  0  0  0  0  0  0  0  0  0
  147.0498  138.3384  153.3569 C   0  0  0  0  0  0  0  0  0  0  0  0
  148.3722  138.5198  153.5439 N   0  0  0  0  0  0  0  0  0  0  0  0
  149.0364  139.4676  154.3686 C   0  0  0  0  0  0  0  0  0  0  0  0
  148.3866  140.5007  155.0855 C   0  0  0  0  0  0  0  0  0  0  0  0
  149.1636  141.3859  155.8573 C   0  0  0  0  0  0  0  0  0  0  0  0
  150.5623  141.2201  155.8843 C   0  0  0  0  0  0  0  0  0  0  0  0
  151.3152  142.0893  156.6461 O   0  0  0  0  0  0  0  0  0  0  0  0
  150.7050  142.7061  157.7770 C   0  0  0  0  0  0  0  0  0  0  0  0
  151.7432  143.5712  158.5009 C   0  0  0  0  0  0  0  0  0  0  0  0
  151.1491  144.2367  159.4907 F   0  0  0  0  0  0  0  0  0  0  0  0
  152.7030  142.8040  159.0170 F   0  0  0  0  0  0  0  0  0  0  0  0
  152.2797  144.4513  157.6558 F   0  0  0  0  0  0  0  0  0  0  0  0
  151.1929  140.2423  155.1884 N   0  0  0  0  0  0  0  0  0  0  0  0
  150.4423  139.3970  154.4509 C   0  0  0  0  0  0  0  0  0  0  0  0
  146.7451  137.3642  152.4800 N   0  0  0  0  0  0  0  0  0  0  0  0
  145.4215  136.9088  152.0480 C   0  0  0  0  0  0  0  0  0  0  0  0
  144.5683  136.4654  153.2502 C   0  0  0  0  0  0  0  0  0  0  0  0
  143.2484  135.8348  152.7774 C   0  0  0  0  0  0  0  0  0  0  0  0
  143.5144  134.7443  151.9020 O   0  0  0  0  0  0  0  0  0  0  0  0
  144.1979  135.1390  150.7174 C   0  0  0  0  0  0  0  0  0  0  0  0
  145.5720  135.7295  151.0749 C   0  0  0  0  0  0  0  0  0  0  0  0
  148.9760  137.8688  153.0636 H   0  0  0  0  0  0  0  0  0  0  0  0
  147.3181  140.6424  155.0515 H   0  0  0  0  0  0  0  0  0  0  0  0
  148.6936  142.1811  156.4171 H   0  0  0  0  0  0  0  0  0  0  0  0
  149.8660  143.3289  157.4619 H   0  0  0  0  0  0  0  0  0  0  0  0
  150.3198  141.9465  158.4594 H   0  0  0  0  0  0  0  0  0  0  0  0
  150.9853  138.6349  153.9111 H   0  0  0  0  0  0  0  0  0  0  0  0
  147.5276  136.8735  152.0716 H   0  0  0  0  0  0  0  0  0  0  0  0
  144.9084  137.7138  151.5187 H   0  0  0  0  0  0  0  0  0  0  0  0
  145.1197  135.7368  153.8464 H   0  0  0  0  0  0  0  0  0  0  0  0
  144.3592  137.3102  153.9069 H   0  0  0  0  0  0  0  0  0  0  0  0
  142.6811  135.4692  153.6334 H   0  0  0  0  0  0  0  0  0  0  0  0
  142.6234  136.5743  152.2744 H   0  0  0  0  0  0  0  0  0  0  0  0
  144.3209  134.2669  150.0750 H   0  0  0  0  0  0  0  0  0  0  0  0
  143.5970  135.8605  150.1619 H   0  0  0  0  0  0  0  0  0  0  0  0
  146.0876  136.0489  150.1686 H   0  0  0  0  0  0  0  0  0  0  0  0
  146.1881  134.9507  151.5269 H   0  0  0  0  0  0  0  0  0  0  0  0
  1  2  2  0  0  0  0
  2  3  1  0  0  0  0
  2 16  1  0  0  0  0
  3  4  1  0  0  0  0
  3 23  1  0  0  0  0
  4 15  1  0  0  0  0
  4  5  2  0  0  0  0
  5  6  1  0  0  0  0
  5 24  1  0  0  0  0
  6  7  2  0  0  0  0
  6 25  1  0  0  0  0
  7  8  1  0  0  0  0
  7 14  1  0  0  0  0
  8  9  1  0  0  0  0
  9 10  1  0  0  0  0
  9 26  1  0  0  0  0
  9 27  1  0  0  0  0
 10 11  1  0  0  0  0
 10 12  1  0  0  0  0
 10 13  1  0  0  0  0
 14 15  2  0  0  0  0
 15 28  1  0  0  0  0
 16 17  1  0  0  0  0
 16 29  1  0  0  0  0
 17 22  1  0  0  0  0
 17 18  1  0  0  0  0
 17 30  1  0  0  0  0
 18 19  1  0  0  0  0
 18 31  1  0  0  0  0
 18 32  1  0  0  0  0
 19 20  1  0  0  0  0
 19 33  1  0  0  0  0
 19 34  1  0  0  0  0
 20 21  1  0  0  0  0
 21 22  1  0  0  0  0
 21 35  1  0  0  0  0
 21 36  1  0  0  0  0
 22 37  1  0  0  0  0
 22 38  1  0  0  0  0
M  END
> <s_m_source_file>
AV-unprocessed.smi

> <i_m_source_file_index>
307

> <i_lp_mmshare_version>
43012

> <i_f3d_flags>
0

> <s_epik_input>
W0NIMl0xW0NIMl1PW0NIMl1bQ0gyXVtDSF0xW05IXUMoPU8pW05IXWMyW2NIXVtjSF1jKG5bY0hdMilPW0NIMl1DKEYpKEYpRg==

> <s_epik_cmdline>
J2VwaWtfcHl0aG9uJywgJy1waCcsICc3LjAnLCAnLXRuJywgJzgnLCAnLW1hJywgJzIwMCcsICctbWV0YWxfYmluZGluZycsICctaW1hZScsICc8aW5maWxlLm1hZT4nLCAnLW9tYWUnLCAnPG91dGZpbGUubWFlPic=

> <r_lp_tautomer_probability>
1

> <r_epik_Ionization_Penalty>
3.97058e-05

> <r_epik_Ionization_Penalty_Charging>
0

> <r_epik_Ionization_Penalty_Neutral>
3.97058e-05

> <r_epik_State_Penalty>
-0

> <r_epik_Charging_Adjusted_Penalty>
0

> <i_epik_Tot_Q>
0

> <i_epik_Tot_abs_Q>
0

> <r_epik_Metal_State_Penalty>
-0

> <b_epik_Metal_Only>
0

> <s_lp_Force_Field>
OPLS_2005

> <r_lp_Energy>
20.0098

> <b_lp_Chiralities_Consistent>
1

> <s_lp_Variant>
AV-unprocessed.smi:307-1

> <Gold.Version>
5.8.1

> <Gold.Id.Protein>
6NUR|6NUR_protein|mol2

> <Gold.PLP.Fitness>
46.7737

> <Gold.PLP.PLP>
-41.5815

> <Gold.PLP.part.hbond>
-3.9096

> <Gold.PLP.part.metal>
0.0000

> <Gold.PLP.part.buried>
-4.2293

> <Gold.PLP.part.nonpolar>
-35.6007

> <Gold.PLP.part.repulsive>
0.5373

> <Gold.PLP.ligand.clash>
0.0000

> <Gold.PLP.ligand.torsion>
0.3990

> <Gold.PLP.Chemscore.Hbond>
1.9800

> <Gold.PLP.Chemscore.CHOScore>
0.0000

> <Gold.PLP.Chemscore.Metal>
0.0000

> <Gold.Chemscore.Hbonds>
donor molecule, donor type, donor heavy atom, donor atom, acceptor molecule, acceptor atom, score
      L1  H     3    23       P1  7948  0.88
      L1  H    16    29       P1  7948  1.00
      P1  H  7989  7998       L1    14  0.10

> <Gold.PLP.Chemscore.Internal.Correction>
0.0501

> <Gold.Rescore>
     Score         DG    S(hbond)    S(metal)    S(lipo)     H(rot)  DE(clash)    DE(int)     intcor
     12.53     -15.35       1.90        0.00      67.60       1.71       0.38       2.44       ----

> <Gold.Chemscore.Fitness>
12.5301

> <Gold.Chemscore.DG>
-15.3534

> <Gold.Chemscore.ZeroCoef>
-5.4800

> <Gold.Chemscore.Hbond>
1.9013

> <Gold.Chemscore.Metal>
0.0000

> <Gold.Chemscore.Lipo>
67.5960

> <Gold.Chemscore.Internal_Hbond>
0.0000

> <Gold.Chemscore.DEClash>
0.3817

> <Gold.Chemscore.DEInternal>
2.4417

> <Gold.Chemscore.Rot>
1.7132

> <Gold.Chemscore.Internal.Correction>
   9.000000E+99

> <Gold.Chemscore.Hbonds>
donor molecule, donor type, donor heavy atom, donor atom, acceptor molecule, acceptor atom, score
      L1  H     3    23       P1  7948  0.83
      L1  H    16    29       P1  7948  0.96

> <Gold.Chemscore.Hbond.Weighted>
-6.3505

> <Gold.Chemscore.Metal.Weighted>
-0.0000

> <Gold.Chemscore.Lipo.Weighted>
-7.9087

> <Gold.Chemscore.Internal_Hbond.Weighted>
0.0000

> <Gold.Chemscore.DEClash.Weighted>
0.3817

> <Gold.Chemscore.DEInternal.Weighted>
2.4417

> <Gold.Chemscore.Rot.Weighted>
4.3858

> <Gold.Chemscore.Internal.Correction.Weighted>
   9.000000E+99

> <Gold.Protein.RotatedTorsions>
[ 6907 6896 6895 6894 ] final  121.43 input  -60.11 | X-H torsion
[ 7974 7965 7964 7962 ] final  151.80 input  175.53 | X-H torsion
[ 8008 7997 7996 7995 ] final  -20.92 input   59.86 | X-H torsion
[ 10167 10162 10161 10158 ] final  144.19 input  -65.29 | X-H torsion
[ 10718 10713 10712 10709 ] final  -14.02 input   66.30 | X-H torsion
[ 10763 10752 10751 10750 ] final  147.06 input  -60.55 | X-H torsion
[ 11005 11000 10999 10996 ] final -146.72 input  -57.11 | X-H torsion

> <Gold.Protein.ActiveResidues>
 VAL166  LYS551  ARG553  GLY616  TRP617  ASP618  TYR619  PRO620  LYS621  CYS622 
 ASP623  PHE694  ASN695  SER759  ASP760  ASP761  ALA762  ILE779  LEU786  VAL792 
 PHE793  MET794  SER795  GLU796  ALA797  LYS798  CYS799  TRP800  GLU811  SER814 

> <Gold.Protein.RotatedAtoms>
  152.4322  133.7298  159.6580 H   0  0  0  0  0  0  0  0  0  0  0  0  # atno 6907 bound_to 6896
  150.8202  133.8255  159.3148 H   0  0  0  0  0  0  0  0  0  0  0  0  # atno 6908 bound_to 6896
  151.5939  135.1054  160.0097 H   0  0  0  0  0  0  0  0  0  0  0  0  # atno 6909 bound_to 6896
  144.8267  139.6584  143.6077 H   0  0  0  0  0  0  0  0  0  0  0  0  # atno 7974 bound_to 7965
  154.4738  140.2049  155.9927 H   0  0  0  0  0  0  0  0  0  0  0  0  # atno 8008 bound_to 7997
  156.1056  140.3237  155.7972 H   0  0  0  0  0  0  0  0  0  0  0  0  # atno 8009 bound_to 7997
  155.4723  140.0532  157.2968 H   0  0  0  0  0  0  0  0  0  0  0  0  # atno 8010 bound_to 7997
  139.4952  144.5989  151.6524 H   0  0  0  0  0  0  0  0  0  0  0  0  # atno 10167 bound_to 10162
  156.6219  130.4878  149.6161 H   0  0  0  0  0  0  0  0  0  0  0  0  # atno 10718 bound_to 10713
  154.0321  135.2897  155.3367 H   0  0  0  0  0  0  0  0  0  0  0  0  # atno 10763 bound_to 10752
  154.6982  135.5199  153.8491 H   0  0  0  0  0  0  0  0  0  0  0  0  # atno 10764 bound_to 10752
  153.0636  135.6622  154.0532 H   0  0  0  0  0  0  0  0  0  0  0  0  # atno 10765 bound_to 10752
  140.7791  134.3100  157.5051 H   0  0  0  0  0  0  0  0  0  0  0  0  # atno 11005 bound_to 11000
  146.2572  139.6329  142.9387 LP  0  0  0  0  0  0  0  0  0  0  0  0  # atno 17320 bound_to 7965
  145.4985  141.0438  143.2554 LP  0  0  0  0  0  0  0  0  0  0  0  0  # atno 17321 bound_to 7965
  140.5633  144.0232  150.6180 LP  0  0  0  0  0  0  0  0  0  0  0  0  # atno 17342 bound_to 10162
  140.3325  143.3069  152.0673 LP  0  0  0  0  0  0  0  0  0  0  0  0  # atno 17343 bound_to 10162
  156.2305  130.6791  151.1458 LP  0  0  0  0  0  0  0  0  0  0  0  0  # atno 17370 bound_to 10713
  157.7225  131.0672  150.6075 LP  0  0  0  0  0  0  0  0  0  0  0  0  # atno 17371 bound_to 10713
  139.8745  134.9307  156.3510 LP  0  0  0  0  0  0  0  0  0  0  0  0  # atno 17394 bound_to 11000
  140.9500  133.7457  156.0259 LP  0  0  0  0  0  0  0  0  0  0  0  0  # atno 17395 bound_to 11000

$$$$
