AV-unprocessed.smi:3171|AV-procd|sdf|12112|dock6
  -GOLD-   2272017553D 1   1.00000     0.00000
 Structure written by MMmdl.
 33 34  0  0  0  0  0  0  0  0  1 V2000
  151.8268  143.2541  158.2546 C   0  0  0  0  0  0  0  0  0  0  0  0
  152.5624  142.5903  159.4051 C   0  0  0  0  0  0  0  0  0  0  0  0
  153.1784  141.4289  159.0937 N   0  0  0  0  0  0  0  0  0  0  0  0
  153.8595  140.7552  160.0216 N   0  0  0  0  0  0  0  0  0  0  0  0
  153.9480  141.2143  161.2935 C   0  0  0  0  0  0  0  0  0  0  0  0
  154.6861  140.4479  162.2155 N   0  0  0  0  0  0  0  0  0  0  0  0
  155.6036  139.4026  161.7776 C   0  0  0  0  0  0  0  0  0  0  0  0
  155.4589  138.1145  162.6042 C   0  0  1  0  0  0  0  0  0  0  0  0
  155.5560  138.3434  164.1094 C   0  0  0  0  0  0  0  0  0  0  0  0
  154.8586  137.1140  164.6465 C   0  0  0  0  0  0  0  0  0  0  0  0
  153.7415  136.9015  163.6257 C   0  0  0  0  0  0  0  0  0  0  0  0
  154.1635  137.5497  162.4274 O   0  0  0  0  0  0  0  0  0  0  0  0
  153.3278  142.4281  161.6893 C   0  0  0  0  0  0  0  0  0  0  0  0
  153.4295  142.9222  163.0610 C   0  0  0  0  0  0  0  0  0  0  0  0
  153.5099  143.3132  164.1472 N   0  0  0  0  0  0  0  0  0  0  0  0
  152.6021  143.1473  160.7064 C   0  0  0  0  0  0  0  0  0  0  0  0
  151.9025  144.4622  161.0411 C   0  0  0  0  0  0  0  0  0  0  0  0
  152.2214  144.2545  158.0756 H   0  0  0  0  0  0  0  0  0  0  0  0
  150.7625  143.3320  158.4770 H   0  0  0  0  0  0  0  0  0  0  0  0
  151.9325  142.6847  157.3302 H   0  0  0  0  0  0  0  0  0  0  0  0
  154.3829  140.4302  163.1787 H   0  0  0  0  0  0  0  0  0  0  0  0
  155.4443  139.1941  160.7191 H   0  0  0  0  0  0  0  0  0  0  0  0
  156.6225  139.7820  161.8604 H   0  0  0  0  0  0  0  0  0  0  0  0
  156.2034  137.3727  162.3106 H   0  0  0  0  0  0  0  0  0  0  0  0
  156.5841  138.4395  164.4598 H   0  0  0  0  0  0  0  0  0  0  0  0
  155.0081  139.2413  164.3989 H   0  0  0  0  0  0  0  0  0  0  0  0
  155.5432  136.2646  164.6350 H   0  0  0  0  0  0  0  0  0  0  0  0
  154.4889  137.2401  165.6645 H   0  0  0  0  0  0  0  0  0  0  0  0
  153.5449  135.8432  163.4526 H   0  0  0  0  0  0  0  0  0  0  0  0
  152.8150  137.3669  163.9633 H   0  0  0  0  0  0  0  0  0  0  0  0
  151.2231  144.3276  161.8835 H   0  0  0  0  0  0  0  0  0  0  0  0
  151.3137  144.8605  160.2168 H   0  0  0  0  0  0  0  0  0  0  0  0
  152.6388  145.2186  161.3145 H   0  0  0  0  0  0  0  0  0  0  0  0
  1  2  1  0  0  0  0
  1 18  1  0  0  0  0
  1 19  1  0  0  0  0
  1 20  1  0  0  0  0
  2 16  1  0  0  0  0
  2  3  2  0  0  0  0
  3  4  1  0  0  0  0
  4  5  2  0  0  0  0
  5  6  1  0  0  0  0
  5 13  1  0  0  0  0
  6  7  1  0  0  0  0
  6 21  1  0  0  0  0
  7  8  1  0  0  0  0
  7 22  1  0  0  0  0
  7 23  1  0  0  0  0
  8 12  1  0  0  0  0
  8  9  1  0  0  0  0
  8 24  1  0  0  0  0
  9 10  1  0  0  0  0
  9 25  1  0  0  0  0
  9 26  1  0  0  0  0
 10 11  1  0  0  0  0
 10 27  1  0  0  0  0
 10 28  1  0  0  0  0
 11 12  1  0  0  0  0
 11 29  1  0  0  0  0
 11 30  1  0  0  0  0
 13 14  1  0  0  0  0
 13 16  2  0  0  0  0
 14 15  3  0  0  0  0
 16 17  1  0  0  0  0
 17 31  1  0  0  0  0
 17 32  1  0  0  0  0
 17 33  1  0  0  0  0
M  END
> <s_m_source_file>
AV-unprocessed.smi

> <i_m_source_file_index>
3171

> <i_lp_mmshare_version>
43012

> <i_f3d_flags>
0

> <s_epik_input>
W0NIM11jMW5uYyhjKEMjTiljMVtDSDNdKVtOSF1bQ0gyXVtDQEBIXTJbQ0gyXVtDSDJdW0NIMl1PMg==

> <s_epik_cmdline>
J2VwaWtfcHl0aG9uJywgJy1waCcsICc3LjAnLCAnLXRuJywgJzgnLCAnLW1hJywgJzIwMCcsICctbWV0YWxfYmluZGluZycsICctaW1hZScsICc8aW5maWxlLm1hZT4nLCAnLW9tYWUnLCAnPG91dGZpbGUubWFlPic=

> <r_lp_tautomer_probability>
1

> <r_epik_Ionization_Penalty>
0.00108228

> <r_epik_Ionization_Penalty_Charging>
0

> <r_epik_Ionization_Penalty_Neutral>
0.00108228

> <r_epik_State_Penalty>
-0

> <r_epik_Charging_Adjusted_Penalty>
0

> <i_epik_Tot_Q>
0

> <i_epik_Tot_abs_Q>
0

> <r_epik_Metal_State_Penalty>
-0

> <b_epik_Metal_Only>
0

> <s_lp_Force_Field>
OPLS_2005

> <r_lp_Energy>
28.3967

> <b_lp_Chiralities_Consistent>
1

> <s_lp_Variant>
AV-unprocessed.smi:3171-2

> <Gold.Version>
5.8.1

> <Gold.Id.Protein>
6NUR|6NUR_protein|mol2

> <Gold.PLP.Fitness>
39.9673

> <Gold.PLP.PLP>
-40.2979

> <Gold.PLP.part.hbond>
-0.9311

> <Gold.PLP.part.metal>
0.0000

> <Gold.PLP.part.buried>
-6.1371

> <Gold.PLP.part.nonpolar>
-33.1537

> <Gold.PLP.part.repulsive>
0.1172

> <Gold.PLP.ligand.clash>
0.0000

> <Gold.PLP.ligand.torsion>
0.1688

> <Gold.PLP.Chemscore.Hbond>
0.0000

> <Gold.PLP.Chemscore.CHOScore>
0.0000

> <Gold.PLP.Chemscore.Metal>
0.0000

> <Gold.PLP.Chemscore.Internal.Correction>
0.0070

> <Gold.Rescore>
     Score         DG    S(hbond)    S(metal)    S(lipo)     H(rot)  DE(clash)    DE(int)     intcor
     13.33     -13.47       0.00        0.00      94.94       1.22       0.02       0.11       ----

> <Gold.Chemscore.Fitness>
13.3322

> <Gold.Chemscore.DG>
-13.4695

> <Gold.Chemscore.ZeroCoef>
-5.4800

> <Gold.Chemscore.Hbond>
0.0000

> <Gold.Chemscore.Metal>
0.0000

> <Gold.Chemscore.Lipo>
94.9376

> <Gold.Chemscore.Internal_Hbond>
0.0000

> <Gold.Chemscore.DEClash>
0.0240

> <Gold.Chemscore.DEInternal>
0.1133

> <Gold.Chemscore.Rot>
1.2181

> <Gold.Chemscore.Internal.Correction>
   9.000000E+99

> <Gold.Chemscore.Hbond.Weighted>
-0.0000

> <Gold.Chemscore.Metal.Weighted>
-0.0000

> <Gold.Chemscore.Lipo.Weighted>
-11.1077

> <Gold.Chemscore.Internal_Hbond.Weighted>
0.0000

> <Gold.Chemscore.DEClash.Weighted>
0.0240

> <Gold.Chemscore.DEInternal.Weighted>
0.1133

> <Gold.Chemscore.Rot.Weighted>
3.1182

> <Gold.Chemscore.Internal.Correction.Weighted>
   9.000000E+99

> <Gold.Protein.RotatedTorsions>
[ 6907 6896 6895 6894 ] final   99.73 input  -60.11 | X-H torsion
[ 7974 7965 7964 7962 ] final   40.56 input  175.53 | X-H torsion
[ 8008 7997 7996 7995 ] final  -98.65 input   59.86 | X-H torsion
[ 10167 10162 10161 10158 ] final   80.99 input  -65.29 | X-H torsion
[ 10718 10713 10712 10709 ] final   81.48 input   66.30 | X-H torsion
[ 10763 10752 10751 10750 ] final  107.90 input  -60.55 | X-H torsion
[ 11005 11000 10999 10996 ] final  -91.68 input  -57.11 | X-H torsion

> <Gold.Protein.ActiveResidues>
 VAL166  LYS551  ARG553  GLY616  TRP617  ASP618  TYR619  PRO620  LYS621  CYS622 
 ASP623  PHE694  ASN695  SER759  ASP760  ASP761  ALA762  ILE779  LEU786  VAL792 
 PHE793  MET794  SER795  GLU796  ALA797  LYS798  CYS799  TRP800  GLU811  SER814 

> <Gold.Protein.RotatedAtoms>
  152.5386  134.0384  159.8056 H   0  0  0  0  0  0  0  0  0  0  0  0  # atno 6907 bound_to 6896
  151.0544  133.5589  159.2647 H   0  0  0  0  0  0  0  0  0  0  0  0  # atno 6908 bound_to 6896
  151.2511  135.0630  159.9116 H   0  0  0  0  0  0  0  0  0  0  0  0  # atno 6909 bound_to 6896
  146.0895  139.5518  142.9485 H   0  0  0  0  0  0  0  0  0  0  0  0  # atno 7974 bound_to 7965
  154.8040  140.0453  157.1294 H   0  0  0  0  0  0  0  0  0  0  0  0  # atno 8008 bound_to 7997
  154.9445  140.3057  155.5084 H   0  0  0  0  0  0  0  0  0  0  0  0  # atno 8009 bound_to 7997
  156.2965  140.2299  156.4517 H   0  0  0  0  0  0  0  0  0  0  0  0  # atno 8010 bound_to 7997
  139.9440  144.6071  150.8225 H   0  0  0  0  0  0  0  0  0  0  0  0  # atno 10167 bound_to 10162
  157.6834  131.0006  150.2233 H   0  0  0  0  0  0  0  0  0  0  0  0  # atno 10718 bound_to 10713
  153.4132  135.3829  155.2064 H   0  0  0  0  0  0  0  0  0  0  0  0  # atno 10763 bound_to 10752
  154.8739  135.3799  154.4475 H   0  0  0  0  0  0  0  0  0  0  0  0  # atno 10764 bound_to 10752
  153.4986  135.7088  153.5907 H   0  0  0  0  0  0  0  0  0  0  0  0  # atno 10765 bound_to 10752
  141.1539  133.7771  156.9914 H   0  0  0  0  0  0  0  0  0  0  0  0  # atno 11005 bound_to 11000
  145.6066  141.0346  143.1989 LP  0  0  0  0  0  0  0  0  0  0  0  0  # atno 17320 bound_to 7965
  144.7350  139.7614  143.7333 LP  0  0  0  0  0  0  0  0  0  0  0  0  # atno 17321 bound_to 7965
  140.7603  143.3147  151.2761 LP  0  0  0  0  0  0  0  0  0  0  0  0  # atno 17342 bound_to 10162
  139.6682  144.0068  152.2736 LP  0  0  0  0  0  0  0  0  0  0  0  0  # atno 17343 bound_to 10162
  156.2880  130.3742  149.7869 LP  0  0  0  0  0  0  0  0  0  0  0  0  # atno 17370 bound_to 10713
  156.5538  130.8353  151.3307 LP  0  0  0  0  0  0  0  0  0  0  0  0  # atno 17371 bound_to 10713
  140.1000  134.9541  157.1909 LP  0  0  0  0  0  0  0  0  0  0  0  0  # atno 17394 bound_to 11000
  140.3331  134.2788  155.7224 LP  0  0  0  0  0  0  0  0  0  0  0  0  # atno 17395 bound_to 11000

$$$$
