AV-unprocessed.smi:2750|AV-procd|sdf|10593|dock1
  -GOLD-   2272015 43D 1   1.00000     0.00000
 Structure written by MMmdl.
 24 25  0  0  0  0  0  0  0  0  3 V2000
  153.8877  136.0894  157.1549 O   0  0  0  0  0  0  0  0  0  0  0  0
  153.4883  136.8360  158.0755 C   0  0  0  0  0  0  0  0  0  0  0  0
  153.0826  136.4576  159.1966 O   0  5  0  0  0  0  0  0  0  0  0  0
  153.5117  138.3421  157.8139 C   0  0  0  0  0  0  0  0  0  0  0  0
  152.7172  138.7106  156.6561 N   0  0  0  0  0  0  0  0  0  0  0  0
  151.3847  138.4510  156.4101 C   0  0  0  0  0  0  0  0  0  0  0  0
  151.1664  139.0307  155.1925 C   0  0  0  0  0  0  0  0  0  0  0  0
  149.8991  139.0896  154.3898 C   0  0  0  0  0  0  0  0  0  0  0  0
  148.7771  139.9035  155.0730 C   0  0  2  0  0  0  0  0  0  0  0  0
  147.6073  140.0450  154.2214 N   0  5  0  0  0  0  0  0  0  0  0  0
  147.3706  141.3633  154.0293 C   0  0  0  0  0  0  0  0  0  0  0  0
  146.4647  141.8775  153.3772 O   0  0  0  0  0  0  0  0  0  0  0  0
  148.2861  142.1050  154.6610 N   0  0  0  0  0  0  0  0  0  0  0  0
  149.1751  141.3498  155.2985 C   0  0  0  0  0  0  0  0  0  0  0  0
  150.1441  141.7304  155.9546 O   0  0  0  0  0  0  0  0  0  0  0  0
  152.3582  139.6087  154.7540 N   0  0  0  0  0  0  0  0  0  0  0  0
  153.2827  139.4051  155.6394 N   0  0  0  0  0  0  0  0  0  0  0  0
  153.1232  138.8708  158.6853 H   0  0  0  0  0  0  0  0  0  0  0  0
  154.5392  138.6809  157.6708 H   0  0  0  0  0  0  0  0  0  0  0  0
  150.7463  137.9039  157.0875 H   0  0  0  0  0  0  0  0  0  0  0  0
  150.1229  139.5309  153.4175 H   0  0  0  0  0  0  0  0  0  0  0  0
  149.5489  138.0789  154.1730 H   0  0  0  0  0  0  0  0  0  0  0  0
  148.5384  139.4642  156.0428 H   0  0  0  0  0  0  0  0  0  0  0  0
  148.3048  143.1137  154.6463 H   0  0  0  0  0  0  0  0  0  0  0  0
  1  2  2  0  0  0  0
  2  3  1  0  0  0  0
  2  4  1  0  0  0  0
  4  5  1  0  0  0  0
  4 18  1  0  0  0  0
  4 19  1  0  0  0  0
  5 17  1  0  0  0  0
  5  6  1  0  0  0  0
  6  7  2  0  0  0  0
  6 20  1  0  0  0  0
  7  8  1  0  0  0  0
  7 16  1  0  0  0  0
  8  9  1  0  0  0  0
  8 21  1  0  0  0  0
  8 22  1  0  0  0  0
  9 14  1  0  0  0  0
  9 10  1  0  0  0  0
  9 23  1  0  0  0  0
 10 11  1  0  0  0  0
 11 12  2  0  0  0  0
 11 13  1  0  0  0  0
 13 14  1  0  0  0  0
 13 24  1  0  0  0  0
 14 15  2  0  0  0  0
 16 17  2  0  0  0  0
M  CHG  1   3  -1
M  CHG  1  10  -1
M  END
> <s_m_source_file>
AV-unprocessed.smi

> <i_m_source_file_index>
2750

> <i_lp_mmshare_version>
43012

> <i_f3d_flags>
0

> <s_epik_input>
Tz1DKFtPSF0pW0NIMl1uMVtjSF1jKG5uMSlbQ0gyXVtDQEBIXTJbTkhdQyg9TylbTkhdQzI9Tw==

> <s_epik_cmdline>
J2VwaWtfcHl0aG9uJywgJy1waCcsICc3LjAnLCAnLXRuJywgJzgnLCAnLW1hJywgJzIwMCcsICctbWV0YWxfYmluZGluZycsICctaW1hZScsICc8aW5maWxlLm1hZT4nLCAnLW9tYWUnLCAnPG91dGZpbGUubWFlPic=

> <r_lp_tautomer_probability>
1

> <r_epik_Ionization_Penalty>
5.10791

> <r_epik_Ionization_Penalty_Charging>
5.10788

> <r_epik_Ionization_Penalty_Neutral>
2.55687e-05

> <r_epik_State_Penalty>
5.12334

> <r_epik_Charging_Adjusted_Penalty>
10.2312

> <i_epik_Tot_Q>
-2

> <i_epik_Tot_abs_Q>
2

> <r_epik_Metal_State_Penalty>
1.50935

> <b_epik_Metal_Only>
1

> <s_lp_Force_Field>
OPLS_2005

> <r_lp_Energy>
16.0951

> <b_lp_Chiralities_Consistent>
1

> <s_lp_Variant>
AV-unprocessed.smi:2750-5

> <Gold.Version>
5.8.1

> <Gold.Id.Protein>
6NUR|6NUR_protein|mol2

> <Gold.PLP.Fitness>
40.7545

> <Gold.PLP.PLP>
-21.5755

> <Gold.PLP.part.hbond>
-4.8494

> <Gold.PLP.part.metal>
0.0000

> <Gold.PLP.part.buried>
-3.4429

> <Gold.PLP.part.nonpolar>
-13.2886

> <Gold.PLP.part.repulsive>
0.6515

> <Gold.PLP.ligand.clash>
0.0000

> <Gold.PLP.ligand.torsion>
0.0523

> <Gold.PLP.Chemscore.Hbond>
6.4240

> <Gold.PLP.Chemscore.CHOScore>
0.0000

> <Gold.PLP.Chemscore.Metal>
0.0000

> <Gold.Chemscore.Hbonds>
donor molecule, donor type, donor heavy atom, donor atom, acceptor molecule, acceptor atom, score
      L1  H    13    24       P1  8028  0.91
      P1  H  6896  6908       L1     3  1.86
      P1  H  7989  7998       L1    16  0.70
      P1  H  7997  8008       L1    17  0.71
      P1  H 10752 10764       L1     1  2.00

> <Gold.PLP.Chemscore.Internal.Correction>
0.0117

> <Gold.Rescore>
     Score         DG    S(hbond)    S(metal)    S(lipo)     H(rot)  DE(clash)    DE(int)     intcor
     14.01     -15.25       4.21        0.00      24.39       2.80       0.02       1.22       ----

> <Gold.Chemscore.Fitness>
14.0092

> <Gold.Chemscore.DG>
-15.2505

> <Gold.Chemscore.ZeroCoef>
-5.4800

> <Gold.Chemscore.Hbond>
4.2150

> <Gold.Chemscore.Metal>
0.0000

> <Gold.Chemscore.Lipo>
24.3904

> <Gold.Chemscore.Internal_Hbond>
0.0000

> <Gold.Chemscore.DEClash>
0.0202

> <Gold.Chemscore.DEInternal>
1.2211

> <Gold.Chemscore.Rot>
2.7973

> <Gold.Chemscore.Internal.Correction>
   9.000000E+99

> <Gold.Chemscore.Hbonds>
donor molecule, donor type, donor heavy atom, donor atom, acceptor molecule, acceptor atom, score
      L1  H    13    24       P1  8028  0.87
      P1  H  6896  6908       L1     3  0.90
      P1  H  7989  7998       L1    16  0.18
      P1  H  7997  8008       L1    17  0.39
      P1  H 10752 10764       L1     1  0.98

> <Gold.Chemscore.Hbond.Weighted>
-14.0779

> <Gold.Chemscore.Metal.Weighted>
-0.0000

> <Gold.Chemscore.Lipo.Weighted>
-2.8537

> <Gold.Chemscore.Internal_Hbond.Weighted>
0.0000

> <Gold.Chemscore.DEClash.Weighted>
0.0202

> <Gold.Chemscore.DEInternal.Weighted>
1.2211

> <Gold.Chemscore.Rot.Weighted>
7.1611

> <Gold.Chemscore.Internal.Correction.Weighted>
   9.000000E+99

> <Gold.Protein.RotatedTorsions>
[ 6907 6896 6895 6894 ] final  -75.34 input  -60.11 | X-H torsion
[ 7974 7965 7964 7962 ] final  160.74 input  175.53 | X-H torsion
[ 8008 7997 7996 7995 ] final  -36.93 input   59.86 | X-H torsion
[ 10167 10162 10161 10158 ] final   11.96 input  -65.29 | X-H torsion
[ 10718 10713 10712 10709 ] final  -94.70 input   66.30 | X-H torsion
[ 10763 10752 10751 10750 ] final   31.07 input  -60.55 | X-H torsion
[ 11005 11000 10999 10996 ] final -148.47 input  -57.11 | X-H torsion

> <Gold.Protein.ActiveResidues>
 VAL166  LYS551  ARG553  GLY616  TRP617  ASP618  TYR619  PRO620  LYS621  CYS622 
 ASP623  PHE694  ASN695  SER759  ASP760  ASP761  ALA762  ILE779  LEU786  VAL792 
 PHE793  MET794  SER795  GLU796  ALA797  LYS798  CYS799  TRP800  GLU811  SER814 

> <Gold.Protein.RotatedAtoms>
  150.7062  134.4735  159.5436 H   0  0  0  0  0  0  0  0  0  0  0  0  # atno 6907 bound_to 6896
  152.2387  134.8247  160.0472 H   0  0  0  0  0  0  0  0  0  0  0  0  # atno 6908 bound_to 6896
  151.9037  133.3509  159.3876 H   0  0  0  0  0  0  0  0  0  0  0  0  # atno 6909 bound_to 6896
  144.7721  139.7800  143.6293 H   0  0  0  0  0  0  0  0  0  0  0  0  # atno 7974 bound_to 7965
  154.4063  140.1618  156.2454 H   0  0  0  0  0  0  0  0  0  0  0  0  # atno 8008 bound_to 7997
  155.9165  140.3424  155.6117 H   0  0  0  0  0  0  0  0  0  0  0  0  # atno 8009 bound_to 7997
  155.7273  140.0776  157.2295 H   0  0  0  0  0  0  0  0  0  0  0  0  # atno 8010 bound_to 7997
  140.6098  143.8431  150.7053 H   0  0  0  0  0  0  0  0  0  0  0  0  # atno 10167 bound_to 10162
  156.0031  130.5078  150.5965 H   0  0  0  0  0  0  0  0  0  0  0  0  # atno 10718 bound_to 10713
  153.0336  135.6448  154.1142 H   0  0  0  0  0  0  0  0  0  0  0  0  # atno 10763 bound_to 10752
  154.0861  135.2870  155.3282 H   0  0  0  0  0  0  0  0  0  0  0  0  # atno 10764 bound_to 10752
  154.6497  135.5430  153.7951 H   0  0  0  0  0  0  0  0  0  0  0  0  # atno 10765 bound_to 10752
  140.7609  134.3299  157.5102 H   0  0  0  0  0  0  0  0  0  0  0  0  # atno 11005 bound_to 11000
  146.1875  139.5098  142.9826 LP  0  0  0  0  0  0  0  0  0  0  0  0  # atno 17320 bound_to 7965
  145.6293  141.0307  143.1872 LP  0  0  0  0  0  0  0  0  0  0  0  0  # atno 17321 bound_to 7965
  140.1996  143.3970  152.1801 LP  0  0  0  0  0  0  0  0  0  0  0  0  # atno 17342 bound_to 10162
  139.5353  144.7203  151.4915 LP  0  0  0  0  0  0  0  0  0  0  0  0  # atno 17343 bound_to 10162
  157.3821  131.0782  151.1467 LP  0  0  0  0  0  0  0  0  0  0  0  0  # atno 17370 bound_to 10713
  157.2186  130.6471  149.5802 LP  0  0  0  0  0  0  0  0  0  0  0  0  # atno 17371 bound_to 10713
  139.8771  134.9201  156.3244 LP  0  0  0  0  0  0  0  0  0  0  0  0  # atno 17394 bound_to 11000
  140.9664  133.7355  156.0472 LP  0  0  0  0  0  0  0  0  0  0  0  0  # atno 17395 bound_to 11000

$$$$
