AV-unprocessed.smi:232|AV-procd|sdf|1777|dock10
  -GOLD-   2262020323D 1   1.00000     0.00000
 Structure written by MMmdl.
 52 55  0  0  0  0  0  0  0  0  1 V2000
  151.6370  144.5094  157.9903 C   0  0  0  0  0  0  0  0  0  0  0  0
  152.7386  143.6758  158.6561 C   0  0  0  0  0  0  0  0  0  0  0  0
  152.3950  143.2655  160.1031 C   0  0  2  0  0  0  0  0  0  0  0  0
  152.0411  144.4461  161.0196 C   0  0  0  0  0  0  0  0  0  0  0  0
  152.5408  144.0305  162.4086 C   0  0  0  0  0  0  0  0  0  0  0  0
  153.1518  142.6404  162.1995 C   0  0  2  0  0  0  0  0  0  0  0  0
  154.3460  142.3485  163.1231 C   0  0  0  0  0  0  0  0  0  0  0  0
  153.4986  142.5986  160.7844 N   0  0  0  0  0  0  0  0  0  0  0  0
  153.8313  141.3771  160.3059 C   0  0  0  0  0  0  0  0  0  0  0  0
  152.9374  140.6493  159.5849 N   0  0  0  0  0  0  0  0  0  0  0  0
  153.2789  139.4419  159.1239 C   0  0  0  0  0  0  0  0  0  0  0  0
  154.4354  138.7894  159.2661 N   0  0  0  0  0  0  0  0  0  0  0  0
  155.3318  139.5222  159.9878 C   0  0  0  0  0  0  0  0  0  0  0  0
  155.1123  140.8145  160.5396 C   0  0  0  0  0  0  0  0  0  0  0  0
  156.2488  141.2494  161.2092 N   0  0  0  0  0  0  0  0  0  0  0  0
  157.0969  140.2682  161.0594 C   0  0  0  0  0  0  0  0  0  0  0  0
  156.6286  139.1923  160.3393 N   0  0  0  0  0  0  0  0  0  0  0  0
  157.3594  137.9784  160.0227 C   0  0  0  0  0  0  0  0  0  0  0  0
  157.5749  137.0810  161.2574 C   0  0  2  0  0  0  0  0  0  0  0  0
  158.1206  135.8419  160.8460 O   0  0  0  0  0  0  0  0  0  0  0  0
  156.2647  136.8207  162.0236 C   0  0  1  0  0  0  0  0  0  0  0  0
  156.3591  135.7212  163.0839 C   0  0  0  0  0  0  0  0  0  0  0  0
  155.2392  136.1030  164.0240 C   0  0  0  0  0  0  0  0  0  0  0  0
  155.3401  137.6246  164.0237 C   0  0  0  0  0  0  0  0  0  0  0  0
  155.8763  137.9836  162.7529 O   0  0  0  0  0  0  0  0  0  0  0  0
  151.8997  144.7430  156.9583 H   0  0  0  0  0  0  0  0  0  0  0  0
  151.4792  145.4533  158.5125 H   0  0  0  0  0  0  0  0  0  0  0  0
  150.6897  143.9700  157.9781 H   0  0  0  0  0  0  0  0  0  0  0  0
  152.9040  142.7847  158.0497 H   0  0  0  0  0  0  0  0  0  0  0  0
  153.6774  144.2308  158.6403 H   0  0  0  0  0  0  0  0  0  0  0  0
  151.5429  142.5835  160.0825 H   0  0  0  0  0  0  0  0  0  0  0  0
  152.5581  145.3537  160.7050 H   0  0  0  0  0  0  0  0  0  0  0  0
  150.9708  144.6544  161.0098 H   0  0  0  0  0  0  0  0  0  0  0  0
  153.2933  144.7409  162.7538 H   0  0  0  0  0  0  0  0  0  0  0  0
  151.7405  144.0084  163.1488 H   0  0  0  0  0  0  0  0  0  0  0  0
  152.3738  141.8990  162.3898 H   0  0  0  0  0  0  0  0  0  0  0  0
  154.0592  142.4433  164.1703 H   0  0  0  0  0  0  0  0  0  0  0  0
  155.1682  143.0404  162.9376 H   0  0  0  0  0  0  0  0  0  0  0  0
  154.7235  141.3361  162.9777 H   0  0  0  0  0  0  0  0  0  0  0  0
  152.5165  138.9244  158.5607 H   0  0  0  0  0  0  0  0  0  0  0  0
  158.0952  140.3024  161.4712 H   0  0  0  0  0  0  0  0  0  0  0  0
  156.8005  137.4400  159.2563 H   0  0  0  0  0  0  0  0  0  0  0  0
  158.3155  138.2511  159.5741 H   0  0  0  0  0  0  0  0  0  0  0  0
  158.2929  137.5573  161.9265 H   0  0  0  0  0  0  0  0  0  0  0  0
  158.8425  135.6276  161.4172 H   0  0  0  0  0  0  0  0  0  0  0  0
  155.4581  136.5801  161.3286 H   0  0  0  0  0  0  0  0  0  0  0  0
  156.2448  134.7190  162.6700 H   0  0  0  0  0  0  0  0  0  0  0  0
  157.3160  135.7685  163.6062 H   0  0  0  0  0  0  0  0  0  0  0  0
  154.2798  135.7888  163.6107 H   0  0  0  0  0  0  0  0  0  0  0  0
  155.3442  135.6680  165.0182 H   0  0  0  0  0  0  0  0  0  0  0  0
  154.3766  138.1038  164.1982 H   0  0  0  0  0  0  0  0  0  0  0  0
  156.0311  137.9614  164.7973 H   0  0  0  0  0  0  0  0  0  0  0  0
  1  2  1  0  0  0  0
  1 26  1  0  0  0  0
  1 27  1  0  0  0  0
  1 28  1  0  0  0  0
  2  3  1  0  0  0  0
  2 29  1  0  0  0  0
  2 30  1  0  0  0  0
  3  8  1  0  0  0  0
  3  4  1  0  0  0  0
  3 31  1  0  0  0  0
  4  5  1  0  0  0  0
  4 32  1  0  0  0  0
  4 33  1  0  0  0  0
  5  6  1  0  0  0  0
  5 34  1  0  0  0  0
  5 35  1  0  0  0  0
  6  7  1  0  0  0  0
  6  8  1  0  0  0  0
  6 36  1  0  0  0  0
  7 37  1  0  0  0  0
  7 38  1  0  0  0  0
  7 39  1  0  0  0  0
  8  9  1  0  0  0  0
  9 14  1  0  0  0  0
  9 10  2  0  0  0  0
 10 11  1  0  0  0  0
 11 12  2  0  0  0  0
 11 40  1  0  0  0  0
 12 13  1  0  0  0  0
 13 17  1  0  0  0  0
 13 14  2  0  0  0  0
 14 15  1  0  0  0  0
 15 16  2  0  0  0  0
 16 17  1  0  0  0  0
 16 41  1  0  0  0  0
 17 18  1  0  0  0  0
 18 19  1  0  0  0  0
 18 42  1  0  0  0  0
 18 43  1  0  0  0  0
 19 20  1  0  0  0  0
 19 21  1  0  0  0  0
 19 44  1  0  0  0  0
 20 45  1  0  0  0  0
 21 25  1  0  0  0  0
 21 22  1  0  0  0  0
 21 46  1  0  0  0  0
 22 23  1  0  0  0  0
 22 47  1  0  0  0  0
 22 48  1  0  0  0  0
 23 24  1  0  0  0  0
 23 49  1  0  0  0  0
 23 50  1  0  0  0  0
 24 25  1  0  0  0  0
 24 51  1  0  0  0  0
 24 52  1  0  0  0  0
M  END
> <s_m_source_file>
AV-unprocessed.smi

> <i_m_source_file_index>
232

> <i_lp_mmshare_version>
43012

> <i_f3d_flags>
0

> <s_epik_input>
W0NIM11bQ0gyXVtDQEBIXTFbQ0gyXVtDSDJdW0NAQEhdKFtDSDNdKU4xYyhuW2NIXW4yKWMoYzIzKW5bY0hdbjNbQ0gyXVtDQEhdKFtPSF0pW0NAQEhdNFtDSDJdW0NIMl1bQ0gyXU80

> <s_epik_cmdline>
J2VwaWtfcHl0aG9uJywgJy1waCcsICc3LjAnLCAnLXRuJywgJzgnLCAnLW1hJywgJzIwMCcsICctbWV0YWxfYmluZGluZycsICctaW1hZScsICc8aW5maWxlLm1hZT4nLCAnLW9tYWUnLCAnPG91dGZpbGUubWFlPic=

> <r_lp_tautomer_probability>
1

> <r_epik_Ionization_Penalty>
0.00258048

> <r_epik_Ionization_Penalty_Charging>
0

> <r_epik_Ionization_Penalty_Neutral>
0.00258048

> <r_epik_State_Penalty>
0.00168551

> <r_epik_Charging_Adjusted_Penalty>
0.00168551

> <i_epik_Tot_Q>
0

> <i_epik_Tot_abs_Q>
0

> <r_epik_Metal_State_Penalty>
-0

> <b_epik_Metal_Only>
0

> <s_lp_Force_Field>
OPLS_2005

> <r_lp_Energy>
51.1515

> <b_lp_Chiralities_Consistent>
1

> <s_lp_Variant>
AV-unprocessed.smi:232-11

> <Gold.Version>
5.8.1

> <Gold.Id.Protein>
6NUR|6NUR_protein|mol2

> <Gold.PLP.Fitness>
47.3080

> <Gold.PLP.PLP>
-49.0398

> <Gold.PLP.part.hbond>
-1.0000

> <Gold.PLP.part.metal>
0.0000

> <Gold.PLP.part.buried>
-4.7179

> <Gold.PLP.part.nonpolar>
-42.9639

> <Gold.PLP.part.repulsive>
0.0014

> <Gold.PLP.ligand.clash>
0.0000

> <Gold.PLP.ligand.torsion>
0.9067

> <Gold.PLP.Chemscore.Hbond>
0.0000

> <Gold.PLP.Chemscore.CHOScore>
0.0000

> <Gold.PLP.Chemscore.Metal>
0.0000

> <Gold.PLP.Chemscore.Internal.Correction>
0.0815

> <Gold.Rescore>
     Score         DG    S(hbond)    S(metal)    S(lipo)     H(rot)  DE(clash)    DE(int)     intcor
      8.51     -14.29       0.00        0.00     128.41       2.43       1.81       3.97       ----

> <Gold.Chemscore.Fitness>
8.5131

> <Gold.Chemscore.DG>
-14.2937

> <Gold.Chemscore.ZeroCoef>
-5.4800

> <Gold.Chemscore.Hbond>
0.0000

> <Gold.Chemscore.Metal>
0.0000

> <Gold.Chemscore.Lipo>
128.4137

> <Gold.Chemscore.Internal_Hbond>
0.0000

> <Gold.Chemscore.DEClash>
1.8120

> <Gold.Chemscore.DEInternal>
3.9685

> <Gold.Chemscore.Rot>
2.4260

> <Gold.Chemscore.Internal.Correction>
   9.000000E+99

> <Gold.Chemscore.Hbond.Weighted>
-0.0000

> <Gold.Chemscore.Metal.Weighted>
-0.0000

> <Gold.Chemscore.Lipo.Weighted>
-15.0244

> <Gold.Chemscore.Internal_Hbond.Weighted>
0.0000

> <Gold.Chemscore.DEClash.Weighted>
1.8120

> <Gold.Chemscore.DEInternal.Weighted>
3.9685

> <Gold.Chemscore.Rot.Weighted>
6.2107

> <Gold.Chemscore.Internal.Correction.Weighted>
   9.000000E+99

> <Gold.Protein.RotatedTorsions>
[ 6907 6896 6895 6894 ] final   71.32 input  -60.11 | X-H torsion
[ 7974 7965 7964 7962 ] final   40.29 input  175.53 | X-H torsion
[ 8008 7997 7996 7995 ] final   22.86 input   59.86 | X-H torsion
[ 10167 10162 10161 10158 ] final  -18.33 input  -65.29 | X-H torsion
[ 10718 10713 10712 10709 ] final -173.62 input   66.30 | X-H torsion
[ 10763 10752 10751 10750 ] final -155.93 input  -60.55 | X-H torsion
[ 11005 11000 10999 10996 ] final  146.06 input  -57.11 | X-H torsion

> <Gold.Protein.ActiveResidues>
 VAL166  LYS551  ARG553  GLY616  TRP617  ASP618  TYR619  PRO620  LYS621  CYS622 
 ASP623  PHE694  ASN695  SER759  ASP760  ASP761  ALA762  ILE779  LEU786  VAL792 
 PHE793  MET794  SER795  GLU796  ALA797  LYS798  CYS799  TRP800  GLU811  SER814 

> <Gold.Protein.RotatedAtoms>
  152.4803  134.4737  159.9643 H   0  0  0  0  0  0  0  0  0  0  0  0  # atno 6907 bound_to 6896
  151.4744  133.3555  159.2836 H   0  0  0  0  0  0  0  0  0  0  0  0  # atno 6908 bound_to 6896
  150.8871  134.8296  159.7327 H   0  0  0  0  0  0  0  0  0  0  0  0  # atno 6909 bound_to 6896
  146.0916  139.5550  142.9472 H   0  0  0  0  0  0  0  0  0  0  0  0  # atno 7974 bound_to 7965
  154.9722  140.3091  155.4983 H   0  0  0  0  0  0  0  0  0  0  0  0  # atno 8008 bound_to 7997
  156.2964  140.2282  156.4754 H   0  0  0  0  0  0  0  0  0  0  0  0  # atno 8009 bound_to 7997
  154.7866  140.0442  157.1157 H   0  0  0  0  0  0  0  0  0  0  0  0  # atno 8010 bound_to 7997
  140.7257  143.4927  150.9971 H   0  0  0  0  0  0  0  0  0  0  0  0  # atno 10167 bound_to 10162
  156.7731  130.9456  151.3120 H   0  0  0  0  0  0  0  0  0  0  0  0  # atno 10718 bound_to 10713
  154.7750  135.3157  154.8110 H   0  0  0  0  0  0  0  0  0  0  0  0  # atno 10763 bound_to 10752
  153.8836  135.6832  153.4769 H   0  0  0  0  0  0  0  0  0  0  0  0  # atno 10764 bound_to 10752
  153.1372  135.4754  154.9376 H   0  0  0  0  0  0  0  0  0  0  0  0  # atno 10765 bound_to 10752
  140.0763  134.9123  157.1427 H   0  0  0  0  0  0  0  0  0  0  0  0  # atno 11005 bound_to 11000
  145.6027  141.0352  143.2009 LP  0  0  0  0  0  0  0  0  0  0  0  0  # atno 17320 bound_to 7965
  144.7364  139.7572  143.7327 LP  0  0  0  0  0  0  0  0  0  0  0  0  # atno 17321 bound_to 7965
  139.8632  143.7287  152.3172 LP  0  0  0  0  0  0  0  0  0  0  0  0  # atno 17342 bound_to 10162
  139.7510  144.7534  151.0507 LP  0  0  0  0  0  0  0  0  0  0  0  0  # atno 17343 bound_to 10162
  157.6682  130.9026  149.9979 LP  0  0  0  0  0  0  0  0  0  0  0  0  # atno 17370 bound_to 10713
  156.1265  130.3644  149.9800 LP  0  0  0  0  0  0  0  0  0  0  0  0  # atno 17371 bound_to 10713
  140.3553  134.2553  155.7193 LP  0  0  0  0  0  0  0  0  0  0  0  0  # atno 17394 bound_to 11000
  141.2030  133.7922  157.0359 LP  0  0  0  0  0  0  0  0  0  0  0  0  # atno 17395 bound_to 11000

$$$$
