AV-unprocessed.smi:3128|AV-procd|sdf|11919|dock1
  -GOLD-   2272017303D 1   1.00000     0.00000
 Structure written by MMmdl.
 40 40  0  0  0  0  0  0  0  0  2 V2000
  144.2750  135.1184  150.2922 C   0  0  0  0  0  0  0  0  0  0  0  0
  145.3825  134.2809  150.9609 C   0  0  0  0  0  0  0  0  0  0  0  0
  144.8968  132.8295  151.1263 C   0  0  0  0  0  0  0  0  0  0  0  0
  145.8580  134.9015  152.3015 C   0  0  1  0  0  0  0  0  0  0  0  0
  146.9555  134.0799  153.0013 C   0  0  0  0  0  0  0  0  0  0  0  0
  146.3703  136.2541  152.0795 N   0  0  0  0  0  0  0  0  0  0  0  0
  145.7004  137.3976  152.2937 C   0  0  0  0  0  0  0  0  0  0  0  0
  144.5447  137.4411  152.7170 O   0  0  0  0  0  0  0  0  0  0  0  0
  146.4669  138.6871  151.9960 C   0  0  0  0  0  0  0  0  0  0  0  0
  147.8446  138.6533  152.5278 N   0  3  0  0  0  0  0  0  0  0  0  0
  147.9363  138.9416  153.9719 C   0  0  0  0  0  0  0  0  0  0  0  0
  149.0641  139.9404  154.2678 C   0  0  0  0  0  0  0  0  0  0  0  0
  150.3629  139.2955  154.2689 N   0  0  0  0  0  0  0  0  0  0  0  0
  150.6714  137.9829  153.9784 C   0  0  0  0  0  0  0  0  0  0  0  0
  152.0230  137.8442  154.1151 C   0  0  0  0  0  0  0  0  0  0  0  0
  152.4602  139.1443  154.4943 C   0  0  0  0  0  0  0  0  0  0  0  0
  151.4638  140.0108  154.5855 N   0  0  0  0  0  0  0  0  0  0  0  0
  143.4065  135.2160  150.9446 H   0  0  0  0  0  0  0  0  0  0  0  0
  143.9400  134.6564  149.3630 H   0  0  0  0  0  0  0  0  0  0  0  0
  144.6175  136.1223  150.0406 H   0  0  0  0  0  0  0  0  0  0  0  0
  146.2314  134.2626  150.2755 H   0  0  0  0  0  0  0  0  0  0  0  0
  144.0901  132.7617  151.8569 H   0  0  0  0  0  0  0  0  0  0  0  0
  145.6996  132.1671  151.4492 H   0  0  0  0  0  0  0  0  0  0  0  0
  144.5224  132.4313  150.1826 H   0  0  0  0  0  0  0  0  0  0  0  0
  144.9962  134.9424  152.9705 H   0  0  0  0  0  0  0  0  0  0  0  0
  146.5925  133.1002  153.3108 H   0  0  0  0  0  0  0  0  0  0  0  0
  147.3077  134.5841  153.9019 H   0  0  0  0  0  0  0  0  0  0  0  0
  147.8159  133.9288  152.3484 H   0  0  0  0  0  0  0  0  0  0  0  0
  147.3176  136.3212  151.7360 H   0  0  0  0  0  0  0  0  0  0  0  0
  146.4971  138.8335  150.9155 H   0  0  0  0  0  0  0  0  0  0  0  0
  145.9348  139.5361  152.4280 H   0  0  0  0  0  0  0  0  0  0  0  0
  148.2295  137.7359  152.3538 H   0  0  0  0  0  0  0  0  0  0  0  0
  146.9802  139.3394  154.3156 H   0  0  0  0  0  0  0  0  0  0  0  0
  148.1129  138.0114  154.5138 H   0  0  0  0  0  0  0  0  0  0  0  0
  149.0730  140.7364  153.5218 H   0  0  0  0  0  0  0  0  0  0  0  0
  148.9119  140.4162  155.2379 H   0  0  0  0  0  0  0  0  0  0  0  0
  149.9133  137.2647  153.7030 H   0  0  0  0  0  0  0  0  0  0  0  0
  152.6108  136.9506  153.9659 H   0  0  0  0  0  0  0  0  0  0  0  0
  153.4647  139.4814  154.7043 H   0  0  0  0  0  0  0  0  0  0  0  0
  148.3968  139.3336  152.0244 H   0  0  0  0  0  0  0  0  0  0  0  0
  1  2  1  0  0  0  0
  1 18  1  0  0  0  0
  1 19  1  0  0  0  0
  1 20  1  0  0  0  0
  2  3  1  0  0  0  0
  2  4  1  0  0  0  0
  2 21  1  0  0  0  0
  3 22  1  0  0  0  0
  3 23  1  0  0  0  0
  3 24  1  0  0  0  0
  4  5  1  0  0  0  0
  4  6  1  0  0  0  0
  4 25  1  0  0  0  0
  5 26  1  0  0  0  0
  5 27  1  0  0  0  0
  5 28  1  0  0  0  0
  6  7  1  0  0  0  0
  6 29  1  0  0  0  0
  7  8  2  0  0  0  0
  7  9  1  0  0  0  0
  9 10  1  0  0  0  0
  9 30  1  0  0  0  0
  9 31  1  0  0  0  0
 10 11  1  0  0  0  0
 10 32  1  0  0  0  0
 10 40  1  0  0  0  0
 11 12  1  0  0  0  0
 11 33  1  0  0  0  0
 11 34  1  0  0  0  0
 12 13  1  0  0  0  0
 12 35  1  0  0  0  0
 12 36  1  0  0  0  0
 13 17  1  0  0  0  0
 13 14  1  0  0  0  0
 14 15  2  0  0  0  0
 14 37  1  0  0  0  0
 15 16  1  0  0  0  0
 15 38  1  0  0  0  0
 16 17  2  0  0  0  0
 16 39  1  0  0  0  0
M  CHG  1  10   1
M  END
> <s_m_source_file>
AV-unprocessed.smi

> <i_m_source_file_index>
3128

> <i_lp_mmshare_version>
43012

> <i_f3d_flags>
0

> <s_epik_input>
W0NIM11bQ0hdKFtDSDNdKVtDQEhdKFtDSDNdKVtOSF1DKD1PKVtDSDJdW05IXVtDSDJdW0NIMl1uMVtjSF1bY0hdW2NIXW4x

> <s_epik_cmdline>
J2VwaWtfcHl0aG9uJywgJy1waCcsICc3LjAnLCAnLXRuJywgJzgnLCAnLW1hJywgJzIwMCcsICctbWV0YWxfYmluZGluZycsICctaW1hZScsICc8aW5maWxlLm1hZT4nLCAnLW9tYWUnLCAnPG91dGZpbGUubWFlPic=

> <r_lp_tautomer_probability>
1

> <r_epik_Ionization_Penalty>
0.20724

> <r_epik_Ionization_Penalty_Charging>
0.207237

> <r_epik_Ionization_Penalty_Neutral>
3.20642e-06

> <r_epik_State_Penalty>
0.197613

> <r_epik_Charging_Adjusted_Penalty>
0.40485

> <i_epik_Tot_Q>
1

> <i_epik_Tot_abs_Q>
1

> <r_epik_Metal_State_Penalty>
0.197789

> <b_epik_Metal_Only>
0

> <s_lp_Force_Field>
OPLS_2005

> <r_lp_Energy>
4.49363

> <b_lp_Chiralities_Consistent>
1

> <s_lp_Variant>
AV-unprocessed.smi:3128-2

> <Gold.Version>
5.8.1

> <Gold.Id.Protein>
6NUR|6NUR_protein|mol2

> <Gold.PLP.Fitness>
52.4141

> <Gold.PLP.PLP>
-36.1319

> <Gold.PLP.part.hbond>
-4.0000

> <Gold.PLP.part.metal>
0.0000

> <Gold.PLP.part.buried>
-3.7308

> <Gold.PLP.part.nonpolar>
-30.2700

> <Gold.PLP.part.repulsive>
1.2146

> <Gold.PLP.ligand.clash>
0.0000

> <Gold.PLP.ligand.torsion>
0.9635

> <Gold.PLP.Chemscore.Hbond>
5.0000

> <Gold.PLP.Chemscore.CHOScore>
1.0000

> <Gold.PLP.Chemscore.Metal>
0.0000

> <Gold.Chemscore.Hbonds>
donor molecule, donor type, donor heavy atom, donor atom, acceptor molecule, acceptor atom, score
      L1  H     6    29       P1  7948  1.00
      L1  H    10    32       P1  7948  2.00
      L1  H    10    40       P1  7957  1.00
      P1  H  7989  7998       L1    17  0.65
      L1  C    14    37       P1  7948  1.00

> <Gold.PLP.Chemscore.Internal.Correction>
0.2092

> <Gold.Rescore>
     Score         DG    S(hbond)    S(metal)    S(lipo)     H(rot)  DE(clash)    DE(int)     intcor
     19.56     -20.72       3.77        0.00      71.63       2.24       0.09       1.07       ----

> <Gold.Chemscore.Fitness>
19.5589

> <Gold.Chemscore.DG>
-20.7248

> <Gold.Chemscore.ZeroCoef>
-5.4800

> <Gold.Chemscore.Hbond>
3.7732

> <Gold.Chemscore.Metal>
0.0000

> <Gold.Chemscore.Lipo>
71.6305

> <Gold.Chemscore.Internal_Hbond>
0.0000

> <Gold.Chemscore.DEClash>
0.0924

> <Gold.Chemscore.DEInternal>
1.0736

> <Gold.Chemscore.Rot>
2.2416

> <Gold.Chemscore.Internal.Correction>
   9.000000E+99

> <Gold.Chemscore.Hbonds>
donor molecule, donor type, donor heavy atom, donor atom, acceptor molecule, acceptor atom, score
      L1  H     6    29       P1  7948  0.97
      L1  H    10    32       P1  7948  1.00
      L1  H    10    40       P1  7957  0.99
      P1  H  7989  7998       L1    17  0.14

> <Gold.Chemscore.Hbond.Weighted>
-12.6026

> <Gold.Chemscore.Metal.Weighted>
-0.0000

> <Gold.Chemscore.Lipo.Weighted>
-8.3808

> <Gold.Chemscore.Internal_Hbond.Weighted>
0.0000

> <Gold.Chemscore.DEClash.Weighted>
0.0924

> <Gold.Chemscore.DEInternal.Weighted>
1.0736

> <Gold.Chemscore.Rot.Weighted>
5.7385

> <Gold.Chemscore.Internal.Correction.Weighted>
   9.000000E+99

> <Gold.Protein.RotatedTorsions>
[ 6907 6896 6895 6894 ] final -135.42 input  -60.11 | X-H torsion
[ 7974 7965 7964 7962 ] final -158.14 input  175.53 | X-H torsion
[ 8008 7997 7996 7995 ] final  -88.17 input   59.86 | X-H torsion
[ 10167 10162 10161 10158 ] final  -96.80 input  -65.29 | X-H torsion
[ 10718 10713 10712 10709 ] final  -32.40 input   66.30 | X-H torsion
[ 10763 10752 10751 10750 ] final  150.52 input  -60.55 | X-H torsion
[ 11005 11000 10999 10996 ] final  130.28 input  -57.11 | X-H torsion

> <Gold.Protein.ActiveResidues>
 VAL166  LYS551  ARG553  GLY616  TRP617  ASP618  TYR619  PRO620  LYS621  CYS622 
 ASP623  PHE694  ASN695  SER759  ASP760  ASP761  ALA762  ILE779  LEU786  VAL792 
 PHE793  MET794  SER795  GLU796  ALA797  LYS798  CYS799  TRP800  GLU811  SER814 

> <Gold.Protein.RotatedAtoms>
  150.9976  133.6088  159.2699 H   0  0  0  0  0  0  0  0  0  0  0  0  # atno 6907 bound_to 6896
  151.3286  135.0835  159.9340 H   0  0  0  0  0  0  0  0  0  0  0  0  # atno 6908 bound_to 6896
  152.5264  133.9610  159.7771 H   0  0  0  0  0  0  0  0  0  0  0  0  # atno 6909 bound_to 6896
  144.7518  140.3870  143.6042 H   0  0  0  0  0  0  0  0  0  0  0  0  # atno 7974 bound_to 7965
  154.6717  140.0557  157.0173 H   0  0  0  0  0  0  0  0  0  0  0  0  # atno 8008 bound_to 7997
  155.1078  140.3235  155.4511 H   0  0  0  0  0  0  0  0  0  0  0  0  # atno 8009 bound_to 7997
  156.2660  140.2019  156.6203 H   0  0  0  0  0  0  0  0  0  0  0  0  # atno 8010 bound_to 7997
  140.2900  143.3227  152.0355 H   0  0  0  0  0  0  0  0  0  0  0  0  # atno 10167 bound_to 10162
  156.3753  130.4346  149.7512 H   0  0  0  0  0  0  0  0  0  0  0  0  # atno 10718 bound_to 10713
  154.0888  135.2854  155.3276 H   0  0  0  0  0  0  0  0  0  0  0  0  # atno 10763 bound_to 10752
  154.6634  135.5326  153.8050 H   0  0  0  0  0  0  0  0  0  0  0  0  # atno 10764 bound_to 10752
  153.0421  135.6539  154.1058 H   0  0  0  0  0  0  0  0  0  0  0  0  # atno 10765 bound_to 10752
  139.9663  134.9589  156.9271 H   0  0  0  0  0  0  0  0  0  0  0  0  # atno 11005 bound_to 11000
  145.6917  139.1640  143.2643 LP  0  0  0  0  0  0  0  0  0  0  0  0  # atno 17320 bound_to 7965
  146.1478  140.6968  142.9336 LP  0  0  0  0  0  0  0  0  0  0  0  0  # atno 17321 bound_to 7965
  139.4940  144.6531  151.6632 LP  0  0  0  0  0  0  0  0  0  0  0  0  # atno 17342 bound_to 10162
  140.5740  144.0061  150.6231 LP  0  0  0  0  0  0  0  0  0  0  0  0  # atno 17343 bound_to 10162
  156.4623  130.7958  151.2978 LP  0  0  0  0  0  0  0  0  0  0  0  0  # atno 17370 bound_to 10713
  157.7488  131.0062  150.3141 LP  0  0  0  0  0  0  0  0  0  0  0  0  # atno 17371 bound_to 10713
  140.5389  134.0739  155.7336 LP  0  0  0  0  0  0  0  0  0  0  0  0  # atno 17394 bound_to 11000
  141.1343  133.9249  157.2469 LP  0  0  0  0  0  0  0  0  0  0  0  0  # atno 17395 bound_to 11000

$$$$
