AV-unprocessed.smi:203|AV-procd|sdf|1587|dock3
  -GOLD-   2262019483D 1   1.00000     0.00000
 Structure written by MMmdl.
 57 61  0  0  0  0  0  0  0  0  1 V2000
  150.0123  145.9115  160.0730 O   0  0  0  0  0  0  0  0  0  0  0  0
  150.8265  145.1899  159.5019 C   0  0  0  0  0  0  0  0  0  0  0  0
  150.4860  143.8178  158.9452 C   0  0  0  0  0  0  0  0  0  0  0  0
  151.8583  143.2289  158.5621 C   0  0  2  0  0  0  0  0  0  0  0  0
  152.3035  142.0240  159.4508 C   0  0  2  0  0  0  0  0  0  0  0  0
  153.3536  142.4234  160.5215 C   0  0  0  0  0  0  0  0  0  0  0  0
  153.7752  141.2253  161.3822 C   0  0  0  0  0  0  0  0  0  0  0  0
  154.2854  140.0918  160.4866 C   0  0  0  0  0  0  0  0  0  0  0  0
  153.2228  139.7151  159.4461 C   0  0  0  0  0  0  0  0  0  0  0  0
  152.8041  140.8801  158.6669 N   0  0  0  0  0  0  0  0  0  0  0  0
  152.0489  140.4963  157.6137 C   0  0  0  0  0  0  0  0  0  0  0  0
  152.6859  139.8827  156.5865 N   0  0  0  0  0  0  0  0  0  0  0  0
  151.9928  139.4841  155.5152 C   0  0  0  0  0  0  0  0  0  0  0  0
  150.6838  139.5950  155.2780 N   0  0  0  0  0  0  0  0  0  0  0  0
  150.0416  140.2071  156.3145 C   0  0  0  0  0  0  0  0  0  0  0  0
  150.6422  140.6878  157.5114 C   0  0  0  0  0  0  0  0  0  0  0  0
  149.6757  141.2535  158.3344 N   0  0  0  0  0  0  0  0  0  0  0  0
  148.5656  141.1136  157.6622 C   0  0  0  0  0  0  0  0  0  0  0  0
  148.6940  140.4939  156.4401 N   0  0  0  0  0  0  0  0  0  0  0  0
  147.6282  140.2073  155.4965 C   0  0  0  0  0  0  0  0  0  0  0  0
  147.4720  141.3131  154.4310 C   0  0  1  0  0  0  0  0  0  0  0  0
  147.7265  140.7992  153.1387 O   0  0  0  0  0  0  0  0  0  0  0  0
  146.0905  141.9998  154.4268 C   0  0  2  0  0  0  0  0  0  0  0  0
  145.9744  143.1839  153.4584 C   0  0  0  0  0  0  0  0  0  0  0  0
  145.0291  144.1537  154.1560 C   0  0  0  0  0  0  0  0  0  0  0  0
  144.7016  143.4700  155.4823 C   0  0  0  0  0  0  0  0  0  0  0  0
  145.7884  142.5827  155.6865 O   0  0  0  0  0  0  0  0  0  0  0  0
  152.8308  144.4297  158.5990 C   0  0  0  0  0  0  0  0  0  0  0  0
  152.1052  145.4848  159.2786 N   0  0  0  0  0  0  0  0  0  0  0  0
  149.9382  143.2127  159.6674 H   0  0  0  0  0  0  0  0  0  0  0  0
  149.8539  143.9420  158.0654 H   0  0  0  0  0  0  0  0  0  0  0  0
  151.7718  142.8910  157.5290 H   0  0  0  0  0  0  0  0  0  0  0  0
  151.4205  141.6760  159.9878 H   0  0  0  0  0  0  0  0  0  0  0  0
  154.2405  142.8414  160.0449 H   0  0  0  0  0  0  0  0  0  0  0  0
  152.9652  143.2024  161.1762 H   0  0  0  0  0  0  0  0  0  0  0  0
  154.5496  141.5234  162.0895 H   0  0  0  0  0  0  0  0  0  0  0  0
  152.9265  140.8778  161.9728 H   0  0  0  0  0  0  0  0  0  0  0  0
  155.2006  140.4034  159.9816 H   0  0  0  0  0  0  0  0  0  0  0  0
  154.5421  139.2215  161.0909 H   0  0  0  0  0  0  0  0  0  0  0  0
  153.6220  138.9462  158.7826 H   0  0  0  0  0  0  0  0  0  0  0  0
  152.3557  139.2827  159.9476 H   0  0  0  0  0  0  0  0  0  0  0  0
  152.5696  139.0072  154.7365 H   0  0  0  0  0  0  0  0  0  0  0  0
  147.6155  141.4605  158.0415 H   0  0  0  0  0  0  0  0  0  0  0  0
  147.8326  139.2447  155.0261 H   0  0  0  0  0  0  0  0  0  0  0  0
  146.7038  140.0849  156.0612 H   0  0  0  0  0  0  0  0  0  0  0  0
  148.2304  142.0781  154.6024 H   0  0  0  0  0  0  0  0  0  0  0  0
  147.2186  140.0098  153.0271 H   0  0  0  0  0  0  0  0  0  0  0  0
  145.3099  141.2772  154.1797 H   0  0  0  0  0  0  0  0  0  0  0  0
  146.9390  143.6664  153.2979 H   0  0  0  0  0  0  0  0  0  0  0  0
  145.5996  142.8686  152.4842 H   0  0  0  0  0  0  0  0  0  0  0  0
  145.5337  145.1047  154.3309 H   0  0  0  0  0  0  0  0  0  0  0  0
  144.1295  144.3536  153.5734 H   0  0  0  0  0  0  0  0  0  0  0  0
  144.5979  144.1757  156.3067 H   0  0  0  0  0  0  0  0  0  0  0  0
  143.7769  142.8960  155.4037 H   0  0  0  0  0  0  0  0  0  0  0  0
  153.7679  144.2102  159.1108 H   0  0  0  0  0  0  0  0  0  0  0  0
  153.0763  144.7608  157.5892 H   0  0  0  0  0  0  0  0  0  0  0  0
  152.5429  146.3504  159.5592 H   0  0  0  0  0  0  0  0  0  0  0  0
  1  2  2  0  0  0  0
  2 29  1  0  0  0  0
  2  3  1  0  0  0  0
  3  4  1  0  0  0  0
  3 30  1  0  0  0  0
  3 31  1  0  0  0  0
  4  5  1  0  0  0  0
  4 28  1  0  0  0  0
  4 32  1  0  0  0  0
  5 10  1  0  0  0  0
  5  6  1  0  0  0  0
  5 33  1  0  0  0  0
  6  7  1  0  0  0  0
  6 34  1  0  0  0  0
  6 35  1  0  0  0  0
  7  8  1  0  0  0  0
  7 36  1  0  0  0  0
  7 37  1  0  0  0  0
  8  9  1  0  0  0  0
  8 38  1  0  0  0  0
  8 39  1  0  0  0  0
  9 10  1  0  0  0  0
  9 40  1  0  0  0  0
  9 41  1  0  0  0  0
 10 11  1  0  0  0  0
 11 16  1  0  0  0  0
 11 12  2  0  0  0  0
 12 13  1  0  0  0  0
 13 14  2  0  0  0  0
 13 42  1  0  0  0  0
 14 15  1  0  0  0  0
 15 19  1  0  0  0  0
 15 16  2  0  0  0  0
 16 17  1  0  0  0  0
 17 18  2  0  0  0  0
 18 19  1  0  0  0  0
 18 43  1  0  0  0  0
 19 20  1  0  0  0  0
 20 21  1  0  0  0  0
 20 44  1  0  0  0  0
 20 45  1  0  0  0  0
 21 22  1  0  0  0  0
 21 23  1  0  0  0  0
 21 46  1  0  0  0  0
 22 47  1  0  0  0  0
 23 27  1  0  0  0  0
 23 24  1  0  0  0  0
 23 48  1  0  0  0  0
 24 25  1  0  0  0  0
 24 49  1  0  0  0  0
 24 50  1  0  0  0  0
 25 26  1  0  0  0  0
 25 51  1  0  0  0  0
 25 52  1  0  0  0  0
 26 27  1  0  0  0  0
 26 53  1  0  0  0  0
 26 54  1  0  0  0  0
 28 29  1  0  0  0  0
 28 55  1  0  0  0  0
 28 56  1  0  0  0  0
 29 57  1  0  0  0  0
M  END
> <s_m_source_file>
AV-unprocessed.smi

> <i_m_source_file_index>
203

> <i_lp_mmshare_version>
43012

> <i_f3d_flags>
0

> <s_epik_input>
Tz1DMVtDSDJdW0NASF0oW0NIMl1bTkhdMSlbQ0BASF0yW0NIMl1bQ0gyXVtDSDJdW0NIMl1OMmMobltjSF1uMyljKGMzNCluW2NIXW40W0NIMl1bQ0BIXShbT0hdKVtDQEBIXTVbQ0gyXVtDSDJdW0NIMl1PNQ==

> <s_epik_cmdline>
J2VwaWtfcHl0aG9uJywgJy1waCcsICc3LjAnLCAnLXRuJywgJzgnLCAnLW1hJywgJzIwMCcsICctbWV0YWxfYmluZGluZycsICctaW1hZScsICc8aW5maWxlLm1hZT4nLCAnLW9tYWUnLCAnPG91dGZpbGUubWFlPic=

> <r_lp_tautomer_probability>
1

> <r_epik_Ionization_Penalty>
0.00175146

> <r_epik_Ionization_Penalty_Charging>
0

> <r_epik_Ionization_Penalty_Neutral>
0.00175146

> <r_epik_State_Penalty>
0.00109045

> <r_epik_Charging_Adjusted_Penalty>
0.00109045

> <i_epik_Tot_Q>
0

> <i_epik_Tot_abs_Q>
0

> <r_epik_Metal_State_Penalty>
-0

> <b_epik_Metal_Only>
0

> <s_lp_Force_Field>
OPLS_2005

> <r_lp_Energy>
57.3727

> <b_lp_Chiralities_Consistent>
1

> <s_lp_Variant>
AV-unprocessed.smi:203-6

> <Gold.Version>
5.8.1

> <Gold.Id.Protein>
6NUR|6NUR_protein|mol2

> <Gold.PLP.Fitness>
49.3595

> <Gold.PLP.PLP>
-51.8418

> <Gold.PLP.part.hbond>
-3.0163

> <Gold.PLP.part.metal>
0.0000

> <Gold.PLP.part.buried>
-7.1765

> <Gold.PLP.part.nonpolar>
-41.4135

> <Gold.PLP.part.repulsive>
0.6316

> <Gold.PLP.ligand.clash>
0.0000

> <Gold.PLP.ligand.torsion>
2.8786

> <Gold.PLP.Chemscore.Hbond>
1.0000

> <Gold.PLP.Chemscore.CHOScore>
0.0000

> <Gold.PLP.Chemscore.Metal>
0.0000

> <Gold.Chemscore.Hbonds>
donor molecule, donor type, donor heavy atom, donor atom, acceptor molecule, acceptor atom, score
      P1  H  7997  8010       L1    12  1.00

> <Gold.PLP.Chemscore.Internal.Correction>
0.2749

> <Gold.Rescore>
     Score         DG    S(hbond)    S(metal)    S(lipo)     H(rot)  DE(clash)    DE(int)     intcor
      6.21     -14.32       0.88        0.00     109.83       2.72       1.22       6.89       ----

> <Gold.Chemscore.Fitness>
6.2107

> <Gold.Chemscore.DG>
-14.3198

> <Gold.Chemscore.ZeroCoef>
-5.4800

> <Gold.Chemscore.Hbond>
0.8817

> <Gold.Chemscore.Metal>
0.0000

> <Gold.Chemscore.Lipo>
109.8346

> <Gold.Chemscore.Internal_Hbond>
0.0000

> <Gold.Chemscore.DEClash>
1.2238

> <Gold.Chemscore.DEInternal>
6.8853

> <Gold.Chemscore.Rot>
2.7171

> <Gold.Chemscore.Internal.Correction>
   9.000000E+99

> <Gold.Chemscore.Hbonds>
donor molecule, donor type, donor heavy atom, donor atom, acceptor molecule, acceptor atom, score
      P1  H  7997  8010       L1    12  0.82

> <Gold.Chemscore.Hbond.Weighted>
-2.9449

> <Gold.Chemscore.Metal.Weighted>
-0.0000

> <Gold.Chemscore.Lipo.Weighted>
-12.8507

> <Gold.Chemscore.Internal_Hbond.Weighted>
0.0000

> <Gold.Chemscore.DEClash.Weighted>
1.2238

> <Gold.Chemscore.DEInternal.Weighted>
6.8853

> <Gold.Chemscore.Rot.Weighted>
6.9557

> <Gold.Chemscore.Internal.Correction.Weighted>
   9.000000E+99

> <Gold.Protein.RotatedTorsions>
[ 6907 6896 6895 6894 ] final  116.20 input  -60.11 | X-H torsion
[ 7974 7965 7964 7962 ] final  -64.52 input  175.53 | X-H torsion
[ 8008 7997 7996 7995 ] final   84.38 input   59.86 | X-H torsion
[ 10167 10162 10161 10158 ] final  136.22 input  -65.29 | X-H torsion
[ 10718 10713 10712 10709 ] final  113.21 input   66.30 | X-H torsion
[ 10763 10752 10751 10750 ] final   74.46 input  -60.55 | X-H torsion
[ 11005 11000 10999 10996 ] final   66.53 input  -57.11 | X-H torsion

> <Gold.Protein.ActiveResidues>
 VAL166  LYS551  ARG553  GLY616  TRP617  ASP618  TYR619  PRO620  LYS621  CYS622 
 ASP623  PHE694  ASN695  SER759  ASP760  ASP761  ALA762  ILE779  LEU786  VAL792 
 PHE793  MET794  SER795  GLU796  ALA797  LYS798  CYS799  TRP800  GLU811  SER814 

> <Gold.Protein.RotatedAtoms>
  152.4693  133.7993  159.6944 H   0  0  0  0  0  0  0  0  0  0  0  0  # atno 6907 bound_to 6896
  150.8674  133.7545  159.2979 H   0  0  0  0  0  0  0  0  0  0  0  0  # atno 6908 bound_to 6896
  151.5091  135.1067  159.9901 H   0  0  0  0  0  0  0  0  0  0  0  0  # atno 6909 bound_to 6896
  145.7657  140.8839  143.0407 H   0  0  0  0  0  0  0  0  0  0  0  0  # atno 7974 bound_to 7965
  155.9363  140.3411  155.6290 H   0  0  0  0  0  0  0  0  0  0  0  0  # atno 8008 bound_to 7997
  155.7095  140.0770  157.2395 H   0  0  0  0  0  0  0  0  0  0  0  0  # atno 8009 bound_to 7997
  154.4094  140.1625  156.2268 H   0  0  0  0  0  0  0  0  0  0  0  0  # atno 8010 bound_to 7997
  139.5188  144.6476  151.5396 H   0  0  0  0  0  0  0  0  0  0  0  0  # atno 10167 bound_to 10162
  157.6351  131.0980  150.7007 H   0  0  0  0  0  0  0  0  0  0  0  0  # atno 10718 bound_to 10713
  153.0588  135.5025  154.8045 H   0  0  0  0  0  0  0  0  0  0  0  0  # atno 10763 bound_to 10752
  154.6850  135.2974  154.9562 H   0  0  0  0  0  0  0  0  0  0  0  0  # atno 10764 bound_to 10752
  154.0336  135.6726  153.4836 H   0  0  0  0  0  0  0  0  0  0  0  0  # atno 10765 bound_to 10752
  139.9826  134.6719  156.0235 H   0  0  0  0  0  0  0  0  0  0  0  0  # atno 11005 bound_to 11000
  144.6822  139.9784  143.7483 LP  0  0  0  0  0  0  0  0  0  0  0  0  # atno 17320 bound_to 7965
  146.0220  139.3259  143.0807 LP  0  0  0  0  0  0  0  0  0  0  0  0  # atno 17321 bound_to 7965
  140.6267  143.9155  150.6571 LP  0  0  0  0  0  0  0  0  0  0  0  0  # atno 17342 bound_to 10162
  140.2446  143.3638  152.1458 LP  0  0  0  0  0  0  0  0  0  0  0  0  # atno 17343 bound_to 10162
  156.7340  130.4718  149.5493 LP  0  0  0  0  0  0  0  0  0  0  0  0  # atno 17370 bound_to 10713
  156.1583  130.6357  151.0686 LP  0  0  0  0  0  0  0  0  0  0  0  0  # atno 17371 bound_to 10713
  141.1496  133.6550  156.3972 LP  0  0  0  0  0  0  0  0  0  0  0  0  # atno 17394 bound_to 11000
  140.5066  134.6435  157.5269 LP  0  0  0  0  0  0  0  0  0  0  0  0  # atno 17395 bound_to 11000

$$$$
