AV-unprocessed.smi:102|AV-procd|sdf|946|dock8
  -GOLD-   2262017473D 1   1.00000     0.00000
 Structure written by MMmdl.
 44 45  0  0  0  0  0  0  0  0  1 V2000
  147.0384  134.9241  160.9182 C   0  0  0  0  0  0  0  0  0  0  0  0
  147.5418  136.3189  160.5709 C   0  0  0  0  0  0  0  0  0  0  0  0
  147.7647  137.1577  161.4441 O   0  0  0  0  0  0  0  0  0  0  0  0
  147.6952  136.4946  159.2492 O   0  0  0  0  0  0  0  0  0  0  0  0
  148.3552  137.6532  158.7655 C   0  0  0  0  0  0  0  0  0  0  0  0
  149.8704  137.5096  159.0019 C   0  0  1  0  0  0  0  0  0  0  0  0
  150.2995  136.2275  158.5419 O   0  0  0  0  0  0  0  0  0  0  0  0
  150.8803  136.3040  157.2688 C   0  0  1  0  0  0  0  0  0  0  0  0
  150.1282  135.4079  156.3040 N   0  0  0  0  0  0  0  0  0  0  0  0
  149.2134  134.4515  156.7279 C   0  0  0  0  0  0  0  0  0  0  0  0
  148.5202  133.6652  155.8710 C   0  0  0  0  0  0  0  0  0  0  0  0
  147.6501  132.7632  156.3559 F   0  0  0  0  0  0  0  0  0  0  0  0
  148.7106  133.7858  154.4286 C   0  0  0  0  0  0  0  0  0  0  0  0
  148.1260  133.1221  153.5746 O   0  0  0  0  0  0  0  0  0  0  0  0
  149.6476  134.7509  154.0488 N   0  0  0  0  0  0  0  0  0  0  0  0
  150.3683  135.5674  154.9215 C   0  0  0  0  0  0  0  0  0  0  0  0
  151.1669  136.3919  154.4792 O   0  0  0  0  0  0  0  0  0  0  0  0
  150.8732  137.7873  156.8432 C   0  0  1  0  0  0  0  0  0  0  0  0
  149.7628  138.0704  155.9899 O   0  0  0  0  0  0  0  0  0  0  0  0
  149.8534  138.9969  155.0212 C   0  0  0  0  0  0  0  0  0  0  0  0
  148.5619  139.1276  154.2257 C   0  0  0  0  0  0  0  0  0  0  0  0
  150.8398  139.6858  154.7625 O   0  0  0  0  0  0  0  0  0  0  0  0
  150.7380  138.4775  158.1936 C   0  0  1  0  0  0  0  0  0  0  0  0
  150.2085  139.7971  158.1212 O   0  0  0  0  0  0  0  0  0  0  0  0
  150.8768  140.7597  157.4619 C   0  0  0  0  0  0  0  0  0  0  0  0
  150.1756  142.1092  157.5379 C   0  0  0  0  0  0  0  0  0  0  0  0
  151.9299  140.6153  156.8413 O   0  0  0  0  0  0  0  0  0  0  0  0
  149.8142  134.8684  153.0599 H   0  0  0  0  0  0  0  0  0  0  0  0
  146.2525  134.6191  160.2271 H   0  0  0  0  0  0  0  0  0  0  0  0
  146.6323  134.9057  161.9298 H   0  0  0  0  0  0  0  0  0  0  0  0
  147.8530  134.2025  160.8587 H   0  0  0  0  0  0  0  0  0  0  0  0
  148.1416  137.8058  157.7076 H   0  0  0  0  0  0  0  0  0  0  0  0
  147.9657  138.5182  159.3030 H   0  0  0  0  0  0  0  0  0  0  0  0
  150.0820  137.6169  160.0663 H   0  0  0  0  0  0  0  0  0  0  0  0
  151.8860  135.8851  157.3372 H   0  0  0  0  0  0  0  0  0  0  0  0
  149.0282  134.3055  157.7802 H   0  0  0  0  0  0  0  0  0  0  0  0
  151.8237  138.0232  156.3627 H   0  0  0  0  0  0  0  0  0  0  0  0
  147.6979  138.9345  154.8620 H   0  0  0  0  0  0  0  0  0  0  0  0
  148.5530  138.4123  153.4030 H   0  0  0  0  0  0  0  0  0  0  0  0
  148.4686  140.1323  153.8134 H   0  0  0  0  0  0  0  0  0  0  0  0
  151.7209  138.5009  158.6676 H   0  0  0  0  0  0  0  0  0  0  0  0
  149.8725  142.3246  158.5625 H   0  0  0  0  0  0  0  0  0  0  0  0
  149.2877  142.1075  156.9055 H   0  0  0  0  0  0  0  0  0  0  0  0
  150.8396  142.9050  157.1995 H   0  0  0  0  0  0  0  0  0  0  0  0
  1  2  1  0  0  0  0
  1 29  1  0  0  0  0
  1 30  1  0  0  0  0
  1 31  1  0  0  0  0
  2  3  2  0  0  0  0
  2  4  1  0  0  0  0
  4  5  1  0  0  0  0
  5  6  1  0  0  0  0
  5 32  1  0  0  0  0
  5 33  1  0  0  0  0
  6 23  1  0  0  0  0
  6  7  1  0  0  0  0
  6 34  1  0  0  0  0
  7  8  1  0  0  0  0
  8  9  1  0  0  0  0
  8 18  1  0  0  0  0
  8 35  1  0  0  0  0
  9 16  1  0  0  0  0
  9 10  1  0  0  0  0
 10 11  2  0  0  0  0
 10 36  1  0  0  0  0
 11 12  1  0  0  0  0
 11 13  1  0  0  0  0
 13 14  2  0  0  0  0
 13 15  1  0  0  0  0
 15 28  1  0  0  0  0
 15 16  1  0  0  0  0
 16 17  2  0  0  0  0
 18 19  1  0  0  0  0
 18 23  1  0  0  0  0
 18 37  1  0  0  0  0
 19 20  1  0  0  0  0
 20 21  1  0  0  0  0
 20 22  2  0  0  0  0
 21 38  1  0  0  0  0
 21 39  1  0  0  0  0
 21 40  1  0  0  0  0
 23 24  1  0  0  0  0
 23 41  1  0  0  0  0
 24 25  1  0  0  0  0
 25 26  1  0  0  0  0
 25 27  2  0  0  0  0
 26 42  1  0  0  0  0
 26 43  1  0  0  0  0
 26 44  1  0  0  0  0
M  END
> <s_m_source_file>
AV-unprocessed.smi

> <i_m_source_file_index>
102

> <i_lp_mmshare_version>
43012

> <i_f3d_flags>
0

> <s_epik_input>
W0NIM11DKD1PKU9bQ0gyXVtDQEBIXTFPW0NASF0oW0NAQEhdKE9DKD1PKVtDSDNdKVtDQEhdMU9DKD1PKVtDSDNdKW4yW2NIXWMoRiljKD1PKVtuSF1jMj1P

> <s_epik_cmdline>
J2VwaWtfcHl0aG9uJywgJy1waCcsICc3LjAnLCAnLXRuJywgJzgnLCAnLW1hJywgJzIwMCcsICctbWV0YWxfYmluZGluZycsICctaW1hZScsICc8aW5maWxlLm1hZT4nLCAnLW9tYWUnLCAnPG91dGZpbGUubWFlPic=

> <r_lp_tautomer_probability>
0.999537

> <r_epik_Ionization_Penalty>
0.058267

> <r_epik_Ionization_Penalty_Charging>
0.058267

> <r_epik_Ionization_Penalty_Neutral>
6.57791e-16

> <r_epik_State_Penalty>
0.0503774

> <r_epik_Charging_Adjusted_Penalty>
0.108644

> <i_epik_Tot_Q>
0

> <i_epik_Tot_abs_Q>
0

> <r_epik_Metal_State_Penalty>
2.6644

> <b_epik_Metal_Only>
0

> <s_epik_Chemistry_Notes>
This compound has an ester and may undergo hydrolysis at high or low pH. This compound contains an acetal/aminal-like group ( X-CH(R)-Y where X, Y are N, S, or O) that may be acid/base labile, releasing an aldehyde.

> <s_lp_Force_Field>
OPLS_2005

> <r_lp_Energy>
16.4745

> <b_lp_Chiralities_Consistent>
1

> <s_lp_Variant>
AV-unprocessed.smi:102-2

> <Gold.Version>
5.8.1

> <Gold.Id.Protein>
6NUR|6NUR_protein|mol2

> <Gold.PLP.Fitness>
40.9143

> <Gold.PLP.PLP>
-28.5071

> <Gold.PLP.part.hbond>
-6.4451

> <Gold.PLP.part.metal>
0.0000

> <Gold.PLP.part.buried>
-4.3204

> <Gold.PLP.part.nonpolar>
-18.7460

> <Gold.PLP.part.repulsive>
1.0991

> <Gold.PLP.ligand.clash>
0.0000

> <Gold.PLP.ligand.torsion>
1.0684

> <Gold.PLP.Chemscore.Hbond>
4.7840

> <Gold.PLP.Chemscore.CHOScore>
0.0000

> <Gold.PLP.Chemscore.Metal>
0.0000

> <Gold.Chemscore.Hbonds>
donor molecule, donor type, donor heavy atom, donor atom, acceptor molecule, acceptor atom, score
      P1  H  6896  6909       L1     7  1.00
      P1  H  6931  6943       L1     3  1.00
      P1  H  6934  6947       L1     3  0.77
      P1  H  7989  7998       L1    22  1.00
      P1  H 10752 10764       L1    17  1.00

> <Gold.PLP.Chemscore.Internal.Correction>
0.1921

> <Gold.Rescore>
     Score         DG    S(hbond)    S(metal)    S(lipo)     H(rot)  DE(clash)    DE(int)     intcor
      9.40     -14.61       4.56        0.00      36.64       4.05       0.14       5.07       ----

> <Gold.Chemscore.Fitness>
9.4011

> <Gold.Chemscore.DG>
-14.6099

> <Gold.Chemscore.ZeroCoef>
-5.4800

> <Gold.Chemscore.Hbond>
4.5557

> <Gold.Chemscore.Metal>
0.0000

> <Gold.Chemscore.Lipo>
36.6400

> <Gold.Chemscore.Internal_Hbond>
0.0000

> <Gold.Chemscore.DEClash>
0.1432

> <Gold.Chemscore.DEInternal>
5.0655

> <Gold.Chemscore.Rot>
4.0520

> <Gold.Chemscore.Internal.Correction>
   9.000000E+99

> <Gold.Chemscore.Hbonds>
donor molecule, donor type, donor heavy atom, donor atom, acceptor molecule, acceptor atom, score
      P1  H  6896  6909       L1     7  0.89
      P1  H  6931  6943       L1     3  0.96
      P1  H  6934  6947       L1     3  0.64
      P1  H  7989  7998       L1    22  1.00
      P1  H 10752 10764       L1    17  0.60

> <Gold.Chemscore.Hbond.Weighted>
-15.2162

> <Gold.Chemscore.Metal.Weighted>
-0.0000

> <Gold.Chemscore.Lipo.Weighted>
-4.2869

> <Gold.Chemscore.Internal_Hbond.Weighted>
0.0000

> <Gold.Chemscore.DEClash.Weighted>
0.1432

> <Gold.Chemscore.DEInternal.Weighted>
5.0655

> <Gold.Chemscore.Rot.Weighted>
10.3732

> <Gold.Chemscore.Internal.Correction.Weighted>
   9.000000E+99

> <Gold.Protein.RotatedTorsions>
[ 6907 6896 6895 6894 ] final   73.43 input  -60.11 | X-H torsion
[ 7974 7965 7964 7962 ] final  -46.01 input  175.53 | X-H torsion
[ 8008 7997 7996 7995 ] final -103.15 input   59.86 | X-H torsion
[ 10167 10162 10161 10158 ] final -179.68 input  -65.29 | X-H torsion
[ 10718 10713 10712 10709 ] final -128.03 input   66.30 | X-H torsion
[ 10763 10752 10751 10750 ] final  -60.99 input  -60.55 | X-H torsion
[ 11005 11000 10999 10996 ] final   78.98 input  -57.11 | X-H torsion

> <Gold.Protein.ActiveResidues>
 VAL166  LYS551  ARG553  GLY616  TRP617  ASP618  TYR619  PRO620  LYS621  CYS622 
 ASP623  PHE694  ASN695  SER759  ASP760  ASP761  ALA762  ILE779  LEU786  VAL792 
 PHE793  MET794  SER795  GLU796  ALA797  LYS798  CYS799  TRP800  GLU811  SER814 

> <Gold.Protein.RotatedAtoms>
  152.4923  134.4422  159.9547 H   0  0  0  0  0  0  0  0  0  0  0  0  # atno 6907 bound_to 6896
  151.4407  133.3638  159.2789 H   0  0  0  0  0  0  0  0  0  0  0  0  # atno 6908 bound_to 6896
  150.9089  134.8529  159.7472 H   0  0  0  0  0  0  0  0  0  0  0  0  # atno 6909 bound_to 6896
  145.9762  140.7331  142.9386 H   0  0  0  0  0  0  0  0  0  0  0  0  # atno 7974 bound_to 7965
  154.8668  140.0424  157.1699 H   0  0  0  0  0  0  0  0  0  0  0  0  # atno 8008 bound_to 7997
  154.8782  140.2968  155.5420 H   0  0  0  0  0  0  0  0  0  0  0  0  # atno 8009 bound_to 7997
  156.2999  140.2416  156.3780 H   0  0  0  0  0  0  0  0  0  0  0  0  # atno 8010 bound_to 7997
  139.5375  144.2455  152.0826 H   0  0  0  0  0  0  0  0  0  0  0  0  # atno 10167 bound_to 10162
  156.1912  130.6796  151.0426 H   0  0  0  0  0  0  0  0  0  0  0  0  # atno 10718 bound_to 10713
  154.2777  135.6278  153.5335 H   0  0  0  0  0  0  0  0  0  0  0  0  # atno 10763 bound_to 10752
  152.9870  135.5625  154.5530 H   0  0  0  0  0  0  0  0  0  0  0  0  # atno 10764 bound_to 10752
  154.5114  135.2877  155.1315 H   0  0  0  0  0  0  0  0  0  0  0  0  # atno 10765 bound_to 10752
  139.9190  134.7807  156.1720 H   0  0  0  0  0  0  0  0  0  0  0  0  # atno 11005 bound_to 11000
  144.6849  140.2832  143.7289 LP  0  0  0  0  0  0  0  0  0  0  0  0  # atno 17320 bound_to 7965
  145.7835  139.1900  143.2144 LP  0  0  0  0  0  0  0  0  0  0  0  0  # atno 17321 bound_to 7965
  140.1928  144.4735  150.6470 LP  0  0  0  0  0  0  0  0  0  0  0  0  # atno 17342 bound_to 10162
  140.6589  143.2246  151.5902 LP  0  0  0  0  0  0  0  0  0  0  0  0  # atno 17343 bound_to 10162
  157.6930  131.0803  150.7052 LP  0  0  0  0  0  0  0  0  0  0  0  0  # atno 17370 bound_to 10713
  156.7109  130.4651  149.5547 LP  0  0  0  0  0  0  0  0  0  0  0  0  # atno 17371 bound_to 10713
  141.0694  133.6804  156.2111 LP  0  0  0  0  0  0  0  0  0  0  0  0  # atno 17394 bound_to 11000
  140.6531  134.5046  157.5579 LP  0  0  0  0  0  0  0  0  0  0  0  0  # atno 17395 bound_to 11000

$$$$
