AV-unprocessed.smi:3352|AV-procd|sdf|12951|dock4
  -GOLD-   2272019383D 1   1.00000     0.00000
 Structure written by MMmdl.
 38 39  0  0  0  0  0  0  0  0  1 V2000
  153.6154  141.0753  160.8199 C   0  0  0  0  0  0  0  0  0  0  0  0
  153.3699  142.5864  160.7050 C   0  0  0  0  0  0  0  0  0  0  0  0
  152.7070  143.1710  161.9607 C   0  0  0  0  0  0  0  0  0  0  0  0
  152.6144  142.9294  159.4590 C   0  0  0  0  0  0  0  0  0  0  0  0
  151.8956  142.0388  158.7704 N   0  0  0  0  0  0  0  0  0  0  0  0
  151.2406  142.6024  157.6698 C   0  0  0  0  0  0  0  0  0  0  0  0
  150.3477  141.7532  156.8110 C   0  0  0  0  0  0  0  0  0  0  0  0
  151.1636  140.6090  156.2081 C   0  0  0  0  0  0  0  0  0  0  0  0
  151.2075  140.4555  154.9877 O   0  0  0  0  0  0  0  0  0  0  0  0
  151.7739  139.7927  157.0808 N   0  0  0  0  0  0  0  0  0  0  0  0
  152.4309  138.5375  156.7404 C   0  0  0  0  0  0  0  0  0  0  0  0
  153.1296  137.9213  157.9659 C   0  0  2  0  0  0  0  0  0  0  0  0
  152.2161  137.6684  159.1670 C   0  0  0  0  0  0  0  0  0  0  0  0
  153.1624  137.7241  160.3560 C   0  0  0  0  0  0  0  0  0  0  0  0
  154.4484  138.3306  159.7856 C   0  0  0  0  0  0  0  0  0  0  0  0
  154.0943  138.8140  158.4971 O   0  0  0  0  0  0  0  0  0  0  0  0
  151.4931  143.9437  157.5211 C   0  0  0  0  0  0  0  0  0  0  0  0
  152.5394  144.5513  158.7741 S   0  0  0  0  0  0  0  0  0  0  0  0
  154.1526  140.6984  159.9491 H   0  0  0  0  0  0  0  0  0  0  0  0
  152.6775  140.5248  160.8971 H   0  0  0  0  0  0  0  0  0  0  0  0
  154.2121  140.8404  161.7016 H   0  0  0  0  0  0  0  0  0  0  0  0
  154.3505  143.0578  160.6213 H   0  0  0  0  0  0  0  0  0  0  0  0
  152.6022  144.2536  161.8810 H   0  0  0  0  0  0  0  0  0  0  0  0
  153.3016  142.9623  162.8504 H   0  0  0  0  0  0  0  0  0  0  0  0
  151.7139  142.7503  162.1212 H   0  0  0  0  0  0  0  0  0  0  0  0
  149.5239  141.3437  157.3969 H   0  0  0  0  0  0  0  0  0  0  0  0
  149.8979  142.3413  156.0098 H   0  0  0  0  0  0  0  0  0  0  0  0
  151.6859  140.0057  158.0641 H   0  0  0  0  0  0  0  0  0  0  0  0
  151.7138  137.8345  156.3138 H   0  0  0  0  0  0  0  0  0  0  0  0
  153.1645  138.7448  155.9609 H   0  0  0  0  0  0  0  0  0  0  0  0
  153.6330  136.9938  157.6860 H   0  0  0  0  0  0  0  0  0  0  0  0
  151.4749  138.4642  159.2530 H   0  0  0  0  0  0  0  0  0  0  0  0
  151.6824  136.7198  159.0943 H   0  0  0  0  0  0  0  0  0  0  0  0
  152.7457  138.3410  161.1527 H   0  0  0  0  0  0  0  0  0  0  0  0
  153.3524  136.7312  160.7651 H   0  0  0  0  0  0  0  0  0  0  0  0
  154.8474  139.1303  160.4101 H   0  0  0  0  0  0  0  0  0  0  0  0
  155.2186  137.5652  159.6805 H   0  0  0  0  0  0  0  0  0  0  0  0
  151.1133  144.6121  156.7627 H   0  0  0  0  0  0  0  0  0  0  0  0
  1  2  1  0  0  0  0
  1 19  1  0  0  0  0
  1 20  1  0  0  0  0
  1 21  1  0  0  0  0
  2  3  1  0  0  0  0
  2  4  1  0  0  0  0
  2 22  1  0  0  0  0
  3 23  1  0  0  0  0
  3 24  1  0  0  0  0
  3 25  1  0  0  0  0
  4 18  1  0  0  0  0
  4  5  2  0  0  0  0
  5  6  1  0  0  0  0
  6  7  1  0  0  0  0
  6 17  2  0  0  0  0
  7  8  1  0  0  0  0
  7 26  1  0  0  0  0
  7 27  1  0  0  0  0
  8  9  2  0  0  0  0
  8 10  1  0  0  0  0
 10 11  1  0  0  0  0
 10 28  1  0  0  0  0
 11 12  1  0  0  0  0
 11 29  1  0  0  0  0
 11 30  1  0  0  0  0
 12 16  1  0  0  0  0
 12 13  1  0  0  0  0
 12 31  1  0  0  0  0
 13 14  1  0  0  0  0
 13 32  1  0  0  0  0
 13 33  1  0  0  0  0
 14 15  1  0  0  0  0
 14 34  1  0  0  0  0
 14 35  1  0  0  0  0
 15 16  1  0  0  0  0
 15 36  1  0  0  0  0
 15 37  1  0  0  0  0
 17 18  1  0  0  0  0
 17 38  1  0  0  0  0
M  END
> <s_m_source_file>
AV-unprocessed.smi

> <i_m_source_file_index>
3352

> <i_lp_mmshare_version>
43012

> <i_f3d_flags>
0

> <s_epik_input>
W0NIM11bQ0hdKFtDSDNdKWMxbmMoW2NIXXMxKVtDSDJdQyg9TylbTkhdW0NIMl1bQ0BASF0yW0NIMl1bQ0gyXVtDSDJdTzI=

> <s_epik_cmdline>
J2VwaWtfcHl0aG9uJywgJy1waCcsICc3LjAnLCAnLXRuJywgJzgnLCAnLW1hJywgJzIwMCcsICctbWV0YWxfYmluZGluZycsICctaW1hZScsICc8aW5maWxlLm1hZT4nLCAnLW9tYWUnLCAnPG91dGZpbGUubWFlPic=

> <r_lp_tautomer_probability>
1

> <r_epik_Ionization_Penalty>
4.66014e-05

> <r_epik_Ionization_Penalty_Charging>
0

> <r_epik_Ionization_Penalty_Neutral>
4.66014e-05

> <r_epik_State_Penalty>
-0

> <r_epik_Charging_Adjusted_Penalty>
0

> <i_epik_Tot_Q>
0

> <i_epik_Tot_abs_Q>
0

> <r_epik_Metal_State_Penalty>
-0

> <b_epik_Metal_Only>
0

> <s_lp_Force_Field>
OPLS_2005

> <r_lp_Energy>
7.75536

> <b_lp_Chiralities_Consistent>
1

> <s_lp_Variant>
AV-unprocessed.smi:3352-1

> <Gold.Version>
5.8.1

> <Gold.Id.Protein>
6NUR|6NUR_protein|mol2

> <Gold.PLP.Fitness>
48.1785

> <Gold.PLP.PLP>
-39.8822

> <Gold.PLP.part.hbond>
-1.9855

> <Gold.PLP.part.metal>
0.0000

> <Gold.PLP.part.buried>
-4.0208

> <Gold.PLP.part.nonpolar>
-33.7210

> <Gold.PLP.part.repulsive>
0.1512

> <Gold.PLP.ligand.clash>
0.0000

> <Gold.PLP.ligand.torsion>
0.3933

> <Gold.PLP.Chemscore.Hbond>
2.0000

> <Gold.PLP.Chemscore.CHOScore>
1.0000

> <Gold.PLP.Chemscore.Metal>
0.0000

> <Gold.Chemscore.Hbonds>
donor molecule, donor type, donor heavy atom, donor atom, acceptor molecule, acceptor atom, score
      P1  H  7989  7998       L1     9  1.00
      P1  H  7997  8010       L1    16  1.00
      L1  C    17    38       P1  8028  1.00

> <Gold.PLP.Chemscore.Internal.Correction>
0.0828

> <Gold.Rescore>
     Score         DG    S(hbond)    S(metal)    S(lipo)     H(rot)  DE(clash)    DE(int)     intcor
     20.83     -21.00       1.96        0.00     110.71       1.55       0.01       0.16       ----

> <Gold.Chemscore.Fitness>
20.8298

> <Gold.Chemscore.DG>
-21.0000

> <Gold.Chemscore.ZeroCoef>
-5.4800

> <Gold.Chemscore.Hbond>
1.9579

> <Gold.Chemscore.Metal>
0.0000

> <Gold.Chemscore.Lipo>
110.7113

> <Gold.Chemscore.Internal_Hbond>
0.0000

> <Gold.Chemscore.DEClash>
0.0065

> <Gold.Chemscore.DEInternal>
0.1638

> <Gold.Chemscore.Rot>
1.5518

> <Gold.Chemscore.Internal.Correction>
   9.000000E+99

> <Gold.Chemscore.Hbonds>
donor molecule, donor type, donor heavy atom, donor atom, acceptor molecule, acceptor atom, score
      P1  H  7989  7998       L1     9  0.94
      P1  H  7997  8010       L1    16  0.90

> <Gold.Chemscore.Hbond.Weighted>
-6.5395

> <Gold.Chemscore.Metal.Weighted>
-0.0000

> <Gold.Chemscore.Lipo.Weighted>
-12.9532

> <Gold.Chemscore.Internal_Hbond.Weighted>
0.0000

> <Gold.Chemscore.DEClash.Weighted>
0.0065

> <Gold.Chemscore.DEInternal.Weighted>
0.1638

> <Gold.Chemscore.Rot.Weighted>
3.9727

> <Gold.Chemscore.Internal.Correction.Weighted>
   9.000000E+99

> <Gold.Protein.RotatedTorsions>
[ 6907 6896 6895 6894 ] final  137.49 input  -60.11 | X-H torsion
[ 7974 7965 7964 7962 ] final  -66.56 input  175.53 | X-H torsion
[ 8008 7997 7996 7995 ] final   13.93 input   59.86 | X-H torsion
[ 10167 10162 10161 10158 ] final  -84.23 input  -65.29 | X-H torsion
[ 10718 10713 10712 10709 ] final  122.81 input   66.30 | X-H torsion
[ 10763 10752 10751 10750 ] final  -65.64 input  -60.55 | X-H torsion
[ 11005 11000 10999 10996 ] final   86.73 input  -57.11 | X-H torsion

> <Gold.Protein.ActiveResidues>
 VAL166  LYS551  ARG553  GLY616  TRP617  ASP618  TYR619  PRO620  LYS621  CYS622 
 ASP623  PHE694  ASN695  SER759  ASP760  ASP761  ALA762  ILE779  LEU786  VAL792 
 PHE793  MET794  SER795  GLU796  ALA797  LYS798  CYS799  TRP800  GLU811  SER814 

> <Gold.Protein.RotatedAtoms>
  152.2774  133.5438  159.5476 H   0  0  0  0  0  0  0  0  0  0  0  0  # atno 6907 bound_to 6896
  150.7182  134.0612  159.3841 H   0  0  0  0  0  0  0  0  0  0  0  0  # atno 6908 bound_to 6896
  151.8524  135.0553  160.0511 H   0  0  0  0  0  0  0  0  0  0  0  0  # atno 6909 bound_to 6896
  145.7403  140.8957  143.0533 H   0  0  0  0  0  0  0  0  0  0  0  0  # atno 7974 bound_to 7965
  154.8413  140.2915  155.5657 H   0  0  0  0  0  0  0  0  0  0  0  0  # atno 8008 bound_to 7997
  156.3012  140.2513  156.3288 H   0  0  0  0  0  0  0  0  0  0  0  0  # atno 8009 bound_to 7997
  154.9122  140.0388  157.1941 H   0  0  0  0  0  0  0  0  0  0  0  0  # atno 8010 bound_to 7997
  140.4152  143.2606  151.8965 H   0  0  0  0  0  0  0  0  0  0  0  0  # atno 10167 bound_to 10162
  157.5714  131.1083  150.8360 H   0  0  0  0  0  0  0  0  0  0  0  0  # atno 10718 bound_to 10713
  154.3480  135.6142  153.5628 H   0  0  0  0  0  0  0  0  0  0  0  0  # atno 10763 bound_to 10752
  152.9800  135.5785  154.4776 H   0  0  0  0  0  0  0  0  0  0  0  0  # atno 10764 bound_to 10752
  154.4492  135.2852  155.1770 H   0  0  0  0  0  0  0  0  0  0  0  0  # atno 10765 bound_to 10752
  139.8937  134.8375  156.2762 H   0  0  0  0  0  0  0  0  0  0  0  0  # atno 11005 bound_to 11000
  144.6872  139.9451  143.7476 LP  0  0  0  0  0  0  0  0  0  0  0  0  # atno 17320 bound_to 7965
  146.0454  139.3461  143.0672 LP  0  0  0  0  0  0  0  0  0  0  0  0  # atno 17321 bound_to 7965
  139.4782  144.5496  151.8406 LP  0  0  0  0  0  0  0  0  0  0  0  0  # atno 17342 bound_to 10162
  140.4595  144.1742  150.5905 LP  0  0  0  0  0  0  0  0  0  0  0  0  # atno 17343 bound_to 10162
  156.8831  130.5186  149.5290 LP  0  0  0  0  0  0  0  0  0  0  0  0  # atno 17370 bound_to 10713
  156.0759  130.5781  150.9472 LP  0  0  0  0  0  0  0  0  0  0  0  0  # atno 17371 bound_to 10713
  141.0069  133.7118  156.1048 LP  0  0  0  0  0  0  0  0  0  0  0  0  # atno 17394 bound_to 11000
  140.7422  134.4138  157.5553 LP  0  0  0  0  0  0  0  0  0  0  0  0  # atno 17395 bound_to 11000

$$$$
