AV-unprocessed.smi:1769|AV-procd|sdf|7153|dock9
  -GOLD-   22720 8393D 1   1.00000     0.00000
 Structure written by MMmdl.
 42 43  0  0  0  0  0  0  0  0  2 V2000
  154.6257  132.8970  161.6323 C   0  0  0  0  0  0  0  0  0  0  0  0
  154.7913  134.1297  160.7406 C   0  0  0  0  0  0  0  0  0  0  0  0
  154.5873  134.0016  159.5332 O   0  0  0  0  0  0  0  0  0  0  0  0
  155.1478  135.3103  161.3017 N   0  0  0  0  0  0  0  0  0  0  0  0
  155.3275  135.5468  162.7399 C   0  0  0  0  0  0  0  0  0  0  0  0
  154.1606  136.4135  163.2452 C   0  0  0  0  0  0  0  0  0  0  0  0
  154.0653  137.7275  162.4465 C   0  0  0  0  0  0  0  0  0  0  0  0
  154.0609  137.4741  160.9198 C   0  0  1  0  0  0  0  0  0  0  0  0
  154.1110  138.7934  160.1382 C   0  0  0  0  0  0  0  0  0  0  0  0
  154.4988  138.8093  158.9694 O   0  0  0  0  0  0  0  0  0  0  0  0
  153.7177  139.8957  160.7951 N   0  0  0  0  0  0  0  0  0  0  0  0
  153.6953  141.2393  160.2295 C   0  0  0  0  0  0  0  0  0  0  0  0
  152.8740  141.2902  158.9308 C   0  0  0  0  0  0  0  0  0  0  0  0
  152.5113  142.7094  158.5398 C   0  0  0  0  0  0  0  0  0  0  0  0
  152.8544  143.7931  159.3782 C   0  0  0  0  0  0  0  0  0  0  0  0
  152.5095  145.1043  158.9895 C   0  0  0  0  0  0  0  0  0  0  0  0
  151.8295  145.3025  157.7703 C   0  0  0  0  0  0  0  0  0  0  0  0
  151.5180  144.2410  156.9940 N   0  3  0  0  0  0  0  0  0  0  0  0
  151.8304  142.9702  157.3309 C   0  0  0  0  0  0  0  0  0  0  0  0
  155.2431  136.5571  160.5319 C   0  0  0  0  0  0  0  0  0  0  0  0
  153.8717  133.0725  162.4001 H   0  0  0  0  0  0  0  0  0  0  0  0
  155.5694  132.6386  162.1133 H   0  0  0  0  0  0  0  0  0  0  0  0
  154.3056  132.0370  161.0432 H   0  0  0  0  0  0  0  0  0  0  0  0
  155.3948  134.6335  163.3291 H   0  0  0  0  0  0  0  0  0  0  0  0
  156.2735  136.0658  162.9014 H   0  0  0  0  0  0  0  0  0  0  0  0
  153.2266  135.8581  163.1503 H   0  0  0  0  0  0  0  0  0  0  0  0
  154.2857  136.6308  164.3063 H   0  0  0  0  0  0  0  0  0  0  0  0
  153.1688  138.2738  162.7422 H   0  0  0  0  0  0  0  0  0  0  0  0
  154.9129  138.3599  162.7162 H   0  0  0  0  0  0  0  0  0  0  0  0
  153.1334  136.9574  160.6644 H   0  0  0  0  0  0  0  0  0  0  0  0
  153.4091  139.7945  161.7515 H   0  0  0  0  0  0  0  0  0  0  0  0
  153.2980  141.9445  160.9620 H   0  0  0  0  0  0  0  0  0  0  0  0
  154.7237  141.5432  160.0330 H   0  0  0  0  0  0  0  0  0  0  0  0
  153.4329  140.8264  158.1169 H   0  0  0  0  0  0  0  0  0  0  0  0
  151.9551  140.7122  159.0399 H   0  0  0  0  0  0  0  0  0  0  0  0
  153.3778  143.6230  160.3081 H   0  0  0  0  0  0  0  0  0  0  0  0
  152.7641  145.9454  159.6177 H   0  0  0  0  0  0  0  0  0  0  0  0
  151.5283  146.2699  157.3953 H   0  0  0  0  0  0  0  0  0  0  0  0
  151.5299  142.2074  156.6271 H   0  0  0  0  0  0  0  0  0  0  0  0
  156.1956  137.0413  160.7550 H   0  0  0  0  0  0  0  0  0  0  0  0
  155.2483  136.3824  159.4547 H   0  0  0  0  0  0  0  0  0  0  0  0
  151.0262  144.4067  156.1154 H   0  0  0  0  0  0  0  0  0  0  0  0
  1  2  1  0  0  0  0
  1 21  1  0  0  0  0
  1 22  1  0  0  0  0
  1 23  1  0  0  0  0
  2  3  2  0  0  0  0
  2  4  1  0  0  0  0
  4 20  1  0  0  0  0
  4  5  1  0  0  0  0
  5  6  1  0  0  0  0
  5 24  1  0  0  0  0
  5 25  1  0  0  0  0
  6  7  1  0  0  0  0
  6 26  1  0  0  0  0
  6 27  1  0  0  0  0
  7  8  1  0  0  0  0
  7 28  1  0  0  0  0
  7 29  1  0  0  0  0
  8  9  1  0  0  0  0
  8 20  1  0  0  0  0
  8 30  1  0  0  0  0
  9 10  2  0  0  0  0
  9 11  1  0  0  0  0
 11 12  1  0  0  0  0
 11 31  1  0  0  0  0
 12 13  1  0  0  0  0
 12 32  1  0  0  0  0
 12 33  1  0  0  0  0
 13 14  1  0  0  0  0
 13 34  1  0  0  0  0
 13 35  1  0  0  0  0
 14 19  1  0  0  0  0
 14 15  2  0  0  0  0
 15 16  1  0  0  0  0
 15 36  1  0  0  0  0
 16 17  2  0  0  0  0
 16 37  1  0  0  0  0
 17 18  1  0  0  0  0
 17 38  1  0  0  0  0
 18 19  2  0  0  0  0
 18 42  1  0  0  0  0
 19 39  1  0  0  0  0
 20 40  1  0  0  0  0
 20 41  1  0  0  0  0
M  CHG  1  18   1
M  END
> <s_m_source_file>
AV-unprocessed.smi

> <i_m_source_file_index>
1769

> <i_lp_mmshare_version>
43012

> <i_f3d_flags>
0

> <s_epik_input>
W0NIM11DKD1PKU4xW0NIMl1bQ0gyXVtDSDJdW0NASF0oW0NIMl0xKUMoPU8pW05IXVtDSDJdW0NIMl1jMltjSF1bY0hdW2NIXW5bY0hdMg==

> <s_epik_cmdline>
J2VwaWtfcHl0aG9uJywgJy1waCcsICc3LjAnLCAnLXRuJywgJzgnLCAnLW1hJywgJzIwMCcsICctbWV0YWxfYmluZGluZycsICctaW1hZScsICc8aW5maWxlLm1hZT4nLCAnLW9tYWUnLCAnPG91dGZpbGUubWFlPic=

> <r_epik_Ionization_Penalty>
2.25127

> <r_epik_Ionization_Penalty_Charging>
2.25127

> <r_epik_Ionization_Penalty_Neutral>
1.02261e-06

> <r_epik_State_Penalty>
2.39841

> <r_epik_Charging_Adjusted_Penalty>
4.64968

> <i_epik_Tot_Q>
1

> <i_epik_Tot_abs_Q>
1

> <r_epik_Metal_State_Penalty>
2.41159

> <b_epik_Metal_Only>
0

> <s_lp_Force_Field>
OPLS_2005

> <r_lp_Energy>
29.7946

> <b_lp_Chiralities_Consistent>
1

> <s_lp_Variant>
AV-unprocessed.smi:1769-3

> <Gold.Version>
5.8.1

> <Gold.Id.Protein>
6NUR|6NUR_protein|mol2

> <Gold.PLP.Fitness>
46.7691

> <Gold.PLP.PLP>
-37.2038

> <Gold.PLP.part.hbond>
-2.5556

> <Gold.PLP.part.metal>
0.0000

> <Gold.PLP.part.buried>
-4.5907

> <Gold.PLP.part.nonpolar>
-29.3973

> <Gold.PLP.part.repulsive>
0.0708

> <Gold.PLP.ligand.clash>
0.0868

> <Gold.PLP.ligand.torsion>
0.7359

> <Gold.PLP.Chemscore.Hbond>
3.6988

> <Gold.PLP.Chemscore.CHOScore>
0.0000

> <Gold.PLP.Chemscore.Metal>
0.0000

> <Gold.Chemscore.Hbonds>
donor molecule, donor type, donor heavy atom, donor atom, acceptor molecule, acceptor atom, score
      L1  H    18    42       P1  8028  0.81
      P1  H  6896  6908       L1     3  0.55
      P1  H  7997  8009       L1    10  0.80

> <Gold.PLP.Chemscore.Internal.Correction>
0.0277

> <Gold.Rescore>
     Score         DG    S(hbond)    S(metal)    S(lipo)     H(rot)  DE(clash)    DE(int)     intcor
     19.09     -22.48       2.27        0.00     115.78       1.61       1.70       1.68       ----

> <Gold.Chemscore.Fitness>
19.0940

> <Gold.Chemscore.DG>
-22.4803

> <Gold.Chemscore.ZeroCoef>
-5.4800

> <Gold.Chemscore.Hbond>
2.2683

> <Gold.Chemscore.Metal>
0.0000

> <Gold.Chemscore.Lipo>
115.7758

> <Gold.Chemscore.Internal_Hbond>
0.0000

> <Gold.Chemscore.DEClash>
1.7032

> <Gold.Chemscore.DEInternal>
1.6831

> <Gold.Chemscore.Rot>
1.6100

> <Gold.Chemscore.Internal.Correction>
   9.000000E+99

> <Gold.Chemscore.Hbonds>
donor molecule, donor type, donor heavy atom, donor atom, acceptor molecule, acceptor atom, score
      L1  H    18    42       P1  8028  0.40
      P1  H  6896  6908       L1     3  0.03
      P1  H  7997  8009       L1    10  0.79

> <Gold.Chemscore.Hbond.Weighted>
-7.5761

> <Gold.Chemscore.Metal.Weighted>
-0.0000

> <Gold.Chemscore.Lipo.Weighted>
-13.5458

> <Gold.Chemscore.Internal_Hbond.Weighted>
0.0000

> <Gold.Chemscore.DEClash.Weighted>
1.7032

> <Gold.Chemscore.DEInternal.Weighted>
1.6831

> <Gold.Chemscore.Rot.Weighted>
4.1216

> <Gold.Chemscore.Internal.Correction.Weighted>
   9.000000E+99

> <Gold.Protein.RotatedTorsions>
[ 6907 6896 6895 6894 ] final  -25.67 input  -60.11 | X-H torsion
[ 7974 7965 7964 7962 ] final  102.81 input  175.53 | X-H torsion
[ 8008 7997 7996 7995 ] final  126.74 input   59.86 | X-H torsion
[ 10167 10162 10161 10158 ] final -106.64 input  -65.29 | X-H torsion
[ 10718 10713 10712 10709 ] final   72.44 input   66.30 | X-H torsion
[ 10763 10752 10751 10750 ] final  134.80 input  -60.55 | X-H torsion
[ 11005 11000 10999 10996 ] final -109.91 input  -57.11 | X-H torsion

> <Gold.Protein.ActiveResidues>
 VAL166  LYS551  ARG553  GLY616  TRP617  ASP618  TYR619  PRO620  LYS621  CYS622 
 ASP623  PHE694  ASN695  SER759  ASP760  ASP761  ALA762  ILE779  LEU786  VAL792 
 PHE793  MET794  SER795  GLU796  ALA797  LYS798  CYS799  TRP800  GLU811  SER814 

> <Gold.Protein.RotatedAtoms>
  151.1719  135.0322  159.8754 H   0  0  0  0  0  0  0  0  0  0  0  0  # atno 6907 bound_to 6896
  152.5448  134.1161  159.8389 H   0  0  0  0  0  0  0  0  0  0  0  0  # atno 6908 bound_to 6896
  151.1268  133.5019  159.2633 H   0  0  0  0  0  0  0  0  0  0  0  0  # atno 6909 bound_to 6896
  145.3542  139.2432  143.3541 H   0  0  0  0  0  0  0  0  0  0  0  0  # atno 7974 bound_to 7965
  156.2872  140.2685  156.2160 H   0  0  0  0  0  0  0  0  0  0  0  0  # atno 8008 bound_to 7997
  155.0216  140.0386  157.2458 H   0  0  0  0  0  0  0  0  0  0  0  0  # atno 8009 bound_to 7997
  154.7430  140.2728  155.6362 H   0  0  0  0  0  0  0  0  0  0  0  0  # atno 8010 bound_to 7997
  140.1856  143.3932  152.1247 H   0  0  0  0  0  0  0  0  0  0  0  0  # atno 10167 bound_to 10162
  157.6501  130.9579  150.0929 H   0  0  0  0  0  0  0  0  0  0  0  0  # atno 10718 bound_to 10713
  153.8294  135.3105  155.3417 H   0  0  0  0  0  0  0  0  0  0  0  0  # atno 10763 bound_to 10752
  154.7979  135.4744  154.0208 H   0  0  0  0  0  0  0  0  0  0  0  0  # atno 10764 bound_to 10752
  153.1643  135.6866  153.8788 H   0  0  0  0  0  0  0  0  0  0  0  0  # atno 10765 bound_to 10752
  141.0821  133.9201  157.2265 H   0  0  0  0  0  0  0  0  0  0  0  0  # atno 11005 bound_to 11000
  146.2955  140.4164  142.8723 LP  0  0  0  0  0  0  0  0  0  0  0  0  # atno 17320 bound_to 7965
  144.8695  140.7252  143.6056 LP  0  0  0  0  0  0  0  0  0  0  0  0  # atno 17321 bound_to 7965
  139.5277  144.7123  151.5168 LP  0  0  0  0  0  0  0  0  0  0  0  0  # atno 17342 bound_to 10162
  140.6490  143.8735  150.6766 LP  0  0  0  0  0  0  0  0  0  0  0  0  # atno 17343 bound_to 10162
  156.1873  130.3653  149.8956 LP  0  0  0  0  0  0  0  0  0  0  0  0  # atno 17370 bound_to 10713
  156.6893  130.8889  151.3586 LP  0  0  0  0  0  0  0  0  0  0  0  0  # atno 17371 bound_to 10713
  139.9636  135.0148  156.9327 LP  0  0  0  0  0  0  0  0  0  0  0  0  # atno 17394 bound_to 11000
  140.5444  134.0688  155.7351 LP  0  0  0  0  0  0  0  0  0  0  0  0  # atno 17395 bound_to 11000

$$$$
