AV-unprocessed.smi:830|AV-procd|sdf|3871|dock4
  -GOLD-   22720 1323D 1   1.00000     0.00000
 Structure written by MMmdl.
 52 54  0  0  0  0  0  0  0  0  1 V2000
  149.4218  134.4600  156.5712 C   0  0  0  0  0  0  0  0  0  0  0  0
  149.6781  134.8324  155.1011 C   0  0  1  0  0  0  0  0  0  0  0  0
  148.3866  134.9208  154.4221 N   0  0  0  0  0  0  0  0  0  0  0  0
  147.9219  134.0306  153.5328 C   0  0  0  0  0  0  0  0  0  0  0  0
  148.5246  133.0017  153.2272 O   0  0  0  0  0  0  0  0  0  0  0  0
  146.7287  134.4115  153.0461 N   0  0  0  0  0  0  0  0  0  0  0  0
  145.8894  133.7491  152.1031 C   0  0  0  0  0  0  0  0  0  0  0  0
  145.8918  132.3407  151.9441 C   0  0  0  0  0  0  0  0  0  0  0  0
  145.0210  131.7489  151.0132 C   0  0  0  0  0  0  0  0  0  0  0  0
  144.1762  132.5868  150.2672 C   0  0  0  0  0  0  0  0  0  0  0  0
  144.1756  133.9287  150.3897 N   0  0  0  0  0  0  0  0  0  0  0  0
  145.0214  134.5150  151.2726 C   0  0  0  0  0  0  0  0  0  0  0  0
  145.0038  135.9270  151.3348 N   0  0  0  0  0  0  0  0  0  0  0  0
  144.5540  136.5383  152.5821 C   0  0  0  0  0  0  0  0  0  0  0  0
  145.4316  137.7754  152.8006 C   0  0  0  0  0  0  0  0  0  0  0  0
  145.9570  138.0944  151.4047 C   0  0  0  0  0  0  0  0  0  0  0  0
  146.1125  136.7053  150.7922 C   0  0  0  0  0  0  0  0  0  0  0  0
  150.3845  136.1965  155.0667 C   0  0  0  0  0  0  0  0  0  0  0  0
  151.4925  136.3409  155.5861 O   0  0  0  0  0  0  0  0  0  0  0  0
  149.7325  137.1856  154.4373 N   0  0  0  0  0  0  0  0  0  0  0  0
  150.2189  138.5549  154.2948 C   0  0  0  0  0  0  0  0  0  0  0  0
  150.9085  139.0290  155.5887 C   0  0  0  0  0  0  0  0  0  0  0  0
  150.3237  140.4079  155.8990 C   0  0  0  0  0  0  0  0  0  0  0  0
  148.9117  140.3561  155.3240 C   0  0  0  0  0  0  0  0  0  0  0  0
  149.0620  139.5416  154.0388 C   0  0  0  0  0  0  0  0  0  0  0  0
  150.3557  134.3929  157.1308 H   0  0  0  0  0  0  0  0  0  0  0  0
  148.9298  133.4897  156.6457 H   0  0  0  0  0  0  0  0  0  0  0  0
  148.7849  135.1906  157.0730 H   0  0  0  0  0  0  0  0  0  0  0  0
  150.2999  134.0665  154.6330 H   0  0  0  0  0  0  0  0  0  0  0  0
  147.8265  135.7375  154.6170 H   0  0  0  0  0  0  0  0  0  0  0  0
  146.3320  135.2434  153.4579 H   0  0  0  0  0  0  0  0  0  0  0  0
  146.5493  131.7002  152.5105 H   0  0  0  0  0  0  0  0  0  0  0  0
  145.0004  130.6780  150.8769 H   0  0  0  0  0  0  0  0  0  0  0  0
  143.4887  132.1701  149.5460 H   0  0  0  0  0  0  0  0  0  0  0  0
  143.5117  136.8379  152.4697 H   0  0  0  0  0  0  0  0  0  0  0  0
  144.6192  135.8499  153.4262 H   0  0  0  0  0  0  0  0  0  0  0  0
  144.8893  138.6056  153.2534 H   0  0  0  0  0  0  0  0  0  0  0  0
  146.2662  137.5218  153.4559 H   0  0  0  0  0  0  0  0  0  0  0  0
  145.2144  138.6684  150.8485 H   0  0  0  0  0  0  0  0  0  0  0  0
  146.8880  138.6618  151.4164 H   0  0  0  0  0  0  0  0  0  0  0  0
  147.0720  136.2840  151.0944 H   0  0  0  0  0  0  0  0  0  0  0  0
  146.0794  136.7361  149.7028 H   0  0  0  0  0  0  0  0  0  0  0  0
  148.8281  136.9784  154.0391 H   0  0  0  0  0  0  0  0  0  0  0  0
  150.9304  138.6070  153.4682 H   0  0  0  0  0  0  0  0  0  0  0  0
  150.6825  138.3540  156.4160 H   0  0  0  0  0  0  0  0  0  0  0  0
  151.9941  139.0605  155.4882 H   0  0  0  0  0  0  0  0  0  0  0  0
  150.3370  140.6400  156.9645 H   0  0  0  0  0  0  0  0  0  0  0  0
  150.9010  141.1763  155.3830 H   0  0  0  0  0  0  0  0  0  0  0  0
  148.2517  139.8321  156.0167 H   0  0  0  0  0  0  0  0  0  0  0  0
  148.4921  141.3469  155.1470 H   0  0  0  0  0  0  0  0  0  0  0  0
  149.3361  140.2089  153.2208 H   0  0  0  0  0  0  0  0  0  0  0  0
  148.1285  139.0546  153.7525 H   0  0  0  0  0  0  0  0  0  0  0  0
  1  2  1  0  0  0  0
  1 26  1  0  0  0  0
  1 27  1  0  0  0  0
  1 28  1  0  0  0  0
  2  3  1  0  0  0  0
  2 18  1  0  0  0  0
  2 29  1  0  0  0  0
  3  4  1  0  0  0  0
  3 30  1  0  0  0  0
  4  5  2  0  0  0  0
  4  6  1  0  0  0  0
  6  7  1  0  0  0  0
  6 31  1  0  0  0  0
  7 12  1  0  0  0  0
  7  8  2  0  0  0  0
  8  9  1  0  0  0  0
  8 32  1  0  0  0  0
  9 10  2  0  0  0  0
  9 33  1  0  0  0  0
 10 11  1  0  0  0  0
 10 34  1  0  0  0  0
 11 12  2  0  0  0  0
 12 13  1  0  0  0  0
 13 17  1  0  0  0  0
 13 14  1  0  0  0  0
 14 15  1  0  0  0  0
 14 35  1  0  0  0  0
 14 36  1  0  0  0  0
 15 16  1  0  0  0  0
 15 37  1  0  0  0  0
 15 38  1  0  0  0  0
 16 17  1  0  0  0  0
 16 39  1  0  0  0  0
 16 40  1  0  0  0  0
 17 41  1  0  0  0  0
 17 42  1  0  0  0  0
 18 19  2  0  0  0  0
 18 20  1  0  0  0  0
 20 21  1  0  0  0  0
 20 43  1  0  0  0  0
 21 25  1  0  0  0  0
 21 22  1  0  0  0  0
 21 44  1  0  0  0  0
 22 23  1  0  0  0  0
 22 45  1  0  0  0  0
 22 46  1  0  0  0  0
 23 24  1  0  0  0  0
 23 47  1  0  0  0  0
 23 48  1  0  0  0  0
 24 25  1  0  0  0  0
 24 49  1  0  0  0  0
 24 50  1  0  0  0  0
 25 51  1  0  0  0  0
 25 52  1  0  0  0  0
M  END
> <s_m_source_file>
AV-unprocessed.smi

> <i_m_source_file_index>
830

> <i_lp_mmshare_version>
43012

> <i_f3d_flags>
0

> <s_epik_input>
W0NIMl0xW0NIMl1bQ0gyXVtDSDJdW0NIXTFbTkhdQyg9TylbQ0BIXShbQ0gzXSlbTkhdQyg9TylbTkhdYzJbY0hdW2NIXVtjSF1uYzJOM1tDSDJdW0NIMl1bQ0gyXVtDSDJdMw==

> <s_epik_cmdline>
J2VwaWtfcHl0aG9uJywgJy1waCcsICc3LjAnLCAnLXRuJywgJzgnLCAnLW1hJywgJzIwMCcsICctbWV0YWxfYmluZGluZycsICctaW1hZScsICc8aW5maWxlLm1hZT4nLCAnLW9tYWUnLCAnPG91dGZpbGUubWFlPic=

> <r_lp_tautomer_probability>
1

> <r_epik_Ionization_Penalty>
0.0827694

> <r_epik_Ionization_Penalty_Charging>
0

> <r_epik_Ionization_Penalty_Neutral>
0.0827694

> <r_epik_State_Penalty>
0.0729202

> <r_epik_Charging_Adjusted_Penalty>
0.0729202

> <i_epik_Tot_Q>
0

> <i_epik_Tot_abs_Q>
0

> <r_epik_Metal_State_Penalty>
0.0639723

> <b_epik_Metal_Only>
0

> <s_lp_Force_Field>
OPLS_2005

> <r_lp_Energy>
46.8553

> <b_lp_Chiralities_Consistent>
1

> <s_lp_Variant>
AV-unprocessed.smi:830-2

> <Gold.Version>
5.8.1

> <Gold.Id.Protein>
6NUR|6NUR_protein|mol2

> <Gold.PLP.Fitness>
39.2522

> <Gold.PLP.PLP>
-36.6844

> <Gold.PLP.part.hbond>
-4.4707

> <Gold.PLP.part.metal>
0.0000

> <Gold.PLP.part.buried>
4.4683

> <Gold.PLP.part.nonpolar>
-38.0112

> <Gold.PLP.part.repulsive>
0.7401

> <Gold.PLP.ligand.clash>
0.0000

> <Gold.PLP.ligand.torsion>
0.7874

> <Gold.PLP.Chemscore.Hbond>
1.2569

> <Gold.PLP.Chemscore.CHOScore>
0.0000

> <Gold.PLP.Chemscore.Metal>
0.0000

> <Gold.Chemscore.Hbonds>
donor molecule, donor type, donor heavy atom, donor atom, acceptor molecule, acceptor atom, score
      L1  H    20    43       P1  7948  0.08
      P1  H 10752 10765       L1    19  1.00

> <Gold.PLP.Chemscore.Internal.Correction>
0.3720

> <Gold.Rescore>
     Score         DG    S(hbond)    S(metal)    S(lipo)     H(rot)  DE(clash)    DE(int)     intcor
      9.80     -16.89       1.14        0.00     100.69       1.64       3.91       3.18       ----

> <Gold.Chemscore.Fitness>
9.7970

> <Gold.Chemscore.DG>
-16.8876

> <Gold.Chemscore.ZeroCoef>
-5.4800

> <Gold.Chemscore.Hbond>
1.1440

> <Gold.Chemscore.Metal>
0.0000

> <Gold.Chemscore.Lipo>
100.6852

> <Gold.Chemscore.Internal_Hbond>
0.0000

> <Gold.Chemscore.DEClash>
3.9085

> <Gold.Chemscore.DEInternal>
3.1822

> <Gold.Chemscore.Rot>
1.6382

> <Gold.Chemscore.Internal.Correction>
   9.000000E+99

> <Gold.Chemscore.Hbonds>
donor molecule, donor type, donor heavy atom, donor atom, acceptor molecule, acceptor atom, score
      L1  H    20    43       P1  7948  0.09
      P1  H 10752 10765       L1    19  0.97

> <Gold.Chemscore.Hbond.Weighted>
-3.8211

> <Gold.Chemscore.Metal.Weighted>
-0.0000

> <Gold.Chemscore.Lipo.Weighted>
-11.7802

> <Gold.Chemscore.Internal_Hbond.Weighted>
0.0000

> <Gold.Chemscore.DEClash.Weighted>
3.9085

> <Gold.Chemscore.DEInternal.Weighted>
3.1822

> <Gold.Chemscore.Rot.Weighted>
4.1937

> <Gold.Chemscore.Internal.Correction.Weighted>
   9.000000E+99

> <Gold.Protein.RotatedTorsions>
[ 6907 6896 6895 6894 ] final -112.33 input  -60.11 | X-H torsion
[ 7974 7965 7964 7962 ] final  147.68 input  175.53 | X-H torsion
[ 8008 7997 7996 7995 ] final  169.35 input   59.86 | X-H torsion
[ 10167 10162 10161 10158 ] final  -66.77 input  -65.29 | X-H torsion
[ 10718 10713 10712 10709 ] final  -28.16 input   66.30 | X-H torsion
[ 10763 10752 10751 10750 ] final -168.68 input  -60.55 | X-H torsion
[ 11005 11000 10999 10996 ] final  123.47 input  -57.11 | X-H torsion

> <Gold.Protein.ActiveResidues>
 VAL166  LYS551  ARG553  GLY616  TRP617  ASP618  TYR619  PRO620  LYS621  CYS622 
 ASP623  PHE694  ASN695  SER759  ASP760  ASP761  ALA762  ILE779  LEU786  VAL792 
 PHE793  MET794  SER795  GLU796  ALA797  LYS798  CYS799  TRP800  GLU811  SER814 

> <Gold.Protein.RotatedAtoms>
  150.7751  133.9105  159.3367 H   0  0  0  0  0  0  0  0  0  0  0  0  # atno 6907 bound_to 6896
  151.6982  135.0933  160.0255 H   0  0  0  0  0  0  0  0  0  0  0  0  # atno 6908 bound_to 6896
  152.3784  133.6474  159.6177 H   0  0  0  0  0  0  0  0  0  0  0  0  # atno 6909 bound_to 6896
  144.8573  139.6058  143.5946 H   0  0  0  0  0  0  0  0  0  0  0  0  # atno 7974 bound_to 7965
  156.1465  140.1566  156.8838 H   0  0  0  0  0  0  0  0  0  0  0  0  # atno 8008 bound_to 7997
  154.5033  140.0819  156.7880 H   0  0  0  0  0  0  0  0  0  0  0  0  # atno 8009 bound_to 7997
  155.3978  140.3413  155.4257 H   0  0  0  0  0  0  0  0  0  0  0  0  # atno 8010 bound_to 7997
  140.5632  143.2313  151.6686 H   0  0  0  0  0  0  0  0  0  0  0  0  # atno 10167 bound_to 10162
  156.4288  130.4441  149.7132 H   0  0  0  0  0  0  0  0  0  0  0  0  # atno 10718 bound_to 10713
  154.6603  135.2924  154.9875 H   0  0  0  0  0  0  0  0  0  0  0  0  # atno 10763 bound_to 10752
  154.0937  135.6587  153.4860 H   0  0  0  0  0  0  0  0  0  0  0  0  # atno 10764 bound_to 10752
  153.0426  135.5226  154.7551 H   0  0  0  0  0  0  0  0  0  0  0  0  # atno 10765 bound_to 10752
  139.9314  134.9641  156.8264 H   0  0  0  0  0  0  0  0  0  0  0  0  # atno 11005 bound_to 11000
  146.2833  139.6935  142.9213 LP  0  0  0  0  0  0  0  0  0  0  0  0  # atno 17320 bound_to 7965
  145.4381  141.0420  143.2873 LP  0  0  0  0  0  0  0  0  0  0  0  0  # atno 17321 bound_to 7965
  139.5080  144.3626  152.0547 LP  0  0  0  0  0  0  0  0  0  0  0  0  # atno 17342 bound_to 10162
  140.2755  144.3917  150.6136 LP  0  0  0  0  0  0  0  0  0  0  0  0  # atno 17343 bound_to 10162
  156.4043  130.7690  151.2700 LP  0  0  0  0  0  0  0  0  0  0  0  0  # atno 17370 bound_to 10713
  157.7508  131.0230  150.3817 LP  0  0  0  0  0  0  0  0  0  0  0  0  # atno 17371 bound_to 10713
  140.6192  134.0009  155.7611 LP  0  0  0  0  0  0  0  0  0  0  0  0  # atno 17394 bound_to 11000
  141.0904  133.9925  157.3246 LP  0  0  0  0  0  0  0  0  0  0  0  0  # atno 17395 bound_to 11000

$$$$
