AV-unprocessed.smi:437|AV-procd|sdf|2559|dock1
  -GOLD-   2262022523D 1   1.00000     0.00000
 Structure written by MMmdl.
 48 49  0  0  0  0  0  0  0  0  1 V2000
  158.8186  145.9256  157.9558 C   0  0  0  0  0  0  0  0  0  0  0  0
  157.3664  145.8162  157.5758 C   0  0  0  0  0  0  0  0  0  0  0  0
  156.9054  144.6241  157.3842 N   0  0  0  0  0  0  0  0  0  0  0  0
  155.5883  144.4109  157.0261 N   0  0  0  0  0  0  0  0  0  0  0  0
  155.2422  142.9949  156.8337 C   0  0  0  0  0  0  0  0  0  0  0  0
  154.5956  142.7109  155.4689 C   0  0  0  0  0  0  0  0  0  0  0  0
  155.2768  142.7475  154.4406 O   0  0  0  0  0  0  0  0  0  0  0  0
  153.2791  142.4226  155.5128 N   0  0  0  0  0  0  0  0  0  0  0  0
  152.4663  142.1334  154.4783 C   0  0  0  0  0  0  0  0  0  0  0  0
  152.7503  142.2543  153.2845 O   0  0  0  0  0  0  0  0  0  0  0  0
  151.2799  141.6830  154.9121 N   0  0  0  0  0  0  0  0  0  0  0  0
  150.2998  140.9596  154.1041 C   0  0  2  0  0  0  0  0  0  0  0  0
  149.1211  141.8939  153.7593 C   0  0  0  0  0  0  0  0  0  0  0  0
  148.0300  141.1616  152.9651 C   0  0  0  0  0  0  0  0  0  0  0  0
  147.5404  139.9190  153.7207 C   0  0  0  0  0  0  0  0  0  0  0  0
  148.7090  138.9775  154.0484 C   0  0  0  0  0  0  0  0  0  0  0  0
  149.8153  139.6917  154.8512 C   0  0  1  0  0  0  0  0  0  0  0  0
  150.9659  138.7195  155.1688 C   0  0  0  0  0  0  0  0  0  0  0  0
  154.6608  145.3963  156.8541 C   0  0  0  0  0  0  0  0  0  0  0  0
  153.4928  145.1590  156.5417 O   0  0  0  0  0  0  0  0  0  0  0  0
  155.1900  146.7444  157.0721 C   0  0  0  0  0  0  0  0  0  0  0  0
  154.2543  147.8068  156.8917 C   0  0  0  0  0  0  0  0  0  0  0  0
  153.5007  148.6761  156.7632 N   0  0  0  0  0  0  0  0  0  0  0  0
  156.4824  146.9669  157.4197 C   0  0  0  0  0  0  0  0  0  0  0  0
  157.0803  148.3468  157.6572 C   0  0  0  0  0  0  0  0  0  0  0  0
  158.9254  146.3510  158.9538 H   0  0  0  0  0  0  0  0  0  0  0  0
  159.3560  146.5648  157.2548 H   0  0  0  0  0  0  0  0  0  0  0  0
  159.3132  144.9530  157.9577 H   0  0  0  0  0  0  0  0  0  0  0  0
  156.1358  142.3740  156.9197 H   0  0  0  0  0  0  0  0  0  0  0  0
  154.5767  142.6592  157.6314 H   0  0  0  0  0  0  0  0  0  0  0  0
  152.8553  142.4201  156.4286 H   0  0  0  0  0  0  0  0  0  0  0  0
  151.0376  141.8392  155.8794 H   0  0  0  0  0  0  0  0  0  0  0  0
  150.7694  140.6385  153.1720 H   0  0  0  0  0  0  0  0  0  0  0  0
  148.6887  142.2973  154.6763 H   0  0  0  0  0  0  0  0  0  0  0  0
  149.4763  142.7500  153.1842 H   0  0  0  0  0  0  0  0  0  0  0  0
  147.1937  141.8346  152.7736 H   0  0  0  0  0  0  0  0  0  0  0  0
  148.4215  140.8681  151.9902 H   0  0  0  0  0  0  0  0  0  0  0  0
  147.0436  140.2224  154.6430 H   0  0  0  0  0  0  0  0  0  0  0  0
  146.7941  139.3920  153.1253 H   0  0  0  0  0  0  0  0  0  0  0  0
  148.3362  138.1200  154.6094 H   0  0  0  0  0  0  0  0  0  0  0  0
  149.1247  138.5806  153.1211 H   0  0  0  0  0  0  0  0  0  0  0  0
  149.3804  140.0042  155.8020 H   0  0  0  0  0  0  0  0  0  0  0  0
  151.4677  138.3907  154.2581 H   0  0  0  0  0  0  0  0  0  0  0  0
  150.5973  137.8316  155.6832 H   0  0  0  0  0  0  0  0  0  0  0  0
  151.7154  139.1774  155.8144 H   0  0  0  0  0  0  0  0  0  0  0  0
  156.3297  149.1351  157.6122 H   0  0  0  0  0  0  0  0  0  0  0  0
  157.8371  148.5677  156.9040 H   0  0  0  0  0  0  0  0  0  0  0  0
  157.5477  148.4011  158.6408 H   0  0  0  0  0  0  0  0  0  0  0  0
  1  2  1  0  0  0  0
  1 26  1  0  0  0  0
  1 27  1  0  0  0  0
  1 28  1  0  0  0  0
  2 24  1  0  0  0  0
  2  3  2  0  0  0  0
  3  4  1  0  0  0  0
  4  5  1  0  0  0  0
  4 19  1  0  0  0  0
  5  6  1  0  0  0  0
  5 29  1  0  0  0  0
  5 30  1  0  0  0  0
  6  7  2  0  0  0  0
  6  8  1  0  0  0  0
  8  9  1  0  0  0  0
  8 31  1  0  0  0  0
  9 10  2  0  0  0  0
  9 11  1  0  0  0  0
 11 12  1  0  0  0  0
 11 32  1  0  0  0  0
 12 17  1  0  0  0  0
 12 13  1  0  0  0  0
 12 33  1  0  0  0  0
 13 14  1  0  0  0  0
 13 34  1  0  0  0  0
 13 35  1  0  0  0  0
 14 15  1  0  0  0  0
 14 36  1  0  0  0  0
 14 37  1  0  0  0  0
 15 16  1  0  0  0  0
 15 38  1  0  0  0  0
 15 39  1  0  0  0  0
 16 17  1  0  0  0  0
 16 40  1  0  0  0  0
 16 41  1  0  0  0  0
 17 18  1  0  0  0  0
 17 42  1  0  0  0  0
 18 43  1  0  0  0  0
 18 44  1  0  0  0  0
 18 45  1  0  0  0  0
 19 20  2  0  0  0  0
 19 21  1  0  0  0  0
 21 22  1  0  0  0  0
 21 24  2  0  0  0  0
 22 23  3  0  0  0  0
 24 25  1  0  0  0  0
 25 46  1  0  0  0  0
 25 47  1  0  0  0  0
 25 48  1  0  0  0  0
M  END
> <s_m_source_file>
AV-unprocessed.smi

> <i_m_source_file_index>
437

> <i_lp_mmshare_version>
43012

> <i_f3d_flags>
0

> <s_epik_input>
TiNDYyhjMVtDSDNdKWMoPU8pbihuYzFbQ0gzXSlbQ0gyXUMoPU8pW05IXUMoPU8pW05IXVtDQEBIXTJbQ0gyXVtDSDJdW0NIMl1bQ0gyXVtDQEhdMltDSDNd

> <s_epik_cmdline>
J2VwaWtfcHl0aG9uJywgJy1waCcsICc3LjAnLCAnLXRuJywgJzgnLCAnLW1hJywgJzIwMCcsICctbWV0YWxfYmluZGluZycsICctaW1hZScsICc8aW5maWxlLm1hZT4nLCAnLW9tYWUnLCAnPG91dGZpbGUubWFlPic=

> <r_lp_tautomer_probability>
1

> <r_epik_Ionization_Penalty>
3.27035e-05

> <r_epik_Ionization_Penalty_Charging>
1.6965e-11

> <r_epik_Ionization_Penalty_Neutral>
3.27035e-05

> <r_epik_State_Penalty>
-0

> <r_epik_Charging_Adjusted_Penalty>
1.6965e-11

> <i_epik_Tot_Q>
0

> <i_epik_Tot_abs_Q>
0

> <r_epik_Metal_State_Penalty>
-0

> <b_epik_Metal_Only>
0

> <s_lp_Force_Field>
OPLS_2005

> <r_lp_Energy>
27.1353

> <b_lp_Chiralities_Consistent>
1

> <s_lp_Variant>
AV-unprocessed.smi:437-1

> <Gold.Version>
5.8.1

> <Gold.Id.Protein>
6NUR|6NUR_protein|mol2

> <Gold.PLP.Fitness>
45.0826

> <Gold.PLP.PLP>
-39.8189

> <Gold.PLP.part.hbond>
-2.0000

> <Gold.PLP.part.metal>
0.0000

> <Gold.PLP.part.buried>
-2.8383

> <Gold.PLP.part.nonpolar>
-34.8787

> <Gold.PLP.part.repulsive>
0.4459

> <Gold.PLP.ligand.clash>
0.0000

> <Gold.PLP.ligand.torsion>
0.3995

> <Gold.PLP.Chemscore.Hbond>
2.0000

> <Gold.PLP.Chemscore.CHOScore>
0.0000

> <Gold.PLP.Chemscore.Metal>
0.0000

> <Gold.PLP.Chemscore.Internal.Correction>
0.0627

> <Gold.Rescore>
     Score         DG    S(hbond)    S(metal)    S(lipo)     H(rot)  DE(clash)    DE(int)     intcor
     16.10     -19.01       2.24        0.00      85.93       1.57       0.28       2.63       ----

> <Gold.Chemscore.Fitness>
16.0972

> <Gold.Chemscore.DG>
-19.0085

> <Gold.Chemscore.ZeroCoef>
-5.4800

> <Gold.Chemscore.Hbond>
2.2401

> <Gold.Chemscore.Metal>
0.0000

> <Gold.Chemscore.Lipo>
85.9341

> <Gold.Chemscore.Internal_Hbond>
0.0000

> <Gold.Chemscore.DEClash>
0.2836

> <Gold.Chemscore.DEInternal>
2.6277

> <Gold.Chemscore.Rot>
1.5656

> <Gold.Chemscore.Internal.Correction>
   9.000000E+99

> <Gold.Chemscore.Hbond.Weighted>
-7.4820

> <Gold.Chemscore.Metal.Weighted>
-0.0000

> <Gold.Chemscore.Lipo.Weighted>
-10.0543

> <Gold.Chemscore.Internal_Hbond.Weighted>
0.0000

> <Gold.Chemscore.DEClash.Weighted>
0.2836

> <Gold.Chemscore.DEInternal.Weighted>
2.6277

> <Gold.Chemscore.Rot.Weighted>
4.0079

> <Gold.Chemscore.Internal.Correction.Weighted>
   9.000000E+99

> <Gold.Protein.RotatedTorsions>
[ 6907 6896 6895 6894 ] final  -80.76 input  -60.11 | X-H torsion
[ 7974 7965 7964 7962 ] final  -96.17 input  175.53 | X-H torsion
[ 8008 7997 7996 7995 ] final  -77.87 input   59.86 | X-H torsion
[ 10167 10162 10161 10158 ] final   20.28 input  -65.29 | X-H torsion
[ 10718 10713 10712 10709 ] final  159.85 input   66.30 | X-H torsion
[ 10763 10752 10751 10750 ] final  -98.74 input  -60.55 | X-H torsion
[ 11005 11000 10999 10996 ] final -148.98 input  -57.11 | X-H torsion

> <Gold.Protein.ActiveResidues>
 VAL166  LYS551  ARG553  GLY616  TRP617  ASP618  TYR619  PRO620  LYS621  CYS622 
 ASP623  PHE694  ASN695  SER759  ASP760  ASP761  ALA762  ILE779  LEU786  VAL792 
 PHE793  MET794  SER795  GLU796  ALA797  LYS798  CYS799  TRP800  GLU811  SER814 

> <Gold.Protein.RotatedAtoms>
  150.6923  134.3921  159.5080 H   0  0  0  0  0  0  0  0  0  0  0  0  # atno 6907 bound_to 6896
  152.1707  134.8833  160.0543 H   0  0  0  0  0  0  0  0  0  0  0  0  # atno 6908 bound_to 6896
  151.9860  133.3739  159.4163 H   0  0  0  0  0  0  0  0  0  0  0  0  # atno 6909 bound_to 6896
  145.3504  140.9475  143.2558 H   0  0  0  0  0  0  0  0  0  0  0  0  # atno 7974 bound_to 7965
  154.5636  140.0703  156.8858 H   0  0  0  0  0  0  0  0  0  0  0  0  # atno 8008 bound_to 7997
  155.2764  140.3368  155.4243 H   0  0  0  0  0  0  0  0  0  0  0  0  # atno 8009 bound_to 7997
  156.2063  140.1741  156.7779 H   0  0  0  0  0  0  0  0  0  0  0  0  # atno 8010 bound_to 7997
  140.5515  143.9500  150.6581 H   0  0  0  0  0  0  0  0  0  0  0  0  # atno 10167 bound_to 10162
  157.1585  131.0581  151.2244 H   0  0  0  0  0  0  0  0  0  0  0  0  # atno 10718 bound_to 10713
  154.7440  135.4998  153.9171 H   0  0  0  0  0  0  0  0  0  0  0  0  # atno 10763 bound_to 10752
  153.1072  135.6700  153.9573 H   0  0  0  0  0  0  0  0  0  0  0  0  # atno 10764 bound_to 10752
  153.9342  135.3074  155.3424 H   0  0  0  0  0  0  0  0  0  0  0  0  # atno 10765 bound_to 10752
  140.7555  134.3357  157.5115 H   0  0  0  0  0  0  0  0  0  0  0  0  # atno 11005 bound_to 11000
  144.8722  139.5022  143.6762 LP  0  0  0  0  0  0  0  0  0  0  0  0  # atno 17320 bound_to 7965
  146.2970  139.7309  142.9119 LP  0  0  0  0  0  0  0  0  0  0  0  0  # atno 17321 bound_to 7965
  140.2927  143.3313  152.1047 LP  0  0  0  0  0  0  0  0  0  0  0  0  # atno 17342 bound_to 10162
  139.5029  144.6745  151.6162 LP  0  0  0  0  0  0  0  0  0  0  0  0  # atno 17343 bound_to 10162
  157.4154  130.7408  149.6871 LP  0  0  0  0  0  0  0  0  0  0  0  0  # atno 17370 bound_to 10713
  155.9758  130.4084  150.3825 LP  0  0  0  0  0  0  0  0  0  0  0  0  # atno 17371 bound_to 10713
  139.8780  134.9169  156.3166 LP  0  0  0  0  0  0  0  0  0  0  0  0  # atno 17394 bound_to 11000
  140.9711  133.7327  156.0536 LP  0  0  0  0  0  0  0  0  0  0  0  0  # atno 17395 bound_to 11000

$$$$
