AV-unprocessed.smi:703|AV-procd|sdf|3437|dock3
  -GOLD-   22720 0423D 1   1.00000     0.00000
 Structure written by MMmdl.
 37 38  0  0  0  0  0  0  0  0  3 V2000
  145.7462  134.3466  150.7764 C   0  0  0  0  0  0  0  0  0  0  0  0
  145.4185  134.8828  152.1766 C   0  0  0  0  0  0  0  0  0  0  0  0
  146.6177  134.9497  153.0456 N   0  3  2  0  0  0  0  0  0  0  0  0
  147.2554  133.6479  153.3403 C   0  0  0  0  0  0  0  0  0  0  0  0
  147.9954  133.8556  154.6644 C   0  0  2  0  0  0  0  0  0  0  0  0
  148.3530  132.5362  155.3762 C   0  0  0  0  0  0  0  0  0  0  0  0
  147.0463  134.7884  155.4339 C   0  0  1  0  0  0  0  0  0  0  0  0
  147.7662  135.5929  156.4085 N   0  5  0  0  0  0  0  0  0  0  0  0
  147.9133  135.0600  157.9343 S   0  0  0  0  0  0  0  0  0  0  0  0
  147.2083  133.7870  158.1594 O   0  0  0  0  0  0  0  0  0  0  0  0
  149.3002  135.1533  158.4171 O   0  0  0  0  0  0  0  0  0  0  0  0
  146.9689  136.3566  158.8494 C   0  0  0  0  0  0  0  0  0  0  0  0
  147.3120  136.3240  160.3139 C   0  0  0  0  0  0  0  0  0  0  0  0
  146.9884  135.3266  161.2758 C   0  0  0  0  0  0  0  0  0  0  0  0
  147.5427  135.8023  162.4287 C   0  0  0  0  0  0  0  0  0  0  0  0
  148.1506  136.9946  162.2068 O   0  0  0  0  0  0  0  0  0  0  0  0
  147.9946  137.3215  160.8550 N   0  0  0  0  0  0  0  0  0  0  0  0
  146.4035  135.6527  154.3333 C   0  0  0  0  0  0  0  0  0  0  0  0
  144.8603  134.3619  150.1414 H   0  0  0  0  0  0  0  0  0  0  0  0
  146.1036  133.3173  150.8134 H   0  0  0  0  0  0  0  0  0  0  0  0
  146.5122  134.9523  150.2909 H   0  0  0  0  0  0  0  0  0  0  0  0
  145.0040  135.8870  152.0786 H   0  0  0  0  0  0  0  0  0  0  0  0
  144.6496  134.2700  152.6497 H   0  0  0  0  0  0  0  0  0  0  0  0
  146.4965  132.8657  153.4317 H   0  0  0  0  0  0  0  0  0  0  0  0
  147.9325  133.3525  152.5380 H   0  0  0  0  0  0  0  0  0  0  0  0
  148.9205  134.3930  154.4445 H   0  0  0  0  0  0  0  0  0  0  0  0
  147.4706  131.9348  155.6038 H   0  0  0  0  0  0  0  0  0  0  0  0
  148.8869  132.7128  156.3118 H   0  0  0  0  0  0  0  0  0  0  0  0
  149.0034  131.9286  154.7466 H   0  0  0  0  0  0  0  0  0  0  0  0
  146.2671  134.1783  155.8934 H   0  0  0  0  0  0  0  0  0  0  0  0
  147.2297  137.3214  158.4138 H   0  0  0  0  0  0  0  0  0  0  0  0
  145.9036  136.2012  158.6805 H   0  0  0  0  0  0  0  0  0  0  0  0
  146.4418  134.4058  161.1369 H   0  0  0  0  0  0  0  0  0  0  0  0
  147.5873  135.4278  163.4405 H   0  0  0  0  0  0  0  0  0  0  0  0
  146.8694  136.6368  154.2561 H   0  0  0  0  0  0  0  0  0  0  0  0
  145.3447  135.8106  154.5453 H   0  0  0  0  0  0  0  0  0  0  0  0
  147.3099  135.4984  152.5561 H   0  0  0  0  0  0  0  0  0  0  0  0
  1  2  1  0  0  0  0
  1 19  1  0  0  0  0
  1 20  1  0  0  0  0
  1 21  1  0  0  0  0
  2  3  1  0  0  0  0
  2 22  1  0  0  0  0
  2 23  1  0  0  0  0
  3 18  1  0  0  0  0
  3  4  1  0  0  0  0
  3 37  1  0  0  0  0
  4  5  1  0  0  0  0
  4 24  1  0  0  0  0
  4 25  1  0  0  0  0
  5  6  1  0  0  0  0
  5  7  1  0  0  0  0
  5 26  1  0  0  0  0
  6 27  1  0  0  0  0
  6 28  1  0  0  0  0
  6 29  1  0  0  0  0
  7  8  1  0  0  0  0
  7 18  1  0  0  0  0
  7 30  1  0  0  0  0
  8  9  1  0  0  0  0
  9 10  2  0  0  0  0
  9 11  2  0  0  0  0
  9 12  1  0  0  0  0
 12 13  1  0  0  0  0
 12 31  1  0  0  0  0
 12 32  1  0  0  0  0
 13 17  2  0  0  0  0
 13 14  1  0  0  0  0
 14 15  2  0  0  0  0
 14 33  1  0  0  0  0
 15 16  1  0  0  0  0
 15 34  1  0  0  0  0
 16 17  1  0  0  0  0
 18 35  1  0  0  0  0
 18 36  1  0  0  0  0
M  CHG  1   3   1
M  CHG  1   8  -1
M  END
> <s_m_source_file>
AV-unprocessed.smi

> <i_m_source_file_index>
703

> <i_lp_mmshare_version>
43012

> <i_f3d_flags>
0

> <s_epik_input>
W0NIM11bQ0gyXU4xW0NIMl1bQ0BASF0oW0NIM10pW0NASF0oW0NIMl0xKVtOSF1TKD1PKSg9TylbQ0gyXWMyW2NIXVtjSF1vbjI=

> <s_epik_cmdline>
J2VwaWtfcHl0aG9uJywgJy1waCcsICc3LjAnLCAnLXRuJywgJzgnLCAnLW1hJywgJzIwMCcsICctbWV0YWxfYmluZGluZycsICctaW1hZScsICc8aW5maWxlLm1hZT4nLCAnLW9tYWUnLCAnPG91dGZpbGUubWFlPic=

> <r_epik_Ionization_Penalty>
3.62494

> <r_epik_Ionization_Penalty_Charging>
3.62494

> <r_epik_Ionization_Penalty_Neutral>
2.0321e-10

> <r_epik_State_Penalty>
3.62558

> <r_epik_Charging_Adjusted_Penalty>
7.25052

> <i_epik_Tot_Q>
0

> <i_epik_Tot_abs_Q>
2

> <r_epik_Metal_State_Penalty>
0.530836

> <b_epik_Metal_Only>
1

> <s_lp_Force_Field>
OPLS_2005

> <r_lp_Energy>
15.6249

> <b_lp_Chiralities_Consistent>
1

> <s_lp_Variant>
AV-unprocessed.smi:703-12

> <Gold.Version>
5.8.1

> <Gold.Id.Protein>
6NUR|6NUR_protein|mol2

> <Gold.PLP.Fitness>
38.1770

> <Gold.PLP.PLP>
-27.6519

> <Gold.PLP.part.hbond>
-5.4745

> <Gold.PLP.part.metal>
0.0000

> <Gold.PLP.part.buried>
-4.3047

> <Gold.PLP.part.nonpolar>
-18.2818

> <Gold.PLP.part.repulsive>
0.0057

> <Gold.PLP.ligand.clash>
0.0000

> <Gold.PLP.ligand.torsion>
1.3300

> <Gold.PLP.Chemscore.Hbond>
4.0500

> <Gold.PLP.Chemscore.CHOScore>
0.0000

> <Gold.PLP.Chemscore.Metal>
0.0000

> <Gold.Chemscore.Hbonds>
donor molecule, donor type, donor heavy atom, donor atom, acceptor molecule, acceptor atom, score
      L1  H     3    37       P1  7948  2.00
      P1  H  6896  6907       L1    11  1.00
      P1  H  6934  6947       L1    17  0.72

> <Gold.PLP.Chemscore.Internal.Correction>
1.0351

> <Gold.Rescore>
     Score         DG    S(hbond)    S(metal)    S(lipo)     H(rot)  DE(clash)    DE(int)     intcor
     16.02     -17.17       2.82        0.00      55.27       1.63       0.00       1.16       ----

> <Gold.Chemscore.Fitness>
16.0161

> <Gold.Chemscore.DG>
-17.1735

> <Gold.Chemscore.ZeroCoef>
-5.4800

> <Gold.Chemscore.Hbond>
2.8170

> <Gold.Chemscore.Metal>
0.0000

> <Gold.Chemscore.Lipo>
55.2750

> <Gold.Chemscore.Internal_Hbond>
0.0000

> <Gold.Chemscore.DEClash>
0.0009

> <Gold.Chemscore.DEInternal>
1.1565

> <Gold.Chemscore.Rot>
1.6338

> <Gold.Chemscore.Internal.Correction>
   9.000000E+99

> <Gold.Chemscore.Hbonds>
donor molecule, donor type, donor heavy atom, donor atom, acceptor molecule, acceptor atom, score
      L1  H     3    37       P1  7948  1.00
      P1  H  6896  6907       L1    11  1.00
      P1  H  6934  6947       L1    17  0.28

> <Gold.Chemscore.Hbond.Weighted>
-9.4089

> <Gold.Chemscore.Metal.Weighted>
-0.0000

> <Gold.Chemscore.Lipo.Weighted>
-6.4672

> <Gold.Chemscore.Internal_Hbond.Weighted>
0.0000

> <Gold.Chemscore.DEClash.Weighted>
0.0009

> <Gold.Chemscore.DEInternal.Weighted>
1.1565

> <Gold.Chemscore.Rot.Weighted>
4.1825

> <Gold.Chemscore.Internal.Correction.Weighted>
   9.000000E+99

> <Gold.Protein.RotatedTorsions>
[ 6907 6896 6895 6894 ] final  -77.07 input  -60.11 | X-H torsion
[ 7974 7965 7964 7962 ] final -179.57 input  175.53 | X-H torsion
[ 8008 7997 7996 7995 ] final  -13.41 input   59.86 | X-H torsion
[ 10167 10162 10161 10158 ] final  -17.49 input  -65.29 | X-H torsion
[ 10718 10713 10712 10709 ] final  -42.81 input   66.30 | X-H torsion
[ 10763 10752 10751 10750 ] final   32.24 input  -60.55 | X-H torsion
[ 11005 11000 10999 10996 ] final   32.56 input  -57.11 | X-H torsion

> <Gold.Protein.ActiveResidues>
 VAL166  LYS551  ARG553  GLY616  TRP617  ASP618  TYR619  PRO620  LYS621  CYS622 
 ASP623  PHE694  ASN695  SER759  ASP760  ASP761  ALA762  ILE779  LEU786  VAL792 
 PHE793  MET794  SER795  GLU796  ALA797  LYS798  CYS799  TRP800  GLU811  SER814 

> <Gold.Protein.RotatedAtoms>
  150.7009  134.4477  159.5321 H   0  0  0  0  0  0  0  0  0  0  0  0  # atno 6907 bound_to 6896
  152.2176  134.8441  160.0499 H   0  0  0  0  0  0  0  0  0  0  0  0  # atno 6908 bound_to 6896
  151.9303  133.3574  159.3965 H   0  0  0  0  0  0  0  0  0  0  0  0  # atno 6909 bound_to 6896
  144.7137  140.0697  143.6430 H   0  0  0  0  0  0  0  0  0  0  0  0  # atno 7974 bound_to 7965
  154.5295  140.2250  155.8830 H   0  0  0  0  0  0  0  0  0  0  0  0  # atno 8008 bound_to 7997
  156.1748  140.3113  155.9003 H   0  0  0  0  0  0  0  0  0  0  0  0  # atno 8009 bound_to 7997
  155.3482  140.0454  157.3036 H   0  0  0  0  0  0  0  0  0  0  0  0  # atno 8010 bound_to 7997
  140.7248  143.5011  150.9869 H   0  0  0  0  0  0  0  0  0  0  0  0  # atno 10167 bound_to 10162
  156.2556  130.4192  149.8600 H   0  0  0  0  0  0  0  0  0  0  0  0  # atno 10718 bound_to 10713
  153.0272  135.6418  154.1325 H   0  0  0  0  0  0  0  0  0  0  0  0  # atno 10763 bound_to 10752
  154.1052  135.2857  155.3244 H   0  0  0  0  0  0  0  0  0  0  0  0  # atno 10764 bound_to 10752
  154.6371  135.5473  153.7809 H   0  0  0  0  0  0  0  0  0  0  0  0  # atno 10765 bound_to 10752
  140.2722  134.3069  155.7824 H   0  0  0  0  0  0  0  0  0  0  0  0  # atno 11005 bound_to 11000
  145.9794  139.2929  143.1051 LP  0  0  0  0  0  0  0  0  0  0  0  0  # atno 17320 bound_to 7965
  145.9028  140.9231  143.0494 LP  0  0  0  0  0  0  0  0  0  0  0  0  # atno 17321 bound_to 7965
  139.8720  143.7180  152.3165 LP  0  0  0  0  0  0  0  0  0  0  0  0  # atno 17342 bound_to 10162
  139.7432  144.7554  151.0619 LP  0  0  0  0  0  0  0  0  0  0  0  0  # atno 17343 bound_to 10162
  156.6133  130.8596  151.3459 LP  0  0  0  0  0  0  0  0  0  0  0  0  # atno 17370 bound_to 10713
  157.7231  130.9585  150.1521 LP  0  0  0  0  0  0  0  0  0  0  0  0  # atno 17371 bound_to 10713
  141.2176  133.7473  156.9352 LP  0  0  0  0  0  0  0  0  0  0  0  0  # atno 17394 bound_to 11000
  140.1362  134.9323  157.2405 LP  0  0  0  0  0  0  0  0  0  0  0  0  # atno 17395 bound_to 11000

$$$$
