AV-unprocessed.smi:1503|AV-procd|sdf|6070|dock3
  -GOLD-   22720 6193D 1   1.00000     0.00000
 Structure written by MMmdl.
 43 44  0  0  0  0  0  0  0  0  2 V2000
  149.1956  133.2437  153.6727 C   0  0  0  0  0  0  0  0  0  0  0  0
  148.3436  133.7699  154.5688 C   0  0  0  0  0  0  0  0  0  0  0  0
  148.5761  134.9979  155.4381 C   0  0  0  0  0  0  0  0  0  0  0  0
  148.8590  136.2210  154.6906 N   0  0  0  0  0  0  0  0  0  0  0  0
  148.8777  137.4588  155.2095 C   0  0  0  0  0  0  0  0  0  0  0  0
  148.6344  137.6966  156.3932 O   0  0  0  0  0  0  0  0  0  0  0  0
  149.2284  138.5890  154.2367 C   0  0  0  0  0  0  0  0  0  0  0  0
  150.7382  138.8894  154.1646 C   0  0  0  0  0  0  0  0  0  0  0  0
  151.2553  139.5421  155.4452 C   0  0  0  0  0  0  0  0  0  0  0  0
  150.7109  140.6695  155.9830 C   0  0  0  0  0  0  0  0  0  0  0  0
  149.5441  141.4086  155.3524 C   0  0  0  0  0  0  0  0  0  0  0  0
  151.2150  141.2196  157.1713 N   0  0  0  0  0  0  0  0  0  0  0  0
  152.2138  140.6559  157.7819 C   0  0  0  0  0  0  0  0  0  0  0  0
  152.7395  141.1691  158.9723 N   0  0  0  0  0  0  0  0  0  0  0  0
  153.8893  140.5447  159.6327 C   0  0  0  0  0  0  0  0  0  0  0  0
  153.9192  140.8731  161.1345 C   0  0  0  0  0  0  0  0  0  0  0  0
  153.9089  142.2824  161.3178 O   0  0  0  0  0  0  0  0  0  0  0  0
  152.7267  142.8628  160.7843 C   0  0  0  0  0  0  0  0  0  0  0  0
  152.6547  142.5994  159.2709 C   0  0  0  0  0  0  0  0  0  0  0  0
  152.8189  139.5035  157.3047 N   0  5  0  0  0  0  0  0  0  0  0  0
  152.3868  138.9180  156.1522 C   0  0  0  0  0  0  0  0  0  0  0  0
  152.9150  137.9035  155.6984 O   0  0  0  0  0  0  0  0  0  0  0  0
  150.1685  133.6732  153.4838 H   0  0  0  0  0  0  0  0  0  0  0  0
  148.9240  132.3632  153.1093 H   0  0  0  0  0  0  0  0  0  0  0  0
  147.3874  133.2866  154.7067 H   0  0  0  0  0  0  0  0  0  0  0  0
  147.7110  135.1412  156.0872 H   0  0  0  0  0  0  0  0  0  0  0  0
  149.4232  134.7971  156.0939 H   0  0  0  0  0  0  0  0  0  0  0  0
  149.0693  136.1173  153.7083 H   0  0  0  0  0  0  0  0  0  0  0  0
  148.8546  138.3156  153.2493 H   0  0  0  0  0  0  0  0  0  0  0  0
  148.6929  139.4919  154.5338 H   0  0  0  0  0  0  0  0  0  0  0  0
  151.2877  137.9688  153.9678 H   0  0  0  0  0  0  0  0  0  0  0  0
  150.9597  139.5383  153.3157 H   0  0  0  0  0  0  0  0  0  0  0  0
  149.7380  141.6084  154.2984 H   0  0  0  0  0  0  0  0  0  0  0  0
  149.3694  142.3652  155.8459 H   0  0  0  0  0  0  0  0  0  0  0  0
  148.6326  140.8161  155.4326 H   0  0  0  0  0  0  0  0  0  0  0  0
  153.8860  139.4613  159.5125 H   0  0  0  0  0  0  0  0  0  0  0  0
  154.8013  140.9066  159.1564 H   0  0  0  0  0  0  0  0  0  0  0  0
  153.0699  140.4191  161.6480 H   0  0  0  0  0  0  0  0  0  0  0  0
  154.8214  140.4640  161.5889 H   0  0  0  0  0  0  0  0  0  0  0  0
  151.8482  142.4595  161.2910 H   0  0  0  0  0  0  0  0  0  0  0  0
  152.7403  143.9356  160.9771 H   0  0  0  0  0  0  0  0  0  0  0  0
  153.4703  143.1148  158.7622 H   0  0  0  0  0  0  0  0  0  0  0  0
  151.7238  143.0165  158.8847 H   0  0  0  0  0  0  0  0  0  0  0  0
  1  2  2  0  0  0  0
  1 23  1  0  0  0  0
  1 24  1  0  0  0  0
  2  3  1  0  0  0  0
  2 25  1  0  0  0  0
  3  4  1  0  0  0  0
  3 26  1  0  0  0  0
  3 27  1  0  0  0  0
  4  5  1  0  0  0  0
  4 28  1  0  0  0  0
  5  6  2  0  0  0  0
  5  7  1  0  0  0  0
  7  8  1  0  0  0  0
  7 29  1  0  0  0  0
  7 30  1  0  0  0  0
  8  9  1  0  0  0  0
  8 31  1  0  0  0  0
  8 32  1  0  0  0  0
  9 21  1  0  0  0  0
  9 10  2  0  0  0  0
 10 11  1  0  0  0  0
 10 12  1  0  0  0  0
 11 33  1  0  0  0  0
 11 34  1  0  0  0  0
 11 35  1  0  0  0  0
 12 13  2  0  0  0  0
 13 14  1  0  0  0  0
 13 20  1  0  0  0  0
 14 19  1  0  0  0  0
 14 15  1  0  0  0  0
 15 16  1  0  0  0  0
 15 36  1  0  0  0  0
 15 37  1  0  0  0  0
 16 17  1  0  0  0  0
 16 38  1  0  0  0  0
 16 39  1  0  0  0  0
 17 18  1  0  0  0  0
 18 19  1  0  0  0  0
 18 40  1  0  0  0  0
 18 41  1  0  0  0  0
 19 42  1  0  0  0  0
 19 43  1  0  0  0  0
 20 21  1  0  0  0  0
 21 22  2  0  0  0  0
M  CHG  1  20  -1
M  END
> <s_m_source_file>
AV-unprocessed.smi

> <i_m_source_file_index>
1503

> <i_lp_mmshare_version>
43012

> <i_f3d_flags>
0

> <s_epik_input>
W0NIMl09W0NIXVtDSDJdW05IXUMoPU8pW0NIMl1bQ0gyXWMxYyhbQ0gzXSluYyhbbkhdYzE9TylOMltDSDJdW0NIMl1PW0NIMl1bQ0gyXTI=

> <s_epik_cmdline>
J2VwaWtfcHl0aG9uJywgJy1waCcsICc3LjAnLCAnLXRuJywgJzgnLCAnLW1hJywgJzIwMCcsICctbWV0YWxfYmluZGluZycsICctaW1hZScsICc8aW5maWxlLm1hZT4nLCAnLW9tYWUnLCAnPG91dGZpbGUubWFlPic=

> <r_lp_tautomer_probability>
1

> <r_epik_Ionization_Penalty>
5.02457

> <r_epik_Ionization_Penalty_Charging>
9.64055e-08

> <r_epik_Ionization_Penalty_Neutral>
5.02457

> <r_epik_State_Penalty>
2.56428

> <r_epik_Charging_Adjusted_Penalty>
2.56428

> <i_epik_Tot_Q>
-1

> <i_epik_Tot_abs_Q>
1

> <r_epik_Metal_State_Penalty>
0.122481

> <b_epik_Metal_Only>
0

> <s_lp_Force_Field>
OPLS_2005

> <r_lp_Energy>
26.3767

> <b_lp_Chiralities_Consistent>
1

> <s_lp_Variant>
AV-unprocessed.smi:1503-3

> <Gold.Version>
5.8.1

> <Gold.Id.Protein>
6NUR|6NUR_protein|mol2

> <Gold.PLP.Fitness>
48.0976

> <Gold.PLP.PLP>
-40.1211

> <Gold.PLP.part.hbond>
-3.2896

> <Gold.PLP.part.metal>
0.0000

> <Gold.PLP.part.buried>
-1.9609

> <Gold.PLP.part.nonpolar>
-33.7973

> <Gold.PLP.part.repulsive>
0.0448

> <Gold.PLP.ligand.clash>
0.0000

> <Gold.PLP.ligand.torsion>
0.6602

> <Gold.PLP.Chemscore.Hbond>
3.0000

> <Gold.PLP.Chemscore.CHOScore>
0.0000

> <Gold.PLP.Chemscore.Metal>
0.0000

> <Gold.Chemscore.Hbonds>
donor molecule, donor type, donor heavy atom, donor atom, acceptor molecule, acceptor atom, score
      L1  H     4    28       P1  7948  1.00
      P1  H  7997  8009       L1    20  2.00

> <Gold.PLP.Chemscore.Internal.Correction>
0.2970

> <Gold.Rescore>
     Score         DG    S(hbond)    S(metal)    S(lipo)     H(rot)  DE(clash)    DE(int)     intcor
     16.03     -16.83       1.65        0.00      90.76       1.87       0.28       0.52       ----

> <Gold.Chemscore.Fitness>
16.0337

> <Gold.Chemscore.DG>
-16.8302

> <Gold.Chemscore.ZeroCoef>
-5.4800

> <Gold.Chemscore.Hbond>
1.6543

> <Gold.Chemscore.Metal>
0.0000

> <Gold.Chemscore.Lipo>
90.7607

> <Gold.Chemscore.Internal_Hbond>
0.0000

> <Gold.Chemscore.DEClash>
0.2763

> <Gold.Chemscore.DEInternal>
0.5203

> <Gold.Chemscore.Rot>
1.8727

> <Gold.Chemscore.Internal.Correction>
   9.000000E+99

> <Gold.Chemscore.Hbonds>
donor molecule, donor type, donor heavy atom, donor atom, acceptor molecule, acceptor atom, score
      L1  H     4    28       P1  7948  0.96
      P1  H  7997  8009       L1    20  0.11

> <Gold.Chemscore.Hbond.Weighted>
-5.5254

> <Gold.Chemscore.Metal.Weighted>
-0.0000

> <Gold.Chemscore.Lipo.Weighted>
-10.6190

> <Gold.Chemscore.Internal_Hbond.Weighted>
0.0000

> <Gold.Chemscore.DEClash.Weighted>
0.2763

> <Gold.Chemscore.DEInternal.Weighted>
0.5203

> <Gold.Chemscore.Rot.Weighted>
4.7942

> <Gold.Chemscore.Internal.Correction.Weighted>
   9.000000E+99

> <Gold.Protein.RotatedTorsions>
[ 6907 6896 6895 6894 ] final -178.55 input  -60.11 | X-H torsion
[ 7974 7965 7964 7962 ] final   75.35 input  175.53 | X-H torsion
[ 8008 7997 7996 7995 ] final  171.26 input   59.86 | X-H torsion
[ 10167 10162 10161 10158 ] final  -50.62 input  -65.29 | X-H torsion
[ 10718 10713 10712 10709 ] final   75.49 input   66.30 | X-H torsion
[ 10763 10752 10751 10750 ] final  -20.29 input  -60.55 | X-H torsion
[ 11005 11000 10999 10996 ] final -159.73 input  -57.11 | X-H torsion

> <Gold.Protein.ActiveResidues>
 VAL166  LYS551  ARG553  GLY616  TRP617  ASP618  TYR619  PRO620  LYS621  CYS622 
 ASP623  PHE694  ASN695  SER759  ASP760  ASP761  ALA762  ILE779  LEU786  VAL792 
 PHE793  MET794  SER795  GLU796  ALA797  LYS798  CYS799  TRP800  GLU811  SER814 

> <Gold.Protein.RotatedAtoms>
  151.6391  133.3327  159.3125 H   0  0  0  0  0  0  0  0  0  0  0  0  # atno 6907 bound_to 6896
  150.8017  134.7119  159.6618 H   0  0  0  0  0  0  0  0  0  0  0  0  # atno 6908 bound_to 6896
  152.4110  134.6129  160.0082 H   0  0  0  0  0  0  0  0  0  0  0  0  # atno 6909 bound_to 6896
  145.7167  139.2634  143.1619 H   0  0  0  0  0  0  0  0  0  0  0  0  # atno 7974 bound_to 7965
  156.1288  140.1516  156.9096 H   0  0  0  0  0  0  0  0  0  0  0  0  # atno 8008 bound_to 7997
  154.4893  140.0856  156.7598 H   0  0  0  0  0  0  0  0  0  0  0  0  # atno 8009 bound_to 7997
  155.4294  140.3426  155.4281 H   0  0  0  0  0  0  0  0  0  0  0  0  # atno 8010 bound_to 7997
  140.6628  143.2650  151.4386 H   0  0  0  0  0  0  0  0  0  0  0  0  # atno 10167 bound_to 10162
  157.6636  130.9729  150.1361 H   0  0  0  0  0  0  0  0  0  0  0  0  # atno 10718 bound_to 10713
  153.6181  135.6994  153.5321 H   0  0  0  0  0  0  0  0  0  0  0  0  # atno 10763 bound_to 10752
  153.2960  135.4143  155.1210 H   0  0  0  0  0  0  0  0  0  0  0  0  # atno 10764 bound_to 10752
  154.8549  135.3637  154.5721 H   0  0  0  0  0  0  0  0  0  0  0  0  # atno 10765 bound_to 10752
  140.6394  134.4567  157.5233 H   0  0  0  0  0  0  0  0  0  0  0  0  # atno 11005 bound_to 11000
  146.0663  140.7917  142.9710 LP  0  0  0  0  0  0  0  0  0  0  0  0  # atno 17320 bound_to 7965
  144.6927  140.3273  143.7222 LP  0  0  0  0  0  0  0  0  0  0  0  0  # atno 17321 bound_to 7965
  139.5867  144.1588  152.2038 LP  0  0  0  0  0  0  0  0  0  0  0  0  # atno 17342 bound_to 10162
  140.0930  144.5605  150.7042 LP  0  0  0  0  0  0  0  0  0  0  0  0  # atno 17343 bound_to 10162
  156.2195  130.3673  149.8572 LP  0  0  0  0  0  0  0  0  0  0  0  0  # atno 17370 bound_to 10713
  156.6429  130.8712  151.3517 LP  0  0  0  0  0  0  0  0  0  0  0  0  # atno 17371 bound_to 10713
  139.9086  134.8394  156.1612 LP  0  0  0  0  0  0  0  0  0  0  0  0  # atno 17394 bound_to 11000
  141.0618  133.6838  156.1967 LP  0  0  0  0  0  0  0  0  0  0  0  0  # atno 17395 bound_to 11000

$$$$
