AV-unprocessed.smi:81|AV-procd|sdf|789|dock6
  -GOLD-   2262017163D 1   1.00000     0.00000
 Structure written by MMmdl.
 64 67  0  0  0  0  0  0  0  0  2 V2000
  146.9882  140.1340  152.7121 C   0  0  0  0  0  0  0  0  0  0  0  0
  147.5752  140.4542  154.0968 C   0  0  0  0  0  0  0  0  0  0  0  0
  147.9730  141.9347  154.1836 C   0  0  0  0  0  0  0  0  0  0  0  0
  148.7843  139.5520  154.4314 C   0  0  0  0  0  0  0  0  0  0  0  0
  148.9212  139.2399  155.8574 N   0  0  0  0  0  0  0  0  0  0  0  0
  147.9016  138.5139  156.3814 C   0  0  0  0  0  0  0  0  0  0  0  0
  146.7450  138.3637  155.6835 N   0  0  0  0  0  0  0  0  0  0  0  0
  145.7438  137.6418  156.1957 C   0  0  0  0  0  0  0  0  0  0  0  0
  145.6915  136.9978  157.3636 N   0  0  0  0  0  0  0  0  0  0  0  0
  146.8539  137.1416  158.0627 C   0  0  0  0  0  0  0  0  0  0  0  0
  148.0006  137.8724  157.6450 C   0  0  0  0  0  0  0  0  0  0  0  0
  148.9992  137.7841  158.6063 N   0  0  0  0  0  0  0  0  0  0  0  0
  148.4722  137.0413  159.5411 C   0  0  0  0  0  0  0  0  0  0  0  0
  147.1814  136.6241  159.3037 N   0  0  0  0  0  0  0  0  0  0  0  0
  146.3599  135.7936  160.1710 C   0  0  0  0  0  0  0  0  0  0  0  0
  146.3219  136.2647  161.6515 C   0  0  2  0  0  0  0  0  0  0  0  0
  146.0410  137.6507  161.7026 O   0  0  0  0  0  0  0  0  0  0  0  0
  147.6095  135.9941  162.4204 C   0  0  0  0  0  0  0  0  0  0  0  0
  147.4431  134.5370  162.8399 C   0  0  0  0  0  0  0  0  0  0  0  0
  146.0413  134.3436  163.0041 O   0  0  0  0  0  0  0  0  0  0  0  0
  145.3272  135.4842  162.5335 C   0  0  2  0  0  0  0  0  0  0  0  0
  144.0025  135.0640  161.8794 C   0  0  0  0  0  0  0  0  0  0  0  0
  149.4593  140.3101  156.7099 C   0  0  2  0  0  0  0  0  0  0  0  0
  148.4172  141.3782  157.1050 C   0  0  0  0  0  0  0  0  0  0  0  0
  149.0284  142.4147  158.0615 C   0  0  0  0  0  0  0  0  0  0  0  0
  150.2259  143.0522  157.4600 N   0  3  1  0  0  0  0  0  0  0  0  0
  150.7644  144.1440  158.2991 C   0  0  0  0  0  0  0  0  0  0  0  0
  151.2629  142.0553  157.0951 C   0  0  0  0  0  0  0  0  0  0  0  0
  150.7039  141.0073  156.1187 C   0  0  0  0  0  0  0  0  0  0  0  0
  147.7286  140.2784  151.9246 H   0  0  0  0  0  0  0  0  0  0  0  0
  146.1359  140.7763  152.4893 H   0  0  0  0  0  0  0  0  0  0  0  0
  146.6392  139.1031  152.6546 H   0  0  0  0  0  0  0  0  0  0  0  0
  146.7927  140.2945  154.8391 H   0  0  0  0  0  0  0  0  0  0  0  0
  148.7543  142.1790  153.4633 H   0  0  0  0  0  0  0  0  0  0  0  0
  148.3467  142.1826  155.1776 H   0  0  0  0  0  0  0  0  0  0  0  0
  147.1204  142.5840  153.9831 H   0  0  0  0  0  0  0  0  0  0  0  0
  148.6973  138.6193  153.8731 H   0  0  0  0  0  0  0  0  0  0  0  0
  149.7016  140.0259  154.0792 H   0  0  0  0  0  0  0  0  0  0  0  0
  144.8578  137.5693  155.5823 H   0  0  0  0  0  0  0  0  0  0  0  0
  149.0113  136.7818  160.4409 H   0  0  0  0  0  0  0  0  0  0  0  0
  145.3526  135.7744  159.7537 H   0  0  0  0  0  0  0  0  0  0  0  0
  146.7326  134.7708  160.1067 H   0  0  0  0  0  0  0  0  0  0  0  0
  145.1399  137.7834  161.4509 H   0  0  0  0  0  0  0  0  0  0  0  0
  148.5255  136.1789  161.8616 H   0  0  0  0  0  0  0  0  0  0  0  0
  147.6511  136.6142  163.3177 H   0  0  0  0  0  0  0  0  0  0  0  0
  147.7987  133.8688  162.0548 H   0  0  0  0  0  0  0  0  0  0  0  0
  147.9879  134.3029  163.7547 H   0  0  0  0  0  0  0  0  0  0  0  0
  145.0996  136.0817  163.4183 H   0  0  0  0  0  0  0  0  0  0  0  0
  143.4670  135.9300  161.4896 H   0  0  0  0  0  0  0  0  0  0  0  0
  143.3541  134.5725  162.6045 H   0  0  0  0  0  0  0  0  0  0  0  0
  144.1603  134.3646  161.0584 H   0  0  0  0  0  0  0  0  0  0  0  0
  149.7698  139.8207  157.6341 H   0  0  0  0  0  0  0  0  0  0  0  0
  148.0396  141.8954  156.2221 H   0  0  0  0  0  0  0  0  0  0  0  0
  147.5589  140.9045  157.5827 H   0  0  0  0  0  0  0  0  0  0  0  0
  148.2848  143.1791  158.2911 H   0  0  0  0  0  0  0  0  0  0  0  0
  149.2994  141.9413  159.0067 H   0  0  0  0  0  0  0  0  0  0  0  0
  151.1190  143.7636  159.2578 H   0  0  0  0  0  0  0  0  0  0  0  0
  149.9982  144.8958  158.4911 H   0  0  0  0  0  0  0  0  0  0  0  0
  151.5964  144.6396  157.7980 H   0  0  0  0  0  0  0  0  0  0  0  0
  152.1116  142.5628  156.6348 H   0  0  0  0  0  0  0  0  0  0  0  0
  151.6362  141.5673  157.9970 H   0  0  0  0  0  0  0  0  0  0  0  0
  151.4807  140.2767  155.8925 H   0  0  0  0  0  0  0  0  0  0  0  0
  150.4553  141.4986  155.1776 H   0  0  0  0  0  0  0  0  0  0  0  0
  149.9217  143.4793  156.5967 H   0  0  0  0  0  0  0  0  0  0  0  0
  1  2  1  0  0  0  0
  1 30  1  0  0  0  0
  1 31  1  0  0  0  0
  1 32  1  0  0  0  0
  2  3  1  0  0  0  0
  2  4  1  0  0  0  0
  2 33  1  0  0  0  0
  3 34  1  0  0  0  0
  3 35  1  0  0  0  0
  3 36  1  0  0  0  0
  4  5  1  0  0  0  0
  4 37  1  0  0  0  0
  4 38  1  0  0  0  0
  5  6  1  0  0  0  0
  5 23  1  0  0  0  0
  6 11  1  0  0  0  0
  6  7  2  0  0  0  0
  7  8  1  0  0  0  0
  8  9  2  0  0  0  0
  8 39  1  0  0  0  0
  9 10  1  0  0  0  0
 10 14  1  0  0  0  0
 10 11  2  0  0  0  0
 11 12  1  0  0  0  0
 12 13  2  0  0  0  0
 13 14  1  0  0  0  0
 13 40  1  0  0  0  0
 14 15  1  0  0  0  0
 15 16  1  0  0  0  0
 15 41  1  0  0  0  0
 15 42  1  0  0  0  0
 16 21  1  0  0  0  0
 16 17  1  0  0  0  0
 16 18  1  0  0  0  0
 17 43  1  0  0  0  0
 18 19  1  0  0  0  0
 18 44  1  0  0  0  0
 18 45  1  0  0  0  0
 19 20  1  0  0  0  0
 19 46  1  0  0  0  0
 19 47  1  0  0  0  0
 20 21  1  0  0  0  0
 21 22  1  0  0  0  0
 21 48  1  0  0  0  0
 22 49  1  0  0  0  0
 22 50  1  0  0  0  0
 22 51  1  0  0  0  0
 23 29  1  0  0  0  0
 23 24  1  0  0  0  0
 23 52  1  0  0  0  0
 24 25  1  0  0  0  0
 24 53  1  0  0  0  0
 24 54  1  0  0  0  0
 25 26  1  0  0  0  0
 25 55  1  0  0  0  0
 25 56  1  0  0  0  0
 26 27  1  0  0  0  0
 26 28  1  0  0  0  0
 26 64  1  0  0  0  0
 27 57  1  0  0  0  0
 27 58  1  0  0  0  0
 27 59  1  0  0  0  0
 28 29  1  0  0  0  0
 28 60  1  0  0  0  0
 28 61  1  0  0  0  0
 29 62  1  0  0  0  0
 29 63  1  0  0  0  0
M  CHG  1  26   1
M  END
> <s_m_source_file>
AV-unprocessed.smi

> <i_m_source_file_index>
81

> <i_lp_mmshare_version>
43012

> <i_f3d_flags>
0

> <s_epik_input>
W0NIMl0xW0NIMl1OKFtDSDNdKVtDSDJdW0NIMl1bQ0hdMU4oW0NIMl1bQ0hdKFtDSDNdKVtDSDNdKWMobltjSF1uMiljKGMyMyluW2NIXW4zW0NIMl1bQ0BAXTQoW09IXSlbQ0gyXVtDSDJdT1tDQEhdNFtDSDNd

> <s_epik_cmdline>
J2VwaWtfcHl0aG9uJywgJy1waCcsICc3LjAnLCAnLXRuJywgJzgnLCAnLW1hJywgJzIwMCcsICctbWV0YWxfYmluZGluZycsICctaW1hZScsICc8aW5maWxlLm1hZT4nLCAnLW9tYWUnLCAnPG91dGZpbGUubWFlPic=

> <r_lp_tautomer_probability>
1

> <r_epik_Ionization_Penalty>
0.00272708

> <r_epik_Ionization_Penalty_Charging>
0.00158983

> <r_epik_Ionization_Penalty_Neutral>
0.00113725

> <r_epik_State_Penalty>
-0

> <r_epik_Charging_Adjusted_Penalty>
0.00158983

> <i_epik_Tot_Q>
1

> <i_epik_Tot_abs_Q>
1

> <r_epik_Metal_State_Penalty>
-0

> <b_epik_Metal_Only>
0

> <s_lp_Force_Field>
OPLS_2005

> <r_lp_Energy>
46.4423

> <b_lp_Chiralities_Consistent>
1

> <s_lp_Variant>
AV-unprocessed.smi:81-4

> <Gold.Version>
5.8.1

> <Gold.Id.Protein>
6NUR|6NUR_protein|mol2

> <Gold.PLP.Fitness>
47.1196

> <Gold.PLP.PLP>
-39.5625

> <Gold.PLP.part.hbond>
-2.8711

> <Gold.PLP.part.metal>
0.0000

> <Gold.PLP.part.buried>
-5.3151

> <Gold.PLP.part.nonpolar>
-31.3699

> <Gold.PLP.part.repulsive>
0.0451

> <Gold.PLP.ligand.clash>
0.0000

> <Gold.PLP.ligand.torsion>
1.0237

> <Gold.PLP.Chemscore.Hbond>
2.9120

> <Gold.PLP.Chemscore.CHOScore>
0.0000

> <Gold.PLP.Chemscore.Metal>
0.0000

> <Gold.Chemscore.Hbonds>
donor molecule, donor type, donor heavy atom, donor atom, acceptor molecule, acceptor atom, score
      L1  H    26    64       P1  8028  2.00
      P1  H  6934  6947       L1    17  0.88

> <Gold.PLP.Chemscore.Internal.Correction>
0.8684

> <Gold.Rescore>
     Score         DG    S(hbond)    S(metal)    S(lipo)     H(rot)  DE(clash)    DE(int)     intcor
     14.79     -17.32       1.86        0.00     104.55       2.58       0.22       2.30       ----

> <Gold.Chemscore.Fitness>
14.7946

> <Gold.Chemscore.DG>
-17.3182

> <Gold.Chemscore.ZeroCoef>
-5.4800

> <Gold.Chemscore.Hbond>
1.8576

> <Gold.Chemscore.Metal>
0.0000

> <Gold.Chemscore.Lipo>
104.5463

> <Gold.Chemscore.Internal_Hbond>
0.0000

> <Gold.Chemscore.DEClash>
0.2198

> <Gold.Chemscore.DEInternal>
2.3038

> <Gold.Chemscore.Rot>
2.5774

> <Gold.Chemscore.Internal.Correction>
   9.000000E+99

> <Gold.Chemscore.Hbonds>
donor molecule, donor type, donor heavy atom, donor atom, acceptor molecule, acceptor atom, score
      L1  H    26    64       P1  8028  0.95
      P1  H  6934  6947       L1    17  0.64

> <Gold.Chemscore.Hbond.Weighted>
-6.2045

> <Gold.Chemscore.Metal.Weighted>
-0.0000

> <Gold.Chemscore.Lipo.Weighted>
-12.2319

> <Gold.Chemscore.Internal_Hbond.Weighted>
0.0000

> <Gold.Chemscore.DEClash.Weighted>
0.2198

> <Gold.Chemscore.DEInternal.Weighted>
2.3038

> <Gold.Chemscore.Rot.Weighted>
6.5982

> <Gold.Chemscore.Internal.Correction.Weighted>
   9.000000E+99

> <Gold.Protein.RotatedTorsions>
[ 6907 6896 6895 6894 ] final  175.96 input  -60.11 | X-H torsion
[ 7974 7965 7964 7962 ] final  112.17 input  175.53 | X-H torsion
[ 8008 7997 7996 7995 ] final  147.81 input   59.86 | X-H torsion
[ 10167 10162 10161 10158 ] final   16.56 input  -65.29 | X-H torsion
[ 10718 10713 10712 10709 ] final   96.45 input   66.30 | X-H torsion
[ 10763 10752 10751 10750 ] final  -75.10 input  -60.55 | X-H torsion
[ 11005 11000 10999 10996 ] final  152.88 input  -57.11 | X-H torsion

> <Gold.Protein.ActiveResidues>
 VAL166  LYS551  ARG553  GLY616  TRP617  ASP618  TYR619  PRO620  LYS621  CYS622 
 ASP623  PHE694  ASN695  SER759  ASP760  ASP761  ALA762  ILE779  LEU786  VAL792 
 PHE793  MET794  SER795  GLU796  ALA797  LYS798  CYS799  TRP800  GLU811  SER814 

> <Gold.Protein.RotatedAtoms>
  151.7278  133.3316  159.3332 H   0  0  0  0  0  0  0  0  0  0  0  0  # atno 6907 bound_to 6896
  150.7625  134.6390  159.6236 H   0  0  0  0  0  0  0  0  0  0  0  0  # atno 6908 bound_to 6896
  152.3611  134.6873  160.0258 H   0  0  0  0  0  0  0  0  0  0  0  0  # atno 6909 bound_to 6896
  145.2329  139.2812  143.4158 H   0  0  0  0  0  0  0  0  0  0  0  0  # atno 7974 bound_to 7965
  156.2812  140.2145  156.5598 H   0  0  0  0  0  0  0  0  0  0  0  0  # atno 8008 bound_to 7997
  154.7223  140.0502  157.0673 H   0  0  0  0  0  0  0  0  0  0  0  0  # atno 8009 bound_to 7997
  155.0463  140.3151  155.4710 H   0  0  0  0  0  0  0  0  0  0  0  0  # atno 8010 bound_to 7997
  140.5788  143.9020  150.6772 H   0  0  0  0  0  0  0  0  0  0  0  0  # atno 10167 bound_to 10162
  157.6926  131.0578  150.4493 H   0  0  0  0  0  0  0  0  0  0  0  0  # atno 10718 bound_to 10713
  154.4820  135.5842  153.6396 H   0  0  0  0  0  0  0  0  0  0  0  0  # atno 10763 bound_to 10752
  152.9849  135.6092  154.3234 H   0  0  0  0  0  0  0  0  0  0  0  0  # atno 10764 bound_to 10752
  154.3126  135.2845  155.2538 H   0  0  0  0  0  0  0  0  0  0  0  0  # atno 10765 bound_to 10752
  140.1347  134.8779  157.2251 H   0  0  0  0  0  0  0  0  0  0  0  0  # atno 11005 bound_to 11000
  146.3348  140.2669  142.8604 LP  0  0  0  0  0  0  0  0  0  0  0  0  # atno 17320 bound_to 7965
  144.9660  140.8322  143.5484 LP  0  0  0  0  0  0  0  0  0  0  0  0  # atno 17321 bound_to 7965
  140.2514  143.3590  152.1402 LP  0  0  0  0  0  0  0  0  0  0  0  0  # atno 17342 bound_to 10162
  139.5158  144.6968  151.5608 LP  0  0  0  0  0  0  0  0  0  0  0  0  # atno 17343 bound_to 10162
  156.4845  130.4081  149.6442 LP  0  0  0  0  0  0  0  0  0  0  0  0  # atno 17370 bound_to 10713
  156.3475  130.7415  151.2369 LP  0  0  0  0  0  0  0  0  0  0  0  0  # atno 17371 bound_to 10713
  140.2797  134.3364  155.7347 LP  0  0  0  0  0  0  0  0  0  0  0  0  # atno 17394 bound_to 11000
  141.2176  133.7471  156.9346 LP  0  0  0  0  0  0  0  0  0  0  0  0  # atno 17395 bound_to 11000

$$$$
