AV-unprocessed.smi:3341|AV-procd|sdf|12885|dock5
  -GOLD-   2272019293D 1   1.00000     0.00000
 Structure written by MMmdl.
 46 47  0  0  0  0  0  0  0  0  2 V2000
  154.1839  140.4808  159.3885 C   0  0  0  0  0  0  0  0  0  0  0  0
  153.5868  141.7855  159.9289 C   0  0  0  0  0  0  0  0  0  0  0  0
  152.6872  142.4016  158.9733 N   0  0  0  0  0  0  0  0  0  0  0  0
  151.5945  141.8389  158.3439 C   0  0  0  0  0  0  0  0  0  0  0  0
  151.0823  142.8215  157.5446 C   0  0  0  0  0  0  0  0  0  0  0  0
  149.9630  142.7825  156.6752 N   0  0  0  0  0  0  0  0  0  0  0  0
  149.2399  141.7066  156.3247 C   0  0  0  0  0  0  0  0  0  0  0  0
  149.4327  140.5596  156.7285 O   0  0  0  0  0  0  0  0  0  0  0  0
  148.2593  142.0341  155.4716 N   0  0  0  0  0  0  0  0  0  0  0  0
  147.3010  141.0954  154.8995 C   0  0  0  0  0  0  0  0  0  0  0  0
  147.4219  141.0289  153.3647 C   0  0  0  0  0  0  0  0  0  0  0  0
  146.6318  139.9154  152.7814 N   0  3  1  0  0  0  0  0  0  0  0  0
  146.9602  139.6838  151.3509 C   0  0  0  0  0  0  0  0  0  0  0  0
  146.0245  138.6356  150.7289 C   0  0  0  0  0  0  0  0  0  0  0  0
  146.0635  137.3216  151.5215 C   0  0  0  0  0  0  0  0  0  0  0  0
  145.7836  137.5630  153.0162 C   0  0  2  0  0  0  0  0  0  0  0  0
  144.3021  137.8625  153.3060 C   0  0  0  0  0  0  0  0  0  0  0  0
  146.7189  138.6570  153.5722 C   0  0  0  0  0  0  0  0  0  0  0  0
  151.9162  143.9532  157.7397 C   0  0  0  0  0  0  0  0  0  0  0  0
  152.8833  143.6922  158.6059 N   0  0  0  0  0  0  0  0  0  0  0  0
  154.8635  140.0355  160.1150 H   0  0  0  0  0  0  0  0  0  0  0  0
  154.7458  140.6561  158.4705 H   0  0  0  0  0  0  0  0  0  0  0  0
  153.4045  139.7499  159.1706 H   0  0  0  0  0  0  0  0  0  0  0  0
  153.0419  141.5991  160.8554 H   0  0  0  0  0  0  0  0  0  0  0  0
  154.3818  142.4935  160.1659 H   0  0  0  0  0  0  0  0  0  0  0  0
  151.2948  140.8165  158.5207 H   0  0  0  0  0  0  0  0  0  0  0  0
  149.6860  143.6681  156.2777 H   0  0  0  0  0  0  0  0  0  0  0  0
  148.1749  143.0008  155.1920 H   0  0  0  0  0  0  0  0  0  0  0  0
  147.4969  140.1232  155.3494 H   0  0  0  0  0  0  0  0  0  0  0  0
  146.2868  141.3736  155.1913 H   0  0  0  0  0  0  0  0  0  0  0  0
  147.0607  141.9724  152.9528 H   0  0  0  0  0  0  0  0  0  0  0  0
  148.4658  140.9416  153.0597 H   0  0  0  0  0  0  0  0  0  0  0  0
  146.8669  140.6164  150.7931 H   0  0  0  0  0  0  0  0  0  0  0  0
  147.9996  139.3633  151.2623 H   0  0  0  0  0  0  0  0  0  0  0  0
  145.0057  139.0233  150.6983 H   0  0  0  0  0  0  0  0  0  0  0  0
  146.3110  138.4511  149.6931 H   0  0  0  0  0  0  0  0  0  0  0  0
  145.3511  136.6072  151.1076 H   0  0  0  0  0  0  0  0  0  0  0  0
  147.0495  136.8683  151.4100 H   0  0  0  0  0  0  0  0  0  0  0  0
  146.0166  136.6363  153.5424 H   0  0  0  0  0  0  0  0  0  0  0  0
  143.9743  138.7915  152.8397 H   0  0  0  0  0  0  0  0  0  0  0  0
  144.1245  137.9535  154.3781 H   0  0  0  0  0  0  0  0  0  0  0  0
  143.6611  137.0616  152.9365 H   0  0  0  0  0  0  0  0  0  0  0  0
  147.7501  138.3004  153.5575 H   0  0  0  0  0  0  0  0  0  0  0  0
  146.4724  138.8400  154.6174 H   0  0  0  0  0  0  0  0  0  0  0  0
  151.8539  144.9339  157.2918 H   0  0  0  0  0  0  0  0  0  0  0  0
  145.6660  140.2105  152.8015 H   0  0  0  0  0  0  0  0  0  0  0  0
  1  2  1  0  0  0  0
  1 21  1  0  0  0  0
  1 22  1  0  0  0  0
  1 23  1  0  0  0  0
  2  3  1  0  0  0  0
  2 24  1  0  0  0  0
  2 25  1  0  0  0  0
  3 20  1  0  0  0  0
  3  4  1  0  0  0  0
  4  5  2  0  0  0  0
  4 26  1  0  0  0  0
  5  6  1  0  0  0  0
  5 19  1  0  0  0  0
  6  7  1  0  0  0  0
  6 27  1  0  0  0  0
  7  8  2  0  0  0  0
  7  9  1  0  0  0  0
  9 10  1  0  0  0  0
  9 28  1  0  0  0  0
 10 11  1  0  0  0  0
 10 29  1  0  0  0  0
 10 30  1  0  0  0  0
 11 12  1  0  0  0  0
 11 31  1  0  0  0  0
 11 32  1  0  0  0  0
 12 18  1  0  0  0  0
 12 13  1  0  0  0  0
 12 46  1  0  0  0  0
 13 14  1  0  0  0  0
 13 33  1  0  0  0  0
 13 34  1  0  0  0  0
 14 15  1  0  0  0  0
 14 35  1  0  0  0  0
 14 36  1  0  0  0  0
 15 16  1  0  0  0  0
 15 37  1  0  0  0  0
 15 38  1  0  0  0  0
 16 17  1  0  0  0  0
 16 18  1  0  0  0  0
 16 39  1  0  0  0  0
 17 40  1  0  0  0  0
 17 41  1  0  0  0  0
 17 42  1  0  0  0  0
 18 43  1  0  0  0  0
 18 44  1  0  0  0  0
 19 20  2  0  0  0  0
 19 45  1  0  0  0  0
M  CHG  1  12   1
M  END
> <s_m_source_file>
AV-unprocessed.smi

> <i_m_source_file_index>
3341

> <i_lp_mmshare_version>
43012

> <i_f3d_flags>
0

> <s_epik_input>
W0NIM11bQ0gyXW4xW2NIXWMoW2NIXW4xKVtOSF1DKD1PKVtOSF1bQ0gyXVtDSDJdTjJbQ0gyXVtDSDJdW0NIMl1bQ0BASF0oW0NIM10pW0NIMl0y

> <s_epik_cmdline>
J2VwaWtfcHl0aG9uJywgJy1waCcsICc3LjAnLCAnLXRuJywgJzgnLCAnLW1hJywgJzIwMCcsICctbWV0YWxfYmluZGluZycsICctaW1hZScsICc8aW5maWxlLm1hZT4nLCAnLW9tYWUnLCAnPG91dGZpbGUubWFlPic=

> <r_lp_tautomer_probability>
1

> <r_epik_Ionization_Penalty>
0.00203389

> <r_epik_Ionization_Penalty_Charging>
0.00188267

> <r_epik_Ionization_Penalty_Neutral>
0.000151224

> <r_epik_State_Penalty>
0.0012808

> <r_epik_Charging_Adjusted_Penalty>
0.00316346

> <i_epik_Tot_Q>
1

> <i_epik_Tot_abs_Q>
1

> <r_epik_Metal_State_Penalty>
-0

> <b_epik_Metal_Only>
0

> <s_lp_Force_Field>
OPLS_2005

> <r_lp_Energy>
23.1635

> <b_lp_Chiralities_Consistent>
1

> <s_lp_Variant>
AV-unprocessed.smi:3341-3

> <Gold.Version>
5.8.1

> <Gold.Id.Protein>
6NUR|6NUR_protein|mol2

> <Gold.PLP.Fitness>
44.1176

> <Gold.PLP.PLP>
-33.2794

> <Gold.PLP.part.hbond>
-2.8435

> <Gold.PLP.part.metal>
0.0000

> <Gold.PLP.part.buried>
2.6284

> <Gold.PLP.part.nonpolar>
-33.8417

> <Gold.PLP.part.repulsive>
0.1174

> <Gold.PLP.ligand.clash>
0.0000

> <Gold.PLP.ligand.torsion>
0.1959

> <Gold.PLP.Chemscore.Hbond>
3.7250

> <Gold.PLP.Chemscore.CHOScore>
0.0000

> <Gold.PLP.Chemscore.Metal>
0.0000

> <Gold.Chemscore.Hbonds>
donor molecule, donor type, donor heavy atom, donor atom, acceptor molecule, acceptor atom, score
      L1  H     6    27       P1  8028  0.81
      L1  H     9    28       P1  8028  0.82
      L1  H    12    46       P1 10175  2.00

> <Gold.PLP.Chemscore.Internal.Correction>
0.0550

> <Gold.Rescore>
     Score         DG    S(hbond)    S(metal)    S(lipo)     H(rot)  DE(clash)    DE(int)     intcor
     17.05     -20.62       2.61        0.00      89.67       1.59       2.20       1.37       ----

> <Gold.Chemscore.Fitness>
17.0546

> <Gold.Chemscore.DG>
-20.6218

> <Gold.Chemscore.ZeroCoef>
-5.4800

> <Gold.Chemscore.Hbond>
2.6116

> <Gold.Chemscore.Metal>
0.0000

> <Gold.Chemscore.Lipo>
89.6749

> <Gold.Chemscore.Internal_Hbond>
0.0000

> <Gold.Chemscore.DEClash>
2.2003

> <Gold.Chemscore.DEInternal>
1.3670

> <Gold.Chemscore.Rot>
1.5909

> <Gold.Chemscore.Internal.Correction>
   9.000000E+99

> <Gold.Chemscore.Hbonds>
donor molecule, donor type, donor heavy atom, donor atom, acceptor molecule, acceptor atom, score
      L1  H     6    27       P1  8028  0.80
      L1  H     9    28       P1  8028  0.79
      L1  H    12    46       P1 10175  0.87

> <Gold.Chemscore.Hbond.Weighted>
-8.7226

> <Gold.Chemscore.Metal.Weighted>
-0.0000

> <Gold.Chemscore.Lipo.Weighted>
-10.4920

> <Gold.Chemscore.Internal_Hbond.Weighted>
0.0000

> <Gold.Chemscore.DEClash.Weighted>
2.2003

> <Gold.Chemscore.DEInternal.Weighted>
1.3670

> <Gold.Chemscore.Rot.Weighted>
4.0728

> <Gold.Chemscore.Internal.Correction.Weighted>
   9.000000E+99

> <Gold.Protein.RotatedTorsions>
[ 6907 6896 6895 6894 ] final  102.53 input  -60.11 | X-H torsion
[ 7974 7965 7964 7962 ] final -165.64 input  175.53 | X-H torsion
[ 8008 7997 7996 7995 ] final -166.45 input   59.86 | X-H torsion
[ 10167 10162 10161 10158 ] final  162.30 input  -65.29 | X-H torsion
[ 10718 10713 10712 10709 ] final -122.65 input   66.30 | X-H torsion
[ 10763 10752 10751 10750 ] final  105.69 input  -60.55 | X-H torsion
[ 11005 11000 10999 10996 ] final -172.33 input  -57.11 | X-H torsion

> <Gold.Protein.ActiveResidues>
 VAL166  LYS551  ARG553  GLY616  TRP617  ASP618  TYR619  PRO620  LYS621  CYS622 
 ASP623  PHE694  ASN695  SER759  ASP760  ASP761  ALA762  ILE779  LEU786  VAL792 
 PHE793  MET794  SER795  GLU796  ALA797  LYS798  CYS799  TRP800  GLU811  SER814 

> <Gold.Protein.RotatedAtoms>
  152.5321  133.9961  159.7872 H   0  0  0  0  0  0  0  0  0  0  0  0  # atno 6907 bound_to 6896
  151.0188  133.5888  159.2681 H   0  0  0  0  0  0  0  0  0  0  0  0  # atno 6908 bound_to 6896
  151.2935  135.0755  159.9266 H   0  0  0  0  0  0  0  0  0  0  0  0  # atno 6909 bound_to 6896
  144.7265  140.2784  143.6240 H   0  0  0  0  0  0  0  0  0  0  0  0  # atno 7974 bound_to 7965
  155.8640  140.0982  157.1594 H   0  0  0  0  0  0  0  0  0  0  0  0  # atno 8008 bound_to 7997
  154.3992  140.1359  156.4059 H   0  0  0  0  0  0  0  0  0  0  0  0  # atno 8009 bound_to 7997
  155.7825  140.3458  155.5307 H   0  0  0  0  0  0  0  0  0  0  0  0  # atno 8010 bound_to 7997
  139.4859  144.4451  151.8902 H   0  0  0  0  0  0  0  0  0  0  0  0  # atno 10167 bound_to 10162
  156.1436  130.6484  150.9809 H   0  0  0  0  0  0  0  0  0  0  0  0  # atno 10718 bound_to 10713
  153.3828  135.3901  155.1869 H   0  0  0  0  0  0  0  0  0  0  0  0  # atno 10763 bound_to 10752
  154.8710  135.3729  154.4835 H   0  0  0  0  0  0  0  0  0  0  0  0  # atno 10764 bound_to 10752
  153.5314  135.7085  153.5742 H   0  0  0  0  0  0  0  0  0  0  0  0  # atno 10765 bound_to 10752
  140.4982  134.5919  157.4978 H   0  0  0  0  0  0  0  0  0  0  0  0  # atno 11005 bound_to 11000
  145.7974  139.1950  143.2068 LP  0  0  0  0  0  0  0  0  0  0  0  0  # atno 17320 bound_to 7965
  146.0705  140.7874  142.9690 LP  0  0  0  0  0  0  0  0  0  0  0  0  # atno 17321 bound_to 7965
  140.3905  144.2622  150.5900 LP  0  0  0  0  0  0  0  0  0  0  0  0  # atno 17342 bound_to 10162
  140.5151  143.2280  151.8476 LP  0  0  0  0  0  0  0  0  0  0  0  0  # atno 17343 bound_to 10162
  157.6597  131.0883  150.7866 LP  0  0  0  0  0  0  0  0  0  0  0  0  # atno 17370 bound_to 10713
  156.7939  130.4899  149.5380 LP  0  0  0  0  0  0  0  0  0  0  0  0  # atno 17371 bound_to 10713
  139.9729  134.7263  156.0006 LP  0  0  0  0  0  0  0  0  0  0  0  0  # atno 17394 bound_to 11000
  141.1449  133.6558  156.3838 LP  0  0  0  0  0  0  0  0  0  0  0  0  # atno 17395 bound_to 11000

$$$$
