AV-unprocessed.smi:2906|AV-procd|sdf|11162|dock4
  -GOLD-   2272016 53D 1   1.00000     0.00000
 Structure written by MMmdl.
 40 41  0  0  0  0  0  0  0  0  1 V2000
  136.1423  141.2955  153.9389 C   0  0  0  0  0  0  0  0  0  0  0  0
  137.1812  142.1194  153.1611 C   0  0  0  0  0  0  0  0  0  0  0  0
  138.5847  142.1008  153.7905 C   0  0  0  0  0  0  0  0  0  0  0  0
  139.1065  143.1555  154.1555 O   0  0  0  0  0  0  0  0  0  0  0  0
  139.2071  140.9109  153.9264 N   0  0  0  0  0  0  0  0  0  0  0  0
  138.6256  139.6474  153.4859 C   0  0  0  0  0  0  0  0  0  0  0  0
  139.4800  138.5389  154.0983 C   0  0  0  0  0  0  0  0  0  0  0  0
  140.7978  139.1962  154.5091 C   0  0  1  0  0  0  0  0  0  0  0  0
  141.8919  138.8060  153.6235 N   0  0  0  0  0  0  0  0  0  0  0  0
  142.2136  137.5432  153.3082 C   0  0  0  0  0  0  0  0  0  0  0  0
  141.6143  136.5612  153.7477 O   0  0  0  0  0  0  0  0  0  0  0  0
  143.2591  137.5037  152.4636 N   0  0  0  0  0  0  0  0  0  0  0  0
  143.9000  136.3620  151.9158 C   0  0  0  0  0  0  0  0  0  0  0  0
  143.3006  135.1821  151.7222 N   0  0  0  0  0  0  0  0  0  0  0  0
  144.1658  134.2329  151.1695 C   0  0  0  0  0  0  0  0  0  0  0  0
  143.6670  132.8504  150.8770 C   0  0  0  0  0  0  0  0  0  0  0  0
  143.6836  132.5313  149.3779 C   0  0  0  0  0  0  0  0  0  0  0  0
  145.4328  134.7167  150.9506 C   0  0  0  0  0  0  0  0  0  0  0  0
  145.5879  136.3855  151.4303 S   0  0  0  0  0  0  0  0  0  0  0  0
  140.5441  140.7129  154.4809 C   0  0  0  0  0  0  0  0  0  0  0  0
  135.1688  141.3456  153.4511 H   0  0  0  0  0  0  0  0  0  0  0  0
  136.0188  141.6669  154.9567 H   0  0  0  0  0  0  0  0  0  0  0  0
  136.4279  140.2443  153.9941 H   0  0  0  0  0  0  0  0  0  0  0  0
  137.2447  141.7372  152.1420 H   0  0  0  0  0  0  0  0  0  0  0  0
  136.8380  143.1522  153.0940 H   0  0  0  0  0  0  0  0  0  0  0  0
  137.5813  139.5487  153.7862 H   0  0  0  0  0  0  0  0  0  0  0  0
  138.6678  139.6027  152.3967 H   0  0  0  0  0  0  0  0  0  0  0  0
  138.9802  138.1554  154.9889 H   0  0  0  0  0  0  0  0  0  0  0  0
  139.6101  137.6959  153.4183 H   0  0  0  0  0  0  0  0  0  0  0  0
  141.0490  138.8797  155.5234 H   0  0  0  0  0  0  0  0  0  0  0  0
  142.4386  139.5527  153.2205 H   0  0  0  0  0  0  0  0  0  0  0  0
  143.6418  138.3934  152.1798 H   0  0  0  0  0  0  0  0  0  0  0  0
  144.2730  132.1144  151.4062 H   0  0  0  0  0  0  0  0  0  0  0  0
  142.6525  132.7317  151.2588 H   0  0  0  0  0  0  0  0  0  0  0  0
  143.3209  131.5204  149.1921 H   0  0  0  0  0  0  0  0  0  0  0  0
  144.6928  132.6036  148.9715 H   0  0  0  0  0  0  0  0  0  0  0  0
  143.0473  133.2202  148.8215 H   0  0  0  0  0  0  0  0  0  0  0  0
  146.2816  134.1934  150.5364 H   0  0  0  0  0  0  0  0  0  0  0  0
  141.2860  141.2434  153.8816 H   0  0  0  0  0  0  0  0  0  0  0  0
  140.5901  141.1139  155.4943 H   0  0  0  0  0  0  0  0  0  0  0  0
  1  2  1  0  0  0  0
  1 21  1  0  0  0  0
  1 22  1  0  0  0  0
  1 23  1  0  0  0  0
  2  3  1  0  0  0  0
  2 24  1  0  0  0  0
  2 25  1  0  0  0  0
  3  4  2  0  0  0  0
  3  5  1  0  0  0  0
  5 20  1  0  0  0  0
  5  6  1  0  0  0  0
  6  7  1  0  0  0  0
  6 26  1  0  0  0  0
  6 27  1  0  0  0  0
  7  8  1  0  0  0  0
  7 28  1  0  0  0  0
  7 29  1  0  0  0  0
  8  9  1  0  0  0  0
  8 20  1  0  0  0  0
  8 30  1  0  0  0  0
  9 10  1  0  0  0  0
  9 31  1  0  0  0  0
 10 11  2  0  0  0  0
 10 12  1  0  0  0  0
 12 13  1  0  0  0  0
 12 32  1  0  0  0  0
 13 19  1  0  0  0  0
 13 14  2  0  0  0  0
 14 15  1  0  0  0  0
 15 16  1  0  0  0  0
 15 18  2  0  0  0  0
 16 17  1  0  0  0  0
 16 33  1  0  0  0  0
 16 34  1  0  0  0  0
 17 35  1  0  0  0  0
 17 36  1  0  0  0  0
 17 37  1  0  0  0  0
 18 19  1  0  0  0  0
 18 38  1  0  0  0  0
 20 39  1  0  0  0  0
 20 40  1  0  0  0  0
M  END
> <s_m_source_file>
AV-unprocessed.smi

> <i_m_source_file_index>
2906

> <i_lp_mmshare_version>
43012

> <i_f3d_flags>
0

> <s_epik_input>
W0NIM11bQ0gyXUMoPU8pTjFbQ0gyXVtDSDJdW0NASF0oW0NIMl0xKVtOSF1DKD1PKVtOSF1jMm5jKFtjSF1zMilbQ0gyXVtDSDNd

> <s_epik_cmdline>
J2VwaWtfcHl0aG9uJywgJy1waCcsICc3LjAnLCAnLXRuJywgJzgnLCAnLW1hJywgJzIwMCcsICctbWV0YWxfYmluZGluZycsICctaW1hZScsICc8aW5maWxlLm1hZT4nLCAnLW9tYWUnLCAnPG91dGZpbGUubWFlPic=

> <r_lp_tautomer_probability>
1

> <r_epik_Ionization_Penalty>
0.000174744

> <r_epik_Ionization_Penalty_Charging>
0

> <r_epik_Ionization_Penalty_Neutral>
0.000174744

> <r_epik_State_Penalty>
-0

> <r_epik_Charging_Adjusted_Penalty>
0

> <i_epik_Tot_Q>
0

> <i_epik_Tot_abs_Q>
0

> <r_epik_Metal_State_Penalty>
0.0273865

> <b_epik_Metal_Only>
0

> <s_lp_Force_Field>
OPLS_2005

> <r_lp_Energy>
22.1367

> <b_lp_Chiralities_Consistent>
1

> <s_lp_Variant>
AV-unprocessed.smi:2906-1

> <Gold.Version>
5.8.1

> <Gold.Id.Protein>
6NUR|6NUR_protein|mol2

> <Gold.PLP.Fitness>
43.4250

> <Gold.PLP.PLP>
-35.4220

> <Gold.PLP.part.hbond>
-4.0000

> <Gold.PLP.part.metal>
0.0000

> <Gold.PLP.part.buried>
-4.9517

> <Gold.PLP.part.nonpolar>
-26.2766

> <Gold.PLP.part.repulsive>
0.3844

> <Gold.PLP.ligand.clash>
0.0000

> <Gold.PLP.ligand.torsion>
0.2516

> <Gold.PLP.Chemscore.Hbond>
2.8334

> <Gold.PLP.Chemscore.CHOScore>
0.0000

> <Gold.PLP.Chemscore.Metal>
0.0000

> <Gold.Chemscore.Hbonds>
donor molecule, donor type, donor heavy atom, donor atom, acceptor molecule, acceptor atom, score
      L1  H     9    31       P1 10175  1.00
      L1  H    12    32       P1 10175  0.89
      P1  H 10162 10167       L1     4  0.83

> <Gold.PLP.Chemscore.Internal.Correction>
0.0060

> <Gold.Rescore>
     Score         DG    S(hbond)    S(metal)    S(lipo)     H(rot)  DE(clash)    DE(int)     intcor
     14.53     -17.59       2.22        0.00      70.94       1.41       0.32       2.74       ----

> <Gold.Chemscore.Fitness>
14.5336

> <Gold.Chemscore.DG>
-17.5853

> <Gold.Chemscore.ZeroCoef>
-5.4800

> <Gold.Chemscore.Hbond>
2.2203

> <Gold.Chemscore.Metal>
0.0000

> <Gold.Chemscore.Lipo>
70.9361

> <Gold.Chemscore.Internal_Hbond>
0.0000

> <Gold.Chemscore.DEClash>
0.3154

> <Gold.Chemscore.DEInternal>
2.7363

> <Gold.Chemscore.Rot>
1.4102

> <Gold.Chemscore.Internal.Correction>
   9.000000E+99

> <Gold.Chemscore.Hbonds>
donor molecule, donor type, donor heavy atom, donor atom, acceptor molecule, acceptor atom, score
      L1  H     9    31       P1 10175  0.98
      L1  H    12    32       P1 10175  0.82
      P1  H 10162 10167       L1     4  0.13

> <Gold.Chemscore.Hbond.Weighted>
-7.4158

> <Gold.Chemscore.Metal.Weighted>
-0.0000

> <Gold.Chemscore.Lipo.Weighted>
-8.2995

> <Gold.Chemscore.Internal_Hbond.Weighted>
0.0000

> <Gold.Chemscore.DEClash.Weighted>
0.3154

> <Gold.Chemscore.DEInternal.Weighted>
2.7363

> <Gold.Chemscore.Rot.Weighted>
3.6101

> <Gold.Chemscore.Internal.Correction.Weighted>
   9.000000E+99

> <Gold.Protein.RotatedTorsions>
[ 6907 6896 6895 6894 ] final  108.83 input  -60.11 | X-H torsion
[ 7974 7965 7964 7962 ] final   65.63 input  175.53 | X-H torsion
[ 8008 7997 7996 7995 ] final  154.08 input   59.86 | X-H torsion
[ 10167 10162 10161 10158 ] final -143.36 input  -65.29 | X-H torsion
[ 10718 10713 10712 10709 ] final  129.67 input   66.30 | X-H torsion
[ 10763 10752 10751 10750 ] final  -60.08 input  -60.55 | X-H torsion
[ 11005 11000 10999 10996 ] final   31.06 input  -57.11 | X-H torsion

> <Gold.Protein.ActiveResidues>
 VAL166  LYS551  ARG553  GLY616  TRP617  ASP618  TYR619  PRO620  LYS621  CYS622 
 ASP623  PHE694  ASN695  SER759  ASP760  ASP761  ALA762  ILE779  LEU786  VAL792 
 PHE793  MET794  SER795  GLU796  ALA797  LYS798  CYS799  TRP800  GLU811  SER814 

> <Gold.Protein.RotatedAtoms>
  152.5095  133.9032  159.7451 H   0  0  0  0  0  0  0  0  0  0  0  0  # atno 6907 bound_to 6896
  150.9443  133.6612  159.2791 H   0  0  0  0  0  0  0  0  0  0  0  0  # atno 6908 bound_to 6896
  151.3913  135.0961  159.9579 H   0  0  0  0  0  0  0  0  0  0  0  0  # atno 6909 bound_to 6896
  145.8361  139.3168  143.0959 H   0  0  0  0  0  0  0  0  0  0  0  0  # atno 7974 bound_to 7965
  156.2549  140.1976  156.6590 H   0  0  0  0  0  0  0  0  0  0  0  0  # atno 8008 bound_to 7997
  154.6479  140.0575  156.9947 H   0  0  0  0  0  0  0  0  0  0  0  0  # atno 8009 bound_to 7997
  155.1463  140.3247  155.4443 H   0  0  0  0  0  0  0  0  0  0  0  0  # atno 8010 bound_to 7997
  139.8000  143.7846  152.2657 H   0  0  0  0  0  0  0  0  0  0  0  0  # atno 10167 bound_to 10162
  157.5133  131.1097  150.9261 H   0  0  0  0  0  0  0  0  0  0  0  0  # atno 10718 bound_to 10713
  154.2636  135.6303  153.5284 H   0  0  0  0  0  0  0  0  0  0  0  0  # atno 10763 bound_to 10752
  152.9891  135.5593  154.5677 H   0  0  0  0  0  0  0  0  0  0  0  0  # atno 10764 bound_to 10752
  154.5231  135.2883  155.1220 H   0  0  0  0  0  0  0  0  0  0  0  0  # atno 10765 bound_to 10752
  140.2878  134.2898  155.7783 H   0  0  0  0  0  0  0  0  0  0  0  0  # atno 11005 bound_to 11000
  145.9517  140.8904  143.0256 LP  0  0  0  0  0  0  0  0  0  0  0  0  # atno 17320 bound_to 7965
  144.6736  140.1689  143.7416 LP  0  0  0  0  0  0  0  0  0  0  0  0  # atno 17321 bound_to 7965
  139.7963  144.7391  150.9885 LP  0  0  0  0  0  0  0  0  0  0  0  0  # atno 17342 bound_to 10162
  140.7820  143.4390  151.0580 LP  0  0  0  0  0  0  0  0  0  0  0  0  # atno 17343 bound_to 10162
  156.9895  130.5558  149.5302 LP  0  0  0  0  0  0  0  0  0  0  0  0  # atno 17370 bound_to 10713
  156.0303  130.5395  150.8517 LP  0  0  0  0  0  0  0  0  0  0  0  0  # atno 17371 bound_to 10713
  141.2151  133.7566  156.9579 LP  0  0  0  0  0  0  0  0  0  0  0  0  # atno 17394 bound_to 11000
  140.1223  134.9409  157.2221 LP  0  0  0  0  0  0  0  0  0  0  0  0  # atno 17395 bound_to 11000

$$$$
