AV-unprocessed.smi:2521|AV-procd|sdf|9916|dock6
  -GOLD-   2272013553D 1   1.00000     0.00000
 Structure written by MMmdl.
 36 37  0  0  0  0  0  0  0  0  1 V2000
  152.1568  140.5869  158.2149 C   0  0  0  0  0  0  0  0  0  0  0  0
  151.2526  141.0444  157.0610 C   0  0  0  0  0  0  0  0  0  0  0  0
  149.9472  141.6961  157.5404 C   0  0  0  0  0  0  0  0  0  0  0  0
  151.0067  139.9505  156.0692 C   0  0  0  0  0  0  0  0  0  0  0  0
  151.3414  140.0497  154.7754 N   0  0  0  0  0  0  0  0  0  0  0  0
  151.0139  138.9095  154.0557 N   0  0  0  0  0  0  0  0  0  0  0  0
  150.4383  137.9790  154.8290 C   0  0  0  0  0  0  0  0  0  0  0  0
  150.0007  136.7157  154.3507 N   0  0  0  0  0  0  0  0  0  0  0  0
  150.0576  135.5243  154.9714 C   0  0  0  0  0  0  0  0  0  0  0  0
  150.5119  135.3285  156.0989 O   0  0  0  0  0  0  0  0  0  0  0  0
  149.5447  134.5526  154.2032 N   0  0  0  0  0  0  0  0  0  0  0  0
  149.4382  133.1493  154.5885 C   0  0  0  0  0  0  0  0  0  0  0  0
  148.7769  132.2973  153.4886 C   0  0  1  0  0  0  0  0  0  0  0  0
  148.2912  130.9351  153.9442 C   0  0  0  0  0  0  0  0  0  0  0  0
  147.3053  130.5709  152.8392 C   0  0  0  0  0  0  0  0  0  0  0  0
  146.7430  131.8041  152.4006 O   0  0  0  0  0  0  0  0  0  0  0  0
  147.4884  132.8983  152.9278 C   0  0  0  0  0  0  0  0  0  0  0  0
  150.2476  138.4258  156.5154 S   0  0  0  0  0  0  0  0  0  0  0  0
  153.1092  140.2100  157.8407 H   0  0  0  0  0  0  0  0  0  0  0  0
  151.6885  139.7914  158.7954 H   0  0  0  0  0  0  0  0  0  0  0  0
  152.3724  141.4111  158.8954 H   0  0  0  0  0  0  0  0  0  0  0  0
  151.8040  141.8213  156.5303 H   0  0  0  0  0  0  0  0  0  0  0  0
  149.3709  142.0837  156.6998 H   0  0  0  0  0  0  0  0  0  0  0  0
  150.1486  142.5288  158.2148 H   0  0  0  0  0  0  0  0  0  0  0  0
  149.3197  140.9817  158.0743 H   0  0  0  0  0  0  0  0  0  0  0  0
  149.5929  136.7206  153.4276 H   0  0  0  0  0  0  0  0  0  0  0  0
  149.1946  134.8010  153.2895 H   0  0  0  0  0  0  0  0  0  0  0  0
  150.4429  132.7803  154.7963 H   0  0  0  0  0  0  0  0  0  0  0  0
  148.8796  133.0606  155.5217 H   0  0  0  0  0  0  0  0  0  0  0  0
  149.4766  132.1575  152.6626 H   0  0  0  0  0  0  0  0  0  0  0  0
  149.0943  130.2055  154.0517 H   0  0  0  0  0  0  0  0  0  0  0  0
  147.7701  131.0154  154.8994 H   0  0  0  0  0  0  0  0  0  0  0  0
  147.8289  130.1107  152.0002 H   0  0  0  0  0  0  0  0  0  0  0  0
  146.5350  129.8783  153.1791 H   0  0  0  0  0  0  0  0  0  0  0  0
  146.8992  133.3616  153.7204 H   0  0  0  0  0  0  0  0  0  0  0  0
  147.6794  133.6536  152.1651 H   0  0  0  0  0  0  0  0  0  0  0  0
  1  2  1  0  0  0  0
  1 19  1  0  0  0  0
  1 20  1  0  0  0  0
  1 21  1  0  0  0  0
  2  3  1  0  0  0  0
  2  4  1  0  0  0  0
  2 22  1  0  0  0  0
  3 23  1  0  0  0  0
  3 24  1  0  0  0  0
  3 25  1  0  0  0  0
  4 18  1  0  0  0  0
  4  5  2  0  0  0  0
  5  6  1  0  0  0  0
  6  7  2  0  0  0  0
  7  8  1  0  0  0  0
  7 18  1  0  0  0  0
  8  9  1  0  0  0  0
  8 26  1  0  0  0  0
  9 10  2  0  0  0  0
  9 11  1  0  0  0  0
 11 12  1  0  0  0  0
 11 27  1  0  0  0  0
 12 13  1  0  0  0  0
 12 28  1  0  0  0  0
 12 29  1  0  0  0  0
 13 17  1  0  0  0  0
 13 14  1  0  0  0  0
 13 30  1  0  0  0  0
 14 15  1  0  0  0  0
 14 31  1  0  0  0  0
 14 32  1  0  0  0  0
 15 16  1  0  0  0  0
 15 33  1  0  0  0  0
 15 34  1  0  0  0  0
 16 17  1  0  0  0  0
 17 35  1  0  0  0  0
 17 36  1  0  0  0  0
M  END
> <s_m_source_file>
AV-unprocessed.smi

> <i_m_source_file_index>
2521

> <i_lp_mmshare_version>
43012

> <i_f3d_flags>
0

> <s_epik_input>
W0NIM11bQ0hdKFtDSDNdKWMxbm5jKHMxKVtOSF1DKD1PKVtOSF1bQ0gyXVtDQEBIXTJbQ0gyXVtDSDJdT1tDSDJdMg==

> <s_epik_cmdline>
J2VwaWtfcHl0aG9uJywgJy1waCcsICc3LjAnLCAnLXRuJywgJzgnLCAnLW1hJywgJzIwMCcsICctbWV0YWxfYmluZGluZycsICctaW1hZScsICc8aW5maWxlLm1hZT4nLCAnLW9tYWUnLCAnPG91dGZpbGUubWFlPic=

> <r_lp_tautomer_probability>
1

> <r_epik_Ionization_Penalty>
0.000452582

> <r_epik_Ionization_Penalty_Charging>
0

> <r_epik_Ionization_Penalty_Neutral>
0.000452582

> <r_epik_State_Penalty>
-0

> <r_epik_Charging_Adjusted_Penalty>
0

> <i_epik_Tot_Q>
0

> <i_epik_Tot_abs_Q>
0

> <r_epik_Metal_State_Penalty>
0.207746

> <b_epik_Metal_Only>
0

> <s_lp_Force_Field>
OPLS_2005

> <r_lp_Energy>
10.682

> <b_lp_Chiralities_Consistent>
1

> <s_lp_Variant>
AV-unprocessed.smi:2521-2

> <Gold.Version>
5.8.1

> <Gold.Id.Protein>
6NUR|6NUR_protein|mol2

> <Gold.PLP.Fitness>
32.8717

> <Gold.PLP.PLP>
-26.0972

> <Gold.PLP.part.hbond>
-4.1822

> <Gold.PLP.part.metal>
0.0000

> <Gold.PLP.part.buried>
-3.0771

> <Gold.PLP.part.nonpolar>
-20.1199

> <Gold.PLP.part.repulsive>
0.4964

> <Gold.PLP.ligand.clash>
0.0000

> <Gold.PLP.ligand.torsion>
0.4493

> <Gold.PLP.Chemscore.Hbond>
2.5308

> <Gold.PLP.Chemscore.CHOScore>
0.0000

> <Gold.PLP.Chemscore.Metal>
0.0000

> <Gold.Chemscore.Hbonds>
donor molecule, donor type, donor heavy atom, donor atom, acceptor molecule, acceptor atom, score
      L1  H     8    26       P1  7948  1.00
      L1  H    11    27       P1  7948  0.63
      P1  H  7989  7998       L1     5  0.65

> <Gold.PLP.Chemscore.Internal.Correction>
0.0807

> <Gold.Rescore>
     Score         DG    S(hbond)    S(metal)    S(lipo)     H(rot)  DE(clash)    DE(int)     intcor
     12.75     -13.17       1.58        0.00      52.27       1.45       0.01       0.41       ----

> <Gold.Chemscore.Fitness>
12.7478

> <Gold.Chemscore.DG>
-13.1675

> <Gold.Chemscore.ZeroCoef>
-5.4800

> <Gold.Chemscore.Hbond>
1.5790

> <Gold.Chemscore.Metal>
0.0000

> <Gold.Chemscore.Lipo>
52.2690

> <Gold.Chemscore.Internal_Hbond>
0.0000

> <Gold.Chemscore.DEClash>
0.0106

> <Gold.Chemscore.DEInternal>
0.4091

> <Gold.Chemscore.Rot>
1.4461

> <Gold.Chemscore.Internal.Correction>
   9.000000E+99

> <Gold.Chemscore.Hbonds>
donor molecule, donor type, donor heavy atom, donor atom, acceptor molecule, acceptor atom, score
      L1  H     8    26       P1  7948  0.65
      L1  H    11    27       P1  7948  0.05
      P1  H  7989  7998       L1     5  0.05

> <Gold.Chemscore.Hbond.Weighted>
-5.2739

> <Gold.Chemscore.Metal.Weighted>
-0.0000

> <Gold.Chemscore.Lipo.Weighted>
-6.1155

> <Gold.Chemscore.Internal_Hbond.Weighted>
0.0000

> <Gold.Chemscore.DEClash.Weighted>
0.0106

> <Gold.Chemscore.DEInternal.Weighted>
0.4091

> <Gold.Chemscore.Rot.Weighted>
3.7019

> <Gold.Chemscore.Internal.Correction.Weighted>
   9.000000E+99

> <Gold.Protein.RotatedTorsions>
[ 6907 6896 6895 6894 ] final  -57.87 input  -60.11 | X-H torsion
[ 7974 7965 7964 7962 ] final    0.47 input  175.53 | X-H torsion
[ 8008 7997 7996 7995 ] final  179.33 input   59.86 | X-H torsion
[ 10167 10162 10161 10158 ] final   -4.97 input  -65.29 | X-H torsion
[ 10718 10713 10712 10709 ] final   -9.94 input   66.30 | X-H torsion
[ 10763 10752 10751 10750 ] final  133.50 input  -60.55 | X-H torsion
[ 11005 11000 10999 10996 ] final -163.80 input  -57.11 | X-H torsion

> <Gold.Protein.ActiveResidues>
 VAL166  LYS551  ARG553  GLY616  TRP617  ASP618  TYR619  PRO620  LYS621  CYS622 
 ASP623  PHE694  ASN695  SER759  ASP760  ASP761  ALA762  ILE779  LEU786  VAL792 
 PHE793  MET794  SER795  GLU796  ALA797  LYS798  CYS799  TRP800  GLU811  SER814 

> <Gold.Protein.RotatedAtoms>
  150.8051  134.7171  159.6636 H   0  0  0  0  0  0  0  0  0  0  0  0  # atno 6907 bound_to 6896
  152.4170  134.6020  160.0012 H   0  0  0  0  0  0  0  0  0  0  0  0  # atno 6908 bound_to 6896
  151.6246  133.3299  159.3131 H   0  0  0  0  0  0  0  0  0  0  0  0  # atno 6909 bound_to 6896
  146.2434  140.1133  142.8343 H   0  0  0  0  0  0  0  0  0  0  0  0  # atno 7974 bound_to 7965
  156.0446  140.1311  157.0118 H   0  0  0  0  0  0  0  0  0  0  0  0  # atno 8008 bound_to 7997
  154.4406  140.1023  156.6357 H   0  0  0  0  0  0  0  0  0  0  0  0  # atno 8009 bound_to 7997
  155.5616  140.3465  155.4495 H   0  0  0  0  0  0  0  0  0  0  0  0  # atno 8010 bound_to 7997
  140.6947  143.6362  150.8477 H   0  0  0  0  0  0  0  0  0  0  0  0  # atno 10167 bound_to 10162
  156.6807  130.5036  149.5972 H   0  0  0  0  0  0  0  0  0  0  0  0  # atno 10718 bound_to 10713
  153.8082  135.3132  155.3398 H   0  0  0  0  0  0  0  0  0  0  0  0  # atno 10763 bound_to 10752
  154.8062  135.4696  154.0401 H   0  0  0  0  0  0  0  0  0  0  0  0  # atno 10764 bound_to 10752
  153.1771  135.6887  153.8617 H   0  0  0  0  0  0  0  0  0  0  0  0  # atno 10765 bound_to 10752
  140.5941  134.5015  157.5197 H   0  0  0  0  0  0  0  0  0  0  0  0  # atno 11005 bound_to 11000
  145.0468  140.8988  143.5019 LP  0  0  0  0  0  0  0  0  0  0  0  0  # atno 17320 bound_to 7965
  145.1224  139.2685  143.5582 LP  0  0  0  0  0  0  0  0  0  0  0  0  # atno 17321 bound_to 7965
  140.0078  143.5675  152.2851 LP  0  0  0  0  0  0  0  0  0  0  0  0  # atno 17342 bound_to 10162
  139.6387  144.7652  151.2383 LP  0  0  0  0  0  0  0  0  0  0  0  0  # atno 17343 bound_to 10162
  156.1870  130.6535  151.1017 LP  0  0  0  0  0  0  0  0  0  0  0  0  # atno 17370 bound_to 10713
  157.7045  131.0762  150.6714 LP  0  0  0  0  0  0  0  0  0  0  0  0  # atno 17371 bound_to 10713
  139.9261  134.8053  156.1064 LP  0  0  0  0  0  0  0  0  0  0  0  0  # atno 17394 bound_to 11000
  141.0916  133.6712  156.2552 LP  0  0  0  0  0  0  0  0  0  0  0  0  # atno 17395 bound_to 11000

$$$$
