AV-unprocessed.smi:2083|AV-procd|sdf|8499|dock1
  -GOLD-   2272011203D 1   1.00000     0.00000
 Structure written by MMmdl.
 44 45  0  0  0  0  0  0  0  0  3 V2000
  147.2831  134.7081  162.3410 C   0  0  0  0  0  0  0  0  0  0  0  0
  147.7973  135.0063  160.9744 C   0  0  0  0  0  0  0  0  0  0  0  0
  148.4946  136.0599  160.4546 C   0  0  0  0  0  0  0  0  0  0  0  0
  148.6501  135.7034  159.0872 C   0  0  0  0  0  0  0  0  0  0  0  0
  149.2857  136.4241  158.1506 N   0  5  0  0  0  0  0  0  0  0  0  0
  150.3517  137.1856  158.4853 C   0  0  0  0  0  0  0  0  0  0  0  0
  151.2493  136.8834  159.2752 O   0  0  0  0  0  0  0  0  0  0  0  0
  150.3839  138.3711  157.8600 N   0  0  0  0  0  0  0  0  0  0  0  0
  151.4223  139.3860  158.0112 C   0  0  0  0  0  0  0  0  0  0  0  0
  151.0145  140.7610  157.4108 C   0  0  1  0  0  0  0  0  0  0  0  0
  149.4872  140.9647  157.5313 C   0  0  0  0  0  0  0  0  0  0  0  0
  151.7326  141.9343  158.0097 N   0  3  1  0  0  0  0  0  0  0  0  0
  151.2837  143.2805  157.5481 C   0  0  0  0  0  0  0  0  0  0  0  0
  152.1639  144.4013  158.1262 C   0  0  0  0  0  0  0  0  0  0  0  0
  152.2080  144.3445  159.6556 C   0  0  0  0  0  0  0  0  0  0  0  0
  152.6668  142.9523  160.1124 C   0  0  1  0  0  0  0  0  0  0  0  0
  152.7087  142.8515  161.6437 C   0  0  0  0  0  0  0  0  0  0  0  0
  151.7557  141.8708  159.5001 C   0  0  0  0  0  0  0  0  0  0  0  0
  148.1108  134.5291  158.8062 N   0  0  0  0  0  0  0  0  0  0  0  0
  147.5569  134.0778  160.0102 O   0  0  0  0  0  0  0  0  0  0  0  0
  148.1070  134.5229  163.0300 H   0  0  0  0  0  0  0  0  0  0  0  0
  146.6416  133.8265  162.3365 H   0  0  0  0  0  0  0  0  0  0  0  0
  146.7012  135.5460  162.7250 H   0  0  0  0  0  0  0  0  0  0  0  0
  148.8352  136.9461  160.9684 H   0  0  0  0  0  0  0  0  0  0  0  0
  149.6260  138.5804  157.2265 H   0  0  0  0  0  0  0  0  0  0  0  0
  151.6341  139.4876  159.0761 H   0  0  0  0  0  0  0  0  0  0  0  0
  152.3278  138.9961  157.5446 H   0  0  0  0  0  0  0  0  0  0  0  0
  151.2713  140.7332  156.3506 H   0  0  0  0  0  0  0  0  0  0  0  0
  148.9332  140.1655  157.0386 H   0  0  0  0  0  0  0  0  0  0  0  0
  149.1489  141.8920  157.0726 H   0  0  0  0  0  0  0  0  0  0  0  0
  149.1763  140.9834  158.5763 H   0  0  0  0  0  0  0  0  0  0  0  0
  151.3481  143.3610  156.4638 H   0  0  0  0  0  0  0  0  0  0  0  0
  150.2399  143.4348  157.8269 H   0  0  0  0  0  0  0  0  0  0  0  0
  153.1756  144.3135  157.7278 H   0  0  0  0  0  0  0  0  0  0  0  0
  151.7889  145.3726  157.8021 H   0  0  0  0  0  0  0  0  0  0  0  0
  152.8824  145.1122  160.0366 H   0  0  0  0  0  0  0  0  0  0  0  0
  151.2194  144.5655  160.0610 H   0  0  0  0  0  0  0  0  0  0  0  0
  153.6813  142.7893  159.7450 H   0  0  0  0  0  0  0  0  0  0  0  0
  151.7202  143.0019  162.0790 H   0  0  0  0  0  0  0  0  0  0  0  0
  153.3766  143.6014  162.0685 H   0  0  0  0  0  0  0  0  0  0  0  0
  153.0680  141.8731  161.9640 H   0  0  0  0  0  0  0  0  0  0  0  0
  150.7382  141.9808  159.8799 H   0  0  0  0  0  0  0  0  0  0  0  0
  152.1042  140.8955  159.8358 H   0  0  0  0  0  0  0  0  0  0  0  0
  152.6903  141.8528  157.7002 H   0  0  0  0  0  0  0  0  0  0  0  0
  1  2  1  0  0  0  0
  1 21  1  0  0  0  0
  1 22  1  0  0  0  0
  1 23  1  0  0  0  0
  2 20  1  0  0  0  0
  2  3  2  0  0  0  0
  3  4  1  0  0  0  0
  3 24  1  0  0  0  0
  4  5  1  0  0  0  0
  4 19  2  0  0  0  0
  5  6  1  0  0  0  0
  6  7  2  0  0  0  0
  6  8  1  0  0  0  0
  8  9  1  0  0  0  0
  8 25  1  0  0  0  0
  9 10  1  0  0  0  0
  9 26  1  0  0  0  0
  9 27  1  0  0  0  0
 10 11  1  0  0  0  0
 10 12  1  0  0  0  0
 10 28  1  0  0  0  0
 11 29  1  0  0  0  0
 11 30  1  0  0  0  0
 11 31  1  0  0  0  0
 12 18  1  0  0  0  0
 12 13  1  0  0  0  0
 12 44  1  0  0  0  0
 13 14  1  0  0  0  0
 13 32  1  0  0  0  0
 13 33  1  0  0  0  0
 14 15  1  0  0  0  0
 14 34  1  0  0  0  0
 14 35  1  0  0  0  0
 15 16  1  0  0  0  0
 15 36  1  0  0  0  0
 15 37  1  0  0  0  0
 16 17  1  0  0  0  0
 16 18  1  0  0  0  0
 16 38  1  0  0  0  0
 17 39  1  0  0  0  0
 17 40  1  0  0  0  0
 17 41  1  0  0  0  0
 18 42  1  0  0  0  0
 18 43  1  0  0  0  0
 19 20  1  0  0  0  0
M  CHG  1   5  -1
M  CHG  1  12   1
M  END
> <s_m_source_file>
AV-unprocessed.smi

> <i_m_source_file_index>
2083

> <i_lp_mmshare_version>
43012

> <i_f3d_flags>
0

> <s_epik_input>
W0NIM11jMVtjSF1jKG5vMSlbTkhdQyg9TylbTkhdW0NIMl1bQ0BIXShbQ0gzXSlOMltDSDJdW0NIMl1bQ0gyXVtDQEBIXShbQ0gzXSlbQ0gyXTI=

> <s_epik_cmdline>
J2VwaWtfcHl0aG9uJywgJy1waCcsICc3LjAnLCAnLXRuJywgJzgnLCAnLW1hJywgJzIwMCcsICctbWV0YWxfYmluZGluZycsICctaW1hZScsICc8aW5maWxlLm1hZT4nLCAnLW9tYWUnLCAnPG91dGZpbGUubWFlPic=

> <r_epik_Ionization_Penalty>
6.22434

> <r_epik_Ionization_Penalty_Charging>
6.22425

> <r_epik_Ionization_Penalty_Neutral>
9.62407e-05

> <r_epik_State_Penalty>
6.22423

> <r_epik_Charging_Adjusted_Penalty>
12.4485

> <i_epik_Tot_Q>
0

> <i_epik_Tot_abs_Q>
2

> <r_epik_Metal_State_Penalty>
2.16764

> <b_epik_Metal_Only>
1

> <s_lp_Force_Field>
OPLS_2005

> <r_lp_Energy>
9.18004

> <b_lp_Chiralities_Consistent>
1

> <s_lp_Variant>
AV-unprocessed.smi:2083-10

> <Gold.Version>
5.8.1

> <Gold.Id.Protein>
6NUR|6NUR_protein|mol2

> <Gold.PLP.Fitness>
42.8553

> <Gold.PLP.PLP>
-41.7506

> <Gold.PLP.part.hbond>
-1.0000

> <Gold.PLP.part.metal>
0.0000

> <Gold.PLP.part.buried>
-6.2048

> <Gold.PLP.part.nonpolar>
-35.1199

> <Gold.PLP.part.repulsive>
0.1573

> <Gold.PLP.ligand.clash>
0.0000

> <Gold.PLP.ligand.torsion>
1.0615

> <Gold.PLP.Chemscore.Hbond>
1.0000

> <Gold.PLP.Chemscore.CHOScore>
0.0000

> <Gold.PLP.Chemscore.Metal>
0.0000

> <Gold.Chemscore.Hbonds>
donor molecule, donor type, donor heavy atom, donor atom, acceptor molecule, acceptor atom, score
      P1  H  6896  6909       L1     7  1.00

> <Gold.PLP.Chemscore.Internal.Correction>
0.2278

> <Gold.Rescore>
     Score         DG    S(hbond)    S(metal)    S(lipo)     H(rot)  DE(clash)    DE(int)     intcor
     16.76     -17.73       0.99        0.00     109.59       1.52       0.04       0.94       ----

> <Gold.Chemscore.Fitness>
16.7562

> <Gold.Chemscore.DG>
-17.7314

> <Gold.Chemscore.ZeroCoef>
-5.4800

> <Gold.Chemscore.Hbond>
0.9933

> <Gold.Chemscore.Metal>
0.0000

> <Gold.Chemscore.Lipo>
109.5948

> <Gold.Chemscore.Internal_Hbond>
0.0000

> <Gold.Chemscore.DEClash>
0.0363

> <Gold.Chemscore.DEInternal>
0.9389

> <Gold.Chemscore.Rot>
1.5190

> <Gold.Chemscore.Internal.Correction>
   9.000000E+99

> <Gold.Chemscore.Hbonds>
donor molecule, donor type, donor heavy atom, donor atom, acceptor molecule, acceptor atom, score
      P1  H  6896  6909       L1     7  0.98

> <Gold.Chemscore.Hbond.Weighted>
-3.3175

> <Gold.Chemscore.Metal.Weighted>
-0.0000

> <Gold.Chemscore.Lipo.Weighted>
-12.8226

> <Gold.Chemscore.Internal_Hbond.Weighted>
0.0000

> <Gold.Chemscore.DEClash.Weighted>
0.0363

> <Gold.Chemscore.DEInternal.Weighted>
0.9389

> <Gold.Chemscore.Rot.Weighted>
3.8886

> <Gold.Chemscore.Internal.Correction.Weighted>
   9.000000E+99

> <Gold.Protein.RotatedTorsions>
[ 6907 6896 6895 6894 ] final  111.70 input  -60.11 | X-H torsion
[ 7974 7965 7964 7962 ] final  -14.52 input  175.53 | X-H torsion
[ 8008 7997 7996 7995 ] final   29.10 input   59.86 | X-H torsion
[ 10167 10162 10161 10158 ] final  104.93 input  -65.29 | X-H torsion
[ 10718 10713 10712 10709 ] final   51.13 input   66.30 | X-H torsion
[ 10763 10752 10751 10750 ] final  -94.87 input  -60.55 | X-H torsion
[ 11005 11000 10999 10996 ] final  -39.10 input  -57.11 | X-H torsion

> <Gold.Protein.ActiveResidues>
 VAL166  LYS551  ARG553  GLY616  TRP617  ASP618  TYR619  PRO620  LYS621  CYS622 
 ASP623  PHE694  ASN695  SER759  ASP760  ASP761  ALA762  ILE779  LEU786  VAL792 
 PHE793  MET794  SER795  GLU796  ALA797  LYS798  CYS799  TRP800  GLU811  SER814 

> <Gold.Protein.RotatedAtoms>
  152.4956  133.8621  159.7255 H   0  0  0  0  0  0  0  0  0  0  0  0  # atno 6907 bound_to 6896
  150.9130  133.6965  159.2857 H   0  0  0  0  0  0  0  0  0  0  0  0  # atno 6908 bound_to 6896
  151.4368  135.1020  159.9711 H   0  0  0  0  0  0  0  0  0  0  0  0  # atno 6909 bound_to 6896
  146.2071  140.3360  142.8403 H   0  0  0  0  0  0  0  0  0  0  0  0  # atno 7974 bound_to 7965
  155.0691  140.3198  155.4636 H   0  0  0  0  0  0  0  0  0  0  0  0  # atno 8008 bound_to 7997
  156.2795  140.2115  156.5764 H   0  0  0  0  0  0  0  0  0  0  0  0  # atno 8009 bound_to 7997
  154.7069  140.0502  157.0500 H   0  0  0  0  0  0  0  0  0  0  0  0  # atno 8010 bound_to 7997
  139.7135  144.7073  151.0988 H   0  0  0  0  0  0  0  0  0  0  0  0  # atno 10167 bound_to 10162
  157.4951  130.8401  149.8249 H   0  0  0  0  0  0  0  0  0  0  0  0  # atno 10718 bound_to 10713
  154.7095  135.5142  153.8645 H   0  0  0  0  0  0  0  0  0  0  0  0  # atno 10763 bound_to 10752
  153.0769  135.6619  154.0136 H   0  0  0  0  0  0  0  0  0  0  0  0  # atno 10764 bound_to 10752
  153.9980  135.3013  155.3385 H   0  0  0  0  0  0  0  0  0  0  0  0  # atno 10765 bound_to 10752
  141.0077  133.6923  156.2141 H   0  0  0  0  0  0  0  0  0  0  0  0  # atno 11005 bound_to 11000
  144.8818  140.7411  143.5981 LP  0  0  0  0  0  0  0  0  0  0  0  0  # atno 17320 bound_to 7965
  145.3281  139.1768  143.4552 LP  0  0  0  0  0  0  0  0  0  0  0  0  # atno 17321 bound_to 7965
  140.7738  143.5261  150.9479 LP  0  0  0  0  0  0  0  0  0  0  0  0  # atno 17342 bound_to 10162
  139.8946  143.6911  152.3140 LP  0  0  0  0  0  0  0  0  0  0  0  0  # atno 17343 bound_to 10162
  156.0196  130.3800  150.2003 LP  0  0  0  0  0  0  0  0  0  0  0  0  # atno 17370 bound_to 10713
  157.0192  130.9974  151.3344 LP  0  0  0  0  0  0  0  0  0  0  0  0  # atno 17371 bound_to 10713
  140.6786  134.4792  157.5588 LP  0  0  0  0  0  0  0  0  0  0  0  0  # atno 17394 bound_to 11000
  139.9072  134.8423  156.1661 LP  0  0  0  0  0  0  0  0  0  0  0  0  # atno 17395 bound_to 11000

$$$$
