AV-unprocessed.smi:638|AV-procd|sdf|3143|dock9
  -GOLD-   22720 0 73D 1   1.00000     0.00000
 Structure written by MMmdl.
 41 42  0  0  0  0  0  0  0  0  3 V2000
  151.0149  140.5113  155.1036 N   0  0  0  0  0  0  0  0  0  0  0  0
  150.9907  141.2594  155.9862 C   0  0  0  0  0  0  0  0  0  0  0  0
  150.9584  142.2137  157.1122 C   0  0  0  0  0  0  0  0  0  0  0  0
  149.5969  142.7301  157.2951 N   0  0  0  0  0  0  0  0  0  0  0  0
  148.5738  142.1190  157.9145 C   0  0  0  0  0  0  0  0  0  0  0  0
  148.6624  141.0069  158.4349 O   0  0  0  0  0  0  0  0  0  0  0  0
  147.2583  142.9072  157.9729 C   0  0  0  0  0  0  0  0  0  0  0  0
  146.8944  143.3156  159.3398 N   0  0  0  0  0  0  0  0  0  0  0  0
  145.6596  142.8563  159.8390 C   0  0  0  0  0  0  0  0  0  0  0  0
  145.2219  143.1787  161.0719 C   0  0  0  0  0  0  0  0  0  0  0  0
  143.9471  142.7058  161.5654 N   0  3  0  0  0  0  0  0  0  0  0  0
  143.3098  141.9112  160.8818 O   0  0  0  0  0  0  0  0  0  0  0  0
  143.5406  143.1121  162.6500 O   0  5  0  0  0  0  0  0  0  0  0  0
  146.0711  144.0234  161.8894 C   0  0  0  0  0  0  0  0  0  0  0  0
  147.2514  144.4688  161.4161 C   0  0  0  0  0  0  0  0  0  0  0  0
  147.7228  144.1216  160.0717 C   0  0  0  0  0  0  0  0  0  0  0  0
  148.7970  144.5301  159.6300 O   0  0  0  0  0  0  0  0  0  0  0  0
  151.4678  141.4876  158.3885 C   0  0  0  0  0  0  0  0  0  0  0  0
  151.3287  142.2735  159.7091 C   0  0  0  0  0  0  0  0  0  0  0  0
  152.4925  143.2215  160.0462 C   0  0  0  0  0  0  0  0  0  0  0  0
  153.0895  144.0289  158.8807 C   0  0  0  0  0  0  0  0  0  0  0  0
  152.0924  144.4749  157.7998 C   0  0  0  0  0  0  0  0  0  0  0  0
  151.8669  143.3993  156.7195 C   0  0  0  0  0  0  0  0  0  0  0  0
  149.4185  143.6446  156.9065 H   0  0  0  0  0  0  0  0  0  0  0  0
  147.3580  143.7794  157.3257 H   0  0  0  0  0  0  0  0  0  0  0  0
  146.4551  142.3152  157.5297 H   0  0  0  0  0  0  0  0  0  0  0  0
  145.0990  142.2404  159.1505 H   0  0  0  0  0  0  0  0  0  0  0  0
  145.7665  144.3061  162.8863 H   0  0  0  0  0  0  0  0  0  0  0  0
  147.8679  145.0978  162.0416 H   0  0  0  0  0  0  0  0  0  0  0  0
  150.9034  140.5610  158.4990 H   0  0  0  0  0  0  0  0  0  0  0  0
  152.5025  141.1699  158.2538 H   0  0  0  0  0  0  0  0  0  0  0  0
  150.3918  142.8288  159.7318 H   0  0  0  0  0  0  0  0  0  0  0  0
  151.2434  141.5584  160.5279 H   0  0  0  0  0  0  0  0  0  0  0  0
  152.1498  143.9119  160.8177 H   0  0  0  0  0  0  0  0  0  0  0  0
  153.2974  142.6484  160.5078 H   0  0  0  0  0  0  0  0  0  0  0  0
  153.5758  144.9106  159.2997 H   0  0  0  0  0  0  0  0  0  0  0  0
  153.8932  143.4562  158.4163 H   0  0  0  0  0  0  0  0  0  0  0  0
  151.1535  144.8107  158.2411 H   0  0  0  0  0  0  0  0  0  0  0  0
  152.5131  145.3500  157.3036 H   0  0  0  0  0  0  0  0  0  0  0  0
  152.8344  143.0212  156.3859 H   0  0  0  0  0  0  0  0  0  0  0  0
  151.4371  143.8840  155.8413 H   0  0  0  0  0  0  0  0  0  0  0  0
  1  2  3  0  0  0  0
  2  3  1  0  0  0  0
  3 23  1  0  0  0  0
  3  4  1  0  0  0  0
  3 18  1  0  0  0  0
  4  5  1  0  0  0  0
  4 24  1  0  0  0  0
  5  6  2  0  0  0  0
  5  7  1  0  0  0  0
  7  8  1  0  0  0  0
  7 25  1  0  0  0  0
  7 26  1  0  0  0  0
  8 16  1  0  0  0  0
  8  9  1  0  0  0  0
  9 10  2  0  0  0  0
  9 27  1  0  0  0  0
 10 11  1  0  0  0  0
 10 14  1  0  0  0  0
 11 12  2  0  0  0  0
 11 13  1  0  0  0  0
 14 15  2  0  0  0  0
 14 28  1  0  0  0  0
 15 16  1  0  0  0  0
 15 29  1  0  0  0  0
 16 17  2  0  0  0  0
 18 19  1  0  0  0  0
 18 30  1  0  0  0  0
 18 31  1  0  0  0  0
 19 20  1  0  0  0  0
 19 32  1  0  0  0  0
 19 33  1  0  0  0  0
 20 21  1  0  0  0  0
 20 34  1  0  0  0  0
 20 35  1  0  0  0  0
 21 22  1  0  0  0  0
 21 36  1  0  0  0  0
 21 37  1  0  0  0  0
 22 23  1  0  0  0  0
 22 38  1  0  0  0  0
 22 39  1  0  0  0  0
 23 40  1  0  0  0  0
 23 41  1  0  0  0  0
M  CHG  1  11   1
M  CHG  1  13  -1
M  END
> <s_m_source_file>
AV-unprocessed.smi

> <i_m_source_file_index>
638

> <i_lp_mmshare_version>
43012

> <i_f3d_flags>
0

> <s_epik_input>
W0NIMl0xW0NIMl1bQ0gyXVtDSDJdW0NIMl1bQ0gyXUMxKEMjTilbTkhdQyg9TylbQ0gyXW4yW2NIXWMoW04rXSg9TylbTy1dKVtjSF1bY0hdYzI9Tw==

> <s_epik_cmdline>
J2VwaWtfcHl0aG9uJywgJy1waCcsICc3LjAnLCAnLXRuJywgJzgnLCAnLW1hJywgJzIwMCcsICctbWV0YWxfYmluZGluZycsICctaW1hZScsICc8aW5maWxlLm1hZT4nLCAnLW9tYWUnLCAnPG91dGZpbGUubWFlPic=

> <r_lp_tautomer_probability>
1

> <r_epik_Ionization_Penalty>
4.51205e-07

> <r_epik_Ionization_Penalty_Charging>
6.24361e-11

> <r_epik_Ionization_Penalty_Neutral>
4.51142e-07

> <r_epik_State_Penalty>
-0

> <r_epik_Charging_Adjusted_Penalty>
6.24361e-11

> <i_epik_Tot_Q>
0

> <i_epik_Tot_abs_Q>
2

> <r_epik_Metal_State_Penalty>
-0

> <b_epik_Metal_Only>
0

> <s_lp_Force_Field>
OPLS_2005

> <r_lp_Energy>
29.2466

> <b_lp_Chiralities_Consistent>
1

> <s_lp_Variant>
AV-unprocessed.smi:638-1

> <Gold.Version>
5.8.1

> <Gold.Id.Protein>
6NUR|6NUR_protein|mol2

> <Gold.PLP.Fitness>
45.7309

> <Gold.PLP.PLP>
-40.5950

> <Gold.PLP.part.hbond>
-4.0547

> <Gold.PLP.part.metal>
0.0000

> <Gold.PLP.part.buried>
-5.6272

> <Gold.PLP.part.nonpolar>
-31.0263

> <Gold.PLP.part.repulsive>
2.0545

> <Gold.PLP.ligand.clash>
0.0000

> <Gold.PLP.ligand.torsion>
0.4373

> <Gold.PLP.Chemscore.Hbond>
2.0000

> <Gold.PLP.Chemscore.CHOScore>
0.0000

> <Gold.PLP.Chemscore.Metal>
0.0000

> <Gold.Chemscore.Hbonds>
donor molecule, donor type, donor heavy atom, donor atom, acceptor molecule, acceptor atom, score
      L1  H     4    24       P1  8028  1.00
      P1  H  7989  7998       L1     1  0.99

> <Gold.PLP.Chemscore.Internal.Correction>
0.0105

> <Gold.Rescore>
     Score         DG    S(hbond)    S(metal)    S(lipo)     H(rot)  DE(clash)    DE(int)     intcor
     13.96     -18.83       1.87        0.00      96.49       1.63       2.07       2.80       ----

> <Gold.Chemscore.Fitness>
13.9622

> <Gold.Chemscore.DG>
-18.8306

> <Gold.Chemscore.ZeroCoef>
-5.4800

> <Gold.Chemscore.Hbond>
1.8654

> <Gold.Chemscore.Metal>
0.0000

> <Gold.Chemscore.Lipo>
96.4924

> <Gold.Chemscore.Internal_Hbond>
0.0000

> <Gold.Chemscore.DEClash>
2.0682

> <Gold.Chemscore.DEInternal>
2.8001

> <Gold.Chemscore.Rot>
1.6287

> <Gold.Chemscore.Internal.Correction>
   9.000000E+99

> <Gold.Chemscore.Hbonds>
donor molecule, donor type, donor heavy atom, donor atom, acceptor molecule, acceptor atom, score
      L1  H     4    24       P1  8028  0.89
      P1  H  7989  7998       L1     1  0.94

> <Gold.Chemscore.Hbond.Weighted>
-6.2304

> <Gold.Chemscore.Metal.Weighted>
-0.0000

> <Gold.Chemscore.Lipo.Weighted>
-11.2896

> <Gold.Chemscore.Internal_Hbond.Weighted>
0.0000

> <Gold.Chemscore.DEClash.Weighted>
2.0682

> <Gold.Chemscore.DEInternal.Weighted>
2.8001

> <Gold.Chemscore.Rot.Weighted>
4.1694

> <Gold.Chemscore.Internal.Correction.Weighted>
   9.000000E+99

> <Gold.Protein.RotatedTorsions>
[ 6907 6896 6895 6894 ] final  174.95 input  -60.11 | X-H torsion
[ 7974 7965 7964 7962 ] final  139.51 input  175.53 | X-H torsion
[ 8008 7997 7996 7995 ] final   96.85 input   59.86 | X-H torsion
[ 10167 10162 10161 10158 ] final -172.71 input  -65.29 | X-H torsion
[ 10718 10713 10712 10709 ] final   72.64 input   66.30 | X-H torsion
[ 10763 10752 10751 10750 ] final  156.91 input  -60.55 | X-H torsion
[ 11005 11000 10999 10996 ] final -106.12 input  -57.11 | X-H torsion

> <Gold.Protein.ActiveResidues>
 VAL166  LYS551  ARG553  GLY616  TRP617  ASP618  TYR619  PRO620  LYS621  CYS622 
 ASP623  PHE694  ASN695  SER759  ASP760  ASP761  ALA762  ILE779  LEU786  VAL792 
 PHE793  MET794  SER795  GLU796  ALA797  LYS798  CYS799  TRP800  GLU811  SER814 

> <Gold.Protein.RotatedAtoms>
  151.7441  133.3323  159.3373 H   0  0  0  0  0  0  0  0  0  0  0  0  # atno 6907 bound_to 6896
  150.7561  134.6251  159.6166 H   0  0  0  0  0  0  0  0  0  0  0  0  # atno 6908 bound_to 6896
  152.3511  134.7006  160.0287 H   0  0  0  0  0  0  0  0  0  0  0  0  # atno 6909 bound_to 6896
  144.9272  139.5093  143.5635 H   0  0  0  0  0  0  0  0  0  0  0  0  # atno 7974 bound_to 7965
  156.0840  140.3266  155.7730 H   0  0  0  0  0  0  0  0  0  0  0  0  # atno 8008 bound_to 7997
  155.5106  140.0577  157.2941 H   0  0  0  0  0  0  0  0  0  0  0  0  # atno 8009 bound_to 7997
  154.4598  140.1961  156.0292 H   0  0  0  0  0  0  0  0  0  0  0  0  # atno 8010 bound_to 7997
  139.5729  144.1599  152.1410 H   0  0  0  0  0  0  0  0  0  0  0  0  # atno 10167 bound_to 10162
  157.6510  130.9589  150.0957 H   0  0  0  0  0  0  0  0  0  0  0  0  # atno 10718 bound_to 10713
  154.1919  135.2794  155.3019 H   0  0  0  0  0  0  0  0  0  0  0  0  # atno 10763 bound_to 10752
  154.5922  135.5556  153.7293 H   0  0  0  0  0  0  0  0  0  0  0  0  # atno 10764 bound_to 10752
  153.0110  135.6371  154.2057 H   0  0  0  0  0  0  0  0  0  0  0  0  # atno 10765 bound_to 10752
  141.1020  133.8866  157.1817 H   0  0  0  0  0  0  0  0  0  0  0  0  # atno 11005 bound_to 11000
  146.3231  139.8195  142.8929 LP  0  0  0  0  0  0  0  0  0  0  0  0  # atno 17320 bound_to 7965
  145.3201  141.0241  143.3505 LP  0  0  0  0  0  0  0  0  0  0  0  0  # atno 17321 bound_to 7965
  140.1136  144.5435  150.6909 LP  0  0  0  0  0  0  0  0  0  0  0  0  # atno 17342 bound_to 10162
  140.7013  143.2437  151.4856 LP  0  0  0  0  0  0  0  0  0  0  0  0  # atno 17343 bound_to 10162
  156.1894  130.3654  149.8930 LP  0  0  0  0  0  0  0  0  0  0  0  0  # atno 17370 bound_to 10713
  156.6862  130.8878  151.3582 LP  0  0  0  0  0  0  0  0  0  0  0  0  # atno 17371 bound_to 10713
  139.9875  135.0076  156.9898 LP  0  0  0  0  0  0  0  0  0  0  0  0  # atno 17394 bound_to 11000
  140.4997  134.1109  155.7248 LP  0  0  0  0  0  0  0  0  0  0  0  0  # atno 17395 bound_to 11000

$$$$
