AV-unprocessed.smi:157|AV-procd|sdf|1309|dock6
  -GOLD-   2262019 03D 1   1.00000     0.00000
 Structure written by MMmdl.
 36 38  0  0  0  0  0  0  0  0  2 V2000
  155.1354  139.6816  158.8422 O   0  0  0  0  0  0  0  0  0  0  0  0
  153.7789  139.9871  159.0845 C   0  0  0  0  0  0  0  0  0  0  0  0
  152.8810  139.1025  158.2073 C   0  0  1  0  0  0  0  0  0  0  0  0
  153.0772  139.4266  156.8337 O   0  0  0  0  0  0  0  0  0  0  0  0
  152.7918  138.3185  156.0313 C   0  0  2  0  0  0  0  0  0  0  0  0
  151.5192  138.5761  155.2874 N   0  0  0  0  0  0  0  0  0  0  0  0
  150.9514  137.7839  154.3524 C   0  0  0  0  0  0  0  0  0  0  0  0
  149.8250  138.2580  153.8479 N   0  3  0  0  0  0  0  0  0  0  0  0
  149.5923  139.4636  154.4752 C   0  0  0  0  0  0  0  0  0  0  0  0
  150.6602  139.6482  155.3571 C   0  0  0  0  0  0  0  0  0  0  0  0
  150.9311  140.7109  156.2325 N   0  0  0  0  0  0  0  0  0  0  0  0
  150.3367  141.8572  156.1552 C   0  0  0  0  0  0  0  0  0  0  0  0
  149.3070  142.2536  155.3179 N   0  0  0  0  0  0  0  0  0  0  0  0
  148.1226  141.4486  155.0767 C   0  0  0  0  0  0  0  0  0  0  0  0
  148.3683  140.2574  154.1419 C   0  0  1  0  0  0  0  0  0  0  0  0
  148.3702  140.7233  152.8082 O   0  0  0  0  0  0  0  0  0  0  0  0
  152.6188  137.1141  156.9620 C   0  0  0  0  0  0  0  0  0  0  0  0
  153.2511  137.6189  158.2433 C   0  0  2  0  0  0  0  0  0  0  0  0
  152.7159  136.9544  159.3694 O   0  0  0  0  0  0  0  0  0  0  0  0
  151.8272  139.2260  158.4660 H   0  0  0  0  0  0  0  0  0  0  0  0
  153.5577  138.1903  155.2655 H   0  0  0  0  0  0  0  0  0  0  0  0
  147.5097  139.5901  154.2251 H   0  0  0  0  0  0  0  0  0  0  0  0
  154.3338  137.4887  158.2065 H   0  0  0  0  0  0  0  0  0  0  0  0
  155.6213  139.8200  159.6410 H   0  0  0  0  0  0  0  0  0  0  0  0
  153.5440  139.8675  160.1425 H   0  0  0  0  0  0  0  0  0  0  0  0
  153.6299  141.0382  158.8358 H   0  0  0  0  0  0  0  0  0  0  0  0
  151.3784  136.8455  154.0470 H   0  0  0  0  0  0  0  0  0  0  0  0
  150.6479  142.6585  156.8269 H   0  0  0  0  0  0  0  0  0  0  0  0
  149.1070  143.2400  155.2309 H   0  0  0  0  0  0  0  0  0  0  0  0
  147.7786  141.0757  156.0428 H   0  0  0  0  0  0  0  0  0  0  0  0
  147.3213  142.0817  154.6941 H   0  0  0  0  0  0  0  0  0  0  0  0
  148.8034  140.0844  152.2635 H   0  0  0  0  0  0  0  0  0  0  0  0
  151.5568  136.9039  157.1053 H   0  0  0  0  0  0  0  0  0  0  0  0
  153.1034  136.2266  156.5539 H   0  0  0  0  0  0  0  0  0  0  0  0
  152.9863  137.4134  160.1499 H   0  0  0  0  0  0  0  0  0  0  0  0
  149.2476  137.8140  153.1452 H   0  0  0  0  0  0  0  0  0  0  0  0
  1  2  1  0  0  0  0
  1 24  1  0  0  0  0
  2  3  1  0  0  0  0
  2 25  1  0  0  0  0
  2 26  1  0  0  0  0
  3 20  1  0  0  0  0
  3 18  1  0  0  0  0
  3  4  1  0  0  0  0
  4  5  1  0  0  0  0
  5 21  1  0  0  0  0
  5  6  1  0  0  0  0
  5 17  1  0  0  0  0
  6 10  1  0  0  0  0
  6  7  1  0  0  0  0
  7  8  2  0  0  0  0
  7 27  1  0  0  0  0
  8  9  1  0  0  0  0
  8 36  1  0  0  0  0
  9 15  1  0  0  0  0
  9 10  2  0  0  0  0
 10 11  1  0  0  0  0
 11 12  2  0  0  0  0
 12 13  1  0  0  0  0
 12 28  1  0  0  0  0
 13 14  1  0  0  0  0
 13 29  1  0  0  0  0
 14 15  1  0  0  0  0
 14 30  1  0  0  0  0
 14 31  1  0  0  0  0
 15 22  1  0  0  0  0
 15 16  1  0  0  0  0
 16 32  1  0  0  0  0
 17 18  1  0  0  0  0
 17 33  1  0  0  0  0
 17 34  1  0  0  0  0
 18 23  1  0  0  0  0
 18 19  1  0  0  0  0
 19 35  1  0  0  0  0
M  CHG  1   8   1
M  END
> <s_m_source_file>
AV-unprocessed.smi

> <i_m_source_file_index>
157

> <i_lp_mmshare_version>
43012

> <i_f3d_flags>
0

> <s_epik_input>
W09IXVtDSDJdW0NASF0xT1tDQEhdKFtDSDJdW0NAQEhdMVtPSF0pbihbY0hdbjIpYyhjMjMpTj1bQ0hdW05IXVtDSDJdW0NASF0zW09IXQ==

> <s_epik_cmdline>
J2VwaWtfcHl0aG9uJywgJy1waCcsICc3LjAnLCAnLXRuJywgJzgnLCAnLW1hJywgJzIwMCcsICctbWV0YWxfYmluZGluZycsICctaW1hZScsICc8aW5maWxlLm1hZT4nLCAnLW9tYWUnLCAnPG91dGZpbGUubWFlPic=

> <r_epik_Ionization_Penalty>
1.68594

> <r_epik_Ionization_Penalty_Charging>
0

> <r_epik_Ionization_Penalty_Neutral>
1.68594

> <r_epik_State_Penalty>
1.79006

> <r_epik_Charging_Adjusted_Penalty>
1.79006

> <i_epik_Tot_Q>
1

> <i_epik_Tot_abs_Q>
1

> <r_epik_Metal_State_Penalty>
5.85324

> <b_epik_Metal_Only>
0

> <s_epik_Chemistry_Notes>
This compound has an imine and may undergo hydrolysis. This compound contains an acetal/aminal-like group ( X-CH(R)-Y where X, Y are N, S, or O) that may be acid/base labile, releasing an aldehyde.

> <s_lp_Force_Field>
OPLS_2005

> <r_lp_Energy>
51.4634

> <b_lp_Chiralities_Consistent>
1

> <s_lp_Variant>
AV-unprocessed.smi:157-19

> <Gold.Version>
5.8.1

> <Gold.Id.Protein>
6NUR|6NUR_protein|mol2

> <Gold.PLP.Fitness>
50.0323

> <Gold.PLP.PLP>
-29.1013

> <Gold.PLP.part.hbond>
-6.0107

> <Gold.PLP.part.metal>
0.0000

> <Gold.PLP.part.buried>
-4.3807

> <Gold.PLP.part.nonpolar>
-20.5933

> <Gold.PLP.part.repulsive>
0.2375

> <Gold.PLP.ligand.clash>
0.0000

> <Gold.PLP.ligand.torsion>
0.1027

> <Gold.PLP.Chemscore.Hbond>
6.3991

> <Gold.PLP.Chemscore.CHOScore>
0.6402

> <Gold.PLP.Chemscore.Metal>
0.0000

> <Gold.Chemscore.Hbonds>
donor molecule, donor type, donor heavy atom, donor atom, acceptor molecule, acceptor atom, score
      L1  H     8    36       P1  7948  1.92
      L1  H    13    29       P1  8028  1.00
      L1  H    16    32       P1  7957  0.45
      P1  H  6896  6907       L1    19  0.73
      P1  H  7997  8008       L1     1  0.64
      P1  H  7997  8009       L1     4  1.00
      P1  H  8011  8017       L1    16  0.34
      L1  C     7    27       P1  7949  0.47

> <Gold.PLP.Chemscore.Internal.Correction>
0.0185

> <Gold.Rescore>
     Score         DG    S(hbond)    S(metal)    S(lipo)     H(rot)  DE(clash)    DE(int)     intcor
     15.36     -17.32       5.12        0.00      35.09       3.67       0.01       1.95       ----

> <Gold.Chemscore.Fitness>
15.3569

> <Gold.Chemscore.DG>
-17.3178

> <Gold.Chemscore.ZeroCoef>
-5.4800

> <Gold.Chemscore.Hbond>
5.1249

> <Gold.Chemscore.Metal>
0.0000

> <Gold.Chemscore.Lipo>
35.0894

> <Gold.Chemscore.Internal_Hbond>
0.0000

> <Gold.Chemscore.DEClash>
0.0089

> <Gold.Chemscore.DEInternal>
1.9520

> <Gold.Chemscore.Rot>
3.6659

> <Gold.Chemscore.Internal.Correction>
   9.000000E+99

> <Gold.Chemscore.Hbonds>
donor molecule, donor type, donor heavy atom, donor atom, acceptor molecule, acceptor atom, score
      L1  H     8    36       P1  7948  0.85
      L1  H    13    29       P1  8028  0.95
      L1  H    16    32       P1  7957  0.45
      P1  H  6896  6907       L1    19  0.43
      P1  H  7997  8008       L1     1  0.59
      P1  H  7997  8009       L1     4  0.62
      P1  H  8011  8017       L1    16  0.04

> <Gold.Chemscore.Hbond.Weighted>
-17.1172

> <Gold.Chemscore.Metal.Weighted>
-0.0000

> <Gold.Chemscore.Lipo.Weighted>
-4.1055

> <Gold.Chemscore.Internal_Hbond.Weighted>
0.0000

> <Gold.Chemscore.DEClash.Weighted>
0.0089

> <Gold.Chemscore.DEInternal.Weighted>
1.9520

> <Gold.Chemscore.Rot.Weighted>
9.3848

> <Gold.Chemscore.Internal.Correction.Weighted>
   9.000000E+99

> <Gold.Protein.RotatedTorsions>
[ 6907 6896 6895 6894 ] final   11.25 input  -60.11 | X-H torsion
[ 7974 7965 7964 7962 ] final   96.03 input  175.53 | X-H torsion
[ 8008 7997 7996 7995 ] final -159.42 input   59.86 | X-H torsion
[ 10167 10162 10161 10158 ] final -149.25 input  -65.29 | X-H torsion
[ 10718 10713 10712 10709 ] final  173.86 input   66.30 | X-H torsion
[ 10763 10752 10751 10750 ] final  -88.74 input  -60.55 | X-H torsion
[ 11005 11000 10999 10996 ] final  134.18 input  -57.11 | X-H torsion

> <Gold.Protein.ActiveResidues>
 VAL166  LYS551  ARG553  GLY616  TRP617  ASP618  TYR619  PRO620  LYS621  CYS622 
 ASP623  PHE694  ASN695  SER759  ASP760  ASP761  ALA762  ILE779  LEU786  VAL792 
 PHE793  MET794  SER795  GLU796  ALA797  LYS798  CYS799  TRP800  GLU811  SER814 

> <Gold.Protein.RotatedAtoms>
  151.7512  135.0832  160.0330 H   0  0  0  0  0  0  0  0  0  0  0  0  # atno 6907 bound_to 6896
  152.3415  133.6068  159.5888 H   0  0  0  0  0  0  0  0  0  0  0  0  # atno 6908 bound_to 6896
  150.7482  133.9631  159.3563 H   0  0  0  0  0  0  0  0  0  0  0  0  # atno 6909 bound_to 6896
  145.4442  139.2298  143.3075 H   0  0  0  0  0  0  0  0  0  0  0  0  # atno 7974 bound_to 7965
  155.7623  140.0841  157.2149 H   0  0  0  0  0  0  0  0  0  0  0  0  # atno 8008 bound_to 7997
  154.4002  140.1540  156.2903 H   0  0  0  0  0  0  0  0  0  0  0  0  # atno 8009 bound_to 7997
  155.8827  140.3419  155.5902 H   0  0  0  0  0  0  0  0  0  0  0  0  # atno 8010 bound_to 7997
  139.7459  143.8591  152.2574 H   0  0  0  0  0  0  0  0  0  0  0  0  # atno 10167 bound_to 10162
  156.9581  131.0052  151.2934 H   0  0  0  0  0  0  0  0  0  0  0  0  # atno 10718 bound_to 10713
  154.6478  135.5366  153.7865 H   0  0  0  0  0  0  0  0  0  0  0  0  # atno 10763 bound_to 10752
  153.0369  135.6475  154.1063 H   0  0  0  0  0  0  0  0  0  0  0  0  # atno 10764 bound_to 10752
  154.0983  135.2935  155.3237 H   0  0  0  0  0  0  0  0  0  0  0  0  # atno 10765 bound_to 10752
  139.9898  134.9519  156.9830 H   0  0  0  0  0  0  0  0  0  0  0  0  # atno 11005 bound_to 11000
  146.2540  140.5194  142.8881 LP  0  0  0  0  0  0  0  0  0  0  0  0  # atno 17320 bound_to 7965
  144.8102  140.6372  143.6420 LP  0  0  0  0  0  0  0  0  0  0  0  0  # atno 17321 bound_to 7965
  139.8555  144.7143  150.9162 LP  0  0  0  0  0  0  0  0  0  0  0  0  # atno 17342 bound_to 10162
  140.7792  143.3862  151.1389 LP  0  0  0  0  0  0  0  0  0  0  0  0  # atno 17343 bound_to 10162
  157.5677  130.8289  149.8349 LP  0  0  0  0  0  0  0  0  0  0  0  0  # atno 17370 bound_to 10713
  156.0334  130.3758  150.1626 LP  0  0  0  0  0  0  0  0  0  0  0  0  # atno 17371 bound_to 10713
  140.4930  134.1174  155.7236 LP  0  0  0  0  0  0  0  0  0  0  0  0  # atno 17394 bound_to 11000
  141.1556  133.8888  157.1985 LP  0  0  0  0  0  0  0  0  0  0  0  0  # atno 17395 bound_to 11000

$$$$
