AV-unprocessed.smi:1372|AV-procd|sdf|5582|dock4
  -GOLD-   22720 5183D 1   1.00000     0.00000
 Structure written by MMmdl.
 41 43  0  0  0  0  0  0  0  0  1 V2000
  150.4584  138.4656  154.0774 C   0  0  0  0  0  0  0  0  0  0  0  0
  151.8330  138.7058  155.2753 S   0  0  0  0  0  0  0  0  0  0  0  0
  152.5531  137.4302  155.4103 O   0  0  0  0  0  0  0  0  0  0  0  0
  152.5694  139.9208  154.8956 O   0  0  0  0  0  0  0  0  0  0  0  0
  150.9091  139.0333  156.8429 C   0  0  0  0  0  0  0  0  0  0  0  0
  151.2905  140.3507  157.4604 C   0  0  0  0  0  0  0  0  0  0  0  0
  151.0336  141.5218  156.8738 N   0  0  0  0  0  0  0  0  0  0  0  0
  151.5409  142.4381  157.7724 C   0  0  0  0  0  0  0  0  0  0  0  0
  151.5653  143.8505  157.7302 C   0  0  0  0  0  0  0  0  0  0  0  0
  152.1504  144.5856  158.7823 C   0  0  0  0  0  0  0  0  0  0  0  0
  152.7188  143.9202  159.8878 C   0  0  0  0  0  0  0  0  0  0  0  0
  152.7051  142.5134  159.9481 C   0  0  0  0  0  0  0  0  0  0  0  0
  152.1181  141.7850  158.8962 C   0  0  0  0  0  0  0  0  0  0  0  0
  151.9411  140.4267  158.6516 N   0  0  0  0  0  0  0  0  0  0  0  0
  152.3849  139.3468  159.5245 C   0  0  0  0  0  0  0  0  0  0  0  0
  153.8858  139.4439  159.8671 C   0  0  2  0  0  0  0  0  0  0  0  0
  154.6224  138.9492  158.7673 O   0  0  0  0  0  0  0  0  0  0  0  0
  154.2386  138.7329  161.1666 C   0  0  0  0  0  0  0  0  0  0  0  0
  154.9184  139.4322  162.1869 C   0  0  0  0  0  0  0  0  0  0  0  0
  155.2348  138.7902  163.3995 C   0  0  0  0  0  0  0  0  0  0  0  0
  154.8678  137.4461  163.6023 C   0  0  0  0  0  0  0  0  0  0  0  0
  154.1879  136.7430  162.5897 C   0  0  0  0  0  0  0  0  0  0  0  0
  153.8762  137.3831  161.3745 C   0  0  0  0  0  0  0  0  0  0  0  0
  150.8717  138.2512  153.0921 H   0  0  0  0  0  0  0  0  0  0  0  0
  149.8568  139.3729  154.0267 H   0  0  0  0  0  0  0  0  0  0  0  0
  149.8350  137.6311  154.3978 H   0  0  0  0  0  0  0  0  0  0  0  0
  149.8507  139.0160  156.5963 H   0  0  0  0  0  0  0  0  0  0  0  0
  151.1092  138.2243  157.5447 H   0  0  0  0  0  0  0  0  0  0  0  0
  151.1325  144.3683  156.8872 H   0  0  0  0  0  0  0  0  0  0  0  0
  152.1636  145.6649  158.7402 H   0  0  0  0  0  0  0  0  0  0  0  0
  153.1655  144.4903  160.6894 H   0  0  0  0  0  0  0  0  0  0  0  0
  153.1391  142.0006  160.7934 H   0  0  0  0  0  0  0  0  0  0  0  0
  151.7724  139.3119  160.4253 H   0  0  0  0  0  0  0  0  0  0  0  0
  152.1907  138.4093  159.0016 H   0  0  0  0  0  0  0  0  0  0  0  0
  154.1603  140.4950  159.9658 H   0  0  0  0  0  0  0  0  0  0  0  0
  154.8013  138.0331  158.9157 H   0  0  0  0  0  0  0  0  0  0  0  0
  155.1923  140.4678  162.0457 H   0  0  0  0  0  0  0  0  0  0  0  0
  155.7512  139.3323  164.1779 H   0  0  0  0  0  0  0  0  0  0  0  0
  155.1052  136.9564  164.5352 H   0  0  0  0  0  0  0  0  0  0  0  0
  153.9034  135.7129  162.7460 H   0  0  0  0  0  0  0  0  0  0  0  0
  153.3480  136.8363  160.6070 H   0  0  0  0  0  0  0  0  0  0  0  0
  1  2  1  0  0  0  0
  1 24  1  0  0  0  0
  1 25  1  0  0  0  0
  1 26  1  0  0  0  0
  2  3  2  0  0  0  0
  2  4  2  0  0  0  0
  2  5  1  0  0  0  0
  5  6  1  0  0  0  0
  5 27  1  0  0  0  0
  5 28  1  0  0  0  0
  6 14  1  0  0  0  0
  6  7  2  0  0  0  0
  7  8  1  0  0  0  0
  8 13  2  0  0  0  0
  8  9  1  0  0  0  0
  9 10  2  0  0  0  0
  9 29  1  0  0  0  0
 10 11  1  0  0  0  0
 10 30  1  0  0  0  0
 11 12  2  0  0  0  0
 11 31  1  0  0  0  0
 12 13  1  0  0  0  0
 12 32  1  0  0  0  0
 13 14  1  0  0  0  0
 14 15  1  0  0  0  0
 15 16  1  0  0  0  0
 15 33  1  0  0  0  0
 15 34  1  0  0  0  0
 16 17  1  0  0  0  0
 16 18  1  0  0  0  0
 16 35  1  0  0  0  0
 17 36  1  0  0  0  0
 18 23  1  0  0  0  0
 18 19  2  0  0  0  0
 19 20  1  0  0  0  0
 19 37  1  0  0  0  0
 20 21  2  0  0  0  0
 20 38  1  0  0  0  0
 21 22  1  0  0  0  0
 21 39  1  0  0  0  0
 22 23  2  0  0  0  0
 22 40  1  0  0  0  0
 23 41  1  0  0  0  0
M  END
> <s_m_source_file>
AV-unprocessed.smi

> <i_m_source_file_index>
1372

> <i_lp_mmshare_version>
43012

> <i_f3d_flags>
0

> <s_epik_input>
W2NIXTFbY0hdW2NIXVtjSF1jKGMxMiluKGMobjIpW0NIMl1TKD1PKSg9TylbQ0gzXSlbQ0gyXVtDQEhdKFtPSF0pYzNbY0hdW2NIXVtjSF1bY0hdW2NIXTM=

> <s_epik_cmdline>
J2VwaWtfcHl0aG9uJywgJy1waCcsICc3LjAnLCAnLXRuJywgJzgnLCAnLW1hJywgJzIwMCcsICctbWV0YWxfYmluZGluZycsICctaW1hZScsICc8aW5maWxlLm1hZT4nLCAnLW9tYWUnLCAnPG91dGZpbGUubWFlPic=

> <r_epik_Ionization_Penalty>
0.0151431

> <r_epik_Ionization_Penalty_Charging>
0

> <r_epik_Ionization_Penalty_Neutral>
0.0151431

> <r_epik_State_Penalty>
0.0118835

> <r_epik_Charging_Adjusted_Penalty>
0.0118835

> <i_epik_Tot_Q>
0

> <i_epik_Tot_abs_Q>
0

> <r_epik_Metal_State_Penalty>
1.20034e-05

> <b_epik_Metal_Only>
0

> <s_lp_Force_Field>
OPLS_2005

> <r_lp_Energy>
10.1971

> <b_lp_Chiralities_Consistent>
1

> <s_lp_Variant>
AV-unprocessed.smi:1372-1

> <Gold.Version>
5.8.1

> <Gold.Id.Protein>
6NUR|6NUR_protein|mol2

> <Gold.PLP.Fitness>
57.7818

> <Gold.PLP.PLP>
-49.4521

> <Gold.PLP.part.hbond>
-4.0000

> <Gold.PLP.part.metal>
0.0000

> <Gold.PLP.part.buried>
-5.6025

> <Gold.PLP.part.nonpolar>
-40.1829

> <Gold.PLP.part.repulsive>
0.0993

> <Gold.PLP.ligand.clash>
0.0000

> <Gold.PLP.ligand.torsion>
0.4513

> <Gold.PLP.Chemscore.Hbond>
3.0400

> <Gold.PLP.Chemscore.CHOScore>
0.0000

> <Gold.PLP.Chemscore.Metal>
0.0000

> <Gold.Chemscore.Hbonds>
donor molecule, donor type, donor heavy atom, donor atom, acceptor molecule, acceptor atom, score
      P1  H  7989  7998       L1     4  0.54
      P1  H  7997  8008       L1     4  0.71
      P1  H  7997  8010       L1    17  1.00
      P1  H 10752 10765       L1     3  0.61

> <Gold.PLP.Chemscore.Internal.Correction>
0.1123

> <Gold.Rescore>
     Score         DG    S(hbond)    S(metal)    S(lipo)     H(rot)  DE(clash)    DE(int)     intcor
     23.22     -24.59       2.87        0.00     132.33       2.33       0.00       1.38       ----

> <Gold.Chemscore.Fitness>
23.2179

> <Gold.Chemscore.DG>
-24.5943

> <Gold.Chemscore.ZeroCoef>
-5.4800

> <Gold.Chemscore.Hbond>
2.8738

> <Gold.Chemscore.Metal>
0.0000

> <Gold.Chemscore.Lipo>
132.3267

> <Gold.Chemscore.Internal_Hbond>
0.0000

> <Gold.Chemscore.DEClash>
0.0000

> <Gold.Chemscore.DEInternal>
1.3764

> <Gold.Chemscore.Rot>
2.3306

> <Gold.Chemscore.Internal.Correction>
   9.000000E+99

> <Gold.Chemscore.Hbonds>
donor molecule, donor type, donor heavy atom, donor atom, acceptor molecule, acceptor atom, score
      P1  H  7989  7998       L1     4  0.44
      P1  H  7997  8008       L1     4  0.64
      P1  H  7997  8010       L1    17  0.95
      P1  H 10752 10765       L1     3  0.59

> <Gold.Chemscore.Hbond.Weighted>
-9.5985

> <Gold.Chemscore.Metal.Weighted>
-0.0000

> <Gold.Chemscore.Lipo.Weighted>
-15.4822

> <Gold.Chemscore.Internal_Hbond.Weighted>
0.0000

> <Gold.Chemscore.DEClash.Weighted>
0.0000

> <Gold.Chemscore.DEInternal.Weighted>
1.3764

> <Gold.Chemscore.Rot.Weighted>
5.9664

> <Gold.Chemscore.Internal.Correction.Weighted>
   9.000000E+99

> <Gold.Protein.RotatedTorsions>
[ 6907 6896 6895 6894 ] final -159.89 input  -60.11 | X-H torsion
[ 7974 7965 7964 7962 ] final  -47.61 input  175.53 | X-H torsion
[ 8008 7997 7996 7995 ] final  -17.51 input   59.86 | X-H torsion
[ 10167 10162 10161 10158 ] final   81.46 input  -65.29 | X-H torsion
[ 10718 10713 10712 10709 ] final   75.77 input   66.30 | X-H torsion
[ 10763 10752 10751 10750 ] final -163.48 input  -60.55 | X-H torsion
[ 11005 11000 10999 10996 ] final  146.31 input  -57.11 | X-H torsion

> <Gold.Protein.ActiveResidues>
 VAL166  LYS551  ARG553  GLY616  TRP617  ASP618  TYR619  PRO620  LYS621  CYS622 
 ASP623  PHE694  ASN695  SER759  ASP760  ASP761  ALA762  ILE779  LEU786  VAL792 
 PHE793  MET794  SER795  GLU796  ALA797  LYS798  CYS799  TRP800  GLU811  SER814 

> <Gold.Protein.RotatedAtoms>
  151.3405  133.3964  159.2670 H   0  0  0  0  0  0  0  0  0  0  0  0  # atno 6907 bound_to 6896
  150.9881  134.9223  159.7894 H   0  0  0  0  0  0  0  0  0  0  0  0  # atno 6908 bound_to 6896
  152.5239  134.3370  159.9256 H   0  0  0  0  0  0  0  0  0  0  0  0  # atno 6909 bound_to 6896
  145.9598  140.7490  142.9463 H   0  0  0  0  0  0  0  0  0  0  0  0  # atno 7974 bound_to 7965
  154.4973  140.2140  155.9420 H   0  0  0  0  0  0  0  0  0  0  0  0  # atno 8008 bound_to 7997
  156.1387  140.3183  155.8429 H   0  0  0  0  0  0  0  0  0  0  0  0  # atno 8009 bound_to 7997
  155.4161  140.0494  157.3019 H   0  0  0  0  0  0  0  0  0  0  0  0  # atno 8010 bound_to 7997
  139.9390  144.6102  150.8270 H   0  0  0  0  0  0  0  0  0  0  0  0  # atno 10167 bound_to 10162
  157.6647  130.9742  150.1401 H   0  0  0  0  0  0  0  0  0  0  0  0  # atno 10718 bound_to 10713
  154.7118  135.3008  154.9185 H   0  0  0  0  0  0  0  0  0  0  0  0  # atno 10763 bound_to 10752
  154.0084  135.6698  153.4767 H   0  0  0  0  0  0  0  0  0  0  0  0  # atno 10764 bound_to 10752
  153.0761  135.5034  154.8321 H   0  0  0  0  0  0  0  0  0  0  0  0  # atno 10765 bound_to 10752
  140.0783  134.9112  157.1459 H   0  0  0  0  0  0  0  0  0  0  0  0  # atno 11005 bound_to 11000
  144.6813  140.2573  143.7324 LP  0  0  0  0  0  0  0  0  0  0  0  0  # atno 17320 bound_to 7965
  145.8055  139.1982  143.2023 LP  0  0  0  0  0  0  0  0  0  0  0  0  # atno 17321 bound_to 7965
  140.7616  143.3178  151.2691 LP  0  0  0  0  0  0  0  0  0  0  0  0  # atno 17342 bound_to 10162
  139.6720  144.0004  152.2758 LP  0  0  0  0  0  0  0  0  0  0  0  0  # atno 17343 bound_to 10162
  156.2226  130.3675  149.8538 LP  0  0  0  0  0  0  0  0  0  0  0  0  # atno 17370 bound_to 10713
  156.6387  130.8695  151.3509 LP  0  0  0  0  0  0  0  0  0  0  0  0  # atno 17371 bound_to 10713
  140.3525  134.2583  155.7196 LP  0  0  0  0  0  0  0  0  0  0  0  0  # atno 17394 bound_to 11000
  141.2037  133.7904  157.0323 LP  0  0  0  0  0  0  0  0  0  0  0  0  # atno 17395 bound_to 11000

$$$$
