AV-unprocessed.smi:34|AV-procd|sdf|221|dock6
  -GOLD-   2262015543D 1   1.00000     0.00000
 Structure written by MMmdl.
 55 59  0  0  0  0  0  0  0  0  1 V2000
  153.0124  139.9970  158.9115 O   0  0  0  0  0  0  0  0  0  0  0  0
  152.4219  140.9165  158.3440 C   0  0  0  0  0  0  0  0  0  0  0  0
  151.9422  140.8002  156.9780 N   0  0  0  0  0  0  0  0  0  0  0  0
  151.9628  139.7108  156.1742 C   0  0  0  0  0  0  0  0  0  0  0  0
  152.7226  139.6489  155.0491 N   0  0  0  0  0  0  0  0  0  0  0  0
  152.7154  138.5480  154.2918 C   0  0  0  0  0  0  0  0  0  0  0  0
  152.0343  137.4154  154.4745 N   0  0  0  0  0  0  0  0  0  0  0  0
  151.2682  137.4693  155.6020 C   0  0  0  0  0  0  0  0  0  0  0  0
  151.1788  138.5722  156.4962 C   0  0  0  0  0  0  0  0  0  0  0  0
  150.3049  138.2677  157.5320 N   0  0  0  0  0  0  0  0  0  0  0  0
  149.9054  137.0536  157.2624 C   0  0  0  0  0  0  0  0  0  0  0  0
  150.4339  136.4990  156.1180 N   0  0  0  0  0  0  0  0  0  0  0  0
  150.1768  135.1384  155.5591 C   0  0  2  0  0  0  0  0  0  0  0  0
  148.8464  135.0893  155.1515 O   0  0  0  0  0  0  0  0  0  0  0  0
  148.3702  133.7673  155.3439 C   0  0  2  0  0  0  0  0  0  0  0  0
  146.8372  133.7335  155.3558 C   0  0  0  0  0  0  0  0  0  0  0  0
  146.3595  133.8186  154.0234 O   0  0  0  0  0  0  0  0  0  0  0  0
  146.5547  132.7940  153.1705 C   0  0  0  0  0  0  0  0  0  0  0  0
  147.3375  131.8664  153.3861 O   0  0  0  0  0  0  0  0  0  0  0  0
  145.7243  132.9004  151.9360 C   0  0  0  0  0  0  0  0  0  0  0  0
  144.8306  133.9876  151.7932 C   0  0  0  0  0  0  0  0  0  0  0  0
  144.0350  134.1153  150.6380 C   0  0  0  0  0  0  0  0  0  0  0  0
  144.1242  133.1578  149.6109 C   0  0  0  0  0  0  0  0  0  0  0  0
  145.0096  132.0721  149.7404 C   0  0  0  0  0  0  0  0  0  0  0  0
  145.8055  131.9423  150.8952 C   0  0  0  0  0  0  0  0  0  0  0  0
  149.0226  133.3523  156.6645 C   0  0  2  0  0  0  0  0  0  0  0  0
  148.3214  133.8029  157.7061 F   0  0  0  0  0  0  0  0  0  0  0  0
  150.3793  134.0475  156.6266 C   0  0  1  0  0  0  0  0  0  0  0  0
  151.3788  133.1213  156.2512 O   0  0  0  0  0  0  0  0  0  0  0  0
  152.2349  142.2556  158.9970 C   0  0  0  0  0  0  0  0  0  0  0  0
  151.8427  143.3708  158.2228 C   0  0  0  0  0  0  0  0  0  0  0  0
  151.6814  144.6348  158.8233 C   0  0  0  0  0  0  0  0  0  0  0  0
  151.9175  144.7960  160.2016 C   0  0  0  0  0  0  0  0  0  0  0  0
  152.3206  143.6934  160.9782 C   0  0  0  0  0  0  0  0  0  0  0  0
  152.4828  142.4290  160.3789 C   0  0  0  0  0  0  0  0  0  0  0  0
  151.5179  141.6288  156.5873 H   0  0  0  0  0  0  0  0  0  0  0  0
  153.3451  138.5791  153.4150 H   0  0  0  0  0  0  0  0  0  0  0  0
  149.2084  136.5250  157.8966 H   0  0  0  0  0  0  0  0  0  0  0  0
  150.8470  135.0464  154.7028 H   0  0  0  0  0  0  0  0  0  0  0  0
  148.7569  133.1349  154.5424 H   0  0  0  0  0  0  0  0  0  0  0  0
  146.4902  132.7986  155.7977 H   0  0  0  0  0  0  0  0  0  0  0  0
  146.4408  134.5521  155.9585 H   0  0  0  0  0  0  0  0  0  0  0  0
  144.7448  134.7353  152.5685 H   0  0  0  0  0  0  0  0  0  0  0  0
  143.3556  134.9493  150.5405 H   0  0  0  0  0  0  0  0  0  0  0  0
  143.5143  133.2558  148.7248 H   0  0  0  0  0  0  0  0  0  0  0  0
  145.0795  131.3367  148.9524 H   0  0  0  0  0  0  0  0  0  0  0  0
  146.4760  131.0978  150.9616 H   0  0  0  0  0  0  0  0  0  0  0  0
  149.0855  132.2695  156.7798 H   0  0  0  0  0  0  0  0  0  0  0  0
  150.6392  134.4820  157.5934 H   0  0  0  0  0  0  0  0  0  0  0  0
  151.8632  133.4819  155.5243 H   0  0  0  0  0  0  0  0  0  0  0  0
  151.6587  143.2644  157.1632 H   0  0  0  0  0  0  0  0  0  0  0  0
  151.3774  145.4811  158.2252 H   0  0  0  0  0  0  0  0  0  0  0  0
  151.7936  145.7651  160.6619 H   0  0  0  0  0  0  0  0  0  0  0  0
  152.5085  143.8181  162.0346 H   0  0  0  0  0  0  0  0  0  0  0  0
  152.8028  141.5991  160.9922 H   0  0  0  0  0  0  0  0  0  0  0  0
  1  2  2  0  0  0  0
  2  3  1  0  0  0  0
  2 30  1  0  0  0  0
  3  4  1  0  0  0  0
  3 36  1  0  0  0  0
  4  9  1  0  0  0  0
  4  5  2  0  0  0  0
  5  6  1  0  0  0  0
  6  7  2  0  0  0  0
  6 37  1  0  0  0  0
  7  8  1  0  0  0  0
  8 12  1  0  0  0  0
  8  9  2  0  0  0  0
  9 10  1  0  0  0  0
 10 11  2  0  0  0  0
 11 12  1  0  0  0  0
 11 38  1  0  0  0  0
 12 13  1  0  0  0  0
 13 28  1  0  0  0  0
 13 14  1  0  0  0  0
 13 39  1  0  0  0  0
 14 15  1  0  0  0  0
 15 16  1  0  0  0  0
 15 26  1  0  0  0  0
 15 40  1  0  0  0  0
 16 17  1  0  0  0  0
 16 41  1  0  0  0  0
 16 42  1  0  0  0  0
 17 18  1  0  0  0  0
 18 19  2  0  0  0  0
 18 20  1  0  0  0  0
 20 25  1  0  0  0  0
 20 21  2  0  0  0  0
 21 22  1  0  0  0  0
 21 43  1  0  0  0  0
 22 23  2  0  0  0  0
 22 44  1  0  0  0  0
 23 24  1  0  0  0  0
 23 45  1  0  0  0  0
 24 25  2  0  0  0  0
 24 46  1  0  0  0  0
 25 47  1  0  0  0  0
 26 27  1  0  0  0  0
 26 28  1  0  0  0  0
 26 48  1  0  0  0  0
 28 29  1  0  0  0  0
 28 49  1  0  0  0  0
 29 50  1  0  0  0  0
 30 35  1  0  0  0  0
 30 31  2  0  0  0  0
 31 32  1  0  0  0  0
 31 51  1  0  0  0  0
 32 33  2  0  0  0  0
 32 52  1  0  0  0  0
 33 34  1  0  0  0  0
 33 53  1  0  0  0  0
 34 35  2  0  0  0  0
 34 54  1  0  0  0  0
 35 55  1  0  0  0  0
M  END
> <s_m_source_file>
AV-unprocessed.smi

> <i_m_source_file_index>
34

> <i_lp_mmshare_version>
43012

> <i_f3d_flags>
0

> <s_epik_input>
W2NIXTFbY0hdW2NIXVtjSF1bY0hdYzFDKD1PKVtOSF1jKG5bY0hdbjIpYyhjMjMpbltjSF1uM1tDQEBIXTRPW0NASF0oW0NAQEhdKEYpW0NASF00W09IXSlbQ0gyXU9DKD1PKWM1W2NIXVtjSF1bY0hdW2NIXVtjSF01

> <s_epik_cmdline>
J2VwaWtfcHl0aG9uJywgJy1waCcsICc3LjAnLCAnLXRuJywgJzgnLCAnLW1hJywgJzIwMCcsICctbWV0YWxfYmluZGluZycsICctaW1hZScsICc8aW5maWxlLm1hZT4nLCAnLW9tYWUnLCAnPG91dGZpbGUubWFlPic=

> <r_lp_tautomer_probability>
1

> <r_epik_Ionization_Penalty>
0.00257489

> <r_epik_Ionization_Penalty_Charging>
0

> <r_epik_Ionization_Penalty_Neutral>
0.00257489

> <r_epik_State_Penalty>
0.00519398

> <r_epik_Charging_Adjusted_Penalty>
0.00519398

> <i_epik_Tot_Q>
0

> <i_epik_Tot_abs_Q>
0

> <r_epik_Metal_State_Penalty>
0.335891

> <b_epik_Metal_Only>
0

> <s_epik_Chemistry_Notes>
This compound has an ester and may undergo hydrolysis at high or low pH. This compound contains an acetal/aminal-like group ( X-CH(R)-Y where X, Y are N, S, or O) that may be acid/base labile, releasing an aldehyde.

> <s_lp_Force_Field>
OPLS_2005

> <r_lp_Energy>
45.7986

> <b_lp_Chiralities_Consistent>
1

> <s_lp_Variant>
AV-unprocessed.smi:34-7

> <Gold.Version>
5.8.1

> <Gold.Id.Protein>
6NUR|6NUR_protein|mol2

> <Gold.PLP.Fitness>
59.2750

> <Gold.PLP.PLP>
-55.4530

> <Gold.PLP.part.hbond>
-2.9085

> <Gold.PLP.part.metal>
0.0000

> <Gold.PLP.part.buried>
-8.8518

> <Gold.PLP.part.nonpolar>
-45.3111

> <Gold.PLP.part.repulsive>
0.5238

> <Gold.PLP.ligand.clash>
0.0000

> <Gold.PLP.ligand.torsion>
1.1132

> <Gold.PLP.Chemscore.Hbond>
1.9284

> <Gold.PLP.Chemscore.CHOScore>
0.0000

> <Gold.PLP.Chemscore.Metal>
0.0000

> <Gold.Chemscore.Hbonds>
donor molecule, donor type, donor heavy atom, donor atom, acceptor molecule, acceptor atom, score
      P1  H  7989  7998       L1     5  0.19
      P1  H  7997  8010       L1     5  0.90
      P1  H 10752 10765       L1     7  0.88

> <Gold.PLP.Chemscore.Internal.Correction>
0.2631

> <Gold.Rescore>
     Score         DG    S(hbond)    S(metal)    S(lipo)     H(rot)  DE(clash)    DE(int)     intcor
     17.86     -18.98       1.51        0.00     131.71       2.72       0.00       1.11       ----

> <Gold.Chemscore.Fitness>
17.8595

> <Gold.Chemscore.DG>
-18.9788

> <Gold.Chemscore.ZeroCoef>
-5.4800

> <Gold.Chemscore.Hbond>
1.5137

> <Gold.Chemscore.Metal>
0.0000

> <Gold.Chemscore.Lipo>
131.7102

> <Gold.Chemscore.Internal_Hbond>
0.0000

> <Gold.Chemscore.DEClash>
0.0048

> <Gold.Chemscore.DEInternal>
1.1145

> <Gold.Chemscore.Rot>
2.7215

> <Gold.Chemscore.Internal.Correction>
   9.000000E+99

> <Gold.Chemscore.Hbonds>
donor molecule, donor type, donor heavy atom, donor atom, acceptor molecule, acceptor atom, score
      P1  H  7989  7998       L1     5  0.01
      P1  H  7997  8010       L1     5  0.16
      P1  H 10752 10765       L1     7  0.62

> <Gold.Chemscore.Hbond.Weighted>
-5.0557

> <Gold.Chemscore.Metal.Weighted>
-0.0000

> <Gold.Chemscore.Lipo.Weighted>
-15.4101

> <Gold.Chemscore.Internal_Hbond.Weighted>
0.0000

> <Gold.Chemscore.DEClash.Weighted>
0.0048

> <Gold.Chemscore.DEInternal.Weighted>
1.1145

> <Gold.Chemscore.Rot.Weighted>
6.9670

> <Gold.Chemscore.Internal.Correction.Weighted>
   9.000000E+99

> <Gold.Protein.RotatedTorsions>
[ 6907 6896 6895 6894 ] final -153.73 input  -60.11 | X-H torsion
[ 7974 7965 7964 7962 ] final  -34.66 input  175.53 | X-H torsion
[ 8008 7997 7996 7995 ] final  106.42 input   59.86 | X-H torsion
[ 10167 10162 10161 10158 ] final  106.41 input  -65.29 | X-H torsion
[ 10718 10713 10712 10709 ] final   76.49 input   66.30 | X-H torsion
[ 10763 10752 10751 10750 ] final  165.74 input  -60.55 | X-H torsion
[ 11005 11000 10999 10996 ] final -156.30 input  -57.11 | X-H torsion

> <Gold.Protein.ActiveResidues>
 VAL166  LYS551  ARG553  GLY616  TRP617  ASP618  TYR619  PRO620  LYS621  CYS622 
 ASP623  PHE694  ASN695  SER759  ASP760  ASP761  ALA762  ILE779  LEU786  VAL792 
 PHE793  MET794  SER795  GLU796  ALA797  LYS798  CYS799  TRP800  GLU811  SER814 

> <Gold.Protein.RotatedAtoms>
  151.2469  133.4370  159.2609 H   0  0  0  0  0  0  0  0  0  0  0  0  # atno 6907 bound_to 6896
  151.0653  134.9763  159.8291 H   0  0  0  0  0  0  0  0  0  0  0  0  # atno 6908 bound_to 6896
  152.5404  134.2417  159.8917 H   0  0  0  0  0  0  0  0  0  0  0  0  # atno 6909 bound_to 6896
  146.0811  140.6065  142.8908 H   0  0  0  0  0  0  0  0  0  0  0  0  # atno 7974 bound_to 7965
  156.1741  140.3113  155.9027 H   0  0  0  0  0  0  0  0  0  0  0  0  # atno 8008 bound_to 7997
  155.3524  140.0472  157.3063 H   0  0  0  0  0  0  0  0  0  0  0  0  # atno 8009 bound_to 7997
  154.5272  140.2218  155.8879 H   0  0  0  0  0  0  0  0  0  0  0  0  # atno 8010 bound_to 7997
  139.7012  144.7094  151.1183 H   0  0  0  0  0  0  0  0  0  0  0  0  # atno 10167 bound_to 10162
  157.6675  130.9777  150.1504 H   0  0  0  0  0  0  0  0  0  0  0  0  # atno 10718 bound_to 10713
  154.3286  135.2755  155.2483 H   0  0  0  0  0  0  0  0  0  0  0  0  # atno 10763 bound_to 10752
  154.4805  135.5859  153.6389 H   0  0  0  0  0  0  0  0  0  0  0  0  # atno 10764 bound_to 10752
  152.9869  135.6110  154.3477 H   0  0  0  0  0  0  0  0  0  0  0  0  # atno 10765 bound_to 10752
  140.6771  134.4185  157.5229 H   0  0  0  0  0  0  0  0  0  0  0  0  # atno 11005 bound_to 11000
  144.7294  140.4625  143.6949 LP  0  0  0  0  0  0  0  0  0  0  0  0  # atno 17320 bound_to 7965
  145.6216  139.1525  143.3019 LP  0  0  0  0  0  0  0  0  0  0  0  0  # atno 17321 bound_to 7965
  140.7710  143.5422  150.9300 LP  0  0  0  0  0  0  0  0  0  0  0  0  # atno 17342 bound_to 10162
  139.9103  143.6728  152.3116 LP  0  0  0  0  0  0  0  0  0  0  0  0  # atno 17343 bound_to 10162
  156.2305  130.3681  149.8451 LP  0  0  0  0  0  0  0  0  0  0  0  0  # atno 17370 bound_to 10713
  156.6279  130.8653  151.3489 LP  0  0  0  0  0  0  0  0  0  0  0  0  # atno 17371 bound_to 10713
  139.8963  134.8662  156.2092 LP  0  0  0  0  0  0  0  0  0  0  0  0  # atno 17394 bound_to 11000
  141.0347  133.6970  156.1491 LP  0  0  0  0  0  0  0  0  0  0  0  0  # atno 17395 bound_to 11000

$$$$
