AV-unprocessed.smi:1197|AV-procd|sdf|5008|dock4
  -GOLD-   22720 4 23D 1   1.00000     0.00000
 Structure written by MMmdl.
 40 41  0  0  0  0  0  0  0  0  1 V2000
  152.5395  140.1824  152.8727 C   0  0  0  0  0  0  0  0  0  0  0  0
  151.5033  141.1454  152.7152 O   0  0  0  0  0  0  0  0  0  0  0  0
  150.2026  140.6969  152.6107 C   0  0  0  0  0  0  0  0  0  0  0  0
  149.1633  141.6471  152.5699 C   0  0  0  0  0  0  0  0  0  0  0  0
  147.8324  141.1987  152.4660 C   0  0  0  0  0  0  0  0  0  0  0  0
  147.5818  139.8066  152.3986 C   0  0  0  0  0  0  0  0  0  0  0  0
  146.2906  139.2170  152.3074 N   0  0  0  0  0  0  0  0  0  0  0  0
  145.9516  137.9179  152.2389 C   0  0  0  0  0  0  0  0  0  0  0  0
  146.7347  136.9698  152.2806 O   0  0  0  0  0  0  0  0  0  0  0  0
  144.6232  137.7715  152.1323 N   0  0  0  0  0  0  0  0  0  0  0  0
  143.9277  136.4940  152.0325 C   0  0  0  0  0  0  0  0  0  0  0  0
  144.5215  135.6140  150.9161 C   0  0  0  0  0  0  0  0  0  0  0  0
  144.7527  134.2199  151.2895 N   0  0  0  0  0  0  0  0  0  0  0  0
  146.0041  133.6919  150.7501 C   0  0  0  0  0  0  0  0  0  0  0  0
  146.2160  132.2163  151.1317 C   0  0  0  0  0  0  0  0  0  0  0  0
  145.1054  131.4423  150.6909 O   0  0  0  0  0  0  0  0  0  0  0  0
  143.8704  131.8976  151.2334 C   0  0  0  0  0  0  0  0  0  0  0  0
  143.6514  133.3707  150.8477 C   0  0  0  0  0  0  0  0  0  0  0  0
  148.6929  138.9395  152.4535 C   0  0  0  0  0  0  0  0  0  0  0  0
  149.9705  139.3622  152.5546 N   0  0  0  0  0  0  0  0  0  0  0  0
  153.5004  140.6934  152.9325 H   0  0  0  0  0  0  0  0  0  0  0  0
  152.5817  139.4977  152.0244 H   0  0  0  0  0  0  0  0  0  0  0  0
  152.4128  139.6077  153.7913 H   0  0  0  0  0  0  0  0  0  0  0  0
  149.3821  142.7034  152.6227 H   0  0  0  0  0  0  0  0  0  0  0  0
  147.0429  141.9327  152.4524 H   0  0  0  0  0  0  0  0  0  0  0  0
  145.5216  139.8707  152.3179 H   0  0  0  0  0  0  0  0  0  0  0  0
  144.0517  138.6032  152.1095 H   0  0  0  0  0  0  0  0  0  0  0  0
  144.0158  136.0024  153.0006 H   0  0  0  0  0  0  0  0  0  0  0  0
  142.8626  136.6616  151.8621 H   0  0  0  0  0  0  0  0  0  0  0  0
  143.8322  135.6351  150.0708 H   0  0  0  0  0  0  0  0  0  0  0  0
  145.4505  136.0579  150.5545 H   0  0  0  0  0  0  0  0  0  0  0  0
  146.0086  133.7875  149.6633 H   0  0  0  0  0  0  0  0  0  0  0  0
  146.8509  134.2697  151.1192 H   0  0  0  0  0  0  0  0  0  0  0  0
  147.1250  131.8321  150.6687 H   0  0  0  0  0  0  0  0  0  0  0  0
  146.3360  132.1108  152.2112 H   0  0  0  0  0  0  0  0  0  0  0  0
  143.0608  131.2792  150.8456 H   0  0  0  0  0  0  0  0  0  0  0  0
  143.8748  131.7783  152.3181 H   0  0  0  0  0  0  0  0  0  0  0  0
  142.7154  133.7208  151.2848 H   0  0  0  0  0  0  0  0  0  0  0  0
  143.5370  133.4463  149.7651 H   0  0  0  0  0  0  0  0  0  0  0  0
  148.5544  137.8688  152.4145 H   0  0  0  0  0  0  0  0  0  0  0  0
  1  2  1  0  0  0  0
  1 21  1  0  0  0  0
  1 22  1  0  0  0  0
  1 23  1  0  0  0  0
  2  3  1  0  0  0  0
  3 20  1  0  0  0  0
  3  4  2  0  0  0  0
  4  5  1  0  0  0  0
  4 24  1  0  0  0  0
  5  6  2  0  0  0  0
  5 25  1  0  0  0  0
  6  7  1  0  0  0  0
  6 19  1  0  0  0  0
  7  8  1  0  0  0  0
  7 26  1  0  0  0  0
  8  9  2  0  0  0  0
  8 10  1  0  0  0  0
 10 11  1  0  0  0  0
 10 27  1  0  0  0  0
 11 12  1  0  0  0  0
 11 28  1  0  0  0  0
 11 29  1  0  0  0  0
 12 13  1  0  0  0  0
 12 30  1  0  0  0  0
 12 31  1  0  0  0  0
 13 18  1  0  0  0  0
 13 14  1  0  0  0  0
 14 15  1  0  0  0  0
 14 32  1  0  0  0  0
 14 33  1  0  0  0  0
 15 16  1  0  0  0  0
 15 34  1  0  0  0  0
 15 35  1  0  0  0  0
 16 17  1  0  0  0  0
 17 18  1  0  0  0  0
 17 36  1  0  0  0  0
 17 37  1  0  0  0  0
 18 38  1  0  0  0  0
 18 39  1  0  0  0  0
 19 20  2  0  0  0  0
 19 40  1  0  0  0  0
M  END
> <s_m_source_file>
AV-unprocessed.smi

> <i_m_source_file_index>
1197

> <i_lp_mmshare_version>
43012

> <i_f3d_flags>
0

> <s_epik_input>
W0NIM11PYzFbY0hdW2NIXWMoW2NIXW4xKVtOSF1DKD1PKVtOSF1bQ0gyXVtDSDJdTjJbQ0gyXVtDSDJdT1tDSDJdW0NIMl0y

> <s_epik_cmdline>
J2VwaWtfcHl0aG9uJywgJy1waCcsICc3LjAnLCAnLXRuJywgJzgnLCAnLW1hJywgJzIwMCcsICctbWV0YWxfYmluZGluZycsICctaW1hZScsICc8aW5maWxlLm1hZT4nLCAnLW9tYWUnLCAnPG91dGZpbGUubWFlPic=

> <r_lp_tautomer_probability>
1

> <r_epik_Ionization_Penalty>
0.266083

> <r_epik_Ionization_Penalty_Charging>
0

> <r_epik_Ionization_Penalty_Neutral>
0.266083

> <r_epik_State_Penalty>
0.257924

> <r_epik_Charging_Adjusted_Penalty>
0.257924

> <i_epik_Tot_Q>
0

> <i_epik_Tot_abs_Q>
0

> <r_epik_Metal_State_Penalty>
0.257922

> <b_epik_Metal_Only>
0

> <s_lp_Force_Field>
OPLS_2005

> <r_lp_Energy>
24.2104

> <b_lp_Chiralities_Consistent>
1

> <s_lp_Variant>
AV-unprocessed.smi:1197-1

> <Gold.Version>
5.8.1

> <Gold.Id.Protein>
6NUR|6NUR_protein|mol2

> <Gold.PLP.Fitness>
41.7428

> <Gold.PLP.PLP>
-33.8109

> <Gold.PLP.part.hbond>
-4.0000

> <Gold.PLP.part.metal>
0.0000

> <Gold.PLP.part.buried>
-2.3176

> <Gold.PLP.part.nonpolar>
-29.6826

> <Gold.PLP.part.repulsive>
2.7846

> <Gold.PLP.ligand.clash>
0.0000

> <Gold.PLP.ligand.torsion>
0.9251

> <Gold.PLP.Chemscore.Hbond>
2.2808

> <Gold.PLP.Chemscore.CHOScore>
0.9583

> <Gold.PLP.Chemscore.Metal>
0.0000

> <Gold.Chemscore.Hbonds>
donor molecule, donor type, donor heavy atom, donor atom, acceptor molecule, acceptor atom, score
      L1  H     7    26       P1 10175  1.00
      L1  H    10    27       P1 10175  1.00
      L1  C    19    40       P1  7948  0.29

> <Gold.PLP.Chemscore.Internal.Correction>
0.0650

> <Gold.Rescore>
     Score         DG    S(hbond)    S(metal)    S(lipo)     H(rot)  DE(clash)    DE(int)     intcor
     11.91     -16.32       1.97        0.00      74.90       1.76       1.38       3.04       ----

> <Gold.Chemscore.Fitness>
11.9073

> <Gold.Chemscore.DG>
-16.3225

> <Gold.Chemscore.ZeroCoef>
-5.4800

> <Gold.Chemscore.Hbond>
1.9734

> <Gold.Chemscore.Metal>
0.0000

> <Gold.Chemscore.Lipo>
74.9041

> <Gold.Chemscore.Internal_Hbond>
0.0000

> <Gold.Chemscore.DEClash>
1.3769

> <Gold.Chemscore.DEInternal>
3.0384

> <Gold.Chemscore.Rot>
1.7626

> <Gold.Chemscore.Internal.Correction>
   9.000000E+99

> <Gold.Chemscore.Hbonds>
donor molecule, donor type, donor heavy atom, donor atom, acceptor molecule, acceptor atom, score
      L1  H     7    26       P1 10175  0.91
      L1  H    10    27       P1 10175  0.98

> <Gold.Chemscore.Hbond.Weighted>
-6.5911

> <Gold.Chemscore.Metal.Weighted>
-0.0000

> <Gold.Chemscore.Lipo.Weighted>
-8.7638

> <Gold.Chemscore.Internal_Hbond.Weighted>
0.0000

> <Gold.Chemscore.DEClash.Weighted>
1.3769

> <Gold.Chemscore.DEInternal.Weighted>
3.0384

> <Gold.Chemscore.Rot.Weighted>
4.5123

> <Gold.Chemscore.Internal.Correction.Weighted>
   9.000000E+99

> <Gold.Protein.RotatedTorsions>
[ 6907 6896 6895 6894 ] final   82.71 input  -60.11 | X-H torsion
[ 7974 7965 7964 7962 ] final  -47.22 input  175.53 | X-H torsion
[ 8008 7997 7996 7995 ] final    5.63 input   59.86 | X-H torsion
[ 10167 10162 10161 10158 ] final -108.08 input  -65.29 | X-H torsion
[ 10718 10713 10712 10709 ] final  118.05 input   66.30 | X-H torsion
[ 10763 10752 10751 10750 ] final -130.55 input  -60.55 | X-H torsion
[ 11005 11000 10999 10996 ] final    8.36 input  -57.11 | X-H torsion

> <Gold.Protein.ActiveResidues>
 VAL166  LYS551  ARG553  GLY616  TRP617  ASP618  TYR619  PRO620  LYS621  CYS622 
 ASP623  PHE694  ASN695  SER759  ASP760  ASP761  ALA762  ILE779  LEU786  VAL792 
 PHE793  MET794  SER795  GLU796  ALA797  LYS798  CYS799  TRP800  GLU811  SER814 

> <Gold.Protein.RotatedAtoms>
  152.5307  134.3008  159.9077 H   0  0  0  0  0  0  0  0  0  0  0  0  # atno 6907 bound_to 6896
  151.2959  133.4138  159.2644 H   0  0  0  0  0  0  0  0  0  0  0  0  # atno 6908 bound_to 6896
  151.0161  134.9449  159.8091 H   0  0  0  0  0  0  0  0  0  0  0  0  # atno 6909 bound_to 6896
  145.9639  140.7452  142.9444 H   0  0  0  0  0  0  0  0  0  0  0  0  # atno 7974 bound_to 7965
  154.7308  140.2730  155.6457 H   0  0  0  0  0  0  0  0  0  0  0  0  # atno 8008 bound_to 7997
  156.2849  140.2716  156.1933 H   0  0  0  0  0  0  0  0  0  0  0  0  # atno 8009 bound_to 7997
  155.0384  140.0371  157.2490 H   0  0  0  0  0  0  0  0  0  0  0  0  # atno 8010 bound_to 7997
  140.1700  143.4050  152.1362 H   0  0  0  0  0  0  0  0  0  0  0  0  # atno 10167 bound_to 10162
  157.6056  131.1044  150.7701 H   0  0  0  0  0  0  0  0  0  0  0  0  # atno 10718 bound_to 10713
  154.8755  135.3859  154.4102 H   0  0  0  0  0  0  0  0  0  0  0  0  # atno 10763 bound_to 10752
  153.4817  135.7030  153.5939 H   0  0  0  0  0  0  0  0  0  0  0  0  # atno 10764 bound_to 10752
  153.4352  135.3869  155.2162 H   0  0  0  0  0  0  0  0  0  0  0  0  # atno 10765 bound_to 10752
  140.5378  134.0404  155.7894 H   0  0  0  0  0  0  0  0  0  0  0  0  # atno 11005 bound_to 11000
  144.6821  140.2636  143.7315 LP  0  0  0  0  0  0  0  0  0  0  0  0  # atno 17320 bound_to 7965
  145.8002  139.1961  143.2052 LP  0  0  0  0  0  0  0  0  0  0  0  0  # atno 17321 bound_to 7965
  139.5342  144.7192  151.4950 LP  0  0  0  0  0  0  0  0  0  0  0  0  # atno 17342 bound_to 10162
  140.6588  143.8542  150.6865 LP  0  0  0  0  0  0  0  0  0  0  0  0  # atno 17343 bound_to 10162
  156.8090  130.4946  149.5358 LP  0  0  0  0  0  0  0  0  0  0  0  0  # atno 17370 bound_to 10713
  156.1142  130.6062  151.0094 LP  0  0  0  0  0  0  0  0  0  0  0  0  # atno 17371 bound_to 10713
  141.1244  133.9407  157.2664 LP  0  0  0  0  0  0  0  0  0  0  0  0  # atno 17394 bound_to 11000
  139.9520  135.0173  156.9020 LP  0  0  0  0  0  0  0  0  0  0  0  0  # atno 17395 bound_to 11000

$$$$
