AV-unprocessed.smi:1527|AV-procd|sdf|6150|dock5
  -GOLD-   22720 6293D 1   1.00000     0.00000
 Structure written by MMmdl.
 31 31  0  0  0  0  0  0  0  0  1 V2000
  153.1741  142.3254  161.8123 C   0  0  0  0  0  0  0  0  0  0  0  0
  153.1015  142.3224  160.2782 C   0  0  0  0  0  0  0  0  0  0  0  0
  151.8381  142.9999  159.7159 C   0  0  1  0  0  0  0  0  0  0  0  0
  151.8178  144.5053  160.0244 C   0  0  0  0  0  0  0  0  0  0  0  0
  151.7566  142.7814  158.2750 N   0  0  0  0  0  0  0  0  0  0  0  0
  150.8567  142.0094  157.6421 C   0  0  0  0  0  0  0  0  0  0  0  0
  149.9566  141.4126  158.2321 O   0  0  0  0  0  0  0  0  0  0  0  0
  150.9718  141.8691  156.1139 C   0  0  0  0  0  0  0  0  0  0  0  0
  150.9773  140.4828  155.6173 N   0  0  0  0  0  0  0  0  0  0  0  0
  149.9731  140.2055  154.7020 N   0  0  0  0  0  0  0  0  0  0  0  0
  149.8812  139.0284  154.1820 C   0  0  0  0  0  0  0  0  0  0  0  0
  148.8737  138.7974  153.2777 O   0  0  0  0  0  0  0  0  0  0  0  0
  150.8108  137.9784  154.5377 C   0  0  0  0  0  0  0  0  0  0  0  0
  151.7845  138.2572  155.4317 C   0  0  0  0  0  0  0  0  0  0  0  0
  151.9191  139.5828  156.0381 C   0  0  0  0  0  0  0  0  0  0  0  0
  152.8043  139.8682  156.8440 O   0  0  0  0  0  0  0  0  0  0  0  0
  148.9594  137.8896  153.0310 H   0  0  0  0  0  0  0  0  0  0  0  0
  154.1085  141.8808  162.1555 H   0  0  0  0  0  0  0  0  0  0  0  0
  152.3574  141.7549  162.2555 H   0  0  0  0  0  0  0  0  0  0  0  0
  153.1256  143.3409  162.2062 H   0  0  0  0  0  0  0  0  0  0  0  0
  153.9837  142.8305  159.8874 H   0  0  0  0  0  0  0  0  0  0  0  0
  153.1603  141.2942  159.9188 H   0  0  0  0  0  0  0  0  0  0  0  0
  150.9714  142.5401  160.1947 H   0  0  0  0  0  0  0  0  0  0  0  0
  151.8712  144.6857  161.0982 H   0  0  0  0  0  0  0  0  0  0  0  0
  150.9018  144.9715  159.6600 H   0  0  0  0  0  0  0  0  0  0  0  0
  152.6604  145.0179  159.5588 H   0  0  0  0  0  0  0  0  0  0  0  0
  152.4585  143.2371  157.7101 H   0  0  0  0  0  0  0  0  0  0  0  0
  150.1592  142.4309  155.6499 H   0  0  0  0  0  0  0  0  0  0  0  0
  151.8859  142.3769  155.8011 H   0  0  0  0  0  0  0  0  0  0  0  0
  150.7208  136.9975  154.0948 H   0  0  0  0  0  0  0  0  0  0  0  0
  152.4854  137.4827  155.7068 H   0  0  0  0  0  0  0  0  0  0  0  0
  1  2  1  0  0  0  0
  1 18  1  0  0  0  0
  1 19  1  0  0  0  0
  1 20  1  0  0  0  0
  2  3  1  0  0  0  0
  2 21  1  0  0  0  0
  2 22  1  0  0  0  0
  3  4  1  0  0  0  0
  3  5  1  0  0  0  0
  3 23  1  0  0  0  0
  4 24  1  0  0  0  0
  4 25  1  0  0  0  0
  4 26  1  0  0  0  0
  5  6  1  0  0  0  0
  5 27  1  0  0  0  0
  6  7  2  0  0  0  0
  6  8  1  0  0  0  0
  8 28  1  0  0  0  0
  8 29  1  0  0  0  0
  8  9  1  0  0  0  0
  9 10  1  0  0  0  0
  9 15  1  0  0  0  0
 10 11  2  0  0  0  0
 11 12  1  0  0  0  0
 11 13  1  0  0  0  0
 12 17  1  0  0  0  0
 13 30  1  0  0  0  0
 13 14  2  0  0  0  0
 14 31  1  0  0  0  0
 14 15  1  0  0  0  0
 15 16  2  0  0  0  0
M  END
> <s_m_source_file>
AV-unprocessed.smi

> <i_m_source_file_index>
1527

> <i_lp_mmshare_version>
43012

> <i_f3d_flags>
0

> <s_epik_input>
W0NIM11bQ0gyXVtDQEhdKFtDSDNdKVtOSF1DKD1PKVtDSDJdbjFbbkhdYyg9TylbY0hdW2NIXWMxPU8=

> <s_epik_cmdline>
J2VwaWtfcHl0aG9uJywgJy1waCcsICc3LjAnLCAnLXRuJywgJzgnLCAnLW1hJywgJzIwMCcsICctbWV0YWxfYmluZGluZycsICctaW1hZScsICc8aW5maWxlLm1hZT4nLCAnLW9tYWUnLCAnPG91dGZpbGUubWFlPic=

> <r_lp_tautomer_probability>
0.9996

> <r_epik_Ionization_Penalty>
2.12171

> <r_epik_Ionization_Penalty_Charging>
3.79077e-08

> <r_epik_Ionization_Penalty_Neutral>
2.12171

> <r_epik_State_Penalty>
1.69857

> <r_epik_Charging_Adjusted_Penalty>
1.69857

> <i_epik_Tot_Q>
0

> <i_epik_Tot_abs_Q>
0

> <r_epik_Metal_State_Penalty>
1.69857

> <b_epik_Metal_Only>
0

> <s_lp_Force_Field>
OPLS_2005

> <r_lp_Energy>
12.9148

> <b_lp_Chiralities_Consistent>
1

> <s_lp_Variant>
AV-unprocessed.smi:1527-4

> <Gold.Version>
5.8.1

> <Gold.Id.Protein>
6NUR|6NUR_protein|mol2

> <Gold.PLP.Fitness>
43.3494

> <Gold.PLP.PLP>
-37.6572

> <Gold.PLP.part.hbond>
-3.8402

> <Gold.PLP.part.metal>
0.0000

> <Gold.PLP.part.buried>
-2.7894

> <Gold.PLP.part.nonpolar>
-29.6364

> <Gold.PLP.part.repulsive>
0.1706

> <Gold.PLP.ligand.clash>
0.0000

> <Gold.PLP.ligand.torsion>
0.1628

> <Gold.PLP.Chemscore.Hbond>
2.0000

> <Gold.PLP.Chemscore.CHOScore>
0.0000

> <Gold.PLP.Chemscore.Metal>
0.0000

> <Gold.Chemscore.Hbonds>
donor molecule, donor type, donor heavy atom, donor atom, acceptor molecule, acceptor atom, score
      L1  H    12    17       P1  7948  1.00
      P1  H  7997  8009       L1    16  1.00

> <Gold.PLP.Chemscore.Internal.Correction>
0.0178

> <Gold.Rescore>
     Score         DG    S(hbond)    S(metal)    S(lipo)     H(rot)  DE(clash)    DE(int)     intcor
     12.90     -13.08       1.89        0.00      67.37       2.58       0.03       0.16       ----

> <Gold.Chemscore.Fitness>
12.9005

> <Gold.Chemscore.DG>
-13.0823

> <Gold.Chemscore.ZeroCoef>
-5.4800

> <Gold.Chemscore.Hbond>
1.8942

> <Gold.Chemscore.Metal>
0.0000

> <Gold.Chemscore.Lipo>
67.3675

> <Gold.Chemscore.Internal_Hbond>
0.0000

> <Gold.Chemscore.DEClash>
0.0258

> <Gold.Chemscore.DEInternal>
0.1560

> <Gold.Chemscore.Rot>
2.5806

> <Gold.Chemscore.Internal.Correction>
   9.000000E+99

> <Gold.Chemscore.Hbonds>
donor molecule, donor type, donor heavy atom, donor atom, acceptor molecule, acceptor atom, score
      L1  H    12    17       P1  7948  0.95
      P1  H  7997  8009       L1    16  0.98

> <Gold.Chemscore.Hbond.Weighted>
-6.3265

> <Gold.Chemscore.Metal.Weighted>
-0.0000

> <Gold.Chemscore.Lipo.Weighted>
-7.8820

> <Gold.Chemscore.Internal_Hbond.Weighted>
0.0000

> <Gold.Chemscore.DEClash.Weighted>
0.0258

> <Gold.Chemscore.DEInternal.Weighted>
0.1560

> <Gold.Chemscore.Rot.Weighted>
6.6063

> <Gold.Chemscore.Internal.Correction.Weighted>
   9.000000E+99

> <Gold.Protein.RotatedTorsions>
[ 6907 6896 6895 6894 ] final   56.59 input  -60.11 | X-H torsion
[ 7974 7965 7964 7962 ] final    5.19 input  175.53 | X-H torsion
[ 8008 7997 7996 7995 ] final -176.46 input   59.86 | X-H torsion
[ 10167 10162 10161 10158 ] final -164.67 input  -65.29 | X-H torsion
[ 10718 10713 10712 10709 ] final   15.34 input   66.30 | X-H torsion
[ 10763 10752 10751 10750 ] final  140.15 input  -60.55 | X-H torsion
[ 11005 11000 10999 10996 ] final   79.13 input  -57.11 | X-H torsion

> <Gold.Protein.ActiveResidues>
 VAL166  LYS551  ARG553  GLY616  TRP617  ASP618  TYR619  PRO620  LYS621  CYS622 
 ASP623  PHE694  ASN695  SER759  ASP760  ASP761  ALA762  ILE779  LEU786  VAL792 
 PHE793  MET794  SER795  GLU796  ALA797  LYS798  CYS799  TRP800  GLU811  SER814 

> <Gold.Protein.RotatedAtoms>
  152.3651  134.6816  160.0194 H   0  0  0  0  0  0  0  0  0  0  0  0  # atno 6907 bound_to 6896
  151.7127  133.3307  159.3303 H   0  0  0  0  0  0  0  0  0  0  0  0  # atno 6908 bound_to 6896
  150.7632  134.6452  159.6303 H   0  0  0  0  0  0  0  0  0  0  0  0  # atno 6909 bound_to 6896
  146.2441  140.0421  142.8381 H   0  0  0  0  0  0  0  0  0  0  0  0  # atno 7974 bound_to 7965
  155.9951  140.1209  157.0601 H   0  0  0  0  0  0  0  0  0  0  0  0  # atno 8008 bound_to 7997
  154.4224  140.1118  156.5688 H   0  0  0  0  0  0  0  0  0  0  0  0  # atno 8009 bound_to 7997
  155.6289  140.3473  155.4678 H   0  0  0  0  0  0  0  0  0  0  0  0  # atno 8010 bound_to 7997
  139.6234  144.0579  152.1953 H   0  0  0  0  0  0  0  0  0  0  0  0  # atno 10167 bound_to 10162
  157.0520  130.6274  149.5770 H   0  0  0  0  0  0  0  0  0  0  0  0  # atno 10718 bound_to 10713
  153.9179  135.3004  155.3448 H   0  0  0  0  0  0  0  0  0  0  0  0  # atno 10763 bound_to 10752
  154.7590  135.4943  153.9432 H   0  0  0  0  0  0  0  0  0  0  0  0  # atno 10764 bound_to 10752
  153.1157  135.6770  153.9524 H   0  0  0  0  0  0  0  0  0  0  0  0  # atno 10765 bound_to 10752
  139.9185  134.7818  156.1739 H   0  0  0  0  0  0  0  0  0  0  0  0  # atno 11005 bound_to 11000
  145.1060  140.9375  143.4685 LP  0  0  0  0  0  0  0  0  0  0  0  0  # atno 17320 bound_to 7965
  145.0624  139.3095  143.5873 LP  0  0  0  0  0  0  0  0  0  0  0  0  # atno 17321 bound_to 7965
  140.0227  144.6141  150.7553 LP  0  0  0  0  0  0  0  0  0  0  0  0  # atno 17342 bound_to 10162
  140.7396  143.2794  151.3645 LP  0  0  0  0  0  0  0  0  0  0  0  0  # atno 17343 bound_to 10162
  156.0004  130.5082  150.7643 LP  0  0  0  0  0  0  0  0  0  0  0  0  # atno 17370 bound_to 10713
  157.5022  131.0919  151.0300 LP  0  0  0  0  0  0  0  0  0  0  0  0  # atno 17371 bound_to 10713
  141.0683  133.6808  156.2089 LP  0  0  0  0  0  0  0  0  0  0  0  0  # atno 17394 bound_to 11000
  140.6548  134.5029  157.5580 LP  0  0  0  0  0  0  0  0  0  0  0  0  # atno 17395 bound_to 11000

$$$$
