AV-unprocessed.smi:2061|AV-procd|sdf|8390|dock7
  -GOLD-   2272011 73D 1   1.00000     0.00000
 Structure written by MMmdl.
 45 46  0  0  0  0  0  0  0  0  3 V2000
  146.8058  133.7714  162.0806 C   0  0  0  0  0  0  0  0  0  0  0  0
  147.2541  134.9239  161.2494 C   0  0  0  0  0  0  0  0  0  0  0  0
  147.8517  135.0098  160.0237 C   0  0  0  0  0  0  0  0  0  0  0  0
  147.9989  136.4100  159.8351 C   0  0  0  0  0  0  0  0  0  0  0  0
  148.5883  136.9220  158.6493 N   0  0  0  0  0  0  0  0  0  0  0  0
  149.3850  136.2943  157.7652 C   0  0  0  0  0  0  0  0  0  0  0  0
  149.6666  135.0997  157.9171 O   0  0  0  0  0  0  0  0  0  0  0  0
  149.7912  137.1203  156.7625 N   0  5  0  0  0  0  0  0  0  0  0  0
  149.4329  136.9583  155.3536 C   0  0  0  0  0  0  0  0  0  0  0  0
  150.1615  138.0153  154.4821 C   0  0  2  0  0  0  0  0  0  0  0  0
  151.7013  137.8483  154.4307 C   0  0  0  0  0  0  0  0  0  0  0  0
  149.7390  139.3953  154.8750 N   0  3  1  0  0  0  0  0  0  0  0  0
  148.2996  139.5845  155.2061 C   0  0  0  0  0  0  0  0  0  0  0  0
  147.9792  141.0789  155.3930 C   0  0  2  0  0  0  0  0  0  0  0  0
  147.9709  141.8740  154.0753 C   0  0  0  0  0  0  0  0  0  0  0  0
  148.8559  141.6472  156.3670 O   0  0  0  0  0  0  0  0  0  0  0  0
  150.2462  141.4954  156.0876 C   0  0  1  0  0  0  0  0  0  0  0  0
  151.0312  142.1448  157.2326 C   0  0  0  0  0  0  0  0  0  0  0  0
  150.5860  140.0022  155.9296 C   0  0  0  0  0  0  0  0  0  0  0  0
  147.5306  137.1145  160.8549 N   0  0  0  0  0  0  0  0  0  0  0  0
  147.0510  136.1661  161.7660 O   0  0  0  0  0  0  0  0  0  0  0  0
  147.1662  132.8295  161.6667 H   0  0  0  0  0  0  0  0  0  0  0  0
  145.7174  133.7276  162.1244 H   0  0  0  0  0  0  0  0  0  0  0  0
  147.1837  133.8589  163.0994 H   0  0  0  0  0  0  0  0  0  0  0  0
  148.1373  134.2006  159.3683 H   0  0  0  0  0  0  0  0  0  0  0  0
  148.3884  137.8901  158.4468 H   0  0  0  0  0  0  0  0  0  0  0  0
  149.7036  135.9682  154.9827 H   0  0  0  0  0  0  0  0  0  0  0  0
  148.3572  137.0435  155.1977 H   0  0  0  0  0  0  0  0  0  0  0  0
  149.7961  137.8575  153.4658 H   0  0  0  0  0  0  0  0  0  0  0  0
  151.9909  136.8890  153.9981 H   0  0  0  0  0  0  0  0  0  0  0  0
  152.1668  137.9120  155.4157 H   0  0  0  0  0  0  0  0  0  0  0  0
  152.1536  138.6179  153.8049 H   0  0  0  0  0  0  0  0  0  0  0  0
  147.6599  139.1650  154.4290 H   0  0  0  0  0  0  0  0  0  0  0  0
  148.0633  139.0546  156.1298 H   0  0  0  0  0  0  0  0  0  0  0  0
  146.9753  141.1531  155.8121 H   0  0  0  0  0  0  0  0  0  0  0  0
  147.2017  141.4952  153.4017 H   0  0  0  0  0  0  0  0  0  0  0  0
  148.9212  141.8107  153.5457 H   0  0  0  0  0  0  0  0  0  0  0  0
  147.7585  142.9274  154.2581 H   0  0  0  0  0  0  0  0  0  0  0  0
  150.4941  142.0246  155.1672 H   0  0  0  0  0  0  0  0  0  0  0  0
  152.1058  142.0657  157.0668 H   0  0  0  0  0  0  0  0  0  0  0  0
  150.8038  141.6696  158.1873 H   0  0  0  0  0  0  0  0  0  0  0  0
  150.7866  143.2035  157.3211 H   0  0  0  0  0  0  0  0  0  0  0  0
  150.4371  139.4716  156.8712 H   0  0  0  0  0  0  0  0  0  0  0  0
  151.6403  139.9027  155.6676 H   0  0  0  0  0  0  0  0  0  0  0  0
  149.9100  139.9513  154.0490 H   0  0  0  0  0  0  0  0  0  0  0  0
  1  2  1  0  0  0  0
  1 22  1  0  0  0  0
  1 23  1  0  0  0  0
  1 24  1  0  0  0  0
  2 21  1  0  0  0  0
  2  3  2  0  0  0  0
  3  4  1  0  0  0  0
  3 25  1  0  0  0  0
  4  5  1  0  0  0  0
  4 20  2  0  0  0  0
  5  6  1  0  0  0  0
  5 26  1  0  0  0  0
  6  7  2  0  0  0  0
  6  8  1  0  0  0  0
  8  9  1  0  0  0  0
  9 10  1  0  0  0  0
  9 27  1  0  0  0  0
  9 28  1  0  0  0  0
 10 11  1  0  0  0  0
 10 12  1  0  0  0  0
 10 29  1  0  0  0  0
 11 30  1  0  0  0  0
 11 31  1  0  0  0  0
 11 32  1  0  0  0  0
 12 19  1  0  0  0  0
 12 13  1  0  0  0  0
 12 45  1  0  0  0  0
 13 14  1  0  0  0  0
 13 33  1  0  0  0  0
 13 34  1  0  0  0  0
 14 15  1  0  0  0  0
 14 16  1  0  0  0  0
 14 35  1  0  0  0  0
 15 36  1  0  0  0  0
 15 37  1  0  0  0  0
 15 38  1  0  0  0  0
 16 17  1  0  0  0  0
 17 18  1  0  0  0  0
 17 19  1  0  0  0  0
 17 39  1  0  0  0  0
 18 40  1  0  0  0  0
 18 41  1  0  0  0  0
 18 42  1  0  0  0  0
 19 43  1  0  0  0  0
 19 44  1  0  0  0  0
 20 21  1  0  0  0  0
M  CHG  1   8  -1
M  CHG  1  12   1
M  END
> <s_m_source_file>
AV-unprocessed.smi

> <i_m_source_file_index>
2061

> <i_lp_mmshare_version>
43012

> <i_f3d_flags>
0

> <s_epik_input>
W0NIM11jMVtjSF1jKG5vMSlbTkhdQyg9TylbTkhdW0NIMl1bQ0BIXShbQ0gzXSlOMltDSDJdW0NAQEhdKFtDSDNdKU9bQ0BASF0oW0NIM10pW0NIMl0y

> <s_epik_cmdline>
J2VwaWtfcHl0aG9uJywgJy1waCcsICc3LjAnLCAnLXRuJywgJzgnLCAnLW1hJywgJzIwMCcsICctbWV0YWxfYmluZGluZycsICctaW1hZScsICc8aW5maWxlLm1hZT4nLCAnLW9tYWUnLCAnPG91dGZpbGUubWFlPic=

> <r_epik_Ionization_Penalty>
6.8073

> <r_epik_Ionization_Penalty_Charging>
6.80729

> <r_epik_Ionization_Penalty_Neutral>
5.65391e-06

> <r_epik_State_Penalty>
7.47323

> <r_epik_Charging_Adjusted_Penalty>
14.2805

> <i_epik_Tot_Q>
0

> <i_epik_Tot_abs_Q>
2

> <r_epik_Metal_State_Penalty>
3.40035

> <b_epik_Metal_Only>
1

> <s_lp_Force_Field>
OPLS_2005

> <r_lp_Energy>
19.801

> <b_lp_Chiralities_Consistent>
1

> <s_lp_Variant>
AV-unprocessed.smi:2061-31

> <Gold.Version>
5.8.1

> <Gold.Id.Protein>
6NUR|6NUR_protein|mol2

> <Gold.PLP.Fitness>
39.1886

> <Gold.PLP.PLP>
-33.1148

> <Gold.PLP.part.hbond>
-3.0000

> <Gold.PLP.part.metal>
0.0000

> <Gold.PLP.part.buried>
-5.8867

> <Gold.PLP.part.nonpolar>
-25.6019

> <Gold.PLP.part.repulsive>
0.5547

> <Gold.PLP.ligand.clash>
0.0000

> <Gold.PLP.ligand.torsion>
1.1460

> <Gold.PLP.Chemscore.Hbond>
2.7360

> <Gold.PLP.Chemscore.CHOScore>
0.0000

> <Gold.PLP.Chemscore.Metal>
0.0000

> <Gold.Chemscore.Hbonds>
donor molecule, donor type, donor heavy atom, donor atom, acceptor molecule, acceptor atom, score
      P1  H  6896  6909       L1     7  1.00
      P1  H  6931  6943       L1    20  0.60
      P1  H  6934  6947       L1    20  1.00

> <Gold.PLP.Chemscore.Internal.Correction>
0.1578

> <Gold.Rescore>
     Score         DG    S(hbond)    S(metal)    S(lipo)     H(rot)  DE(clash)    DE(int)     intcor
     16.17     -18.81       2.65        0.00      72.30       1.56       0.02       2.62       ----

> <Gold.Chemscore.Fitness>
16.1680

> <Gold.Chemscore.DG>
-18.8058

> <Gold.Chemscore.ZeroCoef>
-5.4800

> <Gold.Chemscore.Hbond>
2.6488

> <Gold.Chemscore.Metal>
0.0000

> <Gold.Chemscore.Lipo>
72.3042

> <Gold.Chemscore.Internal_Hbond>
0.0000

> <Gold.Chemscore.DEClash>
0.0191

> <Gold.Chemscore.DEInternal>
2.6187

> <Gold.Chemscore.Rot>
1.5550

> <Gold.Chemscore.Internal.Correction>
   9.000000E+99

> <Gold.Chemscore.Hbonds>
donor molecule, donor type, donor heavy atom, donor atom, acceptor molecule, acceptor atom, score
      P1  H  6896  6909       L1     7  0.94
      P1  H  6931  6943       L1    20  0.31
      P1  H  6934  6947       L1    20  0.94

> <Gold.Chemscore.Hbond.Weighted>
-8.8471

> <Gold.Chemscore.Metal.Weighted>
-0.0000

> <Gold.Chemscore.Lipo.Weighted>
-8.4596

> <Gold.Chemscore.Internal_Hbond.Weighted>
0.0000

> <Gold.Chemscore.DEClash.Weighted>
0.0191

> <Gold.Chemscore.DEInternal.Weighted>
2.6187

> <Gold.Chemscore.Rot.Weighted>
3.9809

> <Gold.Chemscore.Internal.Correction.Weighted>
   9.000000E+99

> <Gold.Protein.RotatedTorsions>
[ 6907 6896 6895 6894 ] final   41.58 input  -60.11 | X-H torsion
[ 7974 7965 7964 7962 ] final  165.01 input  175.53 | X-H torsion
[ 8008 7997 7996 7995 ] final  -17.14 input   59.86 | X-H torsion
[ 10167 10162 10161 10158 ] final -144.01 input  -65.29 | X-H torsion
[ 10718 10713 10712 10709 ] final -142.99 input   66.30 | X-H torsion
[ 10763 10752 10751 10750 ] final  100.15 input  -60.55 | X-H torsion
[ 11005 11000 10999 10996 ] final  169.37 input  -57.11 | X-H torsion

> <Gold.Protein.ActiveResidues>
 VAL166  LYS551  ARG553  GLY616  TRP617  ASP618  TYR619  PRO620  LYS621  CYS622 
 ASP623  PHE694  ASN695  SER759  ASP760  ASP761  ALA762  ILE779  LEU786  VAL792 
 PHE793  MET794  SER795  GLU796  ALA797  LYS798  CYS799  TRP800  GLU811  SER814 

> <Gold.Protein.RotatedAtoms>
  152.1971  134.8621  160.0511 H   0  0  0  0  0  0  0  0  0  0  0  0  # atno 6907 bound_to 6896
  151.9488  133.3655  159.4000 H   0  0  0  0  0  0  0  0  0  0  0  0  # atno 6908 bound_to 6896
  150.6947  134.4286  159.5282 H   0  0  0  0  0  0  0  0  0  0  0  0  # atno 6909 bound_to 6896
  144.7520  139.8409  143.6363 H   0  0  0  0  0  0  0  0  0  0  0  0  # atno 7974 bound_to 7965
  154.5001  140.2151  155.9365 H   0  0  0  0  0  0  0  0  0  0  0  0  # atno 8008 bound_to 7997
  156.1422  140.3177  155.8481 H   0  0  0  0  0  0  0  0  0  0  0  0  # atno 8009 bound_to 7997
  155.4099  140.0490  157.3023 H   0  0  0  0  0  0  0  0  0  0  0  0  # atno 8010 bound_to 7997
  139.7939  143.7927  152.2652 H   0  0  0  0  0  0  0  0  0  0  0  0  # atno 10167 bound_to 10162
  156.3526  130.7696  151.1851 H   0  0  0  0  0  0  0  0  0  0  0  0  # atno 10718 bound_to 10713
  153.3103  135.4089  155.1330 H   0  0  0  0  0  0  0  0  0  0  0  0  # atno 10763 bound_to 10752
  154.8574  135.3563  154.5732 H   0  0  0  0  0  0  0  0  0  0  0  0  # atno 10764 bound_to 10752
  153.6161  135.7066  153.5387 H   0  0  0  0  0  0  0  0  0  0  0  0  # atno 10765 bound_to 10752
  140.2970  134.7626  157.3885 H   0  0  0  0  0  0  0  0  0  0  0  0  # atno 11005 bound_to 11000
  146.1483  139.4559  143.0065 LP  0  0  0  0  0  0  0  0  0  0  0  0  # atno 17320 bound_to 7965
  145.6909  141.0164  143.1555 LP  0  0  0  0  0  0  0  0  0  0  0  0  # atno 17321 bound_to 7965
  139.8027  144.7368  150.9803 LP  0  0  0  0  0  0  0  0  0  0  0  0  # atno 17342 bound_to 10162
  140.7820  143.4329  151.0667 LP  0  0  0  0  0  0  0  0  0  0  0  0  # atno 17343 bound_to 10162
  157.7463  131.0423  150.4688 LP  0  0  0  0  0  0  0  0  0  0  0  0  # atno 17370 bound_to 10713
  156.4886  130.4090  149.6420 LP  0  0  0  0  0  0  0  0  0  0  0  0  # atno 17371 bound_to 10713
  140.1143  134.5303  155.8238 LP  0  0  0  0  0  0  0  0  0  0  0  0  # atno 17394 bound_to 11000
  141.2135  133.6735  156.6748 LP  0  0  0  0  0  0  0  0  0  0  0  0  # atno 17395 bound_to 11000

$$$$
