AV-unprocessed.smi:1379|AV-procd|sdf|5599|dock7
  -GOLD-   22720 5203D 1   1.00000     0.00000
 Structure written by MMmdl.
 35 36  0  0  0  0  0  0  0  0  2 V2000
  154.6240  139.2373  161.6167 C   0  0  0  0  0  0  0  0  0  0  0  0
  155.2301  140.3983  161.0764 O   0  0  0  0  0  0  0  0  0  0  0  0
  154.2797  141.3993  160.7431 C   0  0  0  0  0  0  0  0  0  0  0  0
  153.5012  140.9755  159.4963 C   0  0  0  0  0  0  0  0  0  0  0  0
  153.7915  139.9168  158.9416 O   0  0  0  0  0  0  0  0  0  0  0  0
  152.5550  141.8321  159.0666 N   0  0  0  0  0  0  0  0  0  0  0  0
  151.6766  141.7143  157.9549 C   0  0  0  0  0  0  0  0  0  0  0  0
  151.5397  140.4404  157.3626 C   0  0  0  0  0  0  0  0  0  0  0  0
  150.6897  140.2710  156.2506 C   0  0  0  0  0  0  0  0  0  0  0  0
  149.9907  141.3875  155.7364 C   0  0  0  0  0  0  0  0  0  0  0  0
  149.1207  141.3281  154.6387 N   0  0  0  0  0  0  0  0  0  0  0  0
  148.8342  139.9907  154.1471 C   0  0  0  0  0  0  0  0  0  0  0  0
  147.5867  140.1344  153.2715 C   0  0  0  0  0  0  0  0  0  0  0  0
  146.9221  141.4339  153.7417 C   0  0  0  0  0  0  0  0  0  0  0  0
  147.8304  141.9602  154.8559 C   0  0  0  0  0  0  0  0  0  0  0  0
  150.1552  142.5923  156.3239 N   0  3  0  0  0  0  0  0  0  0  0  0
  150.9580  142.7973  157.3908 C   0  0  0  0  0  0  0  0  0  0  0  0
  155.3895  138.4957  161.8439 H   0  0  0  0  0  0  0  0  0  0  0  0
  153.9230  138.7924  160.9092 H   0  0  0  0  0  0  0  0  0  0  0  0
  154.0914  139.4655  162.5409 H   0  0  0  0  0  0  0  0  0  0  0  0
  153.5784  141.5488  161.5655 H   0  0  0  0  0  0  0  0  0  0  0  0
  154.7824  142.3494  160.5540 H   0  0  0  0  0  0  0  0  0  0  0  0
  152.4776  142.6913  159.5918 H   0  0  0  0  0  0  0  0  0  0  0  0
  152.0788  139.5923  157.7595 H   0  0  0  0  0  0  0  0  0  0  0  0
  150.5796  139.2936  155.8039 H   0  0  0  0  0  0  0  0  0  0  0  0
  149.6767  139.5933  153.5802 H   0  0  0  0  0  0  0  0  0  0  0  0
  148.6340  139.3085  154.9741 H   0  0  0  0  0  0  0  0  0  0  0  0
  147.8678  140.2208  152.2211 H   0  0  0  0  0  0  0  0  0  0  0  0
  146.9268  139.2718  153.3686 H   0  0  0  0  0  0  0  0  0  0  0  0
  146.8788  142.1475  152.9180 H   0  0  0  0  0  0  0  0  0  0  0  0
  145.9034  141.2746  154.0966 H   0  0  0  0  0  0  0  0  0  0  0  0
  147.4276  141.6836  155.8313 H   0  0  0  0  0  0  0  0  0  0  0  0
  147.9156  143.0468  154.8229 H   0  0  0  0  0  0  0  0  0  0  0  0
  150.9952  143.8194  157.7351 H   0  0  0  0  0  0  0  0  0  0  0  0
  149.6489  143.3907  155.9400 H   0  0  0  0  0  0  0  0  0  0  0  0
  1  2  1  0  0  0  0
  1 18  1  0  0  0  0
  1 19  1  0  0  0  0
  1 20  1  0  0  0  0
  2  3  1  0  0  0  0
  3  4  1  0  0  0  0
  3 21  1  0  0  0  0
  3 22  1  0  0  0  0
  4  5  2  0  0  0  0
  4  6  1  0  0  0  0
  6  7  1  0  0  0  0
  6 23  1  0  0  0  0
  7 17  1  0  0  0  0
  7  8  2  0  0  0  0
  8  9  1  0  0  0  0
  8 24  1  0  0  0  0
  9 10  2  0  0  0  0
  9 25  1  0  0  0  0
 10 11  1  0  0  0  0
 10 16  1  0  0  0  0
 11 15  1  0  0  0  0
 11 12  1  0  0  0  0
 12 13  1  0  0  0  0
 12 26  1  0  0  0  0
 12 27  1  0  0  0  0
 13 14  1  0  0  0  0
 13 28  1  0  0  0  0
 13 29  1  0  0  0  0
 14 15  1  0  0  0  0
 14 30  1  0  0  0  0
 14 31  1  0  0  0  0
 15 32  1  0  0  0  0
 15 33  1  0  0  0  0
 16 17  2  0  0  0  0
 16 35  1  0  0  0  0
 17 34  1  0  0  0  0
M  CHG  1  16   1
M  END
> <s_m_source_file>
AV-unprocessed.smi

> <i_m_source_file_index>
1379

> <i_lp_mmshare_version>
43012

> <i_f3d_flags>
0

> <s_epik_input>
W0NIM11PW0NIMl1DKD1PKVtOSF1jMVtjSF1bY0hdYyhuW2NIXTEpTjJbQ0gyXVtDSDJdW0NIMl1bQ0gyXTI=

> <s_epik_cmdline>
J2VwaWtfcHl0aG9uJywgJy1waCcsICc3LjAnLCAnLXRuJywgJzgnLCAnLW1hJywgJzIwMCcsICctbWV0YWxfYmluZGluZycsICctaW1hZScsICc8aW5maWxlLm1hZT4nLCAnLW9tYWUnLCAnPG91dGZpbGUubWFlPic=

> <r_lp_tautomer_probability>
0.999994

> <r_epik_Ionization_Penalty>
1.86748

> <r_epik_Ionization_Penalty_Charging>
1.86748

> <r_epik_Ionization_Penalty_Neutral>
2.87909e-06

> <r_epik_State_Penalty>
1.98622

> <r_epik_Charging_Adjusted_Penalty>
3.8537

> <i_epik_Tot_Q>
1

> <i_epik_Tot_abs_Q>
1

> <r_epik_Metal_State_Penalty>
2.01386

> <b_epik_Metal_Only>
0

> <s_lp_Force_Field>
OPLS_2005

> <r_lp_Energy>
42.4744

> <b_lp_Chiralities_Consistent>
1

> <s_lp_Variant>
AV-unprocessed.smi:1379-2

> <Gold.Version>
5.8.1

> <Gold.Id.Protein>
6NUR|6NUR_protein|mol2

> <Gold.PLP.Fitness>
38.4407

> <Gold.PLP.PLP>
-29.9581

> <Gold.PLP.part.hbond>
-2.2978

> <Gold.PLP.part.metal>
0.0000

> <Gold.PLP.part.buried>
-0.8900

> <Gold.PLP.part.nonpolar>
-27.1696

> <Gold.PLP.part.repulsive>
0.3225

> <Gold.PLP.ligand.clash>
0.0000

> <Gold.PLP.ligand.torsion>
0.2676

> <Gold.PLP.Chemscore.Hbond>
3.0000

> <Gold.PLP.Chemscore.CHOScore>
0.0000

> <Gold.PLP.Chemscore.Metal>
0.0000

> <Gold.Chemscore.Hbonds>
donor molecule, donor type, donor heavy atom, donor atom, acceptor molecule, acceptor atom, score
      L1  H    16    35       P1  8028  2.00
      P1  H  7997  8010       L1     5  1.00

> <Gold.PLP.Chemscore.Internal.Correction>
0.0179

> <Gold.Rescore>
     Score         DG    S(hbond)    S(metal)    S(lipo)     H(rot)  DE(clash)    DE(int)     intcor
     14.60     -16.37       1.98        0.00      68.24       1.44       0.10       1.67       ----

> <Gold.Chemscore.Fitness>
14.5974

> <Gold.Chemscore.DG>
-16.3701

> <Gold.Chemscore.ZeroCoef>
-5.4800

> <Gold.Chemscore.Hbond>
1.9759

> <Gold.Chemscore.Metal>
0.0000

> <Gold.Chemscore.Lipo>
68.2417

> <Gold.Chemscore.Internal_Hbond>
0.0000

> <Gold.Chemscore.DEClash>
0.1030

> <Gold.Chemscore.DEInternal>
1.6697

> <Gold.Chemscore.Rot>
1.4428

> <Gold.Chemscore.Internal.Correction>
   9.000000E+99

> <Gold.Chemscore.Hbonds>
donor molecule, donor type, donor heavy atom, donor atom, acceptor molecule, acceptor atom, score
      L1  H    16    35       P1  8028  0.96
      P1  H  7997  8010       L1     5  0.86

> <Gold.Chemscore.Hbond.Weighted>
-6.5995

> <Gold.Chemscore.Metal.Weighted>
-0.0000

> <Gold.Chemscore.Lipo.Weighted>
-7.9843

> <Gold.Chemscore.Internal_Hbond.Weighted>
0.0000

> <Gold.Chemscore.DEClash.Weighted>
0.1030

> <Gold.Chemscore.DEInternal.Weighted>
1.6697

> <Gold.Chemscore.Rot.Weighted>
3.6937

> <Gold.Chemscore.Internal.Correction.Weighted>
   9.000000E+99

> <Gold.Protein.RotatedTorsions>
[ 6907 6896 6895 6894 ] final   56.43 input  -60.11 | X-H torsion
[ 7974 7965 7964 7962 ] final   41.27 input  175.53 | X-H torsion
[ 8008 7997 7996 7995 ] final    9.56 input   59.86 | X-H torsion
[ 10167 10162 10161 10158 ] final   25.96 input  -65.29 | X-H torsion
[ 10718 10713 10712 10709 ] final   86.53 input   66.30 | X-H torsion
[ 10763 10752 10751 10750 ] final   38.46 input  -60.55 | X-H torsion
[ 11005 11000 10999 10996 ] final  169.36 input  -57.11 | X-H torsion

> <Gold.Protein.ActiveResidues>
 VAL166  LYS551  ARG553  GLY616  TRP617  ASP618  TYR619  PRO620  LYS621  CYS622 
 ASP623  PHE694  ASN695  SER759  ASP760  ASP761  ALA762  ILE779  LEU786  VAL792 
 PHE793  MET794  SER795  GLU796  ALA797  LYS798  CYS799  TRP800  GLU811  SER814 

> <Gold.Protein.RotatedAtoms>
  152.3635  134.6838  160.0199 H   0  0  0  0  0  0  0  0  0  0  0  0  # atno 6907 bound_to 6896
  151.7154  133.3308  159.3309 H   0  0  0  0  0  0  0  0  0  0  0  0  # atno 6908 bound_to 6896
  150.7621  134.6430  159.6291 H   0  0  0  0  0  0  0  0  0  0  0  0  # atno 6909 bound_to 6896
  146.0837  139.5435  142.9520 H   0  0  0  0  0  0  0  0  0  0  0  0  # atno 7974 bound_to 7965
  154.7817  140.2820  155.6059 H   0  0  0  0  0  0  0  0  0  0  0  0  # atno 8008 bound_to 7997
  156.2951  140.2622  156.2572 H   0  0  0  0  0  0  0  0  0  0  0  0  # atno 8009 bound_to 7997
  154.9776  140.0375  157.2253 H   0  0  0  0  0  0  0  0  0  0  0  0  # atno 8010 bound_to 7997
  140.5063  144.0233  150.6353 H   0  0  0  0  0  0  0  0  0  0  0  0  # atno 10167 bound_to 10162
  157.6930  131.0219  150.2986 H   0  0  0  0  0  0  0  0  0  0  0  0  # atno 10718 bound_to 10713
  153.0000  135.6249  154.2308 H   0  0  0  0  0  0  0  0  0  0  0  0  # atno 10763 bound_to 10752
  154.2050  135.2802  155.2980 H   0  0  0  0  0  0  0  0  0  0  0  0  # atno 10764 bound_to 10752
  154.5653  135.5693  153.7104 H   0  0  0  0  0  0  0  0  0  0  0  0  # atno 10765 bound_to 10752
  140.2970  134.7627  157.3885 H   0  0  0  0  0  0  0  0  0  0  0  0  # atno 11005 bound_to 11000
  145.6170  141.0329  143.1936 LP  0  0  0  0  0  0  0  0  0  0  0  0  # atno 17320 bound_to 7965
  144.7311  139.7724  143.7347 LP  0  0  0  0  0  0  0  0  0  0  0  0  # atno 17321 bound_to 7965
  140.3543  143.2944  152.0453 LP  0  0  0  0  0  0  0  0  0  0  0  0  # atno 17342 bound_to 10162
  139.4884  144.6350  151.6993 LP  0  0  0  0  0  0  0  0  0  0  0  0  # atno 17343 bound_to 10162
  156.3506  130.3830  149.7333 LP  0  0  0  0  0  0  0  0  0  0  0  0  # atno 17370 bound_to 10713
  156.4812  130.8042  151.3056 LP  0  0  0  0  0  0  0  0  0  0  0  0  # atno 17371 bound_to 10713
  140.1144  134.5303  155.8238 LP  0  0  0  0  0  0  0  0  0  0  0  0  # atno 17394 bound_to 11000
  141.2135  133.6735  156.6749 LP  0  0  0  0  0  0  0  0  0  0  0  0  # atno 17395 bound_to 11000

$$$$
