AV-unprocessed.smi:1669|AV-procd|sdf|6687|dock4
  -GOLD-   22720 7413D 1   1.00000     0.00000
 Structure written by MMmdl.
 47 49  0  0  0  0  0  0  0  0  1 V2000
  151.8811  139.2515  155.7108 C   0  0  0  0  0  0  0  0  0  0  0  0
  151.3818  140.4742  156.3334 N   0  0  0  0  0  0  0  0  0  0  0  0
  151.7044  140.5056  157.7634 C   0  0  0  0  0  0  0  0  0  0  0  0
  151.8784  141.9079  158.3200 C   0  0  0  0  0  0  0  0  0  0  0  0
  151.4436  143.0234  157.5733 C   0  0  0  0  0  0  0  0  0  0  0  0
  151.6041  144.3249  158.0873 C   0  0  0  0  0  0  0  0  0  0  0  0
  152.1954  144.5153  159.3514 C   0  0  0  0  0  0  0  0  0  0  0  0
  152.6266  143.4037  160.1013 C   0  0  0  0  0  0  0  0  0  0  0  0
  152.4690  142.1019  159.5866 C   0  0  0  0  0  0  0  0  0  0  0  0
  149.9453  140.6131  156.0831 C   0  0  0  0  0  0  0  0  0  0  0  0
  149.4754  140.2245  154.6664 C   0  0  2  0  0  0  0  0  0  0  0  0
  149.5244  141.3824  153.8580 O   0  0  0  0  0  0  0  0  0  0  0  0
  148.0454  139.6456  154.6507 C   0  0  0  0  0  0  0  0  0  0  0  0
  147.1165  140.4426  155.4396 N   0  0  0  0  0  0  0  0  0  0  0  0
  146.6473  140.2083  156.6911 C   0  0  0  0  0  0  0  0  0  0  0  0
  147.0617  138.9936  157.4715 C   0  0  0  0  0  0  0  0  0  0  0  0
  145.9851  138.1532  157.8339 O   0  0  0  0  0  0  0  0  0  0  0  0
  145.7908  141.1172  157.1646 N   0  0  0  0  0  0  0  0  0  0  0  0
  145.7004  142.0237  156.1265 C   0  0  0  0  0  0  0  0  0  0  0  0
  144.9524  143.2172  156.0098 C   0  0  0  0  0  0  0  0  0  0  0  0
  145.0183  143.9879  154.8303 C   0  0  0  0  0  0  0  0  0  0  0  0
  145.8296  143.5771  153.7526 C   0  0  0  0  0  0  0  0  0  0  0  0
  146.5829  142.3914  153.8485 C   0  0  0  0  0  0  0  0  0  0  0  0
  146.5152  141.6276  155.0291 C   0  0  0  0  0  0  0  0  0  0  0  0
  151.6615  139.2432  154.6427 H   0  0  0  0  0  0  0  0  0  0  0  0
  151.4246  138.3672  156.1576 H   0  0  0  0  0  0  0  0  0  0  0  0
  152.9628  139.1658  155.8163 H   0  0  0  0  0  0  0  0  0  0  0  0
  150.9047  140.0521  158.3462 H   0  0  0  0  0  0  0  0  0  0  0  0
  152.5997  139.9140  157.9601 H   0  0  0  0  0  0  0  0  0  0  0  0
  150.9883  142.8816  156.6036 H   0  0  0  0  0  0  0  0  0  0  0  0
  151.2734  145.1770  157.5118 H   0  0  0  0  0  0  0  0  0  0  0  0
  152.3172  145.5131  159.7461 H   0  0  0  0  0  0  0  0  0  0  0  0
  153.0786  143.5495  161.0714 H   0  0  0  0  0  0  0  0  0  0  0  0
  152.8046  141.2541  160.1659 H   0  0  0  0  0  0  0  0  0  0  0  0
  149.4005  139.9888  156.7930 H   0  0  0  0  0  0  0  0  0  0  0  0
  149.6414  141.6393  156.2965 H   0  0  0  0  0  0  0  0  0  0  0  0
  150.1670  139.5113  154.2202 H   0  0  0  0  0  0  0  0  0  0  0  0
  149.7892  141.1306  152.9866 H   0  0  0  0  0  0  0  0  0  0  0  0
  147.6642  139.6190  153.6291 H   0  0  0  0  0  0  0  0  0  0  0  0
  148.0408  138.6126  154.9984 H   0  0  0  0  0  0  0  0  0  0  0  0
  147.7727  138.4176  156.8787 H   0  0  0  0  0  0  0  0  0  0  0  0
  147.5705  139.3030  158.3842 H   0  0  0  0  0  0  0  0  0  0  0  0
  145.3101  138.6875  158.2244 H   0  0  0  0  0  0  0  0  0  0  0  0
  144.3270  143.5400  156.8289 H   0  0  0  0  0  0  0  0  0  0  0  0
  144.4427  144.8986  154.7518 H   0  0  0  0  0  0  0  0  0  0  0  0
  145.8741  144.1727  152.8528 H   0  0  0  0  0  0  0  0  0  0  0  0
  147.2056  142.0735  153.0254 H   0  0  0  0  0  0  0  0  0  0  0  0
  1  2  1  0  0  0  0
  1 25  1  0  0  0  0
  1 26  1  0  0  0  0
  1 27  1  0  0  0  0
  2  3  1  0  0  0  0
  2 10  1  0  0  0  0
  3  4  1  0  0  0  0
  3 28  1  0  0  0  0
  3 29  1  0  0  0  0
  4  9  1  0  0  0  0
  4  5  2  0  0  0  0
  5  6  1  0  0  0  0
  5 30  1  0  0  0  0
  6  7  2  0  0  0  0
  6 31  1  0  0  0  0
  7  8  1  0  0  0  0
  7 32  1  0  0  0  0
  8  9  2  0  0  0  0
  8 33  1  0  0  0  0
  9 34  1  0  0  0  0
 10 11  1  0  0  0  0
 10 35  1  0  0  0  0
 10 36  1  0  0  0  0
 11 12  1  0  0  0  0
 11 13  1  0  0  0  0
 11 37  1  0  0  0  0
 12 38  1  0  0  0  0
 13 14  1  0  0  0  0
 13 39  1  0  0  0  0
 13 40  1  0  0  0  0
 14 24  1  0  0  0  0
 14 15  1  0  0  0  0
 15 16  1  0  0  0  0
 15 18  2  0  0  0  0
 16 17  1  0  0  0  0
 16 41  1  0  0  0  0
 16 42  1  0  0  0  0
 17 43  1  0  0  0  0
 18 19  1  0  0  0  0
 19 24  2  0  0  0  0
 19 20  1  0  0  0  0
 20 21  2  0  0  0  0
 20 44  1  0  0  0  0
 21 22  1  0  0  0  0
 21 45  1  0  0  0  0
 22 23  2  0  0  0  0
 22 46  1  0  0  0  0
 23 24  1  0  0  0  0
 23 47  1  0  0  0  0
M  END
> <s_m_source_file>
AV-unprocessed.smi

> <i_m_source_file_index>
1669

> <i_lp_mmshare_version>
43012

> <i_f3d_flags>
0

> <s_epik_input>
W2NIXTFbY0hdW2NIXVtjSF1bY0hdYzFbQ0gyXU4oW0NIM10pW0NIMl1bQ0BIXShbT0hdKVtDSDJdbihjKG4yKVtDSDJdW09IXSljKGMyMylbY0hdW2NIXVtjSF1bY0hdMw==

> <s_epik_cmdline>
J2VwaWtfcHl0aG9uJywgJy1waCcsICc3LjAnLCAnLXRuJywgJzgnLCAnLW1hJywgJzIwMCcsICctbWV0YWxfYmluZGluZycsICctaW1hZScsICc8aW5maWxlLm1hZT4nLCAnLW9tYWUnLCAnPG91dGZpbGUubWFlPic=

> <r_epik_Ionization_Penalty>
1.56301

> <r_epik_Ionization_Penalty_Charging>
0

> <r_epik_Ionization_Penalty_Neutral>
1.56301

> <r_epik_State_Penalty>
1.64771

> <r_epik_Charging_Adjusted_Penalty>
1.64771

> <i_epik_Tot_Q>
0

> <i_epik_Tot_abs_Q>
0

> <r_epik_Metal_State_Penalty>
1.61258

> <b_epik_Metal_Only>
0

> <s_lp_Force_Field>
OPLS_2005

> <r_lp_Energy>
20.891

> <b_lp_Chiralities_Consistent>
1

> <s_lp_Variant>
AV-unprocessed.smi:1669-5

> <Gold.Version>
5.8.1

> <Gold.Id.Protein>
6NUR|6NUR_protein|mol2

> <Gold.PLP.Fitness>
49.3480

> <Gold.PLP.PLP>
-48.8392

> <Gold.PLP.part.hbond>
-3.0000

> <Gold.PLP.part.metal>
0.0000

> <Gold.PLP.part.buried>
-6.6497

> <Gold.PLP.part.nonpolar>
-39.3986

> <Gold.PLP.part.repulsive>
0.0026

> <Gold.PLP.ligand.clash>
0.0000

> <Gold.PLP.ligand.torsion>
1.3985

> <Gold.PLP.Chemscore.Hbond>
1.0000

> <Gold.PLP.Chemscore.CHOScore>
0.0000

> <Gold.PLP.Chemscore.Metal>
0.0000

> <Gold.Chemscore.Hbonds>
donor molecule, donor type, donor heavy atom, donor atom, acceptor molecule, acceptor atom, score
      L1  H    12    38       P1  7957  0.76

> <Gold.PLP.Chemscore.Internal.Correction>
0.3057

> <Gold.Rescore>
     Score         DG    S(hbond)    S(metal)    S(lipo)     H(rot)  DE(clash)    DE(int)     intcor
     14.43     -16.08       0.99        0.00     129.26       3.06       0.03       1.61       ----

> <Gold.Chemscore.Fitness>
14.4328

> <Gold.Chemscore.DG>
-16.0794

> <Gold.Chemscore.ZeroCoef>
-5.4800

> <Gold.Chemscore.Hbond>
0.9915

> <Gold.Chemscore.Metal>
0.0000

> <Gold.Chemscore.Lipo>
129.2624

> <Gold.Chemscore.Internal_Hbond>
0.0000

> <Gold.Chemscore.DEClash>
0.0348

> <Gold.Chemscore.DEInternal>
1.6117

> <Gold.Chemscore.Rot>
3.0609

> <Gold.Chemscore.Internal.Correction>
   9.000000E+99

> <Gold.Chemscore.Hbonds>
donor molecule, donor type, donor heavy atom, donor atom, acceptor molecule, acceptor atom, score
      L1  H    12    38       P1  7957  0.75

> <Gold.Chemscore.Hbond.Weighted>
-3.3115

> <Gold.Chemscore.Metal.Weighted>
-0.0000

> <Gold.Chemscore.Lipo.Weighted>
-15.1237

> <Gold.Chemscore.Internal_Hbond.Weighted>
0.0000

> <Gold.Chemscore.DEClash.Weighted>
0.0348

> <Gold.Chemscore.DEInternal.Weighted>
1.6117

> <Gold.Chemscore.Rot.Weighted>
7.8358

> <Gold.Chemscore.Internal.Correction.Weighted>
   9.000000E+99

> <Gold.Protein.RotatedTorsions>
[ 6907 6896 6895 6894 ] final  -44.20 input  -60.11 | X-H torsion
[ 7974 7965 7964 7962 ] final -123.84 input  175.53 | X-H torsion
[ 8008 7997 7996 7995 ] final -167.54 input   59.86 | X-H torsion
[ 10167 10162 10161 10158 ] final -110.52 input  -65.29 | X-H torsion
[ 10718 10713 10712 10709 ] final   19.24 input   66.30 | X-H torsion
[ 10763 10752 10751 10750 ] final -138.32 input  -60.55 | X-H torsion
[ 11005 11000 10999 10996 ] final  -69.82 input  -57.11 | X-H torsion

> <Gold.Protein.ActiveResidues>
 VAL166  LYS551  ARG553  GLY616  TRP617  ASP618  TYR619  PRO620  LYS621  CYS622 
 ASP623  PHE694  ASN695  SER759  ASP760  ASP761  ALA762  ILE779  LEU786  VAL792 
 PHE793  MET794  SER795  GLU796  ALA797  LYS798  CYS799  TRP800  GLU811  SER814 

> <Gold.Protein.RotatedAtoms>
  150.9355  134.8767  159.7578 H   0  0  0  0  0  0  0  0  0  0  0  0  # atno 6907 bound_to 6896
  152.5057  134.4018  159.9429 H   0  0  0  0  0  0  0  0  0  0  0  0  # atno 6908 bound_to 6896
  151.4042  133.3708  159.2771 H   0  0  0  0  0  0  0  0  0  0  0  0  # atno 6909 bound_to 6896
  145.0144  140.7934  143.4419 H   0  0  0  0  0  0  0  0  0  0  0  0  # atno 7974 bound_to 7965
  155.8791  140.1006  157.1498 H   0  0  0  0  0  0  0  0  0  0  0  0  # atno 8008 bound_to 7997
  154.4003  140.1332  156.4237 H   0  0  0  0  0  0  0  0  0  0  0  0  # atno 8009 bound_to 7997
  155.7663  140.3462  155.5226 H   0  0  0  0  0  0  0  0  0  0  0  0  # atno 8010 bound_to 7997
  140.1436  143.4258  152.1545 H   0  0  0  0  0  0  0  0  0  0  0  0  # atno 10167 bound_to 10162
  157.1076  130.6495  149.5889 H   0  0  0  0  0  0  0  0  0  0  0  0  # atno 10718 bound_to 10713
  154.8640  135.3615  154.5366 H   0  0  0  0  0  0  0  0  0  0  0  0  # atno 10763 bound_to 10752
  153.5990  135.7013  153.5397 H   0  0  0  0  0  0  0  0  0  0  0  0  # atno 10764 bound_to 10752
  153.3308  135.4125  155.1455 H   0  0  0  0  0  0  0  0  0  0  0  0  # atno 10765 bound_to 10752
  141.1562  133.6774  156.6658 H   0  0  0  0  0  0  0  0  0  0  0  0  # atno 11005 bound_to 11000
  145.1980  139.2266  143.5208 LP  0  0  0  0  0  0  0  0  0  0  0  0  # atno 17320 bound_to 7965
  146.3475  140.1791  142.8589 LP  0  0  0  0  0  0  0  0  0  0  0  0  # atno 17321 bound_to 7965
  139.5460  144.7298  151.4582 LP  0  0  0  0  0  0  0  0  0  0  0  0  # atno 17342 bound_to 10162
  140.6745  143.8219  150.7041 LP  0  0  0  0  0  0  0  0  0  0  0  0  # atno 17343 bound_to 10162
  155.9858  130.4890  150.7049 LP  0  0  0  0  0  0  0  0  0  0  0  0  # atno 17370 bound_to 10713
  157.4587  131.0881  151.0769 LP  0  0  0  0  0  0  0  0  0  0  0  0  # atno 17371 bound_to 10713
  140.3212  134.8006  157.4254 LP  0  0  0  0  0  0  0  0  0  0  0  0  # atno 17394 bound_to 11000
  140.1095  134.5364  155.8279 LP  0  0  0  0  0  0  0  0  0  0  0  0  # atno 17395 bound_to 11000

$$$$
