AV-unprocessed.smi:298|AV-procd|sdf|2264|dock4
  -GOLD-   2262022153D 1   1.00000     0.00000
 Structure written by MMmdl.
 39 41  0  0  0  0  0  0  0  0  2 V2000
  152.5997  144.1228  159.7668 C   0  0  0  0  0  0  0  0  0  0  0  0
  152.2749  143.0137  158.7807 C   0  0  0  0  0  0  0  0  0  0  0  0
  151.4134  143.3039  157.6985 C   0  0  0  0  0  0  0  0  0  0  0  0
  151.1369  142.2695  156.8124 C   0  0  0  0  0  0  0  0  0  0  0  0
  150.3431  142.2356  155.6636 N   0  3  0  0  0  0  0  0  0  0  0  0
  150.3804  140.9870  155.1209 C   0  0  0  0  0  0  0  0  0  0  0  0
  151.1864  140.2227  155.9068 N   0  0  0  0  0  0  0  0  0  0  0  0
  151.5607  138.8075  155.7789 C   0  0  0  0  0  0  0  0  0  0  0  0
  150.7306  138.0554  154.7145 C   0  0  1  0  0  0  0  0  0  0  0  0
  151.3836  136.8585  154.3361 O   0  0  0  0  0  0  0  0  0  0  0  0
  149.2902  137.7356  155.1739 C   0  0  0  0  0  0  0  0  0  0  0  0
  149.2088  137.2116  156.5285 N   0  0  0  0  0  0  0  0  0  0  0  0
  149.7943  136.1431  157.0800 C   0  0  0  0  0  0  0  0  0  0  0  0
  149.4784  135.9517  158.3548 N   0  0  0  0  0  0  0  0  0  0  0  0
  148.6472  137.0199  158.5291 C   0  0  0  0  0  0  0  0  0  0  0  0
  147.9918  137.2739  159.8006 C   0  0  0  0  0  0  0  0  0  0  0  0
  147.4696  137.4773  160.8129 N   0  0  0  0  0  0  0  0  0  0  0  0
  148.4522  137.8133  157.4786 N   0  0  0  0  0  0  0  0  0  0  0  0
  151.6823  140.9814  156.9742 C   0  0  0  0  0  0  0  0  0  0  0  0
  152.5349  140.6791  158.0338 C   0  0  0  0  0  0  0  0  0  0  0  0
  152.8288  141.7175  158.9457 C   0  0  0  0  0  0  0  0  0  0  0  0
  153.7572  141.4158  160.1098 C   0  0  0  0  0  0  0  0  0  0  0  0
  152.1116  145.0578  159.4907 H   0  0  0  0  0  0  0  0  0  0  0  0
  153.6741  144.3052  159.7988 H   0  0  0  0  0  0  0  0  0  0  0  0
  152.2630  143.8548  160.7687 H   0  0  0  0  0  0  0  0  0  0  0  0
  150.9898  144.2887  157.5656 H   0  0  0  0  0  0  0  0  0  0  0  0
  149.8629  140.6621  154.2296 H   0  0  0  0  0  0  0  0  0  0  0  0
  152.6298  138.7490  155.5757 H   0  0  0  0  0  0  0  0  0  0  0  0
  151.4148  138.3437  156.7551 H   0  0  0  0  0  0  0  0  0  0  0  0
  150.6732  138.6727  153.8173 H   0  0  0  0  0  0  0  0  0  0  0  0
  151.2976  136.7516  153.4013 H   0  0  0  0  0  0  0  0  0  0  0  0
  148.6877  138.6439  155.1313 H   0  0  0  0  0  0  0  0  0  0  0  0
  148.8186  137.0238  154.4946 H   0  0  0  0  0  0  0  0  0  0  0  0
  150.4563  135.4862  156.5347 H   0  0  0  0  0  0  0  0  0  0  0  0
  152.9642  139.6953  158.1566 H   0  0  0  0  0  0  0  0  0  0  0  0
  154.0624  140.3689  160.1154 H   0  0  0  0  0  0  0  0  0  0  0  0
  153.2630  141.6221  161.0595 H   0  0  0  0  0  0  0  0  0  0  0  0
  154.6588  142.0255  160.0475 H   0  0  0  0  0  0  0  0  0  0  0  0
  149.8136  143.0063  155.2764 H   0  0  0  0  0  0  0  0  0  0  0  0
  1  2  1  0  0  0  0
  1 23  1  0  0  0  0
  1 24  1  0  0  0  0
  1 25  1  0  0  0  0
  2 21  1  0  0  0  0
  2  3  2  0  0  0  0
  3  4  1  0  0  0  0
  3 26  1  0  0  0  0
  4 19  2  0  0  0  0
  4  5  1  0  0  0  0
  5  6  2  0  0  0  0
  5 39  1  0  0  0  0
  6  7  1  0  0  0  0
  6 27  1  0  0  0  0
  7  8  1  0  0  0  0
  7 19  1  0  0  0  0
  8  9  1  0  0  0  0
  8 28  1  0  0  0  0
  8 29  1  0  0  0  0
  9 10  1  0  0  0  0
  9 11  1  0  0  0  0
  9 30  1  0  0  0  0
 10 31  1  0  0  0  0
 11 12  1  0  0  0  0
 11 32  1  0  0  0  0
 11 33  1  0  0  0  0
 12 18  1  0  0  0  0
 12 13  1  0  0  0  0
 13 14  2  0  0  0  0
 13 34  1  0  0  0  0
 14 15  1  0  0  0  0
 15 16  1  0  0  0  0
 15 18  2  0  0  0  0
 16 17  3  0  0  0  0
 19 20  1  0  0  0  0
 20 21  2  0  0  0  0
 20 35  1  0  0  0  0
 21 22  1  0  0  0  0
 22 36  1  0  0  0  0
 22 37  1  0  0  0  0
 22 38  1  0  0  0  0
M  CHG  1   5   1
M  END
> <s_m_source_file>
AV-unprocessed.smi

> <i_m_source_file_index>
298

> <i_lp_mmshare_version>
43012

> <i_f3d_flags>
0

> <s_epik_input>
W0NIM11jKFtjSF0xKWMoW0NIM10pW2NIXWMoYzEyKW4oW2NIXW4yKVtDSDJdW0NASF0oW09IXSlbQ0gyXW4zW2NIXW5jKG4zKUMjTg==

> <s_epik_cmdline>
J2VwaWtfcHl0aG9uJywgJy1waCcsICc3LjAnLCAnLXRuJywgJzgnLCAnLW1hJywgJzIwMCcsICctbWV0YWxfYmluZGluZycsICctaW1hZScsICc8aW5maWxlLm1hZT4nLCAnLW9tYWUnLCAnPG91dGZpbGUubWFlPic=

> <r_epik_Ionization_Penalty>
1.12076

> <r_epik_Ionization_Penalty_Charging>
1.12075

> <r_epik_Ionization_Penalty_Neutral>
1.54565e-06

> <r_epik_State_Penalty>
1.17957

> <r_epik_Charging_Adjusted_Penalty>
2.30033

> <i_epik_Tot_Q>
1

> <i_epik_Tot_abs_Q>
1

> <r_epik_Metal_State_Penalty>
1.26402

> <b_epik_Metal_Only>
0

> <s_lp_Force_Field>
OPLS_2005

> <r_lp_Energy>
17.1818

> <b_lp_Chiralities_Consistent>
1

> <s_lp_Variant>
AV-unprocessed.smi:298-4

> <Gold.Version>
5.8.1

> <Gold.Id.Protein>
6NUR|6NUR_protein|mol2

> <Gold.PLP.Fitness>
60.9235

> <Gold.PLP.PLP>
-41.2006

> <Gold.PLP.part.hbond>
-6.0000

> <Gold.PLP.part.metal>
0.0000

> <Gold.PLP.part.buried>
-4.0829

> <Gold.PLP.part.nonpolar>
-31.1253

> <Gold.PLP.part.repulsive>
0.1435

> <Gold.PLP.ligand.clash>
0.0000

> <Gold.PLP.ligand.torsion>
0.3867

> <Gold.PLP.Chemscore.Hbond>
6.8233

> <Gold.PLP.Chemscore.CHOScore>
0.0000

> <Gold.PLP.Chemscore.Metal>
0.0000

> <Gold.Chemscore.Hbonds>
donor molecule, donor type, donor heavy atom, donor atom, acceptor molecule, acceptor atom, score
      L1  H     5    39       P1  8028  1.86
      L1  H    10    31       P1  7949  0.93
      P1  H  6896  6909       L1    14  0.63
      P1  H  6931  6943       L1    17  0.63
      P1  H  6934  6947       L1    17  1.00
      P1  H 10752 10765       L1    10  0.85

> <Gold.PLP.Chemscore.Internal.Correction>
0.0266

> <Gold.Rescore>
     Score         DG    S(hbond)    S(metal)    S(lipo)     H(rot)  DE(clash)    DE(int)     intcor
     22.19     -22.60       4.25        0.00      92.63       3.09       0.06       0.36       ----

> <Gold.Chemscore.Fitness>
22.1858

> <Gold.Chemscore.DG>
-22.5993

> <Gold.Chemscore.ZeroCoef>
-5.4800

> <Gold.Chemscore.Hbond>
4.2485

> <Gold.Chemscore.Metal>
0.0000

> <Gold.Chemscore.Lipo>
92.6298

> <Gold.Chemscore.Internal_Hbond>
0.0000

> <Gold.Chemscore.DEClash>
0.0556

> <Gold.Chemscore.DEInternal>
0.3579

> <Gold.Chemscore.Rot>
3.0892

> <Gold.Chemscore.Internal.Correction>
   9.000000E+99

> <Gold.Chemscore.Hbonds>
donor molecule, donor type, donor heavy atom, donor atom, acceptor molecule, acceptor atom, score
      L1  H     5    39       P1  8028  0.89
      L1  H    10    31       P1  7949  0.58
      P1  H  6896  6909       L1    14  0.61
      P1  H  6931  6943       L1    17  0.18
      P1  H  6934  6947       L1    17  0.61
      P1  H 10752 10765       L1    10  0.14

> <Gold.Chemscore.Hbond.Weighted>
-14.1900

> <Gold.Chemscore.Metal.Weighted>
-0.0000

> <Gold.Chemscore.Lipo.Weighted>
-10.8377

> <Gold.Chemscore.Internal_Hbond.Weighted>
0.0000

> <Gold.Chemscore.DEClash.Weighted>
0.0556

> <Gold.Chemscore.DEInternal.Weighted>
0.3579

> <Gold.Chemscore.Rot.Weighted>
7.9084

> <Gold.Chemscore.Internal.Correction.Weighted>
   9.000000E+99

> <Gold.Protein.RotatedTorsions>
[ 6907 6896 6895 6894 ] final   65.94 input  -60.11 | X-H torsion
[ 7974 7965 7964 7962 ] final  -60.11 input  175.53 | X-H torsion
[ 8008 7997 7996 7995 ] final    0.72 input   59.86 | X-H torsion
[ 10167 10162 10161 10158 ] final  132.29 input  -65.29 | X-H torsion
[ 10718 10713 10712 10709 ] final   89.17 input   66.30 | X-H torsion
[ 10763 10752 10751 10750 ] final -179.99 input  -60.55 | X-H torsion
[ 11005 11000 10999 10996 ] final  106.33 input  -57.11 | X-H torsion

> <Gold.Protein.ActiveResidues>
 VAL166  LYS551  ARG553  GLY616  TRP617  ASP618  TYR619  PRO620  LYS621  CYS622 
 ASP623  PHE694  ASN695  SER759  ASP760  ASP761  ALA762  ILE779  LEU786  VAL792 
 PHE793  MET794  SER795  GLU796  ALA797  LYS798  CYS799  TRP800  GLU811  SER814 

> <Gold.Protein.RotatedAtoms>
  152.4445  134.5524  159.9870 H   0  0  0  0  0  0  0  0  0  0  0  0  # atno 6907 bound_to 6896
  151.5612  133.3397  159.2979 H   0  0  0  0  0  0  0  0  0  0  0  0  # atno 6908 bound_to 6896
  150.8358  134.7663  159.6955 H   0  0  0  0  0  0  0  0  0  0  0  0  # atno 6909 bound_to 6896
  145.8195  140.8549  143.0140 H   0  0  0  0  0  0  0  0  0  0  0  0  # atno 7974 bound_to 7965
  154.6714  140.2612  155.7003 H   0  0  0  0  0  0  0  0  0  0  0  0  # atno 8008 bound_to 7997
  156.2660  140.2828  156.1146 H   0  0  0  0  0  0  0  0  0  0  0  0  # atno 8009 bound_to 7997
  155.1164  140.0376  157.2728 H   0  0  0  0  0  0  0  0  0  0  0  0  # atno 8010 bound_to 7997
  139.5346  144.6668  151.4831 H   0  0  0  0  0  0  0  0  0  0  0  0  # atno 10167 bound_to 10162
  157.6954  131.0323  150.3385 H   0  0  0  0  0  0  0  0  0  0  0  0  # atno 10718 bound_to 10713
  154.5281  135.2798  155.1204 H   0  0  0  0  0  0  0  0  0  0  0  0  # atno 10763 bound_to 10752
  154.2735  135.6299  153.5323 H   0  0  0  0  0  0  0  0  0  0  0  0  # atno 10764 bound_to 10752
  152.9951  135.5634  154.5787 H   0  0  0  0  0  0  0  0  0  0  0  0  # atno 10765 bound_to 10752
  139.8813  134.9366  156.5650 H   0  0  0  0  0  0  0  0  0  0  0  0  # atno 11005 bound_to 11000
  144.6749  140.0512  143.7478 LP  0  0  0  0  0  0  0  0  0  0  0  0  # atno 17320 bound_to 7965
  145.9691  139.2856  143.1110 LP  0  0  0  0  0  0  0  0  0  0  0  0  # atno 17321 bound_to 7965
  140.6545  143.8628  150.6820 LP  0  0  0  0  0  0  0  0  0  0  0  0  # atno 17342 bound_to 10162
  140.2003  143.3964  152.1796 LP  0  0  0  0  0  0  0  0  0  0  0  0  # atno 17343 bound_to 10162
  156.3849  130.3887  149.7074 LP  0  0  0  0  0  0  0  0  0  0  0  0  # atno 17370 bound_to 10713
  156.4443  130.7876  151.2897 LP  0  0  0  0  0  0  0  0  0  0  0  0  # atno 17371 bound_to 10713
  140.8141  133.8406  155.8836 LP  0  0  0  0  0  0  0  0  0  0  0  0  # atno 17394 bound_to 11000
  140.9479  134.1816  157.4749 LP  0  0  0  0  0  0  0  0  0  0  0  0  # atno 17395 bound_to 11000

$$$$
