AV-unprocessed.smi:291|AV-procd|sdf|2247|dock1
  -GOLD-   2262022133D 1   1.00000     0.00000
 Structure written by MMmdl.
 35 36  0  0  0  0  0  0  0  0  1 V2000
  152.2531  144.8663  160.2368 C   0  0  0  0  0  0  0  0  0  0  0  0
  151.5858  143.7816  159.3790 C   0  0  2  0  0  0  0  0  0  0  0  0
  152.0543  142.3723  159.7891 C   0  0  0  0  0  0  0  0  0  0  0  0
  151.3944  141.2815  158.9302 C   0  0  0  0  0  0  0  0  0  0  0  0
  151.6410  141.5202  157.4277 C   0  0  1  0  0  0  0  0  0  0  0  0
  150.9378  140.5202  156.6311 N   0  0  0  0  0  0  0  0  0  0  0  0
  151.4623  139.8307  155.6052 C   0  0  0  0  0  0  0  0  0  0  0  0
  152.6255  139.9590  155.2247 O   0  0  0  0  0  0  0  0  0  0  0  0
  150.5363  138.8346  154.9040 C   0  0  0  0  0  0  0  0  0  0  0  0
  149.3737  139.4956  154.3377 N   0  0  0  0  0  0  0  0  0  0  0  0
  148.3604  139.0048  153.6158 C   0  0  0  0  0  0  0  0  0  0  0  0
  147.4639  139.9153  153.2564 N   0  0  0  0  0  0  0  0  0  0  0  0
  148.0332  141.0128  153.8341 C   0  0  0  0  0  0  0  0  0  0  0  0
  147.4219  142.3272  153.7341 C   0  0  0  0  0  0  0  0  0  0  0  0
  146.9349  143.3739  153.6553 N   0  0  0  0  0  0  0  0  0  0  0  0
  149.1745  140.8274  154.4940 N   0  0  0  0  0  0  0  0  0  0  0  0
  151.1740  142.9278  157.0163 C   0  0  0  0  0  0  0  0  0  0  0  0
  151.8386  144.0144  157.8771 C   0  0  0  0  0  0  0  0  0  0  0  0
  153.3361  144.8635  160.1089 H   0  0  0  0  0  0  0  0  0  0  0  0
  152.0425  144.7136  161.2957 H   0  0  0  0  0  0  0  0  0  0  0  0
  151.8889  145.8585  159.9686 H   0  0  0  0  0  0  0  0  0  0  0  0
  150.5102  143.8421  159.5523 H   0  0  0  0  0  0  0  0  0  0  0  0
  153.1387  142.3013  159.6934 H   0  0  0  0  0  0  0  0  0  0  0  0
  151.8260  142.1951  160.8407 H   0  0  0  0  0  0  0  0  0  0  0  0
  151.7790  140.3038  159.2237 H   0  0  0  0  0  0  0  0  0  0  0  0
  150.3220  141.2639  159.1306 H   0  0  0  0  0  0  0  0  0  0  0  0
  152.7128  141.4506  157.2308 H   0  0  0  0  0  0  0  0  0  0  0  0
  149.9734  140.3436  156.8735 H   0  0  0  0  0  0  0  0  0  0  0  0
  151.0725  138.3269  154.1008 H   0  0  0  0  0  0  0  0  0  0  0  0
  150.2147  138.0687  155.6114 H   0  0  0  0  0  0  0  0  0  0  0  0
  148.2796  137.9616  153.3464 H   0  0  0  0  0  0  0  0  0  0  0  0
  151.4010  143.1041  155.9640 H   0  0  0  0  0  0  0  0  0  0  0  0
  150.0899  143.0029  157.1150 H   0  0  0  0  0  0  0  0  0  0  0  0
  151.4610  144.9942  157.5830 H   0  0  0  0  0  0  0  0  0  0  0  0
  152.9116  144.0267  157.6805 H   0  0  0  0  0  0  0  0  0  0  0  0
  1  2  1  0  0  0  0
  1 19  1  0  0  0  0
  1 20  1  0  0  0  0
  1 21  1  0  0  0  0
  2 18  1  0  0  0  0
  2  3  1  0  0  0  0
  2 22  1  0  0  0  0
  3  4  1  0  0  0  0
  3 23  1  0  0  0  0
  3 24  1  0  0  0  0
  4  5  1  0  0  0  0
  4 25  1  0  0  0  0
  4 26  1  0  0  0  0
  5  6  1  0  0  0  0
  5 17  1  0  0  0  0
  5 27  1  0  0  0  0
  6  7  1  0  0  0  0
  6 28  1  0  0  0  0
  7  8  2  0  0  0  0
  7  9  1  0  0  0  0
  9 10  1  0  0  0  0
  9 29  1  0  0  0  0
  9 30  1  0  0  0  0
 10 16  1  0  0  0  0
 10 11  1  0  0  0  0
 11 12  2  0  0  0  0
 11 31  1  0  0  0  0
 12 13  1  0  0  0  0
 13 14  1  0  0  0  0
 13 16  2  0  0  0  0
 14 15  3  0  0  0  0
 17 18  1  0  0  0  0
 17 32  1  0  0  0  0
 17 33  1  0  0  0  0
 18 34  1  0  0  0  0
 18 35  1  0  0  0  0
M  END
> <s_m_source_file>
AV-unprocessed.smi

> <i_m_source_file_index>
291

> <i_lp_mmshare_version>
43012

> <i_f3d_flags>
0

> <s_epik_input>
W0NIM11bQ0BASF0xW0NIMl1bQ0gyXVtDQEhdKFtDSDJdW0NIMl0xKVtOSF1DKD1PKVtDSDJdbjJbY0hdbmMobjIpQyNO

> <s_epik_cmdline>
J2VwaWtfcHl0aG9uJywgJy1waCcsICc3LjAnLCAnLXRuJywgJzgnLCAnLW1hJywgJzIwMCcsICctbWV0YWxfYmluZGluZycsICctaW1hZScsICc8aW5maWxlLm1hZT4nLCAnLW9tYWUnLCAnPG91dGZpbGUubWFlPic=

> <r_lp_tautomer_probability>
1

> <r_epik_Ionization_Penalty>
5.31112e-08

> <r_epik_Ionization_Penalty_Charging>
0

> <r_epik_Ionization_Penalty_Neutral>
5.31112e-08

> <r_epik_State_Penalty>
-0

> <r_epik_Charging_Adjusted_Penalty>
0

> <i_epik_Tot_Q>
0

> <i_epik_Tot_abs_Q>
0

> <r_epik_Metal_State_Penalty>
-0

> <b_epik_Metal_Only>
0

> <s_lp_Force_Field>
OPLS_2005

> <r_lp_Energy>
12.4936

> <b_lp_Chiralities_Consistent>
1

> <s_lp_Variant>
AV-unprocessed.smi:291-1

> <Gold.Version>
5.8.1

> <Gold.Id.Protein>
6NUR|6NUR_protein|mol2

> <Gold.PLP.Fitness>
42.8618

> <Gold.PLP.PLP>
-36.5253

> <Gold.PLP.part.hbond>
-2.7163

> <Gold.PLP.part.metal>
0.0000

> <Gold.PLP.part.buried>
-3.4477

> <Gold.PLP.part.nonpolar>
-31.6810

> <Gold.PLP.part.repulsive>
0.6095

> <Gold.PLP.ligand.clash>
0.0000

> <Gold.PLP.ligand.torsion>
0.1862

> <Gold.PLP.Chemscore.Hbond>
1.2339

> <Gold.PLP.Chemscore.CHOScore>
1.0000

> <Gold.PLP.Chemscore.Metal>
0.0000

> <Gold.Chemscore.Hbonds>
donor molecule, donor type, donor heavy atom, donor atom, acceptor molecule, acceptor atom, score
      P1  H  7989  7998       L1     8  0.05
      P1  H  7997  8008       L1     8  1.00
      P1  H  8022  8030       L1    15  0.20
      L1  C    11    31       P1  7948  1.00

> <Gold.PLP.Chemscore.Internal.Correction>
0.0072

> <Gold.Rescore>
     Score         DG    S(hbond)    S(metal)    S(lipo)     H(rot)  DE(clash)    DE(int)     intcor
     10.39     -12.98       1.00        0.00      78.13       1.95       0.90       1.69       ----

> <Gold.Chemscore.Fitness>
10.3889

> <Gold.Chemscore.DG>
-12.9754

> <Gold.Chemscore.ZeroCoef>
-5.4800

> <Gold.Chemscore.Hbond>
0.9998

> <Gold.Chemscore.Metal>
0.0000

> <Gold.Chemscore.Lipo>
78.1293

> <Gold.Chemscore.Internal_Hbond>
0.0000

> <Gold.Chemscore.DEClash>
0.8996

> <Gold.Chemscore.DEInternal>
1.6868

> <Gold.Chemscore.Rot>
1.9474

> <Gold.Chemscore.Internal.Correction>
   9.000000E+99

> <Gold.Chemscore.Hbonds>
donor molecule, donor type, donor heavy atom, donor atom, acceptor molecule, acceptor atom, score
      P1  H  7997  8008       L1     8  0.99
      P1  H  8022  8030       L1    15  0.11

> <Gold.Chemscore.Hbond.Weighted>
-3.3395

> <Gold.Chemscore.Metal.Weighted>
-0.0000

> <Gold.Chemscore.Lipo.Weighted>
-9.1411

> <Gold.Chemscore.Internal_Hbond.Weighted>
0.0000

> <Gold.Chemscore.DEClash.Weighted>
0.8996

> <Gold.Chemscore.DEInternal.Weighted>
1.6868

> <Gold.Chemscore.Rot.Weighted>
4.9852

> <Gold.Chemscore.Internal.Correction.Weighted>
   9.000000E+99

> <Gold.Protein.RotatedTorsions>
[ 6907 6896 6895 6894 ] final   19.44 input  -60.11 | X-H torsion
[ 7974 7965 7964 7962 ] final  175.94 input  175.53 | X-H torsion
[ 8008 7997 7996 7995 ] final  -21.88 input   59.86 | X-H torsion
[ 10167 10162 10161 10158 ] final  174.66 input  -65.29 | X-H torsion
[ 10718 10713 10712 10709 ] final  169.08 input   66.30 | X-H torsion
[ 10763 10752 10751 10750 ] final   74.40 input  -60.55 | X-H torsion
[ 11005 11000 10999 10996 ] final    5.29 input  -57.11 | X-H torsion

> <Gold.Protein.ActiveResidues>
 VAL166  LYS551  ARG553  GLY616  TRP617  ASP618  TYR619  PRO620  LYS621  CYS622 
 ASP623  PHE694  ASN695  SER759  ASP760  ASP761  ALA762  ILE779  LEU786  VAL792 
 PHE793  MET794  SER795  GLU796  ALA797  LYS798  CYS799  TRP800  GLU811  SER814 

> <Gold.Protein.RotatedAtoms>
  151.8810  135.0453  160.0488 H   0  0  0  0  0  0  0  0  0  0  0  0  # atno 6907 bound_to 6896
  152.2513  133.5213  159.5335 H   0  0  0  0  0  0  0  0  0  0  0  0  # atno 6908 bound_to 6896
  150.7085  134.0873  159.3961 H   0  0  0  0  0  0  0  0  0  0  0  0  # atno 6909 bound_to 6896
  144.7193  140.0022  143.6440 H   0  0  0  0  0  0  0  0  0  0  0  0  # atno 7974 bound_to 7965
  154.4678  140.2023  156.0072 H   0  0  0  0  0  0  0  0  0  0  0  0  # atno 8008 bound_to 7997
  156.0958  140.3251  155.7847 H   0  0  0  0  0  0  0  0  0  0  0  0  # atno 8009 bound_to 7997
  155.4880  140.0544  157.2948 H   0  0  0  0  0  0  0  0  0  0  0  0  # atno 8010 bound_to 7997
  139.5150  144.3121  152.0282 H   0  0  0  0  0  0  0  0  0  0  0  0  # atno 10167 bound_to 10162
  157.0279  131.0251  151.2754 H   0  0  0  0  0  0  0  0  0  0  0  0  # atno 10718 bound_to 10713
  153.0584  135.5027  154.8036 H   0  0  0  0  0  0  0  0  0  0  0  0  # atno 10763 bound_to 10752
  154.6844  135.2973  154.9571 H   0  0  0  0  0  0  0  0  0  0  0  0  # atno 10764 bound_to 10752
  154.0346  135.6725  153.4836 H   0  0  0  0  0  0  0  0  0  0  0  0  # atno 10765 bound_to 10752
  140.5724  134.0090  155.8014 H   0  0  0  0  0  0  0  0  0  0  0  0  # atno 11005 bound_to 11000
  146.0326  139.3348  143.0746 LP  0  0  0  0  0  0  0  0  0  0  0  0  # atno 17320 bound_to 7965
  145.8434  140.9568  143.0787 LP  0  0  0  0  0  0  0  0  0  0  0  0  # atno 17321 bound_to 7965
  140.2565  144.4113  150.6202 LP  0  0  0  0  0  0  0  0  0  0  0  0  # atno 17342 bound_to 10162
  140.6188  143.2174  151.6737 LP  0  0  0  0  0  0  0  0  0  0  0  0  # atno 17343 bound_to 10162
  157.5200  130.7992  149.7799 LP  0  0  0  0  0  0  0  0  0  0  0  0  # atno 17370 bound_to 10713
  156.0080  130.3846  150.2364 LP  0  0  0  0  0  0  0  0  0  0  0  0  # atno 17371 bound_to 10713
  141.1048  133.9711  157.3016 LP  0  0  0  0  0  0  0  0  0  0  0  0  # atno 17394 bound_to 11000
  139.9355  135.0197  156.8543 LP  0  0  0  0  0  0  0  0  0  0  0  0  # atno 17395 bound_to 11000

$$$$
