AV-unprocessed.smi:98|AV-procd|sdf|864|dock4
  -GOLD-   2262017313D 1   1.00000     0.00000
 Structure written by MMmdl.
 56 59  0  0  0  0  0  0  0  0  1 V2000
  151.4900  137.2168  159.5230 O   0  0  0  0  0  0  0  0  0  0  0  0
  151.0073  137.4382  158.4116 C   0  0  0  0  0  0  0  0  0  0  0  0
  151.8604  138.0865  157.3101 C   0  0  0  0  0  0  0  0  0  0  0  0
  151.5694  139.5242  157.1176 N   0  0  0  0  0  0  0  0  0  0  0  0
  150.7364  139.9015  156.0351 C   0  0  0  0  0  0  0  0  0  0  0  0
  150.2559  139.0590  155.2753 O   0  0  0  0  0  0  0  0  0  0  0  0
  150.4970  141.3329  155.8935 C   0  0  0  0  0  0  0  0  0  0  0  0
  149.7446  141.7849  154.8759 F   0  0  0  0  0  0  0  0  0  0  0  0
  151.0244  142.2143  156.7676 C   0  0  0  0  0  0  0  0  0  0  0  0
  151.8009  141.8307  157.8430 N   0  0  0  0  0  0  0  0  0  0  0  0
  152.3745  142.8906  158.7546 C   0  0  1  0  0  0  0  0  0  0  0  0
  152.2689  144.3174  158.1836 C   0  0  0  0  0  0  0  0  0  0  0  0
  151.4713  145.0511  159.2494 C   0  0  0  0  0  0  0  0  0  0  0  0
  151.6757  144.1825  160.4859 C   0  0  0  0  0  0  0  0  0  0  0  0
  151.6786  142.8637  159.9624 O   0  0  0  0  0  0  0  0  0  0  0  0
  152.1139  140.4637  158.0262 C   0  0  0  0  0  0  0  0  0  0  0  0
  152.8390  140.0974  158.9526 O   0  0  0  0  0  0  0  0  0  0  0  0
  149.7395  137.1514  158.0648 N   0  0  0  0  0  0  0  0  0  0  0  0
  148.7306  136.5458  158.8595 C   0  0  0  0  0  0  0  0  0  0  0  0
  147.8079  135.6993  158.2088 C   0  0  0  0  0  0  0  0  0  0  0  0
  146.7960  135.0487  158.9407 C   0  0  0  0  0  0  0  0  0  0  0  0
  146.7156  135.2348  160.3347 C   0  0  0  0  0  0  0  0  0  0  0  0
  145.4362  134.4052  161.2732 S   0  0  0  0  0  0  0  0  0  0  0  0
  145.3875  134.9926  162.6215 O   0  0  0  0  0  0  0  0  0  0  0  0
  144.2189  134.3459  160.4487 O   0  0  0  0  0  0  0  0  0  0  0  0
  146.0629  132.7949  161.4159 N   0  0  0  0  0  0  0  0  0  0  0  0
  145.2243  131.6717  160.9642 C   0  0  0  0  0  0  0  0  0  0  0  0
  145.7702  130.3320  161.4833 C   0  0  0  0  0  0  0  0  0  0  0  0
  147.1381  130.1920  161.1299 O   0  0  0  0  0  0  0  0  0  0  0  0
  147.9353  131.1984  161.7353 C   0  0  0  0  0  0  0  0  0  0  0  0
  147.5090  132.5871  161.2323 C   0  0  0  0  0  0  0  0  0  0  0  0
  147.6425  136.0611  160.9993 C   0  0  0  0  0  0  0  0  0  0  0  0
  148.6503  136.7139  160.2635 C   0  0  0  0  0  0  0  0  0  0  0  0
  152.9105  137.9205  157.5549 H   0  0  0  0  0  0  0  0  0  0  0  0
  151.7217  137.5412  156.3746 H   0  0  0  0  0  0  0  0  0  0  0  0
  150.8205  143.2643  156.6152 H   0  0  0  0  0  0  0  0  0  0  0  0
  153.4121  142.6046  158.9342 H   0  0  0  0  0  0  0  0  0  0  0  0
  153.2741  144.7298  158.0908 H   0  0  0  0  0  0  0  0  0  0  0  0
  151.7936  144.3431  157.2025 H   0  0  0  0  0  0  0  0  0  0  0  0
  151.8012  146.0799  159.3950 H   0  0  0  0  0  0  0  0  0  0  0  0
  150.4147  145.0716  158.9809 H   0  0  0  0  0  0  0  0  0  0  0  0
  152.6386  144.3918  160.9548 H   0  0  0  0  0  0  0  0  0  0  0  0
  150.8915  144.3181  161.2311 H   0  0  0  0  0  0  0  0  0  0  0  0
  149.4425  137.4804  157.1574 H   0  0  0  0  0  0  0  0  0  0  0  0
  147.8681  135.5517  157.1402 H   0  0  0  0  0  0  0  0  0  0  0  0
  146.0888  134.4125  158.4294 H   0  0  0  0  0  0  0  0  0  0  0  0
  144.1993  131.8104  161.3081 H   0  0  0  0  0  0  0  0  0  0  0  0
  145.2001  131.6651  159.8741 H   0  0  0  0  0  0  0  0  0  0  0  0
  145.6520  130.2589  162.5658 H   0  0  0  0  0  0  0  0  0  0  0  0
  145.2072  129.5065  161.0480 H   0  0  0  0  0  0  0  0  0  0  0  0
  147.8537  131.1383  162.8219 H   0  0  0  0  0  0  0  0  0  0  0  0
  148.9813  131.0167  161.4878 H   0  0  0  0  0  0  0  0  0  0  0  0
  147.7479  132.6906  160.1732 H   0  0  0  0  0  0  0  0  0  0  0  0
  148.0668  133.3580  161.7641 H   0  0  0  0  0  0  0  0  0  0  0  0
  147.5859  136.1956  162.0694 H   0  0  0  0  0  0  0  0  0  0  0  0
  149.3624  137.3272  160.7948 H   0  0  0  0  0  0  0  0  0  0  0  0
  1  2  2  0  0  0  0
  2  3  1  0  0  0  0
  2 18  1  0  0  0  0
  3  4  1  0  0  0  0
  3 34  1  0  0  0  0
  3 35  1  0  0  0  0
  4 16  1  0  0  0  0
  4  5  1  0  0  0  0
  5  6  2  0  0  0  0
  5  7  1  0  0  0  0
  7  8  1  0  0  0  0
  7  9  2  0  0  0  0
  9 10  1  0  0  0  0
  9 36  1  0  0  0  0
 10 11  1  0  0  0  0
 10 16  1  0  0  0  0
 11 15  1  0  0  0  0
 11 12  1  0  0  0  0
 11 37  1  0  0  0  0
 12 13  1  0  0  0  0
 12 38  1  0  0  0  0
 12 39  1  0  0  0  0
 13 14  1  0  0  0  0
 13 40  1  0  0  0  0
 13 41  1  0  0  0  0
 14 15  1  0  0  0  0
 14 42  1  0  0  0  0
 14 43  1  0  0  0  0
 16 17  2  0  0  0  0
 18 19  1  0  0  0  0
 18 44  1  0  0  0  0
 19 33  1  0  0  0  0
 19 20  2  0  0  0  0
 20 21  1  0  0  0  0
 20 45  1  0  0  0  0
 21 22  2  0  0  0  0
 21 46  1  0  0  0  0
 22 23  1  0  0  0  0
 22 32  1  0  0  0  0
 23 24  2  0  0  0  0
 23 25  2  0  0  0  0
 23 26  1  0  0  0  0
 26 31  1  0  0  0  0
 26 27  1  0  0  0  0
 27 28  1  0  0  0  0
 27 47  1  0  0  0  0
 27 48  1  0  0  0  0
 28 29  1  0  0  0  0
 28 49  1  0  0  0  0
 28 50  1  0  0  0  0
 29 30  1  0  0  0  0
 30 31  1  0  0  0  0
 30 51  1  0  0  0  0
 30 52  1  0  0  0  0
 31 53  1  0  0  0  0
 31 54  1  0  0  0  0
 32 33  2  0  0  0  0
 32 55  1  0  0  0  0
 33 56  1  0  0  0  0
M  END
> <s_m_source_file>
AV-unprocessed.smi

> <i_m_source_file_index>
98

> <i_lp_mmshare_version>
43012

> <i_f3d_flags>
0

> <s_epik_input>
TzFbQ0gyXVtDSDJdW0NIMl1bQ0BIXTFuKGMyPU8pW2NIXWMoRiljKD1PKW4yW0NIMl1DKD1PKVtOSF1jM1tjSF1bY0hdYyhbY0hdW2NIXTMpUyg9TykoPU8pTjRbQ0gyXVtDSDJdT1tDSDJdW0NIMl00

> <s_epik_cmdline>
J2VwaWtfcHl0aG9uJywgJy1waCcsICc3LjAnLCAnLXRuJywgJzgnLCAnLW1hJywgJzIwMCcsICctbWV0YWxfYmluZGluZycsICctaW1hZScsICc8aW5maWxlLm1hZT4nLCAnLW9tYWUnLCAnPG91dGZpbGUubWFlPic=

> <r_lp_tautomer_probability>
1

> <r_epik_Ionization_Penalty>
1.9271e-06

> <r_epik_Ionization_Penalty_Charging>
3.88729e-08

> <r_epik_Ionization_Penalty_Neutral>
1.88823e-06

> <r_epik_State_Penalty>
-0

> <r_epik_Charging_Adjusted_Penalty>
3.88729e-08

> <i_epik_Tot_Q>
0

> <i_epik_Tot_abs_Q>
0

> <r_epik_Metal_State_Penalty>
-0

> <b_epik_Metal_Only>
0

> <s_epik_Chemistry_Notes>
This compound contains an acetal/aminal-like group ( X-CH(R)-Y where X, Y are N, S, or O) that may be acid/base labile, releasing an aldehyde.

> <s_lp_Force_Field>
OPLS_2005

> <r_lp_Energy>
28.5933

> <b_lp_Chiralities_Consistent>
1

> <s_lp_Variant>
AV-unprocessed.smi:98-2

> <Gold.Version>
5.8.1

> <Gold.Id.Protein>
6NUR|6NUR_protein|mol2

> <Gold.PLP.Fitness>
55.9473

> <Gold.PLP.PLP>
-52.4020

> <Gold.PLP.part.hbond>
-1.4008

> <Gold.PLP.part.metal>
0.0000

> <Gold.PLP.part.buried>
-6.9214

> <Gold.PLP.part.nonpolar>
-45.4657

> <Gold.PLP.part.repulsive>
0.1864

> <Gold.PLP.ligand.clash>
0.0000

> <Gold.PLP.ligand.torsion>
3.2472

> <Gold.PLP.Chemscore.Hbond>
0.9588

> <Gold.PLP.Chemscore.CHOScore>
0.9987

> <Gold.PLP.Chemscore.Metal>
0.0000

> <Gold.Chemscore.Hbonds>
donor molecule, donor type, donor heavy atom, donor atom, acceptor molecule, acceptor atom, score
      P1  H  6896  6909       L1     1  0.84
      L1  C     9    36       P1  8028  0.84

> <Gold.PLP.Chemscore.Internal.Correction>
4.1672

> <Gold.Rescore>
     Score         DG    S(hbond)    S(metal)    S(lipo)     H(rot)  DE(clash)    DE(int)     intcor
     12.35     -16.73       0.94        0.00     105.93       1.67       0.05       4.34       ----

> <Gold.Chemscore.Fitness>
12.3480

> <Gold.Chemscore.DG>
-16.7340

> <Gold.Chemscore.ZeroCoef>
-5.4800

> <Gold.Chemscore.Hbond>
0.9422

> <Gold.Chemscore.Metal>
0.0000

> <Gold.Chemscore.Lipo>
105.9275

> <Gold.Chemscore.Internal_Hbond>
0.0000

> <Gold.Chemscore.DEClash>
0.0471

> <Gold.Chemscore.DEInternal>
4.3389

> <Gold.Chemscore.Rot>
1.6744

> <Gold.Chemscore.Internal.Correction>
   9.000000E+99

> <Gold.Chemscore.Hbonds>
donor molecule, donor type, donor heavy atom, donor atom, acceptor molecule, acceptor atom, score
      P1  H  6896  6909       L1     1  0.67

> <Gold.Chemscore.Hbond.Weighted>
-3.1470

> <Gold.Chemscore.Metal.Weighted>
-0.0000

> <Gold.Chemscore.Lipo.Weighted>
-12.3935

> <Gold.Chemscore.Internal_Hbond.Weighted>
0.0000

> <Gold.Chemscore.DEClash.Weighted>
0.0471

> <Gold.Chemscore.DEInternal.Weighted>
4.3389

> <Gold.Chemscore.Rot.Weighted>
4.2865

> <Gold.Chemscore.Internal.Correction.Weighted>
   9.000000E+99

> <Gold.Protein.RotatedTorsions>
[ 6907 6896 6895 6894 ] final  115.04 input  -60.11 | X-H torsion
[ 7974 7965 7964 7962 ] final   24.84 input  175.53 | X-H torsion
[ 8008 7997 7996 7995 ] final  147.98 input   59.86 | X-H torsion
[ 10167 10162 10161 10158 ] final   77.59 input  -65.29 | X-H torsion
[ 10718 10713 10712 10709 ] final  -59.28 input   66.30 | X-H torsion
[ 10763 10752 10751 10750 ] final -153.87 input  -60.55 | X-H torsion
[ 11005 11000 10999 10996 ] final -124.66 input  -57.11 | X-H torsion

> <Gold.Protein.ActiveResidues>
 VAL166  LYS551  ARG553  GLY616  TRP617  ASP618  TYR619  PRO620  LYS621  CYS622 
 ASP623  PHE694  ASN695  SER759  ASP760  ASP761  ALA762  ILE779  LEU786  VAL792 
 PHE793  MET794  SER795  GLU796  ALA797  LYS798  CYS799  TRP800  GLU811  SER814 

> <Gold.Protein.RotatedAtoms>
  152.4766  133.8153  159.7024 H   0  0  0  0  0  0  0  0  0  0  0  0  # atno 6907 bound_to 6896
  150.8787  133.7392  159.2945 H   0  0  0  0  0  0  0  0  0  0  0  0  # atno 6908 bound_to 6896
  151.4904  135.1060  159.9854 H   0  0  0  0  0  0  0  0  0  0  0  0  # atno 6909 bound_to 6896
  146.1918  139.7549  142.8826 H   0  0  0  0  0  0  0  0  0  0  0  0  # atno 7974 bound_to 7965
  156.2806  140.2141  156.5626 H   0  0  0  0  0  0  0  0  0  0  0  0  # atno 8008 bound_to 7997
  154.7201  140.0504  157.0654 H   0  0  0  0  0  0  0  0  0  0  0  0  # atno 8009 bound_to 7997
  155.0490  140.3154  155.4701 H   0  0  0  0  0  0  0  0  0  0  0  0  # atno 8010 bound_to 7997
  139.9800  144.5833  150.7909 H   0  0  0  0  0  0  0  0  0  0  0  0  # atno 10167 bound_to 10162
  156.1073  130.4179  150.0693 H   0  0  0  0  0  0  0  0  0  0  0  0  # atno 10718 bound_to 10713
  154.7898  135.3203  154.7803 H   0  0  0  0  0  0  0  0  0  0  0  0  # atno 10763 bound_to 10752
  153.8494  135.6863  153.4798 H   0  0  0  0  0  0  0  0  0  0  0  0  # atno 10764 bound_to 10752
  153.1564  135.4678  154.9650 H   0  0  0  0  0  0  0  0  0  0  0  0  # atno 10765 bound_to 10752
  140.9824  134.0655  157.3750 H   0  0  0  0  0  0  0  0  0  0  0  0  # atno 11005 bound_to 11000
  145.3769  141.0352  143.3199 LP  0  0  0  0  0  0  0  0  0  0  0  0  # atno 17320 bound_to 7965
  144.8501  139.5335  143.6860 LP  0  0  0  0  0  0  0  0  0  0  0  0  # atno 17321 bound_to 7965
  140.7492  143.2935  151.3266 LP  0  0  0  0  0  0  0  0  0  0  0  0  # atno 17342 bound_to 10162
  139.6417  144.0527  152.2559 LP  0  0  0  0  0  0  0  0  0  0  0  0  # atno 17343 bound_to 10162
  156.8666  130.9510  151.3613 LP  0  0  0  0  0  0  0  0  0  0  0  0  # atno 17370 bound_to 10713
  157.6251  130.8685  149.9175 LP  0  0  0  0  0  0  0  0  0  0  0  0  # atno 17371 bound_to 10713
  139.8956  135.0141  156.7008 LP  0  0  0  0  0  0  0  0  0  0  0  0  # atno 17394 bound_to 11000
  140.7167  133.9176  155.8119 LP  0  0  0  0  0  0  0  0  0  0  0  0  # atno 17395 bound_to 11000

$$$$
