AV-unprocessed.smi:658|AV-procd|sdf|3233|dock5
  -GOLD-   22720 0173D 1   1.00000     0.00000
 Structure written by MMmdl.
 38 38  0  0  0  0  0  0  0  0  2 V2000
  146.3918  139.9250  152.4622 C   0  0  0  0  0  0  0  0  0  0  0  0
  146.8387  138.4851  152.7642 C   0  0  1  0  0  0  0  0  0  0  0  0
  148.3168  138.4524  152.8589 N   0  3  0  0  0  0  0  0  0  0  0  0
  148.8637  138.8891  154.1586 C   0  0  0  0  0  0  0  0  0  0  0  0
  150.3929  138.9818  154.1071 C   0  0  0  0  0  0  0  0  0  0  0  0
  151.0065  139.2933  155.4791 C   0  0  0  0  0  0  0  0  0  0  0  0
  152.6865  138.5534  155.6552 S   0  0  0  0  0  0  0  0  0  0  0  0
  153.0968  138.9696  157.2724 N   0  0  0  0  0  0  0  0  0  0  0  0
  152.5795  137.0879  155.5916 O   0  0  0  0  0  0  0  0  0  0  0  0
  153.6109  139.2810  154.7732 O   0  0  0  0  0  0  0  0  0  0  0  0
  146.2095  137.9107  154.0595 C   0  0  1  0  0  0  0  0  0  0  0  0
  145.7502  138.9974  155.0499 C   0  0  0  0  0  0  0  0  0  0  0  0
  145.0951  137.0247  153.7397 N   0  0  0  0  0  0  0  0  0  0  0  0
  144.1343  137.1588  152.7564 C   0  0  0  0  0  0  0  0  0  0  0  0
  143.3349  136.0535  152.8120 C   0  0  0  0  0  0  0  0  0  0  0  0
  143.8961  135.2830  153.8676 C   0  0  0  0  0  0  0  0  0  0  0  0
  144.9540  135.8613  154.4130 N   0  0  0  0  0  0  0  0  0  0  0  0
  145.3208  139.9832  152.2700 H   0  0  0  0  0  0  0  0  0  0  0  0
  146.8943  140.3118  151.5750 H   0  0  0  0  0  0  0  0  0  0  0  0
  146.6208  140.5951  153.2917 H   0  0  0  0  0  0  0  0  0  0  0  0
  146.5213  137.8584  151.9286 H   0  0  0  0  0  0  0  0  0  0  0  0
  148.6365  137.5146  152.6630 H   0  0  0  0  0  0  0  0  0  0  0  0
  148.4444  139.8638  154.4129 H   0  0  0  0  0  0  0  0  0  0  0  0
  148.5527  138.1877  154.9339 H   0  0  0  0  0  0  0  0  0  0  0  0
  150.8023  138.0431  153.7318 H   0  0  0  0  0  0  0  0  0  0  0  0
  150.6837  139.7554  153.3952 H   0  0  0  0  0  0  0  0  0  0  0  0
  151.1097  140.3720  155.6013 H   0  0  0  0  0  0  0  0  0  0  0  0
  150.3829  138.9300  156.2964 H   0  0  0  0  0  0  0  0  0  0  0  0
  153.4157  138.1723  157.8228 H   0  0  0  0  0  0  0  0  0  0  0  0
  152.3964  139.5557  157.7265 H   0  0  0  0  0  0  0  0  0  0  0  0
  146.9673  137.3128  154.5701 H   0  0  0  0  0  0  0  0  0  0  0  0
  146.5933  139.5655  155.4423 H   0  0  0  0  0  0  0  0  0  0  0  0
  145.2405  138.5546  155.9064 H   0  0  0  0  0  0  0  0  0  0  0  0
  145.0623  139.7027  154.5827 H   0  0  0  0  0  0  0  0  0  0  0  0
  144.1006  138.0177  152.1025 H   0  0  0  0  0  0  0  0  0  0  0  0
  142.4812  135.8276  152.1902 H   0  0  0  0  0  0  0  0  0  0  0  0
  143.5726  134.3247  154.2466 H   0  0  0  0  0  0  0  0  0  0  0  0
  148.6831  139.0698  152.1473 H   0  0  0  0  0  0  0  0  0  0  0  0
  1  2  1  0  0  0  0
  1 18  1  0  0  0  0
  1 19  1  0  0  0  0
  1 20  1  0  0  0  0
  2  3  1  0  0  0  0
  2 11  1  0  0  0  0
  2 21  1  0  0  0  0
  3  4  1  0  0  0  0
  3 22  1  0  0  0  0
  3 38  1  0  0  0  0
  4  5  1  0  0  0  0
  4 23  1  0  0  0  0
  4 24  1  0  0  0  0
  5  6  1  0  0  0  0
  5 25  1  0  0  0  0
  5 26  1  0  0  0  0
  6  7  1  0  0  0  0
  6 27  1  0  0  0  0
  6 28  1  0  0  0  0
  7  8  1  0  0  0  0
  7  9  2  0  0  0  0
  7 10  2  0  0  0  0
  8 29  1  0  0  0  0
  8 30  1  0  0  0  0
 11 12  1  0  0  0  0
 11 13  1  0  0  0  0
 11 31  1  0  0  0  0
 12 32  1  0  0  0  0
 12 33  1  0  0  0  0
 12 34  1  0  0  0  0
 13 17  1  0  0  0  0
 13 14  1  0  0  0  0
 14 15  2  0  0  0  0
 14 35  1  0  0  0  0
 15 16  1  0  0  0  0
 15 36  1  0  0  0  0
 16 17  2  0  0  0  0
 16 37  1  0  0  0  0
M  CHG  1   3   1
M  END
> <s_m_source_file>
AV-unprocessed.smi

> <i_m_source_file_index>
658

> <i_lp_mmshare_version>
43012

> <i_f3d_flags>
0

> <s_epik_input>
bjFbY0hdW2NIXVtjSF1uMVtDQEBIXShbQ0gzXSlbQ0BIXShbQ0gzXSlbTkhdW0NIMl1bQ0gyXVtDSDJdUyg9TykoPU8pW05IMl0=

> <s_epik_cmdline>
J2VwaWtfcHl0aG9uJywgJy1waCcsICc3LjAnLCAnLXRuJywgJzgnLCAnLW1hJywgJzIwMCcsICctbWV0YWxfYmluZGluZycsICctaW1hZScsICc8aW5maWxlLm1hZT4nLCAnLW9tYWUnLCAnPG91dGZpbGUubWFlPic=

> <r_lp_tautomer_probability>
1

> <r_epik_Ionization_Penalty>
0.00535781

> <r_epik_Ionization_Penalty_Charging>
0.00511015

> <r_epik_Ionization_Penalty_Neutral>
0.000247661

> <r_epik_State_Penalty>
-0

> <r_epik_Charging_Adjusted_Penalty>
0.00511015

> <i_epik_Tot_Q>
1

> <i_epik_Tot_abs_Q>
1

> <r_epik_Metal_State_Penalty>
0.149106

> <b_epik_Metal_Only>
0

> <s_lp_Force_Field>
OPLS_2005

> <r_lp_Energy>
6.97458

> <b_lp_Chiralities_Consistent>
1

> <s_lp_Variant>
AV-unprocessed.smi:658-4

> <Gold.Version>
5.8.1

> <Gold.Id.Protein>
6NUR|6NUR_protein|mol2

> <Gold.PLP.Fitness>
41.7873

> <Gold.PLP.PLP>
-23.0753

> <Gold.PLP.part.hbond>
-4.9868

> <Gold.PLP.part.metal>
0.0000

> <Gold.PLP.part.buried>
-0.1222

> <Gold.PLP.part.nonpolar>
-19.3406

> <Gold.PLP.part.repulsive>
0.1269

> <Gold.PLP.ligand.clash>
0.0000

> <Gold.PLP.ligand.torsion>
2.1866

> <Gold.PLP.Chemscore.Hbond>
5.2240

> <Gold.PLP.Chemscore.CHOScore>
2.3856

> <Gold.PLP.Chemscore.Metal>
0.0000

> <Gold.Chemscore.Hbonds>
donor molecule, donor type, donor heavy atom, donor atom, acceptor molecule, acceptor atom, score
      L1  H     3    22       P1  7948  1.98
      L1  H     3    38       P1  7957  1.00
      P1  H  7997  8008       L1     8  0.82
      P1  H  7997  8009       L1    10  0.74
      P1  H 10752 10764       L1     9  0.66
      L1  C    14    35       P1 10171  1.00
      L1  C    14    35       P1 10175  1.00
      L1  C    16    37       P1 10957  0.40

> <Gold.PLP.Chemscore.Internal.Correction>
0.2565

> <Gold.Rescore>
     Score         DG    S(hbond)    S(metal)    S(lipo)     H(rot)  DE(clash)    DE(int)     intcor
     12.13     -15.63       3.72        0.00      49.16       3.13       1.36       2.14       ----

> <Gold.Chemscore.Fitness>
12.1313

> <Gold.Chemscore.DG>
-15.6305

> <Gold.Chemscore.ZeroCoef>
-5.4800

> <Gold.Chemscore.Hbond>
3.7169

> <Gold.Chemscore.Metal>
0.0000

> <Gold.Chemscore.Lipo>
49.1631

> <Gold.Chemscore.Internal_Hbond>
0.0000

> <Gold.Chemscore.DEClash>
1.3558

> <Gold.Chemscore.DEInternal>
2.1434

> <Gold.Chemscore.Rot>
3.1312

> <Gold.Chemscore.Internal.Correction>
   9.000000E+99

> <Gold.Chemscore.Hbonds>
donor molecule, donor type, donor heavy atom, donor atom, acceptor molecule, acceptor atom, score
      L1  H     3    22       P1  7948  0.92
      L1  H     3    38       P1  7957  0.99
      P1  H  7997  8008       L1     8  0.09
      P1  H  7997  8009       L1    10  0.72
      P1  H 10752 10764       L1     9  0.66

> <Gold.Chemscore.Hbond.Weighted>
-12.4144

> <Gold.Chemscore.Metal.Weighted>
-0.0000

> <Gold.Chemscore.Lipo.Weighted>
-5.7521

> <Gold.Chemscore.Internal_Hbond.Weighted>
0.0000

> <Gold.Chemscore.DEClash.Weighted>
1.3558

> <Gold.Chemscore.DEInternal.Weighted>
2.1434

> <Gold.Chemscore.Rot.Weighted>
8.0160

> <Gold.Chemscore.Internal.Correction.Weighted>
   9.000000E+99

> <Gold.Protein.RotatedTorsions>
[ 6907 6896 6895 6894 ] final  -50.93 input  -60.11 | X-H torsion
[ 7974 7965 7964 7962 ] final   54.64 input  175.53 | X-H torsion
[ 8008 7997 7996 7995 ] final  -96.39 input   59.86 | X-H torsion
[ 10167 10162 10161 10158 ] final  -59.39 input  -65.29 | X-H torsion
[ 10718 10713 10712 10709 ] final  116.50 input   66.30 | X-H torsion
[ 10763 10752 10751 10750 ] final  -51.78 input  -60.55 | X-H torsion
[ 11005 11000 10999 10996 ] final  -85.47 input  -57.11 | X-H torsion

> <Gold.Protein.ActiveResidues>
 VAL166  LYS551  ARG553  GLY616  TRP617  ASP618  TYR619  PRO620  LYS621  CYS622 
 ASP623  PHE694  ASN695  SER759  ASP760  ASP761  ALA762  ILE779  LEU786  VAL792 
 PHE793  MET794  SER795  GLU796  ALA797  LYS798  CYS799  TRP800  GLU811  SER814 

> <Gold.Protein.RotatedAtoms>
  150.8660  134.8023  159.7118 H   0  0  0  0  0  0  0  0  0  0  0  0  # atno 6907 bound_to 6896
  152.4681  134.5023  159.9738 H   0  0  0  0  0  0  0  0  0  0  0  0  # atno 6908 bound_to 6896
  151.5119  133.3445  159.2922 H   0  0  0  0  0  0  0  0  0  0  0  0  # atno 6909 bound_to 6896
  145.9587  139.4039  143.0261 H   0  0  0  0  0  0  0  0  0  0  0  0  # atno 7974 bound_to 7965
  154.7739  140.0472  157.1073 H   0  0  0  0  0  0  0  0  0  0  0  0  # atno 8008 bound_to 7997
  154.9787  140.3098  155.4936 H   0  0  0  0  0  0  0  0  0  0  0  0  # atno 8009 bound_to 7997
  156.2926  140.2240  156.4884 H   0  0  0  0  0  0  0  0  0  0  0  0  # atno 8010 bound_to 7997
  140.6138  143.2395  151.5646 H   0  0  0  0  0  0  0  0  0  0  0  0  # atno 10167 bound_to 10162
  157.6156  131.1026  150.7482 H   0  0  0  0  0  0  0  0  0  0  0  0  # atno 10718 bound_to 10713
  154.1322  135.6518  153.4924 H   0  0  0  0  0  0  0  0  0  0  0  0  # atno 10763 bound_to 10752
  153.0192  135.5295  154.6990 H   0  0  0  0  0  0  0  0  0  0  0  0  # atno 10764 bound_to 10752
  154.6228  135.2966  155.0277 H   0  0  0  0  0  0  0  0  0  0  0  0  # atno 10765 bound_to 10752
  141.1641  133.7401  156.9020 H   0  0  0  0  0  0  0  0  0  0  0  0  # atno 11005 bound_to 11000
  145.8070  140.9744  143.0969 LP  0  0  0  0  0  0  0  0  0  0  0  0  # atno 17320 bound_to 7965
  144.6810  139.9873  143.7484 LP  0  0  0  0  0  0  0  0  0  0  0  0  # atno 17321 bound_to 7965
  139.5382  144.2721  152.1296 LP  0  0  0  0  0  0  0  0  0  0  0  0  # atno 17342 bound_to 10162
  140.1926  144.4737  150.6471 LP  0  0  0  0  0  0  0  0  0  0  0  0  # atno 17343 bound_to 10162
  156.7850  130.4871  149.5394 LP  0  0  0  0  0  0  0  0  0  0  0  0  # atno 17370 bound_to 10713
  156.1277  130.6155  151.0287 LP  0  0  0  0  0  0  0  0  0  0  0  0  # atno 17371 bound_to 10713
  140.1576  134.9188  157.2673 LP  0  0  0  0  0  0  0  0  0  0  0  0  # atno 17394 bound_to 11000
  140.2649  134.3527  155.7393 LP  0  0  0  0  0  0  0  0  0  0  0  0  # atno 17395 bound_to 11000

$$$$
