AV-unprocessed.smi:2477|AV-procd|sdf|9759|dock10
  -GOLD-   2272013403D 1   1.00000     0.00000
 Structure written by MMmdl.
 51 53  0  0  0  0  0  0  0  0  1 V2000
  153.8015  141.3969  160.0019 C   0  0  0  0  0  0  0  0  0  0  0  0
  152.9792  142.2396  159.1297 N   0  0  0  0  0  0  0  0  0  0  0  0
  153.3155  143.6005  159.0354 C   0  0  0  0  0  0  0  0  0  0  0  0
  152.6179  144.4454  158.2637 C   0  0  0  0  0  0  0  0  0  0  0  0
  151.4963  143.9269  157.5178 C   0  0  0  0  0  0  0  0  0  0  0  0
  151.1599  142.6139  157.5860 C   0  0  0  0  0  0  0  0  0  0  0  0
  150.0836  142.0247  156.8994 N   0  0  0  0  0  0  0  0  0  0  0  0
  150.0935  141.1945  155.8403 C   0  0  0  0  0  0  0  0  0  0  0  0
  151.0950  140.7737  155.2622 O   0  0  0  0  0  0  0  0  0  0  0  0
  148.8446  140.8427  155.5018 N   0  0  0  0  0  0  0  0  0  0  0  0
  148.4818  139.9001  154.4454 C   0  0  2  0  0  0  0  0  0  0  0  0
  147.3702  140.5276  153.5812 C   0  0  0  0  0  0  0  0  0  0  0  0
  146.8720  139.5582  152.4979 C   0  0  0  0  0  0  0  0  0  0  0  0
  146.4007  138.2337  153.1154 C   0  0  0  0  0  0  0  0  0  0  0  0
  147.5141  137.5959  153.9584 C   0  0  0  0  0  0  0  0  0  0  0  0
  148.0157  138.5551  155.0527 C   0  0  1  0  0  0  0  0  0  0  0  0
  149.1142  137.9169  155.6945 O   0  0  0  0  0  0  0  0  0  0  0  0
  148.8322  136.6320  156.2376 C   0  0  0  0  0  0  0  0  0  0  0  0
  147.8852  136.8182  157.4238 C   0  0  0  0  0  0  0  0  0  0  0  0
  148.7823  137.1709  158.6179 C   0  0  0  0  0  0  0  0  0  0  0  0
  150.2078  136.7471  158.2306 C   0  0  0  0  0  0  0  0  0  0  0  0
  150.0865  136.0340  156.8810 C   0  0  0  0  0  0  0  0  0  0  0  0
  151.9315  141.6927  158.4438 C   0  0  0  0  0  0  0  0  0  0  0  0
  151.6589  140.4938  158.5458 O   0  0  0  0  0  0  0  0  0  0  0  0
  154.6046  141.9512  160.4884 H   0  0  0  0  0  0  0  0  0  0  0  0
  154.2642  140.5909  159.4307 H   0  0  0  0  0  0  0  0  0  0  0  0
  153.1928  140.9502  160.7892 H   0  0  0  0  0  0  0  0  0  0  0  0
  154.1669  143.9112  159.6230 H   0  0  0  0  0  0  0  0  0  0  0  0
  152.8891  145.4889  158.2003 H   0  0  0  0  0  0  0  0  0  0  0  0
  150.9380  144.6300  156.9220 H   0  0  0  0  0  0  0  0  0  0  0  0
  149.1773  142.2286  157.2951 H   0  0  0  0  0  0  0  0  0  0  0  0
  148.0831  141.2345  156.0360 H   0  0  0  0  0  0  0  0  0  0  0  0
  149.3424  139.7160  153.7993 H   0  0  0  0  0  0  0  0  0  0  0  0
  146.5302  140.8190  154.2136 H   0  0  0  0  0  0  0  0  0  0  0  0
  147.7343  141.4426  153.1126 H   0  0  0  0  0  0  0  0  0  0  0  0
  146.0587  140.0162  151.9344 H   0  0  0  0  0  0  0  0  0  0  0  0
  147.6732  139.3651  151.7834 H   0  0  0  0  0  0  0  0  0  0  0  0
  145.5235  138.4098  153.7392 H   0  0  0  0  0  0  0  0  0  0  0  0
  146.0893  137.5460  152.3288 H   0  0  0  0  0  0  0  0  0  0  0  0
  147.1516  136.6724  154.4109 H   0  0  0  0  0  0  0  0  0  0  0  0
  148.3442  137.3148  153.3091 H   0  0  0  0  0  0  0  0  0  0  0  0
  147.1945  138.7384  155.7494 H   0  0  0  0  0  0  0  0  0  0  0  0
  148.3924  135.9765  155.4845 H   0  0  0  0  0  0  0  0  0  0  0  0
  147.1175  137.5695  157.2353 H   0  0  0  0  0  0  0  0  0  0  0  0
  147.3739  135.8764  157.6256 H   0  0  0  0  0  0  0  0  0  0  0  0
  148.7535  138.2434  158.8137 H   0  0  0  0  0  0  0  0  0  0  0  0
  148.4427  136.6651  159.5226 H   0  0  0  0  0  0  0  0  0  0  0  0
  150.8340  137.6336  158.1215 H   0  0  0  0  0  0  0  0  0  0  0  0
  150.6703  136.1110  158.9859 H   0  0  0  0  0  0  0  0  0  0  0  0
  149.9296  134.9676  157.0485 H   0  0  0  0  0  0  0  0  0  0  0  0
  150.9824  136.1379  156.2687 H   0  0  0  0  0  0  0  0  0  0  0  0
  1  2  1  0  0  0  0
  1 25  1  0  0  0  0
  1 26  1  0  0  0  0
  1 27  1  0  0  0  0
  2 23  1  0  0  0  0
  2  3  1  0  0  0  0
  3  4  2  0  0  0  0
  3 28  1  0  0  0  0
  4  5  1  0  0  0  0
  4 29  1  0  0  0  0
  5  6  2  0  0  0  0
  5 30  1  0  0  0  0
  6  7  1  0  0  0  0
  6 23  1  0  0  0  0
  7  8  1  0  0  0  0
  7 31  1  0  0  0  0
  8  9  2  0  0  0  0
  8 10  1  0  0  0  0
 10 11  1  0  0  0  0
 10 32  1  0  0  0  0
 11 16  1  0  0  0  0
 11 12  1  0  0  0  0
 11 33  1  0  0  0  0
 12 13  1  0  0  0  0
 12 34  1  0  0  0  0
 12 35  1  0  0  0  0
 13 14  1  0  0  0  0
 13 36  1  0  0  0  0
 13 37  1  0  0  0  0
 14 15  1  0  0  0  0
 14 38  1  0  0  0  0
 14 39  1  0  0  0  0
 15 16  1  0  0  0  0
 15 40  1  0  0  0  0
 15 41  1  0  0  0  0
 16 17  1  0  0  0  0
 16 42  1  0  0  0  0
 17 18  1  0  0  0  0
 18 22  1  0  0  0  0
 18 19  1  0  0  0  0
 18 43  1  0  0  0  0
 19 20  1  0  0  0  0
 19 44  1  0  0  0  0
 19 45  1  0  0  0  0
 20 21  1  0  0  0  0
 20 46  1  0  0  0  0
 20 47  1  0  0  0  0
 21 22  1  0  0  0  0
 21 48  1  0  0  0  0
 21 49  1  0  0  0  0
 22 50  1  0  0  0  0
 22 51  1  0  0  0  0
 23 24  2  0  0  0  0
M  END
> <s_m_source_file>
AV-unprocessed.smi

> <i_m_source_file_index>
2477

> <i_lp_mmshare_version>
43012

> <i_f3d_flags>
0

> <s_epik_input>
W0NIM11uMVtjSF1bY0hdW2NIXWMoYzE9TylbTkhdQyg9TylbTkhdW0NAQEhdMltDSDJdW0NIMl1bQ0gyXVtDSDJdW0NASF0yT1tDSF0zW0NIMl1bQ0gyXVtDSDJdW0NIMl0z

> <s_epik_cmdline>
J2VwaWtfcHl0aG9uJywgJy1waCcsICc3LjAnLCAnLXRuJywgJzgnLCAnLW1hJywgJzIwMCcsICctbWV0YWxfYmluZGluZycsICctaW1hZScsICc8aW5maWxlLm1hZT4nLCAnLW9tYWUnLCAnPG91dGZpbGUubWFlPic=

> <r_lp_tautomer_probability>
1

> <r_epik_Ionization_Penalty>
2.40753e-05

> <r_epik_Ionization_Penalty_Charging>
4.84018e-06

> <r_epik_Ionization_Penalty_Neutral>
1.92352e-05

> <r_epik_State_Penalty>
-0

> <r_epik_Charging_Adjusted_Penalty>
4.84018e-06

> <i_epik_Tot_Q>
0

> <i_epik_Tot_abs_Q>
0

> <r_epik_Metal_State_Penalty>
-0

> <b_epik_Metal_Only>
0

> <s_lp_Force_Field>
OPLS_2005

> <r_lp_Energy>
41.4176

> <b_lp_Chiralities_Consistent>
1

> <s_lp_Variant>
AV-unprocessed.smi:2477-1

> <Gold.Version>
5.8.1

> <Gold.Id.Protein>
6NUR|6NUR_protein|mol2

> <Gold.PLP.Fitness>
40.0589

> <Gold.PLP.PLP>
-39.1091

> <Gold.PLP.part.hbond>
-1.6305

> <Gold.PLP.part.metal>
0.0000

> <Gold.PLP.part.buried>
-3.4084

> <Gold.PLP.part.nonpolar>
-36.0057

> <Gold.PLP.part.repulsive>
0.1594

> <Gold.PLP.ligand.clash>
0.0000

> <Gold.PLP.ligand.torsion>
0.8649

> <Gold.PLP.Chemscore.Hbond>
0.8800

> <Gold.PLP.Chemscore.CHOScore>
0.0000

> <Gold.PLP.Chemscore.Metal>
0.0000

> <Gold.Chemscore.Hbonds>
donor molecule, donor type, donor heavy atom, donor atom, acceptor molecule, acceptor atom, score
      P1  H  7989  7998       L1     9  0.80

> <Gold.PLP.Chemscore.Internal.Correction>
0.0397

> <Gold.Rescore>
     Score         DG    S(hbond)    S(metal)    S(lipo)     H(rot)  DE(clash)    DE(int)     intcor
     15.84     -17.05       0.91        0.00     102.61       1.36       0.42       0.79       ----

> <Gold.Chemscore.Fitness>
15.8414

> <Gold.Chemscore.DG>
-17.0473

> <Gold.Chemscore.ZeroCoef>
-5.4800

> <Gold.Chemscore.Hbond>
0.9085

> <Gold.Chemscore.Metal>
0.0000

> <Gold.Chemscore.Lipo>
102.6078

> <Gold.Chemscore.Internal_Hbond>
0.0000

> <Gold.Chemscore.DEClash>
0.4208

> <Gold.Chemscore.DEInternal>
0.7850

> <Gold.Chemscore.Rot>
1.3564

> <Gold.Chemscore.Internal.Correction>
   9.000000E+99

> <Gold.Chemscore.Hbonds>
donor molecule, donor type, donor heavy atom, donor atom, acceptor molecule, acceptor atom, score
      P1  H  7989  7998       L1     9  0.80

> <Gold.Chemscore.Hbond.Weighted>
-3.0345

> <Gold.Chemscore.Metal.Weighted>
-0.0000

> <Gold.Chemscore.Lipo.Weighted>
-12.0051

> <Gold.Chemscore.Internal_Hbond.Weighted>
0.0000

> <Gold.Chemscore.DEClash.Weighted>
0.4208

> <Gold.Chemscore.DEInternal.Weighted>
0.7850

> <Gold.Chemscore.Rot.Weighted>
3.4724

> <Gold.Chemscore.Internal.Correction.Weighted>
   9.000000E+99

> <Gold.Protein.RotatedTorsions>
[ 6907 6896 6895 6894 ] final -148.45 input  -60.11 | X-H torsion
[ 7974 7965 7964 7962 ] final  121.57 input  175.53 | X-H torsion
[ 8008 7997 7996 7995 ] final  -82.87 input   59.86 | X-H torsion
[ 10167 10162 10161 10158 ] final  146.78 input  -65.29 | X-H torsion
[ 10718 10713 10712 10709 ] final  162.44 input   66.30 | X-H torsion
[ 10763 10752 10751 10750 ] final  166.56 input  -60.55 | X-H torsion
[ 11005 11000 10999 10996 ] final -152.85 input  -57.11 | X-H torsion

> <Gold.Protein.ActiveResidues>
 VAL166  LYS551  ARG553  GLY616  TRP617  ASP618  TYR619  PRO620  LYS621  CYS622 
 ASP623  PHE694  ASN695  SER759  ASP760  ASP761  ALA762  ILE779  LEU786  VAL792 
 PHE793  MET794  SER795  GLU796  ALA797  LYS798  CYS799  TRP800  GLU811  SER814 

> <Gold.Protein.RotatedAtoms>
  151.1700  133.4790  159.2593 H   0  0  0  0  0  0  0  0  0  0  0  0  # atno 6907 bound_to 6896
  151.1366  135.0158  159.8617 H   0  0  0  0  0  0  0  0  0  0  0  0  # atno 6908 bound_to 6896
  152.5461  134.1597  159.8606 H   0  0  0  0  0  0  0  0  0  0  0  0  # atno 6909 bound_to 6896
  145.1178  139.3409  143.4730 H   0  0  0  0  0  0  0  0  0  0  0  0  # atno 7974 bound_to 7965
  154.6131  140.0627  156.9519 H   0  0  0  0  0  0  0  0  0  0  0  0  # atno 8008 bound_to 7997
  155.1940  140.3309  155.4335 H   0  0  0  0  0  0  0  0  0  0  0  0  # atno 8009 bound_to 7997
  156.2388  140.1876  156.7029 H   0  0  0  0  0  0  0  0  0  0  0  0  # atno 8010 bound_to 7997
  139.4901  144.5804  151.6883 H   0  0  0  0  0  0  0  0  0  0  0  0  # atno 10167 bound_to 10162
  157.1225  131.0496  151.2408 H   0  0  0  0  0  0  0  0  0  0  0  0  # atno 10718 bound_to 10713
  154.3408  135.2754  155.2423 H   0  0  0  0  0  0  0  0  0  0  0  0  # atno 10763 bound_to 10752
  154.4694  135.5887  153.6315 H   0  0  0  0  0  0  0  0  0  0  0  0  # atno 10764 bound_to 10752
  152.9858  135.6084  154.3609 H   0  0  0  0  0  0  0  0  0  0  0  0  # atno 10765 bound_to 10752
  140.7145  134.3796  157.5193 H   0  0  0  0  0  0  0  0  0  0  0  0  # atno 11005 bound_to 11000
  146.3523  140.1125  142.8603 LP  0  0  0  0  0  0  0  0  0  0  0  0  # atno 17320 bound_to 7965
  145.0774  140.9197  143.4846 LP  0  0  0  0  0  0  0  0  0  0  0  0  # atno 17321 bound_to 7965
  140.5409  144.0581  150.6088 LP  0  0  0  0  0  0  0  0  0  0  0  0  # atno 17342 bound_to 10162
  140.3603  143.2912  152.0391 LP  0  0  0  0  0  0  0  0  0  0  0  0  # atno 17343 bound_to 10162
  157.4464  130.7573  149.7113 LP  0  0  0  0  0  0  0  0  0  0  0  0  # atno 17370 bound_to 10713
  155.9825  130.4009  150.3411 LP  0  0  0  0  0  0  0  0  0  0  0  0  # atno 17371 bound_to 10713
  139.8863  134.8912  156.2591 LP  0  0  0  0  0  0  0  0  0  0  0  0  # atno 17394 bound_to 11000
  141.0056  133.7125  156.1030 LP  0  0  0  0  0  0  0  0  0  0  0  0  # atno 17395 bound_to 11000

$$$$
