AV-unprocessed.smi:158|AV-procd|sdf|1332|dock10
  -GOLD-   2262019 33D 1   1.00000     0.00000
 Structure written by MMmdl.
 31 33  0  0  0  0  0  0  0  0  1 V2000
  148.6392  129.6433  155.8534 N   0  0  0  0  0  0  0  0  0  0  0  0
  148.4978  130.6980  155.0383 C   0  0  0  0  0  0  0  0  0  0  0  0
  149.2018  131.8211  155.3111 N   0  0  0  0  0  0  0  0  0  0  0  0
  149.0891  132.8977  154.5233 C   0  0  0  0  0  0  0  0  0  0  0  0
  150.0310  134.2729  154.9643 Cl  0  0  0  0  0  0  0  0  0  0  0  0
  148.3268  133.0278  153.4326 N   0  0  0  0  0  0  0  0  0  0  0  0
  147.6146  131.8973  153.1538 C   0  0  0  0  0  0  0  0  0  0  0  0
  147.6464  130.6928  153.9064 C   0  0  0  0  0  0  0  0  0  0  0  0
  146.8002  129.7532  153.3331 N   0  0  0  0  0  0  0  0  0  0  0  0
  146.2982  130.3732  152.2983 C   0  0  0  0  0  0  0  0  0  0  0  0
  146.7331  131.6675  152.1159 N   0  0  0  0  0  0  0  0  0  0  0  0
  146.3362  132.6186  151.0315 C   0  0  1  0  0  0  0  0  0  0  0  0
  145.4208  131.9951  150.1790 O   0  0  0  0  0  0  0  0  0  0  0  0
  144.2873  132.8392  149.9691 C   0  0  2  0  0  0  0  0  0  0  0  0
  143.8434  132.7366  148.5019 C   0  0  0  0  0  0  0  0  0  0  0  0
  143.2757  133.9543  148.0680 O   0  0  0  0  0  0  0  0  0  0  0  0
  144.7706  134.2288  150.4020 C   0  0  1  0  0  0  0  0  0  0  0  0
  143.7288  135.1085  150.7759 O   0  0  0  0  0  0  0  0  0  0  0  0
  145.6663  133.8846  151.5755 C   0  0  1  0  0  0  0  0  0  0  0  0
  144.9461  133.5906  152.6626 F   0  0  0  0  0  0  0  0  0  0  0  0
  147.2560  132.8264  150.4832 H   0  0  0  0  0  0  0  0  0  0  0  0
  143.4942  132.4903  150.6332 H   0  0  0  0  0  0  0  0  0  0  0  0
  145.3632  134.6870  149.6089 H   0  0  0  0  0  0  0  0  0  0  0  0
  146.3964  134.6524  151.8329 H   0  0  0  0  0  0  0  0  0  0  0  0
  148.1240  128.7941  155.6710 H   0  0  0  0  0  0  0  0  0  0  0  0
  149.2590  129.6998  156.6485 H   0  0  0  0  0  0  0  0  0  0  0  0
  145.5906  129.8988  151.6340 H   0  0  0  0  0  0  0  0  0  0  0  0
  144.6811  132.4712  147.8560 H   0  0  0  0  0  0  0  0  0  0  0  0
  143.0930  131.9530  148.3944 H   0  0  0  0  0  0  0  0  0  0  0  0
  142.5326  134.1519  148.6176 H   0  0  0  0  0  0  0  0  0  0  0  0
  143.9544  135.9791  150.4841 H   0  0  0  0  0  0  0  0  0  0  0  0
  1  2  1  0  0  0  0
  1 25  1  0  0  0  0
  1 26  1  0  0  0  0
  2  8  1  0  0  0  0
  2  3  2  0  0  0  0
  3  4  1  0  0  0  0
  4  5  1  0  0  0  0
  4  6  2  0  0  0  0
  6  7  1  0  0  0  0
  7 11  1  0  0  0  0
  7  8  2  0  0  0  0
  8  9  1  0  0  0  0
  9 10  2  0  0  0  0
 10 11  1  0  0  0  0
 10 27  1  0  0  0  0
 11 12  1  0  0  0  0
 12 21  1  0  0  0  0
 12 19  1  0  0  0  0
 12 13  1  0  0  0  0
 13 14  1  0  0  0  0
 14 22  1  0  0  0  0
 14 15  1  0  0  0  0
 14 17  1  0  0  0  0
 15 16  1  0  0  0  0
 15 28  1  0  0  0  0
 15 29  1  0  0  0  0
 16 30  1  0  0  0  0
 17 23  1  0  0  0  0
 17 18  1  0  0  0  0
 17 19  1  0  0  0  0
 18 31  1  0  0  0  0
 19 24  1  0  0  0  0
 19 20  1  0  0  0  0
M  END
> <s_m_source_file>
AV-unprocessed.smi

> <i_m_source_file_index>
158

> <i_lp_mmshare_version>
43012

> <i_f3d_flags>
0

> <s_epik_input>
Q2xjKG4xKW5jKFtOSDJdKWMoYzEyKW5bY0hdbjJbQ0BASF0zT1tDQEhdKFtDSDJdW09IXSlbQ0BASF0oW09IXSlbQ0BASF0zRg==

> <s_epik_cmdline>
J2VwaWtfcHl0aG9uJywgJy1waCcsICc3LjAnLCAnLXRuJywgJzgnLCAnLW1hJywgJzIwMCcsICctbWV0YWxfYmluZGluZycsICctaW1hZScsICc8aW5maWxlLm1hZT4nLCAnLW9tYWUnLCAnPG91dGZpbGUubWFlPic=

> <r_lp_tautomer_probability>
1

> <r_epik_Ionization_Penalty>
6.51543e-05

> <r_epik_Ionization_Penalty_Charging>
0

> <r_epik_Ionization_Penalty_Neutral>
6.51543e-05

> <r_epik_State_Penalty>
-0

> <r_epik_Charging_Adjusted_Penalty>
0

> <i_epik_Tot_Q>
0

> <i_epik_Tot_abs_Q>
0

> <r_epik_Metal_State_Penalty>
-0

> <b_epik_Metal_Only>
0

> <s_epik_Chemistry_Notes>
This compound contains an acetal/aminal-like group ( X-CH(R)-Y where X, Y are N, S, or O) that may be acid/base labile, releasing an aldehyde.

> <s_lp_Force_Field>
OPLS_2005

> <r_lp_Energy>
35.9633

> <b_lp_Chiralities_Consistent>
1

> <s_lp_Variant>
AV-unprocessed.smi:158-10

> <Gold.Version>
5.8.1

> <Gold.Id.Protein>
6NUR|6NUR_protein|mol2

> <Gold.PLP.Fitness>
36.0594

> <Gold.PLP.PLP>
-33.7746

> <Gold.PLP.part.hbond>
-4.8386

> <Gold.PLP.part.metal>
0.0000

> <Gold.PLP.part.buried>
-4.0156

> <Gold.PLP.part.nonpolar>
-25.8306

> <Gold.PLP.part.repulsive>
0.4248

> <Gold.PLP.ligand.clash>
0.0000

> <Gold.PLP.ligand.torsion>
0.3594

> <Gold.PLP.Chemscore.Hbond>
1.0000

> <Gold.PLP.Chemscore.CHOScore>
0.0000

> <Gold.PLP.Chemscore.Metal>
0.0000

> <Gold.Chemscore.Hbonds>
donor molecule, donor type, donor heavy atom, donor atom, acceptor molecule, acceptor atom, score
      L1  H    16    30       P1 10186  1.00

> <Gold.PLP.Chemscore.Internal.Correction>
0.0037

> <Gold.Rescore>
     Score         DG    S(hbond)    S(metal)    S(lipo)     H(rot)  DE(clash)    DE(int)     intcor
      5.57      -6.14       0.99        0.00      45.60       3.12       0.37       0.21       ----

> <Gold.Chemscore.Fitness>
5.5676

> <Gold.Chemscore.DG>
-6.1406

> <Gold.Chemscore.ZeroCoef>
-5.4800

> <Gold.Chemscore.Hbond>
0.9940

> <Gold.Chemscore.Metal>
0.0000

> <Gold.Chemscore.Lipo>
45.6021

> <Gold.Chemscore.Internal_Hbond>
0.0000

> <Gold.Chemscore.DEClash>
0.3657

> <Gold.Chemscore.DEInternal>
0.2073

> <Gold.Chemscore.Rot>
3.1230

> <Gold.Chemscore.Internal.Correction>
   9.000000E+99

> <Gold.Chemscore.Hbonds>
donor molecule, donor type, donor heavy atom, donor atom, acceptor molecule, acceptor atom, score
      L1  H    16    30       P1 10186  1.00

> <Gold.Chemscore.Hbond.Weighted>
-3.3201

> <Gold.Chemscore.Metal.Weighted>
-0.0000

> <Gold.Chemscore.Lipo.Weighted>
-5.3355

> <Gold.Chemscore.Internal_Hbond.Weighted>
0.0000

> <Gold.Chemscore.DEClash.Weighted>
0.3657

> <Gold.Chemscore.DEInternal.Weighted>
0.2073

> <Gold.Chemscore.Rot.Weighted>
7.9950

> <Gold.Chemscore.Internal.Correction.Weighted>
   9.000000E+99

> <Gold.Protein.RotatedTorsions>
[ 6907 6896 6895 6894 ] final    2.99 input  -60.11 | X-H torsion
[ 7974 7965 7964 7962 ] final  151.39 input  175.53 | X-H torsion
[ 8008 7997 7996 7995 ] final -136.63 input   59.86 | X-H torsion
[ 10167 10162 10161 10158 ] final  138.67 input  -65.29 | X-H torsion
[ 10718 10713 10712 10709 ] final   16.49 input   66.30 | X-H torsion
[ 10763 10752 10751 10750 ] final  -99.37 input  -60.55 | X-H torsion
[ 11005 11000 10999 10996 ] final -105.93 input  -57.11 | X-H torsion

> <Gold.Protein.ActiveResidues>
 VAL166  LYS551  ARG553  GLY616  TRP617  ASP618  TYR619  PRO620  LYS621  CYS622 
 ASP623  PHE694  ASN695  SER759  ASP760  ASP761  ALA762  ILE779  LEU786  VAL792 
 PHE793  MET794  SER795  GLU796  ALA797  LYS798  CYS799  TRP800  GLU811  SER814 

> <Gold.Protein.RotatedAtoms>
  151.6179  135.1034  160.0094 H   0  0  0  0  0  0  0  0  0  0  0  0  # atno 6907 bound_to 6896
  152.4174  133.7056  159.6459 H   0  0  0  0  0  0  0  0  0  0  0  0  # atno 6908 bound_to 6896
  150.8061  133.8433  159.3226 H   0  0  0  0  0  0  0  0  0  0  0  0  # atno 6909 bound_to 6896
  144.8296  139.6532  143.6065 H   0  0  0  0  0  0  0  0  0  0  0  0  # atno 7974 bound_to 7965
  155.3985  140.0504  157.3038 H   0  0  0  0  0  0  0  0  0  0  0  0  # atno 8008 bound_to 7997
  154.5002  140.2154  155.9323 H   0  0  0  0  0  0  0  0  0  0  0  0  # atno 8009 bound_to 7997
  156.1457  140.3145  155.8572 H   0  0  0  0  0  0  0  0  0  0  0  0  # atno 8010 bound_to 7997
  139.5103  144.6339  151.5746 H   0  0  0  0  0  0  0  0  0  0  0  0  # atno 10167 bound_to 10162
  157.0687  130.6339  149.5801 H   0  0  0  0  0  0  0  0  0  0  0  0  # atno 10718 bound_to 10713
  154.7492  135.4974  153.9259 H   0  0  0  0  0  0  0  0  0  0  0  0  # atno 10763 bound_to 10752
  153.1125  135.6712  153.9483 H   0  0  0  0  0  0  0  0  0  0  0  0  # atno 10764 bound_to 10752
  153.9238  135.3085  155.3426 H   0  0  0  0  0  0  0  0  0  0  0  0  # atno 10765 bound_to 10752
  141.1029  133.8850  157.1795 H   0  0  0  0  0  0  0  0  0  0  0  0  # atno 11005 bound_to 11000
  146.2599  139.6387  142.9369 LP  0  0  0  0  0  0  0  0  0  0  0  0  # atno 17320 bound_to 7965
  145.4925  141.0438  143.2585 LP  0  0  0  0  0  0  0  0  0  0  0  0  # atno 17321 bound_to 7965
  140.6082  143.9485  150.6434 LP  0  0  0  0  0  0  0  0  0  0  0  0  # atno 17342 bound_to 10162
  140.2719  143.3450  152.1230 LP  0  0  0  0  0  0  0  0  0  0  0  0  # atno 17343 bound_to 10162
  155.9957  130.5024  150.7468 LP  0  0  0  0  0  0  0  0  0  0  0  0  # atno 17370 bound_to 10713
  157.4896  131.0909  151.0442 LP  0  0  0  0  0  0  0  0  0  0  0  0  # atno 17371 bound_to 10713
  139.9888  135.0072  156.9925 LP  0  0  0  0  0  0  0  0  0  0  0  0  # atno 17394 bound_to 11000
  140.4976  134.1130  155.7244 LP  0  0  0  0  0  0  0  0  0  0  0  0  # atno 17395 bound_to 11000

$$$$
