AV-unprocessed.smi:2482|AV-procd|sdf|9778|dock1
  -GOLD-   2272013423D 1   1.00000     0.00000
 Structure written by MMmdl.
 35 36  0  0  0  0  0  0  0  0  2 V2000
  152.2591  143.6478  160.9853 C   0  0  0  0  0  0  0  0  0  0  0  0
  152.2379  142.5034  159.9891 C   0  0  0  0  0  0  0  0  0  0  0  0
  153.1172  141.5057  160.2253 N   0  0  0  0  0  0  0  0  0  0  0  0
  153.1437  140.4659  159.3669 C   0  0  0  0  0  0  0  0  0  0  0  0
  152.2997  140.3663  158.2443 C   0  0  0  0  0  0  0  0  0  0  0  0
  151.3659  141.4024  158.0025 C   0  0  0  0  0  0  0  0  0  0  0  0
  150.4806  141.4168  156.8894 N   0  0  0  0  0  0  0  0  0  0  0  0
  150.5997  140.7941  155.7017 C   0  0  0  0  0  0  0  0  0  0  0  0
  151.5563  140.0896  155.3793 O   0  0  0  0  0  0  0  0  0  0  0  0
  149.4406  141.0096  154.7159 C   0  0  1  0  0  0  0  0  0  0  0  0
  148.7264  139.6916  154.3341 C   0  0  0  0  0  0  0  0  0  0  0  0
  147.5737  139.9610  153.4439 N   0  3  1  0  0  0  0  0  0  0  0  0
  146.8804  138.7260  153.0199 C   0  0  0  0  0  0  0  0  0  0  0  0
  146.6561  140.9512  154.0504 C   0  0  0  0  0  0  0  0  0  0  0  0
  147.4260  142.2260  154.4289 C   0  0  0  0  0  0  0  0  0  0  0  0
  148.4910  141.8937  155.3108 O   0  0  0  0  0  0  0  0  0  0  0  0
  151.3458  142.5030  158.8910 C   0  0  0  0  0  0  0  0  0  0  0  0
  150.2470  143.8194  158.6441 Cl  0  0  0  0  0  0  0  0  0  0  0  0
  151.2845  143.7519  161.4627 H   0  0  0  0  0  0  0  0  0  0  0  0
  152.5001  144.5849  160.4827 H   0  0  0  0  0  0  0  0  0  0  0  0
  153.0012  143.4847  161.7680 H   0  0  0  0  0  0  0  0  0  0  0  0
  153.8658  139.6910  159.5769 H   0  0  0  0  0  0  0  0  0  0  0  0
  152.3960  139.5121  157.5925 H   0  0  0  0  0  0  0  0  0  0  0  0
  149.6052  141.8954  157.0463 H   0  0  0  0  0  0  0  0  0  0  0  0
  149.8557  141.4777  153.8217 H   0  0  0  0  0  0  0  0  0  0  0  0
  149.4189  139.0205  153.8238 H   0  0  0  0  0  0  0  0  0  0  0  0
  148.3785  139.1742  155.2304 H   0  0  0  0  0  0  0  0  0  0  0  0
  146.4504  138.2038  153.8757 H   0  0  0  0  0  0  0  0  0  0  0  0
  147.5736  138.0492  152.5193 H   0  0  0  0  0  0  0  0  0  0  0  0
  146.0766  138.9568  152.3201 H   0  0  0  0  0  0  0  0  0  0  0  0
  145.8587  141.1941  153.3473 H   0  0  0  0  0  0  0  0  0  0  0  0
  146.1848  140.5221  154.9362 H   0  0  0  0  0  0  0  0  0  0  0  0
  147.8150  142.7263  153.5408 H   0  0  0  0  0  0  0  0  0  0  0  0
  146.7619  142.9322  154.9273 H   0  0  0  0  0  0  0  0  0  0  0  0
  147.9461  140.3858  152.6063 H   0  0  0  0  0  0  0  0  0  0  0  0
  1  2  1  0  0  0  0
  1 19  1  0  0  0  0
  1 20  1  0  0  0  0
  1 21  1  0  0  0  0
  2 17  1  0  0  0  0
  2  3  2  0  0  0  0
  3  4  1  0  0  0  0
  4  5  2  0  0  0  0
  4 22  1  0  0  0  0
  5  6  1  0  0  0  0
  5 23  1  0  0  0  0
  6  7  1  0  0  0  0
  6 17  2  0  0  0  0
  7  8  1  0  0  0  0
  7 24  1  0  0  0  0
  8  9  2  0  0  0  0
  8 10  1  0  0  0  0
 10 16  1  0  0  0  0
 10 11  1  0  0  0  0
 10 25  1  0  0  0  0
 11 12  1  0  0  0  0
 11 26  1  0  0  0  0
 11 27  1  0  0  0  0
 12 13  1  0  0  0  0
 12 14  1  0  0  0  0
 12 35  1  0  0  0  0
 13 28  1  0  0  0  0
 13 29  1  0  0  0  0
 13 30  1  0  0  0  0
 14 15  1  0  0  0  0
 14 31  1  0  0  0  0
 14 32  1  0  0  0  0
 15 16  1  0  0  0  0
 15 33  1  0  0  0  0
 15 34  1  0  0  0  0
 17 18  1  0  0  0  0
M  CHG  1  12   1
M  END
> <s_m_source_file>
AV-unprocessed.smi

> <i_m_source_file_index>
2482

> <i_lp_mmshare_version>
43012

> <i_f3d_flags>
0

> <s_epik_input>
W0NIM11jMW5bY0hdW2NIXWMoYzFDbClbTkhdQyg9TylbQ0BASF0yW0NIMl1OKFtDSDNdKVtDSDJdW0NIMl1PMg==

> <s_epik_cmdline>
J2VwaWtfcHl0aG9uJywgJy1waCcsICc3LjAnLCAnLXRuJywgJzgnLCAnLW1hJywgJzIwMCcsICctbWV0YWxfYmluZGluZycsICctaW1hZScsICc8aW5maWxlLm1hZT4nLCAnLW9tYWUnLCAnPG91dGZpbGUubWFlPic=

> <r_epik_Ionization_Penalty>
0.314226

> <r_epik_Ionization_Penalty_Charging>
0.314023

> <r_epik_Ionization_Penalty_Neutral>
0.00020299

> <r_epik_State_Penalty>
0.308208

> <r_epik_Charging_Adjusted_Penalty>
0.62223

> <i_epik_Tot_Q>
1

> <i_epik_Tot_abs_Q>
1

> <r_epik_Metal_State_Penalty>
0.314444

> <b_epik_Metal_Only>
0

> <s_lp_Force_Field>
OPLS_2005

> <r_lp_Energy>
22.3096

> <b_lp_Chiralities_Consistent>
1

> <s_lp_Variant>
AV-unprocessed.smi:2482-4

> <Gold.Version>
5.8.1

> <Gold.Id.Protein>
6NUR|6NUR_protein|mol2

> <Gold.PLP.Fitness>
37.9596

> <Gold.PLP.PLP>
-34.3129

> <Gold.PLP.part.hbond>
-2.0000

> <Gold.PLP.part.metal>
0.0000

> <Gold.PLP.part.buried>
-3.2562

> <Gold.PLP.part.nonpolar>
-30.1104

> <Gold.PLP.part.repulsive>
1.7392

> <Gold.PLP.ligand.clash>
0.0000

> <Gold.PLP.ligand.torsion>
0.1331

> <Gold.PLP.Chemscore.Hbond>
1.3032

> <Gold.PLP.Chemscore.CHOScore>
0.0000

> <Gold.PLP.Chemscore.Metal>
0.0000

> <Gold.Chemscore.Hbonds>
donor molecule, donor type, donor heavy atom, donor atom, acceptor molecule, acceptor atom, score
      L1  H    12    35       P1  7957  0.42
      P1  H  7989  7998       L1     9  0.63

> <Gold.PLP.Chemscore.Internal.Correction>
0.0033

> <Gold.Rescore>
     Score         DG    S(hbond)    S(metal)    S(lipo)     H(rot)  DE(clash)    DE(int)     intcor
     17.52     -20.56       1.95        0.00      94.97       1.00       1.75       1.29       ----

> <Gold.Chemscore.Fitness>
17.5209

> <Gold.Chemscore.DG>
-20.5576

> <Gold.Chemscore.ZeroCoef>
-5.4800

> <Gold.Chemscore.Hbond>
1.9541

> <Gold.Chemscore.Metal>
0.0000

> <Gold.Chemscore.Lipo>
94.9661

> <Gold.Chemscore.Internal_Hbond>
0.0000

> <Gold.Chemscore.DEClash>
1.7471

> <Gold.Chemscore.DEInternal>
1.2896

> <Gold.Chemscore.Rot>
1.0000

> <Gold.Chemscore.Internal.Correction>
   9.000000E+99

> <Gold.Chemscore.Hbonds>
donor molecule, donor type, donor heavy atom, donor atom, acceptor molecule, acceptor atom, score
      L1  H    12    35       P1  7957  0.42
      P1  H  7989  7998       L1     9  0.05

> <Gold.Chemscore.Hbond.Weighted>
-6.5266

> <Gold.Chemscore.Metal.Weighted>
-0.0000

> <Gold.Chemscore.Lipo.Weighted>
-11.1110

> <Gold.Chemscore.Internal_Hbond.Weighted>
0.0000

> <Gold.Chemscore.DEClash.Weighted>
1.7471

> <Gold.Chemscore.DEInternal.Weighted>
1.2896

> <Gold.Chemscore.Rot.Weighted>
2.5600

> <Gold.Chemscore.Internal.Correction.Weighted>
   9.000000E+99

> <Gold.Protein.RotatedTorsions>
[ 6907 6896 6895 6894 ] final  -83.62 input  -60.11 | X-H torsion
[ 7974 7965 7964 7962 ] final  141.15 input  175.53 | X-H torsion
[ 8008 7997 7996 7995 ] final   73.48 input   59.86 | X-H torsion
[ 10167 10162 10161 10158 ] final   21.03 input  -65.29 | X-H torsion
[ 10718 10713 10712 10709 ] final  122.62 input   66.30 | X-H torsion
[ 10763 10752 10751 10750 ] final  163.86 input  -60.55 | X-H torsion
[ 11005 11000 10999 10996 ] final    1.21 input  -57.11 | X-H torsion

> <Gold.Protein.ActiveResidues>
 VAL166  LYS551  ARG553  GLY616  TRP617  ASP618  TYR619  PRO620  LYS621  CYS622 
 ASP623  PHE694  ASN695  SER759  ASP760  ASP761  ALA762  ILE779  LEU786  VAL792 
 PHE793  MET794  SER795  GLU796  ALA797  LYS798  CYS799  TRP800  GLU811  SER814 

> <Gold.Protein.RotatedAtoms>
  150.6884  134.3484  159.4897 H   0  0  0  0  0  0  0  0  0  0  0  0  # atno 6907 bound_to 6896
  152.1328  134.9119  160.0567 H   0  0  0  0  0  0  0  0  0  0  0  0  # atno 6908 bound_to 6896
  152.0282  133.3892  159.4323 H   0  0  0  0  0  0  0  0  0  0  0  0  # atno 6909 bound_to 6896
  144.9122  139.5278  143.5703 H   0  0  0  0  0  0  0  0  0  0  0  0  # atno 7974 bound_to 7965
  155.7843  140.3481  155.5314 H   0  0  0  0  0  0  0  0  0  0  0  0  # atno 8008 bound_to 7997
  155.8697  140.0984  157.1579 H   0  0  0  0  0  0  0  0  0  0  0  0  # atno 8009 bound_to 7997
  154.4017  140.1343  156.4051 H   0  0  0  0  0  0  0  0  0  0  0  0  # atno 8010 bound_to 7997
  140.5458  143.9597  150.6547 H   0  0  0  0  0  0  0  0  0  0  0  0  # atno 10167 bound_to 10162
  157.5728  131.1082  150.8335 H   0  0  0  0  0  0  0  0  0  0  0  0  # atno 10718 bound_to 10713
  154.3001  135.2759  155.2615 H   0  0  0  0  0  0  0  0  0  0  0  0  # atno 10763 bound_to 10752
  154.5055  135.5796  153.6567 H   0  0  0  0  0  0  0  0  0  0  0  0  # atno 10764 bound_to 10752
  152.9902  135.6168  154.3172 H   0  0  0  0  0  0  0  0  0  0  0  0  # atno 10765 bound_to 10752
  140.6180  133.9688  155.8210 H   0  0  0  0  0  0  0  0  0  0  0  0  # atno 11005 bound_to 11000
  146.3164  139.7937  142.8980 LP  0  0  0  0  0  0  0  0  0  0  0  0  # atno 17320 bound_to 7965
  145.3435  141.0293  143.3379 LP  0  0  0  0  0  0  0  0  0  0  0  0  # atno 17321 bound_to 7965
  140.3010  143.3261  152.0972 LP  0  0  0  0  0  0  0  0  0  0  0  0  # atno 17342 bound_to 10162
  139.5007  144.6697  151.6273 LP  0  0  0  0  0  0  0  0  0  0  0  0  # atno 17343 bound_to 10162
  156.8802  130.5176  149.5291 LP  0  0  0  0  0  0  0  0  0  0  0  0  # atno 17370 bound_to 10713
  156.0773  130.5792  150.9498 LP  0  0  0  0  0  0  0  0  0  0  0  0  # atno 17371 bound_to 10713
  141.0762  134.0131  157.3454 LP  0  0  0  0  0  0  0  0  0  0  0  0  # atno 17394 bound_to 11000
  139.9165  135.0197  156.7901 LP  0  0  0  0  0  0  0  0  0  0  0  0  # atno 17395 bound_to 11000

$$$$
