AV-unprocessed.smi:187|AV-procd|sdf|1468|dock9
  -GOLD-   2262019283D 1   1.00000     0.00000
 Structure written by MMmdl.
 53 56  0  0  0  0  0  0  0  0  1 V2000
  147.9615  127.5556  155.9944 C   0  0  0  0  0  0  0  0  0  0  0  0
  147.9479  127.0984  154.5214 C   0  0  2  0  0  0  0  0  0  0  0  0
  148.4774  125.6537  154.4165 C   0  0  0  0  0  0  0  0  0  0  0  0
  148.5113  125.1709  152.9599 C   0  0  0  0  0  0  0  0  0  0  0  0
  149.3446  126.1389  152.0991 C   0  0  1  0  0  0  0  0  0  0  0  0
  149.3550  125.7006  150.6292 C   0  0  0  0  0  0  0  0  0  0  0  0
  150.2229  126.3106  149.8182 N   0  0  0  0  0  0  0  0  0  0  0  0
  148.5914  124.8240  150.2280 O   0  0  0  0  0  0  0  0  0  0  0  0
  148.7856  127.5680  152.2395 C   0  0  0  0  0  0  0  0  0  0  0  0
  148.7262  127.9819  153.6410 N   0  0  0  0  0  0  0  0  0  0  0  0
  148.4607  129.3036  153.7390 C   0  0  0  0  0  0  0  0  0  0  0  0
  149.2772  130.0401  154.5316 N   0  0  0  0  0  0  0  0  0  0  0  0
  149.0636  131.3516  154.6735 C   0  0  0  0  0  0  0  0  0  0  0  0
  148.1148  132.1081  154.1172 N   0  0  0  0  0  0  0  0  0  0  0  0
  147.3004  131.3703  153.3087 C   0  0  0  0  0  0  0  0  0  0  0  0
  147.3982  129.9714  153.0672 C   0  0  0  0  0  0  0  0  0  0  0  0
  146.3907  129.5678  152.1997 N   0  0  0  0  0  0  0  0  0  0  0  0
  145.7288  130.6645  151.9499 C   0  0  0  0  0  0  0  0  0  0  0  0
  146.2243  131.7996  152.5514 N   0  0  0  0  0  0  0  0  0  0  0  0
  145.6743  133.1211  152.4776 C   0  0  0  0  0  0  0  0  0  0  0  0
  144.3133  133.3794  151.8265 C   0  0  0  0  0  0  0  0  0  0  0  0
  144.8132  134.7617  151.3478 C   0  0  0  0  0  0  0  0  0  0  0  0
  144.4108  135.1533  149.9164 C   0  0  0  0  0  0  0  0  0  0  0  0
  145.1248  136.2908  149.4767 O   0  0  0  0  0  0  0  0  0  0  0  0
  144.5130  135.9376  152.2992 C   0  0  0  0  0  0  0  0  0  0  0  0
  145.1107  137.1350  151.8453 O   0  0  0  0  0  0  0  0  0  0  0  0
  146.2243  134.1501  151.4875 C   0  0  0  0  0  0  0  0  0  0  0  0
  147.4231  126.8486  156.6258 H   0  0  0  0  0  0  0  0  0  0  0  0
  147.4824  128.5260  156.1255 H   0  0  0  0  0  0  0  0  0  0  0  0
  148.9804  127.6312  156.3758 H   0  0  0  0  0  0  0  0  0  0  0  0
  146.9143  127.0979  154.1737 H   0  0  0  0  0  0  0  0  0  0  0  0
  149.4821  125.5983  154.8386 H   0  0  0  0  0  0  0  0  0  0  0  0
  147.8558  124.9822  155.0095 H   0  0  0  0  0  0  0  0  0  0  0  0
  148.9297  124.1647  152.9145 H   0  0  0  0  0  0  0  0  0  0  0  0
  147.4910  125.1035  152.5785 H   0  0  0  0  0  0  0  0  0  0  0  0
  150.3710  126.1349  152.4713 H   0  0  0  0  0  0  0  0  0  0  0  0
  150.2663  126.0556  148.8422 H   0  0  0  0  0  0  0  0  0  0  0  0
  150.8335  127.0261  150.1854 H   0  0  0  0  0  0  0  0  0  0  0  0
  149.4121  128.2633  151.6779 H   0  0  0  0  0  0  0  0  0  0  0  0
  147.7845  127.6249  151.8082 H   0  0  0  0  0  0  0  0  0  0  0  0
  149.7521  131.8689  155.3253 H   0  0  0  0  0  0  0  0  0  0  0  0
  144.8597  130.6741  151.3085 H   0  0  0  0  0  0  0  0  0  0  0  0
  145.6967  133.5137  153.4957 H   0  0  0  0  0  0  0  0  0  0  0  0
  144.1090  132.6928  151.0026 H   0  0  0  0  0  0  0  0  0  0  0  0
  143.4782  133.4035  152.5270 H   0  0  0  0  0  0  0  0  0  0  0  0
  144.6215  134.3411  149.2199 H   0  0  0  0  0  0  0  0  0  0  0  0
  143.3418  135.3527  149.8382 H   0  0  0  0  0  0  0  0  0  0  0  0
  144.6412  137.0636  149.7262 H   0  0  0  0  0  0  0  0  0  0  0  0
  143.4404  136.1133  152.3838 H   0  0  0  0  0  0  0  0  0  0  0  0
  144.8642  135.7321  153.3108 H   0  0  0  0  0  0  0  0  0  0  0  0
  144.4880  137.5942  151.3027 H   0  0  0  0  0  0  0  0  0  0  0  0
  146.9764  134.8214  151.9037 H   0  0  0  0  0  0  0  0  0  0  0  0
  146.5817  133.6890  150.5646 H   0  0  0  0  0  0  0  0  0  0  0  0
  1  2  1  0  0  0  0
  1 28  1  0  0  0  0
  1 29  1  0  0  0  0
  1 30  1  0  0  0  0
  2 10  1  0  0  0  0
  2  3  1  0  0  0  0
  2 31  1  0  0  0  0
  3  4  1  0  0  0  0
  3 32  1  0  0  0  0
  3 33  1  0  0  0  0
  4  5  1  0  0  0  0
  4 34  1  0  0  0  0
  4 35  1  0  0  0  0
  5  6  1  0  0  0  0
  5  9  1  0  0  0  0
  5 36  1  0  0  0  0
  6  7  1  0  0  0  0
  6  8  2  0  0  0  0
  7 37  1  0  0  0  0
  7 38  1  0  0  0  0
  9 10  1  0  0  0  0
  9 39  1  0  0  0  0
  9 40  1  0  0  0  0
 10 11  1  0  0  0  0
 11 16  1  0  0  0  0
 11 12  2  0  0  0  0
 12 13  1  0  0  0  0
 13 14  2  0  0  0  0
 13 41  1  0  0  0  0
 14 15  1  0  0  0  0
 15 19  1  0  0  0  0
 15 16  2  0  0  0  0
 16 17  1  0  0  0  0
 17 18  2  0  0  0  0
 18 19  1  0  0  0  0
 18 42  1  0  0  0  0
 19 20  1  0  0  0  0
 20 27  1  0  0  0  0
 20 21  1  0  0  0  0
 20 43  1  0  0  0  0
 21 22  1  0  0  0  0
 21 44  1  0  0  0  0
 21 45  1  0  0  0  0
 22 23  1  0  0  0  0
 22 25  1  0  0  0  0
 22 27  1  0  0  0  0
 23 24  1  0  0  0  0
 23 46  1  0  0  0  0
 23 47  1  0  0  0  0
 24 48  1  0  0  0  0
 25 26  1  0  0  0  0
 25 49  1  0  0  0  0
 25 50  1  0  0  0  0
 26 51  1  0  0  0  0
 27 52  1  0  0  0  0
 27 53  1  0  0  0  0
M  END
> <s_m_source_file>
AV-unprocessed.smi

> <i_m_source_file_index>
187

> <i_lp_mmshare_version>
43012

> <i_f3d_flags>
0

> <s_epik_input>
W0NIM11bQ0BASF0xW0NIMl1bQ0gyXVtDQEBIXShDKD1PKVtOSDJdKVtDSDJdTjFjKG5bY0hdbjIpYyhjMjMpbltjSF1uM1tDSF0oW0NIMl00KVtDSDJdQzQoW0NIMl1bT0hdKVtDSDJdW09IXQ==

> <s_epik_cmdline>
J2VwaWtfcHl0aG9uJywgJy1waCcsICc3LjAnLCAnLXRuJywgJzgnLCAnLW1hJywgJzIwMCcsICctbWV0YWxfYmluZGluZycsICctaW1hZScsICc8aW5maWxlLm1hZT4nLCAnLW9tYWUnLCAnPG91dGZpbGUubWFlPic=

> <r_lp_tautomer_probability>
1

> <r_epik_Ionization_Penalty>
0.0017711

> <r_epik_Ionization_Penalty_Charging>
0

> <r_epik_Ionization_Penalty_Neutral>
0.0017711

> <r_epik_State_Penalty>
0.00107211

> <r_epik_Charging_Adjusted_Penalty>
0.00107211

> <i_epik_Tot_Q>
0

> <i_epik_Tot_abs_Q>
0

> <r_epik_Metal_State_Penalty>
-0

> <b_epik_Metal_Only>
0

> <s_lp_Force_Field>
OPLS_2005

> <r_lp_Energy>
40.3757

> <b_lp_Chiralities_Consistent>
1

> <s_lp_Variant>
AV-unprocessed.smi:187-1

> <Gold.Version>
5.8.1

> <Gold.Id.Protein>
6NUR|6NUR_protein|mol2

> <Gold.PLP.Fitness>
45.3207

> <Gold.PLP.PLP>
-37.4210

> <Gold.PLP.part.hbond>
-5.0000

> <Gold.PLP.part.metal>
0.0000

> <Gold.PLP.part.buried>
-6.1413

> <Gold.PLP.part.nonpolar>
-27.5002

> <Gold.PLP.part.repulsive>
0.5818

> <Gold.PLP.ligand.clash>
0.0000

> <Gold.PLP.ligand.torsion>
1.2218

> <Gold.PLP.Chemscore.Hbond>
3.2158

> <Gold.PLP.Chemscore.CHOScore>
0.0000

> <Gold.PLP.Chemscore.Metal>
0.0000

> <Gold.Chemscore.Hbonds>
donor molecule, donor type, donor heavy atom, donor atom, acceptor molecule, acceptor atom, score
      L1  H     7    37       P1 10769  0.40
      L1  H     7    38       P1 10737  0.80
      L1  H    24    48       P1 10171  1.00
      L1  H    26    51       P1 10171  1.00

> <Gold.PLP.Chemscore.Internal.Correction>
0.6957

> <Gold.Rescore>
     Score         DG    S(hbond)    S(metal)    S(lipo)     H(rot)  DE(clash)    DE(int)     intcor
      8.21      -9.80       2.42        0.00      55.29       3.99       0.36       1.24       ----

> <Gold.Chemscore.Fitness>
8.2068

> <Gold.Chemscore.DG>
-9.8014

> <Gold.Chemscore.ZeroCoef>
-5.4800

> <Gold.Chemscore.Hbond>
2.4154

> <Gold.Chemscore.Metal>
0.0000

> <Gold.Chemscore.Lipo>
55.2901

> <Gold.Chemscore.Internal_Hbond>
0.0000

> <Gold.Chemscore.DEClash>
0.3552

> <Gold.Chemscore.DEInternal>
1.2394

> <Gold.Chemscore.Rot>
3.9902

> <Gold.Chemscore.Internal.Correction>
   9.000000E+99

> <Gold.Chemscore.Hbonds>
donor molecule, donor type, donor heavy atom, donor atom, acceptor molecule, acceptor atom, score
      L1  H     7    37       P1 10769  0.37
      L1  H     7    38       P1 10737  0.11
      L1  H    24    48       P1 10171  1.00
      L1  H    26    51       P1 10171  0.99

> <Gold.Chemscore.Hbond.Weighted>
-8.0673

> <Gold.Chemscore.Metal.Weighted>
-0.0000

> <Gold.Chemscore.Lipo.Weighted>
-6.4689

> <Gold.Chemscore.Internal_Hbond.Weighted>
0.0000

> <Gold.Chemscore.DEClash.Weighted>
0.3552

> <Gold.Chemscore.DEInternal.Weighted>
1.2394

> <Gold.Chemscore.Rot.Weighted>
10.2148

> <Gold.Chemscore.Internal.Correction.Weighted>
   9.000000E+99

> <Gold.Protein.RotatedTorsions>
[ 6907 6896 6895 6894 ] final   78.22 input  -60.11 | X-H torsion
[ 7974 7965 7964 7962 ] final   38.44 input  175.53 | X-H torsion
[ 8008 7997 7996 7995 ] final  -62.92 input   59.86 | X-H torsion
[ 10167 10162 10161 10158 ] final  -10.38 input  -65.29 | X-H torsion
[ 10718 10713 10712 10709 ] final    1.50 input   66.30 | X-H torsion
[ 10763 10752 10751 10750 ] final  -84.80 input  -60.55 | X-H torsion
[ 11005 11000 10999 10996 ] final -162.08 input  -57.11 | X-H torsion

> <Gold.Protein.ActiveResidues>
 VAL166  LYS551  ARG553  GLY616  TRP617  ASP618  TYR619  PRO620  LYS621  CYS622 
 ASP623  PHE694  ASN695  SER759  ASP760  ASP761  ALA762  ILE779  LEU786  VAL792 
 PHE793  MET794  SER795  GLU796  ALA797  LYS798  CYS799  TRP800  GLU811  SER814 

> <Gold.Protein.RotatedAtoms>
  152.5150  134.3697  159.9313 H   0  0  0  0  0  0  0  0  0  0  0  0  # atno 6907 bound_to 6896
  151.3651  133.3869  159.2701 H   0  0  0  0  0  0  0  0  0  0  0  0  # atno 6908 bound_to 6896
  150.9621  134.9027  159.7795 H   0  0  0  0  0  0  0  0  0  0  0  0  # atno 6909 bound_to 6896
  146.1061  139.5772  142.9382 H   0  0  0  0  0  0  0  0  0  0  0  0  # atno 7974 bound_to 7965
  154.4526  140.0986  156.6662 H   0  0  0  0  0  0  0  0  0  0  0  0  # atno 8008 bound_to 7997
  155.5238  140.3479  155.4394 H   0  0  0  0  0  0  0  0  0  0  0  0  # atno 8009 bound_to 7997
  156.0712  140.1350  156.9815 H   0  0  0  0  0  0  0  0  0  0  0  0  # atno 8010 bound_to 7997
  140.7112  143.5754  150.9048 H   0  0  0  0  0  0  0  0  0  0  0  0  # atno 10167 bound_to 10162
  156.8491  130.5547  149.5671 H   0  0  0  0  0  0  0  0  0  0  0  0  # atno 10718 bound_to 10713
  154.6038  135.5507  153.7401 H   0  0  0  0  0  0  0  0  0  0  0  0  # atno 10763 bound_to 10752
  153.0165  135.6373  154.1677 H   0  0  0  0  0  0  0  0  0  0  0  0  # atno 10764 bound_to 10752
  154.1616  135.2897  155.3087 H   0  0  0  0  0  0  0  0  0  0  0  0  # atno 10765 bound_to 10752
  140.6133  134.4826  157.5217 H   0  0  0  0  0  0  0  0  0  0  0  0  # atno 11005 bound_to 11000
  145.5757  141.0389  143.2150 LP  0  0  0  0  0  0  0  0  0  0  0  0  # atno 17320 bound_to 7965
  144.7472  139.7288  143.7287 LP  0  0  0  0  0  0  0  0  0  0  0  0  # atno 17321 bound_to 7965
  139.9480  143.6305  152.3036 LP  0  0  0  0  0  0  0  0  0  0  0  0  # atno 17342 bound_to 10162
  139.6813  144.7655  151.1603 LP  0  0  0  0  0  0  0  0  0  0  0  0  # atno 17343 bound_to 10162
  156.0838  130.5841  150.9611 LP  0  0  0  0  0  0  0  0  0  0  0  0  # atno 17370 bound_to 10713
  157.6313  131.0921  150.8436 LP  0  0  0  0  0  0  0  0  0  0  0  0  # atno 17371 bound_to 10713
  139.9183  134.8200  156.1293 LP  0  0  0  0  0  0  0  0  0  0  0  0  # atno 17394 bound_to 11000
  141.0793  133.6761  156.2302 LP  0  0  0  0  0  0  0  0  0  0  0  0  # atno 17395 bound_to 11000

$$$$
