AV-unprocessed.smi:189|AV-procd|sdf|1483|dock6
  -GOLD-   2262019303D 1   1.00000     0.00000
 Structure written by MMmdl.
 53 57  0  0  0  0  0  0  0  0  1 V2000
  154.0247  139.9914  160.2334 C   0  0  0  0  0  0  0  0  0  0  0  0
  153.6698  141.2838  159.4778 C   0  0  2  0  0  0  0  0  0  0  0  0
  153.6956  142.5208  160.3966 C   0  0  0  0  0  0  0  0  0  0  0  0
  152.2213  142.9024  160.5504 C   0  0  1  0  0  0  0  0  0  0  0  0
  151.9253  144.3601  160.9578 C   0  0  0  0  0  0  0  0  0  0  0  0
  152.1407  145.3624  159.8136 C   0  0  0  0  0  0  0  0  0  0  0  0
  151.3738  144.9326  158.5559 C   0  0  0  0  0  0  0  0  0  0  0  0
  151.8240  143.5384  158.1023 C   0  0  0  0  0  0  0  0  0  0  0  0
  151.6121  142.4748  159.2079 C   0  0  1  0  0  0  0  0  0  0  0  0
  152.3160  141.2311  158.9135 N   0  0  0  0  0  0  0  0  0  0  0  0
  152.0326  140.5175  157.7875 C   0  0  0  0  0  0  0  0  0  0  0  0
  152.7912  139.4289  157.4891 N   0  0  0  0  0  0  0  0  0  0  0  0
  152.5472  138.7038  156.3949 C   0  0  0  0  0  0  0  0  0  0  0  0
  151.6051  138.8845  155.4696 N   0  0  0  0  0  0  0  0  0  0  0  0
  150.8350  139.9722  155.7564 C   0  0  0  0  0  0  0  0  0  0  0  0
  150.9739  140.8338  156.8836 C   0  0  0  0  0  0  0  0  0  0  0  0
  149.9921  141.8178  156.8366 N   0  0  0  0  0  0  0  0  0  0  0  0
  149.3235  141.5602  155.7468 C   0  0  0  0  0  0  0  0  0  0  0  0
  149.7664  140.4715  155.0320 N   0  0  0  0  0  0  0  0  0  0  0  0
  149.2041  139.9557  153.7925 C   0  0  0  0  0  0  0  0  0  0  0  0
  147.6600  139.8470  153.8049 C   0  0  2  0  0  0  0  0  0  0  0  0
  147.2510  139.0221  152.7285 O   0  0  0  0  0  0  0  0  0  0  0  0
  146.9803  141.2119  153.6736 C   0  0  0  0  0  0  0  0  0  0  0  0
  146.3951  141.4561  155.0592 C   0  0  0  0  0  0  0  0  0  0  0  0
  146.0187  140.1539  155.4690 O   0  0  0  0  0  0  0  0  0  0  0  0
  147.0860  139.2839  155.1211 C   0  0  0  0  0  0  0  0  0  0  0  0
  155.0225  140.0566  160.6672 H   0  0  0  0  0  0  0  0  0  0  0  0
  154.0118  139.1215  159.5774 H   0  0  0  0  0  0  0  0  0  0  0  0
  153.3207  139.8045  161.0450 H   0  0  0  0  0  0  0  0  0  0  0  0
  154.3969  141.4369  158.6792 H   0  0  0  0  0  0  0  0  0  0  0  0
  154.1771  142.3354  161.3574 H   0  0  0  0  0  0  0  0  0  0  0  0
  154.2487  143.3225  159.9072 H   0  0  0  0  0  0  0  0  0  0  0  0
  151.8080  142.2537  161.3249 H   0  0  0  0  0  0  0  0  0  0  0  0
  150.8860  144.4254  161.2824 H   0  0  0  0  0  0  0  0  0  0  0  0
  152.5298  144.6384  161.8215 H   0  0  0  0  0  0  0  0  0  0  0  0
  151.8150  146.3548  160.1265 H   0  0  0  0  0  0  0  0  0  0  0  0
  153.2037  145.4464  159.5858 H   0  0  0  0  0  0  0  0  0  0  0  0
  150.3015  144.9296  158.7557 H   0  0  0  0  0  0  0  0  0  0  0  0
  151.5404  145.6543  157.7559 H   0  0  0  0  0  0  0  0  0  0  0  0
  151.2785  143.2556  157.2018 H   0  0  0  0  0  0  0  0  0  0  0  0
  152.8759  143.5828  157.8164 H   0  0  0  0  0  0  0  0  0  0  0  0
  150.5478  142.3000  159.3576 H   0  0  0  0  0  0  0  0  0  0  0  0
  153.2011  137.8588  156.2382 H   0  0  0  0  0  0  0  0  0  0  0  0
  148.4829  142.1615  155.4318 H   0  0  0  0  0  0  0  0  0  0  0  0
  149.5250  140.6028  152.9751 H   0  0  0  0  0  0  0  0  0  0  0  0
  149.6499  138.9791  153.5985 H   0  0  0  0  0  0  0  0  0  0  0  0
  147.9079  139.0696  152.0505 H   0  0  0  0  0  0  0  0  0  0  0  0
  147.6587  142.0085  153.3658 H   0  0  0  0  0  0  0  0  0  0  0  0
  146.1672  141.1777  152.9465 H   0  0  0  0  0  0  0  0  0  0  0  0
  147.1498  141.8539  155.7397 H   0  0  0  0  0  0  0  0  0  0  0  0
  145.5451  142.1386  155.0451 H   0  0  0  0  0  0  0  0  0  0  0  0
  146.7491  138.2493  155.0459 H   0  0  0  0  0  0  0  0  0  0  0  0
  147.8206  139.3328  155.9248 H   0  0  0  0  0  0  0  0  0  0  0  0
  1  2  1  0  0  0  0
  1 27  1  0  0  0  0
  1 28  1  0  0  0  0
  1 29  1  0  0  0  0
  2 10  1  0  0  0  0
  2  3  1  0  0  0  0
  2 30  1  0  0  0  0
  3  4  1  0  0  0  0
  3 31  1  0  0  0  0
  3 32  1  0  0  0  0
  4  9  1  0  0  0  0
  4  5  1  0  0  0  0
  4 33  1  0  0  0  0
  5  6  1  0  0  0  0
  5 34  1  0  0  0  0
  5 35  1  0  0  0  0
  6  7  1  0  0  0  0
  6 36  1  0  0  0  0
  6 37  1  0  0  0  0
  7  8  1  0  0  0  0
  7 38  1  0  0  0  0
  7 39  1  0  0  0  0
  8  9  1  0  0  0  0
  8 40  1  0  0  0  0
  8 41  1  0  0  0  0
  9 10  1  0  0  0  0
  9 42  1  0  0  0  0
 10 11  1  0  0  0  0
 11 16  1  0  0  0  0
 11 12  2  0  0  0  0
 12 13  1  0  0  0  0
 13 14  2  0  0  0  0
 13 43  1  0  0  0  0
 14 15  1  0  0  0  0
 15 19  1  0  0  0  0
 15 16  2  0  0  0  0
 16 17  1  0  0  0  0
 17 18  2  0  0  0  0
 18 19  1  0  0  0  0
 18 44  1  0  0  0  0
 19 20  1  0  0  0  0
 20 21  1  0  0  0  0
 20 45  1  0  0  0  0
 20 46  1  0  0  0  0
 21 26  1  0  0  0  0
 21 22  1  0  0  0  0
 21 23  1  0  0  0  0
 22 47  1  0  0  0  0
 23 24  1  0  0  0  0
 23 48  1  0  0  0  0
 23 49  1  0  0  0  0
 24 25  1  0  0  0  0
 24 50  1  0  0  0  0
 24 51  1  0  0  0  0
 25 26  1  0  0  0  0
 26 52  1  0  0  0  0
 26 53  1  0  0  0  0
M  END
> <s_m_source_file>
AV-unprocessed.smi

> <i_m_source_file_index>
189

> <i_lp_mmshare_version>
43012

> <i_f3d_flags>
0

> <s_epik_input>
W0NIMl0xW0NIMl1bQ0gyXVtDSDJdW0NASF0oW0NASF0xMilOKFtDQEhdKFtDSDNdKVtDSDJdMiljKG5bY0hdbjMpYyhjMzQpbltjSF1uNFtDSDJdW0NAQF01KFtPSF0pW0NIMl1bQ0gyXU9bQ0gyXTU=

> <s_epik_cmdline>
J2VwaWtfcHl0aG9uJywgJy1waCcsICc3LjAnLCAnLXRuJywgJzgnLCAnLW1hJywgJzIwMCcsICctbWV0YWxfYmluZGluZycsICctaW1hZScsICc8aW5maWxlLm1hZT4nLCAnLW9tYWUnLCAnPG91dGZpbGUubWFlPic=

> <r_lp_tautomer_probability>
1

> <r_epik_Ionization_Penalty>
0.00594261

> <r_epik_Ionization_Penalty_Charging>
0

> <r_epik_Ionization_Penalty_Neutral>
0.00594261

> <r_epik_State_Penalty>
0.00429776

> <r_epik_Charging_Adjusted_Penalty>
0.00429776

> <i_epik_Tot_Q>
0

> <i_epik_Tot_abs_Q>
0

> <r_epik_Metal_State_Penalty>
-0

> <b_epik_Metal_Only>
0

> <s_lp_Force_Field>
OPLS_2005

> <r_lp_Energy>
57.6623

> <b_lp_Chiralities_Consistent>
1

> <s_lp_Variant>
AV-unprocessed.smi:189-9

> <Gold.Version>
5.8.1

> <Gold.Id.Protein>
6NUR|6NUR_protein|mol2

> <Gold.PLP.Fitness>
58.7708

> <Gold.PLP.PLP>
-51.5252

> <Gold.PLP.part.hbond>
-2.0000

> <Gold.PLP.part.metal>
0.0000

> <Gold.PLP.part.buried>
-0.4481

> <Gold.PLP.part.nonpolar>
-47.1876

> <Gold.PLP.part.repulsive>
0.1902

> <Gold.PLP.ligand.clash>
0.0000

> <Gold.PLP.ligand.torsion>
0.5114

> <Gold.PLP.Chemscore.Hbond>
1.9424

> <Gold.PLP.Chemscore.CHOScore>
0.7283

> <Gold.PLP.Chemscore.Metal>
0.0000

> <Gold.Chemscore.Hbonds>
donor molecule, donor type, donor heavy atom, donor atom, acceptor molecule, acceptor atom, score
      L1  H    22    47       P1  7957  0.76
      P1  H  7997  8009       L1    12  0.95
      L1  C    18    44       P1  8028  0.59

> <Gold.PLP.Chemscore.Internal.Correction>
0.2563

> <Gold.Rescore>
     Score         DG    S(hbond)    S(metal)    S(lipo)     H(rot)  DE(clash)    DE(int)     intcor
     14.79     -19.74       1.10        0.00     128.60       1.74       1.54       3.41       ----

> <Gold.Chemscore.Fitness>
14.7899

> <Gold.Chemscore.DG>
-19.7428

> <Gold.Chemscore.ZeroCoef>
-5.4800

> <Gold.Chemscore.Hbond>
1.1005

> <Gold.Chemscore.Metal>
0.0000

> <Gold.Chemscore.Lipo>
128.6027

> <Gold.Chemscore.Internal_Hbond>
0.0000

> <Gold.Chemscore.DEClash>
1.5420

> <Gold.Chemscore.DEInternal>
3.4109

> <Gold.Chemscore.Rot>
1.7420

> <Gold.Chemscore.Internal.Correction>
   9.000000E+99

> <Gold.Chemscore.Hbonds>
donor molecule, donor type, donor heavy atom, donor atom, acceptor molecule, acceptor atom, score
      L1  H    22    47       P1  7957  0.73
      P1  H  7997  8009       L1    12  0.14

> <Gold.Chemscore.Hbond.Weighted>
-3.6757

> <Gold.Chemscore.Metal.Weighted>
-0.0000

> <Gold.Chemscore.Lipo.Weighted>
-15.0465

> <Gold.Chemscore.Internal_Hbond.Weighted>
0.0000

> <Gold.Chemscore.DEClash.Weighted>
1.5420

> <Gold.Chemscore.DEInternal.Weighted>
3.4109

> <Gold.Chemscore.Rot.Weighted>
4.4594

> <Gold.Chemscore.Internal.Correction.Weighted>
   9.000000E+99

> <Gold.Protein.RotatedTorsions>
[ 6907 6896 6895 6894 ] final  175.41 input  -60.11 | X-H torsion
[ 7974 7965 7964 7962 ] final    5.98 input  175.53 | X-H torsion
[ 8008 7997 7996 7995 ] final  150.92 input   59.86 | X-H torsion
[ 10167 10162 10161 10158 ] final -135.37 input  -65.29 | X-H torsion
[ 10718 10713 10712 10709 ] final   11.49 input   66.30 | X-H torsion
[ 10763 10752 10751 10750 ] final -145.55 input  -60.55 | X-H torsion
[ 11005 11000 10999 10996 ] final   83.30 input  -57.11 | X-H torsion

> <Gold.Protein.ActiveResidues>
 VAL166  LYS551  ARG553  GLY616  TRP617  ASP618  TYR619  PRO620  LYS621  CYS622 
 ASP623  PHE694  ASN695  SER759  ASP760  ASP761  ALA762  ILE779  LEU786  VAL792 
 PHE793  MET794  SER795  GLU796  ALA797  LYS798  CYS799  TRP800  GLU811  SER814 

> <Gold.Protein.RotatedAtoms>
  151.7367  133.3320  159.3354 H   0  0  0  0  0  0  0  0  0  0  0  0  # atno 6907 bound_to 6896
  150.7590  134.6315  159.6198 H   0  0  0  0  0  0  0  0  0  0  0  0  # atno 6908 bound_to 6896
  152.3557  134.6945  160.0274 H   0  0  0  0  0  0  0  0  0  0  0  0  # atno 6909 bound_to 6896
  146.2437  140.0303  142.8390 H   0  0  0  0  0  0  0  0  0  0  0  0  # atno 7974 bound_to 7965
  156.2696  140.2062  156.6094 H   0  0  0  0  0  0  0  0  0  0  0  0  # atno 8008 bound_to 7997
  154.6843  140.0536  157.0322 H   0  0  0  0  0  0  0  0  0  0  0  0  # atno 8009 bound_to 7997
  155.0955  140.3201  155.4564 H   0  0  0  0  0  0  0  0  0  0  0  0  # atno 8010 bound_to 7997
  139.8786  143.6867  152.2630 H   0  0  0  0  0  0  0  0  0  0  0  0  # atno 10167 bound_to 10162
  156.9963  130.6062  149.5691 H   0  0  0  0  0  0  0  0  0  0  0  0  # atno 10718 bound_to 10713
  154.8378  135.3410  154.6521 H   0  0  0  0  0  0  0  0  0  0  0  0  # atno 10763 bound_to 10752
  153.7135  135.6962  153.5036 H   0  0  0  0  0  0  0  0  0  0  0  0  # atno 10764 bound_to 10752
  153.2434  135.4377  155.0676 H   0  0  0  0  0  0  0  0  0  0  0  0  # atno 10765 bound_to 10752
  139.9035  134.8134  156.2290 H   0  0  0  0  0  0  0  0  0  0  0  0  # atno 11005 bound_to 11000
  145.1161  140.9434  143.4628 LP  0  0  0  0  0  0  0  0  0  0  0  0  # atno 17320 bound_to 7965
  145.0527  139.3168  143.5920 LP  0  0  0  0  0  0  0  0  0  0  0  0  # atno 17321 bound_to 7965
  139.7217  144.7601  151.0944 LP  0  0  0  0  0  0  0  0  0  0  0  0  # atno 17342 bound_to 10162
  140.7748  143.5199  150.9549 LP  0  0  0  0  0  0  0  0  0  0  0  0  # atno 17343 bound_to 10162
  156.0188  130.5282  150.8214 LP  0  0  0  0  0  0  0  0  0  0  0  0  # atno 17370 bound_to 10713
  157.5422  131.0941  150.9811 LP  0  0  0  0  0  0  0  0  0  0  0  0  # atno 17371 bound_to 10713
  141.0357  133.6964  156.1508 LP  0  0  0  0  0  0  0  0  0  0  0  0  # atno 17394 bound_to 11000
  140.7030  134.4543  157.5585 LP  0  0  0  0  0  0  0  0  0  0  0  0  # atno 17395 bound_to 11000

$$$$
