AV-unprocessed.smi:333|AV-procd|sdf|2360|dock7
  -GOLD-   2262022273D 1   1.00000     0.00000
 Structure written by MMmdl.
 25 25  0  0  0  0  0  0  0  0  2 V2000
  145.5478  128.4730  153.0466 N   0  0  0  0  0  0  0  0  0  0  0  0
  146.1923  129.0988  152.0538 C   0  0  0  0  0  0  0  0  0  0  0  0
  146.9255  128.4402  151.3157 O   0  0  0  0  0  0  0  0  0  0  0  0
  145.9235  130.5536  151.9822 C   0  0  0  0  0  0  0  0  0  0  0  0
  144.9864  131.0980  151.1651 C   0  0  0  0  0  0  0  0  0  0  0  0
  144.7327  132.5302  151.1051 C   0  0  0  0  0  0  0  0  0  0  0  0
  143.6727  133.0766  150.1562 C   0  0  0  0  0  0  0  0  0  0  0  0
  143.8476  132.5801  148.7116 C   0  0  0  0  0  0  0  0  0  0  0  0
  142.5956  132.4169  148.0798 O   0  0  0  0  0  0  0  0  0  0  0  0
  145.5413  133.3089  151.9398 C   0  0  0  0  0  0  0  0  0  0  0  0
  145.4094  134.8413  151.9742 C   0  0  0  0  0  0  0  0  0  0  0  0
  145.7317  135.3647  150.7906 F   0  0  0  0  0  0  0  0  0  0  0  0
  144.1621  135.2058  152.2721 F   0  0  0  0  0  0  0  0  0  0  0  0
  146.2128  135.3968  152.8858 F   0  0  0  0  0  0  0  0  0  0  0  0
  146.4840  132.7843  152.7713 N   0  5  0  0  0  0  0  0  0  0  0  0
  146.7288  131.4469  152.8473 C   0  0  0  0  0  0  0  0  0  0  0  0
  147.5925  131.0212  153.6153 O   0  0  0  0  0  0  0  0  0  0  0  0
  145.6716  127.4798  153.1764 H   0  0  0  0  0  0  0  0  0  0  0  0
  144.9442  128.9984  153.6617 H   0  0  0  0  0  0  0  0  0  0  0  0
  144.3866  130.4768  150.5173 H   0  0  0  0  0  0  0  0  0  0  0  0
  142.6647  132.8560  150.5013 H   0  0  0  0  0  0  0  0  0  0  0  0
  143.7521  134.1640  150.1689 H   0  0  0  0  0  0  0  0  0  0  0  0
  144.4346  133.2978  148.1383 H   0  0  0  0  0  0  0  0  0  0  0  0
  144.3883  131.6336  148.6866 H   0  0  0  0  0  0  0  0  0  0  0  0
  142.6313  132.8281  147.2301 H   0  0  0  0  0  0  0  0  0  0  0  0
  1  2  1  0  0  0  0
  1 18  1  0  0  0  0
  1 19  1  0  0  0  0
  2  3  2  0  0  0  0
  2  4  1  0  0  0  0
  4 16  1  0  0  0  0
  4  5  2  0  0  0  0
  5  6  1  0  0  0  0
  5 20  1  0  0  0  0
  6  7  1  0  0  0  0
  6 10  2  0  0  0  0
  7  8  1  0  0  0  0
  7 21  1  0  0  0  0
  7 22  1  0  0  0  0
  8  9  1  0  0  0  0
  8 23  1  0  0  0  0
  8 24  1  0  0  0  0
  9 25  1  0  0  0  0
 10 11  1  0  0  0  0
 10 15  1  0  0  0  0
 11 12  1  0  0  0  0
 11 13  1  0  0  0  0
 11 14  1  0  0  0  0
 15 16  1  0  0  0  0
 16 17  2  0  0  0  0
M  CHG  1  15  -1
M  END
> <s_m_source_file>
AV-unprocessed.smi

> <i_m_source_file_index>
333

> <i_lp_mmshare_version>
43012

> <i_f3d_flags>
0

> <s_epik_input>
W05IMl1DKD1PKWMxW2NIXWMoW0NIMl1bQ0gyXVtPSF0pYyhDKEYpKEYpRilbbkhdYzE9Tw==

> <s_epik_cmdline>
J2VwaWtfcHl0aG9uJywgJy1waCcsICc3LjAnLCAnLXRuJywgJzgnLCAnLW1hJywgJzIwMCcsICctbWV0YWxfYmluZGluZycsICctaW1hZScsICc8aW5maWxlLm1hZT4nLCAnLW9tYWUnLCAnPG91dGZpbGUubWFlPic=

> <r_epik_Ionization_Penalty>
0.0673264

> <r_epik_Ionization_Penalty_Charging>
0.00196754

> <r_epik_Ionization_Penalty_Neutral>
0.0653589

> <r_epik_State_Penalty>
0.0569931

> <r_epik_Charging_Adjusted_Penalty>
0.0589607

> <i_epik_Tot_Q>
-1

> <i_epik_Tot_abs_Q>
1

> <r_epik_Metal_State_Penalty>
0.0511714

> <b_epik_Metal_Only>
0

> <s_lp_Force_Field>
OPLS_2005

> <r_lp_Energy>
33.2875

> <b_lp_Chiralities_Consistent>
1

> <s_lp_Variant>
AV-unprocessed.smi:333-1

> <Gold.Version>
5.8.1

> <Gold.Id.Protein>
6NUR|6NUR_protein|mol2

> <Gold.PLP.Fitness>
36.9043

> <Gold.PLP.PLP>
-34.4962

> <Gold.PLP.part.hbond>
-4.4061

> <Gold.PLP.part.metal>
0.0000

> <Gold.PLP.part.buried>
-5.8090

> <Gold.PLP.part.nonpolar>
-25.2399

> <Gold.PLP.part.repulsive>
0.3589

> <Gold.PLP.ligand.clash>
4.3004

> <Gold.PLP.ligand.torsion>
1.8046

> <Gold.PLP.Chemscore.Hbond>
1.9920

> <Gold.PLP.Chemscore.CHOScore>
0.0000

> <Gold.PLP.Chemscore.Metal>
0.0000

> <Gold.Chemscore.Hbonds>
donor molecule, donor type, donor heavy atom, donor atom, acceptor molecule, acceptor atom, score
      L1  H     1    19       P1 10956  0.89
      L1  H     9    25       P1 10195  0.98

> <Gold.PLP.Chemscore.Internal.Correction>
4.3417

> <Gold.Rescore>
     Score         DG    S(hbond)    S(metal)    S(lipo)     H(rot)  DE(clash)    DE(int)     intcor
     10.62     -13.18       1.92        0.00      57.26       2.11       0.09       2.47       ----

> <Gold.Chemscore.Fitness>
10.6157

> <Gold.Chemscore.DG>
-13.1781

> <Gold.Chemscore.ZeroCoef>
-5.4800

> <Gold.Chemscore.Hbond>
1.9151

> <Gold.Chemscore.Metal>
0.0000

> <Gold.Chemscore.Lipo>
57.2600

> <Gold.Chemscore.Internal_Hbond>
0.0000

> <Gold.Chemscore.DEClash>
0.0930

> <Gold.Chemscore.DEInternal>
2.4694

> <Gold.Chemscore.Rot>
2.1084

> <Gold.Chemscore.Internal.Correction>
   9.000000E+99

> <Gold.Chemscore.Hbonds>
donor molecule, donor type, donor heavy atom, donor atom, acceptor molecule, acceptor atom, score
      L1  H     1    19       P1 10956  0.82
      L1  H     9    25       P1 10195  0.93

> <Gold.Chemscore.Hbond.Weighted>
-6.3963

> <Gold.Chemscore.Metal.Weighted>
-0.0000

> <Gold.Chemscore.Lipo.Weighted>
-6.6994

> <Gold.Chemscore.Internal_Hbond.Weighted>
0.0000

> <Gold.Chemscore.DEClash.Weighted>
0.0930

> <Gold.Chemscore.DEInternal.Weighted>
2.4694

> <Gold.Chemscore.Rot.Weighted>
5.3976

> <Gold.Chemscore.Internal.Correction.Weighted>
   9.000000E+99

> <Gold.Protein.RotatedTorsions>
[ 6907 6896 6895 6894 ] final   25.10 input  -60.11 | X-H torsion
[ 7974 7965 7964 7962 ] final   86.60 input  175.53 | X-H torsion
[ 8008 7997 7996 7995 ] final   58.00 input   59.86 | X-H torsion
[ 10167 10162 10161 10158 ] final  -80.81 input  -65.29 | X-H torsion
[ 10718 10713 10712 10709 ] final -148.17 input   66.30 | X-H torsion
[ 10763 10752 10751 10750 ] final -128.40 input  -60.55 | X-H torsion
[ 11005 11000 10999 10996 ] final  158.34 input  -57.11 | X-H torsion

> <Gold.Protein.ActiveResidues>
 VAL166  LYS551  ARG553  GLY616  TRP617  ASP618  TYR619  PRO620  LYS621  CYS622 
 ASP623  PHE694  ASN695  SER759  ASP760  ASP761  ALA762  ILE779  LEU786  VAL792 
 PHE793  MET794  SER795  GLU796  ALA797  LYS798  CYS799  TRP800  GLU811  SER814 

> <Gold.Protein.RotatedAtoms>
  151.9674  135.0094  160.0550 H   0  0  0  0  0  0  0  0  0  0  0  0  # atno 6907 bound_to 6896
  152.1814  133.4705  159.4968 H   0  0  0  0  0  0  0  0  0  0  0  0  # atno 6908 bound_to 6896
  150.6918  134.1746  159.4268 H   0  0  0  0  0  0  0  0  0  0  0  0  # atno 6909 bound_to 6896
  145.5701  139.2313  143.2411 H   0  0  0  0  0  0  0  0  0  0  0  0  # atno 7974 bound_to 7965
  155.5429  140.3484  155.4451 H   0  0  0  0  0  0  0  0  0  0  0  0  # atno 8008 bound_to 7997
  156.0638  140.1346  156.9936 H   0  0  0  0  0  0  0  0  0  0  0  0  # atno 8009 bound_to 7997
  154.4493  140.0980  156.6542 H   0  0  0  0  0  0  0  0  0  0  0  0  # atno 8010 bound_to 7997
  140.4469  143.2495  151.8545 H   0  0  0  0  0  0  0  0  0  0  0  0  # atno 10167 bound_to 10162
  156.4168  130.8009  151.2230 H   0  0  0  0  0  0  0  0  0  0  0  0  # atno 10718 bound_to 10713
  154.8756  135.3929  154.3751 H   0  0  0  0  0  0  0  0  0  0  0  0  # atno 10763 bound_to 10752
  153.4506  135.7028  153.6117 H   0  0  0  0  0  0  0  0  0  0  0  0  # atno 10764 bound_to 10752
  153.4658  135.3801  155.2332 H   0  0  0  0  0  0  0  0  0  0  0  0  # atno 10765 bound_to 10752
  140.1856  134.8444  157.2853 H   0  0  0  0  0  0  0  0  0  0  0  0  # atno 11005 bound_to 11000
  146.1790  140.6527  142.9198 LP  0  0  0  0  0  0  0  0  0  0  0  0  # atno 17320 bound_to 7965
  144.7442  140.5023  143.6848 LP  0  0  0  0  0  0  0  0  0  0  0  0  # atno 17321 bound_to 7965
  139.4793  144.5164  151.8861 LP  0  0  0  0  0  0  0  0  0  0  0  0  # atno 17342 bound_to 10162
  140.4252  144.2189  150.5887 LP  0  0  0  0  0  0  0  0  0  0  0  0  # atno 17343 bound_to 10162
  157.7508  131.0240  150.3859 LP  0  0  0  0  0  0  0  0  0  0  0  0  # atno 17370 bound_to 10713
  156.4169  130.3945  149.6852 LP  0  0  0  0  0  0  0  0  0  0  0  0  # atno 17371 bound_to 10713
  140.2218  134.4015  155.7562 LP  0  0  0  0  0  0  0  0  0  0  0  0  # atno 17394 bound_to 11000
  141.2225  133.7169  156.8501 LP  0  0  0  0  0  0  0  0  0  0  0  0  # atno 17395 bound_to 11000

$$$$
