AV-unprocessed.smi:1152|AV-procd|sdf|4898|dock5
  -GOLD-   22720 3473D 1   1.00000     0.00000
 Structure written by MMmdl.
 31 32  0  0  0  0  0  0  0  0  2 V2000
  147.1540  139.7389  153.2045 C   0  0  0  0  0  0  0  0  0  0  0  0
  148.5473  140.0057  153.5311 N   0  0  0  0  0  0  0  0  0  0  0  0
  149.0386  140.1237  154.7720 C   0  0  0  0  0  0  0  0  0  0  0  0
  148.2789  140.0027  155.7352 O   0  0  0  0  0  0  0  0  0  0  0  0
  150.3731  140.3728  154.7965 N   0  5  0  0  0  0  0  0  0  0  0  0
  151.0929  140.6911  155.8960 C   0  0  0  0  0  0  0  0  0  0  0  0
  152.0656  139.9483  156.4560 N   0  0  0  0  0  0  0  0  0  0  0  0
  152.6309  140.5288  157.5801 N   0  0  0  0  0  0  0  0  0  0  0  0
  152.0817  141.7114  157.8658 C   0  0  0  0  0  0  0  0  0  0  0  0
  152.5063  142.5526  159.0288 C   0  0  0  0  0  0  0  0  0  0  0  0
  152.5911  141.7482  160.3406 C   0  0  0  0  0  0  0  0  0  0  0  0
  153.0700  142.6275  161.5074 C   0  0  0  0  0  0  0  0  0  0  0  0
  152.1885  143.8772  161.6647 C   0  0  0  0  0  0  0  0  0  0  0  0
  152.1339  144.6874  160.3594 C   0  0  0  0  0  0  0  0  0  0  0  0
  151.6481  143.8231  159.1843 C   0  0  0  0  0  0  0  0  0  0  0  0
  150.8122  142.2033  156.7586 S   0  0  0  0  0  0  0  0  0  0  0  0
  147.0286  139.6932  152.1229 H   0  0  0  0  0  0  0  0  0  0  0  0
  146.5073  140.5281  153.5903 H   0  0  0  0  0  0  0  0  0  0  0  0
  146.8325  138.7859  153.6265 H   0  0  0  0  0  0  0  0  0  0  0  0
  149.1908  140.1094  152.7603 H   0  0  0  0  0  0  0  0  0  0  0  0
  153.5200  142.8879  158.8039 H   0  0  0  0  0  0  0  0  0  0  0  0
  151.6128  141.3298  160.5813 H   0  0  0  0  0  0  0  0  0  0  0  0
  153.2679  140.9020  160.2173 H   0  0  0  0  0  0  0  0  0  0  0  0
  153.0661  142.0505  162.4325 H   0  0  0  0  0  0  0  0  0  0  0  0
  154.1041  142.9299  161.3367 H   0  0  0  0  0  0  0  0  0  0  0  0
  151.1796  143.5791  161.9527 H   0  0  0  0  0  0  0  0  0  0  0  0
  152.5697  144.5011  162.4735 H   0  0  0  0  0  0  0  0  0  0  0  0
  151.4764  145.5484  160.4831 H   0  0  0  0  0  0  0  0  0  0  0  0
  153.1246  145.0852  160.1354 H   0  0  0  0  0  0  0  0  0  0  0  0
  151.6748  144.4073  158.2637 H   0  0  0  0  0  0  0  0  0  0  0  0
  150.6051  143.5469  159.3456 H   0  0  0  0  0  0  0  0  0  0  0  0
  1  2  1  0  0  0  0
  1 17  1  0  0  0  0
  1 18  1  0  0  0  0
  1 19  1  0  0  0  0
  2  3  1  0  0  0  0
  2 20  1  0  0  0  0
  3  4  2  0  0  0  0
  3  5  1  0  0  0  0
  5  6  1  0  0  0  0
  6 16  1  0  0  0  0
  6  7  2  0  0  0  0
  7  8  1  0  0  0  0
  8  9  2  0  0  0  0
  9 10  1  0  0  0  0
  9 16  1  0  0  0  0
 10 15  1  0  0  0  0
 10 11  1  0  0  0  0
 10 21  1  0  0  0  0
 11 12  1  0  0  0  0
 11 22  1  0  0  0  0
 11 23  1  0  0  0  0
 12 13  1  0  0  0  0
 12 24  1  0  0  0  0
 12 25  1  0  0  0  0
 13 14  1  0  0  0  0
 13 26  1  0  0  0  0
 13 27  1  0  0  0  0
 14 15  1  0  0  0  0
 14 28  1  0  0  0  0
 14 29  1  0  0  0  0
 15 30  1  0  0  0  0
 15 31  1  0  0  0  0
M  CHG  1   5  -1
M  END
> <s_m_source_file>
AV-unprocessed.smi

> <i_m_source_file_index>
1152

> <i_lp_mmshare_version>
43012

> <i_f3d_flags>
0

> <s_epik_input>
W0NIM11bTkhdQyg9TylbTkhdYzFubmMoczEpW0NIXTJbQ0gyXVtDSDJdW0NIMl1bQ0gyXVtDSDJdMg==

> <s_epik_cmdline>
J2VwaWtfcHl0aG9uJywgJy1waCcsICc3LjAnLCAnLXRuJywgJzgnLCAnLW1hJywgJzIwMCcsICctbWV0YWxfYmluZGluZycsICctaW1hZScsICc8aW5maWxlLm1hZT4nLCAnLW9tYWUnLCAnPG91dGZpbGUubWFlPic=

> <r_lp_tautomer_probability>
1

> <r_epik_Ionization_Penalty>
4.62071

> <r_epik_Ionization_Penalty_Charging>
4.36597

> <r_epik_Ionization_Penalty_Neutral>
0.254736

> <r_epik_State_Penalty>
4.3656

> <r_epik_Charging_Adjusted_Penalty>
8.73157

> <i_epik_Tot_Q>
-1

> <i_epik_Tot_abs_Q>
1

> <r_epik_Metal_State_Penalty>
0.756176

> <b_epik_Metal_Only>
1

> <s_lp_Force_Field>
OPLS_2005

> <r_lp_Energy>
5.71757

> <b_lp_Chiralities_Consistent>
1

> <s_lp_Variant>
AV-unprocessed.smi:1152-2

> <Gold.Version>
5.8.1

> <Gold.Id.Protein>
6NUR|6NUR_protein|mol2

> <Gold.PLP.Fitness>
42.3318

> <Gold.PLP.PLP>
-36.7827

> <Gold.PLP.part.hbond>
-3.0200

> <Gold.PLP.part.metal>
0.0000

> <Gold.PLP.part.buried>
-3.6323

> <Gold.PLP.part.nonpolar>
-29.4254

> <Gold.PLP.part.repulsive>
0.2356

> <Gold.PLP.ligand.clash>
0.0000

> <Gold.PLP.ligand.torsion>
0.7715

> <Gold.PLP.Chemscore.Hbond>
2.3435

> <Gold.PLP.Chemscore.CHOScore>
0.0000

> <Gold.PLP.Chemscore.Metal>
0.0000

> <Gold.Chemscore.Hbonds>
donor molecule, donor type, donor heavy atom, donor atom, acceptor molecule, acceptor atom, score
      L1  H     2    20       P1  7957  1.00
      P1  H  7989  7998       L1     5  0.90
      P1  H  7997  8009       L1     8  0.42

> <Gold.PLP.Chemscore.Internal.Correction>
0.0617

> <Gold.Rescore>
     Score         DG    S(hbond)    S(metal)    S(lipo)     H(rot)  DE(clash)    DE(int)     intcor
     17.45     -18.28       1.61        0.00      85.39       1.00       0.05       0.78       ----

> <Gold.Chemscore.Fitness>
17.4474

> <Gold.Chemscore.DG>
-18.2754

> <Gold.Chemscore.ZeroCoef>
-5.4800

> <Gold.Chemscore.Hbond>
1.6061

> <Gold.Chemscore.Metal>
0.0000

> <Gold.Chemscore.Lipo>
85.3945

> <Gold.Chemscore.Internal_Hbond>
0.0000

> <Gold.Chemscore.DEClash>
0.0524

> <Gold.Chemscore.DEInternal>
0.7756

> <Gold.Chemscore.Rot>
1.0000

> <Gold.Chemscore.Internal.Correction>
   9.000000E+99

> <Gold.Chemscore.Hbonds>
donor molecule, donor type, donor heavy atom, donor atom, acceptor molecule, acceptor atom, score
      L1  H     2    20       P1  7957  0.97
      P1  H  7989  7998       L1     5  0.17
      P1  H  7997  8009       L1     8  0.04

> <Gold.Chemscore.Hbond.Weighted>
-5.3642

> <Gold.Chemscore.Metal.Weighted>
-0.0000

> <Gold.Chemscore.Lipo.Weighted>
-9.9912

> <Gold.Chemscore.Internal_Hbond.Weighted>
0.0000

> <Gold.Chemscore.DEClash.Weighted>
0.0524

> <Gold.Chemscore.DEInternal.Weighted>
0.7756

> <Gold.Chemscore.Rot.Weighted>
2.5600

> <Gold.Chemscore.Internal.Correction.Weighted>
   9.000000E+99

> <Gold.Protein.RotatedTorsions>
[ 6907 6896 6895 6894 ] final -148.94 input  -60.11 | X-H torsion
[ 7974 7965 7964 7962 ] final  146.38 input  175.53 | X-H torsion
[ 8008 7997 7996 7995 ] final  156.88 input   59.86 | X-H torsion
[ 10167 10162 10161 10158 ] final  108.58 input  -65.29 | X-H torsion
[ 10718 10713 10712 10709 ] final   44.57 input   66.30 | X-H torsion
[ 10763 10752 10751 10750 ] final  137.26 input  -60.55 | X-H torsion
[ 11005 11000 10999 10996 ] final  173.53 input  -57.11 | X-H torsion

> <Gold.Protein.ActiveResidues>
 VAL166  LYS551  ARG553  GLY616  TRP617  ASP618  TYR619  PRO620  LYS621  CYS622 
 ASP623  PHE694  ASN695  SER759  ASP760  ASP761  ALA762  ILE779  LEU786  VAL792 
 PHE793  MET794  SER795  GLU796  ALA797  LYS798  CYS799  TRP800  GLU811  SER814 

> <Gold.Protein.RotatedAtoms>
  151.1769  133.4749  159.2593 H   0  0  0  0  0  0  0  0  0  0  0  0  # atno 6907 bound_to 6896
  151.1298  135.0124  159.8587 H   0  0  0  0  0  0  0  0  0  0  0  0  # atno 6908 bound_to 6896
  152.5459  134.1673  159.8635 H   0  0  0  0  0  0  0  0  0  0  0  0  # atno 6909 bound_to 6896
  144.8675  139.5898  143.5902 H   0  0  0  0  0  0  0  0  0  0  0  0  # atno 7974 bound_to 7965
  156.2397  140.1900  156.7023 H   0  0  0  0  0  0  0  0  0  0  0  0  # atno 8008 bound_to 7997
  154.6173  140.0613  156.9597 H   0  0  0  0  0  0  0  0  0  0  0  0  # atno 8009 bound_to 7997
  155.1919  140.3285  155.4360 H   0  0  0  0  0  0  0  0  0  0  0  0  # atno 8010 bound_to 7997
  139.6834  144.7116  151.1474 H   0  0  0  0  0  0  0  0  0  0  0  0  # atno 10167 bound_to 10162
  157.4282  130.8009  149.7578 H   0  0  0  0  0  0  0  0  0  0  0  0  # atno 10718 bound_to 10713
  153.8702  135.3056  155.3441 H   0  0  0  0  0  0  0  0  0  0  0  0  # atno 10763 bound_to 10752
  154.7809  135.4836  153.9846 H   0  0  0  0  0  0  0  0  0  0  0  0  # atno 10764 bound_to 10752
  153.1411  135.6824  153.9122 H   0  0  0  0  0  0  0  0  0  0  0  0  # atno 10765 bound_to 10752
  140.3415  134.7272  157.4205 H   0  0  0  0  0  0  0  0  0  0  0  0  # atno 11005 bound_to 11000
  146.2907  139.7130  142.9163 LP  0  0  0  0  0  0  0  0  0  0  0  0  # atno 17320 bound_to 7965
  145.4193  141.0405  143.2973 LP  0  0  0  0  0  0  0  0  0  0  0  0  # atno 17321 bound_to 7965
  140.7660  143.5665  150.9042 LP  0  0  0  0  0  0  0  0  0  0  0  0  # atno 17342 bound_to 10162
  139.9338  143.6462  152.3070 LP  0  0  0  0  0  0  0  0  0  0  0  0  # atno 17343 bound_to 10162
  155.9904  130.3945  150.3031 LP  0  0  0  0  0  0  0  0  0  0  0  0  # atno 17370 bound_to 10713
  157.1185  131.0240  151.3019 LP  0  0  0  0  0  0  0  0  0  0  0  0  # atno 17371 bound_to 10713
  140.0777  134.5774  155.8573 LP  0  0  0  0  0  0  0  0  0  0  0  0  # atno 17394 bound_to 11000
  141.2037  133.6634  156.6078 LP  0  0  0  0  0  0  0  0  0  0  0  0  # atno 17395 bound_to 11000

$$$$
