AV-unprocessed.smi:3237|AV-procd|sdf|12363|dock1
  -GOLD-   2272018223D 1   1.00000     0.00000
 Structure written by MMmdl.
 37 39  0  0  0  0  0  0  0  0  2 V2000
  137.6166  137.2559  154.9608 C   0  0  0  0  0  0  0  0  0  0  0  0
  139.0476  137.0826  154.5829 C   0  0  0  0  0  0  0  0  0  0  0  0
  139.7452  137.3470  153.4383 C   0  0  0  0  0  0  0  0  0  0  0  0
  141.0696  136.9379  153.7700 C   0  0  0  0  0  0  0  0  0  0  0  0
  142.2062  136.9996  152.9228 N   0  0  0  0  0  0  0  0  0  0  0  0
  143.2747  136.1851  152.8997 C   0  0  0  0  0  0  0  0  0  0  0  0
  143.4492  135.2137  153.6350 O   0  0  0  0  0  0  0  0  0  0  0  0
  144.1549  136.5629  151.9616 N   0  0  0  0  0  0  0  0  0  0  0  0
  145.4196  135.8862  151.6942 C   0  0  2  0  0  0  0  0  0  0  0  0
  145.2809  134.5636  150.9350 C   0  0  0  0  0  0  0  0  0  0  0  0
  146.4704  133.7154  151.4165 C   0  0  0  0  0  0  0  0  0  0  0  0
  147.1012  134.4555  152.5343 N   0  3  2  0  0  0  0  0  0  0  0  0
  147.6220  133.5954  153.6174 C   0  0  0  0  0  0  0  0  0  0  0  0
  149.0984  133.3031  153.4988 C   0  0  0  0  0  0  0  0  0  0  0  0
  148.0836  132.2389  153.1409 C   0  0  0  0  0  0  0  0  0  0  0  0
  146.1205  135.4605  152.9804 C   0  0  0  0  0  0  0  0  0  0  0  0
  141.1648  136.4719  155.0016 N   0  0  0  0  0  0  0  0  0  0  0  0
  139.8716  136.5589  155.5300 O   0  0  0  0  0  0  0  0  0  0  0  0
  137.1058  137.9141  154.2578 H   0  0  0  0  0  0  0  0  0  0  0  0
  137.5277  137.6913  155.9563 H   0  0  0  0  0  0  0  0  0  0  0  0
  137.0995  136.2964  154.9624 H   0  0  0  0  0  0  0  0  0  0  0  0
  139.3541  137.7653  152.5233 H   0  0  0  0  0  0  0  0  0  0  0  0
  142.2062  137.7611  152.2605 H   0  0  0  0  0  0  0  0  0  0  0  0
  143.9362  137.3719  151.3981 H   0  0  0  0  0  0  0  0  0  0  0  0
  146.0839  136.5530  151.1402 H   0  0  0  0  0  0  0  0  0  0  0  0
  144.3472  134.0660  151.2022 H   0  0  0  0  0  0  0  0  0  0  0  0
  145.2809  134.7076  149.8540 H   0  0  0  0  0  0  0  0  0  0  0  0
  146.1236  132.7319  151.7378 H   0  0  0  0  0  0  0  0  0  0  0  0
  147.2042  133.5655  150.6242 H   0  0  0  0  0  0  0  0  0  0  0  0
  147.1565  133.7082  154.5952 H   0  0  0  0  0  0  0  0  0  0  0  0
  149.6517  133.7642  152.6824 H   0  0  0  0  0  0  0  0  0  0  0  0
  149.6590  133.1670  154.4215 H   0  0  0  0  0  0  0  0  0  0  0  0
  147.9757  131.4022  153.8281 H   0  0  0  0  0  0  0  0  0  0  0  0
  147.9620  131.9937  152.0871 H   0  0  0  0  0  0  0  0  0  0  0  0
  146.6042  136.2943  153.4907 H   0  0  0  0  0  0  0  0  0  0  0  0
  145.4102  135.0016  153.6712 H   0  0  0  0  0  0  0  0  0  0  0  0
  147.8786  134.9661  152.1406 H   0  0  0  0  0  0  0  0  0  0  0  0
  1  2  1  0  0  0  0
  1 19  1  0  0  0  0
  1 20  1  0  0  0  0
  1 21  1  0  0  0  0
  2 18  1  0  0  0  0
  2  3  2  0  0  0  0
  3  4  1  0  0  0  0
  3 22  1  0  0  0  0
  4  5  1  0  0  0  0
  4 17  2  0  0  0  0
  5  6  1  0  0  0  0
  5 23  1  0  0  0  0
  6  7  2  0  0  0  0
  6  8  1  0  0  0  0
  8  9  1  0  0  0  0
  8 24  1  0  0  0  0
  9 16  1  0  0  0  0
  9 10  1  0  0  0  0
  9 25  1  0  0  0  0
 10 11  1  0  0  0  0
 10 26  1  0  0  0  0
 10 27  1  0  0  0  0
 11 12  1  0  0  0  0
 11 28  1  0  0  0  0
 11 29  1  0  0  0  0
 12 13  1  0  0  0  0
 12 16  1  0  0  0  0
 12 37  1  0  0  0  0
 13 15  1  0  0  0  0
 13 14  1  0  0  0  0
 13 30  1  0  0  0  0
 14 15  1  0  0  0  0
 14 31  1  0  0  0  0
 14 32  1  0  0  0  0
 15 33  1  0  0  0  0
 15 34  1  0  0  0  0
 16 35  1  0  0  0  0
 16 36  1  0  0  0  0
 17 18  1  0  0  0  0
M  CHG  1  12   1
M  END
> <s_m_source_file>
AV-unprocessed.smi

> <i_m_source_file_index>
3237

> <i_lp_mmshare_version>
43012

> <i_f3d_flags>
0

> <s_epik_input>
W0NIM11jMVtjSF1jKG5vMSlbTkhdQyg9TylbTkhdW0NAQEhdMltDSDJdW0NIMl1OKFtDSDJdMilbQ0hdM1tDSDJdW0NIMl0z

> <s_epik_cmdline>
J2VwaWtfcHl0aG9uJywgJy1waCcsICc3LjAnLCAnLXRuJywgJzgnLCAnLW1hJywgJzIwMCcsICctbWV0YWxfYmluZGluZycsICctaW1hZScsICc8aW5maWxlLm1hZT4nLCAnLW9tYWUnLCAnPG91dGZpbGUubWFlPic=

> <r_epik_Ionization_Penalty>
0.000720579

> <r_epik_Ionization_Penalty_Charging>
0.000680516

> <r_epik_Ionization_Penalty_Neutral>
4.00628e-05

> <r_epik_State_Penalty>
0.000432256

> <r_epik_Charging_Adjusted_Penalty>
0.00111277

> <i_epik_Tot_Q>
1

> <i_epik_Tot_abs_Q>
1

> <r_epik_Metal_State_Penalty>
0.0255091

> <b_epik_Metal_Only>
0

> <s_lp_Force_Field>
OPLS_2005

> <r_lp_Energy>
35.4942

> <b_lp_Chiralities_Consistent>
1

> <s_lp_Variant>
AV-unprocessed.smi:3237-1

> <Gold.Version>
5.8.1

> <Gold.Id.Protein>
6NUR|6NUR_protein|mol2

> <Gold.PLP.Fitness>
41.7895

> <Gold.PLP.PLP>
-31.4419

> <Gold.PLP.part.hbond>
-4.0000

> <Gold.PLP.part.metal>
0.0000

> <Gold.PLP.part.buried>
-3.9464

> <Gold.PLP.part.nonpolar>
-23.8424

> <Gold.PLP.part.repulsive>
0.1759

> <Gold.PLP.ligand.clash>
0.0000

> <Gold.PLP.ligand.torsion>
1.2982

> <Gold.PLP.Chemscore.Hbond>
3.8928

> <Gold.PLP.Chemscore.CHOScore>
0.0000

> <Gold.PLP.Chemscore.Metal>
0.0000

> <Gold.Chemscore.Hbonds>
donor molecule, donor type, donor heavy atom, donor atom, acceptor molecule, acceptor atom, score
      L1  H     8    24       P1 10171  1.00
      L1  H    12    37       P1  7948  2.00
      P1  H 11000 11005       L1    18  0.89

> <Gold.PLP.Chemscore.Internal.Correction>
1.2655

> <Gold.Rescore>
     Score         DG    S(hbond)    S(metal)    S(lipo)     H(rot)  DE(clash)    DE(int)     intcor
     11.63     -15.56       1.97        0.00      57.55       1.26       0.01       3.93       ----

> <Gold.Chemscore.Fitness>
11.6306

> <Gold.Chemscore.DG>
-15.5642

> <Gold.Chemscore.ZeroCoef>
-5.4800

> <Gold.Chemscore.Hbond>
1.9685

> <Gold.Chemscore.Metal>
0.0000

> <Gold.Chemscore.Lipo>
57.5479

> <Gold.Chemscore.Internal_Hbond>
0.0000

> <Gold.Chemscore.DEClash>
0.0052

> <Gold.Chemscore.DEInternal>
3.9284

> <Gold.Chemscore.Rot>
1.2593

> <Gold.Chemscore.Internal.Correction>
   9.000000E+99

> <Gold.Chemscore.Hbonds>
donor molecule, donor type, donor heavy atom, donor atom, acceptor molecule, acceptor atom, score
      L1  H     8    24       P1 10171  0.96
      L1  H    12    37       P1  7948  0.74
      P1  H 11000 11005       L1    18  0.17

> <Gold.Chemscore.Hbond.Weighted>
-6.5748

> <Gold.Chemscore.Metal.Weighted>
-0.0000

> <Gold.Chemscore.Lipo.Weighted>
-6.7331

> <Gold.Chemscore.Internal_Hbond.Weighted>
0.0000

> <Gold.Chemscore.DEClash.Weighted>
0.0052

> <Gold.Chemscore.DEInternal.Weighted>
3.9284

> <Gold.Chemscore.Rot.Weighted>
3.2237

> <Gold.Chemscore.Internal.Correction.Weighted>
   9.000000E+99

> <Gold.Protein.RotatedTorsions>
[ 6907 6896 6895 6894 ] final -167.72 input  -60.11 | X-H torsion
[ 7974 7965 7964 7962 ] final -121.01 input  175.53 | X-H torsion
[ 8008 7997 7996 7995 ] final -104.21 input   59.86 | X-H torsion
[ 10167 10162 10161 10158 ] final   76.52 input  -65.29 | X-H torsion
[ 10718 10713 10712 10709 ] final -128.13 input   66.30 | X-H torsion
[ 10763 10752 10751 10750 ] final  150.55 input  -60.55 | X-H torsion
[ 11005 11000 10999 10996 ] final  100.54 input  -57.11 | X-H torsion

> <Gold.Protein.ActiveResidues>
 VAL166  LYS551  ARG553  GLY616  TRP617  ASP618  TYR619  PRO620  LYS621  CYS622 
 ASP623  PHE694  ASN695  SER759  ASP760  ASP761  ALA762  ILE779  LEU786  VAL792 
 PHE793  MET794  SER795  GLU796  ALA797  LYS798  CYS799  TRP800  GLU811  SER814 

> <Gold.Protein.RotatedAtoms>
  151.4640  133.3585  159.2813 H   0  0  0  0  0  0  0  0  0  0  0  0  # atno 6907 bound_to 6896
  150.9006  134.8419  159.7368 H   0  0  0  0  0  0  0  0  0  0  0  0  # atno 6908 bound_to 6896
  152.4877  134.4560  159.9642 H   0  0  0  0  0  0  0  0  0  0  0  0  # atno 6909 bound_to 6896
  145.0450  140.8174  143.4243 H   0  0  0  0  0  0  0  0  0  0  0  0  # atno 7974 bound_to 7965
  154.8820  140.0419  157.1788 H   0  0  0  0  0  0  0  0  0  0  0  0  # atno 8008 bound_to 7997
  154.8629  140.2947  155.5507 H   0  0  0  0  0  0  0  0  0  0  0  0  # atno 8009 bound_to 7997
  156.2998  140.2443  156.3606 H   0  0  0  0  0  0  0  0  0  0  0  0  # atno 8010 bound_to 7997
  139.9914  144.5754  150.7815 H   0  0  0  0  0  0  0  0  0  0  0  0  # atno 10167 bound_to 10162
  156.1922  130.6802  151.0438 H   0  0  0  0  0  0  0  0  0  0  0  0  # atno 10718 bound_to 10713
  154.0894  135.2853  155.3274 H   0  0  0  0  0  0  0  0  0  0  0  0  # atno 10763 bound_to 10752
  154.6630  135.5327  153.8045 H   0  0  0  0  0  0  0  0  0  0  0  0  # atno 10764 bound_to 10752
  153.0419  135.6538  154.1064 H   0  0  0  0  0  0  0  0  0  0  0  0  # atno 10765 bound_to 10752
  139.8771  134.9145  156.4772 H   0  0  0  0  0  0  0  0  0  0  0  0  # atno 11005 bound_to 11000
  145.1599  139.2464  143.5397 LP  0  0  0  0  0  0  0  0  0  0  0  0  # atno 17320 bound_to 7965
  146.3513  140.1323  142.8597 LP  0  0  0  0  0  0  0  0  0  0  0  0  # atno 17321 bound_to 7965
  140.7453  143.2874  151.3426 LP  0  0  0  0  0  0  0  0  0  0  0  0  # atno 17342 bound_to 10162
  139.6337  144.0671  152.2498 LP  0  0  0  0  0  0  0  0  0  0  0  0  # atno 17343 bound_to 10162
  157.6936  131.0802  150.7036 LP  0  0  0  0  0  0  0  0  0  0  0  0  # atno 17370 bound_to 10713
  156.7093  130.4647  149.5551 LP  0  0  0  0  0  0  0  0  0  0  0  0  # atno 17371 bound_to 10713
  140.8753  133.7958  155.9408 LP  0  0  0  0  0  0  0  0  0  0  0  0  # atno 17394 bound_to 11000
  140.8910  134.2495  157.5094 LP  0  0  0  0  0  0  0  0  0  0  0  0  # atno 17395 bound_to 11000

$$$$
