AV-unprocessed.smi:3350|AV-procd|sdf|12939|dock5
  -GOLD-   2272019373D 1   1.00000     0.00000
 Structure written by MMmdl.
 41 42  0  0  0  0  0  0  0  0  1 V2000
  146.6993  133.8702  155.8012 C   0  0  0  0  0  0  0  0  0  0  0  0
  146.4827  134.2748  154.3370 C   0  0  2  0  0  0  0  0  0  0  0  0
  146.6300  133.0666  153.3894 C   0  0  0  0  0  0  0  0  0  0  0  0
  145.7203  133.1320  152.2592 N   0  0  0  0  0  0  0  0  0  0  0  0
  144.3495  133.2796  152.2713 C   0  0  0  0  0  0  0  0  0  0  0  0
  143.9322  133.3018  150.9713 C   0  0  0  0  0  0  0  0  0  0  0  0
  145.1365  133.1586  150.2272 C   0  0  0  0  0  0  0  0  0  0  0  0
  146.2049  133.0532  151.0005 N   0  0  0  0  0  0  0  0  0  0  0  0
  147.4387  135.3252  153.9894 N   0  0  0  0  0  0  0  0  0  0  0  0
  147.6051  136.4803  154.6494 C   0  0  0  0  0  0  0  0  0  0  0  0
  146.9674  136.8035  155.6518 O   0  0  0  0  0  0  0  0  0  0  0  0
  148.5549  137.2374  154.0836 N   0  0  0  0  0  0  0  0  0  0  0  0
  149.0214  138.5301  154.5819 C   0  0  2  0  0  0  0  0  0  0  0  0
  148.1308  139.6438  154.0130 C   0  0  0  0  0  0  0  0  0  0  0  0
  150.5143  138.7587  154.2527 C   0  0  2  0  0  0  0  0  0  0  0  0
  151.4802  137.6429  154.6769 C   0  0  0  0  0  0  0  0  0  0  0  0
  152.7585  138.4112  154.9227 C   0  0  0  0  0  0  0  0  0  0  0  0
  152.2211  139.6908  155.5510 C   0  0  0  0  0  0  0  0  0  0  0  0
  150.9959  139.9501  154.8746 O   0  0  0  0  0  0  0  0  0  0  0  0
  145.9812  133.1094  156.1081 H   0  0  0  0  0  0  0  0  0  0  0  0
  146.5766  134.7252  156.4671 H   0  0  0  0  0  0  0  0  0  0  0  0
  147.6999  133.4660  155.9584 H   0  0  0  0  0  0  0  0  0  0  0  0
  145.4627  134.6554  154.2565 H   0  0  0  0  0  0  0  0  0  0  0  0
  147.6549  132.9880  153.0225 H   0  0  0  0  0  0  0  0  0  0  0  0
  146.4223  132.1417  153.9288 H   0  0  0  0  0  0  0  0  0  0  0  0
  143.7928  133.3610  153.1933 H   0  0  0  0  0  0  0  0  0  0  0  0
  142.9212  133.4070  150.6071 H   0  0  0  0  0  0  0  0  0  0  0  0
  145.2649  133.1271  149.1555 H   0  0  0  0  0  0  0  0  0  0  0  0
  148.0122  135.1618  153.1750 H   0  0  0  0  0  0  0  0  0  0  0  0
  149.0118  136.8808  153.2572 H   0  0  0  0  0  0  0  0  0  0  0  0
  148.9085  138.5581  155.6671 H   0  0  0  0  0  0  0  0  0  0  0  0
  148.4403  140.6210  154.3847 H   0  0  0  0  0  0  0  0  0  0  0  0
  147.0892  139.4978  154.3012 H   0  0  0  0  0  0  0  0  0  0  0  0
  148.1730  139.6737  152.9238 H   0  0  0  0  0  0  0  0  0  0  0  0
  150.6215  138.9175  153.1787 H   0  0  0  0  0  0  0  0  0  0  0  0
  151.1632  137.1648  155.6039 H   0  0  0  0  0  0  0  0  0  0  0  0
  151.5889  136.8672  153.9184 H   0  0  0  0  0  0  0  0  0  0  0  0
  153.4617  137.8813  155.5654 H   0  0  0  0  0  0  0  0  0  0  0  0
  153.2546  138.6337  153.9770 H   0  0  0  0  0  0  0  0  0  0  0  0
  152.0079  139.5340  156.6095 H   0  0  0  0  0  0  0  0  0  0  0  0
  152.9140  140.5278  155.4632 H   0  0  0  0  0  0  0  0  0  0  0  0
  1  2  1  0  0  0  0
  1 20  1  0  0  0  0
  1 21  1  0  0  0  0
  1 22  1  0  0  0  0
  2  3  1  0  0  0  0
  2  9  1  0  0  0  0
  2 23  1  0  0  0  0
  3  4  1  0  0  0  0
  3 24  1  0  0  0  0
  3 25  1  0  0  0  0
  4  8  1  0  0  0  0
  4  5  1  0  0  0  0
  5  6  2  0  0  0  0
  5 26  1  0  0  0  0
  6  7  1  0  0  0  0
  6 27  1  0  0  0  0
  7  8  2  0  0  0  0
  7 28  1  0  0  0  0
  9 10  1  0  0  0  0
  9 29  1  0  0  0  0
 10 11  2  0  0  0  0
 10 12  1  0  0  0  0
 12 13  1  0  0  0  0
 12 30  1  0  0  0  0
 13 14  1  0  0  0  0
 13 15  1  0  0  0  0
 13 31  1  0  0  0  0
 14 32  1  0  0  0  0
 14 33  1  0  0  0  0
 14 34  1  0  0  0  0
 15 19  1  0  0  0  0
 15 16  1  0  0  0  0
 15 35  1  0  0  0  0
 16 17  1  0  0  0  0
 16 36  1  0  0  0  0
 16 37  1  0  0  0  0
 17 18  1  0  0  0  0
 17 38  1  0  0  0  0
 17 39  1  0  0  0  0
 18 19  1  0  0  0  0
 18 40  1  0  0  0  0
 18 41  1  0  0  0  0
M  END
> <s_m_source_file>
AV-unprocessed.smi

> <i_m_source_file_index>
3350

> <i_lp_mmshare_version>
43012

> <i_f3d_flags>
0

> <s_epik_input>
bjFbY0hdW2NIXVtjSF1uMVtDSDJdW0NAQEhdKFtDSDNdKVtOSF1DKD1PKVtOSF1bQ0BIXShbQ0gzXSlbQ0BASF0yW0NIMl1bQ0gyXVtDSDJdTzI=

> <s_epik_cmdline>
J2VwaWtfcHl0aG9uJywgJy1waCcsICc3LjAnLCAnLXRuJywgJzgnLCAnLW1hJywgJzIwMCcsICctbWV0YWxfYmluZGluZycsICctaW1hZScsICc8aW5maWxlLm1hZT4nLCAnLW9tYWUnLCAnPG91dGZpbGUubWFlPic=

> <r_lp_tautomer_probability>
1

> <r_epik_Ionization_Penalty>
6.42349e-05

> <r_epik_Ionization_Penalty_Charging>
0

> <r_epik_Ionization_Penalty_Neutral>
6.42349e-05

> <r_epik_State_Penalty>
-0

> <r_epik_Charging_Adjusted_Penalty>
0

> <i_epik_Tot_Q>
0

> <i_epik_Tot_abs_Q>
0

> <r_epik_Metal_State_Penalty>
-0

> <b_epik_Metal_Only>
0

> <s_lp_Force_Field>
OPLS_2005

> <r_lp_Energy>
17.0585

> <b_lp_Chiralities_Consistent>
1

> <s_lp_Variant>
AV-unprocessed.smi:3350-1

> <Gold.Version>
5.8.1

> <Gold.Id.Protein>
6NUR|6NUR_protein|mol2

> <Gold.PLP.Fitness>
40.2605

> <Gold.PLP.PLP>
-27.8546

> <Gold.PLP.part.hbond>
-2.8085

> <Gold.PLP.part.metal>
0.0000

> <Gold.PLP.part.buried>
-3.4895

> <Gold.PLP.part.nonpolar>
-22.3159

> <Gold.PLP.part.repulsive>
0.2668

> <Gold.PLP.ligand.clash>
0.0000

> <Gold.PLP.ligand.torsion>
0.9174

> <Gold.PLP.Chemscore.Hbond>
2.7340

> <Gold.PLP.Chemscore.CHOScore>
2.0000

> <Gold.PLP.Chemscore.Metal>
0.0000

> <Gold.Chemscore.Hbonds>
donor molecule, donor type, donor heavy atom, donor atom, acceptor molecule, acceptor atom, score
      L1  H     9    29       P1  7948  0.77
      L1  H    12    30       P1  7948  0.99
      P1  H  7989  7998       L1    19  0.95
      L1  C     5    26       P1 10957  1.00
      L1  C     7    28       P1  7921  1.00

> <Gold.PLP.Chemscore.Internal.Correction>
0.0388

> <Gold.Rescore>
     Score         DG    S(hbond)    S(metal)    S(lipo)     H(rot)  DE(clash)    DE(int)     intcor
     13.87     -14.87       1.88        0.00      66.34       1.82       0.04       0.96       ----

> <Gold.Chemscore.Fitness>
13.8692

> <Gold.Chemscore.DG>
-14.8663

> <Gold.Chemscore.ZeroCoef>
-5.4800

> <Gold.Chemscore.Hbond>
1.8811

> <Gold.Chemscore.Metal>
0.0000

> <Gold.Chemscore.Lipo>
66.3396

> <Gold.Chemscore.Internal_Hbond>
0.0000

> <Gold.Chemscore.DEClash>
0.0399

> <Gold.Chemscore.DEInternal>
0.9572

> <Gold.Chemscore.Rot>
1.8197

> <Gold.Chemscore.Internal.Correction>
   9.000000E+99

> <Gold.Chemscore.Hbonds>
donor molecule, donor type, donor heavy atom, donor atom, acceptor molecule, acceptor atom, score
      L1  H     9    29       P1  7948  0.77
      L1  H    12    30       P1  7948  0.89
      P1  H  7989  7998       L1    19  0.09

> <Gold.Chemscore.Hbond.Weighted>
-6.2829

> <Gold.Chemscore.Metal.Weighted>
-0.0000

> <Gold.Chemscore.Lipo.Weighted>
-7.7617

> <Gold.Chemscore.Internal_Hbond.Weighted>
0.0000

> <Gold.Chemscore.DEClash.Weighted>
0.0399

> <Gold.Chemscore.DEInternal.Weighted>
0.9572

> <Gold.Chemscore.Rot.Weighted>
4.6583

> <Gold.Chemscore.Internal.Correction.Weighted>
   9.000000E+99

> <Gold.Protein.RotatedTorsions>
[ 6907 6896 6895 6894 ] final  -58.50 input  -60.11 | X-H torsion
[ 7974 7965 7964 7962 ] final  164.00 input  175.53 | X-H torsion
[ 8008 7997 7996 7995 ] final  -99.02 input   59.86 | X-H torsion
[ 10167 10162 10161 10158 ] final   24.85 input  -65.29 | X-H torsion
[ 10718 10713 10712 10709 ] final  -49.10 input   66.30 | X-H torsion
[ 10763 10752 10751 10750 ] final   87.51 input  -60.55 | X-H torsion
[ 11005 11000 10999 10996 ] final   63.17 input  -57.11 | X-H torsion

> <Gold.Protein.ActiveResidues>
 VAL166  LYS551  ARG553  GLY616  TRP617  ASP618  TYR619  PRO620  LYS621  CYS622 
 ASP623  PHE694  ASN695  SER759  ASP760  ASP761  ALA762  ILE779  LEU786  VAL792 
 PHE793  MET794  SER795  GLU796  ALA797  LYS798  CYS799  TRP800  GLU811  SER814 

> <Gold.Protein.RotatedAtoms>
  150.8002  134.7090  159.6592 H   0  0  0  0  0  0  0  0  0  0  0  0  # atno 6907 bound_to 6896
  152.4118  134.6108  160.0035 H   0  0  0  0  0  0  0  0  0  0  0  0  # atno 6908 bound_to 6896
  151.6349  133.3292  159.3153 H   0  0  0  0  0  0  0  0  0  0  0  0  # atno 6909 bound_to 6896
  144.7564  139.8263  143.6348 H   0  0  0  0  0  0  0  0  0  0  0  0  # atno 7974 bound_to 7965
  154.8092  140.0451  157.1330 H   0  0  0  0  0  0  0  0  0  0  0  0  # atno 8008 bound_to 7997
  154.9388  140.3050  155.5111 H   0  0  0  0  0  0  0  0  0  0  0  0  # atno 8009 bound_to 7997
  156.2970  140.2309  156.4456 H   0  0  0  0  0  0  0  0  0  0  0  0  # atno 8010 bound_to 7997
  140.5154  144.0091  150.6392 H   0  0  0  0  0  0  0  0  0  0  0  0  # atno 10167 bound_to 10162
  156.1925  130.4153  149.9352 H   0  0  0  0  0  0  0  0  0  0  0  0  # atno 10718 bound_to 10713
  153.1675  135.4541  154.9857 H   0  0  0  0  0  0  0  0  0  0  0  0  # atno 10763 bound_to 10752
  154.7942  135.3231  154.7708 H   0  0  0  0  0  0  0  0  0  0  0  0  # atno 10764 bound_to 10752
  153.8189  135.6948  153.4885 H   0  0  0  0  0  0  0  0  0  0  0  0  # atno 10765 bound_to 10752
  140.0042  134.6395  155.9881 H   0  0  0  0  0  0  0  0  0  0  0  0  # atno 11005 bound_to 11000
  146.1580  139.4684  143.0007 LP  0  0  0  0  0  0  0  0  0  0  0  0  # atno 17320 bound_to 7965
  145.6764  141.0203  143.1630 LP  0  0  0  0  0  0  0  0  0  0  0  0  # atno 17321 bound_to 7965
  140.3425  143.3011  152.0573 LP  0  0  0  0  0  0  0  0  0  0  0  0  # atno 17342 bound_to 10162
  139.4908  144.6432  151.6833 LP  0  0  0  0  0  0  0  0  0  0  0  0  # atno 17343 bound_to 10162
  156.7088  130.8962  151.3607 LP  0  0  0  0  0  0  0  0  0  0  0  0  # atno 17370 bound_to 10713
  157.6937  130.9260  150.0585 LP  0  0  0  0  0  0  0  0  0  0  0  0  # atno 17371 bound_to 10713
  141.1665  133.6537  156.4497 LP  0  0  0  0  0  0  0  0  0  0  0  0  # atno 17394 bound_to 11000
  140.4671  134.6788  157.5112 LP  0  0  0  0  0  0  0  0  0  0  0  0  # atno 17395 bound_to 11000

$$$$
