AV-unprocessed.smi:1115|AV-procd|sdf|4804|dock5
  -GOLD-   22720 3353D 1   1.00000     0.00000
 Structure written by MMmdl.
 52 53  0  0  0  0  0  0  0  0  3 V2000
  151.2457  144.9368  159.9766 C   0  0  0  0  0  0  0  0  0  0  0  0
  151.3256  144.5323  158.5791 N   0  0  0  0  0  0  0  0  0  0  0  0
  151.7730  145.4780  157.5626 C   0  0  0  0  0  0  0  0  0  0  0  0
  151.0213  143.2029  158.2146 C   0  0  0  0  0  0  0  0  0  0  0  0
  151.5917  142.0737  158.8518 C   0  0  0  0  0  0  0  0  0  0  0  0
  151.2354  140.7762  158.4308 C   0  0  0  0  0  0  0  0  0  0  0  0
  150.3185  140.6070  157.3723 C   0  0  0  0  0  0  0  0  0  0  0  0
  149.9818  139.2781  156.9956 N   0  0  0  0  0  0  0  0  0  0  0  0
  149.1463  138.8649  156.0269 C   0  0  0  0  0  0  0  0  0  0  0  0
  148.5399  139.5997  155.2481 O   0  0  0  0  0  0  0  0  0  0  0  0
  149.0673  137.5268  155.9931 N   0  0  0  0  0  0  0  0  0  0  0  0
  148.2464  136.7467  155.0673 C   0  0  0  0  0  0  0  0  0  0  0  0
  148.5514  135.2184  155.1015 C   0  0  0  0  0  0  0  0  0  0  0  0
  150.0792  134.9689  155.0287 C   0  0  0  0  0  0  0  0  0  0  0  0
  148.0844  134.6239  156.4536 C   0  0  0  0  0  0  0  0  0  0  0  0
  147.8657  134.4974  153.9684 N   0  3  0  0  0  0  0  0  0  0  0  0
  148.0972  133.0262  153.9012 C   0  0  0  0  0  0  0  0  0  0  0  0
  147.5049  132.4422  152.6081 C   0  0  0  0  0  0  0  0  0  0  0  0
  146.1161  132.7328  152.5456 O   0  0  0  0  0  0  0  0  0  0  0  0
  145.8748  134.1322  152.5157 C   0  0  0  0  0  0  0  0  0  0  0  0
  146.4111  134.7802  153.8034 C   0  0  0  0  0  0  0  0  0  0  0  0
  149.7688  141.7660  156.7738 C   0  0  0  0  0  0  0  0  0  0  0  0
  150.1373  142.9899  157.2093 N   0  3  0  0  0  0  0  0  0  0  0  0
  150.2433  144.7651  160.3700 H   0  0  0  0  0  0  0  0  0  0  0  0
  151.4710  145.9969  160.0958 H   0  0  0  0  0  0  0  0  0  0  0  0
  151.9593  144.3733  160.5787 H   0  0  0  0  0  0  0  0  0  0  0  0
  151.0019  145.6201  156.8050 H   0  0  0  0  0  0  0  0  0  0  0  0
  152.6777  145.1153  157.0731 H   0  0  0  0  0  0  0  0  0  0  0  0
  151.9973  146.4521  157.9977 H   0  0  0  0  0  0  0  0  0  0  0  0
  152.2994  142.1796  159.6602 H   0  0  0  0  0  0  0  0  0  0  0  0
  151.6705  139.9167  158.9198 H   0  0  0  0  0  0  0  0  0  0  0  0
  150.4603  138.5505  157.5063 H   0  0  0  0  0  0  0  0  0  0  0  0
  149.6066  137.0037  156.6676 H   0  0  0  0  0  0  0  0  0  0  0  0
  147.2121  136.9343  155.3530 H   0  0  0  0  0  0  0  0  0  0  0  0
  148.3508  137.1441  154.0575 H   0  0  0  0  0  0  0  0  0  0  0  0
  150.5859  135.2851  155.9409 H   0  0  0  0  0  0  0  0  0  0  0  0
  150.5501  135.5208  154.2152 H   0  0  0  0  0  0  0  0  0  0  0  0
  150.3039  133.9103  154.8927 H   0  0  0  0  0  0  0  0  0  0  0  0
  148.6947  134.9814  157.2837 H   0  0  0  0  0  0  0  0  0  0  0  0
  148.1520  133.5353  156.4535 H   0  0  0  0  0  0  0  0  0  0  0  0
  147.0576  134.8968  156.6956 H   0  0  0  0  0  0  0  0  0  0  0  0
  149.1583  132.7859  153.9197 H   0  0  0  0  0  0  0  0  0  0  0  0
  147.6387  132.5313  154.7575 H   0  0  0  0  0  0  0  0  0  0  0  0
  148.0151  132.8404  151.7295 H   0  0  0  0  0  0  0  0  0  0  0  0
  147.6385  131.3603  152.5898 H   0  0  0  0  0  0  0  0  0  0  0  0
  146.3379  134.5761  151.6328 H   0  0  0  0  0  0  0  0  0  0  0  0
  144.8014  134.3022  152.4301 H   0  0  0  0  0  0  0  0  0  0  0  0
  145.8516  134.3996  154.6579 H   0  0  0  0  0  0  0  0  0  0  0  0
  146.2137  135.8483  153.7395 H   0  0  0  0  0  0  0  0  0  0  0  0
  149.0425  141.7730  155.9755 H   0  0  0  0  0  0  0  0  0  0  0  0
  149.7215  143.8033  156.7550 H   0  0  0  0  0  0  0  0  0  0  0  0
  148.2984  134.8689  153.1347 H   0  0  0  0  0  0  0  0  0  0  0  0
  1  2  1  0  0  0  0
  1 24  1  0  0  0  0
  1 25  1  0  0  0  0
  1 26  1  0  0  0  0
  2  3  1  0  0  0  0
  2  4  1  0  0  0  0
  3 27  1  0  0  0  0
  3 28  1  0  0  0  0
  3 29  1  0  0  0  0
  4 23  1  0  0  0  0
  4  5  2  0  0  0  0
  5  6  1  0  0  0  0
  5 30  1  0  0  0  0
  6  7  2  0  0  0  0
  6 31  1  0  0  0  0
  7  8  1  0  0  0  0
  7 22  1  0  0  0  0
  8  9  1  0  0  0  0
  8 32  1  0  0  0  0
  9 10  2  0  0  0  0
  9 11  1  0  0  0  0
 11 12  1  0  0  0  0
 11 33  1  0  0  0  0
 12 13  1  0  0  0  0
 12 34  1  0  0  0  0
 12 35  1  0  0  0  0
 13 14  1  0  0  0  0
 13 15  1  0  0  0  0
 13 16  1  0  0  0  0
 14 36  1  0  0  0  0
 14 37  1  0  0  0  0
 14 38  1  0  0  0  0
 15 39  1  0  0  0  0
 15 40  1  0  0  0  0
 15 41  1  0  0  0  0
 16 21  1  0  0  0  0
 16 17  1  0  0  0  0
 16 52  1  0  0  0  0
 17 18  1  0  0  0  0
 17 42  1  0  0  0  0
 17 43  1  0  0  0  0
 18 19  1  0  0  0  0
 18 44  1  0  0  0  0
 18 45  1  0  0  0  0
 19 20  1  0  0  0  0
 20 21  1  0  0  0  0
 20 46  1  0  0  0  0
 20 47  1  0  0  0  0
 21 48  1  0  0  0  0
 21 49  1  0  0  0  0
 22 23  2  0  0  0  0
 22 50  1  0  0  0  0
 23 51  1  0  0  0  0
M  CHG  1  16   1
M  CHG  1  23   1
M  END
> <s_m_source_file>
AV-unprocessed.smi

> <i_m_source_file_index>
1115

> <i_lp_mmshare_version>
43012

> <i_f3d_flags>
0

> <s_epik_input>
W0NIM11OKFtDSDNdKWMxW2NIXVtjSF1jKFtjSF1uMSlbTkhdQyg9TylbTkhdW0NIMl1DKFtDSDNdKShbQ0gzXSlOMltDSDJdW0NIMl1PW0NIMl1bQ0gyXTI=

> <s_epik_cmdline>
J2VwaWtfcHl0aG9uJywgJy1waCcsICc3LjAnLCAnLXRuJywgJzgnLCAnLW1hJywgJzIwMCcsICctbWV0YWxfYmluZGluZycsICctaW1hZScsICc8aW5maWxlLm1hZT4nLCAnLW9tYWUnLCAnPG91dGZpbGUubWFlPic=

> <r_lp_tautomer_probability>
0.999994

> <r_epik_Ionization_Penalty>
0.90424

> <r_epik_Ionization_Penalty_Charging>
0.90422

> <r_epik_Ionization_Penalty_Neutral>
2.023e-05

> <r_epik_State_Penalty>
0.905868

> <r_epik_Charging_Adjusted_Penalty>
1.81009

> <i_epik_Tot_Q>
2

> <i_epik_Tot_abs_Q>
2

> <r_epik_Metal_State_Penalty>
1.19318

> <b_epik_Metal_Only>
0

> <s_lp_Force_Field>
OPLS_2005

> <r_lp_Energy>
35.8961

> <b_lp_Chiralities_Consistent>
1

> <s_lp_Variant>
AV-unprocessed.smi:1115-3

> <Gold.Version>
5.8.1

> <Gold.Id.Protein>
6NUR|6NUR_protein|mol2

> <Gold.PLP.Fitness>
43.5605

> <Gold.PLP.PLP>
-33.7250

> <Gold.PLP.part.hbond>
-2.0000

> <Gold.PLP.part.metal>
0.0000

> <Gold.PLP.part.buried>
-4.7874

> <Gold.PLP.part.nonpolar>
-27.6401

> <Gold.PLP.part.repulsive>
0.1938

> <Gold.PLP.ligand.clash>
0.0000

> <Gold.PLP.ligand.torsion>
1.1335

> <Gold.PLP.Chemscore.Hbond>
4.0000

> <Gold.PLP.Chemscore.CHOScore>
0.0000

> <Gold.PLP.Chemscore.Metal>
0.0000

> <Gold.Chemscore.Hbonds>
donor molecule, donor type, donor heavy atom, donor atom, acceptor molecule, acceptor atom, score
      L1  H    16    52       P1  7948  2.00
      L1  H    23    51       P1  8028  2.00

> <Gold.PLP.Chemscore.Internal.Correction>
0.1025

> <Gold.Rescore>
     Score         DG    S(hbond)    S(metal)    S(lipo)     H(rot)  DE(clash)    DE(int)     intcor
     14.70     -17.58       1.93        0.00      80.77       1.49       0.09       2.79       ----

> <Gold.Chemscore.Fitness>
14.7031

> <Gold.Chemscore.DG>
-17.5837

> <Gold.Chemscore.ZeroCoef>
-5.4800

> <Gold.Chemscore.Hbond>
1.9349

> <Gold.Chemscore.Metal>
0.0000

> <Gold.Chemscore.Lipo>
80.7687

> <Gold.Chemscore.Internal_Hbond>
0.0000

> <Gold.Chemscore.DEClash>
0.0947

> <Gold.Chemscore.DEInternal>
2.7859

> <Gold.Chemscore.Rot>
1.4878

> <Gold.Chemscore.Internal.Correction>
   9.000000E+99

> <Gold.Chemscore.Hbonds>
donor molecule, donor type, donor heavy atom, donor atom, acceptor molecule, acceptor atom, score
      L1  H    16    52       P1  7948  0.77
      L1  H    23    51       P1  8028  0.98

> <Gold.Chemscore.Hbond.Weighted>
-6.4627

> <Gold.Chemscore.Metal.Weighted>
-0.0000

> <Gold.Chemscore.Lipo.Weighted>
-9.4499

> <Gold.Chemscore.Internal_Hbond.Weighted>
0.0000

> <Gold.Chemscore.DEClash.Weighted>
0.0947

> <Gold.Chemscore.DEInternal.Weighted>
2.7859

> <Gold.Chemscore.Rot.Weighted>
3.8089

> <Gold.Chemscore.Internal.Correction.Weighted>
   9.000000E+99

> <Gold.Protein.RotatedTorsions>
[ 6907 6896 6895 6894 ] final   85.23 input  -60.11 | X-H torsion
[ 7974 7965 7964 7962 ] final   43.83 input  175.53 | X-H torsion
[ 8008 7997 7996 7995 ] final  -96.64 input   59.86 | X-H torsion
[ 10167 10162 10161 10158 ] final   66.47 input  -65.29 | X-H torsion
[ 10718 10713 10712 10709 ] final  160.01 input   66.30 | X-H torsion
[ 10763 10752 10751 10750 ] final  139.20 input  -60.55 | X-H torsion
[ 11005 11000 10999 10996 ] final   -4.31 input  -57.11 | X-H torsion

> <Gold.Protein.ActiveResidues>
 VAL166  LYS551  ARG553  GLY616  TRP617  ASP618  TYR619  PRO620  LYS621  CYS622 
 ASP623  PHE694  ASN695  SER759  ASP760  ASP761  ALA762  ILE779  LEU786  VAL792 
 PHE793  MET794  SER795  GLU796  ALA797  LYS798  CYS799  TRP800  GLU811  SER814 

> <Gold.Protein.RotatedAtoms>
  152.5370  134.2617  159.8937 H   0  0  0  0  0  0  0  0  0  0  0  0  # atno 6907 bound_to 6896
  151.2577  133.4311  159.2622 H   0  0  0  0  0  0  0  0  0  0  0  0  # atno 6908 bound_to 6896
  151.0481  134.9668  159.8253 H   0  0  0  0  0  0  0  0  0  0  0  0  # atno 6909 bound_to 6896
  146.0622  139.5143  142.9651 H   0  0  0  0  0  0  0  0  0  0  0  0  # atno 7974 bound_to 7965
  154.7772  140.0469  157.1098 H   0  0  0  0  0  0  0  0  0  0  0  0  # atno 8008 bound_to 7997
  154.9749  140.3094  155.4952 H   0  0  0  0  0  0  0  0  0  0  0  0  # atno 8009 bound_to 7997
  156.2931  140.2246  156.4844 H   0  0  0  0  0  0  0  0  0  0  0  0  # atno 8010 bound_to 7997
  140.1000  144.4912  150.7043 H   0  0  0  0  0  0  0  0  0  0  0  0  # atno 10167 bound_to 10162
  157.1564  131.0576  151.2254 H   0  0  0  0  0  0  0  0  0  0  0  0  # atno 10718 bound_to 10713
  153.9021  135.3021  155.3448 H   0  0  0  0  0  0  0  0  0  0  0  0  # atno 10763 bound_to 10752
  154.7665  135.4908  153.9567 H   0  0  0  0  0  0  0  0  0  0  0  0  # atno 10764 bound_to 10752
  153.1239  135.6788  153.9390 H   0  0  0  0  0  0  0  0  0  0  0  0  # atno 10765 bound_to 10752
  140.6789  133.9171  155.8542 H   0  0  0  0  0  0  0  0  0  0  0  0  # atno 11005 bound_to 11000
  145.6541  141.0256  143.1744 LP  0  0  0  0  0  0  0  0  0  0  0  0  # atno 17320 bound_to 7965
  144.7181  139.8125  143.7391 LP  0  0  0  0  0  0  0  0  0  0  0  0  # atno 17321 bound_to 7965
  140.6983  143.2418  151.4939 LP  0  0  0  0  0  0  0  0  0  0  0  0  # atno 17342 bound_to 10162
  139.5676  144.2004  152.1789 LP  0  0  0  0  0  0  0  0  0  0  0  0  # atno 17343 bound_to 10162
  157.4173  130.7418  149.6886 LP  0  0  0  0  0  0  0  0  0  0  0  0  # atno 17370 bound_to 10713
  155.9761  130.4079  150.3800 LP  0  0  0  0  0  0  0  0  0  0  0  0  # atno 17371 bound_to 10713
  141.0333  134.0725  157.3988 LP  0  0  0  0  0  0  0  0  0  0  0  0  # atno 17394 bound_to 11000
  139.8958  135.0143  156.7020 LP  0  0  0  0  0  0  0  0  0  0  0  0  # atno 17395 bound_to 11000

$$$$
