AV-unprocessed.smi:1005|AV-procd|sdf|4383|dock1
  -GOLD-   22720 2303D 1   1.00000     0.00000
 Structure written by MMmdl.
 58 60  0  0  0  0  0  0  0  0  4 V2000
  152.3560  143.1606  160.4489 C   0  0  0  0  0  0  0  0  0  0  0  0
  152.1113  142.3095  159.2144 C   0  0  0  0  0  0  0  0  0  0  0  0
  151.2061  142.7820  158.2377 C   0  0  0  0  0  0  0  0  0  0  0  0
  151.0047  141.9820  157.1194 C   0  0  0  0  0  0  0  0  0  0  0  0
  150.1925  142.1669  155.9991 N   0  3  0  0  0  0  0  0  0  0  0  0
  150.3298  141.1053  155.1577 C   0  0  0  0  0  0  0  0  0  0  0  0
  151.2189  140.2436  155.7230 N   0  0  0  0  0  0  0  0  0  0  0  0
  151.7183  138.9523  155.2265 C   0  0  0  0  0  0  0  0  0  0  0  0
  150.6320  138.1250  154.5096 C   0  0  1  0  0  0  0  0  0  0  0  0
  151.1975  136.9282  154.0106 O   0  0  0  0  0  0  0  0  0  0  0  0
  149.4643  137.7656  155.4511 C   0  0  0  0  0  0  0  0  0  0  0  0
  148.3510  137.0826  154.7372 N   0  3  1  0  0  0  0  0  0  0  0  0
  147.8173  135.8981  155.4524 C   0  0  0  0  0  0  0  0  0  0  0  0
  146.8647  136.3159  156.5850 C   0  0  0  0  0  0  0  0  0  0  0  0
  145.8119  137.1043  156.0437 O   0  0  0  0  0  0  0  0  0  0  0  0
  146.2802  138.3160  155.4596 C   0  0  2  0  0  0  0  0  0  0  0  0
  145.0559  139.1051  154.9562 C   0  0  0  0  0  0  0  0  0  0  0  0
  145.2820  140.5735  154.9180 N   0  3  0  0  0  0  0  0  0  0  0  0
  146.5915  140.9164  154.3199 C   0  0  0  0  0  0  0  0  0  0  0  0
  145.0959  141.2374  156.2292 C   0  0  0  0  0  0  0  0  0  0  0  0
  147.2445  137.9733  154.3001 C   0  0  0  0  0  0  0  0  0  0  0  0
  151.6648  140.7487  156.9516 C   0  0  0  0  0  0  0  0  0  0  0  0
  152.5582  140.2680  157.9068 C   0  0  0  0  0  0  0  0  0  0  0  0
  152.7791  141.0685  159.0504 C   0  0  0  0  0  0  0  0  0  0  0  0
  153.7519  140.5711  160.1060 C   0  0  0  0  0  0  0  0  0  0  0  0
  151.7754  144.0833  160.4194 H   0  0  0  0  0  0  0  0  0  0  0  0
  153.4089  143.4329  160.5253 H   0  0  0  0  0  0  0  0  0  0  0  0
  152.0720  142.6173  161.3506 H   0  0  0  0  0  0  0  0  0  0  0  0
  150.6941  143.7260  158.3554 H   0  0  0  0  0  0  0  0  0  0  0  0
  149.8242  140.9734  154.2120 H   0  0  0  0  0  0  0  0  0  0  0  0
  152.5818  139.1224  154.5831 H   0  0  0  0  0  0  0  0  0  0  0  0
  152.0893  138.4022  156.0922 H   0  0  0  0  0  0  0  0  0  0  0  0
  150.2670  138.7019  153.6604 H   0  0  0  0  0  0  0  0  0  0  0  0
  150.9297  136.8159  153.1111 H   0  0  0  0  0  0  0  0  0  0  0  0
  149.8491  137.1157  156.2388 H   0  0  0  0  0  0  0  0  0  0  0  0
  149.0936  138.6583  155.9548 H   0  0  0  0  0  0  0  0  0  0  0  0
  147.2735  135.2816  154.7353 H   0  0  0  0  0  0  0  0  0  0  0  0
  148.6280  135.2762  155.8338 H   0  0  0  0  0  0  0  0  0  0  0  0
  146.4348  135.4319  157.0566 H   0  0  0  0  0  0  0  0  0  0  0  0
  147.3918  136.8670  157.3653 H   0  0  0  0  0  0  0  0  0  0  0  0
  146.8114  138.9005  156.2101 H   0  0  0  0  0  0  0  0  0  0  0  0
  144.7583  138.7595  153.9651 H   0  0  0  0  0  0  0  0  0  0  0  0
  144.2165  138.8906  155.6196 H   0  0  0  0  0  0  0  0  0  0  0  0
  147.4116  140.5338  154.9288 H   0  0  0  0  0  0  0  0  0  0  0  0
  146.7061  141.9974  154.2328 H   0  0  0  0  0  0  0  0  0  0  0  0
  146.6835  140.4963  153.3179 H   0  0  0  0  0  0  0  0  0  0  0  0
  145.7907  140.8422  156.9711 H   0  0  0  0  0  0  0  0  0  0  0  0
  144.0820  141.1079  156.6049 H   0  0  0  0  0  0  0  0  0  0  0  0
  145.2695  142.3105  156.1424 H   0  0  0  0  0  0  0  0  0  0  0  0
  147.6322  138.8829  153.8428 H   0  0  0  0  0  0  0  0  0  0  0  0
  146.6937  137.4529  153.5152 H   0  0  0  0  0  0  0  0  0  0  0  0
  153.0697  139.3253  157.7854 H   0  0  0  0  0  0  0  0  0  0  0  0
  154.1834  139.6087  159.8299 H   0  0  0  0  0  0  0  0  0  0  0  0
  153.2466  140.4469  161.0640 H   0  0  0  0  0  0  0  0  0  0  0  0
  154.5718  141.2779  160.2353 H   0  0  0  0  0  0  0  0  0  0  0  0
  144.5858  140.9563  154.2939 H   0  0  0  0  0  0  0  0  0  0  0  0
  148.7766  136.7206  153.8950 H   0  0  0  0  0  0  0  0  0  0  0  0
  149.5883  142.9591  155.8199 H   0  0  0  0  0  0  0  0  0  0  0  0
  1  2  1  0  0  0  0
  1 26  1  0  0  0  0
  1 27  1  0  0  0  0
  1 28  1  0  0  0  0
  2 24  1  0  0  0  0
  2  3  2  0  0  0  0
  3  4  1  0  0  0  0
  3 29  1  0  0  0  0
  4 22  2  0  0  0  0
  4  5  1  0  0  0  0
  5  6  2  0  0  0  0
  5 58  1  0  0  0  0
  6  7  1  0  0  0  0
  6 30  1  0  0  0  0
  7  8  1  0  0  0  0
  7 22  1  0  0  0  0
  8  9  1  0  0  0  0
  8 31  1  0  0  0  0
  8 32  1  0  0  0  0
  9 10  1  0  0  0  0
  9 11  1  0  0  0  0
  9 33  1  0  0  0  0
 10 34  1  0  0  0  0
 11 12  1  0  0  0  0
 11 35  1  0  0  0  0
 11 36  1  0  0  0  0
 12 21  1  0  0  0  0
 12 13  1  0  0  0  0
 12 57  1  0  0  0  0
 13 14  1  0  0  0  0
 13 37  1  0  0  0  0
 13 38  1  0  0  0  0
 14 15  1  0  0  0  0
 14 39  1  0  0  0  0
 14 40  1  0  0  0  0
 15 16  1  0  0  0  0
 16 17  1  0  0  0  0
 16 21  1  0  0  0  0
 16 41  1  0  0  0  0
 17 18  1  0  0  0  0
 17 42  1  0  0  0  0
 17 43  1  0  0  0  0
 18 19  1  0  0  0  0
 18 20  1  0  0  0  0
 18 56  1  0  0  0  0
 19 44  1  0  0  0  0
 19 45  1  0  0  0  0
 19 46  1  0  0  0  0
 20 47  1  0  0  0  0
 20 48  1  0  0  0  0
 20 49  1  0  0  0  0
 21 50  1  0  0  0  0
 21 51  1  0  0  0  0
 22 23  1  0  0  0  0
 23 24  2  0  0  0  0
 23 52  1  0  0  0  0
 24 25  1  0  0  0  0
 25 53  1  0  0  0  0
 25 54  1  0  0  0  0
 25 55  1  0  0  0  0
M  CHG  1   5   1
M  CHG  1  12   1
M  CHG  1  18   1
M  END
> <s_m_source_file>
AV-unprocessed.smi

> <i_m_source_file_index>
1005

> <i_lp_mmshare_version>
43012

> <i_f3d_flags>
0

> <s_epik_input>
W0NIM11jKFtjSF0xKWMoW0NIM10pW2NIXWMoYzEyKW4oW2NIXW4yKVtDSDJdW0NASF0oW09IXSlbQ0gyXU4zW0NIMl1bQ0gyXU9bQ0BIXShbQ0gyXTMpW0NIMl1OKFtDSDNdKVtDSDNd

> <s_epik_cmdline>
J2VwaWtfcHl0aG9uJywgJy1waCcsICc3LjAnLCAnLXRuJywgJzgnLCAnLW1hJywgJzIwMCcsICctbWV0YWxfYmluZGluZycsICctaW1hZScsICc8aW5maWxlLm1hZT4nLCAnLW9tYWUnLCAnPG91dGZpbGUubWFlPic=

> <r_epik_Ionization_Penalty>
2.30802

> <r_epik_Ionization_Penalty_Charging>
2.30798

> <r_epik_Ionization_Penalty_Neutral>
3.4851e-05

> <r_epik_State_Penalty>
2.52618

> <r_epik_Charging_Adjusted_Penalty>
4.83416

> <i_epik_Tot_Q>
3

> <i_epik_Tot_abs_Q>
3

> <r_epik_Metal_State_Penalty>
6.53149

> <b_epik_Metal_Only>
0

> <s_lp_Force_Field>
OPLS_2005

> <r_lp_Energy>
46.6994

> <b_lp_Chiralities_Consistent>
1

> <s_lp_Variant>
AV-unprocessed.smi:1005-22

> <Gold.Version>
5.8.1

> <Gold.Id.Protein>
6NUR|6NUR_protein|mol2

> <Gold.PLP.Fitness>
59.1289

> <Gold.PLP.PLP>
-37.7323

> <Gold.PLP.part.hbond>
-5.2174

> <Gold.PLP.part.metal>
0.0000

> <Gold.PLP.part.buried>
-2.5993

> <Gold.PLP.part.nonpolar>
-30.1369

> <Gold.PLP.part.repulsive>
0.1126

> <Gold.PLP.ligand.clash>
0.0000

> <Gold.PLP.ligand.torsion>
1.3793

> <Gold.PLP.Chemscore.Hbond>
7.9753

> <Gold.PLP.Chemscore.CHOScore>
0.0000

> <Gold.PLP.Chemscore.Metal>
0.0000

> <Gold.Chemscore.Hbonds>
donor molecule, donor type, donor heavy atom, donor atom, acceptor molecule, acceptor atom, score
      L1  H     5    58       P1  8028  2.00
      L1  H    10    34       P1  7949  0.88
      L1  H    12    57       P1  7948  1.72
      L1  H    18    56       P1 10175  1.46
      P1  H 10752 10765       L1    10  0.67

> <Gold.PLP.Chemscore.Internal.Correction>
0.2294

> <Gold.Rescore>
     Score         DG    S(hbond)    S(metal)    S(lipo)     H(rot)  DE(clash)    DE(int)     intcor
     19.83     -23.91       4.05        0.00      97.88       2.56       1.86       2.22       ----

> <Gold.Chemscore.Fitness>
19.8252

> <Gold.Chemscore.DG>
-23.9079

> <Gold.Chemscore.ZeroCoef>
-5.4800

> <Gold.Chemscore.Hbond>
4.0482

> <Gold.Chemscore.Metal>
0.0000

> <Gold.Chemscore.Lipo>
97.8793

> <Gold.Chemscore.Internal_Hbond>
0.0000

> <Gold.Chemscore.DEClash>
1.8620

> <Gold.Chemscore.DEInternal>
2.2207

> <Gold.Chemscore.Rot>
2.5566

> <Gold.Chemscore.Internal.Correction>
   9.000000E+99

> <Gold.Chemscore.Hbonds>
donor molecule, donor type, donor heavy atom, donor atom, acceptor molecule, acceptor atom, score
      L1  H     5    58       P1  8028  1.00
      L1  H    10    34       P1  7949  0.17
      L1  H    12    57       P1  7948  0.83
      L1  H    18    56       P1 10175  0.64
      P1  H 10752 10765       L1    10  0.33

> <Gold.Chemscore.Hbond.Weighted>
-13.5210

> <Gold.Chemscore.Metal.Weighted>
-0.0000

> <Gold.Chemscore.Lipo.Weighted>
-11.4519

> <Gold.Chemscore.Internal_Hbond.Weighted>
0.0000

> <Gold.Chemscore.DEClash.Weighted>
1.8620

> <Gold.Chemscore.DEInternal.Weighted>
2.2207

> <Gold.Chemscore.Rot.Weighted>
6.5450

> <Gold.Chemscore.Internal.Correction.Weighted>
   9.000000E+99

> <Gold.Protein.RotatedTorsions>
[ 6907 6896 6895 6894 ] final   10.52 input  -60.11 | X-H torsion
[ 7974 7965 7964 7962 ] final   70.71 input  175.53 | X-H torsion
[ 8008 7997 7996 7995 ] final -132.25 input   59.86 | X-H torsion
[ 10167 10162 10161 10158 ] final  -86.16 input  -65.29 | X-H torsion
[ 10718 10713 10712 10709 ] final  -36.14 input   66.30 | X-H torsion
[ 10763 10752 10751 10750 ] final  158.11 input  -60.55 | X-H torsion
[ 11005 11000 10999 10996 ] final -174.87 input  -57.11 | X-H torsion

> <Gold.Protein.ActiveResidues>
 VAL166  LYS551  ARG553  GLY616  TRP617  ASP618  TYR619  PRO620  LYS621  CYS622 
 ASP623  PHE694  ASN695  SER759  ASP760  ASP761  ALA762  ILE779  LEU786  VAL792 
 PHE793  MET794  SER795  GLU796  ALA797  LYS798  CYS799  TRP800  GLU811  SER814 

> <Gold.Protein.RotatedAtoms>
  151.7395  135.0857  160.0313 H   0  0  0  0  0  0  0  0  0  0  0  0  # atno 6907 bound_to 6896
  152.3489  133.6151  159.5938 H   0  0  0  0  0  0  0  0  0  0  0  0  # atno 6908 bound_to 6896
  150.7526  133.9522  159.3531 H   0  0  0  0  0  0  0  0  0  0  0  0  # atno 6909 bound_to 6896
  145.7748  139.2860  143.1300 H   0  0  0  0  0  0  0  0  0  0  0  0  # atno 7974 bound_to 7965
  155.3258  140.0464  157.3041 H   0  0  0  0  0  0  0  0  0  0  0  0  # atno 8008 bound_to 7997
  154.5355  140.2271  155.8696 H   0  0  0  0  0  0  0  0  0  0  0  0  # atno 8009 bound_to 7997
  156.1830  140.3069  155.9192 H   0  0  0  0  0  0  0  0  0  0  0  0  # atno 8010 bound_to 7997
  140.3968  143.2680  151.9194 H   0  0  0  0  0  0  0  0  0  0  0  0  # atno 10167 bound_to 10162
  156.3303  130.4278  149.7878 H   0  0  0  0  0  0  0  0  0  0  0  0  # atno 10718 bound_to 10713
  154.2109  135.2786  155.2958 H   0  0  0  0  0  0  0  0  0  0  0  0  # atno 10763 bound_to 10752
  154.5779  135.5598  153.7160 H   0  0  0  0  0  0  0  0  0  0  0  0  # atno 10764 bound_to 10752
  153.0064  135.6337  154.2248 H   0  0  0  0  0  0  0  0  0  0  0  0  # atno 10765 bound_to 10752
  140.4697  134.6177  157.4877 H   0  0  0  0  0  0  0  0  0  0  0  0  # atno 11005 bound_to 11000
  146.0134  140.8415  142.9959 LP  0  0  0  0  0  0  0  0  0  0  0  0  # atno 17320 bound_to 7965
  144.6806  140.2522  143.7330 LP  0  0  0  0  0  0  0  0  0  0  0  0  # atno 17321 bound_to 7965
  139.4786  144.5673  151.8144 LP  0  0  0  0  0  0  0  0  0  0  0  0  # atno 17342 bound_to 10162
  140.4782  144.1489  150.5928 LP  0  0  0  0  0  0  0  0  0  0  0  0  # atno 17343 bound_to 10162
  156.5153  130.8190  151.3184 LP  0  0  0  0  0  0  0  0  0  0  0  0  # atno 17370 bound_to 10713
  157.7429  130.9900  150.2552 LP  0  0  0  0  0  0  0  0  0  0  0  0  # atno 17371 bound_to 10713
  139.9893  134.7011  155.9718 LP  0  0  0  0  0  0  0  0  0  0  0  0  # atno 17394 bound_to 11000
  141.1583  133.6541  156.4233 LP  0  0  0  0  0  0  0  0  0  0  0  0  # atno 17395 bound_to 11000

$$$$
