AV-unprocessed.smi:1041|AV-procd|sdf|4529|dock2
  -GOLD-   22720 2553D 1   1.00000     0.00000
 Structure written by MMmdl.
 53 54  0  0  0  0  0  0  0  0  2 V2000
  152.9234  142.7929  159.0470 C   0  0  0  0  0  0  0  0  0  0  0  0
  151.5571  143.0441  158.7679 O   0  0  0  0  0  0  0  0  0  0  0  0
  151.1204  142.4139  157.5752 C   0  0  0  0  0  0  0  0  0  0  0  0
  149.6271  142.0782  157.7115 C   0  0  0  0  0  0  0  0  0  0  0  0
  148.9520  141.9550  156.3947 N   0  3  2  0  0  0  0  0  0  0  0  0
  147.4904  141.7255  156.5307 C   0  0  0  0  0  0  0  0  0  0  0  0
  146.7908  141.7290  155.1581 C   0  0  0  0  0  0  0  0  0  0  0  0
  147.4111  140.7103  154.1835 C   0  0  2  0  0  0  0  0  0  0  0  0
  147.0212  139.2559  154.5383 C   0  0  0  0  0  0  0  0  0  0  0  0
  145.8317  138.8210  153.8145 N   0  0  0  0  0  0  0  0  0  0  0  0
  145.3537  137.5672  153.7813 C   0  0  0  0  0  0  0  0  0  0  0  0
  145.8361  136.6359  154.4248 O   0  0  0  0  0  0  0  0  0  0  0  0
  144.1704  137.3231  152.8463 C   0  0  0  0  0  0  0  0  0  0  0  0
  144.2686  136.0442  152.0170 C   0  0  0  0  0  0  0  0  0  0  0  0
  143.4424  134.9716  152.1950 C   0  0  0  0  0  0  0  0  0  0  0  0
  142.3315  134.9460  153.2306 C   0  0  0  0  0  0  0  0  0  0  0  0
  143.5685  133.8111  151.4189 N   0  0  0  0  0  0  0  0  0  0  0  0
  144.4927  133.7625  150.5172 C   0  0  0  0  0  0  0  0  0  0  0  0
  144.7298  132.5708  149.6137 C   0  0  0  0  0  0  0  0  0  0  0  0
  145.3731  134.8187  150.2901 N   0  0  0  0  0  0  0  0  0  0  0  0
  145.3274  135.9734  150.9913 C   0  0  0  0  0  0  0  0  0  0  0  0
  146.1377  136.8710  150.7652 O   0  0  0  0  0  0  0  0  0  0  0  0
  148.9313  140.9659  154.1080 C   0  0  0  0  0  0  0  0  0  0  0  0
  149.5861  140.9516  155.4992 C   0  0  0  0  0  0  0  0  0  0  0  0
  146.0792  134.7226  149.5750 H   0  0  0  0  0  0  0  0  0  0  0  0
  153.2061  143.2928  159.9734 H   0  0  0  0  0  0  0  0  0  0  0  0
  153.5644  143.1737  158.2506 H   0  0  0  0  0  0  0  0  0  0  0  0
  153.1121  141.7256  159.1692 H   0  0  0  0  0  0  0  0  0  0  0  0
  151.3126  143.0480  156.7094 H   0  0  0  0  0  0  0  0  0  0  0  0
  151.6851  141.4925  157.4255 H   0  0  0  0  0  0  0  0  0  0  0  0
  149.4918  141.1574  158.2805 H   0  0  0  0  0  0  0  0  0  0  0  0
  149.1572  142.8711  158.2952 H   0  0  0  0  0  0  0  0  0  0  0  0
  147.3137  140.7843  157.0526 H   0  0  0  0  0  0  0  0  0  0  0  0
  147.0547  142.5109  157.1494 H   0  0  0  0  0  0  0  0  0  0  0  0
  145.7248  141.5352  155.2811 H   0  0  0  0  0  0  0  0  0  0  0  0
  146.8668  142.7280  154.7264 H   0  0  0  0  0  0  0  0  0  0  0  0
  146.9982  140.9105  153.1936 H   0  0  0  0  0  0  0  0  0  0  0  0
  147.8528  138.5720  154.3664 H   0  0  0  0  0  0  0  0  0  0  0  0
  146.7980  139.1890  155.6035 H   0  0  0  0  0  0  0  0  0  0  0  0
  145.3638  139.5168  153.2509 H   0  0  0  0  0  0  0  0  0  0  0  0
  143.2616  137.3015  153.4474 H   0  0  0  0  0  0  0  0  0  0  0  0
  144.0427  138.1861  152.1908 H   0  0  0  0  0  0  0  0  0  0  0  0
  141.5937  135.7208  153.0211 H   0  0  0  0  0  0  0  0  0  0  0  0
  142.7323  135.1072  154.2308 H   0  0  0  0  0  0  0  0  0  0  0  0
  141.8134  133.9862  153.2317 H   0  0  0  0  0  0  0  0  0  0  0  0
  144.9608  131.6877  150.2101 H   0  0  0  0  0  0  0  0  0  0  0  0
  145.5581  132.7445  148.9253 H   0  0  0  0  0  0  0  0  0  0  0  0
  143.8357  132.3632  149.0254 H   0  0  0  0  0  0  0  0  0  0  0  0
  149.4219  140.2460  153.4530 H   0  0  0  0  0  0  0  0  0  0  0  0
  149.1048  141.9403  153.6495 H   0  0  0  0  0  0  0  0  0  0  0  0
  150.6482  141.1634  155.3847 H   0  0  0  0  0  0  0  0  0  0  0  0
  149.5132  139.9596  155.9465 H   0  0  0  0  0  0  0  0  0  0  0  0
  149.0500  142.8538  155.9440 H   0  0  0  0  0  0  0  0  0  0  0  0
  1  2  1  0  0  0  0
  1 26  1  0  0  0  0
  1 27  1  0  0  0  0
  1 28  1  0  0  0  0
  2  3  1  0  0  0  0
  3  4  1  0  0  0  0
  3 29  1  0  0  0  0
  3 30  1  0  0  0  0
  4  5  1  0  0  0  0
  4 31  1  0  0  0  0
  4 32  1  0  0  0  0
  5 24  1  0  0  0  0
  5  6  1  0  0  0  0
  5 53  1  0  0  0  0
  6  7  1  0  0  0  0
  6 33  1  0  0  0  0
  6 34  1  0  0  0  0
  7  8  1  0  0  0  0
  7 35  1  0  0  0  0
  7 36  1  0  0  0  0
  8  9  1  0  0  0  0
  8 23  1  0  0  0  0
  8 37  1  0  0  0  0
  9 10  1  0  0  0  0
  9 38  1  0  0  0  0
  9 39  1  0  0  0  0
 10 11  1  0  0  0  0
 10 40  1  0  0  0  0
 11 12  2  0  0  0  0
 11 13  1  0  0  0  0
 13 14  1  0  0  0  0
 13 41  1  0  0  0  0
 13 42  1  0  0  0  0
 14 21  1  0  0  0  0
 14 15  2  0  0  0  0
 15 16  1  0  0  0  0
 15 17  1  0  0  0  0
 16 43  1  0  0  0  0
 16 44  1  0  0  0  0
 16 45  1  0  0  0  0
 17 18  2  0  0  0  0
 18 19  1  0  0  0  0
 18 20  1  0  0  0  0
 19 46  1  0  0  0  0
 19 47  1  0  0  0  0
 19 48  1  0  0  0  0
 20 25  1  0  0  0  0
 20 21  1  0  0  0  0
 21 22  2  0  0  0  0
 23 24  1  0  0  0  0
 23 49  1  0  0  0  0
 23 50  1  0  0  0  0
 24 51  1  0  0  0  0
 24 52  1  0  0  0  0
M  CHG  1   5   1
M  END
> <s_m_source_file>
AV-unprocessed.smi

> <i_m_source_file_index>
1041

> <i_lp_mmshare_version>
43012

> <i_f3d_flags>
0

> <s_epik_input>
W0NIM11PW0NIMl1bQ0gyXU4xW0NIMl1bQ0gyXVtDSF0oW0NIMl1bQ0gyXTEpW0NIMl1bTkhdQyg9TylbQ0gyXWMyYyhbQ0gzXSluYyhbQ0gzXSlbbkhdYzI9Tw==

> <s_epik_cmdline>
J2VwaWtfcHl0aG9uJywgJy1waCcsICc3LjAnLCAnLXRuJywgJzgnLCAnLW1hJywgJzIwMCcsICctbWV0YWxfYmluZGluZycsICctaW1hZScsICc8aW5maWxlLm1hZT4nLCAnLW9tYWUnLCAnPG91dGZpbGUubWFlPic=

> <r_lp_tautomer_probability>
0.839158

> <r_epik_Ionization_Penalty>
0.00964357

> <r_epik_Ionization_Penalty_Charging>
0.00961423

> <r_epik_Ionization_Penalty_Neutral>
2.93415e-05

> <r_epik_State_Penalty>
0.0972512

> <r_epik_Charging_Adjusted_Penalty>
0.106865

> <i_epik_Tot_Q>
1

> <i_epik_Tot_abs_Q>
1

> <r_epik_Metal_State_Penalty>
0.270886

> <b_epik_Metal_Only>
0

> <s_lp_Force_Field>
OPLS_2005

> <r_lp_Energy>
21.6557

> <b_lp_Chiralities_Consistent>
1

> <s_lp_Variant>
AV-unprocessed.smi:1041-2

> <Gold.Version>
5.8.1

> <Gold.Id.Protein>
6NUR|6NUR_protein|mol2

> <Gold.PLP.Fitness>
48.2330

> <Gold.PLP.PLP>
-38.8514

> <Gold.PLP.part.hbond>
-3.2210

> <Gold.PLP.part.metal>
0.0000

> <Gold.PLP.part.buried>
-4.7164

> <Gold.PLP.part.nonpolar>
-31.9923

> <Gold.PLP.part.repulsive>
2.2306

> <Gold.PLP.ligand.clash>
0.0000

> <Gold.PLP.ligand.torsion>
1.1175

> <Gold.PLP.Chemscore.Hbond>
3.8254

> <Gold.PLP.Chemscore.CHOScore>
0.0000

> <Gold.PLP.Chemscore.Metal>
0.0000

> <Gold.Chemscore.Hbonds>
donor molecule, donor type, donor heavy atom, donor atom, acceptor molecule, acceptor atom, score
      L1  H     5    53       P1  8028  2.00
      L1  H    10    40       P1 10175  0.86
      L1  H    20    25       P1  7921  0.74
      P1  H  7954  7966       L1    22  0.04

> <Gold.PLP.Chemscore.Internal.Correction>
0.1403

> <Gold.Rescore>
     Score         DG    S(hbond)    S(metal)    S(lipo)     H(rot)  DE(clash)    DE(int)     intcor
     15.33     -18.17       2.79        0.00      81.88       2.43       1.58       1.26       ----

> <Gold.Chemscore.Fitness>
15.3338

> <Gold.Chemscore.DG>
-18.1709

> <Gold.Chemscore.ZeroCoef>
-5.4800

> <Gold.Chemscore.Hbond>
2.7934

> <Gold.Chemscore.Metal>
0.0000

> <Gold.Chemscore.Lipo>
81.8768

> <Gold.Chemscore.Internal_Hbond>
0.0000

> <Gold.Chemscore.DEClash>
1.5809

> <Gold.Chemscore.DEInternal>
1.2562

> <Gold.Chemscore.Rot>
2.4291

> <Gold.Chemscore.Internal.Correction>
   9.000000E+99

> <Gold.Chemscore.Hbonds>
donor molecule, donor type, donor heavy atom, donor atom, acceptor molecule, acceptor atom, score
      L1  H     5    53       P1  8028  0.99
      L1  H    10    40       P1 10175  0.82
      L1  H    20    25       P1  7921  0.41
      P1  H  7954  7966       L1    22  0.09

> <Gold.Chemscore.Hbond.Weighted>
-9.3299

> <Gold.Chemscore.Metal.Weighted>
-0.0000

> <Gold.Chemscore.Lipo.Weighted>
-9.5796

> <Gold.Chemscore.Internal_Hbond.Weighted>
0.0000

> <Gold.Chemscore.DEClash.Weighted>
1.5809

> <Gold.Chemscore.DEInternal.Weighted>
1.2562

> <Gold.Chemscore.Rot.Weighted>
6.2186

> <Gold.Chemscore.Internal.Correction.Weighted>
   9.000000E+99

> <Gold.Protein.RotatedTorsions>
[ 6907 6896 6895 6894 ] final  -52.64 input  -60.11 | X-H torsion
[ 7974 7965 7964 7962 ] final -176.14 input  175.53 | X-H torsion
[ 8008 7997 7996 7995 ] final  128.07 input   59.86 | X-H torsion
[ 10167 10162 10161 10158 ] final  133.22 input  -65.29 | X-H torsion
[ 10718 10713 10712 10709 ] final -169.18 input   66.30 | X-H torsion
[ 10763 10752 10751 10750 ] final   32.61 input  -60.55 | X-H torsion
[ 11005 11000 10999 10996 ] final  119.16 input  -57.11 | X-H torsion

> <Gold.Protein.ActiveResidues>
 VAL166  LYS551  ARG553  GLY616  TRP617  ASP618  TYR619  PRO620  LYS621  CYS622 
 ASP623  PHE694  ASN695  SER759  ASP760  ASP761  ALA762  ILE779  LEU786  VAL792 
 PHE793  MET794  SER795  GLU796  ALA797  LYS798  CYS799  TRP800  GLU811  SER814 

> <Gold.Protein.RotatedAtoms>
  150.8499  134.7820  159.6999 H   0  0  0  0  0  0  0  0  0  0  0  0  # atno 6907 bound_to 6896
  152.4566  134.5274  159.9810 H   0  0  0  0  0  0  0  0  0  0  0  0  # atno 6908 bound_to 6896
  151.5397  133.3397  159.2969 H   0  0  0  0  0  0  0  0  0  0  0  0  # atno 6909 bound_to 6896
  144.7127  140.1215  143.6405 H   0  0  0  0  0  0  0  0  0  0  0  0  # atno 7974 bound_to 7965
  156.2906  140.2653  156.2376 H   0  0  0  0  0  0  0  0  0  0  0  0  # atno 8008 bound_to 7997
  155.0009  140.0388  157.2378 H   0  0  0  0  0  0  0  0  0  0  0  0  # atno 8009 bound_to 7997
  154.7602  140.2759  155.6225 H   0  0  0  0  0  0  0  0  0  0  0  0  # atno 8010 bound_to 7997
  139.5306  144.6626  151.4964 H   0  0  0  0  0  0  0  0  0  0  0  0  # atno 10167 bound_to 10162
  156.7078  130.9222  151.3086 H   0  0  0  0  0  0  0  0  0  0  0  0  # atno 10718 bound_to 10713
  153.0254  135.6409  154.1381 H   0  0  0  0  0  0  0  0  0  0  0  0  # atno 10763 bound_to 10752
  154.1111  135.2853  155.3232 H   0  0  0  0  0  0  0  0  0  0  0  0  # atno 10764 bound_to 10752
  154.6331  135.5486  153.7765 H   0  0  0  0  0  0  0  0  0  0  0  0  # atno 10765 bound_to 10752
  139.9136  134.9626  156.7612 H   0  0  0  0  0  0  0  0  0  0  0  0  # atno 11005 bound_to 11000
  145.9367  139.2642  143.1293 LP  0  0  0  0  0  0  0  0  0  0  0  0  # atno 17320 bound_to 7965
  145.9466  140.8940  143.0280 LP  0  0  0  0  0  0  0  0  0  0  0  0  # atno 17321 bound_to 7965
  140.6482  143.8752  150.6758 LP  0  0  0  0  0  0  0  0  0  0  0  0  # atno 17342 bound_to 10162
  140.2108  143.3885  152.1720 LP  0  0  0  0  0  0  0  0  0  0  0  0  # atno 17343 bound_to 10162
  157.6948  130.9270  150.0613 LP  0  0  0  0  0  0  0  0  0  0  0  0  # atno 17370 bound_to 10713
  156.1682  130.3645  149.9202 LP  0  0  0  0  0  0  0  0  0  0  0  0  # atno 17371 bound_to 10713
  140.6696  133.9572  155.7849 LP  0  0  0  0  0  0  0  0  0  0  0  0  # atno 17394 bound_to 11000
  141.0587  134.0378  157.3688 LP  0  0  0  0  0  0  0  0  0  0  0  0  # atno 17395 bound_to 11000

$$$$
