AV-unprocessed.smi:1909|AV-procd|sdf|7735|dock5
  -GOLD-   22720 9473D 1   1.00000     0.00000
 Structure written by MMmdl.
 40 41  0  0  0  0  0  0  0  0  1 V2000
  146.5257  138.6824  152.7447 C   0  0  0  0  0  0  0  0  0  0  0  0
  147.6560  139.2333  153.5442 C   0  0  0  0  0  0  0  0  0  0  0  0
  148.5560  138.4730  154.1727 N   0  0  0  0  0  0  0  0  0  0  0  0
  149.5142  139.2263  154.8595 C   0  0  0  0  0  0  0  0  0  0  0  0
  150.6003  138.5368  155.6360 C   0  0  0  0  0  0  0  0  0  0  0  0
  151.6425  139.5444  156.1293 C   0  0  0  0  0  0  0  0  0  0  0  0
  152.4555  140.0225  155.3385 O   0  0  0  0  0  0  0  0  0  0  0  0
  151.5992  139.8666  157.4330 N   0  0  0  0  0  0  0  0  0  0  0  0
  152.5091  140.7776  158.1232 C   0  0  0  0  0  0  0  0  0  0  0  0
  153.0124  140.0596  159.3983 C   0  0  0  0  0  0  0  0  0  0  0  0
  154.1715  140.7612  160.1350 C   0  0  0  0  0  0  0  0  0  0  0  0
  153.7773  141.5437  161.4028 C   0  0  0  0  0  0  0  0  0  0  0  0
  152.5047  142.4062  161.3233 C   0  0  0  0  0  0  0  0  0  0  0  0
  152.5450  143.6016  160.3544 C   0  0  0  0  0  0  0  0  0  0  0  0
  152.6799  143.2782  158.8537 C   0  0  0  0  0  0  0  0  0  0  0  0
  151.7870  142.1310  158.3387 C   0  0  0  0  0  0  0  0  0  0  0  0
  149.3301  140.5810  154.7279 C   0  0  0  0  0  0  0  0  0  0  0  0
  147.9383  140.9573  153.7505 S   0  0  0  0  0  0  0  0  0  0  0  0
  146.3903  137.6206  152.9529 H   0  0  0  0  0  0  0  0  0  0  0  0
  146.7266  138.8087  151.6809 H   0  0  0  0  0  0  0  0  0  0  0  0
  145.6026  139.2065  152.9926 H   0  0  0  0  0  0  0  0  0  0  0  0
  150.1804  138.0018  156.4890 H   0  0  0  0  0  0  0  0  0  0  0  0
  151.0999  137.7884  155.0198 H   0  0  0  0  0  0  0  0  0  0  0  0
  150.8915  139.4232  158.0004 H   0  0  0  0  0  0  0  0  0  0  0  0
  153.3757  140.9502  157.4822 H   0  0  0  0  0  0  0  0  0  0  0  0
  152.1889  139.8425  160.0789 H   0  0  0  0  0  0  0  0  0  0  0  0
  153.3828  139.0799  159.0913 H   0  0  0  0  0  0  0  0  0  0  0  0
  154.8877  139.9986  160.4440 H   0  0  0  0  0  0  0  0  0  0  0  0
  154.7369  141.3905  159.4500 H   0  0  0  0  0  0  0  0  0  0  0  0
  153.6313  140.8225  162.2078 H   0  0  0  0  0  0  0  0  0  0  0  0
  154.6188  142.1627  161.7154 H   0  0  0  0  0  0  0  0  0  0  0  0
  151.6347  141.7833  161.1215 H   0  0  0  0  0  0  0  0  0  0  0  0
  152.3238  142.8066  162.3215 H   0  0  0  0  0  0  0  0  0  0  0  0
  151.6214  144.1649  160.4930 H   0  0  0  0  0  0  0  0  0  0  0  0
  153.3470  144.2805  160.6462 H   0  0  0  0  0  0  0  0  0  0  0  0
  152.4142  144.1856  158.3098 H   0  0  0  0  0  0  0  0  0  0  0  0
  153.7206  143.1057  158.5855 H   0  0  0  0  0  0  0  0  0  0  0  0
  151.3960  142.4491  157.3711 H   0  0  0  0  0  0  0  0  0  0  0  0
  150.9043  142.0092  158.9671 H   0  0  0  0  0  0  0  0  0  0  0  0
  149.9243  141.3777  155.1500 H   0  0  0  0  0  0  0  0  0  0  0  0
  1  2  1  0  0  0  0
  1 19  1  0  0  0  0
  1 20  1  0  0  0  0
  1 21  1  0  0  0  0
  2 18  1  0  0  0  0
  2  3  2  0  0  0  0
  3  4  1  0  0  0  0
  4  5  1  0  0  0  0
  4 17  2  0  0  0  0
  5  6  1  0  0  0  0
  5 22  1  0  0  0  0
  5 23  1  0  0  0  0
  6  7  2  0  0  0  0
  6  8  1  0  0  0  0
  8  9  1  0  0  0  0
  8 24  1  0  0  0  0
  9 16  1  0  0  0  0
  9 10  1  0  0  0  0
  9 25  1  0  0  0  0
 10 11  1  0  0  0  0
 10 26  1  0  0  0  0
 10 27  1  0  0  0  0
 11 12  1  0  0  0  0
 11 28  1  0  0  0  0
 11 29  1  0  0  0  0
 12 13  1  0  0  0  0
 12 30  1  0  0  0  0
 12 31  1  0  0  0  0
 13 14  1  0  0  0  0
 13 32  1  0  0  0  0
 13 33  1  0  0  0  0
 14 15  1  0  0  0  0
 14 34  1  0  0  0  0
 14 35  1  0  0  0  0
 15 16  1  0  0  0  0
 15 36  1  0  0  0  0
 15 37  1  0  0  0  0
 16 38  1  0  0  0  0
 16 39  1  0  0  0  0
 17 18  1  0  0  0  0
 17 40  1  0  0  0  0
M  END
> <s_m_source_file>
AV-unprocessed.smi

> <i_m_source_file_index>
1909

> <i_lp_mmshare_version>
43012

> <i_f3d_flags>
0

> <s_epik_input>
W0NIM11jMW5jKFtjSF1zMSlbQ0gyXUMoPU8pW05IXVtDSF0yW0NIMl1bQ0gyXVtDSDJdW0NIMl1bQ0gyXVtDSDJdW0NIMl0y

> <s_epik_cmdline>
J2VwaWtfcHl0aG9uJywgJy1waCcsICc3LjAnLCAnLXRuJywgJzgnLCAnLW1hJywgJzIwMCcsICctbWV0YWxfYmluZGluZycsICctaW1hZScsICc8aW5maWxlLm1hZT4nLCAnLW9tYWUnLCAnPG91dGZpbGUubWFlPic=

> <r_lp_tautomer_probability>
1

> <r_epik_Ionization_Penalty>
6.3061e-05

> <r_epik_Ionization_Penalty_Charging>
0

> <r_epik_Ionization_Penalty_Neutral>
6.3061e-05

> <r_epik_State_Penalty>
-0

> <r_epik_Charging_Adjusted_Penalty>
0

> <i_epik_Tot_Q>
0

> <i_epik_Tot_abs_Q>
0

> <r_epik_Metal_State_Penalty>
-0

> <b_epik_Metal_Only>
0

> <s_lp_Force_Field>
OPLS_2005

> <r_lp_Energy>
17.5912

> <b_lp_Chiralities_Consistent>
1

> <s_lp_Variant>
AV-unprocessed.smi:1909-1

> <Gold.Version>
5.8.1

> <Gold.Id.Protein>
6NUR|6NUR_protein|mol2

> <Gold.PLP.Fitness>
42.0515

> <Gold.PLP.PLP>
-38.5334

> <Gold.PLP.part.hbond>
-2.0000

> <Gold.PLP.part.metal>
0.0000

> <Gold.PLP.part.buried>
-1.4825

> <Gold.PLP.part.nonpolar>
-35.0348

> <Gold.PLP.part.repulsive>
0.2788

> <Gold.PLP.ligand.clash>
0.0000

> <Gold.PLP.ligand.torsion>
0.4186

> <Gold.PLP.Chemscore.Hbond>
1.4434

> <Gold.PLP.Chemscore.CHOScore>
0.0000

> <Gold.PLP.Chemscore.Metal>
0.0000

> <Gold.Chemscore.Hbonds>
donor molecule, donor type, donor heavy atom, donor atom, acceptor molecule, acceptor atom, score
      P1  H  7989  7998       L1     7  0.41
      P1  H  7997  8009       L1     7  0.94

> <Gold.PLP.Chemscore.Internal.Correction>
0.0253

> <Gold.Rescore>
     Score         DG    S(hbond)    S(metal)    S(lipo)     H(rot)  DE(clash)    DE(int)     intcor
     19.88     -20.36       1.26        0.00     118.49       1.25       0.06       0.42       ----

> <Gold.Chemscore.Fitness>
19.8767

> <Gold.Chemscore.DG>
-20.3574

> <Gold.Chemscore.ZeroCoef>
-5.4800

> <Gold.Chemscore.Hbond>
1.2625

> <Gold.Chemscore.Metal>
0.0000

> <Gold.Chemscore.Lipo>
118.4850

> <Gold.Chemscore.Internal_Hbond>
0.0000

> <Gold.Chemscore.DEClash>
0.0557

> <Gold.Chemscore.DEInternal>
0.4250

> <Gold.Chemscore.Rot>
1.2508

> <Gold.Chemscore.Internal.Correction>
   9.000000E+99

> <Gold.Chemscore.Hbonds>
donor molecule, donor type, donor heavy atom, donor atom, acceptor molecule, acceptor atom, score
      P1  H  7989  7998       L1     7  0.40
      P1  H  7997  8009       L1     7  0.83

> <Gold.Chemscore.Hbond.Weighted>
-4.2168

> <Gold.Chemscore.Metal.Weighted>
-0.0000

> <Gold.Chemscore.Lipo.Weighted>
-13.8627

> <Gold.Chemscore.Internal_Hbond.Weighted>
0.0000

> <Gold.Chemscore.DEClash.Weighted>
0.0557

> <Gold.Chemscore.DEInternal.Weighted>
0.4250

> <Gold.Chemscore.Rot.Weighted>
3.2022

> <Gold.Chemscore.Internal.Correction.Weighted>
   9.000000E+99

> <Gold.Protein.RotatedTorsions>
[ 6907 6896 6895 6894 ] final   27.44 input  -60.11 | X-H torsion
[ 7974 7965 7964 7962 ] final  -63.47 input  175.53 | X-H torsion
[ 8008 7997 7996 7995 ] final -144.78 input   59.86 | X-H torsion
[ 10167 10162 10161 10158 ] final -145.94 input  -65.29 | X-H torsion
[ 10718 10713 10712 10709 ] final  129.99 input   66.30 | X-H torsion
[ 10763 10752 10751 10750 ] final  -17.82 input  -60.55 | X-H torsion
[ 11005 11000 10999 10996 ] final   90.64 input  -57.11 | X-H torsion

> <Gold.Protein.ActiveResidues>
 VAL166  LYS551  ARG553  GLY616  TRP617  ASP618  TYR619  PRO620  LYS621  CYS622 
 ASP623  PHE694  ASN695  SER759  ASP760  ASP761  ALA762  ILE779  LEU786  VAL792 
 PHE793  MET794  SER795  GLU796  ALA797  LYS798  CYS799  TRP800  GLU811  SER814 

> <Gold.Protein.RotatedAtoms>
  152.0022  134.9922  160.0565 H   0  0  0  0  0  0  0  0  0  0  0  0  # atno 6907 bound_to 6896
  152.1508  133.4516  159.4821 H   0  0  0  0  0  0  0  0  0  0  0  0  # atno 6908 bound_to 6896
  150.6875  134.2109  159.4402 H   0  0  0  0  0  0  0  0  0  0  0  0  # atno 6909 bound_to 6896
  145.7787  140.8774  143.0342 H   0  0  0  0  0  0  0  0  0  0  0  0  # atno 7974 bound_to 7965
  155.5326  140.0601  157.2886 H   0  0  0  0  0  0  0  0  0  0  0  0  # atno 8008 bound_to 7997
  154.4479  140.1933  156.0554 H   0  0  0  0  0  0  0  0  0  0  0  0  # atno 8009 bound_to 7997
  156.0642  140.3268  155.7501 H   0  0  0  0  0  0  0  0  0  0  0  0  # atno 8010 bound_to 7997
  139.7759  143.8170  152.2632 H   0  0  0  0  0  0  0  0  0  0  0  0  # atno 10167 bound_to 10162
  157.5104  131.1096  150.9301 H   0  0  0  0  0  0  0  0  0  0  0  0  # atno 10718 bound_to 10713
  153.5798  135.7005  153.5468 H   0  0  0  0  0  0  0  0  0  0  0  0  # atno 10763 bound_to 10752
  153.3271  135.4058  155.1464 H   0  0  0  0  0  0  0  0  0  0  0  0  # atno 10764 bound_to 10752
  154.8619  135.3709  154.5325 H   0  0  0  0  0  0  0  0  0  0  0  0  # atno 10765 bound_to 10752
  139.8852  134.8626  156.3314 H   0  0  0  0  0  0  0  0  0  0  0  0  # atno 11005 bound_to 11000
  144.6800  139.9958  143.7484 LP  0  0  0  0  0  0  0  0  0  0  0  0  # atno 17320 bound_to 7965
  146.0096  139.3159  143.0878 LP  0  0  0  0  0  0  0  0  0  0  0  0  # atno 17321 bound_to 7965
  139.8218  144.7292  150.9563 LP  0  0  0  0  0  0  0  0  0  0  0  0  # atno 17342 bound_to 10162
  140.7816  143.4152  151.0929 LP  0  0  0  0  0  0  0  0  0  0  0  0  # atno 17343 bound_to 10162
  156.9944  130.5575  149.5306 LP  0  0  0  0  0  0  0  0  0  0  0  0  # atno 17370 bound_to 10713
  156.0285  130.5378  150.8471 LP  0  0  0  0  0  0  0  0  0  0  0  0  # atno 17371 bound_to 10713
  140.9720  133.7321  156.0548 LP  0  0  0  0  0  0  0  0  0  0  0  0  # atno 17394 bound_to 11000
  140.7858  134.3673  157.5476 LP  0  0  0  0  0  0  0  0  0  0  0  0  # atno 17395 bound_to 11000

$$$$
