AV-unprocessed.smi:3183|AV-procd|sdf|12159|dock2
  -GOLD-   2272017593D 1   1.00000     0.00000
 Structure written by MMmdl.
 43 44  0  0  0  0  0  0  0  0  2 V2000
  151.9721  144.0643  161.2992 C   0  0  0  0  0  0  0  0  0  0  0  0
  152.7995  143.8446  160.0163 C   0  0  2  0  0  0  0  0  0  0  0  0
  152.3828  144.8205  158.8970 C   0  0  0  0  0  0  0  0  0  0  0  0
  151.0197  144.4615  158.2801 C   0  0  0  0  0  0  0  0  0  0  0  0
  150.9992  143.0096  157.7585 C   0  0  2  0  0  0  0  0  0  0  0  0
  149.6682  142.6382  157.2287 N   0  3  0  0  0  0  0  0  0  0  0  0
  149.6287  141.3923  156.4347 C   0  0  0  0  0  0  0  0  0  0  0  0
  149.5447  141.7006  154.9325 C   0  0  0  0  0  0  0  0  0  0  0  0
  148.5893  140.8271  154.1776 C   0  0  0  0  0  0  0  0  0  0  0  0
  147.4430  141.1247  153.4920 C   0  0  0  0  0  0  0  0  0  0  0  0
  146.9960  139.8684  152.9977 C   0  0  0  0  0  0  0  0  0  0  0  0
  147.7943  138.8745  153.3454 N   0  0  0  0  0  0  0  0  0  0  0  0
  148.7718  139.4603  154.0687 N   0  0  0  0  0  0  0  0  0  0  0  0
  149.8365  138.6417  154.6163 C   0  0  0  0  0  0  0  0  0  0  0  0
  151.4055  142.0290  158.8750 C   0  0  0  0  0  0  0  0  0  0  0  0
  152.7756  142.3886  159.4850 C   0  0  2  0  0  0  0  0  0  0  0  0
  153.2264  141.3524  160.5280 C   0  0  0  0  0  0  0  0  0  0  0  0
  150.9234  143.8018  161.1647 H   0  0  0  0  0  0  0  0  0  0  0  0
  152.0104  145.1084  161.6108 H   0  0  0  0  0  0  0  0  0  0  0  0
  152.3577  143.4735  162.1299 H   0  0  0  0  0  0  0  0  0  0  0  0
  153.8326  144.0815  160.2748 H   0  0  0  0  0  0  0  0  0  0  0  0
  152.3624  145.8429  159.2759 H   0  0  0  0  0  0  0  0  0  0  0  0
  153.1401  144.8079  158.1120 H   0  0  0  0  0  0  0  0  0  0  0  0
  150.2308  144.6031  159.0194 H   0  0  0  0  0  0  0  0  0  0  0  0
  150.8082  145.1613  157.4719 H   0  0  0  0  0  0  0  0  0  0  0  0
  151.7251  142.9130  156.9494 H   0  0  0  0  0  0  0  0  0  0  0  0
  149.0520  142.5091  158.0186 H   0  0  0  0  0  0  0  0  0  0  0  0
  150.5200  140.7987  156.6372 H   0  0  0  0  0  0  0  0  0  0  0  0
  148.7654  140.7997  156.7408 H   0  0  0  0  0  0  0  0  0  0  0  0
  149.2530  142.7427  154.7965 H   0  0  0  0  0  0  0  0  0  0  0  0
  150.5376  141.6031  154.4918 H   0  0  0  0  0  0  0  0  0  0  0  0
  146.9871  142.0947  153.3598 H   0  0  0  0  0  0  0  0  0  0  0  0
  146.1222  139.6510  152.4012 H   0  0  0  0  0  0  0  0  0  0  0  0
  150.7980  138.9879  154.2366 H   0  0  0  0  0  0  0  0  0  0  0  0
  149.7032  137.5960  154.3348 H   0  0  0  0  0  0  0  0  0  0  0  0
  149.8341  138.7159  155.7040 H   0  0  0  0  0  0  0  0  0  0  0  0
  150.6432  142.0143  159.6548 H   0  0  0  0  0  0  0  0  0  0  0  0
  151.4434  141.0164  158.4707 H   0  0  0  0  0  0  0  0  0  0  0  0
  153.5054  142.3390  158.6752 H   0  0  0  0  0  0  0  0  0  0  0  0
  152.5090  141.2595  161.3436 H   0  0  0  0  0  0  0  0  0  0  0  0
  154.1915  141.6215  160.9583 H   0  0  0  0  0  0  0  0  0  0  0  0
  153.3335  140.3663  160.0757 H   0  0  0  0  0  0  0  0  0  0  0  0
  149.3149  143.4016  156.6697 H   0  0  0  0  0  0  0  0  0  0  0  0
  1  2  1  0  0  0  0
  1 18  1  0  0  0  0
  1 19  1  0  0  0  0
  1 20  1  0  0  0  0
  2 16  1  0  0  0  0
  2  3  1  0  0  0  0
  2 21  1  0  0  0  0
  3  4  1  0  0  0  0
  3 22  1  0  0  0  0
  3 23  1  0  0  0  0
  4  5  1  0  0  0  0
  4 24  1  0  0  0  0
  4 25  1  0  0  0  0
  5  6  1  0  0  0  0
  5 15  1  0  0  0  0
  5 26  1  0  0  0  0
  6  7  1  0  0  0  0
  6 27  1  0  0  0  0
  6 43  1  0  0  0  0
  7  8  1  0  0  0  0
  7 28  1  0  0  0  0
  7 29  1  0  0  0  0
  8  9  1  0  0  0  0
  8 30  1  0  0  0  0
  8 31  1  0  0  0  0
  9 13  1  0  0  0  0
  9 10  2  0  0  0  0
 10 11  1  0  0  0  0
 10 32  1  0  0  0  0
 11 12  2  0  0  0  0
 11 33  1  0  0  0  0
 12 13  1  0  0  0  0
 13 14  1  0  0  0  0
 14 34  1  0  0  0  0
 14 35  1  0  0  0  0
 14 36  1  0  0  0  0
 15 16  1  0  0  0  0
 15 37  1  0  0  0  0
 15 38  1  0  0  0  0
 16 17  1  0  0  0  0
 16 39  1  0  0  0  0
 17 40  1  0  0  0  0
 17 41  1  0  0  0  0
 17 42  1  0  0  0  0
M  CHG  1   6   1
M  END
> <s_m_source_file>
AV-unprocessed.smi

> <i_m_source_file_index>
3183

> <i_lp_mmshare_version>
43012

> <i_f3d_flags>
0

> <s_epik_input>
W0NIM11bQ0BASF0xW0NIMl1bQ0gyXVtDQEhdKFtDSDJdW0NASF0xW0NIM10pW05IXVtDSDJdW0NIMl1jMltjSF1bY0hdbm4yW0NIM10=

> <s_epik_cmdline>
J2VwaWtfcHl0aG9uJywgJy1waCcsICc3LjAnLCAnLXRuJywgJzgnLCAnLW1hJywgJzIwMCcsICctbWV0YWxfYmluZGluZycsICctaW1hZScsICc8aW5maWxlLm1hZT4nLCAnLW9tYWUnLCAnPG91dGZpbGUubWFlPic=

> <r_lp_tautomer_probability>
1

> <r_epik_Ionization_Penalty>
0.000327718

> <r_epik_Ionization_Penalty_Charging>
0.000294043

> <r_epik_Ionization_Penalty_Neutral>
3.36755e-05

> <r_epik_State_Penalty>
-0

> <r_epik_Charging_Adjusted_Penalty>
0.000294043

> <i_epik_Tot_Q>
1

> <i_epik_Tot_abs_Q>
1

> <r_epik_Metal_State_Penalty>
-0

> <b_epik_Metal_Only>
0

> <s_lp_Force_Field>
OPLS_2005

> <r_lp_Energy>
14.2939

> <b_lp_Chiralities_Consistent>
1

> <s_lp_Variant>
AV-unprocessed.smi:3183-7

> <Gold.Version>
5.8.1

> <Gold.Id.Protein>
6NUR|6NUR_protein|mol2

> <Gold.PLP.Fitness>
51.4701

> <Gold.PLP.PLP>
-43.8378

> <Gold.PLP.part.hbond>
-1.0000

> <Gold.PLP.part.metal>
0.0000

> <Gold.PLP.part.buried>
-3.2377

> <Gold.PLP.part.nonpolar>
-40.7602

> <Gold.PLP.part.repulsive>
0.3518

> <Gold.PLP.ligand.clash>
0.0000

> <Gold.PLP.ligand.torsion>
0.6894

> <Gold.PLP.Chemscore.Hbond>
2.0000

> <Gold.PLP.Chemscore.CHOScore>
1.0000

> <Gold.PLP.Chemscore.Metal>
0.0000

> <Gold.Chemscore.Hbonds>
donor molecule, donor type, donor heavy atom, donor atom, acceptor molecule, acceptor atom, score
      L1  H     6    43       P1  8028  2.00
      L1  C    11    33       P1 10175  0.90

> <Gold.PLP.Chemscore.Internal.Correction>
0.0111

> <Gold.Rescore>
     Score         DG    S(hbond)    S(metal)    S(lipo)     H(rot)  DE(clash)    DE(int)     intcor
     20.28     -20.96       1.00        0.00     133.99       1.38       0.02       0.67       ----

> <Gold.Chemscore.Fitness>
20.2783

> <Gold.Chemscore.DG>
-20.9649

> <Gold.Chemscore.ZeroCoef>
-5.4800

> <Gold.Chemscore.Hbond>
0.9977

> <Gold.Chemscore.Metal>
0.0000

> <Gold.Chemscore.Lipo>
133.9946

> <Gold.Chemscore.Internal_Hbond>
0.0000

> <Gold.Chemscore.DEClash>
0.0155

> <Gold.Chemscore.DEInternal>
0.6711

> <Gold.Chemscore.Rot>
1.3768

> <Gold.Chemscore.Internal.Correction>
   9.000000E+99

> <Gold.Chemscore.Hbonds>
donor molecule, donor type, donor heavy atom, donor atom, acceptor molecule, acceptor atom, score
      L1  H     6    43       P1  8028  0.99

> <Gold.Chemscore.Hbond.Weighted>
-3.3323

> <Gold.Chemscore.Metal.Weighted>
-0.0000

> <Gold.Chemscore.Lipo.Weighted>
-15.6774

> <Gold.Chemscore.Internal_Hbond.Weighted>
0.0000

> <Gold.Chemscore.DEClash.Weighted>
0.0155

> <Gold.Chemscore.DEInternal.Weighted>
0.6711

> <Gold.Chemscore.Rot.Weighted>
3.5247

> <Gold.Chemscore.Internal.Correction.Weighted>
   9.000000E+99

> <Gold.Protein.RotatedTorsions>
[ 6907 6896 6895 6894 ] final   57.85 input  -60.11 | X-H torsion
[ 7974 7965 7964 7962 ] final  -57.35 input  175.53 | X-H torsion
[ 8008 7997 7996 7995 ] final   33.63 input   59.86 | X-H torsion
[ 10167 10162 10161 10158 ] final  100.95 input  -65.29 | X-H torsion
[ 10718 10713 10712 10709 ] final  -64.50 input   66.30 | X-H torsion
[ 10763 10752 10751 10750 ] final -114.26 input  -60.55 | X-H torsion
[ 11005 11000 10999 10996 ] final  100.01 input  -57.11 | X-H torsion

> <Gold.Protein.ActiveResidues>
 VAL166  LYS551  ARG553  GLY616  TRP617  ASP618  TYR619  PRO620  LYS621  CYS622 
 ASP623  PHE694  ASN695  SER759  ASP760  ASP761  ALA762  ILE779  LEU786  VAL792 
 PHE793  MET794  SER795  GLU796  ALA797  LYS798  CYS799  TRP800  GLU811  SER814 

> <Gold.Protein.RotatedAtoms>
  152.3770  134.6648  160.0156 H   0  0  0  0  0  0  0  0  0  0  0  0  # atno 6907 bound_to 6896
  151.6924  133.3305  159.3254 H   0  0  0  0  0  0  0  0  0  0  0  0  # atno 6908 bound_to 6896
  150.7717  134.6623  159.6391 H   0  0  0  0  0  0  0  0  0  0  0  0  # atno 6909 bound_to 6896
  145.8520  140.8345  142.9980 H   0  0  0  0  0  0  0  0  0  0  0  0  # atno 7974 bound_to 7965
  155.1418  140.3267  155.4450 H   0  0  0  0  0  0  0  0  0  0  0  0  # atno 8008 bound_to 7997
  156.2602  140.1992  156.6483 H   0  0  0  0  0  0  0  0  0  0  0  0  # atno 8009 bound_to 7997
  154.6537  140.0555  156.9971 H   0  0  0  0  0  0  0  0  0  0  0  0  # atno 8010 bound_to 7997
  139.7482  144.6992  151.0473 H   0  0  0  0  0  0  0  0  0  0  0  0  # atno 10167 bound_to 10162
  156.0725  130.4234  150.1430 H   0  0  0  0  0  0  0  0  0  0  0  0  # atno 10718 bound_to 10713
  154.8432  135.4424  154.1477 H   0  0  0  0  0  0  0  0  0  0  0  0  # atno 10763 bound_to 10752
  153.2646  135.6939  153.7549 H   0  0  0  0  0  0  0  0  0  0  0  0  # atno 10764 bound_to 10752
  153.6813  135.3402  155.3154 H   0  0  0  0  0  0  0  0  0  0  0  0  # atno 10765 bound_to 10752
  139.8771  134.9121  156.4691 H   0  0  0  0  0  0  0  0  0  0  0  0  # atno 11005 bound_to 11000
  144.6729  140.0968  143.7462 LP  0  0  0  0  0  0  0  0  0  0  0  0  # atno 17320 bound_to 7965
  145.9346  139.2628  143.1305 LP  0  0  0  0  0  0  0  0  0  0  0  0  # atno 17321 bound_to 7965
  140.7794  143.4841  150.9978 LP  0  0  0  0  0  0  0  0  0  0  0  0  # atno 17342 bound_to 10162
  139.8529  143.7414  152.3177 LP  0  0  0  0  0  0  0  0  0  0  0  0  # atno 17343 bound_to 10162
  156.9478  130.9765  151.3504 LP  0  0  0  0  0  0  0  0  0  0  0  0  # atno 17370 bound_to 10713
  157.5803  130.8372  149.8514 LP  0  0  0  0  0  0  0  0  0  0  0  0  # atno 17371 bound_to 10713
  140.8808  133.7919  155.9465 LP  0  0  0  0  0  0  0  0  0  0  0  0  # atno 17394 bound_to 11000
  140.8856  134.2559  157.5122 LP  0  0  0  0  0  0  0  0  0  0  0  0  # atno 17395 bound_to 11000

$$$$
