AV-unprocessed.smi:1731|AV-procd|sdf|6974|dock2
  -GOLD-   22720 8183D 1   1.00000     0.00000
 Structure written by MMmdl.
 41 42  0  0  0  0  0  0  0  0  1 V2000
  153.2398  143.6387  162.2457 C   0  0  0  0  0  0  0  0  0  0  0  0
  152.2245  143.3840  161.1227 C   0  0  2  0  0  0  0  0  0  0  0  0
  152.6229  142.1657  160.2684 C   0  0  0  0  0  0  0  0  0  0  0  0
  151.6091  141.9070  159.1426 C   0  0  0  0  0  0  0  0  0  0  0  0
  151.4197  143.1528  158.2540 C   0  0  1  0  0  0  0  0  0  0  0  0
  150.3934  142.9096  157.2445 N   0  0  0  0  0  0  0  0  0  0  0  0
  150.2205  141.7599  156.5766 C   0  0  0  0  0  0  0  0  0  0  0  0
  150.9325  140.7673  156.7319 O   0  0  0  0  0  0  0  0  0  0  0  0
  149.1767  141.8369  155.7349 N   0  0  0  0  0  0  0  0  0  0  0  0
  148.6839  140.8184  154.8806 C   0  0  0  0  0  0  0  0  0  0  0  0
  149.2949  139.5515  154.6937 C   0  0  0  0  0  0  0  0  0  0  0  0
  148.6084  138.8102  153.8376 N   0  0  0  0  0  0  0  0  0  0  0  0
  147.5570  139.5826  153.4654 N   0  0  0  0  0  0  0  0  0  0  0  0
  146.5842  139.0670  152.5182 C   0  0  0  0  0  0  0  0  0  0  0  0
  145.8795  137.8265  153.0707 C   0  0  0  0  0  0  0  0  0  0  0  0
  144.5447  137.8501  153.1117 N   0  0  0  0  0  0  0  0  0  0  0  0
  146.5314  136.8569  153.4519 O   0  0  0  0  0  0  0  0  0  0  0  0
  147.5708  140.8157  154.0886 C   0  0  0  0  0  0  0  0  0  0  0  0
  151.0279  144.3740  159.1059 C   0  0  0  0  0  0  0  0  0  0  0  0
  152.0452  144.6268  160.2304 C   0  0  0  0  0  0  0  0  0  0  0  0
  154.2301  143.8549  161.8439 H   0  0  0  0  0  0  0  0  0  0  0  0
  153.3276  142.7703  162.8992 H   0  0  0  0  0  0  0  0  0  0  0  0
  152.9385  144.4856  162.8627 H   0  0  0  0  0  0  0  0  0  0  0  0
  151.2641  143.1659  161.5925 H   0  0  0  0  0  0  0  0  0  0  0  0
  153.6115  142.3256  159.8354 H   0  0  0  0  0  0  0  0  0  0  0  0
  152.7021  141.2785  160.8976 H   0  0  0  0  0  0  0  0  0  0  0  0
  151.9430  141.0615  158.5401 H   0  0  0  0  0  0  0  0  0  0  0  0
  150.6528  141.6151  159.5794 H   0  0  0  0  0  0  0  0  0  0  0  0
  152.3645  143.3784  157.7553 H   0  0  0  0  0  0  0  0  0  0  0  0
  149.7602  143.6713  157.0496 H   0  0  0  0  0  0  0  0  0  0  0  0
  148.6715  142.7105  155.7144 H   0  0  0  0  0  0  0  0  0  0  0  0
  150.1946  139.1533  155.1391 H   0  0  0  0  0  0  0  0  0  0  0  0
  145.8449  139.8378  152.2953 H   0  0  0  0  0  0  0  0  0  0  0  0
  147.0960  138.8350  151.5830 H   0  0  0  0  0  0  0  0  0  0  0  0
  144.0353  137.0557  153.4704 H   0  0  0  0  0  0  0  0  0  0  0  0
  144.0488  138.6667  152.7846 H   0  0  0  0  0  0  0  0  0  0  0  0
  146.8051  141.5561  153.9105 H   0  0  0  0  0  0  0  0  0  0  0  0
  150.9525  145.2605  158.4750 H   0  0  0  0  0  0  0  0  0  0  0  0
  150.0397  144.2208  159.5421 H   0  0  0  0  0  0  0  0  0  0  0  0
  151.7188  145.4749  160.8332 H   0  0  0  0  0  0  0  0  0  0  0  0
  153.0047  144.9099  159.7946 H   0  0  0  0  0  0  0  0  0  0  0  0
  1  2  1  0  0  0  0
  1 21  1  0  0  0  0
  1 22  1  0  0  0  0
  1 23  1  0  0  0  0
  2 20  1  0  0  0  0
  2  3  1  0  0  0  0
  2 24  1  0  0  0  0
  3  4  1  0  0  0  0
  3 25  1  0  0  0  0
  3 26  1  0  0  0  0
  4  5  1  0  0  0  0
  4 27  1  0  0  0  0
  4 28  1  0  0  0  0
  5  6  1  0  0  0  0
  5 19  1  0  0  0  0
  5 29  1  0  0  0  0
  6  7  1  0  0  0  0
  6 30  1  0  0  0  0
  7  8  2  0  0  0  0
  7  9  1  0  0  0  0
  9 10  1  0  0  0  0
  9 31  1  0  0  0  0
 10 18  2  0  0  0  0
 10 11  1  0  0  0  0
 11 12  2  0  0  0  0
 11 32  1  0  0  0  0
 12 13  1  0  0  0  0
 13 14  1  0  0  0  0
 13 18  1  0  0  0  0
 14 15  1  0  0  0  0
 14 33  1  0  0  0  0
 14 34  1  0  0  0  0
 15 16  1  0  0  0  0
 15 17  2  0  0  0  0
 16 35  1  0  0  0  0
 16 36  1  0  0  0  0
 18 37  1  0  0  0  0
 19 20  1  0  0  0  0
 19 38  1  0  0  0  0
 19 39  1  0  0  0  0
 20 40  1  0  0  0  0
 20 41  1  0  0  0  0
M  END
> <s_m_source_file>
AV-unprocessed.smi

> <i_m_source_file_index>
1731

> <i_lp_mmshare_version>
43012

> <i_f3d_flags>
0

> <s_epik_input>
W0NIM11bQ0BASF0xW0NIMl1bQ0gyXVtDQEhdKFtDSDJdW0NIMl0xKVtOSF1DKD1PKVtOSF1jMltjSF1ubihbY0hdMilbQ0gyXUMoPU8pW05IMl0=

> <s_epik_cmdline>
J2VwaWtfcHl0aG9uJywgJy1waCcsICc3LjAnLCAnLXRuJywgJzgnLCAnLW1hJywgJzIwMCcsICctbWV0YWxfYmluZGluZycsICctaW1hZScsICc8aW5maWxlLm1hZT4nLCAnLW9tYWUnLCAnPG91dGZpbGUubWFlPic=

> <r_lp_tautomer_probability>
1

> <r_epik_Ionization_Penalty>
4.81284e-05

> <r_epik_Ionization_Penalty_Charging>
0

> <r_epik_Ionization_Penalty_Neutral>
4.81284e-05

> <r_epik_State_Penalty>
-0

> <r_epik_Charging_Adjusted_Penalty>
0

> <i_epik_Tot_Q>
0

> <i_epik_Tot_abs_Q>
0

> <r_epik_Metal_State_Penalty>
-0

> <b_epik_Metal_Only>
0

> <s_lp_Force_Field>
OPLS_2005

> <r_lp_Energy>
12.4361

> <b_lp_Chiralities_Consistent>
1

> <s_lp_Variant>
AV-unprocessed.smi:1731-1

> <Gold.Version>
5.8.1

> <Gold.Id.Protein>
6NUR|6NUR_protein|mol2

> <Gold.PLP.Fitness>
48.5066

> <Gold.PLP.PLP>
-40.2368

> <Gold.PLP.part.hbond>
-4.0000

> <Gold.PLP.part.metal>
0.0000

> <Gold.PLP.part.buried>
-3.9217

> <Gold.PLP.part.nonpolar>
-35.5236

> <Gold.PLP.part.repulsive>
2.7053

> <Gold.PLP.ligand.clash>
0.0000

> <Gold.PLP.ligand.torsion>
0.3123

> <Gold.PLP.Chemscore.Hbond>
2.9600

> <Gold.PLP.Chemscore.CHOScore>
0.0000

> <Gold.PLP.Chemscore.Metal>
0.0000

> <Gold.Chemscore.Hbonds>
donor molecule, donor type, donor heavy atom, donor atom, acceptor molecule, acceptor atom, score
      L1  H     6    30       P1  8028  0.93
      L1  H     9    31       P1  8028  0.90
      L1  H    16    36       P1 10175  1.00

> <Gold.PLP.Chemscore.Internal.Correction>
0.0145

> <Gold.Rescore>
     Score         DG    S(hbond)    S(metal)    S(lipo)     H(rot)  DE(clash)    DE(int)     intcor
     16.49     -22.64       2.91        0.00     105.12       1.90       1.92       4.24       ----

> <Gold.Chemscore.Fitness>
16.4855

> <Gold.Chemscore.DG>
-22.6401

> <Gold.Chemscore.ZeroCoef>
-5.4800

> <Gold.Chemscore.Hbond>
2.9137

> <Gold.Chemscore.Metal>
0.0000

> <Gold.Chemscore.Lipo>
105.1247

> <Gold.Chemscore.Internal_Hbond>
0.0000

> <Gold.Chemscore.DEClash>
1.9164

> <Gold.Chemscore.DEInternal>
4.2382

> <Gold.Chemscore.Rot>
1.9029

> <Gold.Chemscore.Internal.Correction>
   9.000000E+99

> <Gold.Chemscore.Hbonds>
donor molecule, donor type, donor heavy atom, donor atom, acceptor molecule, acceptor atom, score
      L1  H     6    30       P1  8028  0.85
      L1  H     9    31       P1  8028  0.84
      L1  H    16    36       P1 10175  1.00

> <Gold.Chemscore.Hbond.Weighted>
-9.7319

> <Gold.Chemscore.Metal.Weighted>
-0.0000

> <Gold.Chemscore.Lipo.Weighted>
-12.2996

> <Gold.Chemscore.Internal_Hbond.Weighted>
0.0000

> <Gold.Chemscore.DEClash.Weighted>
1.9164

> <Gold.Chemscore.DEInternal.Weighted>
4.2382

> <Gold.Chemscore.Rot.Weighted>
4.8714

> <Gold.Chemscore.Internal.Correction.Weighted>
   9.000000E+99

> <Gold.Protein.RotatedTorsions>
[ 6907 6896 6895 6894 ] final  -61.90 input  -60.11 | X-H torsion
[ 7974 7965 7964 7962 ] final   74.48 input  175.53 | X-H torsion
[ 8008 7997 7996 7995 ] final -143.39 input   59.86 | X-H torsion
[ 10167 10162 10161 10158 ] final -161.69 input  -65.29 | X-H torsion
[ 10718 10713 10712 10709 ] final  -22.46 input   66.30 | X-H torsion
[ 10763 10752 10751 10750 ] final  -15.76 input  -60.55 | X-H torsion
[ 11005 11000 10999 10996 ] final  -98.43 input  -57.11 | X-H torsion

> <Gold.Protein.ActiveResidues>
 VAL166  LYS551  ARG553  GLY616  TRP617  ASP618  TYR619  PRO620  LYS621  CYS622 
 ASP623  PHE694  ASN695  SER759  ASP760  ASP761  ALA762  ILE779  LEU786  VAL792 
 PHE793  MET794  SER795  GLU796  ALA797  LYS798  CYS799  TRP800  GLU811  SER814 

> <Gold.Protein.RotatedAtoms>
  150.7752  134.6643  159.6356 H   0  0  0  0  0  0  0  0  0  0  0  0  # atno 6907 bound_to 6896
  152.3820  134.6573  160.0148 H   0  0  0  0  0  0  0  0  0  0  0  0  # atno 6908 bound_to 6896
  151.6900  133.3274  159.3276 H   0  0  0  0  0  0  0  0  0  0  0  0  # atno 6909 bound_to 6896
  145.7278  139.2672  143.1559 H   0  0  0  0  0  0  0  0  0  0  0  0  # atno 7974 bound_to 7965
  155.5099  140.0582  157.2925 H   0  0  0  0  0  0  0  0  0  0  0  0  # atno 8008 bound_to 7997
  154.4556  140.1971  156.0339 H   0  0  0  0  0  0  0  0  0  0  0  0  # atno 8009 bound_to 7997
  156.0791  140.3249  155.7676 H   0  0  0  0  0  0  0  0  0  0  0  0  # atno 8010 bound_to 7997
  139.6446  144.0195  152.2118 H   0  0  0  0  0  0  0  0  0  0  0  0  # atno 10167 bound_to 10162
  156.5043  130.4595  149.6683 H   0  0  0  0  0  0  0  0  0  0  0  0  # atno 10718 bound_to 10713
  153.5482  135.7012  153.5604 H   0  0  0  0  0  0  0  0  0  0  0  0  # atno 10763 bound_to 10752
  153.3540  135.3987  155.1667 H   0  0  0  0  0  0  0  0  0  0  0  0  # atno 10764 bound_to 10752
  154.8665  135.3772  154.4991 H   0  0  0  0  0  0  0  0  0  0  0  0  # atno 10765 bound_to 10752
  141.1345  133.8245  157.0839 H   0  0  0  0  0  0  0  0  0  0  0  0  # atno 11005 bound_to 11000
  146.0566  140.8014  142.9755 LP  0  0  0  0  0  0  0  0  0  0  0  0  # atno 17320 bound_to 7965
  144.6900  140.3133  143.7244 LP  0  0  0  0  0  0  0  0  0  0  0  0  # atno 17321 bound_to 7965
  139.9894  144.6372  150.7828 LP  0  0  0  0  0  0  0  0  0  0  0  0  # atno 17342 bound_to 10162
  140.7508  143.2962  151.3199 LP  0  0  0  0  0  0  0  0  0  0  0  0  # atno 17343 bound_to 10162
  156.3302  130.7327  151.2256 LP  0  0  0  0  0  0  0  0  0  0  0  0  # atno 17370 bound_to 10713
  157.7459  131.0432  150.4731 LP  0  0  0  0  0  0  0  0  0  0  0  0  # atno 17371 bound_to 10713
  140.0434  134.9842  157.1005 LP  0  0  0  0  0  0  0  0  0  0  0  0  # atno 17394 bound_to 11000
  140.4100  134.1992  155.7163 LP  0  0  0  0  0  0  0  0  0  0  0  0  # atno 17395 bound_to 11000

$$$$
