AV-unprocessed.smi:2724|AV-procd|sdf|10510|dock5
  -GOLD-   2272014553D 1   1.00000     0.00000
 Structure written by MMmdl.
 25 26  0  0  0  0  0  0  0  0  1 V2000
  152.1716  144.3309  162.2002 O   0  0  0  0  0  0  0  0  0  0  0  0
  151.8329  143.9846  160.8734 C   0  0  1  0  0  0  0  0  0  0  0  0
  151.3225  145.1971  160.0965 C   0  0  0  0  0  0  0  0  0  0  0  0
  151.5164  144.8082  158.6308 C   0  0  0  0  0  0  0  0  0  0  0  0
  152.7404  143.8805  158.6015 C   0  0  0  0  0  0  0  0  0  0  0  0
  153.0545  143.5162  160.0670 C   0  0  2  0  0  0  0  0  0  0  0  0
  153.4000  142.0467  160.2700 C   0  0  0  0  0  0  0  0  0  0  0  0
  153.2049  141.0929  159.2471 C   0  0  0  0  0  0  0  0  0  0  0  0
  153.5396  139.7481  159.4955 C   0  0  0  0  0  0  0  0  0  0  0  0
  154.0574  139.4092  160.7610 C   0  0  0  0  0  0  0  0  0  0  0  0
  154.2483  140.3100  161.7484 N   0  0  0  0  0  0  0  0  0  0  0  0
  153.9250  141.5976  161.5014 C   0  0  0  0  0  0  0  0  0  0  0  0
  151.7792  145.1671  162.4005 H   0  0  0  0  0  0  0  0  0  0  0  0
  151.0539  143.2212  160.8824 H   0  0  0  0  0  0  0  0  0  0  0  0
  150.2874  145.4450  160.3335 H   0  0  0  0  0  0  0  0  0  0  0  0
  151.9345  146.0722  160.3211 H   0  0  0  0  0  0  0  0  0  0  0  0
  150.6387  144.2629  158.2809 H   0  0  0  0  0  0  0  0  0  0  0  0
  151.6389  145.6795  157.9867 H   0  0  0  0  0  0  0  0  0  0  0  0
  152.5121  143.0022  157.9966 H   0  0  0  0  0  0  0  0  0  0  0  0
  153.5996  144.3669  158.1379 H   0  0  0  0  0  0  0  0  0  0  0  0
  153.9118  144.1212  160.3690 H   0  0  0  0  0  0  0  0  0  0  0  0
  152.8065  141.3845  158.2864 H   0  0  0  0  0  0  0  0  0  0  0  0
  153.4033  138.9942  158.7344 H   0  0  0  0  0  0  0  0  0  0  0  0
  154.3247  138.3875  160.9863 H   0  0  0  0  0  0  0  0  0  0  0  0
  154.0900  142.2889  162.3146 H   0  0  0  0  0  0  0  0  0  0  0  0
  1  2  1  0  0  0  0
  1 13  1  0  0  0  0
  2  6  1  0  0  0  0
  2  3  1  0  0  0  0
  2 14  1  0  0  0  0
  3  4  1  0  0  0  0
  3 15  1  0  0  0  0
  3 16  1  0  0  0  0
  4  5  1  0  0  0  0
  4 17  1  0  0  0  0
  4 18  1  0  0  0  0
  5  6  1  0  0  0  0
  5 19  1  0  0  0  0
  5 20  1  0  0  0  0
  6  7  1  0  0  0  0
  6 21  1  0  0  0  0
  7 12  1  0  0  0  0
  7  8  2  0  0  0  0
  8  9  1  0  0  0  0
  8 22  1  0  0  0  0
  9 10  2  0  0  0  0
  9 23  1  0  0  0  0
 10 11  1  0  0  0  0
 10 24  1  0  0  0  0
 11 12  2  0  0  0  0
 12 25  1  0  0  0  0
M  END
> <s_m_source_file>
AV-unprocessed.smi

> <i_m_source_file_index>
2724

> <i_lp_mmshare_version>
43012

> <i_f3d_flags>
0

> <s_epik_input>
W09IXVtDQEBIXTFbQ0gyXVtDSDJdW0NIMl1bQ0BIXTFjMltjSF1bY0hdW2NIXW5bY0hdMg==

> <s_epik_cmdline>
J2VwaWtfcHl0aG9uJywgJy1waCcsICc3LjAnLCAnLXRuJywgJzgnLCAnLW1hJywgJzIwMCcsICctbWV0YWxfYmluZGluZycsICctaW1hZScsICc8aW5maWxlLm1hZT4nLCAnLW9tYWUnLCAnPG91dGZpbGUubWFlPic=

> <r_epik_Ionization_Penalty>
0.0175299

> <r_epik_Ionization_Penalty_Charging>
0

> <r_epik_Ionization_Penalty_Neutral>
0.0175299

> <r_epik_State_Penalty>
0.0138989

> <r_epik_Charging_Adjusted_Penalty>
0.0138989

> <i_epik_Tot_Q>
0

> <i_epik_Tot_abs_Q>
0

> <r_epik_Metal_State_Penalty>
1.40631e-05

> <b_epik_Metal_Only>
0

> <s_lp_Force_Field>
OPLS_2005

> <r_lp_Energy>
19.4991

> <b_lp_Chiralities_Consistent>
1

> <s_lp_Variant>
AV-unprocessed.smi:2724-4

> <Gold.Version>
5.8.1

> <Gold.Id.Protein>
6NUR|6NUR_protein|mol2

> <Gold.PLP.Fitness>
35.5593

> <Gold.PLP.PLP>
-35.9611

> <Gold.PLP.part.hbond>
-1.5625

> <Gold.PLP.part.metal>
0.0000

> <Gold.PLP.part.buried>
-4.6608

> <Gold.PLP.part.nonpolar>
-29.2205

> <Gold.PLP.part.repulsive>
0.0000

> <Gold.PLP.ligand.clash>
0.0000

> <Gold.PLP.ligand.torsion>
0.2011

> <Gold.PLP.Chemscore.Hbond>
0.0000

> <Gold.PLP.Chemscore.CHOScore>
0.0000

> <Gold.PLP.Chemscore.Metal>
0.0000

> <Gold.PLP.Chemscore.Internal.Correction>
0.0004

> <Gold.Rescore>
     Score         DG    S(hbond)    S(metal)    S(lipo)     H(rot)  DE(clash)    DE(int)     intcor
     14.48     -14.57       0.00        0.00     106.59       1.32       0.09       0.00       ----

> <Gold.Chemscore.Fitness>
14.4816

> <Gold.Chemscore.DG>
-14.5737

> <Gold.Chemscore.ZeroCoef>
-5.4800

> <Gold.Chemscore.Hbond>
0.0000

> <Gold.Chemscore.Metal>
0.0000

> <Gold.Chemscore.Lipo>
106.5883

> <Gold.Chemscore.Internal_Hbond>
0.0000

> <Gold.Chemscore.DEClash>
0.0908

> <Gold.Chemscore.DEInternal>
0.0012

> <Gold.Chemscore.Rot>
1.3192

> <Gold.Chemscore.Internal.Correction>
   9.000000E+99

> <Gold.Chemscore.Hbond.Weighted>
-0.0000

> <Gold.Chemscore.Metal.Weighted>
-0.0000

> <Gold.Chemscore.Lipo.Weighted>
-12.4708

> <Gold.Chemscore.Internal_Hbond.Weighted>
0.0000

> <Gold.Chemscore.DEClash.Weighted>
0.0908

> <Gold.Chemscore.DEInternal.Weighted>
0.0012

> <Gold.Chemscore.Rot.Weighted>
3.3772

> <Gold.Chemscore.Internal.Correction.Weighted>
   9.000000E+99

> <Gold.Protein.RotatedTorsions>
[ 6907 6896 6895 6894 ] final  -50.33 input  -60.11 | X-H torsion
[ 7974 7965 7964 7962 ] final -152.22 input  175.53 | X-H torsion
[ 8008 7997 7996 7995 ] final  -99.25 input   59.86 | X-H torsion
[ 10167 10162 10161 10158 ] final   25.17 input  -65.29 | X-H torsion
[ 10718 10713 10712 10709 ] final  -85.58 input   66.30 | X-H torsion
[ 10763 10752 10751 10750 ] final -172.37 input  -60.55 | X-H torsion
[ 11005 11000 10999 10996 ] final  -96.84 input  -57.11 | X-H torsion

> <Gold.Protein.ActiveResidues>
 VAL166  LYS551  ARG553  GLY616  TRP617  ASP618  TYR619  PRO620  LYS621  CYS622 
 ASP623  PHE694  ASN695  SER759  ASP760  ASP761  ALA762  ILE779  LEU786  VAL792 
 PHE793  MET794  SER795  GLU796  ALA797  LYS798  CYS799  TRP800  GLU811  SER814 

> <Gold.Protein.RotatedAtoms>
  150.8718  134.8093  159.7159 H   0  0  0  0  0  0  0  0  0  0  0  0  # atno 6907 bound_to 6896
  152.4719  134.4935  159.9712 H   0  0  0  0  0  0  0  0  0  0  0  0  # atno 6908 bound_to 6896
  151.5023  133.3463  159.2906 H   0  0  0  0  0  0  0  0  0  0  0  0  # atno 6909 bound_to 6896
  144.7806  140.4692  143.5842 H   0  0  0  0  0  0  0  0  0  0  0  0  # atno 7974 bound_to 7965
  154.8123  140.0449  157.1351 H   0  0  0  0  0  0  0  0  0  0  0  0  # atno 8008 bound_to 7997
  154.9354  140.3045  155.5127 H   0  0  0  0  0  0  0  0  0  0  0  0  # atno 8009 bound_to 7997
  156.2973  140.2315  156.4418 H   0  0  0  0  0  0  0  0  0  0  0  0  # atno 8010 bound_to 7997
  140.5128  144.0131  150.6380 H   0  0  0  0  0  0  0  0  0  0  0  0  # atno 10167 bound_to 10162
  155.9996  130.4736  150.4583 H   0  0  0  0  0  0  0  0  0  0  0  0  # atno 10718 bound_to 10713
  154.6200  135.2874  155.0336 H   0  0  0  0  0  0  0  0  0  0  0  0  # atno 10763 bound_to 10752
  154.1535  135.6499  153.4973 H   0  0  0  0  0  0  0  0  0  0  0  0  # atno 10764 bound_to 10752
  153.0232  135.5361  154.6986 H   0  0  0  0  0  0  0  0  0  0  0  0  # atno 10765 bound_to 10752
  141.1398  133.8127  157.0626 H   0  0  0  0  0  0  0  0  0  0  0  0  # atno 11005 bound_to 11000
  145.6061  139.1508  143.3102 LP  0  0  0  0  0  0  0  0  0  0  0  0  # atno 17320 bound_to 7965
  146.2012  140.6179  142.9101 LP  0  0  0  0  0  0  0  0  0  0  0  0  # atno 17321 bound_to 7965
  140.3459  143.2992  152.0539 LP  0  0  0  0  0  0  0  0  0  0  0  0  # atno 17342 bound_to 10162
  139.4901  144.6409  151.6879 LP  0  0  0  0  0  0  0  0  0  0  0  0  # atno 17343 bound_to 10162
  157.2610  131.0567  151.2320 LP  0  0  0  0  0  0  0  0  0  0  0  0  # atno 17370 bound_to 10713
  157.3435  130.7045  149.6396 LP  0  0  0  0  0  0  0  0  0  0  0  0  # atno 17371 bound_to 10713
  140.0562  134.9779  157.1224 LP  0  0  0  0  0  0  0  0  0  0  0  0  # atno 17394 bound_to 11000
  140.3916  134.2178  155.7166 LP  0  0  0  0  0  0  0  0  0  0  0  0  # atno 17395 bound_to 11000

$$$$
