AV-unprocessed.smi:1703|AV-procd|sdf|6854|dock4
  -GOLD-   22720 8 33D 1   1.00000     0.00000
 Structure written by MMmdl.
 48 50  0  0  0  0  0  0  0  0  1 V2000
  153.3190  137.7612  155.0509 C   0  0  0  0  0  0  0  0  0  0  0  0
  151.8461  137.9168  154.6580 C   0  0  2  0  0  0  0  0  0  0  0  0
  151.2899  139.3073  155.0187 C   0  0  0  0  0  0  0  0  0  0  0  0
  149.8690  139.4267  154.7120 N   0  0  0  0  0  0  0  0  0  0  0  0
  149.3737  140.7623  155.0514 C   0  0  0  0  0  0  0  0  0  0  0  0
  149.7135  141.2557  156.4717 C   0  0  2  0  0  0  0  0  0  0  0  0
  148.7458  142.2108  156.8595 O   0  0  0  0  0  0  0  0  0  0  0  0
  151.1143  141.8954  156.5301 C   0  0  0  0  0  0  0  0  0  0  0  0
  151.6413  141.9574  157.8873 N   0  0  0  0  0  0  0  0  0  0  0  0
  151.9565  140.9331  158.7200 C   0  0  0  0  0  0  0  0  0  0  0  0
  151.7784  139.5002  158.3048 C   0  0  0  0  0  0  0  0  0  0  0  0
  152.9861  138.7695  158.2384 O   0  0  0  0  0  0  0  0  0  0  0  0
  152.4271  141.2889  159.9182 N   0  0  0  0  0  0  0  0  0  0  0  0
  152.4112  142.6684  159.8570 C   0  0  0  0  0  0  0  0  0  0  0  0
  152.7901  143.6357  160.8153 C   0  0  0  0  0  0  0  0  0  0  0  0
  152.6826  145.0111  160.5218 C   0  0  0  0  0  0  0  0  0  0  0  0
  152.1969  145.4380  159.2688 C   0  0  0  0  0  0  0  0  0  0  0  0
  151.8141  144.4905  158.3000 C   0  0  0  0  0  0  0  0  0  0  0  0
  151.9230  143.1191  158.5985 C   0  0  0  0  0  0  0  0  0  0  0  0
  149.1468  138.3596  155.4018 C   0  0  0  0  0  0  0  0  0  0  0  0
  149.6992  136.9659  155.0450 C   0  0  2  0  0  0  0  0  0  0  0  0
  149.0011  135.8487  155.8272 C   0  0  0  0  0  0  0  0  0  0  0  0
  151.0912  136.9231  155.3457 O   0  0  0  0  0  0  0  0  0  0  0  0
  153.9409  138.4976  154.5414 H   0  0  0  0  0  0  0  0  0  0  0  0
  153.6905  136.7713  154.7849 H   0  0  0  0  0  0  0  0  0  0  0  0
  153.4570  137.8910  156.1247 H   0  0  0  0  0  0  0  0  0  0  0  0
  151.7510  137.7531  153.5831 H   0  0  0  0  0  0  0  0  0  0  0  0
  151.4548  139.5005  156.0801 H   0  0  0  0  0  0  0  0  0  0  0  0
  151.8486  140.0693  154.4739 H   0  0  0  0  0  0  0  0  0  0  0  0
  149.7566  141.4788  154.3228 H   0  0  0  0  0  0  0  0  0  0  0  0
  148.2883  140.7813  154.9404 H   0  0  0  0  0  0  0  0  0  0  0  0
  149.6847  140.4303  157.1815 H   0  0  0  0  0  0  0  0  0  0  0  0
  148.9683  142.5239  157.7234 H   0  0  0  0  0  0  0  0  0  0  0  0
  151.8121  141.3123  155.9280 H   0  0  0  0  0  0  0  0  0  0  0  0
  151.1008  142.8933  156.0917 H   0  0  0  0  0  0  0  0  0  0  0  0
  151.1135  139.0059  159.0135 H   0  0  0  0  0  0  0  0  0  0  0  0
  151.3011  139.4627  157.3258 H   0  0  0  0  0  0  0  0  0  0  0  0
  152.7767  137.8685  158.0445 H   0  0  0  0  0  0  0  0  0  0  0  0
  153.1634  143.3186  161.7778 H   0  0  0  0  0  0  0  0  0  0  0  0
  152.9744  145.7418  161.2618 H   0  0  0  0  0  0  0  0  0  0  0  0
  152.1179  146.4934  159.0518 H   0  0  0  0  0  0  0  0  0  0  0  0
  151.4420  144.8134  157.3392 H   0  0  0  0  0  0  0  0  0  0  0  0
  149.2074  138.5107  156.4809 H   0  0  0  0  0  0  0  0  0  0  0  0
  148.0897  138.3858  155.1413 H   0  0  0  0  0  0  0  0  0  0  0  0
  149.5630  136.7825  153.9777 H   0  0  0  0  0  0  0  0  0  0  0  0
  147.9304  135.8355  155.6215 H   0  0  0  0  0  0  0  0  0  0  0  0
  149.1344  135.9760  156.9019 H   0  0  0  0  0  0  0  0  0  0  0  0
  149.4036  134.8728  155.5547 H   0  0  0  0  0  0  0  0  0  0  0  0
  1  2  1  0  0  0  0
  1 24  1  0  0  0  0
  1 25  1  0  0  0  0
  1 26  1  0  0  0  0
  2 23  1  0  0  0  0
  2  3  1  0  0  0  0
  2 27  1  0  0  0  0
  3  4  1  0  0  0  0
  3 28  1  0  0  0  0
  3 29  1  0  0  0  0
  4  5  1  0  0  0  0
  4 20  1  0  0  0  0
  5  6  1  0  0  0  0
  5 30  1  0  0  0  0
  5 31  1  0  0  0  0
  6  7  1  0  0  0  0
  6  8  1  0  0  0  0
  6 32  1  0  0  0  0
  7 33  1  0  0  0  0
  8  9  1  0  0  0  0
  8 34  1  0  0  0  0
  8 35  1  0  0  0  0
  9 19  1  0  0  0  0
  9 10  1  0  0  0  0
 10 11  1  0  0  0  0
 10 13  2  0  0  0  0
 11 12  1  0  0  0  0
 11 36  1  0  0  0  0
 11 37  1  0  0  0  0
 12 38  1  0  0  0  0
 13 14  1  0  0  0  0
 14 19  2  0  0  0  0
 14 15  1  0  0  0  0
 15 16  2  0  0  0  0
 15 39  1  0  0  0  0
 16 17  1  0  0  0  0
 16 40  1  0  0  0  0
 17 18  2  0  0  0  0
 17 41  1  0  0  0  0
 18 19  1  0  0  0  0
 18 42  1  0  0  0  0
 20 21  1  0  0  0  0
 20 43  1  0  0  0  0
 20 44  1  0  0  0  0
 21 22  1  0  0  0  0
 21 23  1  0  0  0  0
 21 45  1  0  0  0  0
 22 46  1  0  0  0  0
 22 47  1  0  0  0  0
 22 48  1  0  0  0  0
M  END
> <s_m_source_file>
AV-unprocessed.smi

> <i_m_source_file_index>
1703

> <i_lp_mmshare_version>
43012

> <i_f3d_flags>
0

> <s_epik_input>
W0NIM11bQ0BASF0xW0NIMl1OKFtDSDJdW0NASF0oTzEpW0NIM10pW0NIMl1bQ0BIXShbT0hdKVtDSDJdbihjKG4yKVtDSDJdW09IXSljKGMyMylbY0hdW2NIXVtjSF1bY0hdMw==

> <s_epik_cmdline>
J2VwaWtfcHl0aG9uJywgJy1waCcsICc3LjAnLCAnLXRuJywgJzgnLCAnLW1hJywgJzIwMCcsICctbWV0YWxfYmluZGluZycsICctaW1hZScsICc8aW5maWxlLm1hZT4nLCAnLW9tYWUnLCAnPG91dGZpbGUubWFlPic=

> <r_epik_Ionization_Penalty>
0.307685

> <r_epik_Ionization_Penalty_Charging>
0

> <r_epik_Ionization_Penalty_Neutral>
0.307685

> <r_epik_State_Penalty>
0.277856

> <r_epik_Charging_Adjusted_Penalty>
0.277856

> <i_epik_Tot_Q>
0

> <i_epik_Tot_abs_Q>
0

> <r_epik_Metal_State_Penalty>
0.238959

> <b_epik_Metal_Only>
0

> <s_lp_Force_Field>
OPLS_2005

> <r_lp_Energy>
28.9256

> <b_lp_Chiralities_Consistent>
1

> <s_lp_Variant>
AV-unprocessed.smi:1703-2

> <Gold.Version>
5.8.1

> <Gold.Id.Protein>
6NUR|6NUR_protein|mol2

> <Gold.PLP.Fitness>
51.5738

> <Gold.PLP.PLP>
-46.6078

> <Gold.PLP.part.hbond>
-2.9216

> <Gold.PLP.part.metal>
0.0000

> <Gold.PLP.part.buried>
-2.7781

> <Gold.PLP.part.nonpolar>
-41.4324

> <Gold.PLP.part.repulsive>
0.2254

> <Gold.PLP.ligand.clash>
0.0000

> <Gold.PLP.ligand.torsion>
0.5381

> <Gold.PLP.Chemscore.Hbond>
2.0000

> <Gold.PLP.Chemscore.CHOScore>
0.0000

> <Gold.PLP.Chemscore.Metal>
0.0000

> <Gold.Chemscore.Hbonds>
donor molecule, donor type, donor heavy atom, donor atom, acceptor molecule, acceptor atom, score
      P1  H  7997  8009       L1    12  0.02

> <Gold.PLP.Chemscore.Internal.Correction>
0.0422

> <Gold.Rescore>
     Score         DG    S(hbond)    S(metal)    S(lipo)     H(rot)  DE(clash)    DE(int)     intcor
     16.58     -18.38       1.50        0.00     130.42       2.88       0.34       1.45       ----

> <Gold.Chemscore.Fitness>
16.5818

> <Gold.Chemscore.DG>
-18.3771

> <Gold.Chemscore.ZeroCoef>
-5.4800

> <Gold.Chemscore.Hbond>
1.4984

> <Gold.Chemscore.Metal>
0.0000

> <Gold.Chemscore.Lipo>
130.4231

> <Gold.Chemscore.Internal_Hbond>
0.0000

> <Gold.Chemscore.DEClash>
0.3406

> <Gold.Chemscore.DEInternal>
1.4548

> <Gold.Chemscore.Rot>
2.8778

> <Gold.Chemscore.Internal.Correction>
   9.000000E+99

> <Gold.Chemscore.Hbonds>
donor molecule, donor type, donor heavy atom, donor atom, acceptor molecule, acceptor atom, score
      P1  H  7997  8009       L1    12  0.06

> <Gold.Chemscore.Hbond.Weighted>
-5.0046

> <Gold.Chemscore.Metal.Weighted>
-0.0000

> <Gold.Chemscore.Lipo.Weighted>
-15.2595

> <Gold.Chemscore.Internal_Hbond.Weighted>
0.0000

> <Gold.Chemscore.DEClash.Weighted>
0.3406

> <Gold.Chemscore.DEInternal.Weighted>
1.4548

> <Gold.Chemscore.Rot.Weighted>
7.3671

> <Gold.Chemscore.Internal.Correction.Weighted>
   9.000000E+99

> <Gold.Protein.RotatedTorsions>
[ 6907 6896 6895 6894 ] final  113.89 input  -60.11 | X-H torsion
[ 7974 7965 7964 7962 ] final  176.28 input  175.53 | X-H torsion
[ 8008 7997 7996 7995 ] final  138.92 input   59.86 | X-H torsion
[ 10167 10162 10161 10158 ] final  -29.10 input  -65.29 | X-H torsion
[ 10718 10713 10712 10709 ] final    3.32 input   66.30 | X-H torsion
[ 10763 10752 10751 10750 ] final  176.45 input  -60.55 | X-H torsion
[ 11005 11000 10999 10996 ] final  -99.88 input  -57.11 | X-H torsion

> <Gold.Protein.ActiveResidues>
 VAL166  LYS551  ARG553  GLY616  TRP617  ASP618  TYR619  PRO620  LYS621  CYS622 
 ASP623  PHE694  ASN695  SER759  ASP760  ASP761  ALA762  ILE779  LEU786  VAL792 
 PHE793  MET794  SER795  GLU796  ALA797  LYS798  CYS799  TRP800  GLU811  SER814 

> <Gold.Protein.RotatedAtoms>
  152.4834  133.8312  159.7103 H   0  0  0  0  0  0  0  0  0  0  0  0  # atno 6907 bound_to 6896
  150.8902  133.7244  159.2913 H   0  0  0  0  0  0  0  0  0  0  0  0  # atno 6908 bound_to 6896
  151.4720  135.1050  159.9806 H   0  0  0  0  0  0  0  0  0  0  0  0  # atno 6909 bound_to 6896
  144.7187  140.0073  143.6440 H   0  0  0  0  0  0  0  0  0  0  0  0  # atno 7974 bound_to 7965
  156.2994  140.2381  156.4152 H   0  0  0  0  0  0  0  0  0  0  0  0  # atno 8008 bound_to 7997
  154.8405  140.0428  157.1558 H   0  0  0  0  0  0  0  0  0  0  0  0  # atno 8009 bound_to 7997
  154.9108  140.2990  155.5271 H   0  0  0  0  0  0  0  0  0  0  0  0  # atno 8010 bound_to 7997
  140.7264  143.3956  151.1354 H   0  0  0  0  0  0  0  0  0  0  0  0  # atno 10167 bound_to 10162
  156.8761  130.5637  149.5655 H   0  0  0  0  0  0  0  0  0  0  0  0  # atno 10718 bound_to 10713
  154.4813  135.2775  155.1569 H   0  0  0  0  0  0  0  0  0  0  0  0  # atno 10763 bound_to 10752
  154.3278  135.6196  153.5541 H   0  0  0  0  0  0  0  0  0  0  0  0  # atno 10764 bound_to 10752
  152.9875  135.5758  154.5214 H   0  0  0  0  0  0  0  0  0  0  0  0  # atno 10765 bound_to 10752
  141.1292  133.8356  157.1030 H   0  0  0  0  0  0  0  0  0  0  0  0  # atno 11005 bound_to 11000
  146.0287  139.3315  143.0769 LP  0  0  0  0  0  0  0  0  0  0  0  0  # atno 17320 bound_to 7965
  145.8480  140.9544  143.0764 LP  0  0  0  0  0  0  0  0  0  0  0  0  # atno 17321 bound_to 7965
  139.7567  143.8696  152.3090 LP  0  0  0  0  0  0  0  0  0  0  0  0  # atno 17342 bound_to 10162
  139.8568  144.7137  150.9147 LP  0  0  0  0  0  0  0  0  0  0  0  0  # atno 17343 bound_to 10162
  156.0701  130.5736  150.9367 LP  0  0  0  0  0  0  0  0  0  0  0  0  # atno 17370 bound_to 10713
  157.6168  131.0932  150.8696 LP  0  0  0  0  0  0  0  0  0  0  0  0  # atno 17371 bound_to 10713
  140.0321  134.9896  157.0801 LP  0  0  0  0  0  0  0  0  0  0  0  0  # atno 17394 bound_to 11000
  140.4268  134.1823  155.7166 LP  0  0  0  0  0  0  0  0  0  0  0  0  # atno 17395 bound_to 11000

$$$$
