AV-unprocessed.smi:1815|AV-procd|sdf|7359|dock5
  -GOLD-   22720 9 23D 1   1.00000     0.00000
 Structure written by MMmdl.
 38 39  0  0  0  0  0  0  0  0  2 V2000
  152.6317  144.7037  158.3009 C   0  0  0  0  0  0  0  0  0  0  0  0
  151.9170  143.9395  159.4286 C   0  0  1  0  0  0  0  0  0  0  0  0
  150.8141  142.9970  158.9129 C   0  0  0  0  0  0  0  0  0  0  0  0
  151.3565  141.8137  158.2463 N   0  0  0  0  0  0  0  0  0  0  0  0
  150.3078  140.9395  157.7149 C   0  0  0  0  0  0  0  0  0  0  0  0
  149.4137  141.5697  156.6264 C   0  0  0  0  0  0  0  0  0  0  0  0
  148.4326  142.5158  157.1503 N   0  0  0  0  0  0  0  0  0  0  0  0
  147.4430  142.2281  158.0097 C   0  0  0  0  0  0  0  0  0  0  0  0
  147.3202  141.0827  158.4506 O   0  0  0  0  0  0  0  0  0  0  0  0
  146.6382  143.2797  158.2846 N   0  5  0  0  0  0  0  0  0  0  0  0
  146.1728  143.4548  159.5320 C   0  0  0  0  0  0  0  0  0  0  0  0
  146.7163  142.8604  160.6007 N   0  0  0  0  0  0  0  0  0  0  0  0
  146.0786  143.1828  161.7997 C   0  0  0  0  0  0  0  0  0  0  0  0
  145.0197  144.0364  161.6393 C   0  0  0  0  0  0  0  0  0  0  0  0
  144.7898  144.4623  159.9672 S   0  0  0  0  0  0  0  0  0  0  0  0
  152.2211  141.1216  159.1924 C   0  0  0  0  0  0  0  0  0  0  0  0
  153.3696  142.0281  159.6751 C   0  0  2  0  0  0  0  0  0  0  0  0
  154.2466  141.3399  160.7261 C   0  0  0  0  0  0  0  0  0  0  0  0
  152.8332  143.2169  160.2544 O   0  0  0  0  0  0  0  0  0  0  0  0
  151.9248  145.3204  157.7444 H   0  0  0  0  0  0  0  0  0  0  0  0
  153.1050  144.0314  157.5854 H   0  0  0  0  0  0  0  0  0  0  0  0
  153.4013  145.3625  158.7028 H   0  0  0  0  0  0  0  0  0  0  0  0
  151.4474  144.6852  160.0706 H   0  0  0  0  0  0  0  0  0  0  0  0
  150.1977  142.6843  159.7569 H   0  0  0  0  0  0  0  0  0  0  0  0
  150.1529  143.5558  158.2573 H   0  0  0  0  0  0  0  0  0  0  0  0
  150.7771  140.0724  157.2483 H   0  0  0  0  0  0  0  0  0  0  0  0
  149.7004  140.5348  158.5259 H   0  0  0  0  0  0  0  0  0  0  0  0
  150.0314  142.0192  155.8475 H   0  0  0  0  0  0  0  0  0  0  0  0
  148.8522  140.7760  156.1337 H   0  0  0  0  0  0  0  0  0  0  0  0
  148.4908  143.4656  156.8139 H   0  0  0  0  0  0  0  0  0  0  0  0
  146.4463  142.7579  162.7217 H   0  0  0  0  0  0  0  0  0  0  0  0
  144.3639  144.4380  162.3968 H   0  0  0  0  0  0  0  0  0  0  0  0
  151.6356  140.7760  160.0459 H   0  0  0  0  0  0  0  0  0  0  0  0
  152.6448  140.2328  158.7233 H   0  0  0  0  0  0  0  0  0  0  0  0
  153.9994  142.2968  158.8263 H   0  0  0  0  0  0  0  0  0  0  0  0
  154.6958  140.4300  160.3274 H   0  0  0  0  0  0  0  0  0  0  0  0
  153.6663  141.0690  161.6086 H   0  0  0  0  0  0  0  0  0  0  0  0
  155.0557  141.9962  161.0471 H   0  0  0  0  0  0  0  0  0  0  0  0
  1  2  1  0  0  0  0
  1 20  1  0  0  0  0
  1 21  1  0  0  0  0
  1 22  1  0  0  0  0
  2 19  1  0  0  0  0
  2  3  1  0  0  0  0
  2 23  1  0  0  0  0
  3  4  1  0  0  0  0
  3 24  1  0  0  0  0
  3 25  1  0  0  0  0
  4  5  1  0  0  0  0
  4 16  1  0  0  0  0
  5  6  1  0  0  0  0
  5 26  1  0  0  0  0
  5 27  1  0  0  0  0
  6  7  1  0  0  0  0
  6 28  1  0  0  0  0
  6 29  1  0  0  0  0
  7  8  1  0  0  0  0
  7 30  1  0  0  0  0
  8  9  2  0  0  0  0
  8 10  1  0  0  0  0
 10 11  1  0  0  0  0
 11 15  1  0  0  0  0
 11 12  2  0  0  0  0
 12 13  1  0  0  0  0
 13 14  2  0  0  0  0
 13 31  1  0  0  0  0
 14 15  1  0  0  0  0
 14 32  1  0  0  0  0
 16 17  1  0  0  0  0
 16 33  1  0  0  0  0
 16 34  1  0  0  0  0
 17 18  1  0  0  0  0
 17 19  1  0  0  0  0
 17 35  1  0  0  0  0
 18 36  1  0  0  0  0
 18 37  1  0  0  0  0
 18 38  1  0  0  0  0
M  CHG  1  10  -1
M  END
> <s_m_source_file>
AV-unprocessed.smi

> <i_m_source_file_index>
1815

> <i_lp_mmshare_version>
43012

> <i_f3d_flags>
0

> <s_epik_input>
W0NIM11bQ0BASF0xW0NIMl1OKFtDSDJdW0NASF0oTzEpW0NIM10pW0NIMl1bQ0gyXVtOSF1DKD1PKVtOSF1jMm5bY0hdW2NIXXMy

> <s_epik_cmdline>
J2VwaWtfcHl0aG9uJywgJy1waCcsICc3LjAnLCAnLXRuJywgJzgnLCAnLW1hJywgJzIwMCcsICctbWV0YWxfYmluZGluZycsICctaW1hZScsICc8aW5maWxlLm1hZT4nLCAnLW9tYWUnLCAnPG91dGZpbGUubWFlPic=

> <r_lp_tautomer_probability>
0.999

> <r_epik_Ionization_Penalty>
7.22374

> <r_epik_Ionization_Penalty_Charging>
5.82415

> <r_epik_Ionization_Penalty_Neutral>
1.39959

> <r_epik_State_Penalty>
6.03347

> <r_epik_Charging_Adjusted_Penalty>
11.8576

> <i_epik_Tot_Q>
-1

> <i_epik_Tot_abs_Q>
1

> <r_epik_Metal_State_Penalty>
2.01024

> <b_epik_Metal_Only>
1

> <s_lp_Force_Field>
OPLS_2005

> <r_lp_Energy>
24.221

> <b_lp_Chiralities_Consistent>
1

> <s_lp_Variant>
AV-unprocessed.smi:1815-10

> <Gold.Version>
5.8.1

> <Gold.Id.Protein>
6NUR|6NUR_protein|mol2

> <Gold.PLP.Fitness>
44.4302

> <Gold.PLP.PLP>
-37.2830

> <Gold.PLP.part.hbond>
-4.0000

> <Gold.PLP.part.metal>
0.0000

> <Gold.PLP.part.buried>
-6.3730

> <Gold.PLP.part.nonpolar>
-28.3727

> <Gold.PLP.part.repulsive>
0.6968

> <Gold.PLP.ligand.clash>
0.0000

> <Gold.PLP.ligand.torsion>
0.4365

> <Gold.PLP.Chemscore.Hbond>
2.6442

> <Gold.PLP.Chemscore.CHOScore>
0.0000

> <Gold.PLP.Chemscore.Metal>
0.0000

> <Gold.Chemscore.Hbonds>
donor molecule, donor type, donor heavy atom, donor atom, acceptor molecule, acceptor atom, score
      L1  H     7    30       P1  8028  1.00
      P1  H  6933  6944       L1    12  0.72
      P1  H  6934  6946       L1    12  0.93

> <Gold.PLP.Chemscore.Internal.Correction>
0.0875

> <Gold.Rescore>
     Score         DG    S(hbond)    S(metal)    S(lipo)     H(rot)  DE(clash)    DE(int)     intcor
     13.86     -16.72       1.52        0.00      87.00       1.57       0.00       2.86       ----

> <Gold.Chemscore.Fitness>
13.8624

> <Gold.Chemscore.DG>
-16.7233

> <Gold.Chemscore.ZeroCoef>
-5.4800

> <Gold.Chemscore.Hbond>
1.5201

> <Gold.Chemscore.Metal>
0.0000

> <Gold.Chemscore.Lipo>
87.0008

> <Gold.Chemscore.Internal_Hbond>
0.0000

> <Gold.Chemscore.DEClash>
0.0000

> <Gold.Chemscore.DEInternal>
2.8609

> <Gold.Chemscore.Rot>
1.5676

> <Gold.Chemscore.Internal.Correction>
   9.000000E+99

> <Gold.Chemscore.Hbonds>
donor molecule, donor type, donor heavy atom, donor atom, acceptor molecule, acceptor atom, score
      L1  H     7    30       P1  8028  0.25
      P1  H  6933  6944       L1    12  0.10
      P1  H  6934  6946       L1    12  0.34

> <Gold.Chemscore.Hbond.Weighted>
-5.0772

> <Gold.Chemscore.Metal.Weighted>
-0.0000

> <Gold.Chemscore.Lipo.Weighted>
-10.1791

> <Gold.Chemscore.Internal_Hbond.Weighted>
0.0000

> <Gold.Chemscore.DEClash.Weighted>
0.0000

> <Gold.Chemscore.DEInternal.Weighted>
2.8609

> <Gold.Chemscore.Rot.Weighted>
4.0130

> <Gold.Chemscore.Internal.Correction.Weighted>
   9.000000E+99

> <Gold.Protein.RotatedTorsions>
[ 6907 6896 6895 6894 ] final -133.10 input  -60.11 | X-H torsion
[ 7974 7965 7964 7962 ] final -112.69 input  175.53 | X-H torsion
[ 8008 7997 7996 7995 ] final  139.19 input   59.86 | X-H torsion
[ 10167 10162 10161 10158 ] final -110.55 input  -65.29 | X-H torsion
[ 10718 10713 10712 10709 ] final  102.51 input   66.30 | X-H torsion
[ 10763 10752 10751 10750 ] final    8.20 input  -60.55 | X-H torsion
[ 11005 11000 10999 10996 ] final  -61.04 input  -57.11 | X-H torsion

> <Gold.Protein.ActiveResidues>
 VAL166  LYS551  ARG553  GLY616  TRP617  ASP618  TYR619  PRO620  LYS621  CYS622 
 ASP623  PHE694  ASN695  SER759  ASP760  ASP761  ALA762  ILE779  LEU786  VAL792 
 PHE793  MET794  SER795  GLU796  ALA797  LYS798  CYS799  TRP800  GLU811  SER814 

> <Gold.Protein.RotatedAtoms>
  150.9701  133.6353  159.2739 H   0  0  0  0  0  0  0  0  0  0  0  0  # atno 6907 bound_to 6896
  151.3645  135.0909  159.9455 H   0  0  0  0  0  0  0  0  0  0  0  0  # atno 6908 bound_to 6896
  152.5179  133.9268  159.7615 H   0  0  0  0  0  0  0  0  0  0  0  0  # atno 6909 bound_to 6896
  145.1410  140.8777  143.3702 H   0  0  0  0  0  0  0  0  0  0  0  0  # atno 7974 bound_to 7965
  156.2992  140.2374  156.4196 H   0  0  0  0  0  0  0  0  0  0  0  0  # atno 8008 bound_to 7997
  154.8367  140.0430  157.1534 H   0  0  0  0  0  0  0  0  0  0  0  0  # atno 8009 bound_to 7997
  154.9148  140.2995  155.5251 H   0  0  0  0  0  0  0  0  0  0  0  0  # atno 8010 bound_to 7997
  140.1432  143.4261  152.1547 H   0  0  0  0  0  0  0  0  0  0  0  0  # atno 10167 bound_to 10162
  157.6800  131.0755  150.5414 H   0  0  0  0  0  0  0  0  0  0  0  0  # atno 10718 bound_to 10713
  153.2277  135.6889  153.7926 H   0  0  0  0  0  0  0  0  0  0  0  0  # atno 10763 bound_to 10752
  153.7102  135.3283  155.3245 H   0  0  0  0  0  0  0  0  0  0  0  0  # atno 10764 bound_to 10752
  154.8299  135.4588  154.1150 H   0  0  0  0  0  0  0  0  0  0  0  0  # atno 10765 bound_to 10752
  141.1310  133.6627  156.5315 H   0  0  0  0  0  0  0  0  0  0  0  0  # atno 11005 bound_to 11000
  145.0532  139.3164  143.5918 LP  0  0  0  0  0  0  0  0  0  0  0  0  # atno 17320 bound_to 7965
  146.3505  139.9948  142.8682 LP  0  0  0  0  0  0  0  0  0  0  0  0  # atno 17321 bound_to 7965
  139.5462  144.7300  151.4577 LP  0  0  0  0  0  0  0  0  0  0  0  0  # atno 17342 bound_to 10162
  140.6748  143.8215  150.7044 LP  0  0  0  0  0  0  0  0  0  0  0  0  # atno 17343 bound_to 10162
  156.5721  130.4282  149.6015 LP  0  0  0  0  0  0  0  0  0  0  0  0  # atno 17370 bound_to 10713
  156.2732  130.7028  151.1832 LP  0  0  0  0  0  0  0  0  0  0  0  0  # atno 17371 bound_to 10713
  140.4212  134.7186  157.4891 LP  0  0  0  0  0  0  0  0  0  0  0  0  # atno 17394 bound_to 11000
  140.0359  134.6338  155.9044 LP  0  0  0  0  0  0  0  0  0  0  0  0  # atno 17395 bound_to 11000

$$$$
