AV-unprocessed.smi:2525|AV-procd|sdf|9926|dock1
  -GOLD-   2272013563D 1   1.00000     0.00000
 Structure written by MMmdl.
 44 45  0  0  0  0  0  0  0  0  1 V2000
  149.4638  142.9345  158.2546 C   0  0  0  0  0  0  0  0  0  0  0  0
  149.6770  141.4117  158.2770 C   0  0  0  0  0  0  0  0  0  0  0  0
  151.0988  140.9331  157.8782 C   0  0  0  0  0  0  0  0  0  0  0  0
  152.1334  141.8988  158.5076 C   0  0  0  0  0  0  0  0  0  0  0  0
  152.1865  141.9035  160.0450 C   0  0  0  0  0  0  0  0  0  0  0  0
  151.4377  139.4279  158.0997 C   0  0  1  0  0  0  0  0  0  0  0  0
  150.2617  138.5578  158.0782 N   0  0  0  0  0  0  0  0  0  0  0  0
  150.0257  137.5364  158.9136 C   0  0  0  0  0  0  0  0  0  0  0  0
  150.8320  137.1417  159.7549 O   0  0  0  0  0  0  0  0  0  0  0  0
  148.6511  136.8767  158.7976 C   0  0  0  0  0  0  0  0  0  0  0  0
  148.2074  136.3785  160.0887 N   0  0  0  0  0  0  0  0  0  0  0  0
  147.9463  135.0765  160.4636 C   0  0  0  0  0  0  0  0  0  0  0  0
  147.6003  135.1879  161.7798 C   0  0  0  0  0  0  0  0  0  0  0  0
  147.6636  136.5311  162.1464 N   0  0  0  0  0  0  0  0  0  0  0  0
  148.0263  137.2369  161.1219 N   0  0  0  0  0  0  0  0  0  0  0  0
  152.1716  139.4146  156.7485 C   0  0  1  0  0  0  0  0  0  0  0  0
  152.1803  138.1786  155.8508 C   0  0  0  0  0  0  0  0  0  0  0  0
  151.3429  140.6516  156.3657 C   0  0  1  0  0  0  0  0  0  0  0  0
  150.1735  140.2673  155.6507 O   0  0  0  0  0  0  0  0  0  0  0  0
  149.5037  141.3623  155.0497 C   0  0  0  0  0  0  0  0  0  0  0  0
  148.4941  143.1886  158.6826 H   0  0  0  0  0  0  0  0  0  0  0  0
  149.4800  143.3315  157.2402 H   0  0  0  0  0  0  0  0  0  0  0  0
  150.2237  143.4582  158.8328 H   0  0  0  0  0  0  0  0  0  0  0  0
  149.4324  141.0683  159.2819 H   0  0  0  0  0  0  0  0  0  0  0  0
  148.9204  140.9430  157.6498 H   0  0  0  0  0  0  0  0  0  0  0  0
  153.1310  141.7024  158.1161 H   0  0  0  0  0  0  0  0  0  0  0  0
  151.9224  142.9208  158.1936 H   0  0  0  0  0  0  0  0  0  0  0  0
  152.8431  142.6981  160.3996 H   0  0  0  0  0  0  0  0  0  0  0  0
  152.5783  140.9679  160.4424 H   0  0  0  0  0  0  0  0  0  0  0  0
  151.2034  142.0721  160.4835 H   0  0  0  0  0  0  0  0  0  0  0  0
  152.1090  139.2544  158.9426 H   0  0  0  0  0  0  0  0  0  0  0  0
  149.5376  138.8022  157.4177 H   0  0  0  0  0  0  0  0  0  0  0  0
  147.9252  137.5931  158.4095 H   0  0  0  0  0  0  0  0  0  0  0  0
  148.6920  136.0430  158.0955 H   0  0  0  0  0  0  0  0  0  0  0  0
  148.0339  134.2309  159.7973 H   0  0  0  0  0  0  0  0  0  0  0  0
  147.3182  134.4221  162.4874 H   0  0  0  0  0  0  0  0  0  0  0  0
  153.2010  139.7327  156.9210 H   0  0  0  0  0  0  0  0  0  0  0  0
  151.1739  137.8391  155.6063 H   0  0  0  0  0  0  0  0  0  0  0  0
  152.6983  137.3489  156.3319 H   0  0  0  0  0  0  0  0  0  0  0  0
  152.6908  138.3829  154.9098 H   0  0  0  0  0  0  0  0  0  0  0  0
  151.9437  141.3967  155.8414 H   0  0  0  0  0  0  0  0  0  0  0  0
  148.5954  141.0107  154.5610 H   0  0  0  0  0  0  0  0  0  0  0  0
  150.1311  141.8345  154.2927 H   0  0  0  0  0  0  0  0  0  0  0  0
  149.2208  142.1159  155.7843 H   0  0  0  0  0  0  0  0  0  0  0  0
  1  2  1  0  0  0  0
  1 21  1  0  0  0  0
  1 22  1  0  0  0  0
  1 23  1  0  0  0  0
  2  3  1  0  0  0  0
  2 24  1  0  0  0  0
  2 25  1  0  0  0  0
  3 18  1  0  0  0  0
  3  4  1  0  0  0  0
  3  6  1  0  0  0  0
  4  5  1  0  0  0  0
  4 26  1  0  0  0  0
  4 27  1  0  0  0  0
  5 28  1  0  0  0  0
  5 29  1  0  0  0  0
  5 30  1  0  0  0  0
  6  7  1  0  0  0  0
  6 16  1  0  0  0  0
  6 31  1  0  0  0  0
  7  8  1  0  0  0  0
  7 32  1  0  0  0  0
  8  9  2  0  0  0  0
  8 10  1  0  0  0  0
 10 11  1  0  0  0  0
 10 33  1  0  0  0  0
 10 34  1  0  0  0  0
 11 15  1  0  0  0  0
 11 12  1  0  0  0  0
 12 13  2  0  0  0  0
 12 35  1  0  0  0  0
 13 14  1  0  0  0  0
 13 36  1  0  0  0  0
 14 15  2  0  0  0  0
 16 17  1  0  0  0  0
 16 18  1  0  0  0  0
 16 37  1  0  0  0  0
 17 38  1  0  0  0  0
 17 39  1  0  0  0  0
 17 40  1  0  0  0  0
 18 19  1  0  0  0  0
 18 41  1  0  0  0  0
 19 20  1  0  0  0  0
 20 42  1  0  0  0  0
 20 43  1  0  0  0  0
 20 44  1  0  0  0  0
M  END
> <s_m_source_file>
AV-unprocessed.smi

> <i_m_source_file_index>
2525

> <i_lp_mmshare_version>
43012

> <i_f3d_flags>
0

> <s_epik_input>
W0NIM11PW0NAQEhdMVtDQEhdKFtDSDNdKVtDQEBIXShDMShbQ0gyXVtDSDNdKVtDSDJdW0NIM10pW05IXUMoPU8pW0NIMl1uMltjSF1bY0hdbm4y

> <s_epik_cmdline>
J2VwaWtfcHl0aG9uJywgJy1waCcsICc3LjAnLCAnLXRuJywgJzgnLCAnLW1hJywgJzIwMCcsICctbWV0YWxfYmluZGluZycsICctaW1hZScsICc8aW5maWxlLm1hZT4nLCAnLW9tYWUnLCAnPG91dGZpbGUubWFlPic=

> <r_lp_tautomer_probability>
1

> <r_epik_Ionization_Penalty>
1.18045e-06

> <r_epik_Ionization_Penalty_Charging>
0

> <r_epik_Ionization_Penalty_Neutral>
1.18045e-06

> <r_epik_State_Penalty>
-0

> <r_epik_Charging_Adjusted_Penalty>
0

> <i_epik_Tot_Q>
0

> <i_epik_Tot_abs_Q>
0

> <r_epik_Metal_State_Penalty>
-0

> <b_epik_Metal_Only>
0

> <s_lp_Force_Field>
OPLS_2005

> <r_lp_Energy>
28.1352

> <b_lp_Chiralities_Consistent>
1

> <s_lp_Variant>
AV-unprocessed.smi:2525-1

> <Gold.Version>
5.8.1

> <Gold.Id.Protein>
6NUR|6NUR_protein|mol2

> <Gold.PLP.Fitness>
39.4604

> <Gold.PLP.PLP>
-33.0286

> <Gold.PLP.part.hbond>
-3.5115

> <Gold.PLP.part.metal>
0.0000

> <Gold.PLP.part.buried>
-5.0272

> <Gold.PLP.part.nonpolar>
-25.3282

> <Gold.PLP.part.repulsive>
0.1308

> <Gold.PLP.ligand.clash>
0.0000

> <Gold.PLP.ligand.torsion>
1.1328

> <Gold.PLP.Chemscore.Hbond>
2.6220

> <Gold.PLP.Chemscore.CHOScore>
0.0000

> <Gold.PLP.Chemscore.Metal>
0.0000

> <Gold.Chemscore.Hbonds>
donor molecule, donor type, donor heavy atom, donor atom, acceptor molecule, acceptor atom, score
      P1  H  6896  6907       L1     9  0.94
      P1  H  6931  6943       L1    15  0.88
      P1  H  6934  6947       L1    15  0.69

> <Gold.PLP.Chemscore.Internal.Correction>
0.8314

> <Gold.Rescore>
     Score         DG    S(hbond)    S(metal)    S(lipo)     H(rot)  DE(clash)    DE(int)     intcor
     15.86     -16.93       2.32        0.00      75.13       1.98       0.06       1.01       ----

> <Gold.Chemscore.Fitness>
15.8641

> <Gold.Chemscore.DG>
-16.9326

> <Gold.Chemscore.ZeroCoef>
-5.4800

> <Gold.Chemscore.Hbond>
2.3161

> <Gold.Chemscore.Metal>
0.0000

> <Gold.Chemscore.Lipo>
75.1267

> <Gold.Chemscore.Internal_Hbond>
0.0000

> <Gold.Chemscore.DEClash>
0.0601

> <Gold.Chemscore.DEInternal>
1.0084

> <Gold.Chemscore.Rot>
1.9817

> <Gold.Chemscore.Internal.Correction>
   9.000000E+99

> <Gold.Chemscore.Hbonds>
donor molecule, donor type, donor heavy atom, donor atom, acceptor molecule, acceptor atom, score
      P1  H  6896  6907       L1     9  0.89
      P1  H  6931  6943       L1    15  0.17
      P1  H  6934  6947       L1    15  0.64

> <Gold.Chemscore.Hbond.Weighted>
-7.7358

> <Gold.Chemscore.Metal.Weighted>
-0.0000

> <Gold.Chemscore.Lipo.Weighted>
-8.7898

> <Gold.Chemscore.Internal_Hbond.Weighted>
0.0000

> <Gold.Chemscore.DEClash.Weighted>
0.0601

> <Gold.Chemscore.DEInternal.Weighted>
1.0084

> <Gold.Chemscore.Rot.Weighted>
5.0731

> <Gold.Chemscore.Internal.Correction.Weighted>
   9.000000E+99

> <Gold.Protein.RotatedTorsions>
[ 6907 6896 6895 6894 ] final  -16.07 input  -60.11 | X-H torsion
[ 7974 7965 7964 7962 ] final    4.05 input  175.53 | X-H torsion
[ 8008 7997 7996 7995 ] final  168.24 input   59.86 | X-H torsion
[ 10167 10162 10161 10158 ] final   18.32 input  -65.29 | X-H torsion
[ 10718 10713 10712 10709 ] final  -39.43 input   66.30 | X-H torsion
[ 10763 10752 10751 10750 ] final  116.92 input  -60.55 | X-H torsion
[ 11005 11000 10999 10996 ] final   21.49 input  -57.11 | X-H torsion

> <Gold.Protein.ActiveResidues>
 VAL166  LYS551  ARG553  GLY616  TRP617  ASP618  TYR619  PRO620  LYS621  CYS622 
 ASP623  PHE694  ASN695  SER759  ASP760  ASP761  ALA762  ILE779  LEU786  VAL792 
 PHE793  MET794  SER795  GLU796  ALA797  LYS798  CYS799  TRP800  GLU811  SER814 

> <Gold.Protein.RotatedAtoms>
  151.3142  135.0802  159.9282 H   0  0  0  0  0  0  0  0  0  0  0  0  # atno 6907 bound_to 6896
  152.5271  133.9705  159.7770 H   0  0  0  0  0  0  0  0  0  0  0  0  # atno 6908 bound_to 6896
  151.0014  133.6000  159.2725 H   0  0  0  0  0  0  0  0  0  0  0  0  # atno 6909 bound_to 6896
  146.2444  140.0593  142.8369 H   0  0  0  0  0  0  0  0  0  0  0  0  # atno 7974 bound_to 7965
  156.1564  140.1595  156.8686 H   0  0  0  0  0  0  0  0  0  0  0  0  # atno 8008 bound_to 7997
  154.5119  140.0799  156.8042 H   0  0  0  0  0  0  0  0  0  0  0  0  # atno 8009 bound_to 7997
  155.3795  140.3404  155.4248 H   0  0  0  0  0  0  0  0  0  0  0  0  # atno 8010 bound_to 7997
  140.5662  143.9247  150.6678 H   0  0  0  0  0  0  0  0  0  0  0  0  # atno 10167 bound_to 10162
  156.2925  130.4230  149.8224 H   0  0  0  0  0  0  0  0  0  0  0  0  # atno 10718 bound_to 10713
  153.5445  135.3552  155.2733 H   0  0  0  0  0  0  0  0  0  0  0  0  # atno 10763 bound_to 10752
  154.8714  135.4099  154.3006 H   0  0  0  0  0  0  0  0  0  0  0  0  # atno 10764 bound_to 10752
  153.3720  135.7064  153.6699 H   0  0  0  0  0  0  0  0  0  0  0  0  # atno 10765 bound_to 10752
  140.3910  134.1819  155.7662 H   0  0  0  0  0  0  0  0  0  0  0  0  # atno 11005 bound_to 11000
  145.0914  140.9287  143.4767 LP  0  0  0  0  0  0  0  0  0  0  0  0  # atno 17320 bound_to 7965
  145.0767  139.2991  143.5804 LP  0  0  0  0  0  0  0  0  0  0  0  0  # atno 17321 bound_to 7965
  140.2710  143.3456  152.1237 LP  0  0  0  0  0  0  0  0  0  0  0  0  # atno 17342 bound_to 10162
  139.5094  144.6866  151.5870 LP  0  0  0  0  0  0  0  0  0  0  0  0  # atno 17343 bound_to 10162
  156.5632  130.8392  151.3335 LP  0  0  0  0  0  0  0  0  0  0  0  0  # atno 17370 bound_to 10713
  157.7346  130.9749  150.2039 LP  0  0  0  0  0  0  0  0  0  0  0  0  # atno 17371 bound_to 10713
  141.1891  133.8246  157.0970 LP  0  0  0  0  0  0  0  0  0  0  0  0  # atno 17394 bound_to 11000
  140.0407  134.9856  157.0956 LP  0  0  0  0  0  0  0  0  0  0  0  0  # atno 17395 bound_to 11000

$$$$
