AV-unprocessed.smi:1042|AV-procd|sdf|4538|dock4
  -GOLD-   22720 2563D 1   1.00000     0.00000
 Structure written by MMmdl.
 40 42  0  0  0  0  0  0  0  0  2 V2000
  150.5923  140.6901  155.4118 O   0  0  0  0  0  0  0  0  0  0  0  0
  149.8944  141.6914  155.5738 C   0  0  0  0  0  0  0  0  0  0  0  0
  148.8698  142.0130  154.7706 N   0  0  0  0  0  0  0  0  0  0  0  0
  148.4469  141.2475  153.6018 C   0  0  0  0  0  0  0  0  0  0  0  0
  147.4864  140.0982  153.9660 C   0  0  2  0  0  0  0  0  0  0  0  0
  148.0113  139.1722  155.0589 C   0  0  0  0  0  0  0  0  0  0  0  0
  147.1429  137.9298  154.8807 C   0  0  0  0  0  0  0  0  0  0  0  0
  146.9294  137.8040  153.4229 N   0  3  1  0  0  0  0  0  0  0  0  0
  145.6345  137.1907  153.0581 C   0  0  0  0  0  0  0  0  0  0  0  0
  145.6824  135.6840  152.9695 C   0  0  0  0  0  0  0  0  0  0  0  0
  145.6463  136.5176  151.7066 C   0  0  0  0  0  0  0  0  0  0  0  0
  147.1625  139.1349  152.8140 C   0  0  0  0  0  0  0  0  0  0  0  0
  150.0460  142.5966  156.5565 N   0  0  0  0  0  0  0  0  0  0  0  0
  150.9895  142.5890  157.6182 C   0  0  0  0  0  0  0  0  0  0  0  0
  151.4174  143.8656  158.0477 C   0  0  0  0  0  0  0  0  0  0  0  0
  152.3510  143.9664  159.0975 C   0  0  0  0  0  0  0  0  0  0  0  0
  152.8307  142.7866  159.6934 C   0  0  0  0  0  0  0  0  0  0  0  0
  152.3521  141.5561  159.2071 C   0  0  0  0  0  0  0  0  0  0  0  0
  151.4581  141.4572  158.2005 N   0  0  0  0  0  0  0  0  0  0  0  0
  148.3553  142.8579  154.9722 H   0  0  0  0  0  0  0  0  0  0  0  0
  147.9616  141.9353  152.9088 H   0  0  0  0  0  0  0  0  0  0  0  0
  149.3241  140.8562  153.0837 H   0  0  0  0  0  0  0  0  0  0  0  0
  146.5455  140.5194  154.3247 H   0  0  0  0  0  0  0  0  0  0  0  0
  149.0587  138.9243  154.8798 H   0  0  0  0  0  0  0  0  0  0  0  0
  147.9307  139.6047  156.0567 H   0  0  0  0  0  0  0  0  0  0  0  0
  147.6014  137.0323  155.2967 H   0  0  0  0  0  0  0  0  0  0  0  0
  146.1863  138.0819  155.3838 H   0  0  0  0  0  0  0  0  0  0  0  0
  144.7392  137.6959  153.4170 H   0  0  0  0  0  0  0  0  0  0  0  0
  146.6169  135.1825  153.2148 H   0  0  0  0  0  0  0  0  0  0  0  0
  144.7790  135.1367  153.2313 H   0  0  0  0  0  0  0  0  0  0  0  0
  144.7195  136.5182  151.1367 H   0  0  0  0  0  0  0  0  0  0  0  0
  146.5570  136.5703  151.1124 H   0  0  0  0  0  0  0  0  0  0  0  0
  146.3070  139.4859  152.2343 H   0  0  0  0  0  0  0  0  0  0  0  0
  148.0072  139.0467  152.1296 H   0  0  0  0  0  0  0  0  0  0  0  0
  149.4100  143.3801  156.5486 H   0  0  0  0  0  0  0  0  0  0  0  0
  151.0384  144.7624  157.5793 H   0  0  0  0  0  0  0  0  0  0  0  0
  152.6921  144.9325  159.4393 H   0  0  0  0  0  0  0  0  0  0  0  0
  153.5467  142.8232  160.5011 H   0  0  0  0  0  0  0  0  0  0  0  0
  152.6956  140.6269  159.6370 H   0  0  0  0  0  0  0  0  0  0  0  0
  147.6594  137.2008  153.0716 H   0  0  0  0  0  0  0  0  0  0  0  0
  1  2  2  0  0  0  0
  2  3  1  0  0  0  0
  2 13  1  0  0  0  0
  3  4  1  0  0  0  0
  3 20  1  0  0  0  0
  4  5  1  0  0  0  0
  4 21  1  0  0  0  0
  4 22  1  0  0  0  0
  5 12  1  0  0  0  0
  5  6  1  0  0  0  0
  5 23  1  0  0  0  0
  6  7  1  0  0  0  0
  6 24  1  0  0  0  0
  6 25  1  0  0  0  0
  7  8  1  0  0  0  0
  7 26  1  0  0  0  0
  7 27  1  0  0  0  0
  8  9  1  0  0  0  0
  8 12  1  0  0  0  0
  8 40  1  0  0  0  0
  9 11  1  0  0  0  0
  9 10  1  0  0  0  0
  9 28  1  0  0  0  0
 10 11  1  0  0  0  0
 10 29  1  0  0  0  0
 10 30  1  0  0  0  0
 11 31  1  0  0  0  0
 11 32  1  0  0  0  0
 12 33  1  0  0  0  0
 12 34  1  0  0  0  0
 13 14  1  0  0  0  0
 13 35  1  0  0  0  0
 14 19  1  0  0  0  0
 14 15  2  0  0  0  0
 15 16  1  0  0  0  0
 15 36  1  0  0  0  0
 16 17  2  0  0  0  0
 16 37  1  0  0  0  0
 17 18  1  0  0  0  0
 17 38  1  0  0  0  0
 18 19  2  0  0  0  0
 18 39  1  0  0  0  0
M  CHG  1   8   1
M  END
> <s_m_source_file>
AV-unprocessed.smi

> <i_m_source_file_index>
1042

> <i_lp_mmshare_version>
43012

> <i_f3d_flags>
0

> <s_epik_input>
bjFbY0hdW2NIXVtjSF1bY0hdYzFbTkhdQyg9TylbTkhdW0NIMl1bQ0BASF0yW0NIMl1bQ0gyXU4oW0NIMl0yKVtDSF0zW0NIMl1bQ0gyXTM=

> <s_epik_cmdline>
J2VwaWtfcHl0aG9uJywgJy1waCcsICc3LjAnLCAnLXRuJywgJzgnLCAnLW1hJywgJzIwMCcsICctbWV0YWxfYmluZGluZycsICctaW1hZScsICc8aW5maWxlLm1hZT4nLCAnLW9tYWUnLCAnPG91dGZpbGUubWFlPic=

> <r_lp_tautomer_probability>
1

> <r_epik_Ionization_Penalty>
0.000244736

> <r_epik_Ionization_Penalty_Charging>
0.000203384

> <r_epik_Ionization_Penalty_Neutral>
4.13519e-05

> <r_epik_State_Penalty>
-0

> <r_epik_Charging_Adjusted_Penalty>
0.000203384

> <i_epik_Tot_Q>
1

> <i_epik_Tot_abs_Q>
1

> <r_epik_Metal_State_Penalty>
-0

> <b_epik_Metal_Only>
0

> <s_lp_Force_Field>
OPLS_2005

> <r_lp_Energy>
38.555

> <b_lp_Chiralities_Consistent>
1

> <s_lp_Variant>
AV-unprocessed.smi:1042-3

> <Gold.Version>
5.8.1

> <Gold.Id.Protein>
6NUR|6NUR_protein|mol2

> <Gold.PLP.Fitness>
46.5849

> <Gold.PLP.PLP>
-33.5803

> <Gold.PLP.part.hbond>
-4.0000

> <Gold.PLP.part.metal>
0.0000

> <Gold.PLP.part.buried>
-0.1262

> <Gold.PLP.part.nonpolar>
-29.0505

> <Gold.PLP.part.repulsive>
0.4090

> <Gold.PLP.ligand.clash>
0.0000

> <Gold.PLP.ligand.torsion>
1.0518

> <Gold.PLP.Chemscore.Hbond>
4.6162

> <Gold.PLP.Chemscore.CHOScore>
0.0000

> <Gold.PLP.Chemscore.Metal>
0.0000

> <Gold.Chemscore.Hbonds>
donor molecule, donor type, donor heavy atom, donor atom, acceptor molecule, acceptor atom, score
      L1  H     3    20       P1  8028  0.70
      L1  H     8    40       P1  7948  2.00
      L1  H    13    35       P1  8028  0.90
      P1  H  7989  7998       L1     1  0.56

> <Gold.PLP.Chemscore.Internal.Correction>
1.2596

> <Gold.Rescore>
     Score         DG    S(hbond)    S(metal)    S(lipo)     H(rot)  DE(clash)    DE(int)     intcor
     18.46     -22.89       3.28        0.00      87.27       1.47       2.28       2.15       ----

> <Gold.Chemscore.Fitness>
18.4620

> <Gold.Chemscore.DG>
-22.8910

> <Gold.Chemscore.ZeroCoef>
-5.4800

> <Gold.Chemscore.Hbond>
3.2829

> <Gold.Chemscore.Metal>
0.0000

> <Gold.Chemscore.Lipo>
87.2739

> <Gold.Chemscore.Internal_Hbond>
0.0000

> <Gold.Chemscore.DEClash>
2.2814

> <Gold.Chemscore.DEInternal>
2.1476

> <Gold.Chemscore.Rot>
1.4707

> <Gold.Chemscore.Internal.Correction>
   9.000000E+99

> <Gold.Chemscore.Hbonds>
donor molecule, donor type, donor heavy atom, donor atom, acceptor molecule, acceptor atom, score
      L1  H     3    20       P1  8028  0.65
      L1  H     8    40       P1  7948  0.94
      L1  H    13    35       P1  8028  0.88
      P1  H  7989  7998       L1     1  0.35

> <Gold.Chemscore.Hbond.Weighted>
-10.9650

> <Gold.Chemscore.Metal.Weighted>
-0.0000

> <Gold.Chemscore.Lipo.Weighted>
-10.2111

> <Gold.Chemscore.Internal_Hbond.Weighted>
0.0000

> <Gold.Chemscore.DEClash.Weighted>
2.2814

> <Gold.Chemscore.DEInternal.Weighted>
2.1476

> <Gold.Chemscore.Rot.Weighted>
3.7650

> <Gold.Chemscore.Internal.Correction.Weighted>
   9.000000E+99

> <Gold.Protein.RotatedTorsions>
[ 6907 6896 6895 6894 ] final -159.22 input  -60.11 | X-H torsion
[ 7974 7965 7964 7962 ] final   46.24 input  175.53 | X-H torsion
[ 8008 7997 7996 7995 ] final  156.93 input   59.86 | X-H torsion
[ 10167 10162 10161 10158 ] final -139.09 input  -65.29 | X-H torsion
[ 10718 10713 10712 10709 ] final   33.74 input   66.30 | X-H torsion
[ 10763 10752 10751 10750 ] final -142.64 input  -60.55 | X-H torsion
[ 11005 11000 10999 10996 ] final  146.70 input  -57.11 | X-H torsion

> <Gold.Protein.ActiveResidues>
 VAL166  LYS551  ARG553  GLY616  TRP617  ASP618  TYR619  PRO620  LYS621  CYS622 
 ASP623  PHE694  ASN695  SER759  ASP760  ASP761  ALA762  ILE779  LEU786  VAL792 
 PHE793  MET794  SER795  GLU796  ALA797  LYS798  CYS799  TRP800  GLU811  SER814 

> <Gold.Protein.RotatedAtoms>
  151.3302  133.4004  159.2661 H   0  0  0  0  0  0  0  0  0  0  0  0  # atno 6907 bound_to 6896
  150.9962  134.9286  159.7938 H   0  0  0  0  0  0  0  0  0  0  0  0  # atno 6908 bound_to 6896
  152.5262  134.3267  159.9220 H   0  0  0  0  0  0  0  0  0  0  0  0  # atno 6909 bound_to 6896
  146.0408  139.4878  142.9779 H   0  0  0  0  0  0  0  0  0  0  0  0  # atno 7974 bound_to 7965
  156.2394  140.1899  156.7030 H   0  0  0  0  0  0  0  0  0  0  0  0  # atno 8008 bound_to 7997
  154.6168  140.0614  156.9591 H   0  0  0  0  0  0  0  0  0  0  0  0  # atno 8009 bound_to 7997
  155.1927  140.3285  155.4358 H   0  0  0  0  0  0  0  0  0  0  0  0  # atno 8010 bound_to 7997
  139.8414  143.7317  152.2663 H   0  0  0  0  0  0  0  0  0  0  0  0  # atno 10167 bound_to 10162
  157.3016  130.7353  149.6670 H   0  0  0  0  0  0  0  0  0  0  0  0  # atno 10718 bound_to 10713
  154.8501  135.3490  154.6060 H   0  0  0  0  0  0  0  0  0  0  0  0  # atno 10763 bound_to 10752
  153.6668  135.6987  153.5164 H   0  0  0  0  0  0  0  0  0  0  0  0  # atno 10764 bound_to 10752
  153.2774  135.4274  155.1003 H   0  0  0  0  0  0  0  0  0  0  0  0  # atno 10765 bound_to 10752
  140.0814  134.9094  157.1507 H   0  0  0  0  0  0  0  0  0  0  0  0  # atno 11005 bound_to 11000
  145.6888  141.0170  143.1567 LP  0  0  0  0  0  0  0  0  0  0  0  0  # atno 17320 bound_to 7965
  144.7073  139.8507  143.7426 LP  0  0  0  0  0  0  0  0  0  0  0  0  # atno 17321 bound_to 7965
  139.7555  144.7522  151.0442 LP  0  0  0  0  0  0  0  0  0  0  0  0  # atno 17342 bound_to 10162
  140.7797  143.4810  151.0018 LP  0  0  0  0  0  0  0  0  0  0  0  0  # atno 17343 bound_to 10162
  155.9672  130.4278  150.4760 LP  0  0  0  0  0  0  0  0  0  0  0  0  # atno 17370 bound_to 10713
  157.2742  131.0593  151.2240 LP  0  0  0  0  0  0  0  0  0  0  0  0  # atno 17371 bound_to 10713
  140.3482  134.2628  155.7202 LP  0  0  0  0  0  0  0  0  0  0  0  0  # atno 17394 bound_to 11000
  141.2048  133.7877  157.0268 LP  0  0  0  0  0  0  0  0  0  0  0  0  # atno 17395 bound_to 11000

$$$$
