AV-unprocessed.smi:229|AV-procd|sdf|1761|dock6
  -GOLD-   2262020293D 1   1.00000     0.00000
 Structure written by MMmdl.
 58 62  0  0  0  0  0  0  0  0  1 V2000
  151.7739  129.8158  160.0418 C   0  0  0  0  0  0  0  0  0  0  0  0
  152.9812  130.6158  159.5370 C   0  0  0  0  0  0  0  0  0  0  0  0
  152.9599  130.8352  158.0169 C   0  0  2  0  0  0  0  0  0  0  0  0
  151.7061  131.6041  157.5655 C   0  0  0  0  0  0  0  0  0  0  0  0
  151.6786  131.6940  156.1102 N   0  0  0  0  0  0  0  0  0  0  0  0
  150.8186  132.5705  155.5353 C   0  0  0  0  0  0  0  0  0  0  0  0
  150.9103  133.8984  155.8147 N   0  0  0  0  0  0  0  0  0  0  0  0
  150.0587  134.7651  155.2581 C   0  0  0  0  0  0  0  0  0  0  0  0
  149.0608  134.5243  154.4053 N   0  0  0  0  0  0  0  0  0  0  0  0
  148.9709  133.1952  154.1142 C   0  0  0  0  0  0  0  0  0  0  0  0
  149.7992  132.1596  154.6312 C   0  0  0  0  0  0  0  0  0  0  0  0
  149.4119  130.9346  154.0997 N   0  0  0  0  0  0  0  0  0  0  0  0
  148.4094  131.2286  153.3173 C   0  0  0  0  0  0  0  0  0  0  0  0
  148.0825  132.5646  153.2621 N   0  0  0  0  0  0  0  0  0  0  0  0
  147.0235  133.1716  152.4743 C   0  0  0  0  0  0  0  0  0  0  0  0
  145.6170  132.7046  152.9095 C   0  0  1  0  0  0  0  0  0  0  0  0
  145.2253  133.4730  154.0316 O   0  0  0  0  0  0  0  0  0  0  0  0
  144.5494  132.8922  151.8128 C   0  0  1  0  0  0  0  0  0  0  0  0
  144.6178  134.2281  151.0713 C   0  0  0  0  0  0  0  0  0  0  0  0
  143.9240  133.9334  149.7530 C   0  0  0  0  0  0  0  0  0  0  0  0
  144.0255  132.4119  149.6209 C   0  0  0  0  0  0  0  0  0  0  0  0
  144.7830  131.9843  150.7457 O   0  0  0  0  0  0  0  0  0  0  0  0
  151.7528  130.3927  155.4563 C   0  0  0  0  0  0  0  0  0  0  0  0
  152.9846  129.6005  155.9470 C   0  0  2  0  0  0  0  0  0  0  0  0
  154.3122  130.1392  155.4023 C   0  0  0  0  0  0  0  0  0  0  0  0
  154.6699  129.1627  154.2912 C   0  0  0  0  0  0  0  0  0  0  0  0
  154.2345  127.9277  154.8275 O   0  0  0  0  0  0  0  0  0  0  0  0
  152.9617  128.1535  155.4175 C   0  0  0  0  0  0  0  0  0  0  0  0
  152.9809  129.5576  157.3774 O   0  0  0  0  0  0  0  0  0  0  0  0
  151.8332  129.6629  161.1195 H   0  0  0  0  0  0  0  0  0  0  0  0
  151.7255  128.8347  159.5686 H   0  0  0  0  0  0  0  0  0  0  0  0
  150.8387  130.3359  159.8321 H   0  0  0  0  0  0  0  0  0  0  0  0
  153.0202  131.5787  160.0478 H   0  0  0  0  0  0  0  0  0  0  0  0
  153.8930  130.0849  159.8122 H   0  0  0  0  0  0  0  0  0  0  0  0
  153.8466  131.4056  157.7367 H   0  0  0  0  0  0  0  0  0  0  0  0
  150.8050  131.0980  157.9155 H   0  0  0  0  0  0  0  0  0  0  0  0
  151.7106  132.6038  158.0025 H   0  0  0  0  0  0  0  0  0  0  0  0
  150.1971  135.7995  155.5361 H   0  0  0  0  0  0  0  0  0  0  0  0
  147.8822  130.4749  152.7499 H   0  0  0  0  0  0  0  0  0  0  0  0
  147.1052  134.2565  152.5561 H   0  0  0  0  0  0  0  0  0  0  0  0
  147.2060  132.9235  151.4284 H   0  0  0  0  0  0  0  0  0  0  0  0
  145.6586  131.6543  153.2012 H   0  0  0  0  0  0  0  0  0  0  0  0
  144.4068  133.1308  154.3566 H   0  0  0  0  0  0  0  0  0  0  0  0
  143.5438  132.7451  152.2124 H   0  0  0  0  0  0  0  0  0  0  0  0
  144.1480  135.0442  151.6210 H   0  0  0  0  0  0  0  0  0  0  0  0
  145.6576  134.4999  150.8837 H   0  0  0  0  0  0  0  0  0  0  0  0
  142.8778  134.2398  149.7862 H   0  0  0  0  0  0  0  0  0  0  0  0
  144.4025  134.4547  148.9231 H   0  0  0  0  0  0  0  0  0  0  0  0
  143.0352  131.9559  149.6552 H   0  0  0  0  0  0  0  0  0  0  0  0
  144.5093  132.1055  148.6931 H   0  0  0  0  0  0  0  0  0  0  0  0
  150.8418  129.8413  155.6936 H   0  0  0  0  0  0  0  0  0  0  0  0
  151.7838  130.4897  154.3713 H   0  0  0  0  0  0  0  0  0  0  0  0
  154.2578  131.1711  155.0536 H   0  0  0  0  0  0  0  0  0  0  0  0
  155.0837  130.0888  156.1719 H   0  0  0  0  0  0  0  0  0  0  0  0
  154.1193  129.3873  153.3760 H   0  0  0  0  0  0  0  0  0  0  0  0
  155.7358  129.1523  154.0635 H   0  0  0  0  0  0  0  0  0  0  0  0
  152.7634  127.4194  156.1991 H   0  0  0  0  0  0  0  0  0  0  0  0
  152.1996  128.0264  154.6470 H   0  0  0  0  0  0  0  0  0  0  0  0
  1  2  1  0  0  0  0
  1 30  1  0  0  0  0
  1 31  1  0  0  0  0
  1 32  1  0  0  0  0
  2  3  1  0  0  0  0
  2 33  1  0  0  0  0
  2 34  1  0  0  0  0
  3 29  1  0  0  0  0
  3  4  1  0  0  0  0
  3 35  1  0  0  0  0
  4  5  1  0  0  0  0
  4 36  1  0  0  0  0
  4 37  1  0  0  0  0
  5  6  1  0  0  0  0
  5 23  1  0  0  0  0
  6 11  1  0  0  0  0
  6  7  2  0  0  0  0
  7  8  1  0  0  0  0
  8  9  2  0  0  0  0
  8 38  1  0  0  0  0
  9 10  1  0  0  0  0
 10 14  1  0  0  0  0
 10 11  2  0  0  0  0
 11 12  1  0  0  0  0
 12 13  2  0  0  0  0
 13 14  1  0  0  0  0
 13 39  1  0  0  0  0
 14 15  1  0  0  0  0
 15 16  1  0  0  0  0
 15 40  1  0  0  0  0
 15 41  1  0  0  0  0
 16 17  1  0  0  0  0
 16 18  1  0  0  0  0
 16 42  1  0  0  0  0
 17 43  1  0  0  0  0
 18 22  1  0  0  0  0
 18 19  1  0  0  0  0
 18 44  1  0  0  0  0
 19 20  1  0  0  0  0
 19 45  1  0  0  0  0
 19 46  1  0  0  0  0
 20 21  1  0  0  0  0
 20 47  1  0  0  0  0
 20 48  1  0  0  0  0
 21 22  1  0  0  0  0
 21 49  1  0  0  0  0
 21 50  1  0  0  0  0
 23 24  1  0  0  0  0
 23 51  1  0  0  0  0
 23 52  1  0  0  0  0
 24 28  1  0  0  0  0
 24 25  1  0  0  0  0
 24 29  1  0  0  0  0
 25 26  1  0  0  0  0
 25 53  1  0  0  0  0
 25 54  1  0  0  0  0
 26 27  1  0  0  0  0
 26 55  1  0  0  0  0
 26 56  1  0  0  0  0
 27 28  1  0  0  0  0
 28 57  1  0  0  0  0
 28 58  1  0  0  0  0
M  END
> <s_m_source_file>
AV-unprocessed.smi

> <i_m_source_file_index>
229

> <i_lp_mmshare_version>
43012

> <i_f3d_flags>
0

> <s_epik_input>
W0NIMl0xT1tDSDJdW0NIMl1bQ0BdMTJbQ0gyXU4oW0NIMl1bQ0BIXShPMilbQ0gyXVtDSDNdKWMobltjSF1uMyljKGMzNCluW2NIXW40W0NIMl1bQ0BIXShbT0hdKVtDQEBIXTVbQ0gyXVtDSDJdW0NIMl1PNQ==

> <s_epik_cmdline>
J2VwaWtfcHl0aG9uJywgJy1waCcsICc3LjAnLCAnLXRuJywgJzgnLCAnLW1hJywgJzIwMCcsICctbWV0YWxfYmluZGluZycsICctaW1hZScsICc8aW5maWxlLm1hZT4nLCAnLW9tYWUnLCAnPG91dGZpbGUubWFlPic=

> <r_lp_tautomer_probability>
1

> <r_epik_Ionization_Penalty>
0.00318402

> <r_epik_Ionization_Penalty_Charging>
0

> <r_epik_Ionization_Penalty_Neutral>
0.00318402

> <r_epik_State_Penalty>
0.00215642

> <r_epik_Charging_Adjusted_Penalty>
0.00215642

> <i_epik_Tot_Q>
0

> <i_epik_Tot_abs_Q>
0

> <r_epik_Metal_State_Penalty>
-0

> <b_epik_Metal_Only>
0

> <s_lp_Force_Field>
OPLS_2005

> <r_lp_Energy>
54.7562

> <b_lp_Chiralities_Consistent>
1

> <s_lp_Variant>
AV-unprocessed.smi:229-15

> <Gold.Version>
5.8.1

> <Gold.Id.Protein>
6NUR|6NUR_protein|mol2

> <Gold.PLP.Fitness>
42.4956

> <Gold.PLP.PLP>
-38.6658

> <Gold.PLP.part.hbond>
-1.0000

> <Gold.PLP.part.metal>
0.0000

> <Gold.PLP.part.buried>
-3.0712

> <Gold.PLP.part.nonpolar>
-35.5442

> <Gold.PLP.part.repulsive>
0.4014

> <Gold.PLP.ligand.clash>
0.0000

> <Gold.PLP.ligand.torsion>
0.6437

> <Gold.PLP.Chemscore.Hbond>
1.0000

> <Gold.PLP.Chemscore.CHOScore>
0.5719

> <Gold.PLP.Chemscore.Metal>
0.0000

> <Gold.Chemscore.Hbonds>
donor molecule, donor type, donor heavy atom, donor atom, acceptor molecule, acceptor atom, score
      L1  H    17    43       P1 10957  0.46
      L1  C    13    39       P1 10747  0.22

> <Gold.PLP.Chemscore.Internal.Correction>
0.4015

> <Gold.Rescore>
     Score         DG    S(hbond)    S(metal)    S(lipo)     H(rot)  DE(clash)    DE(int)     intcor
      9.74     -12.16       0.94        0.00      84.18       2.46       0.24       2.18       ----

> <Gold.Chemscore.Fitness>
9.7440

> <Gold.Chemscore.DG>
-12.1601

> <Gold.Chemscore.ZeroCoef>
-5.4800

> <Gold.Chemscore.Hbond>
0.9360

> <Gold.Chemscore.Metal>
0.0000

> <Gold.Chemscore.Lipo>
84.1821

> <Gold.Chemscore.Internal_Hbond>
0.0000

> <Gold.Chemscore.DEClash>
0.2389

> <Gold.Chemscore.DEInternal>
2.1772

> <Gold.Chemscore.Rot>
2.4591

> <Gold.Chemscore.Internal.Correction>
   9.000000E+99

> <Gold.Chemscore.Hbonds>
donor molecule, donor type, donor heavy atom, donor atom, acceptor molecule, acceptor atom, score
      L1  H    17    43       P1 10957  0.45

> <Gold.Chemscore.Hbond.Weighted>
-3.1261

> <Gold.Chemscore.Metal.Weighted>
-0.0000

> <Gold.Chemscore.Lipo.Weighted>
-9.8493

> <Gold.Chemscore.Internal_Hbond.Weighted>
0.0000

> <Gold.Chemscore.DEClash.Weighted>
0.2389

> <Gold.Chemscore.DEInternal.Weighted>
2.1772

> <Gold.Chemscore.Rot.Weighted>
6.2953

> <Gold.Chemscore.Internal.Correction.Weighted>
   9.000000E+99

> <Gold.Protein.RotatedTorsions>
[ 6907 6896 6895 6894 ] final  -10.23 input  -60.11 | X-H torsion
[ 7974 7965 7964 7962 ] final  -67.36 input  175.53 | X-H torsion
[ 8008 7997 7996 7995 ] final  129.63 input   59.86 | X-H torsion
[ 10167 10162 10161 10158 ] final  128.62 input  -65.29 | X-H torsion
[ 10718 10713 10712 10709 ] final -171.79 input   66.30 | X-H torsion
[ 10763 10752 10751 10750 ] final -133.42 input  -60.55 | X-H torsion
[ 11005 11000 10999 10996 ] final  -49.89 input  -57.11 | X-H torsion

> <Gold.Protein.ActiveResidues>
 VAL166  LYS551  ARG553  GLY616  TRP617  ASP618  TYR619  PRO620  LYS621  CYS622 
 ASP623  PHE694  ASN695  SER759  ASP760  ASP761  ALA762  ILE779  LEU786  VAL792 
 PHE793  MET794  SER795  GLU796  ALA797  LYS798  CYS799  TRP800  GLU811  SER814 

> <Gold.Protein.RotatedAtoms>
  151.4052  135.0977  159.9567 H   0  0  0  0  0  0  0  0  0  0  0  0  # atno 6907 bound_to 6896
  152.5038  133.8850  159.7376 H   0  0  0  0  0  0  0  0  0  0  0  0  # atno 6908 bound_to 6896
  150.9333  133.6685  159.2834 H   0  0  0  0  0  0  0  0  0  0  0  0  # atno 6909 bound_to 6896
  145.7302  140.9000  143.0584 H   0  0  0  0  0  0  0  0  0  0  0  0  # atno 7974 bound_to 7965
  156.2940  140.2616  156.2630 H   0  0  0  0  0  0  0  0  0  0  0  0  # atno 8008 bound_to 7997
  154.9770  140.0390  157.2279 H   0  0  0  0  0  0  0  0  0  0  0  0  # atno 8009 bound_to 7997
  154.7807  140.2794  155.6071 H   0  0  0  0  0  0  0  0  0  0  0  0  # atno 8010 bound_to 7997
  139.5518  144.6819  151.4301 H   0  0  0  0  0  0  0  0  0  0  0  0  # atno 10167 bound_to 10162
  156.7460  130.9360  151.3112 H   0  0  0  0  0  0  0  0  0  0  0  0  # atno 10718 bound_to 10713
  154.8733  135.3766  154.4570 H   0  0  0  0  0  0  0  0  0  0  0  0  # atno 10763 bound_to 10752
  153.5241  135.7028  153.5721 H   0  0  0  0  0  0  0  0  0  0  0  0  # atno 10764 bound_to 10752
  153.3955  135.3961  155.1918 H   0  0  0  0  0  0  0  0  0  0  0  0  # atno 10765 bound_to 10752
  141.0785  133.6659  156.3652 H   0  0  0  0  0  0  0  0  0  0  0  0  # atno 11005 bound_to 11000
  144.6895  139.9320  143.7472 LP  0  0  0  0  0  0  0  0  0  0  0  0  # atno 17320 bound_to 7965
  146.0545  139.3543  143.0619 LP  0  0  0  0  0  0  0  0  0  0  0  0  # atno 17321 bound_to 7965
  140.6782  143.8141  150.7086 LP  0  0  0  0  0  0  0  0  0  0  0  0  # atno 17342 bound_to 10162
  140.1587  143.4294  152.2082 LP  0  0  0  0  0  0  0  0  0  0  0  0  # atno 17343 bound_to 10162
  157.6798  130.9129  150.0238 LP  0  0  0  0  0  0  0  0  0  0  0  0  # atno 17370 bound_to 10713
  156.1433  130.3642  149.9549 LP  0  0  0  0  0  0  0  0  0  0  0  0  # atno 17371 bound_to 10713
  140.5520  134.6018  157.5410 LP  0  0  0  0  0  0  0  0  0  0  0  0  # atno 17394 bound_to 11000
  139.9598  134.7472  156.0262 LP  0  0  0  0  0  0  0  0  0  0  0  0  # atno 17395 bound_to 11000

$$$$
