AV-unprocessed.smi:3237|AV-procd|sdf|12368|dock4
  -GOLD-   2272018233D 1   1.00000     0.00000
 Structure written by MMmdl.
 36 38  0  0  0  0  0  0  0  0  3 V2000
  145.8393  134.8041  162.7689 C   0  0  0  0  0  0  0  0  0  0  0  0
  146.8111  135.3929  161.8046 C   0  0  0  0  0  0  0  0  0  0  0  0
  147.6798  134.8400  160.9070 C   0  0  0  0  0  0  0  0  0  0  0  0
  148.3082  135.9736  160.3230 C   0  0  0  0  0  0  0  0  0  0  0  0
  149.2460  135.9487  159.3635 N   0  5  0  0  0  0  0  0  0  0  0  0
  149.6132  137.0919  158.7415 C   0  0  0  0  0  0  0  0  0  0  0  0
  149.9617  138.1431  159.2839 O   0  0  0  0  0  0  0  0  0  0  0  0
  149.5763  137.0117  157.4045 N   0  0  0  0  0  0  0  0  0  0  0  0
  149.9225  138.0864  156.4818 C   0  0  1  0  0  0  0  0  0  0  0  0
  151.0185  137.7352  155.4805 C   0  0  0  0  0  0  0  0  0  0  0  0
  150.7949  138.7649  154.3678 C   0  0  0  0  0  0  0  0  0  0  0  0
  149.3545  139.1227  154.3987 N   0  3  2  0  0  0  0  0  0  0  0  0
  149.1074  140.5810  154.3698 C   0  0  0  0  0  0  0  0  0  0  0  0
  147.8385  140.9933  155.0769 C   0  0  0  0  0  0  0  0  0  0  0  0
  147.8911  140.9717  153.5646 C   0  0  0  0  0  0  0  0  0  0  0  0
  148.7531  138.4442  155.5674 C   0  0  0  0  0  0  0  0  0  0  0  0
  147.8493  137.1138  160.8108 N   0  0  0  0  0  0  0  0  0  0  0  0
  146.8942  136.7501  161.7676 O   0  0  0  0  0  0  0  0  0  0  0  0
  145.4173  133.8787  162.3768 H   0  0  0  0  0  0  0  0  0  0  0  0
  145.0170  135.4924  162.9656 H   0  0  0  0  0  0  0  0  0  0  0  0
  146.3271  134.5790  163.7172 H   0  0  0  0  0  0  0  0  0  0  0  0
  147.8434  133.7925  160.7031 H   0  0  0  0  0  0  0  0  0  0  0  0
  149.2826  136.1334  157.0022 H   0  0  0  0  0  0  0  0  0  0  0  0
  150.2139  138.9754  157.0449 H   0  0  0  0  0  0  0  0  0  0  0  0
  152.0201  137.7867  155.9087 H   0  0  0  0  0  0  0  0  0  0  0  0
  150.8681  136.7266  155.0920 H   0  0  0  0  0  0  0  0  0  0  0  0
  151.4071  139.6472  154.5630 H   0  0  0  0  0  0  0  0  0  0  0  0
  151.0808  138.3779  153.3895 H   0  0  0  0  0  0  0  0  0  0  0  0
  149.9868  141.2225  154.3930 H   0  0  0  0  0  0  0  0  0  0  0  0
  147.2509  140.2218  155.5715 H   0  0  0  0  0  0  0  0  0  0  0  0
  147.8288  141.9674  155.5618 H   0  0  0  0  0  0  0  0  0  0  0  0
  147.9150  141.9316  153.0529 H   0  0  0  0  0  0  0  0  0  0  0  0
  147.3377  140.1859  153.0531 H   0  0  0  0  0  0  0  0  0  0  0  0
  148.2589  137.5394  155.2101 H   0  0  0  0  0  0  0  0  0  0  0  0
  148.0004  139.0517  156.0722 H   0  0  0  0  0  0  0  0  0  0  0  0
  148.9203  138.7300  153.5758 H   0  0  0  0  0  0  0  0  0  0  0  0
  1  2  1  0  0  0  0
  1 19  1  0  0  0  0
  1 20  1  0  0  0  0
  1 21  1  0  0  0  0
  2 18  1  0  0  0  0
  2  3  2  0  0  0  0
  3  4  1  0  0  0  0
  3 22  1  0  0  0  0
  4  5  1  0  0  0  0
  4 17  2  0  0  0  0
  5  6  1  0  0  0  0
  6  7  2  0  0  0  0
  6  8  1  0  0  0  0
  8  9  1  0  0  0  0
  8 23  1  0  0  0  0
  9 16  1  0  0  0  0
  9 10  1  0  0  0  0
  9 24  1  0  0  0  0
 10 11  1  0  0  0  0
 10 25  1  0  0  0  0
 10 26  1  0  0  0  0
 11 12  1  0  0  0  0
 11 27  1  0  0  0  0
 11 28  1  0  0  0  0
 12 13  1  0  0  0  0
 12 16  1  0  0  0  0
 12 36  1  0  0  0  0
 13 15  1  0  0  0  0
 13 14  1  0  0  0  0
 13 29  1  0  0  0  0
 14 15  1  0  0  0  0
 14 30  1  0  0  0  0
 14 31  1  0  0  0  0
 15 32  1  0  0  0  0
 15 33  1  0  0  0  0
 16 34  1  0  0  0  0
 16 35  1  0  0  0  0
 17 18  1  0  0  0  0
M  CHG  1   5  -1
M  CHG  1  12   1
M  END
> <s_m_source_file>
AV-unprocessed.smi

> <i_m_source_file_index>
3237

> <i_lp_mmshare_version>
43012

> <i_f3d_flags>
0

> <s_epik_input>
W0NIM11jMVtjSF1jKG5vMSlbTkhdQyg9TylbTkhdW0NAQEhdMltDSDJdW0NIMl1OKFtDSDJdMilbQ0hdM1tDSDJdW0NIMl0z

> <s_epik_cmdline>
J2VwaWtfcHl0aG9uJywgJy1waCcsICc3LjAnLCAnLXRuJywgJzgnLCAnLW1hJywgJzIwMCcsICctbWV0YWxfYmluZGluZycsICctaW1hZScsICc8aW5maWxlLm1hZT4nLCAnLW9tYWUnLCAnPG91dGZpbGUubWFlPic=

> <r_epik_Ionization_Penalty>
6.08472

> <r_epik_Ionization_Penalty_Charging>
6.08464

> <r_epik_Ionization_Penalty_Neutral>
8.41751e-05

> <r_epik_State_Penalty>
6.08438

> <r_epik_Charging_Adjusted_Penalty>
12.169

> <i_epik_Tot_Q>
0

> <i_epik_Tot_abs_Q>
2

> <r_epik_Metal_State_Penalty>
2.0369

> <b_epik_Metal_Only>
1

> <s_lp_Force_Field>
OPLS_2005

> <r_lp_Energy>
24.4971

> <b_lp_Chiralities_Consistent>
1

> <s_lp_Variant>
AV-unprocessed.smi:3237-6

> <Gold.Version>
5.8.1

> <Gold.Id.Protein>
6NUR|6NUR_protein|mol2

> <Gold.PLP.Fitness>
36.8794

> <Gold.PLP.PLP>
-28.3559

> <Gold.PLP.part.hbond>
-4.0000

> <Gold.PLP.part.metal>
0.0000

> <Gold.PLP.part.buried>
-5.6250

> <Gold.PLP.part.nonpolar>
-20.7551

> <Gold.PLP.part.repulsive>
0.0966

> <Gold.PLP.ligand.clash>
0.0000

> <Gold.PLP.ligand.torsion>
1.3595

> <Gold.PLP.Chemscore.Hbond>
3.3244

> <Gold.PLP.Chemscore.CHOScore>
0.0000

> <Gold.PLP.Chemscore.Metal>
0.0000

> <Gold.Chemscore.Hbonds>
donor molecule, donor type, donor heavy atom, donor atom, acceptor molecule, acceptor atom, score
      P1  H  6896  6908       L1     5  2.00
      P1  H  6931  6943       L1    17  0.90
      P1  H  6934  6947       L1    17  0.38

> <Gold.PLP.Chemscore.Internal.Correction>
1.2695

> <Gold.Rescore>
     Score         DG    S(hbond)    S(metal)    S(lipo)     H(rot)  DE(clash)    DE(int)     intcor
     12.59     -15.52       1.88        0.00      59.33       1.25       0.13       2.81       ----

> <Gold.Chemscore.Fitness>
12.5893

> <Gold.Chemscore.DG>
-15.5219

> <Gold.Chemscore.ZeroCoef>
-5.4800

> <Gold.Chemscore.Hbond>
1.8835

> <Gold.Chemscore.Metal>
0.0000

> <Gold.Chemscore.Lipo>
59.3327

> <Gold.Chemscore.Internal_Hbond>
0.0000

> <Gold.Chemscore.DEClash>
0.1256

> <Gold.Chemscore.DEInternal>
2.8070

> <Gold.Chemscore.Rot>
1.2464

> <Gold.Chemscore.Internal.Correction>
   9.000000E+99

> <Gold.Chemscore.Hbonds>
donor molecule, donor type, donor heavy atom, donor atom, acceptor molecule, acceptor atom, score
      P1  H  6896  6908       L1     5  0.73
      P1  H  6931  6943       L1    17  0.25
      P1  H  6934  6947       L1    17  0.01

> <Gold.Chemscore.Hbond.Weighted>
-6.2908

> <Gold.Chemscore.Metal.Weighted>
-0.0000

> <Gold.Chemscore.Lipo.Weighted>
-6.9419

> <Gold.Chemscore.Internal_Hbond.Weighted>
0.0000

> <Gold.Chemscore.DEClash.Weighted>
0.1256

> <Gold.Chemscore.DEInternal.Weighted>
2.8070

> <Gold.Chemscore.Rot.Weighted>
3.1909

> <Gold.Chemscore.Internal.Correction.Weighted>
   9.000000E+99

> <Gold.Protein.RotatedTorsions>
[ 6907 6896 6895 6894 ] final -175.53 input  -60.11 | X-H torsion
[ 7974 7965 7964 7962 ] final  136.53 input  175.53 | X-H torsion
[ 8008 7997 7996 7995 ] final  -40.06 input   59.86 | X-H torsion
[ 10167 10162 10161 10158 ] final   55.87 input  -65.29 | X-H torsion
[ 10718 10713 10712 10709 ] final   82.64 input   66.30 | X-H torsion
[ 10763 10752 10751 10750 ] final -110.32 input  -60.55 | X-H torsion
[ 11005 11000 10999 10996 ] final  149.03 input  -57.11 | X-H torsion

> <Gold.Protein.ActiveResidues>
 VAL166  LYS551  ARG553  GLY616  TRP617  ASP618  TYR619  PRO620  LYS621  CYS622 
 ASP623  PHE694  ASN695  SER759  ASP760  ASP761  ALA762  ILE779  LEU786  VAL792 
 PHE793  MET794  SER795  GLU796  ALA797  LYS798  CYS799  TRP800  GLU811  SER814 

> <Gold.Protein.RotatedAtoms>
  151.5901  133.3367  159.3025 H   0  0  0  0  0  0  0  0  0  0  0  0  # atno 6907 bound_to 6896
  150.8265  134.7501  159.6828 H   0  0  0  0  0  0  0  0  0  0  0  0  # atno 6908 bound_to 6896
  152.4353  134.5704  159.9971 H   0  0  0  0  0  0  0  0  0  0  0  0  # atno 6909 bound_to 6896
  144.9556  139.4768  143.5504 H   0  0  0  0  0  0  0  0  0  0  0  0  # atno 7974 bound_to 7965
  154.4016  140.1535  156.2966 H   0  0  0  0  0  0  0  0  0  0  0  0  # atno 8008 bound_to 7997
  155.8738  140.3447  155.5818 H   0  0  0  0  0  0  0  0  0  0  0  0  # atno 8009 bound_to 7997
  155.7744  140.0835  157.2082 H   0  0  0  0  0  0  0  0  0  0  0  0  # atno 8010 bound_to 7997
  140.2148  144.3851  150.6474 H   0  0  0  0  0  0  0  0  0  0  0  0  # atno 10167 bound_to 10162
  157.6862  131.0056  150.2405 H   0  0  0  0  0  0  0  0  0  0  0  0  # atno 10718 bound_to 10713
  154.8241  135.4568  154.0867 H   0  0  0  0  0  0  0  0  0  0  0  0  # atno 10763 bound_to 10752
  153.2196  135.6892  153.8023 H   0  0  0  0  0  0  0  0  0  0  0  0  # atno 10764 bound_to 10752
  153.7445  135.3307  155.3287 H   0  0  0  0  0  0  0  0  0  0  0  0  # atno 10765 bound_to 10752
  140.1010  134.8983  157.1796 H   0  0  0  0  0  0  0  0  0  0  0  0  # atno 11005 bound_to 11000
  146.3336  139.8671  142.8846 LP  0  0  0  0  0  0  0  0  0  0  0  0  # atno 17320 bound_to 7965
  145.2777  141.0129  143.3735 LP  0  0  0  0  0  0  0  0  0  0  0  0  # atno 17321 bound_to 7965
  140.6297  143.2186  151.6521 LP  0  0  0  0  0  0  0  0  0  0  0  0  # atno 17342 bound_to 10162
  139.5166  144.3341  152.0799 LP  0  0  0  0  0  0  0  0  0  0  0  0  # atno 17343 bound_to 10162
  156.3020  130.3760  149.7741 LP  0  0  0  0  0  0  0  0  0  0  0  0  # atno 17370 bound_to 10713
  156.5368  130.8282  151.3256 LP  0  0  0  0  0  0  0  0  0  0  0  0  # atno 17371 bound_to 10713
  140.3220  134.2906  155.7244 LP  0  0  0  0  0  0  0  0  0  0  0  0  # atno 17394 bound_to 11000
  141.2105  133.7716  156.9924 LP  0  0  0  0  0  0  0  0  0  0  0  0  # atno 17395 bound_to 11000

$$$$
