AV-unprocessed.smi:1632|AV-procd|sdf|6530|dock6
  -GOLD-   22720 7213D 1   1.00000     0.00000
 Structure written by MMmdl.
 43 45  0  0  0  0  0  0  0  0  2 V2000
  152.1194  135.3045  156.6221 O   0  0  0  0  0  0  0  0  0  0  0  0
  150.8339  135.7306  156.2287 C   0  0  0  0  0  0  0  0  0  0  0  0
  150.8175  135.9944  154.7148 C   0  0  0  0  0  0  0  0  0  0  0  0
  151.4400  137.3421  154.3143 C   0  0  0  0  0  0  0  0  0  0  0  0
  150.4338  138.4490  154.2883 C   0  0  0  0  0  0  0  0  0  0  0  0
  149.2868  138.4615  153.5525 N   0  3  0  0  0  0  0  0  0  0  0  0
  148.6006  139.6574  153.7655 C   0  0  0  0  0  0  0  0  0  0  0  0
  147.3970  140.1215  153.2438 C   0  0  0  0  0  0  0  0  0  0  0  0
  146.9719  141.3964  153.6713 C   0  0  0  0  0  0  0  0  0  0  0  0
  147.7328  142.1563  154.5833 C   0  0  0  0  0  0  0  0  0  0  0  0
  148.9515  141.6749  155.1050 C   0  0  0  0  0  0  0  0  0  0  0  0
  149.3667  140.4143  154.6753 C   0  0  0  0  0  0  0  0  0  0  0  0
  150.4902  139.6309  154.9683 N   0  0  0  0  0  0  0  0  0  0  0  0
  151.5081  140.1430  155.9002 C   0  0  0  0  0  0  0  0  0  0  0  0
  151.2054  139.7925  157.3715 C   0  0  2  0  0  0  0  0  0  0  0  0
  149.8254  139.9413  157.6431 O   0  0  0  0  0  0  0  0  0  0  0  0
  152.0723  140.5993  158.3280 C   0  0  0  0  0  0  0  0  0  0  0  0
  152.9331  139.9270  159.2228 C   0  0  0  0  0  0  0  0  0  0  0  0
  153.7478  140.6553  160.1111 C   0  0  0  0  0  0  0  0  0  0  0  0
  153.7086  142.0621  160.1098 C   0  0  0  0  0  0  0  0  0  0  0  0
  152.8554  142.7399  159.2186 C   0  0  0  0  0  0  0  0  0  0  0  0
  152.0398  142.0140  158.3286 C   0  0  0  0  0  0  0  0  0  0  0  0
  151.2300  142.6848  157.4741 F   0  0  0  0  0  0  0  0  0  0  0  0
  152.0311  134.7209  157.3604 H   0  0  0  0  0  0  0  0  0  0  0  0
  150.1086  134.9612  156.4936 H   0  0  0  0  0  0  0  0  0  0  0  0
  150.5783  136.6303  156.7888 H   0  0  0  0  0  0  0  0  0  0  0  0
  151.3351  135.1863  154.1962 H   0  0  0  0  0  0  0  0  0  0  0  0
  149.7857  135.9694  154.3620 H   0  0  0  0  0  0  0  0  0  0  0  0
  152.2252  137.6069  155.0229 H   0  0  0  0  0  0  0  0  0  0  0  0
  151.9234  137.2594  153.3408 H   0  0  0  0  0  0  0  0  0  0  0  0
  146.8114  139.5400  152.5468 H   0  0  0  0  0  0  0  0  0  0  0  0
  146.0431  141.7988  153.2937 H   0  0  0  0  0  0  0  0  0  0  0  0
  147.3743  143.1279  154.8908 H   0  0  0  0  0  0  0  0  0  0  0  0
  149.5218  142.2634  155.8087 H   0  0  0  0  0  0  0  0  0  0  0  0
  152.4637  139.7077  155.6073 H   0  0  0  0  0  0  0  0  0  0  0  0
  151.6169  141.2177  155.7569 H   0  0  0  0  0  0  0  0  0  0  0  0
  151.4283  138.7355  157.5221 H   0  0  0  0  0  0  0  0  0  0  0  0
  149.7125  140.6762  158.2269 H   0  0  0  0  0  0  0  0  0  0  0  0
  152.9740  138.8476  159.2322 H   0  0  0  0  0  0  0  0  0  0  0  0
  154.4032  140.1339  160.7933 H   0  0  0  0  0  0  0  0  0  0  0  0
  154.3334  142.6209  160.7909 H   0  0  0  0  0  0  0  0  0  0  0  0
  152.8274  143.8197  159.2165 H   0  0  0  0  0  0  0  0  0  0  0  0
  148.9969  137.7043  152.9472 H   0  0  0  0  0  0  0  0  0  0  0  0
  1  2  1  0  0  0  0
  1 24  1  0  0  0  0
  2  3  1  0  0  0  0
  2 25  1  0  0  0  0
  2 26  1  0  0  0  0
  3  4  1  0  0  0  0
  3 27  1  0  0  0  0
  3 28  1  0  0  0  0
  4  5  1  0  0  0  0
  4 29  1  0  0  0  0
  4 30  1  0  0  0  0
  5 13  1  0  0  0  0
  5  6  2  0  0  0  0
  6  7  1  0  0  0  0
  6 43  1  0  0  0  0
  7 12  2  0  0  0  0
  7  8  1  0  0  0  0
  8  9  2  0  0  0  0
  8 31  1  0  0  0  0
  9 10  1  0  0  0  0
  9 32  1  0  0  0  0
 10 11  2  0  0  0  0
 10 33  1  0  0  0  0
 11 12  1  0  0  0  0
 11 34  1  0  0  0  0
 12 13  1  0  0  0  0
 13 14  1  0  0  0  0
 14 15  1  0  0  0  0
 14 35  1  0  0  0  0
 14 36  1  0  0  0  0
 15 16  1  0  0  0  0
 15 17  1  0  0  0  0
 15 37  1  0  0  0  0
 16 38  1  0  0  0  0
 17 22  1  0  0  0  0
 17 18  2  0  0  0  0
 18 19  1  0  0  0  0
 18 39  1  0  0  0  0
 19 20  2  0  0  0  0
 19 40  1  0  0  0  0
 20 21  1  0  0  0  0
 20 41  1  0  0  0  0
 21 22  2  0  0  0  0
 21 42  1  0  0  0  0
 22 23  1  0  0  0  0
M  CHG  1   6   1
M  END
> <s_m_source_file>
AV-unprocessed.smi

> <i_m_source_file_index>
1632

> <i_lp_mmshare_version>
43012

> <i_f3d_flags>
0

> <s_epik_input>
W09IXVtDSDJdW0NIMl1bQ0gyXWMobjEpbihjKGMxMilbY0hdW2NIXVtjSF1bY0hdMilbQ0gyXVtDQEhdKFtPSF0pYzNbY0hdW2NIXVtjSF1bY0hdYzNG

> <s_epik_cmdline>
J2VwaWtfcHl0aG9uJywgJy1waCcsICc3LjAnLCAnLXRuJywgJzgnLCAnLW1hJywgJzIwMCcsICctbWV0YWxfYmluZGluZycsICctaW1hZScsICc8aW5maWxlLm1hZT4nLCAnLW9tYWUnLCAnPG91dGZpbGUubWFlPic=

> <r_epik_Ionization_Penalty>
0.786441

> <r_epik_Ionization_Penalty_Charging>
0.786439

> <r_epik_Ionization_Penalty_Neutral>
1.50852e-06

> <r_epik_State_Penalty>
0.816472

> <r_epik_Charging_Adjusted_Penalty>
1.60291

> <i_epik_Tot_Q>
1

> <i_epik_Tot_abs_Q>
1

> <r_epik_Metal_State_Penalty>
4.73733

> <b_epik_Metal_Only>
0

> <s_lp_Force_Field>
OPLS_2005

> <r_lp_Energy>
17.2969

> <b_lp_Chiralities_Consistent>
1

> <s_lp_Variant>
AV-unprocessed.smi:1632-3

> <Gold.Version>
5.8.1

> <Gold.Id.Protein>
6NUR|6NUR_protein|mol2

> <Gold.PLP.Fitness>
57.2478

> <Gold.PLP.PLP>
-49.7843

> <Gold.PLP.part.hbond>
-3.0000

> <Gold.PLP.part.metal>
0.0000

> <Gold.PLP.part.buried>
2.5994

> <Gold.PLP.part.nonpolar>
-48.8558

> <Gold.PLP.part.repulsive>
0.0663

> <Gold.PLP.ligand.clash>
0.0000

> <Gold.PLP.ligand.torsion>
0.8212

> <Gold.PLP.Chemscore.Hbond>
3.0000

> <Gold.PLP.Chemscore.CHOScore>
0.0000

> <Gold.PLP.Chemscore.Metal>
0.0000

> <Gold.Chemscore.Hbonds>
donor molecule, donor type, donor heavy atom, donor atom, acceptor molecule, acceptor atom, score
      L1  H     6    43       P1  7948  2.00
      P1  H 10752 10765       L1     1  1.00

> <Gold.PLP.Chemscore.Internal.Correction>
0.1058

> <Gold.Rescore>
     Score         DG    S(hbond)    S(metal)    S(lipo)     H(rot)  DE(clash)    DE(int)     intcor
     16.12     -18.45       1.89        0.00     125.96       3.16       0.44       1.89       ----

> <Gold.Chemscore.Fitness>
16.1193

> <Gold.Chemscore.DG>
-18.4462

> <Gold.Chemscore.ZeroCoef>
-5.4800

> <Gold.Chemscore.Hbond>
1.8921

> <Gold.Chemscore.Metal>
0.0000

> <Gold.Chemscore.Lipo>
125.9603

> <Gold.Chemscore.Internal_Hbond>
0.0000

> <Gold.Chemscore.DEClash>
0.4371

> <Gold.Chemscore.DEInternal>
1.8899

> <Gold.Chemscore.Rot>
3.1604

> <Gold.Chemscore.Internal.Correction>
   9.000000E+99

> <Gold.Chemscore.Hbonds>
donor molecule, donor type, donor heavy atom, donor atom, acceptor molecule, acceptor atom, score
      L1  H     6    43       P1  7948  1.00
      P1  H 10752 10765       L1     1  0.85

> <Gold.Chemscore.Hbond.Weighted>
-6.3195

> <Gold.Chemscore.Metal.Weighted>
-0.0000

> <Gold.Chemscore.Lipo.Weighted>
-14.7374

> <Gold.Chemscore.Internal_Hbond.Weighted>
0.0000

> <Gold.Chemscore.DEClash.Weighted>
0.4371

> <Gold.Chemscore.DEInternal.Weighted>
1.8899

> <Gold.Chemscore.Rot.Weighted>
8.0907

> <Gold.Chemscore.Internal.Correction.Weighted>
   9.000000E+99

> <Gold.Protein.RotatedTorsions>
[ 6907 6896 6895 6894 ] final  156.49 input  -60.11 | X-H torsion
[ 7974 7965 7964 7962 ] final  -72.47 input  175.53 | X-H torsion
[ 8008 7997 7996 7995 ] final    2.41 input   59.86 | X-H torsion
[ 10167 10162 10161 10158 ] final -106.79 input  -65.29 | X-H torsion
[ 10718 10713 10712 10709 ] final -112.95 input   66.30 | X-H torsion
[ 10763 10752 10751 10750 ] final -132.23 input  -60.55 | X-H torsion
[ 11005 11000 10999 10996 ] final  -24.84 input  -57.11 | X-H torsion

> <Gold.Protein.ActiveResidues>
 VAL166  LYS551  ARG553  GLY616  TRP617  ASP618  TYR619  PRO620  LYS621  CYS622 
 ASP623  PHE694  ASN695  SER759  ASP760  ASP761  ALA762  ILE779  LEU786  VAL792 
 PHE793  MET794  SER795  GLU796  ALA797  LYS798  CYS799  TRP800  GLU811  SER814 

> <Gold.Protein.RotatedAtoms>
  152.0290  133.3929  159.4288 H   0  0  0  0  0  0  0  0  0  0  0  0  # atno 6907 bound_to 6896
  150.6884  134.3542  159.4931 H   0  0  0  0  0  0  0  0  0  0  0  0  # atno 6908 bound_to 6896
  152.1326  134.9123  160.0608 H   0  0  0  0  0  0  0  0  0  0  0  0  # atno 6909 bound_to 6896
  145.6648  140.9241  143.0915 H   0  0  0  0  0  0  0  0  0  0  0  0  # atno 7974 bound_to 7965
  154.6913  140.2653  155.6810 H   0  0  0  0  0  0  0  0  0  0  0  0  # atno 8008 bound_to 7997
  156.2733  140.2790  156.1415 H   0  0  0  0  0  0  0  0  0  0  0  0  # atno 8009 bound_to 7997
  155.0893  140.0373  157.2654 H   0  0  0  0  0  0  0  0  0  0  0  0  # atno 8010 bound_to 7997
  140.1839  143.3945  152.1260 H   0  0  0  0  0  0  0  0  0  0  0  0  # atno 10167 bound_to 10162
  156.0736  130.5947  150.8576 H   0  0  0  0  0  0  0  0  0  0  0  0  # atno 10718 bound_to 10713
  154.8745  135.3804  154.4376 H   0  0  0  0  0  0  0  0  0  0  0  0  # atno 10763 bound_to 10752
  153.5064  135.7030  153.5809 H   0  0  0  0  0  0  0  0  0  0  0  0  # atno 10764 bound_to 10752
  153.4118  135.3923  155.2021 H   0  0  0  0  0  0  0  0  0  0  0  0  # atno 10765 bound_to 10752
  140.8882  133.7606  156.0388 H   0  0  0  0  0  0  0  0  0  0  0  0  # atno 11005 bound_to 11000
  144.7077  139.8495  143.7425 LP  0  0  0  0  0  0  0  0  0  0  0  0  # atno 17320 bound_to 7965
  146.1095  139.4099  143.0296 LP  0  0  0  0  0  0  0  0  0  0  0  0  # atno 17321 bound_to 7965
  139.5284  144.7130  151.5144 LP  0  0  0  0  0  0  0  0  0  0  0  0  # atno 17342 bound_to 10162
  140.6501  143.8714  150.6777 LP  0  0  0  0  0  0  0  0  0  0  0  0  # atno 17343 bound_to 10162
  157.5820  131.0946  150.9255 LP  0  0  0  0  0  0  0  0  0  0  0  0  # atno 17370 bound_to 10713
  156.9449  130.5398  149.5281 LP  0  0  0  0  0  0  0  0  0  0  0  0  # atno 17371 bound_to 10713
  140.8378  134.3102  157.5325 LP  0  0  0  0  0  0  0  0  0  0  0  0  # atno 17394 bound_to 11000
  139.8726  134.9399  156.3756 LP  0  0  0  0  0  0  0  0  0  0  0  0  # atno 17395 bound_to 11000

$$$$
