AV-unprocessed.smi:3153|AV-procd|sdf|12020|dock10
  -GOLD-   2272017433D 1   1.00000     0.00000
 Structure written by MMmdl.
 37 38  0  0  0  0  0  0  0  0  1 V2000
  150.2274  140.5383  154.0582 O   0  0  0  0  0  0  0  0  0  0  0  0
  149.2750  140.6096  155.1047 C   0  0  0  0  0  0  0  0  0  0  0  0
  150.0221  141.0928  156.3690 C   0  0  0  0  0  0  0  0  0  0  0  0
  150.6148  142.4190  156.2028 N   0  0  0  0  0  0  0  0  0  0  0  0
  151.0453  143.0226  157.4606 C   0  0  0  0  0  0  0  0  0  0  0  0
  151.9402  142.0670  158.2664 C   0  0  0  0  0  0  0  0  0  0  0  0
  152.2216  142.5644  159.6013 N   0  0  0  0  0  0  0  0  0  0  0  0
  151.8201  143.7521  160.1760 C   0  0  0  0  0  0  0  0  0  0  0  0
  152.3239  143.7800  161.4449 C   0  0  0  0  0  0  0  0  0  0  0  0
  153.0321  142.5505  161.5545 C   0  0  0  0  0  0  0  0  0  0  0  0
  152.9706  141.8261  160.4488 N   0  0  0  0  0  0  0  0  0  0  0  0
  148.2164  141.6634  154.7002 C   0  0  0  0  0  0  0  0  0  0  0  0
  147.3535  141.2259  153.5029 C   0  0  0  0  0  0  0  0  0  0  0  0
  146.6878  139.8677  153.7620 C   0  0  0  0  0  0  0  0  0  0  0  0
  147.7378  138.8013  154.1032 C   0  0  0  0  0  0  0  0  0  0  0  0
  148.6036  139.2265  155.3029 C   0  0  0  0  0  0  0  0  0  0  0  0
  149.7820  140.2796  153.2663 H   0  0  0  0  0  0  0  0  0  0  0  0
  149.3370  141.0964  157.2182 H   0  0  0  0  0  0  0  0  0  0  0  0
  150.8084  140.3783  156.6158 H   0  0  0  0  0  0  0  0  0  0  0  0
  149.9468  143.0325  155.7472 H   0  0  0  0  0  0  0  0  0  0  0  0
  151.5816  143.9528  157.2682 H   0  0  0  0  0  0  0  0  0  0  0  0
  150.1724  143.2872  158.0585 H   0  0  0  0  0  0  0  0  0  0  0  0
  151.4556  141.0943  158.3595 H   0  0  0  0  0  0  0  0  0  0  0  0
  152.8837  141.8966  157.7459 H   0  0  0  0  0  0  0  0  0  0  0  0
  151.2140  144.4686  159.6412 H   0  0  0  0  0  0  0  0  0  0  0  0
  152.2050  144.5599  162.1824 H   0  0  0  0  0  0  0  0  0  0  0  0
  153.5853  142.1657  162.3988 H   0  0  0  0  0  0  0  0  0  0  0  0
  147.5573  141.8540  155.5486 H   0  0  0  0  0  0  0  0  0  0  0  0
  148.6979  142.6163  154.4755 H   0  0  0  0  0  0  0  0  0  0  0  0
  146.5911  141.9789  153.3021 H   0  0  0  0  0  0  0  0  0  0  0  0
  147.9694  141.1667  152.6047 H   0  0  0  0  0  0  0  0  0  0  0  0
  145.9750  139.9573  154.5826 H   0  0  0  0  0  0  0  0  0  0  0  0
  146.1157  139.5603  152.8861 H   0  0  0  0  0  0  0  0  0  0  0  0
  147.2447  137.8538  154.3212 H   0  0  0  0  0  0  0  0  0  0  0  0
  148.3732  138.6228  153.2349 H   0  0  0  0  0  0  0  0  0  0  0  0
  149.3530  138.4567  155.4903 H   0  0  0  0  0  0  0  0  0  0  0  0
  147.9751  139.2595  156.1938 H   0  0  0  0  0  0  0  0  0  0  0  0
  1  2  1  0  0  0  0
  1 17  1  0  0  0  0
  2 16  1  0  0  0  0
  2  3  1  0  0  0  0
  2 12  1  0  0  0  0
  3  4  1  0  0  0  0
  3 18  1  0  0  0  0
  3 19  1  0  0  0  0
  4  5  1  0  0  0  0
  4 20  1  0  0  0  0
  5  6  1  0  0  0  0
  5 21  1  0  0  0  0
  5 22  1  0  0  0  0
  6  7  1  0  0  0  0
  6 23  1  0  0  0  0
  6 24  1  0  0  0  0
  7 11  1  0  0  0  0
  7  8  1  0  0  0  0
  8  9  2  0  0  0  0
  8 25  1  0  0  0  0
  9 10  1  0  0  0  0
  9 26  1  0  0  0  0
 10 11  2  0  0  0  0
 10 27  1  0  0  0  0
 12 13  1  0  0  0  0
 12 28  1  0  0  0  0
 12 29  1  0  0  0  0
 13 14  1  0  0  0  0
 13 30  1  0  0  0  0
 13 31  1  0  0  0  0
 14 15  1  0  0  0  0
 14 32  1  0  0  0  0
 14 33  1  0  0  0  0
 15 16  1  0  0  0  0
 15 34  1  0  0  0  0
 15 35  1  0  0  0  0
 16 36  1  0  0  0  0
 16 37  1  0  0  0  0
M  END
> <s_m_source_file>
AV-unprocessed.smi

> <i_m_source_file_index>
3153

> <i_lp_mmshare_version>
43012

> <i_f3d_flags>
0

> <s_epik_input>
W0NIMl0xW0NIMl1bQ0gyXVtDSDJdW0NIMl1DMShbT0hdKVtDSDJdW05IXVtDSDJdW0NIMl1uMltjSF1bY0hdW2NIXW4y

> <s_epik_cmdline>
J2VwaWtfcHl0aG9uJywgJy1waCcsICc3LjAnLCAnLXRuJywgJzgnLCAnLW1hJywgJzIwMCcsICctbWV0YWxfYmluZGluZycsICctaW1hZScsICc8aW5maWxlLm1hZT4nLCAnLW9tYWUnLCAnPG91dGZpbGUubWFlPic=

> <r_lp_tautomer_probability>
1

> <r_epik_Ionization_Penalty>
1.91265

> <r_epik_Ionization_Penalty_Charging>
0

> <r_epik_Ionization_Penalty_Neutral>
1.91265

> <r_epik_State_Penalty>
2.0334

> <r_epik_Charging_Adjusted_Penalty>
2.0334

> <i_epik_Tot_Q>
0

> <i_epik_Tot_abs_Q>
0

> <r_epik_Metal_State_Penalty>
2.03214

> <b_epik_Metal_Only>
0

> <s_lp_Force_Field>
OPLS_2005

> <r_lp_Energy>
22.2281

> <b_lp_Chiralities_Consistent>
1

> <s_lp_Variant>
AV-unprocessed.smi:3153-2

> <Gold.Version>
5.8.1

> <Gold.Id.Protein>
6NUR|6NUR_protein|mol2

> <Gold.PLP.Fitness>
42.1092

> <Gold.PLP.PLP>
-34.5236

> <Gold.PLP.part.hbond>
-2.5329

> <Gold.PLP.part.metal>
0.0000

> <Gold.PLP.part.buried>
-4.4850

> <Gold.PLP.part.nonpolar>
-27.0792

> <Gold.PLP.part.repulsive>
0.0000

> <Gold.PLP.ligand.clash>
0.0000

> <Gold.PLP.ligand.torsion>
0.0929

> <Gold.PLP.Chemscore.Hbond>
2.5800

> <Gold.PLP.Chemscore.CHOScore>
0.0000

> <Gold.PLP.Chemscore.Metal>
0.0000

> <Gold.Chemscore.Hbonds>
donor molecule, donor type, donor heavy atom, donor atom, acceptor molecule, acceptor atom, score
      L1  H     1    17       P1  7957  0.76
      L1  H     4    20       P1  8028  1.00
      P1  H  7989  7998       L1     1  0.78

> <Gold.PLP.Chemscore.Internal.Correction>
0.0314

> <Gold.Rescore>
     Score         DG    S(hbond)    S(metal)    S(lipo)     H(rot)  DE(clash)    DE(int)     intcor
     18.46     -18.80       2.32        0.00      95.29       2.18       0.26       0.08       ----

> <Gold.Chemscore.Fitness>
18.4571

> <Gold.Chemscore.DG>
-18.7981

> <Gold.Chemscore.ZeroCoef>
-5.4800

> <Gold.Chemscore.Hbond>
2.3170

> <Gold.Chemscore.Metal>
0.0000

> <Gold.Chemscore.Lipo>
95.2890

> <Gold.Chemscore.Internal_Hbond>
0.0000

> <Gold.Chemscore.DEClash>
0.2569

> <Gold.Chemscore.DEInternal>
0.0841

> <Gold.Chemscore.Rot>
2.1756

> <Gold.Chemscore.Internal.Correction>
   9.000000E+99

> <Gold.Chemscore.Hbonds>
donor molecule, donor type, donor heavy atom, donor atom, acceptor molecule, acceptor atom, score
      L1  H     1    17       P1  7957  0.75
      L1  H     4    20       P1  8028  0.93
      P1  H  7989  7998       L1     1  0.19

> <Gold.Chemscore.Hbond.Weighted>
-7.7389

> <Gold.Chemscore.Metal.Weighted>
-0.0000

> <Gold.Chemscore.Lipo.Weighted>
-11.1488

> <Gold.Chemscore.Internal_Hbond.Weighted>
0.0000

> <Gold.Chemscore.DEClash.Weighted>
0.2569

> <Gold.Chemscore.DEInternal.Weighted>
0.0841

> <Gold.Chemscore.Rot.Weighted>
5.5696

> <Gold.Chemscore.Internal.Correction.Weighted>
   9.000000E+99

> <Gold.Protein.RotatedTorsions>
[ 6907 6896 6895 6894 ] final   17.70 input  -60.11 | X-H torsion
[ 7974 7965 7964 7962 ] final -112.47 input  175.53 | X-H torsion
[ 8008 7997 7996 7995 ] final -141.25 input   59.86 | X-H torsion
[ 10167 10162 10161 10158 ] final  163.04 input  -65.29 | X-H torsion
[ 10718 10713 10712 10709 ] final  152.83 input   66.30 | X-H torsion
[ 10763 10752 10751 10750 ] final  165.30 input  -60.55 | X-H torsion
[ 11005 11000 10999 10996 ] final  169.64 input  -57.11 | X-H torsion

> <Gold.Protein.ActiveResidues>
 VAL166  LYS551  ARG553  GLY616  TRP617  ASP618  TYR619  PRO620  LYS621  CYS622 
 ASP623  PHE694  ASN695  SER759  ASP760  ASP761  ALA762  ILE779  LEU786  VAL792 
 PHE793  MET794  SER795  GLU796  ALA797  LYS798  CYS799  TRP800  GLU811  SER814 

> <Gold.Protein.RotatedAtoms>
  151.8538  135.0548  160.0461 H   0  0  0  0  0  0  0  0  0  0  0  0  # atno 6907 bound_to 6896
  152.2716  133.5383  159.5451 H   0  0  0  0  0  0  0  0  0  0  0  0  # atno 6908 bound_to 6896
  150.7154  134.0606  159.3872 H   0  0  0  0  0  0  0  0  0  0  0  0  # atno 6909 bound_to 6896
  145.1436  140.8791  143.3688 H   0  0  0  0  0  0  0  0  0  0  0  0  # atno 7974 bound_to 7965
  155.4748  140.0555  157.2975 H   0  0  0  0  0  0  0  0  0  0  0  0  # atno 8008 bound_to 7997
  154.4684  140.2029  156.0012 H   0  0  0  0  0  0  0  0  0  0  0  0  # atno 8009 bound_to 7997
  156.1014  140.3218  155.7951 H   0  0  0  0  0  0  0  0  0  0  0  0  # atno 8010 bound_to 7997
  139.4868  144.4377  151.8991 H   0  0  0  0  0  0  0  0  0  0  0  0  # atno 10167 bound_to 10162
  157.2527  131.0782  151.1719 H   0  0  0  0  0  0  0  0  0  0  0  0  # atno 10718 bound_to 10713
  154.3219  135.2756  155.2515 H   0  0  0  0  0  0  0  0  0  0  0  0  # atno 10763 bound_to 10752
  154.4865  135.5845  153.6431 H   0  0  0  0  0  0  0  0  0  0  0  0  # atno 10764 bound_to 10752
  152.9875  135.6124  154.3405 H   0  0  0  0  0  0  0  0  0  0  0  0  # atno 10765 bound_to 10752
  140.2999  134.7604  157.3908 H   0  0  0  0  0  0  0  0  0  0  0  0  # atno 11005 bound_to 11000
  145.0506  139.3185  143.5930 LP  0  0  0  0  0  0  0  0  0  0  0  0  # atno 17320 bound_to 7965
  146.3502  139.9913  142.8685 LP  0  0  0  0  0  0  0  0  0  0  0  0  # atno 17321 bound_to 7965
  140.3828  144.2715  150.5907 LP  0  0  0  0  0  0  0  0  0  0  0  0  # atno 17342 bound_to 10162
  140.5218  143.2264  151.8377 LP  0  0  0  0  0  0  0  0  0  0  0  0  # atno 17343 bound_to 10162
  157.3260  130.6961  149.6297 LP  0  0  0  0  0  0  0  0  0  0  0  0  # atno 17370 bound_to 10713
  155.9666  130.4321  150.4950 LP  0  0  0  0  0  0  0  0  0  0  0  0  # atno 17371 bound_to 10713
  140.1118  134.5335  155.8259 LP  0  0  0  0  0  0  0  0  0  0  0  0  # atno 17394 bound_to 11000
  141.2130  133.6727  156.6704 LP  0  0  0  0  0  0  0  0  0  0  0  0  # atno 17395 bound_to 11000

$$$$
