AV-unprocessed.smi:1802|AV-procd|sdf|7272|dock8
  -GOLD-   22720 8533D 1   1.00000     0.00000
 Structure written by MMmdl.
 41 42  0  0  0  0  0  0  0  0  2 V2000
  149.3290  135.0376  154.9418 C   0  0  0  0  0  0  0  0  0  0  0  0
  149.6294  136.2243  155.8742 C   0  0  1  0  0  0  0  0  0  0  0  0
  151.1069  136.6577  155.8346 C   0  0  0  0  0  0  0  0  0  0  0  0
  151.4333  137.4090  154.5357 C   0  0  0  0  0  0  0  0  0  0  0  0
  150.4590  138.5764  154.3121 C   0  0  0  0  0  0  0  0  0  0  0  0
  149.0503  138.1050  154.3184 N   0  3  2  0  0  0  0  0  0  0  0  0
  148.0914  139.1760  153.9481 C   0  0  0  0  0  0  0  0  0  0  0  0
  148.2007  140.3966  154.8773 C   0  0  0  0  0  0  0  0  0  0  0  0
  149.3238  141.3568  154.4512 C   0  0  0  0  0  0  0  0  0  0  0  0
  149.4494  142.4814  155.3717 N   0  0  0  0  0  0  0  0  0  0  0  0
  150.2402  142.4983  156.4549 C   0  0  0  0  0  0  0  0  0  0  0  0
  150.9585  141.5527  156.7815 O   0  0  0  0  0  0  0  0  0  0  0  0
  150.1435  143.6665  157.1139 N   0  0  0  0  0  0  0  0  0  0  0  0
  150.8216  144.0676  158.2957 C   0  0  0  0  0  0  0  0  0  0  0  0
  151.1220  143.2310  159.3015 N   0  0  0  0  0  0  0  0  0  0  0  0
  151.7865  143.8783  160.3351 N   0  0  0  0  0  0  0  0  0  0  0  0
  151.9611  145.1758  160.0687 C   0  0  0  0  0  0  0  0  0  0  0  0
  151.3280  145.7347  158.5302 S   0  0  0  0  0  0  0  0  0  0  0  0
  148.7052  137.4279  155.5978 C   0  0  0  0  0  0  0  0  0  0  0  0
  149.4862  135.2919  153.8936 H   0  0  0  0  0  0  0  0  0  0  0  0
  148.2944  134.7105  155.0482 H   0  0  0  0  0  0  0  0  0  0  0  0
  149.9667  134.1845  155.1749 H   0  0  0  0  0  0  0  0  0  0  0  0
  149.4209  135.8781  156.8874 H   0  0  0  0  0  0  0  0  0  0  0  0
  151.3116  137.3115  156.6835 H   0  0  0  0  0  0  0  0  0  0  0  0
  151.7636  135.7946  155.9494 H   0  0  0  0  0  0  0  0  0  0  0  0
  152.4575  137.7822  154.5718 H   0  0  0  0  0  0  0  0  0  0  0  0
  151.3887  136.7245  153.6879 H   0  0  0  0  0  0  0  0  0  0  0  0
  150.5944  139.3369  155.0830 H   0  0  0  0  0  0  0  0  0  0  0  0
  150.6873  139.0489  153.3558 H   0  0  0  0  0  0  0  0  0  0  0  0
  148.2331  139.4632  152.9050 H   0  0  0  0  0  0  0  0  0  0  0  0
  147.0742  138.7893  154.0248 H   0  0  0  0  0  0  0  0  0  0  0  0
  147.2470  140.9260  154.8782 H   0  0  0  0  0  0  0  0  0  0  0  0
  148.3778  140.0797  155.9049 H   0  0  0  0  0  0  0  0  0  0  0  0
  150.2768  140.8275  154.4287 H   0  0  0  0  0  0  0  0  0  0  0  0
  149.1502  141.7252  153.4386 H   0  0  0  0  0  0  0  0  0  0  0  0
  148.8895  143.2985  155.1751 H   0  0  0  0  0  0  0  0  0  0  0  0
  149.5142  144.3521  156.7233 H   0  0  0  0  0  0  0  0  0  0  0  0
  152.4656  145.8082  160.7838 H   0  0  0  0  0  0  0  0  0  0  0  0
  147.6687  137.0914  155.5870 H   0  0  0  0  0  0  0  0  0  0  0  0
  148.7861  138.1486  156.4132 H   0  0  0  0  0  0  0  0  0  0  0  0
  148.9884  137.4071  153.5905 H   0  0  0  0  0  0  0  0  0  0  0  0
  1  2  1  0  0  0  0
  1 20  1  0  0  0  0
  1 21  1  0  0  0  0
  1 22  1  0  0  0  0
  2 19  1  0  0  0  0
  2  3  1  0  0  0  0
  2 23  1  0  0  0  0
  3  4  1  0  0  0  0
  3 24  1  0  0  0  0
  3 25  1  0  0  0  0
  4  5  1  0  0  0  0
  4 26  1  0  0  0  0
  4 27  1  0  0  0  0
  5  6  1  0  0  0  0
  5 28  1  0  0  0  0
  5 29  1  0  0  0  0
  6  7  1  0  0  0  0
  6 19  1  0  0  0  0
  6 41  1  0  0  0  0
  7  8  1  0  0  0  0
  7 30  1  0  0  0  0
  7 31  1  0  0  0  0
  8  9  1  0  0  0  0
  8 32  1  0  0  0  0
  8 33  1  0  0  0  0
  9 10  1  0  0  0  0
  9 34  1  0  0  0  0
  9 35  1  0  0  0  0
 10 11  1  0  0  0  0
 10 36  1  0  0  0  0
 11 12  2  0  0  0  0
 11 13  1  0  0  0  0
 13 14  1  0  0  0  0
 13 37  1  0  0  0  0
 14 18  1  0  0  0  0
 14 15  2  0  0  0  0
 15 16  1  0  0  0  0
 16 17  2  0  0  0  0
 17 18  1  0  0  0  0
 17 38  1  0  0  0  0
 19 39  1  0  0  0  0
 19 40  1  0  0  0  0
M  CHG  1   6   1
M  END
> <s_m_source_file>
AV-unprocessed.smi

> <i_m_source_file_index>
1802

> <i_lp_mmshare_version>
43012

> <i_f3d_flags>
0

> <s_epik_input>
W0NIM11bQ0BASF0xW0NIMl1bQ0gyXVtDSDJdTihbQ0gyXTEpW0NIMl1bQ0gyXVtDSDJdW05IXUMoPU8pW05IXWMybm5bY0hdczI=

> <s_epik_cmdline>
J2VwaWtfcHl0aG9uJywgJy1waCcsICc3LjAnLCAnLXRuJywgJzgnLCAnLW1hJywgJzIwMCcsICctbWV0YWxfYmluZGluZycsICctaW1hZScsICc8aW5maWxlLm1hZT4nLCAnLW9tYWUnLCAnPG91dGZpbGUubWFlPic=

> <r_lp_tautomer_probability>
1

> <r_epik_Ionization_Penalty>
0.00272894

> <r_epik_Ionization_Penalty_Charging>
0.000288442

> <r_epik_Ionization_Penalty_Neutral>
0.0024405

> <r_epik_State_Penalty>
-0

> <r_epik_Charging_Adjusted_Penalty>
0.000288442

> <i_epik_Tot_Q>
1

> <i_epik_Tot_abs_Q>
1

> <r_epik_Metal_State_Penalty>
0.350525

> <b_epik_Metal_Only>
0

> <s_lp_Force_Field>
OPLS_2005

> <r_lp_Energy>
17.5372

> <b_lp_Chiralities_Consistent>
1

> <s_lp_Variant>
AV-unprocessed.smi:1802-2

> <Gold.Version>
5.8.1

> <Gold.Id.Protein>
6NUR|6NUR_protein|mol2

> <Gold.PLP.Fitness>
43.1721

> <Gold.PLP.PLP>
-32.3218

> <Gold.PLP.part.hbond>
-4.7732

> <Gold.PLP.part.metal>
0.0000

> <Gold.PLP.part.buried>
-4.2051

> <Gold.PLP.part.nonpolar>
-24.0373

> <Gold.PLP.part.repulsive>
0.2793

> <Gold.PLP.ligand.clash>
0.0000

> <Gold.PLP.ligand.torsion>
0.5936

> <Gold.PLP.Chemscore.Hbond>
4.0000

> <Gold.PLP.Chemscore.CHOScore>
0.0000

> <Gold.PLP.Chemscore.Metal>
0.0000

> <Gold.Chemscore.Hbonds>
donor molecule, donor type, donor heavy atom, donor atom, acceptor molecule, acceptor atom, score
      L1  H     6    41       P1  7948  1.79
      L1  H    10    36       P1  8028  0.64
      L1  H    13    37       P1  8028  0.32

> <Gold.PLP.Chemscore.Internal.Correction>
0.0375

> <Gold.Rescore>
     Score         DG    S(hbond)    S(metal)    S(lipo)     H(rot)  DE(clash)    DE(int)     intcor
     17.32     -18.17       2.92        0.00      68.47       1.98       0.05       0.81       ----

> <Gold.Chemscore.Fitness>
17.3204

> <Gold.Chemscore.DG>
-18.1725

> <Gold.Chemscore.ZeroCoef>
-5.4800

> <Gold.Chemscore.Hbond>
2.9187

> <Gold.Chemscore.Metal>
0.0000

> <Gold.Chemscore.Lipo>
68.4694

> <Gold.Chemscore.Internal_Hbond>
0.0000

> <Gold.Chemscore.DEClash>
0.0462

> <Gold.Chemscore.DEInternal>
0.8059

> <Gold.Chemscore.Rot>
1.9793

> <Gold.Chemscore.Internal.Correction>
   9.000000E+99

> <Gold.Chemscore.Hbonds>
donor molecule, donor type, donor heavy atom, donor atom, acceptor molecule, acceptor atom, score
      L1  H     6    41       P1  7948  0.87
      L1  H    10    36       P1  8028  0.63
      L1  H    13    37       P1  8028  0.18

> <Gold.Chemscore.Hbond.Weighted>
-9.7485

> <Gold.Chemscore.Metal.Weighted>
-0.0000

> <Gold.Chemscore.Lipo.Weighted>
-8.0109

> <Gold.Chemscore.Internal_Hbond.Weighted>
0.0000

> <Gold.Chemscore.DEClash.Weighted>
0.0462

> <Gold.Chemscore.DEInternal.Weighted>
0.8059

> <Gold.Chemscore.Rot.Weighted>
5.0670

> <Gold.Chemscore.Internal.Correction.Weighted>
   9.000000E+99

> <Gold.Protein.RotatedTorsions>
[ 6907 6896 6895 6894 ] final  122.27 input  -60.11 | X-H torsion
[ 7974 7965 7964 7962 ] final  -71.85 input  175.53 | X-H torsion
[ 8008 7997 7996 7995 ] final  149.63 input   59.86 | X-H torsion
[ 10167 10162 10161 10158 ] final    2.51 input  -65.29 | X-H torsion
[ 10718 10713 10712 10709 ] final  -98.51 input   66.30 | X-H torsion
[ 10763 10752 10751 10750 ] final  -98.66 input  -60.55 | X-H torsion
[ 11005 11000 10999 10996 ] final   35.19 input  -57.11 | X-H torsion

> <Gold.Protein.ActiveResidues>
 VAL166  LYS551  ARG553  GLY616  TRP617  ASP618  TYR619  PRO620  LYS621  CYS622 
 ASP623  PHE694  ASN695  SER759  ASP760  ASP761  ALA762  ILE779  LEU786  VAL792 
 PHE793  MET794  SER795  GLU796  ALA797  LYS798  CYS799  TRP800  GLU811  SER814 

> <Gold.Protein.RotatedAtoms>
  152.4256  133.7190  159.6522 H   0  0  0  0  0  0  0  0  0  0  0  0  # atno 6907 bound_to 6896
  150.8133  133.8372  159.3178 H   0  0  0  0  0  0  0  0  0  0  0  0  # atno 6908 bound_to 6896
  151.6075  135.1045  160.0125 H   0  0  0  0  0  0  0  0  0  0  0  0  # atno 6909 bound_to 6896
  145.6728  140.9215  143.0874 H   0  0  0  0  0  0  0  0  0  0  0  0  # atno 7974 bound_to 7965
  156.2747  140.2096  156.5888 H   0  0  0  0  0  0  0  0  0  0  0  0  # atno 8008 bound_to 7997
  154.6999  140.0522  157.0471 H   0  0  0  0  0  0  0  0  0  0  0  0  # atno 8009 bound_to 7997
  155.0749  140.3180  155.4622 H   0  0  0  0  0  0  0  0  0  0  0  0  # atno 8010 bound_to 7997
  140.6631  143.7250  150.7776 H   0  0  0  0  0  0  0  0  0  0  0  0  # atno 10167 bound_to 10162
  156.0109  130.5241  150.6533 H   0  0  0  0  0  0  0  0  0  0  0  0  # atno 10718 bound_to 10713
  154.7433  135.5001  153.9160 H   0  0  0  0  0  0  0  0  0  0  0  0  # atno 10763 bound_to 10752
  153.1066  135.6698  153.9584 H   0  0  0  0  0  0  0  0  0  0  0  0  # atno 10764 bound_to 10752
  153.9355  135.3073  155.3423 H   0  0  0  0  0  0  0  0  0  0  0  0  # atno 10765 bound_to 10752
  140.2452  134.3368  155.7910 H   0  0  0  0  0  0  0  0  0  0  0  0  # atno 11005 bound_to 11000
  144.7051  139.8594  143.7432 LP  0  0  0  0  0  0  0  0  0  0  0  0  # atno 17320 bound_to 7965
  146.1031  139.4028  143.0334 LP  0  0  0  0  0  0  0  0  0  0  0  0  # atno 17321 bound_to 7965
  140.0922  143.4866  152.2472 LP  0  0  0  0  0  0  0  0  0  0  0  0  # atno 17342 bound_to 10162
  139.5871  144.7535  151.3492 LP  0  0  0  0  0  0  0  0  0  0  0  0  # atno 17343 bound_to 10162
  157.4290  131.0847  151.1057 LP  0  0  0  0  0  0  0  0  0  0  0  0  # atno 17370 bound_to 10713
  157.1636  130.6236  149.5618 LP  0  0  0  0  0  0  0  0  0  0  0  0  # atno 17371 bound_to 10713
  141.2207  133.7322  156.8949 LP  0  0  0  0  0  0  0  0  0  0  0  0  # atno 17394 bound_to 11000
  140.1613  134.9163  157.2718 LP  0  0  0  0  0  0  0  0  0  0  0  0  # atno 17395 bound_to 11000

$$$$
