AV-unprocessed.smi:464|AV-procd|sdf|2637|dock3
  -GOLD-   2262023 43D 1   1.00000     0.00000
 Structure written by MMmdl.
 24 25  0  0  0  0  0  0  0  0  2 V2000
  151.5494  138.3399  154.5997 O   0  0  0  0  0  0  0  0  0  0  0  0
  151.4925  139.2577  155.4150 C   0  0  0  0  0  0  0  0  0  0  0  0
  150.9777  140.4905  155.1328 N   0  5  0  0  0  0  0  0  0  0  0  0
  150.9894  141.3916  156.1369 C   0  0  0  0  0  0  0  0  0  0  0  0
  151.4636  141.2062  157.4201 C   0  0  0  0  0  0  0  0  0  0  0  0
  151.4460  142.1816  158.4047 N   0  0  0  0  0  0  0  0  0  0  0  0
  150.6528  143.3983  158.3055 C   0  0  0  0  0  0  0  0  0  0  0  0
  151.5756  144.6298  158.2711 C   0  0  0  0  0  0  0  0  0  0  0  0
  152.4271  144.6218  159.4141 O   0  0  0  0  0  0  0  0  0  0  0  0
  153.2565  143.4634  159.4567 C   0  0  0  0  0  0  0  0  0  0  0  0
  152.3784  142.2009  159.5226 C   0  0  0  0  0  0  0  0  0  0  0  0
  152.0127  139.8783  157.7160 C   0  0  0  0  0  0  0  0  0  0  0  0
  152.4755  139.5376  158.8041 O   0  0  0  0  0  0  0  0  0  0  0  0
  151.9752  139.0127  156.6662 N   0  0  0  0  0  0  0  0  0  0  0  0
  152.3453  138.0884  156.8312 H   0  0  0  0  0  0  0  0  0  0  0  0
  150.5703  142.3903  155.8875 H   0  0  0  0  0  0  0  0  0  0  0  0
  150.0280  143.3713  157.4117 H   0  0  0  0  0  0  0  0  0  0  0  0
  149.9789  143.4534  159.1611 H   0  0  0  0  0  0  0  0  0  0  0  0
  152.1750  144.6423  157.3595 H   0  0  0  0  0  0  0  0  0  0  0  0
  150.9831  145.5444  158.2747 H   0  0  0  0  0  0  0  0  0  0  0  0
  153.9091  143.4397  158.5827 H   0  0  0  0  0  0  0  0  0  0  0  0
  153.9014  143.5195  160.3338 H   0  0  0  0  0  0  0  0  0  0  0  0
  151.8146  142.1799  160.4559 H   0  0  0  0  0  0  0  0  0  0  0  0
  153.0032  141.3068  159.5102 H   0  0  0  0  0  0  0  0  0  0  0  0
  1  2  2  0  0  0  0
  2 14  1  0  0  0  0
  2  3  1  0  0  0  0
  3  4  1  0  0  0  0
  4  5  2  0  0  0  0
  4 16  1  0  0  0  0
  5  6  1  0  0  0  0
  5 12  1  0  0  0  0
  6 11  1  0  0  0  0
  6  7  1  0  0  0  0
  7  8  1  0  0  0  0
  7 17  1  0  0  0  0
  7 18  1  0  0  0  0
  8  9  1  0  0  0  0
  8 19  1  0  0  0  0
  8 20  1  0  0  0  0
  9 10  1  0  0  0  0
 10 11  1  0  0  0  0
 10 21  1  0  0  0  0
 10 22  1  0  0  0  0
 11 23  1  0  0  0  0
 11 24  1  0  0  0  0
 12 13  2  0  0  0  0
 12 14  1  0  0  0  0
 14 15  1  0  0  0  0
M  CHG  1   3  -1
M  END
> <s_m_source_file>
AV-unprocessed.smi

> <i_m_source_file_index>
464

> <i_lp_mmshare_version>
43012

> <i_f3d_flags>
0

> <s_epik_input>
Tz1jMVtuSF1bY0hdYyhjKD1PKVtuSF0xKU4yW0NIMl1bQ0gyXU9bQ0gyXVtDSDJdMg==

> <s_epik_cmdline>
J2VwaWtfcHl0aG9uJywgJy1waCcsICc3LjAnLCAnLXRuJywgJzgnLCAnLW1hJywgJzIwMCcsICctbWV0YWxfYmluZGluZycsICctaW1hZScsICc8aW5maWxlLm1hZT4nLCAnLW9tYWUnLCAnPG91dGZpbGUubWFlPic=

> <r_lp_tautomer_probability>
0.999801

> <r_epik_Ionization_Penalty>
2.66523

> <r_epik_Ionization_Penalty_Charging>
1.22855e-06

> <r_epik_Ionization_Penalty_Neutral>
2.66523

> <r_epik_State_Penalty>
2.66349

> <r_epik_Charging_Adjusted_Penalty>
2.66349

> <i_epik_Tot_Q>
-1

> <i_epik_Tot_abs_Q>
1

> <r_epik_Metal_State_Penalty>
0.434838

> <b_epik_Metal_Only>
1

> <s_lp_Force_Field>
OPLS_2005

> <r_lp_Energy>
24.7156

> <b_lp_Chiralities_Consistent>
1

> <s_lp_Variant>
AV-unprocessed.smi:464-2

> <Gold.Version>
5.8.1

> <Gold.Id.Protein>
6NUR|6NUR_protein|mol2

> <Gold.PLP.Fitness>
30.7300

> <Gold.PLP.PLP>
-27.7723

> <Gold.PLP.part.hbond>
-1.0000

> <Gold.PLP.part.metal>
0.0000

> <Gold.PLP.part.buried>
-5.2802

> <Gold.PLP.part.nonpolar>
-21.4696

> <Gold.PLP.part.repulsive>
0.2960

> <Gold.PLP.ligand.clash>
0.0000

> <Gold.PLP.ligand.torsion>
0.1902

> <Gold.PLP.Chemscore.Hbond>
1.0000

> <Gold.PLP.Chemscore.CHOScore>
0.0000

> <Gold.PLP.Chemscore.Metal>
0.0000

> <Gold.Chemscore.Hbonds>
donor molecule, donor type, donor heavy atom, donor atom, acceptor molecule, acceptor atom, score
      P1  H  7989  7998       L1     3  1.00

> <Gold.PLP.Chemscore.Internal.Correction>
0.3380

> <Gold.Rescore>
     Score         DG    S(hbond)    S(metal)    S(lipo)     H(rot)  DE(clash)    DE(int)     intcor
     13.74     -15.45       0.88        0.00      60.09       0.00       0.04       1.66       ----

> <Gold.Chemscore.Fitness>
13.7447

> <Gold.Chemscore.DG>
-15.4462

> <Gold.Chemscore.ZeroCoef>
-5.4800

> <Gold.Chemscore.Hbond>
0.8790

> <Gold.Chemscore.Metal>
0.0000

> <Gold.Chemscore.Lipo>
60.0891

> <Gold.Chemscore.Internal_Hbond>
0.0000

> <Gold.Chemscore.DEClash>
0.0388

> <Gold.Chemscore.DEInternal>
1.6627

> <Gold.Chemscore.Rot>
0.0000

> <Gold.Chemscore.Internal.Correction>
   9.000000E+99

> <Gold.Chemscore.Hbonds>
donor molecule, donor type, donor heavy atom, donor atom, acceptor molecule, acceptor atom, score
      P1  H  7989  7998       L1     3  0.42

> <Gold.Chemscore.Hbond.Weighted>
-2.9358

> <Gold.Chemscore.Metal.Weighted>
-0.0000

> <Gold.Chemscore.Lipo.Weighted>
-7.0304

> <Gold.Chemscore.Internal_Hbond.Weighted>
0.0000

> <Gold.Chemscore.DEClash.Weighted>
0.0388

> <Gold.Chemscore.DEInternal.Weighted>
1.6627

> <Gold.Chemscore.Rot.Weighted>
0.0000

> <Gold.Chemscore.Internal.Correction.Weighted>
   9.000000E+99

> <Gold.Protein.RotatedTorsions>
[ 6907 6896 6895 6894 ] final  119.69 input  -60.11 | X-H torsion
[ 7974 7965 7964 7962 ] final -155.24 input  175.53 | X-H torsion
[ 8008 7997 7996 7995 ] final   72.81 input   59.86 | X-H torsion
[ 10167 10162 10161 10158 ] final -113.02 input  -65.29 | X-H torsion
[ 10718 10713 10712 10709 ] final   68.30 input   66.30 | X-H torsion
[ 10763 10752 10751 10750 ] final   45.15 input  -60.55 | X-H torsion
[ 11005 11000 10999 10996 ] final  -43.25 input  -57.11 | X-H torsion

> <Gold.Protein.ActiveResidues>
 VAL166  LYS551  ARG553  GLY616  TRP617  ASP618  TYR619  PRO620  LYS621  CYS622 
 ASP623  PHE694  ASN695  SER759  ASP760  ASP761  ALA762  ILE779  LEU786  VAL792 
 PHE793  MET794  SER795  GLU796  ALA797  LYS798  CYS799  TRP800  GLU811  SER814 

> <Gold.Protein.RotatedAtoms>
  152.4454  133.7525  159.6701 H   0  0  0  0  0  0  0  0  0  0  0  0  # atno 6907 bound_to 6896
  150.8352  133.8014  159.3088 H   0  0  0  0  0  0  0  0  0  0  0  0  # atno 6908 bound_to 6896
  151.5656  135.1067  160.0035 H   0  0  0  0  0  0  0  0  0  0  0  0  # atno 6909 bound_to 6896
  144.7650  140.4277  143.5949 H   0  0  0  0  0  0  0  0  0  0  0  0  # atno 7974 bound_to 7965
  155.7743  140.3483  155.5264 H   0  0  0  0  0  0  0  0  0  0  0  0  # atno 8008 bound_to 7997
  155.8791  140.0999  157.1519 H   0  0  0  0  0  0  0  0  0  0  0  0  # atno 8009 bound_to 7997
  154.4023  140.1326  156.4161 H   0  0  0  0  0  0  0  0  0  0  0  0  # atno 8010 bound_to 7997
  140.1164  143.4482  152.1719 H   0  0  0  0  0  0  0  0  0  0  0  0  # atno 10167 bound_to 10162
  157.6281  130.9366  150.0359 H   0  0  0  0  0  0  0  0  0  0  0  0  # atno 10718 bound_to 10713
  152.9829  135.6048  154.3389 H   0  0  0  0  0  0  0  0  0  0  0  0  # atno 10763 bound_to 10752
  154.3087  135.2771  155.2578 H   0  0  0  0  0  0  0  0  0  0  0  0  # atno 10764 bound_to 10752
  154.4797  135.5920  153.6436 H   0  0  0  0  0  0  0  0  0  0  0  0  # atno 10765 bound_to 10752
  141.0371  133.6795  156.2707 H   0  0  0  0  0  0  0  0  0  0  0  0  # atno 11005 bound_to 11000
  145.6500  139.1563  143.2867 LP  0  0  0  0  0  0  0  0  0  0  0  0  # atno 17320 bound_to 7965
  146.1748  140.6589  142.9216 LP  0  0  0  0  0  0  0  0  0  0  0  0  # atno 17321 bound_to 7965
  139.5592  144.7394  151.4205 LP  0  0  0  0  0  0  0  0  0  0  0  0  # atno 17342 bound_to 10162
  140.6897  143.7891  150.7237 LP  0  0  0  0  0  0  0  0  0  0  0  0  # atno 17343 bound_to 10162
  156.1466  130.3642  149.9500 LP  0  0  0  0  0  0  0  0  0  0  0  0  # atno 17370 bound_to 10713
  156.7530  130.9122  151.3638 LP  0  0  0  0  0  0  0  0  0  0  0  0  # atno 17371 bound_to 10713
  140.6302  134.5271  157.5558 LP  0  0  0  0  0  0  0  0  0  0  0  0  # atno 17394 bound_to 11000
  139.9248  134.8077  156.1100 LP  0  0  0  0  0  0  0  0  0  0  0  0  # atno 17395 bound_to 11000

$$$$
