AV-unprocessed.smi:1941|AV-procd|sdf|7845|dock6
  -GOLD-   22720 9583D 1   1.00000     0.00000
 Structure written by MMmdl.
 40 41  0  0  0  0  0  0  0  0  1 V2000
  146.6927  131.2950  152.5601 C   0  0  0  0  0  0  0  0  0  0  0  0
  145.8236  132.2259  151.7867 C   0  0  0  0  0  0  0  0  0  0  0  0
  146.0100  133.5477  151.7447 N   0  0  0  0  0  0  0  0  0  0  0  0
  145.0605  134.2008  150.9525 C   0  0  0  0  0  0  0  0  0  0  0  0
  145.1169  135.6898  150.7927 C   0  0  0  0  0  0  0  0  0  0  0  0
  145.1013  136.4215  152.1449 C   0  0  0  0  0  0  0  0  0  0  0  0
  146.4263  136.9159  152.5012 N   0  0  0  0  0  0  0  0  0  0  0  0
  146.6657  137.9394  153.3324 C   0  0  0  0  0  0  0  0  0  0  0  0
  145.7857  138.5764  153.9115 O   0  0  0  0  0  0  0  0  0  0  0  0
  147.9787  138.1832  153.4509 N   0  0  0  0  0  0  0  0  0  0  0  0
  148.5852  139.2334  154.2672 C   0  0  2  0  0  0  0  0  0  0  0  0
  148.0031  140.5909  153.8482 C   0  0  0  0  0  0  0  0  0  0  0  0
  150.1191  139.1957  154.1234 C   0  0  2  0  0  0  0  0  0  0  0  0
  150.7571  137.8320  154.3922 C   0  0  0  0  0  0  0  0  0  0  0  0
  152.1821  138.1801  154.7913 C   0  0  0  0  0  0  0  0  0  0  0  0
  152.1194  139.6708  155.1383 C   0  0  0  0  0  0  0  0  0  0  0  0
  150.7388  140.0061  155.1097 O   0  0  0  0  0  0  0  0  0  0  0  0
  144.1475  133.3455  150.3873 C   0  0  0  0  0  0  0  0  0  0  0  0
  144.4475  131.6879  150.8317 S   0  0  0  0  0  0  0  0  0  0  0  0
  147.3172  131.8478  153.2628 H   0  0  0  0  0  0  0  0  0  0  0  0
  147.3380  130.7380  151.8809 H   0  0  0  0  0  0  0  0  0  0  0  0
  146.0790  130.5892  153.1200 H   0  0  0  0  0  0  0  0  0  0  0  0
  146.0152  135.9688  150.2407 H   0  0  0  0  0  0  0  0  0  0  0  0
  144.2769  136.0248  150.1829 H   0  0  0  0  0  0  0  0  0  0  0  0
  144.3849  137.2449  152.1286 H   0  0  0  0  0  0  0  0  0  0  0  0
  144.7731  135.7403  152.9305 H   0  0  0  0  0  0  0  0  0  0  0  0
  147.2156  136.4518  152.0761 H   0  0  0  0  0  0  0  0  0  0  0  0
  148.6145  137.5959  152.9316 H   0  0  0  0  0  0  0  0  0  0  0  0
  148.3393  139.0803  155.3196 H   0  0  0  0  0  0  0  0  0  0  0  0
  148.4183  141.3994  154.4502 H   0  0  0  0  0  0  0  0  0  0  0  0
  146.9205  140.6100  153.9779 H   0  0  0  0  0  0  0  0  0  0  0  0
  148.2183  140.8112  152.8021 H   0  0  0  0  0  0  0  0  0  0  0  0
  150.4173  139.5535  153.1358 H   0  0  0  0  0  0  0  0  0  0  0  0
  150.2542  137.3407  155.2265 H   0  0  0  0  0  0  0  0  0  0  0  0
  150.7083  137.1649  153.5312 H   0  0  0  0  0  0  0  0  0  0  0  0
  152.5095  137.5781  155.6394 H   0  0  0  0  0  0  0  0  0  0  0  0
  152.8774  138.0093  153.9688 H   0  0  0  0  0  0  0  0  0  0  0  0
  152.5538  139.8918  156.1135 H   0  0  0  0  0  0  0  0  0  0  0  0
  152.6479  140.2619  154.3892 H   0  0  0  0  0  0  0  0  0  0  0  0
  143.3192  133.5888  149.7385 H   0  0  0  0  0  0  0  0  0  0  0  0
  1  2  1  0  0  0  0
  1 20  1  0  0  0  0
  1 21  1  0  0  0  0
  1 22  1  0  0  0  0
  2 19  1  0  0  0  0
  2  3  2  0  0  0  0
  3  4  1  0  0  0  0
  4  5  1  0  0  0  0
  4 18  2  0  0  0  0
  5  6  1  0  0  0  0
  5 23  1  0  0  0  0
  5 24  1  0  0  0  0
  6  7  1  0  0  0  0
  6 25  1  0  0  0  0
  6 26  1  0  0  0  0
  7  8  1  0  0  0  0
  7 27  1  0  0  0  0
  8  9  2  0  0  0  0
  8 10  1  0  0  0  0
 10 11  1  0  0  0  0
 10 28  1  0  0  0  0
 11 12  1  0  0  0  0
 11 13  1  0  0  0  0
 11 29  1  0  0  0  0
 12 30  1  0  0  0  0
 12 31  1  0  0  0  0
 12 32  1  0  0  0  0
 13 17  1  0  0  0  0
 13 14  1  0  0  0  0
 13 33  1  0  0  0  0
 14 15  1  0  0  0  0
 14 34  1  0  0  0  0
 14 35  1  0  0  0  0
 15 16  1  0  0  0  0
 15 36  1  0  0  0  0
 15 37  1  0  0  0  0
 16 17  1  0  0  0  0
 16 38  1  0  0  0  0
 16 39  1  0  0  0  0
 18 19  1  0  0  0  0
 18 40  1  0  0  0  0
M  END
> <s_m_source_file>
AV-unprocessed.smi

> <i_m_source_file_index>
1941

> <i_lp_mmshare_version>
43012

> <i_f3d_flags>
0

> <s_epik_input>
W0NIM11jMW5jKFtjSF1zMSlbQ0gyXVtDSDJdW05IXUMoPU8pW05IXVtDQEhdKFtDSDNdKVtDQEBIXTJbQ0gyXVtDSDJdW0NIMl1PMg==

> <s_epik_cmdline>
J2VwaWtfcHl0aG9uJywgJy1waCcsICc3LjAnLCAnLXRuJywgJzgnLCAnLW1hJywgJzIwMCcsICctbWV0YWxfYmluZGluZycsICctaW1hZScsICc8aW5maWxlLm1hZT4nLCAnLW9tYWUnLCAnPG91dGZpbGUubWFlPic=

> <r_epik_Ionization_Penalty>
0.00195486

> <r_epik_Ionization_Penalty_Charging>
0

> <r_epik_Ionization_Penalty_Neutral>
0.00195486

> <r_epik_State_Penalty>
0.00129472

> <r_epik_Charging_Adjusted_Penalty>
0.00129472

> <i_epik_Tot_Q>
0

> <i_epik_Tot_abs_Q>
0

> <r_epik_Metal_State_Penalty>
-0

> <b_epik_Metal_Only>
0

> <s_lp_Force_Field>
OPLS_2005

> <r_lp_Energy>
10.4909

> <b_lp_Chiralities_Consistent>
1

> <s_lp_Variant>
AV-unprocessed.smi:1941-1

> <Gold.Version>
5.8.1

> <Gold.Id.Protein>
6NUR|6NUR_protein|mol2

> <Gold.PLP.Fitness>
43.9748

> <Gold.PLP.PLP>
-36.1303

> <Gold.PLP.part.hbond>
-3.0000

> <Gold.PLP.part.metal>
0.0000

> <Gold.PLP.part.buried>
-1.9010

> <Gold.PLP.part.nonpolar>
-31.9467

> <Gold.PLP.part.repulsive>
0.4000

> <Gold.PLP.ligand.clash>
0.0000

> <Gold.PLP.ligand.torsion>
0.6011

> <Gold.PLP.Chemscore.Hbond>
2.0000

> <Gold.PLP.Chemscore.CHOScore>
1.0000

> <Gold.PLP.Chemscore.Metal>
0.0000

> <Gold.Chemscore.Hbonds>
donor molecule, donor type, donor heavy atom, donor atom, acceptor molecule, acceptor atom, score
      L1  H     7    27       P1  7948  1.00
      L1  H    10    28       P1  7948  1.00
      L1  C    18    40       P1 10186  1.00

> <Gold.PLP.Chemscore.Internal.Correction>
0.0466

> <Gold.Rescore>
     Score         DG    S(hbond)    S(metal)    S(lipo)     H(rot)  DE(clash)    DE(int)     intcor
     16.98     -18.13       1.94        0.00      89.60       1.69       0.08       1.07       ----

> <Gold.Chemscore.Fitness>
16.9759

> <Gold.Chemscore.DG>
-18.1261

> <Gold.Chemscore.ZeroCoef>
-5.4800

> <Gold.Chemscore.Hbond>
1.9447

> <Gold.Chemscore.Metal>
0.0000

> <Gold.Chemscore.Lipo>
89.5976

> <Gold.Chemscore.Internal_Hbond>
0.0000

> <Gold.Chemscore.DEClash>
0.0827

> <Gold.Chemscore.DEInternal>
1.0675

> <Gold.Chemscore.Rot>
1.6923

> <Gold.Chemscore.Internal.Correction>
   9.000000E+99

> <Gold.Chemscore.Hbonds>
donor molecule, donor type, donor heavy atom, donor atom, acceptor molecule, acceptor atom, score
      L1  H     7    27       P1  7948  0.97
      L1  H    10    28       P1  7948  0.97

> <Gold.Chemscore.Hbond.Weighted>
-6.4954

> <Gold.Chemscore.Metal.Weighted>
-0.0000

> <Gold.Chemscore.Lipo.Weighted>
-10.4829

> <Gold.Chemscore.Internal_Hbond.Weighted>
0.0000

> <Gold.Chemscore.DEClash.Weighted>
0.0827

> <Gold.Chemscore.DEInternal.Weighted>
1.0675

> <Gold.Chemscore.Rot.Weighted>
4.3323

> <Gold.Chemscore.Internal.Correction.Weighted>
   9.000000E+99

> <Gold.Protein.RotatedTorsions>
[ 6907 6896 6895 6894 ] final   49.13 input  -60.11 | X-H torsion
[ 7974 7965 7964 7962 ] final  159.50 input  175.53 | X-H torsion
[ 8008 7997 7996 7995 ] final   36.38 input   59.86 | X-H torsion
[ 10167 10162 10161 10158 ] final -114.75 input  -65.29 | X-H torsion
[ 10718 10713 10712 10709 ] final -119.14 input   66.30 | X-H torsion
[ 10763 10752 10751 10750 ] final    1.67 input  -60.55 | X-H torsion
[ 11005 11000 10999 10996 ] final   33.23 input  -57.11 | X-H torsion

> <Gold.Protein.ActiveResidues>
 VAL166  LYS551  ARG553  GLY616  TRP617  ASP618  TYR619  PRO620  LYS621  CYS622 
 ASP623  PHE694  ASN695  SER759  ASP760  ASP761  ALA762  ILE779  LEU786  VAL792 
 PHE793  MET794  SER795  GLU796  ALA797  LYS798  CYS799  TRP800  GLU811  SER814 

> <Gold.Protein.RotatedAtoms>
  152.2873  134.7761  160.0384 H   0  0  0  0  0  0  0  0  0  0  0  0  # atno 6907 bound_to 6896
  151.8320  133.3405  159.3624 H   0  0  0  0  0  0  0  0  0  0  0  0  # atno 6908 bound_to 6896
  150.7215  134.5402  159.5788 H   0  0  0  0  0  0  0  0  0  0  0  0  # atno 6909 bound_to 6896
  144.7787  139.7625  143.6268 H   0  0  0  0  0  0  0  0  0  0  0  0  # atno 7974 bound_to 7965
  155.1865  140.3304  155.4366 H   0  0  0  0  0  0  0  0  0  0  0  0  # atno 8008 bound_to 7997
  156.2458  140.1918  156.6910 H   0  0  0  0  0  0  0  0  0  0  0  0  # atno 8009 bound_to 7997
  154.6235  140.0592  156.9631 H   0  0  0  0  0  0  0  0  0  0  0  0  # atno 8010 bound_to 7997
  140.0976  143.4642  152.1832 H   0  0  0  0  0  0  0  0  0  0  0  0  # atno 10167 bound_to 10162
  156.1159  130.6285  150.9379 H   0  0  0  0  0  0  0  0  0  0  0  0  # atno 10718 bound_to 10713
  153.3051  135.6958  153.7167 H   0  0  0  0  0  0  0  0  0  0  0  0  # atno 10763 bound_to 10752
  153.6066  135.3452  155.2965 H   0  0  0  0  0  0  0  0  0  0  0  0  # atno 10764 bound_to 10752
  154.8561  135.4353  154.2173 H   0  0  0  0  0  0  0  0  0  0  0  0  # atno 10765 bound_to 10752
  140.2653  134.3145  155.7844 H   0  0  0  0  0  0  0  0  0  0  0  0  # atno 11005 bound_to 11000
  146.1982  139.5261  142.9760 LP  0  0  0  0  0  0  0  0  0  0  0  0  # atno 17320 bound_to 7965
  145.6112  141.0339  143.1966 LP  0  0  0  0  0  0  0  0  0  0  0  0  # atno 17321 bound_to 7965
  139.5689  144.7451  151.3944 LP  0  0  0  0  0  0  0  0  0  0  0  0  # atno 17342 bound_to 10162
  140.6995  143.7666  150.7380 LP  0  0  0  0  0  0  0  0  0  0  0  0  # atno 17343 bound_to 10162
  157.6342  131.0918  150.8382 LP  0  0  0  0  0  0  0  0  0  0  0  0  # atno 17370 bound_to 10713
  156.8486  130.5072  149.5314 LP  0  0  0  0  0  0  0  0  0  0  0  0  # atno 17371 bound_to 10713
  141.2185  133.7434  156.9250 LP  0  0  0  0  0  0  0  0  0  0  0  0  # atno 17394 bound_to 11000
  140.1425  134.9284  157.2486 LP  0  0  0  0  0  0  0  0  0  0  0  0  # atno 17395 bound_to 11000

$$$$
