AV-unprocessed.smi:1795|AV-procd|sdf|7242|dock6
  -GOLD-   22720 8493D 1   1.00000     0.00000
 Structure written by MMmdl.
 47 48  0  0  0  0  0  0  0  0  1 V2000
  146.7128  139.2370  151.7574 C   0  0  0  0  0  0  0  0  0  0  0  0
  147.2558  139.7548  153.0934 C   0  0  1  0  0  0  0  0  0  0  0  0
  148.4294  138.9027  153.6103 C   0  0  0  0  0  0  0  0  0  0  0  0
  149.0182  139.4325  154.8440 N   0  0  0  0  0  0  0  0  0  0  0  0
  150.1339  138.6006  155.3544 C   0  0  1  0  0  0  0  0  0  0  0  0
  151.4700  138.8733  154.6160 C   0  0  0  0  0  0  0  0  0  0  0  0
  150.3673  138.7598  156.8826 C   0  0  0  0  0  0  0  0  0  0  0  0
  151.2461  139.8820  157.1988 N   0  0  0  0  0  0  0  0  0  0  0  0
  150.8692  141.0074  157.8230 C   0  0  0  0  0  0  0  0  0  0  0  0
  149.7184  141.2096  158.2130 O   0  0  0  0  0  0  0  0  0  0  0  0
  151.9711  142.0592  158.0202 C   0  0  0  0  0  0  0  0  0  0  0  0
  152.5447  142.0687  159.3765 N   0  0  0  0  0  0  0  0  0  0  0  0
  152.0587  143.0449  160.2690 C   0  0  0  0  0  0  0  0  0  0  0  0
  152.5105  143.1432  161.5292 C   0  0  0  0  0  0  0  0  0  0  0  0
  153.5243  142.2123  161.9651 C   0  0  0  0  0  0  0  0  0  0  0  0
  153.9931  141.2718  161.1211 C   0  0  0  0  0  0  0  0  0  0  0  0
  153.5000  141.1592  159.7432 C   0  0  0  0  0  0  0  0  0  0  0  0
  153.9201  140.3006  158.9671 O   0  0  0  0  0  0  0  0  0  0  0  0
  149.4188  140.8215  154.5910 C   0  0  0  0  0  0  0  0  0  0  0  0
  148.2781  141.7044  154.0471 C   0  0  2  0  0  0  0  0  0  0  0  0
  147.2288  142.0701  155.1114 C   0  0  0  0  0  0  0  0  0  0  0  0
  147.6865  141.0978  152.9008 O   0  0  0  0  0  0  0  0  0  0  0  0
  146.3568  138.2105  151.8486 H   0  0  0  0  0  0  0  0  0  0  0  0
  147.4818  139.2581  150.9846 H   0  0  0  0  0  0  0  0  0  0  0  0
  145.8784  139.8488  151.4136 H   0  0  0  0  0  0  0  0  0  0  0  0
  146.4447  139.7342  153.8215 H   0  0  0  0  0  0  0  0  0  0  0  0
  148.0392  137.8997  153.7688 H   0  0  0  0  0  0  0  0  0  0  0  0
  149.1971  138.8266  152.8387 H   0  0  0  0  0  0  0  0  0  0  0  0
  149.8806  137.5539  155.1782 H   0  0  0  0  0  0  0  0  0  0  0  0
  152.3002  138.2994  155.0260 H   0  0  0  0  0  0  0  0  0  0  0  0
  151.7428  139.9276  154.6733 H   0  0  0  0  0  0  0  0  0  0  0  0
  151.4281  138.5917  153.5650 H   0  0  0  0  0  0  0  0  0  0  0  0
  149.4051  138.8651  157.3872 H   0  0  0  0  0  0  0  0  0  0  0  0
  150.8563  137.8862  157.3099 H   0  0  0  0  0  0  0  0  0  0  0  0
  152.2104  139.7993  156.9112 H   0  0  0  0  0  0  0  0  0  0  0  0
  152.7545  141.8942  157.2780 H   0  0  0  0  0  0  0  0  0  0  0  0
  151.5559  143.0395  157.7811 H   0  0  0  0  0  0  0  0  0  0  0  0
  151.2970  143.6972  159.8670 H   0  0  0  0  0  0  0  0  0  0  0  0
  152.1232  143.8960  162.1999 H   0  0  0  0  0  0  0  0  0  0  0  0
  153.9074  142.2694  162.9733 H   0  0  0  0  0  0  0  0  0  0  0  0
  154.7508  140.5832  161.4649 H   0  0  0  0  0  0  0  0  0  0  0  0
  149.7836  141.2937  155.5011 H   0  0  0  0  0  0  0  0  0  0  0  0
  150.2457  140.8343  153.8790 H   0  0  0  0  0  0  0  0  0  0  0  0
  148.7170  142.6409  153.7021 H   0  0  0  0  0  0  0  0  0  0  0  0
  147.6827  142.6403  155.9222 H   0  0  0  0  0  0  0  0  0  0  0  0
  146.7674  141.1879  155.5547 H   0  0  0  0  0  0  0  0  0  0  0  0
  146.4361  142.6826  154.6815 H   0  0  0  0  0  0  0  0  0  0  0  0
  1  2  1  0  0  0  0
  1 23  1  0  0  0  0
  1 24  1  0  0  0  0
  1 25  1  0  0  0  0
  2 22  1  0  0  0  0
  2  3  1  0  0  0  0
  2 26  1  0  0  0  0
  3  4  1  0  0  0  0
  3 27  1  0  0  0  0
  3 28  1  0  0  0  0
  4  5  1  0  0  0  0
  4 19  1  0  0  0  0
  5  6  1  0  0  0  0
  5  7  1  0  0  0  0
  5 29  1  0  0  0  0
  6 30  1  0  0  0  0
  6 31  1  0  0  0  0
  6 32  1  0  0  0  0
  7  8  1  0  0  0  0
  7 33  1  0  0  0  0
  7 34  1  0  0  0  0
  8  9  1  0  0  0  0
  8 35  1  0  0  0  0
  9 10  2  0  0  0  0
  9 11  1  0  0  0  0
 11 12  1  0  0  0  0
 11 36  1  0  0  0  0
 11 37  1  0  0  0  0
 12 17  1  0  0  0  0
 12 13  1  0  0  0  0
 13 14  2  0  0  0  0
 13 38  1  0  0  0  0
 14 15  1  0  0  0  0
 14 39  1  0  0  0  0
 15 16  2  0  0  0  0
 15 40  1  0  0  0  0
 16 17  1  0  0  0  0
 16 41  1  0  0  0  0
 17 18  2  0  0  0  0
 19 20  1  0  0  0  0
 19 42  1  0  0  0  0
 19 43  1  0  0  0  0
 20 21  1  0  0  0  0
 20 22  1  0  0  0  0
 20 44  1  0  0  0  0
 21 45  1  0  0  0  0
 21 46  1  0  0  0  0
 21 47  1  0  0  0  0
M  END
> <s_m_source_file>
AV-unprocessed.smi

> <i_m_source_file_index>
1795

> <i_lp_mmshare_version>
43012

> <i_f3d_flags>
0

> <s_epik_input>
W0NIM11bQ0BASF0xW0NIMl1OKFtDSDJdW0NASF0oTzEpW0NIM10pW0NASF0oW0NIM10pW0NIMl1bTkhdQyg9TylbQ0gyXW4yW2NIXVtjSF1bY0hdW2NIXWMyPU8=

> <s_epik_cmdline>
J2VwaWtfcHl0aG9uJywgJy1waCcsICc3LjAnLCAnLXRuJywgJzgnLCAnLW1hJywgJzIwMCcsICctbWV0YWxfYmluZGluZycsICctaW1hZScsICc8aW5maWxlLm1hZT4nLCAnLW9tYWUnLCAnPG91dGZpbGUubWFlPic=

> <r_lp_tautomer_probability>
1

> <r_epik_Ionization_Penalty>
0.237383

> <r_epik_Ionization_Penalty_Charging>
3.58805e-07

> <r_epik_Ionization_Penalty_Neutral>
0.237382

> <r_epik_State_Penalty>
0.228245

> <r_epik_Charging_Adjusted_Penalty>
0.228245

> <i_epik_Tot_Q>
0

> <i_epik_Tot_abs_Q>
0

> <r_epik_Metal_State_Penalty>
0.228221

> <b_epik_Metal_Only>
0

> <s_lp_Force_Field>
OPLS_2005

> <r_lp_Energy>
40.9254

> <b_lp_Chiralities_Consistent>
1

> <s_lp_Variant>
AV-unprocessed.smi:1795-6

> <Gold.Version>
5.8.1

> <Gold.Id.Protein>
6NUR|6NUR_protein|mol2

> <Gold.PLP.Fitness>
42.6598

> <Gold.PLP.PLP>
-42.4670

> <Gold.PLP.part.hbond>
-1.0000

> <Gold.PLP.part.metal>
0.0000

> <Gold.PLP.part.buried>
-2.2500

> <Gold.PLP.part.nonpolar>
-39.9263

> <Gold.PLP.part.repulsive>
1.7014

> <Gold.PLP.ligand.clash>
0.0000

> <Gold.PLP.ligand.torsion>
1.2693

> <Gold.PLP.Chemscore.Hbond>
0.8882

> <Gold.PLP.Chemscore.CHOScore>
0.0000

> <Gold.PLP.Chemscore.Metal>
0.0000

> <Gold.Chemscore.Hbonds>
donor molecule, donor type, donor heavy atom, donor atom, acceptor molecule, acceptor atom, score
      P1  H  7997  8010       L1    18  0.88

> <Gold.PLP.Chemscore.Internal.Correction>
0.0669

> <Gold.Rescore>
     Score         DG    S(hbond)    S(metal)    S(lipo)     H(rot)  DE(clash)    DE(int)     intcor
     15.29     -16.36       0.97        0.00     105.09       1.83       0.22       0.84       ----

> <Gold.Chemscore.Fitness>
15.2913

> <Gold.Chemscore.DG>
-16.3565

> <Gold.Chemscore.ZeroCoef>
-5.4800

> <Gold.Chemscore.Hbond>
0.9740

> <Gold.Chemscore.Metal>
0.0000

> <Gold.Chemscore.Lipo>
105.0925

> <Gold.Chemscore.Internal_Hbond>
0.0000

> <Gold.Chemscore.DEClash>
0.2229

> <Gold.Chemscore.DEInternal>
0.8423

> <Gold.Chemscore.Rot>
1.8251

> <Gold.Chemscore.Internal.Correction>
   9.000000E+99

> <Gold.Chemscore.Hbonds>
donor molecule, donor type, donor heavy atom, donor atom, acceptor molecule, acceptor atom, score
      P1  H  7997  8010       L1    18  0.85

> <Gold.Chemscore.Hbond.Weighted>
-3.2531

> <Gold.Chemscore.Metal.Weighted>
-0.0000

> <Gold.Chemscore.Lipo.Weighted>
-12.2958

> <Gold.Chemscore.Internal_Hbond.Weighted>
0.0000

> <Gold.Chemscore.DEClash.Weighted>
0.2229

> <Gold.Chemscore.DEInternal.Weighted>
0.8423

> <Gold.Chemscore.Rot.Weighted>
4.6724

> <Gold.Chemscore.Internal.Correction.Weighted>
   9.000000E+99

> <Gold.Protein.RotatedTorsions>
[ 6907 6896 6895 6894 ] final   92.08 input  -60.11 | X-H torsion
[ 7974 7965 7964 7962 ] final   53.94 input  175.53 | X-H torsion
[ 8008 7997 7996 7995 ] final   12.45 input   59.86 | X-H torsion
[ 10167 10162 10161 10158 ] final   48.49 input  -65.29 | X-H torsion
[ 10718 10713 10712 10709 ] final  159.96 input   66.30 | X-H torsion
[ 10763 10752 10751 10750 ] final  -61.44 input  -60.55 | X-H torsion
[ 11005 11000 10999 10996 ] final -137.36 input  -57.11 | X-H torsion

> <Gold.Protein.ActiveResidues>
 VAL166  LYS551  ARG553  GLY616  TRP617  ASP618  TYR619  PRO620  LYS621  CYS622 
 ASP623  PHE694  ASN695  SER759  ASP760  ASP761  ALA762  ILE779  LEU786  VAL792 
 PHE793  MET794  SER795  GLU796  ALA797  LYS798  CYS799  TRP800  GLU811  SER814 

> <Gold.Protein.RotatedAtoms>
  152.5452  134.1557  159.8536 H   0  0  0  0  0  0  0  0  0  0  0  0  # atno 6907 bound_to 6896
  151.1580  133.4856  159.2602 H   0  0  0  0  0  0  0  0  0  0  0  0  # atno 6908 bound_to 6896
  151.1402  135.0187  159.8677 H   0  0  0  0  0  0  0  0  0  0  0  0  # atno 6909 bound_to 6896
  145.9660  139.4103  143.0219 H   0  0  0  0  0  0  0  0  0  0  0  0  # atno 7974 bound_to 7965
  154.8208  140.2883  155.5788 H   0  0  0  0  0  0  0  0  0  0  0  0  # atno 8008 bound_to 7997
  156.2997  140.2550  156.3045 H   0  0  0  0  0  0  0  0  0  0  0  0  # atno 8009 bound_to 7997
  154.9340  140.0383  157.2052 H   0  0  0  0  0  0  0  0  0  0  0  0  # atno 8010 bound_to 7997
  140.2927  144.3027  150.6237 H   0  0  0  0  0  0  0  0  0  0  0  0  # atno 10167 bound_to 10162
  157.1570  131.0578  151.2252 H   0  0  0  0  0  0  0  0  0  0  0  0  # atno 10718 bound_to 10713
  154.2846  135.6265  153.5361 H   0  0  0  0  0  0  0  0  0  0  0  0  # atno 10763 bound_to 10752
  152.9861  135.5641  154.5457 H   0  0  0  0  0  0  0  0  0  0  0  0  # atno 10764 bound_to 10752
  154.5055  135.2874  155.1361 H   0  0  0  0  0  0  0  0  0  0  0  0  # atno 10765 bound_to 10752
  140.8718  134.2041  157.4646 H   0  0  0  0  0  0  0  0  0  0  0  0  # atno 11005 bound_to 11000
  145.7973  140.9787  143.1017 LP  0  0  0  0  0  0  0  0  0  0  0  0  # atno 17320 bound_to 7965
  144.6825  139.9758  143.7483 LP  0  0  0  0  0  0  0  0  0  0  0  0  # atno 17321 bound_to 7965
  140.5718  143.2180  151.7585 LP  0  0  0  0  0  0  0  0  0  0  0  0  # atno 17342 bound_to 10162
  139.4934  144.4205  151.9982 LP  0  0  0  0  0  0  0  0  0  0  0  0  # atno 17343 bound_to 10162
  157.4168  130.7415  149.6882 LP  0  0  0  0  0  0  0  0  0  0  0  0  # atno 17370 bound_to 10713
  155.9760  130.4081  150.3807 LP  0  0  0  0  0  0  0  0  0  0  0  0  # atno 17371 bound_to 10713
  139.8712  134.9777  156.4971 LP  0  0  0  0  0  0  0  0  0  0  0  0  # atno 17394 bound_to 11000
  140.8564  133.8093  155.9221 LP  0  0  0  0  0  0  0  0  0  0  0  0  # atno 17395 bound_to 11000

$$$$
