AV-unprocessed.smi:3208|AV-procd|sdf|12262|dock4
  -GOLD-   2272018 93D 1   1.00000     0.00000
 Structure written by MMmdl.
 30 30  0  0  0  0  0  0  0  0  3 V2000
  153.3668  142.9357  163.1309 C   0  0  0  0  0  0  0  0  0  0  0  0
  152.7274  143.2819  162.0035 C   0  0  0  0  0  0  0  0  0  0  0  0
  152.8543  142.5498  160.6859 C   0  0  0  0  0  0  0  0  0  0  0  0
  153.2521  143.4507  159.6594 O   0  0  0  0  0  0  0  0  0  0  0  0
  152.1958  143.9736  158.8576 C   0  0  2  0  0  0  0  0  0  0  0  0
  151.3338  144.8725  159.7570 C   0  0  0  0  0  0  0  0  0  0  0  0
  151.3685  142.8303  158.2476 C   0  0  0  0  0  0  0  0  0  0  0  0
  150.7474  142.0635  158.9853 O   0  0  0  0  0  0  0  0  0  0  0  0
  151.3985  142.7425  156.9047 N   0  0  0  0  0  0  0  0  0  0  0  0
  150.7483  141.8025  156.0581 C   0  0  0  0  0  0  0  0  0  0  0  0
  149.6555  142.1272  155.3225 N   0  3  0  0  0  0  0  0  0  0  0  0
  149.0177  141.2590  154.5083 C   0  0  0  0  0  0  0  0  0  0  0  0
  149.4852  139.9361  154.3920 C   0  0  0  0  0  0  0  0  0  0  0  0
  150.6171  139.5448  155.1341 C   0  0  0  0  0  0  0  0  0  0  0  0
  151.2545  140.4827  155.9740 C   0  0  0  0  0  0  0  0  0  0  0  0
  152.3520  140.1021  156.6948 O   0  5  0  0  0  0  0  0  0  0  0  0
  154.0310  142.0844  163.1620 H   0  0  0  0  0  0  0  0  0  0  0  0
  153.2325  143.5023  164.0406 H   0  0  0  0  0  0  0  0  0  0  0  0
  152.0706  144.1396  162.0113 H   0  0  0  0  0  0  0  0  0  0  0  0
  153.5990  141.7615  160.8039 H   0  0  0  0  0  0  0  0  0  0  0  0
  151.9041  142.0727  160.4427 H   0  0  0  0  0  0  0  0  0  0  0  0
  152.6173  144.5922  158.0627 H   0  0  0  0  0  0  0  0  0  0  0  0
  150.4942  145.2976  159.2057 H   0  0  0  0  0  0  0  0  0  0  0  0
  151.9221  145.7022  160.1494 H   0  0  0  0  0  0  0  0  0  0  0  0
  150.9327  144.3233  160.6097 H   0  0  0  0  0  0  0  0  0  0  0  0
  151.9580  143.4306  156.4213 H   0  0  0  0  0  0  0  0  0  0  0  0
  148.1600  141.6473  153.9787 H   0  0  0  0  0  0  0  0  0  0  0  0
  148.9846  139.2317  153.7442 H   0  0  0  0  0  0  0  0  0  0  0  0
  150.9919  138.5344  155.0582 H   0  0  0  0  0  0  0  0  0  0  0  0
  149.2975  143.0808  155.3894 H   0  0  0  0  0  0  0  0  0  0  0  0
  1  2  2  0  0  0  0
  1 17  1  0  0  0  0
  1 18  1  0  0  0  0
  2  3  1  0  0  0  0
  2 19  1  0  0  0  0
  3  4  1  0  0  0  0
  3 20  1  0  0  0  0
  3 21  1  0  0  0  0
  4  5  1  0  0  0  0
  5  6  1  0  0  0  0
  5  7  1  0  0  0  0
  5 22  1  0  0  0  0
  6 23  1  0  0  0  0
  6 24  1  0  0  0  0
  6 25  1  0  0  0  0
  7  8  2  0  0  0  0
  7  9  1  0  0  0  0
  9 26  1  0  0  0  0
  9 10  1  0  0  0  0
 10 15  2  0  0  0  0
 10 11  1  0  0  0  0
 11 30  1  0  0  0  0
 11 12  2  0  0  0  0
 12 27  1  0  0  0  0
 12 13  1  0  0  0  0
 13 28  1  0  0  0  0
 13 14  2  0  0  0  0
 14 15  1  0  0  0  0
 14 29  1  0  0  0  0
 15 16  1  0  0  0  0
M  CHG  1  11   1
M  CHG  1  16  -1
M  END
> <s_m_source_file>
AV-unprocessed.smi

> <i_m_source_file_index>
3208

> <i_lp_mmshare_version>
43012

> <i_f3d_flags>
0

> <s_epik_input>
W0NIMl09W0NIXVtDSDJdT1tDQEhdKFtDSDNdKUMoPU8pW05IXWMxbltjSF1bY0hdW2NIXWMxW09IXQ==

> <s_epik_cmdline>
J2VwaWtfcHl0aG9uJywgJy1waCcsICc3LjAnLCAnLXRuJywgJzgnLCAnLW1hJywgJzIwMCcsICctbWV0YWxfYmluZGluZycsICctaW1hZScsICc8aW5maWxlLm1hZT4nLCAnLW9tYWUnLCAnPG91dGZpbGUubWFlPic=

> <r_lp_tautomer_probability>
0.56342

> <r_epik_Ionization_Penalty>
0.29395

> <r_epik_Ionization_Penalty_Charging>
0.0267837

> <r_epik_Ionization_Penalty_Neutral>
0.267166

> <r_epik_State_Penalty>
0.587031

> <r_epik_Charging_Adjusted_Penalty>
0.613815

> <i_epik_Tot_Q>
0

> <i_epik_Tot_abs_Q>
2

> <r_epik_Metal_State_Penalty>
2.67911

> <b_epik_Metal_Only>
0

> <s_lp_Force_Field>
OPLS_2005

> <r_lp_Energy>
5.5941

> <b_lp_Chiralities_Consistent>
1

> <s_lp_Variant>
AV-unprocessed.smi:3208-3

> <Gold.Version>
5.8.1

> <Gold.Id.Protein>
6NUR|6NUR_protein|mol2

> <Gold.PLP.Fitness>
52.0641

> <Gold.PLP.PLP>
-41.5278

> <Gold.PLP.part.hbond>
-2.5002

> <Gold.PLP.part.metal>
0.0000

> <Gold.PLP.part.buried>
-3.9137

> <Gold.PLP.part.nonpolar>
-33.6015

> <Gold.PLP.part.repulsive>
0.2590

> <Gold.PLP.ligand.clash>
0.0000

> <Gold.PLP.ligand.torsion>
1.0126

> <Gold.PLP.Chemscore.Hbond>
4.0000

> <Gold.PLP.Chemscore.CHOScore>
0.0000

> <Gold.PLP.Chemscore.Metal>
0.0000

> <Gold.Chemscore.Hbonds>
donor molecule, donor type, donor heavy atom, donor atom, acceptor molecule, acceptor atom, score
      L1  H    11    30       P1  8028  2.00
      P1  H  7997  8010       L1    16  2.00

> <Gold.PLP.Chemscore.Internal.Correction>
0.5615

> <Gold.Rescore>
     Score         DG    S(hbond)    S(metal)    S(lipo)     H(rot)  DE(clash)    DE(int)     intcor
     15.37     -18.02       1.97        0.00      88.08       1.70       0.14       2.50       ----

> <Gold.Chemscore.Fitness>
15.3745

> <Gold.Chemscore.DG>
-18.0157

> <Gold.Chemscore.ZeroCoef>
-5.4800

> <Gold.Chemscore.Hbond>
1.9692

> <Gold.Chemscore.Metal>
0.0000

> <Gold.Chemscore.Lipo>
88.0795

> <Gold.Chemscore.Internal_Hbond>
0.0000

> <Gold.Chemscore.DEClash>
0.1392

> <Gold.Chemscore.DEInternal>
2.5020

> <Gold.Chemscore.Rot>
1.6979

> <Gold.Chemscore.Internal.Correction>
   9.000000E+99

> <Gold.Chemscore.Hbonds>
donor molecule, donor type, donor heavy atom, donor atom, acceptor molecule, acceptor atom, score
      L1  H    11    30       P1  8028  1.00
      P1  H  7997  8010       L1    16  0.95

> <Gold.Chemscore.Hbond.Weighted>
-6.5771

> <Gold.Chemscore.Metal.Weighted>
-0.0000

> <Gold.Chemscore.Lipo.Weighted>
-10.3053

> <Gold.Chemscore.Internal_Hbond.Weighted>
0.0000

> <Gold.Chemscore.DEClash.Weighted>
0.1392

> <Gold.Chemscore.DEInternal.Weighted>
2.5020

> <Gold.Chemscore.Rot.Weighted>
4.3467

> <Gold.Chemscore.Internal.Correction.Weighted>
   9.000000E+99

> <Gold.Protein.RotatedTorsions>
[ 6907 6896 6895 6894 ] final  -12.55 input  -60.11 | X-H torsion
[ 7974 7965 7964 7962 ] final   87.75 input  175.53 | X-H torsion
[ 8008 7997 7996 7995 ] final   75.77 input   59.86 | X-H torsion
[ 10167 10162 10161 10158 ] final -144.03 input  -65.29 | X-H torsion
[ 10718 10713 10712 10709 ] final -170.48 input   66.30 | X-H torsion
[ 10763 10752 10751 10750 ] final  -50.66 input  -60.55 | X-H torsion
[ 11005 11000 10999 10996 ] final  -73.63 input  -57.11 | X-H torsion

> <Gold.Protein.ActiveResidues>
 VAL166  LYS551  ARG553  GLY616  TRP617  ASP618  TYR619  PRO620  LYS621  CYS622 
 ASP623  PHE694  ASN695  SER759  ASP760  ASP761  ALA762  ILE779  LEU786  VAL792 
 PHE793  MET794  SER795  GLU796  ALA797  LYS798  CYS799  TRP800  GLU811  SER814 

> <Gold.Protein.RotatedAtoms>
  151.3688  135.0918  159.9458 H   0  0  0  0  0  0  0  0  0  0  0  0  # atno 6907 bound_to 6896
  152.5141  133.9185  159.7533 H   0  0  0  0  0  0  0  0  0  0  0  0  # atno 6908 bound_to 6896
  150.9595  133.6406  159.2786 H   0  0  0  0  0  0  0  0  0  0  0  0  # atno 6909 bound_to 6896
  145.5549  139.2298  143.2492 H   0  0  0  0  0  0  0  0  0  0  0  0  # atno 7974 bound_to 7965
  155.8177  140.3471  155.5495 H   0  0  0  0  0  0  0  0  0  0  0  0  # atno 8008 bound_to 7997
  155.8375  140.0936  157.1775 H   0  0  0  0  0  0  0  0  0  0  0  0  # atno 8009 bound_to 7997
  154.4004  140.1400  156.3676 H   0  0  0  0  0  0  0  0  0  0  0  0  # atno 8010 bound_to 7997
  139.7938  143.7929  152.2652 H   0  0  0  0  0  0  0  0  0  0  0  0  # atno 10167 bound_to 10162
  156.7268  130.9291  151.3101 H   0  0  0  0  0  0  0  0  0  0  0  0  # atno 10718 bound_to 10713
  154.1140  135.6545  153.4890 H   0  0  0  0  0  0  0  0  0  0  0  0  # atno 10763 bound_to 10752
  153.0247  135.5254  154.7163 H   0  0  0  0  0  0  0  0  0  0  0  0  # atno 10764 bound_to 10752
  154.6351  135.2981  155.0140 H   0  0  0  0  0  0  0  0  0  0  0  0  # atno 10765 bound_to 10752
  141.1625  133.6884  156.7241 H   0  0  0  0  0  0  0  0  0  0  0  0  # atno 11005 bound_to 11000
  146.1891  140.6372  142.9154 LP  0  0  0  0  0  0  0  0  0  0  0  0  # atno 17320 bound_to 7965
  144.7511  140.5193  143.6801 LP  0  0  0  0  0  0  0  0  0  0  0  0  # atno 17321 bound_to 7965
  139.8028  144.7367  150.9801 LP  0  0  0  0  0  0  0  0  0  0  0  0  # atno 17342 bound_to 10162
  140.7820  143.4327  151.0669 LP  0  0  0  0  0  0  0  0  0  0  0  0  # atno 17343 bound_to 10162
  157.6875  130.9200  150.0426 LP  0  0  0  0  0  0  0  0  0  0  0  0  # atno 17370 bound_to 10713
  156.1556  130.3643  149.9373 LP  0  0  0  0  0  0  0  0  0  0  0  0  # atno 17371 bound_to 10713
  140.2794  134.8329  157.3919 LP  0  0  0  0  0  0  0  0  0  0  0  0  # atno 17394 bound_to 11000
  140.1448  134.4926  155.8005 LP  0  0  0  0  0  0  0  0  0  0  0  0  # atno 17395 bound_to 11000

$$$$
