AV-unprocessed.smi:1008|AV-procd|sdf|4411|dock6
  -GOLD-   22720 2353D 1   1.00000     0.00000
 Structure written by MMmdl.
 23 23  0  0  0  0  0  0  0  0  1 V2000
  148.7586  140.8472  154.2809 C   0  0  0  0  0  0  0  0  0  0  0  0
  149.9360  141.0541  155.2177 C   0  0  0  0  0  0  0  0  0  0  0  0
  150.1183  142.3618  155.6312 N   0  0  0  0  0  0  0  0  0  0  0  0
  151.1710  142.6522  156.4856 C   0  0  0  0  0  0  0  0  0  0  0  0
  151.2659  143.9817  156.8398 N   0  0  0  0  0  0  0  0  0  0  0  0
  152.0101  141.7649  156.9279 N   0  0  0  0  0  0  0  0  0  0  0  0
  151.8779  140.4219  156.5415 C   0  0  0  0  0  0  0  0  0  0  0  0
  152.6692  139.5739  156.9515 O   0  0  0  0  0  0  0  0  0  0  0  0
  150.7693  140.0678  155.6292 C   0  0  0  0  0  0  0  0  0  0  0  0
  150.6087  138.6091  155.2108 C   0  0  0  0  0  0  0  0  0  0  0  0
  151.7045  138.1634  154.2319 C   0  0  0  0  0  0  0  0  0  0  0  0
  151.5694  136.7859  153.9579 O   0  0  0  0  0  0  0  0  0  0  0  0
  151.9765  144.3517  157.4540 H   0  0  0  0  0  0  0  0  0  0  0  0
  149.0889  140.3814  153.3519 H   0  0  0  0  0  0  0  0  0  0  0  0
  148.2739  141.7910  154.0282 H   0  0  0  0  0  0  0  0  0  0  0  0
  148.0123  140.2021  154.7450 H   0  0  0  0  0  0  0  0  0  0  0  0
  150.6249  144.6880  156.5073 H   0  0  0  0  0  0  0  0  0  0  0  0
  149.4722  143.0601  155.2936 H   0  0  0  0  0  0  0  0  0  0  0  0
  149.6305  138.4557  154.7557 H   0  0  0  0  0  0  0  0  0  0  0  0
  150.6150  137.9736  156.0978 H   0  0  0  0  0  0  0  0  0  0  0  0
  151.6355  138.7196  153.2966 H   0  0  0  0  0  0  0  0  0  0  0  0
  152.6956  138.3454  154.6487 H   0  0  0  0  0  0  0  0  0  0  0  0
  151.4795  136.6728  153.0239 H   0  0  0  0  0  0  0  0  0  0  0  0
  1 14  1  0  0  0  0
  1 15  1  0  0  0  0
  1 16  1  0  0  0  0
  1  2  1  0  0  0  0
  2  9  2  0  0  0  0
  2  3  1  0  0  0  0
  3 18  1  0  0  0  0
  3  4  1  0  0  0  0
  4  5  1  0  0  0  0
  4  6  2  0  0  0  0
  5 17  1  0  0  0  0
  5 13  1  0  0  0  0
  6  7  1  0  0  0  0
  7  8  2  0  0  0  0
  7  9  1  0  0  0  0
  9 10  1  0  0  0  0
 10 11  1  0  0  0  0
 10 19  1  0  0  0  0
 10 20  1  0  0  0  0
 11 12  1  0  0  0  0
 11 21  1  0  0  0  0
 11 22  1  0  0  0  0
 12 23  1  0  0  0  0
M  END
> <s_m_source_file>
AV-unprocessed.smi

> <i_m_source_file_index>
1008

> <i_lp_mmshare_version>
43012

> <i_f3d_flags>
0

> <s_epik_input>
W0NIM11jMW5jKFtOSDJdKVtuSF1jKD1PKWMxW0NIMl1bQ0gyXVtPSF0=

> <s_epik_cmdline>
J2VwaWtfcHl0aG9uJywgJy1waCcsICc3LjAnLCAnLXRuJywgJzgnLCAnLW1hJywgJzIwMCcsICctbWV0YWxfYmluZGluZycsICctaW1hZScsICc8aW5maWxlLm1hZT4nLCAnLW9tYWUnLCAnPG91dGZpbGUubWFlPic=

> <r_lp_tautomer_probability>
0.108277

> <r_epik_Ionization_Penalty>
0.666207

> <r_epik_Ionization_Penalty_Charging>
0.00797854

> <r_epik_Ionization_Penalty_Neutral>
0.658229

> <r_epik_State_Penalty>
1.38976

> <r_epik_Charging_Adjusted_Penalty>
1.39774

> <i_epik_Tot_Q>
0

> <i_epik_Tot_abs_Q>
0

> <r_epik_Metal_State_Penalty>
0.86313

> <b_epik_Metal_Only>
0

> <s_lp_Force_Field>
OPLS_2005

> <r_lp_Energy>
8.84659

> <b_lp_Chiralities_Consistent>
1

> <s_lp_Variant>
AV-unprocessed.smi:1008-2

> <Gold.Version>
5.8.1

> <Gold.Id.Protein>
6NUR|6NUR_protein|mol2

> <Gold.PLP.Fitness>
36.9786

> <Gold.PLP.PLP>
-23.2670

> <Gold.PLP.part.hbond>
-5.0000

> <Gold.PLP.part.metal>
0.0000

> <Gold.PLP.part.buried>
-3.3286

> <Gold.PLP.part.nonpolar>
-15.8404

> <Gold.PLP.part.repulsive>
0.1576

> <Gold.PLP.ligand.clash>
0.0000

> <Gold.PLP.ligand.torsion>
0.1283

> <Gold.PLP.Chemscore.Hbond>
4.6560

> <Gold.PLP.Chemscore.CHOScore>
0.0000

> <Gold.PLP.Chemscore.Metal>
0.0000

> <Gold.Chemscore.Hbonds>
donor molecule, donor type, donor heavy atom, donor atom, acceptor molecule, acceptor atom, score
      L1  H     3    18       P1  8028  0.83
      L1  H     5    17       P1  8028  0.77
      L1  H    12    23       P1  7949  1.00
      P1  H  7997  8009       L1     8  1.00
      P1  H 10752 10765       L1    12  1.00

> <Gold.PLP.Chemscore.Internal.Correction>
0.0003

> <Gold.Rescore>
     Score         DG    S(hbond)    S(metal)    S(lipo)     H(rot)  DE(clash)    DE(int)     intcor
     17.16     -17.79       4.07        0.00      34.15       2.06       0.27       0.37       ----

> <Gold.Chemscore.Fitness>
17.1592

> <Gold.Chemscore.DG>
-17.7941

> <Gold.Chemscore.ZeroCoef>
-5.4800

> <Gold.Chemscore.Hbond>
4.0691

> <Gold.Chemscore.Metal>
0.0000

> <Gold.Chemscore.Lipo>
34.1515

> <Gold.Chemscore.Internal_Hbond>
0.0000

> <Gold.Chemscore.DEClash>
0.2654

> <Gold.Chemscore.DEInternal>
0.3695

> <Gold.Chemscore.Rot>
2.0595

> <Gold.Chemscore.Internal.Correction>
   9.000000E+99

> <Gold.Chemscore.Hbonds>
donor molecule, donor type, donor heavy atom, donor atom, acceptor molecule, acceptor atom, score
      L1  H     3    18       P1  8028  0.83
      L1  H     5    17       P1  8028  0.72
      L1  H    12    23       P1  7949  0.90
      P1  H  7997  8009       L1     8  0.70
      P1  H 10752 10765       L1    12  0.39

> <Gold.Chemscore.Hbond.Weighted>
-13.5908

> <Gold.Chemscore.Metal.Weighted>
-0.0000

> <Gold.Chemscore.Lipo.Weighted>
-3.9957

> <Gold.Chemscore.Internal_Hbond.Weighted>
0.0000

> <Gold.Chemscore.DEClash.Weighted>
0.2654

> <Gold.Chemscore.DEInternal.Weighted>
0.3695

> <Gold.Chemscore.Rot.Weighted>
5.2724

> <Gold.Chemscore.Internal.Correction.Weighted>
   9.000000E+99

> <Gold.Protein.RotatedTorsions>
[ 6907 6896 6895 6894 ] final -147.13 input  -60.11 | X-H torsion
[ 7974 7965 7964 7962 ] final  168.10 input  175.53 | X-H torsion
[ 8008 7997 7996 7995 ] final -175.41 input   59.86 | X-H torsion
[ 10167 10162 10161 10158 ] final  -24.01 input  -65.29 | X-H torsion
[ 10718 10713 10712 10709 ] final -155.62 input   66.30 | X-H torsion
[ 10763 10752 10751 10750 ] final  168.13 input  -60.55 | X-H torsion
[ 11005 11000 10999 10996 ] final  110.32 input  -57.11 | X-H torsion

> <Gold.Protein.ActiveResidues>
 VAL166  LYS551  ARG553  GLY616  TRP617  ASP618  TYR619  PRO620  LYS621  CYS622 
 ASP623  PHE694  ASN695  SER759  ASP760  ASP761  ALA762  ILE779  LEU786  VAL792 
 PHE793  MET794  SER795  GLU796  ALA797  LYS798  CYS799  TRP800  GLU811  SER814 

> <Gold.Protein.RotatedAtoms>
  151.1513  133.4906  159.2595 H   0  0  0  0  0  0  0  0  0  0  0  0  # atno 6907 bound_to 6896
  151.1551  135.0246  159.8695 H   0  0  0  0  0  0  0  0  0  0  0  0  # atno 6908 bound_to 6896
  152.5463  134.1393  159.8525 H   0  0  0  0  0  0  0  0  0  0  0  0  # atno 6909 bound_to 6896
  144.7400  139.8858  143.6399 H   0  0  0  0  0  0  0  0  0  0  0  0  # atno 7974 bound_to 7965
  155.9822  140.1184  157.0716 H   0  0  0  0  0  0  0  0  0  0  0  0  # atno 8008 bound_to 7997
  154.4186  140.1142  156.5519 H   0  0  0  0  0  0  0  0  0  0  0  0  # atno 8009 bound_to 7997
  155.6455  140.3473  155.4732 H   0  0  0  0  0  0  0  0  0  0  0  0  # atno 8010 bound_to 7997
  140.7288  143.4392  151.0683 H   0  0  0  0  0  0  0  0  0  0  0  0  # atno 10167 bound_to 10162
  156.5154  130.8454  151.2662 H   0  0  0  0  0  0  0  0  0  0  0  0  # atno 10718 bound_to 10713
  154.3641  135.2753  155.2303 H   0  0  0  0  0  0  0  0  0  0  0  0  # atno 10763 bound_to 10752
  154.4479  135.5938  153.6175 H   0  0  0  0  0  0  0  0  0  0  0  0  # atno 10764 bound_to 10752
  152.9842  135.6034  154.3865 H   0  0  0  0  0  0  0  0  0  0  0  0  # atno 10765 bound_to 10752
  139.8879  134.9481  156.6260 H   0  0  0  0  0  0  0  0  0  0  0  0  # atno 11005 bound_to 11000
  146.1178  139.4191  143.0247 LP  0  0  0  0  0  0  0  0  0  0  0  0  # atno 17320 bound_to 7965
  145.7349  141.0029  143.1332 LP  0  0  0  0  0  0  0  0  0  0  0  0  # atno 17321 bound_to 7965
  139.8057  143.8021  152.3167 LP  0  0  0  0  0  0  0  0  0  0  0  0  # atno 17342 bound_to 10162
  139.8053  144.7357  150.9769 LP  0  0  0  0  0  0  0  0  0  0  0  0  # atno 17343 bound_to 10162
  157.7444  130.9935  150.2676 LP  0  0  0  0  0  0  0  0  0  0  0  0  # atno 17370 bound_to 10713
  156.3200  130.3784  149.7583 LP  0  0  0  0  0  0  0  0  0  0  0  0  # atno 17371 bound_to 10713
  140.7702  133.8744  155.8486 LP  0  0  0  0  0  0  0  0  0  0  0  0  # atno 17394 bound_to 11000
  140.9848  134.1357  157.4462 LP  0  0  0  0  0  0  0  0  0  0  0  0  # atno 17395 bound_to 11000

$$$$
