AV-unprocessed.smi:1833|AV-procd|sdf|7468|dock6
  -GOLD-   22720 9163D 1   1.00000     0.00000
 Structure written by MMmdl.
 42 43  0  0  0  0  0  0  0  0  2 V2000
  146.8420  129.0210  151.5804 C   0  0  0  0  0  0  0  0  0  0  0  0
  145.5016  129.5762  152.0835 C   0  0  0  0  0  0  0  0  0  0  0  0
  145.4066  131.0521  151.9491 N   0  3  2  0  0  0  0  0  0  0  0  0
  145.0790  131.4648  150.5590 C   0  0  0  0  0  0  0  0  0  0  0  0
  144.8549  132.9830  150.4634 C   0  0  0  0  0  0  0  0  0  0  0  0
  146.0715  133.7547  150.9892 C   0  0  0  0  0  0  0  0  0  0  0  0
  146.4077  133.2945  152.4158 C   0  0  2  0  0  0  0  0  0  0  0  0
  147.6132  133.9722  152.8864 N   0  0  0  0  0  0  0  0  0  0  0  0
  148.3095  133.6551  153.9876 C   0  0  0  0  0  0  0  0  0  0  0  0
  148.0285  132.7231  154.7411 O   0  0  0  0  0  0  0  0  0  0  0  0
  149.3454  134.4845  154.1753 N   0  0  0  0  0  0  0  0  0  0  0  0
  150.2658  134.4291  155.3051 C   0  0  0  0  0  0  0  0  0  0  0  0
  150.1468  135.6809  156.1893 C   0  0  0  0  0  0  0  0  0  0  0  0
  150.5443  136.9276  155.4728 C   0  0  0  0  0  0  0  0  0  0  0  0
  151.7909  137.1744  155.0602 N   0  0  0  0  0  0  0  0  0  0  0  0
  151.9113  138.4198  154.4390 C   0  0  0  0  0  0  0  0  0  0  0  0
  150.7364  139.1264  154.3977 C   0  0  0  0  0  0  0  0  0  0  0  0
  149.4289  138.2493  155.1445 S   0  0  0  0  0  0  0  0  0  0  0  0
  146.6066  131.7672  152.4616 C   0  0  0  0  0  0  0  0  0  0  0  0
  146.9120  127.9519  151.7819 H   0  0  0  0  0  0  0  0  0  0  0  0
  147.6822  129.5052  152.0790 H   0  0  0  0  0  0  0  0  0  0  0  0
  146.9643  129.1531  150.5059 H   0  0  0  0  0  0  0  0  0  0  0  0
  144.6681  129.0976  151.5670 H   0  0  0  0  0  0  0  0  0  0  0  0
  145.4071  129.3053  153.1360 H   0  0  0  0  0  0  0  0  0  0  0  0
  145.8843  131.1605  149.8884 H   0  0  0  0  0  0  0  0  0  0  0  0
  144.1769  130.9511  150.2247 H   0  0  0  0  0  0  0  0  0  0  0  0
  144.6532  133.2658  149.4297 H   0  0  0  0  0  0  0  0  0  0  0  0
  143.9695  133.2597  151.0374 H   0  0  0  0  0  0  0  0  0  0  0  0
  146.9241  133.5867  150.3292 H   0  0  0  0  0  0  0  0  0  0  0  0
  145.8687  134.8264  150.9736 H   0  0  0  0  0  0  0  0  0  0  0  0
  145.5608  133.5440  153.0581 H   0  0  0  0  0  0  0  0  0  0  0  0
  147.9325  134.7595  152.3405 H   0  0  0  0  0  0  0  0  0  0  0  0
  149.4987  135.2202  153.5011 H   0  0  0  0  0  0  0  0  0  0  0  0
  150.0886  133.5264  155.8922 H   0  0  0  0  0  0  0  0  0  0  0  0
  151.2791  134.3490  154.9105 H   0  0  0  0  0  0  0  0  0  0  0  0
  149.1218  135.7942  156.5449 H   0  0  0  0  0  0  0  0  0  0  0  0
  150.7741  135.5799  157.0756 H   0  0  0  0  0  0  0  0  0  0  0  0
  152.8737  138.7253  154.0558 H   0  0  0  0  0  0  0  0  0  0  0  0
  150.5621  140.1062  153.9785 H   0  0  0  0  0  0  0  0  0  0  0  0
  146.8091  131.4698  153.4902 H   0  0  0  0  0  0  0  0  0  0  0  0
  147.4789  131.4790  151.8720 H   0  0  0  0  0  0  0  0  0  0  0  0
  144.6248  131.3414  152.5199 H   0  0  0  0  0  0  0  0  0  0  0  0
  1  2  1  0  0  0  0
  1 20  1  0  0  0  0
  1 21  1  0  0  0  0
  1 22  1  0  0  0  0
  2  3  1  0  0  0  0
  2 23  1  0  0  0  0
  2 24  1  0  0  0  0
  3 19  1  0  0  0  0
  3  4  1  0  0  0  0
  3 42  1  0  0  0  0
  4  5  1  0  0  0  0
  4 25  1  0  0  0  0
  4 26  1  0  0  0  0
  5  6  1  0  0  0  0
  5 27  1  0  0  0  0
  5 28  1  0  0  0  0
  6  7  1  0  0  0  0
  6 29  1  0  0  0  0
  6 30  1  0  0  0  0
  7  8  1  0  0  0  0
  7 19  1  0  0  0  0
  7 31  1  0  0  0  0
  8  9  1  0  0  0  0
  8 32  1  0  0  0  0
  9 10  2  0  0  0  0
  9 11  1  0  0  0  0
 11 12  1  0  0  0  0
 11 33  1  0  0  0  0
 12 13  1  0  0  0  0
 12 34  1  0  0  0  0
 12 35  1  0  0  0  0
 13 14  1  0  0  0  0
 13 36  1  0  0  0  0
 13 37  1  0  0  0  0
 14 18  1  0  0  0  0
 14 15  2  0  0  0  0
 15 16  1  0  0  0  0
 16 17  2  0  0  0  0
 16 38  1  0  0  0  0
 17 18  1  0  0  0  0
 17 39  1  0  0  0  0
 19 40  1  0  0  0  0
 19 41  1  0  0  0  0
M  CHG  1   3   1
M  END
> <s_m_source_file>
AV-unprocessed.smi

> <i_m_source_file_index>
1833

> <i_lp_mmshare_version>
43012

> <i_f3d_flags>
0

> <s_epik_input>
W0NIM11bQ0gyXU4xW0NIMl1bQ0gyXVtDSDJdW0NASF0oW0NIMl0xKVtOSF1DKD1PKVtOSF1bQ0gyXVtDSDJdYzJuW2NIXVtjSF1zMg==

> <s_epik_cmdline>
J2VwaWtfcHl0aG9uJywgJy1waCcsICc3LjAnLCAnLXRuJywgJzgnLCAnLW1hJywgJzIwMCcsICctbWV0YWxfYmluZGluZycsICctaW1hZScsICc8aW5maWxlLm1hZT4nLCAnLW9tYWUnLCAnPG91dGZpbGUubWFlPic=

> <r_lp_tautomer_probability>
1

> <r_epik_Ionization_Penalty>
0.00269629

> <r_epik_Ionization_Penalty_Charging>
0.00233899

> <r_epik_Ionization_Penalty_Neutral>
0.000357304

> <r_epik_State_Penalty>
-0

> <r_epik_Charging_Adjusted_Penalty>
0.00233899

> <i_epik_Tot_Q>
1

> <i_epik_Tot_abs_Q>
1

> <r_epik_Metal_State_Penalty>
-0

> <b_epik_Metal_Only>
0

> <s_lp_Force_Field>
OPLS_2005

> <r_lp_Energy>
7.34013

> <b_lp_Chiralities_Consistent>
1

> <s_lp_Variant>
AV-unprocessed.smi:1833-4

> <Gold.Version>
5.8.1

> <Gold.Id.Protein>
6NUR|6NUR_protein|mol2

> <Gold.PLP.Fitness>
43.1334

> <Gold.PLP.PLP>
-36.1843

> <Gold.PLP.part.hbond>
-3.0000

> <Gold.PLP.part.metal>
0.0000

> <Gold.PLP.part.buried>
-4.8954

> <Gold.PLP.part.nonpolar>
-27.5754

> <Gold.PLP.part.repulsive>
0.1835

> <Gold.PLP.ligand.clash>
0.0000

> <Gold.PLP.ligand.torsion>
0.3116

> <Gold.PLP.Chemscore.Hbond>
2.5000

> <Gold.PLP.Chemscore.CHOScore>
0.0000

> <Gold.PLP.Chemscore.Metal>
0.0000

> <Gold.Chemscore.Hbonds>
donor molecule, donor type, donor heavy atom, donor atom, acceptor molecule, acceptor atom, score
      L1  H     8    32       P1  7948  1.00
      L1  H    11    33       P1  7948  0.70
      P1  H 10752 10763       L1    15  1.00

> <Gold.PLP.Chemscore.Internal.Correction>
0.0723

> <Gold.Rescore>
     Score         DG    S(hbond)    S(metal)    S(lipo)     H(rot)  DE(clash)    DE(int)     intcor
     16.17     -18.01       2.02        0.00      86.97       1.71       0.01       1.82       ----

> <Gold.Chemscore.Fitness>
16.1742

> <Gold.Chemscore.DG>
-18.0058

> <Gold.Chemscore.ZeroCoef>
-5.4800

> <Gold.Chemscore.Hbond>
2.0178

> <Gold.Chemscore.Metal>
0.0000

> <Gold.Chemscore.Lipo>
86.9736

> <Gold.Chemscore.Internal_Hbond>
0.0000

> <Gold.Chemscore.DEClash>
0.0144

> <Gold.Chemscore.DEInternal>
1.8172

> <Gold.Chemscore.Rot>
1.7147

> <Gold.Chemscore.Internal.Correction>
   9.000000E+99

> <Gold.Chemscore.Hbonds>
donor molecule, donor type, donor heavy atom, donor atom, acceptor molecule, acceptor atom, score
      L1  H     8    32       P1  7948  0.65
      L1  H    11    33       P1  7948  0.07
      P1  H 10752 10763       L1    15  0.86

> <Gold.Chemscore.Hbond.Weighted>
-6.7395

> <Gold.Chemscore.Metal.Weighted>
-0.0000

> <Gold.Chemscore.Lipo.Weighted>
-10.1759

> <Gold.Chemscore.Internal_Hbond.Weighted>
0.0000

> <Gold.Chemscore.DEClash.Weighted>
0.0144

> <Gold.Chemscore.DEInternal.Weighted>
1.8172

> <Gold.Chemscore.Rot.Weighted>
4.3896

> <Gold.Chemscore.Internal.Correction.Weighted>
   9.000000E+99

> <Gold.Protein.RotatedTorsions>
[ 6907 6896 6895 6894 ] final   24.88 input  -60.11 | X-H torsion
[ 7974 7965 7964 7962 ] final  116.37 input  175.53 | X-H torsion
[ 8008 7997 7996 7995 ] final  -45.35 input   59.86 | X-H torsion
[ 10167 10162 10161 10158 ] final  123.99 input  -65.29 | X-H torsion
[ 10718 10713 10712 10709 ] final   16.48 input   66.30 | X-H torsion
[ 10763 10752 10751 10750 ] final   53.22 input  -60.55 | X-H torsion
[ 11005 11000 10999 10996 ] final -106.20 input  -57.11 | X-H torsion

> <Gold.Protein.ActiveResidues>
 VAL166  LYS551  ARG553  GLY616  TRP617  ASP618  TYR619  PRO620  LYS621  CYS622 
 ASP623  PHE694  ASN695  SER759  ASP760  ASP761  ALA762  ILE779  LEU786  VAL792 
 PHE793  MET794  SER795  GLU796  ALA797  LYS798  CYS799  TRP800  GLU811  SER814 

> <Gold.Protein.RotatedAtoms>
  151.9641  135.0109  160.0549 H   0  0  0  0  0  0  0  0  0  0  0  0  # atno 6907 bound_to 6896
  152.1842  133.4723  159.4982 H   0  0  0  0  0  0  0  0  0  0  0  0  # atno 6908 bound_to 6896
  150.6923  134.1712  159.4256 H   0  0  0  0  0  0  0  0  0  0  0  0  # atno 6909 bound_to 6896
  145.1804  139.3053  143.4421 H   0  0  0  0  0  0  0  0  0  0  0  0  # atno 7974 bound_to 7965
  154.4000  140.1399  156.3833 H   0  0  0  0  0  0  0  0  0  0  0  0  # atno 8008 bound_to 7997
  155.7983  140.3476  155.5367 H   0  0  0  0  0  0  0  0  0  0  0  0  # atno 8009 bound_to 7997
  155.8509  140.0941  157.1665 H   0  0  0  0  0  0  0  0  0  0  0  0  # atno 8010 bound_to 7997
  139.5767  144.6967  151.3634 H   0  0  0  0  0  0  0  0  0  0  0  0  # atno 10167 bound_to 10162
  157.0685  130.6338  149.5800 H   0  0  0  0  0  0  0  0  0  0  0  0  # atno 10718 bound_to 10713
  152.9794  135.5786  154.4705 H   0  0  0  0  0  0  0  0  0  0  0  0  # atno 10763 bound_to 10752
  154.4268  135.2772  155.1941 H   0  0  0  0  0  0  0  0  0  0  0  0  # atno 10764 bound_to 10752
  154.3666  135.6177  153.5772 H   0  0  0  0  0  0  0  0  0  0  0  0  # atno 10765 bound_to 10752
  141.1016  133.8873  157.1827 H   0  0  0  0  0  0  0  0  0  0  0  0  # atno 11005 bound_to 11000
  146.3454  140.1982  142.8589 LP  0  0  0  0  0  0  0  0  0  0  0  0  # atno 17320 bound_to 7965
  145.0142  140.8739  143.5206 LP  0  0  0  0  0  0  0  0  0  0  0  0  # atno 17321 bound_to 7965
  140.7049  143.7538  150.7465 LP  0  0  0  0  0  0  0  0  0  0  0  0  # atno 17342 bound_to 10162
  140.1060  143.4744  152.2398 LP  0  0  0  0  0  0  0  0  0  0  0  0  # atno 17343 bound_to 10162
  155.9957  130.5025  150.7470 LP  0  0  0  0  0  0  0  0  0  0  0  0  # atno 17370 bound_to 10713
  157.4897  131.0910  151.0441 LP  0  0  0  0  0  0  0  0  0  0  0  0  # atno 17371 bound_to 10713
  139.9870  135.0078  156.9885 LP  0  0  0  0  0  0  0  0  0  0  0  0  # atno 17394 bound_to 11000
  140.5008  134.1100  155.7250 LP  0  0  0  0  0  0  0  0  0  0  0  0  # atno 17395 bound_to 11000

$$$$
