AV-unprocessed.smi:501|AV-procd|sdf|2742|dock7
  -GOLD-   2262023203D 1   1.00000     0.00000
 Structure written by MMmdl.
 45 47  0  0  0  0  0  0  0  0  1 V2000
  154.1332  137.8746  165.1369 C   0  0  0  0  0  0  0  0  0  0  0  0
  154.0502  136.9229  163.9611 C   0  0  0  0  0  0  0  0  0  0  0  0
  154.5374  135.6070  164.0859 C   0  0  0  0  0  0  0  0  0  0  0  0
  154.4583  134.7221  162.9952 C   0  0  0  0  0  0  0  0  0  0  0  0
  153.8910  135.1508  161.7802 C   0  0  0  0  0  0  0  0  0  0  0  0
  153.3950  136.4629  161.6387 C   0  0  0  0  0  0  0  0  0  0  0  0
  152.8525  136.7967  160.4161 O   0  0  0  0  0  0  0  0  0  0  0  0
  152.4272  138.1365  160.2128 C   0  0  0  0  0  0  0  0  0  0  0  0
  152.8188  138.5624  158.7930 C   0  0  0  0  0  0  0  0  0  0  0  0
  152.0737  139.7339  158.3536 N   0  0  0  0  0  0  0  0  0  0  0  0
  151.1200  139.8365  157.3898 C   0  0  0  0  0  0  0  0  0  0  0  0
  150.6360  138.6713  156.5769 C   0  0  0  0  0  0  0  0  0  0  0  0
  150.5983  138.9738  155.0695 C   0  0  0  0  0  0  0  0  0  0  0  0
  151.6247  138.2324  154.3458 N   0  0  0  0  0  0  0  0  0  0  0  0
  152.9414  138.3135  154.5831 C   0  0  0  0  0  0  0  0  0  0  0  0
  153.4503  139.0232  155.4493 O   0  0  0  0  0  0  0  0  0  0  0  0
  150.6069  141.0551  157.2136 N   0  0  0  0  0  0  0  0  0  0  0  0
  151.2867  141.8134  158.1452 C   0  0  0  0  0  0  0  0  0  0  0  0
  151.1940  143.1894  158.4534 C   0  0  0  0  0  0  0  0  0  0  0  0
  152.0003  143.7498  159.4658 C   0  0  0  0  0  0  0  0  0  0  0  0
  152.9082  142.9439  160.1827 C   0  0  0  0  0  0  0  0  0  0  0  0
  153.0165  141.5706  159.8902 C   0  0  0  0  0  0  0  0  0  0  0  0
  152.2106  141.0164  158.8774 C   0  0  0  0  0  0  0  0  0  0  0  0
  153.4803  137.3488  162.7431 C   0  0  0  0  0  0  0  0  0  0  0  0
  155.0268  137.6794  165.7304 H   0  0  0  0  0  0  0  0  0  0  0  0
  153.2608  137.7551  165.7795 H   0  0  0  0  0  0  0  0  0  0  0  0
  154.1726  138.9107  164.7996 H   0  0  0  0  0  0  0  0  0  0  0  0
  154.9719  135.2729  165.0169 H   0  0  0  0  0  0  0  0  0  0  0  0
  154.8317  133.7131  163.0901 H   0  0  0  0  0  0  0  0  0  0  0  0
  153.8342  134.4643  160.9484 H   0  0  0  0  0  0  0  0  0  0  0  0
  151.3474  138.2094  160.3392 H   0  0  0  0  0  0  0  0  0  0  0  0
  152.9021  138.7968  160.9403 H   0  0  0  0  0  0  0  0  0  0  0  0
  153.8821  138.8023  158.7629 H   0  0  0  0  0  0  0  0  0  0  0  0
  152.6832  137.7426  158.0904 H   0  0  0  0  0  0  0  0  0  0  0  0
  151.3082  137.8326  156.7627 H   0  0  0  0  0  0  0  0  0  0  0  0
  149.6586  138.3390  156.9202 H   0  0  0  0  0  0  0  0  0  0  0  0
  149.6305  138.6966  154.6544 H   0  0  0  0  0  0  0  0  0  0  0  0
  150.7137  140.0445  154.8919 H   0  0  0  0  0  0  0  0  0  0  0  0
  151.3116  137.6172  153.6088 H   0  0  0  0  0  0  0  0  0  0  0  0
  153.5043  137.6602  153.8989 H   0  0  0  0  0  0  0  0  0  0  0  0
  150.5003  143.8143  157.9105 H   0  0  0  0  0  0  0  0  0  0  0  0
  151.9213  144.8027  159.6936 H   0  0  0  0  0  0  0  0  0  0  0  0
  153.5215  143.3803  160.9575 H   0  0  0  0  0  0  0  0  0  0  0  0
  153.7105  140.9511  160.4386 H   0  0  0  0  0  0  0  0  0  0  0  0
  153.1141  138.3621  162.6777 H   0  0  0  0  0  0  0  0  0  0  0  0
  1  2  1  0  0  0  0
  1 25  1  0  0  0  0
  1 26  1  0  0  0  0
  1 27  1  0  0  0  0
  2 24  1  0  0  0  0
  2  3  2  0  0  0  0
  3  4  1  0  0  0  0
  3 28  1  0  0  0  0
  4  5  2  0  0  0  0
  4 29  1  0  0  0  0
  5  6  1  0  0  0  0
  5 30  1  0  0  0  0
  6  7  1  0  0  0  0
  6 24  2  0  0  0  0
  7  8  1  0  0  0  0
  8  9  1  0  0  0  0
  8 31  1  0  0  0  0
  8 32  1  0  0  0  0
  9 10  1  0  0  0  0
  9 33  1  0  0  0  0
  9 34  1  0  0  0  0
 10 23  1  0  0  0  0
 10 11  1  0  0  0  0
 11 12  1  0  0  0  0
 11 17  2  0  0  0  0
 12 13  1  0  0  0  0
 12 35  1  0  0  0  0
 12 36  1  0  0  0  0
 13 14  1  0  0  0  0
 13 37  1  0  0  0  0
 13 38  1  0  0  0  0
 14 15  1  0  0  0  0
 14 39  1  0  0  0  0
 15 16  2  0  0  0  0
 15 40  1  0  0  0  0
 17 18  1  0  0  0  0
 18 23  2  0  0  0  0
 18 19  1  0  0  0  0
 19 20  2  0  0  0  0
 19 41  1  0  0  0  0
 20 21  1  0  0  0  0
 20 42  1  0  0  0  0
 21 22  2  0  0  0  0
 21 43  1  0  0  0  0
 22 23  1  0  0  0  0
 22 44  1  0  0  0  0
 24 45  1  0  0  0  0
M  END
> <s_m_source_file>
AV-unprocessed.smi

> <i_m_source_file_index>
501

> <i_lp_mmshare_version>
43012

> <i_f3d_flags>
0

> <s_epik_input>
W0NIM11jMVtjSF1bY0hdW2NIXWMoW2NIXTEpT1tDSDJdW0NIMl1uKGMobjIpW0NIMl1bQ0gyXVtOSF1bQ0hdPU8pYyhjMjMpW2NIXVtjSF1bY0hdW2NIXTM=

> <s_epik_cmdline>
J2VwaWtfcHl0aG9uJywgJy1waCcsICc3LjAnLCAnLXRuJywgJzgnLCAnLW1hJywgJzIwMCcsICctbWV0YWxfYmluZGluZycsICctaW1hZScsICc8aW5maWxlLm1hZT4nLCAnLW9tYWUnLCAnPG91dGZpbGUubWFlPic=

> <r_lp_tautomer_probability>
1

> <r_epik_Ionization_Penalty>
0.092246

> <r_epik_Ionization_Penalty_Charging>
0

> <r_epik_Ionization_Penalty_Neutral>
0.092246

> <r_epik_State_Penalty>
0.0825475

> <r_epik_Charging_Adjusted_Penalty>
0.0825475

> <i_epik_Tot_Q>
0

> <i_epik_Tot_abs_Q>
0

> <r_epik_Metal_State_Penalty>
0.0713424

> <b_epik_Metal_Only>
0

> <s_lp_Force_Field>
OPLS_2005

> <r_lp_Energy>
15.5248

> <b_lp_Chiralities_Consistent>
1

> <s_lp_Variant>
AV-unprocessed.smi:501-1

> <Gold.Version>
5.8.1

> <Gold.Id.Protein>
6NUR|6NUR_protein|mol2

> <Gold.PLP.Fitness>
49.0163

> <Gold.PLP.PLP>
-45.5365

> <Gold.PLP.part.hbond>
-1.4013

> <Gold.PLP.part.metal>
0.0000

> <Gold.PLP.part.buried>
-5.9350

> <Gold.PLP.part.nonpolar>
-38.2239

> <Gold.PLP.part.repulsive>
0.1755

> <Gold.PLP.ligand.clash>
0.0000

> <Gold.PLP.ligand.torsion>
0.9162

> <Gold.PLP.Chemscore.Hbond>
1.6988

> <Gold.PLP.Chemscore.CHOScore>
0.0000

> <Gold.PLP.Chemscore.Metal>
0.0000

> <Gold.Chemscore.Hbonds>
donor molecule, donor type, donor heavy atom, donor atom, acceptor molecule, acceptor atom, score
      P1  H  6896  6909       L1     7  0.75
      P1  H  7997  8008       L1    16  0.94

> <Gold.PLP.Chemscore.Internal.Correction>
0.2160

> <Gold.Rescore>
     Score         DG    S(hbond)    S(metal)    S(lipo)     H(rot)  DE(clash)    DE(int)     intcor
     17.50     -18.56       1.40        0.00     128.93       2.61       0.12       0.93       ----

> <Gold.Chemscore.Fitness>
17.5038

> <Gold.Chemscore.DG>
-18.5610

> <Gold.Chemscore.ZeroCoef>
-5.4800

> <Gold.Chemscore.Hbond>
1.4022

> <Gold.Chemscore.Metal>
0.0000

> <Gold.Chemscore.Lipo>
128.9298

> <Gold.Chemscore.Internal_Hbond>
0.0000

> <Gold.Chemscore.DEClash>
0.1234

> <Gold.Chemscore.DEInternal>
0.9338

> <Gold.Chemscore.Rot>
2.6122

> <Gold.Chemscore.Internal.Correction>
   9.000000E+99

> <Gold.Chemscore.Hbonds>
donor molecule, donor type, donor heavy atom, donor atom, acceptor molecule, acceptor atom, score
      P1  H  6896  6909       L1     7  0.09
      P1  H  7997  8008       L1    16  0.90

> <Gold.Chemscore.Hbond.Weighted>
-4.6834

> <Gold.Chemscore.Metal.Weighted>
-0.0000

> <Gold.Chemscore.Lipo.Weighted>
-15.0848

> <Gold.Chemscore.Internal_Hbond.Weighted>
0.0000

> <Gold.Chemscore.DEClash.Weighted>
0.1234

> <Gold.Chemscore.DEInternal.Weighted>
0.9338

> <Gold.Chemscore.Rot.Weighted>
6.6872

> <Gold.Chemscore.Internal.Correction.Weighted>
   9.000000E+99

> <Gold.Protein.RotatedTorsions>
[ 6907 6896 6895 6894 ] final  150.39 input  -60.11 | X-H torsion
[ 7974 7965 7964 7962 ] final -144.41 input  175.53 | X-H torsion
[ 8008 7997 7996 7995 ] final  -10.04 input   59.86 | X-H torsion
[ 10167 10162 10161 10158 ] final -170.85 input  -65.29 | X-H torsion
[ 10718 10713 10712 10709 ] final  -31.43 input   66.30 | X-H torsion
[ 10763 10752 10751 10750 ] final  134.85 input  -60.55 | X-H torsion
[ 11005 11000 10999 10996 ] final -169.75 input  -57.11 | X-H torsion

> <Gold.Protein.ActiveResidues>
 VAL166  LYS551  ARG553  GLY616  TRP617  ASP618  TYR619  PRO620  LYS621  CYS622 
 ASP623  PHE694  ASN695  SER759  ASP760  ASP761  ALA762  ILE779  LEU786  VAL792 
 PHE793  MET794  SER795  GLU796  ALA797  LYS798  CYS799  TRP800  GLU811  SER814 

> <Gold.Protein.RotatedAtoms>
  152.1151  133.4322  159.4648 H   0  0  0  0  0  0  0  0  0  0  0  0  # atno 6907 bound_to 6896
  150.6869  134.2602  159.4555 H   0  0  0  0  0  0  0  0  0  0  0  0  # atno 6908 bound_to 6896
  152.0474  134.9674  160.0625 H   0  0  0  0  0  0  0  0  0  0  0  0  # atno 6909 bound_to 6896
  144.8299  140.5713  143.5522 H   0  0  0  0  0  0  0  0  0  0  0  0  # atno 7974 bound_to 7965
  154.5591  140.2339  155.8364 H   0  0  0  0  0  0  0  0  0  0  0  0  # atno 8008 bound_to 7997
  156.2014  140.3051  155.9493 H   0  0  0  0  0  0  0  0  0  0  0  0  # atno 8009 bound_to 7997
  155.2924  140.0427  157.3014 H   0  0  0  0  0  0  0  0  0  0  0  0  # atno 8010 bound_to 7997
  139.5837  144.1366  152.1548 H   0  0  0  0  0  0  0  0  0  0  0  0  # atno 10167 bound_to 10162
  156.3873  130.4366  149.7422 H   0  0  0  0  0  0  0  0  0  0  0  0  # atno 10718 bound_to 10713
  153.8304  135.3104  155.3418 H   0  0  0  0  0  0  0  0  0  0  0  0  # atno 10763 bound_to 10752
  154.7976  135.4746  154.0200 H   0  0  0  0  0  0  0  0  0  0  0  0  # atno 10764 bound_to 10752
  153.1638  135.6865  153.8795 H   0  0  0  0  0  0  0  0  0  0  0  0  # atno 10765 bound_to 10752
  140.5272  134.5652  157.5064 H   0  0  0  0  0  0  0  0  0  0  0  0  # atno 11005 bound_to 11000
  145.4918  139.1488  143.3705 LP  0  0  0  0  0  0  0  0  0  0  0  0  # atno 17320 bound_to 7965
  146.2603  140.5056  142.8856 LP  0  0  0  0  0  0  0  0  0  0  0  0  # atno 17321 bound_to 7965
  140.0925  144.5608  150.7045 LP  0  0  0  0  0  0  0  0  0  0  0  0  # atno 17342 bound_to 10162
  140.7112  143.2506  151.4576 LP  0  0  0  0  0  0  0  0  0  0  0  0  # atno 17343 bound_to 10162
  156.4489  130.7897  151.2918 LP  0  0  0  0  0  0  0  0  0  0  0  0  # atno 17370 bound_to 10713
  157.7497  131.0101  150.3295 LP  0  0  0  0  0  0  0  0  0  0  0  0  # atno 17371 bound_to 10713
  139.9574  134.7512  156.0312 LP  0  0  0  0  0  0  0  0  0  0  0  0  # atno 17394 bound_to 11000
  141.1302  133.6588  156.3443 LP  0  0  0  0  0  0  0  0  0  0  0  0  # atno 17395 bound_to 11000

$$$$
