AV-unprocessed.smi:2532|AV-procd|sdf|9970|dock7
  -GOLD-   2272014 13D 1   1.00000     0.00000
 Structure written by MMmdl.
 37 39  0  0  0  0  0  0  0  0  2 V2000
  152.3328  138.0897  159.1595 O   0  0  0  0  0  0  0  0  0  0  0  0
  151.2507  138.8800  158.7084 C   0  0  2  0  0  0  0  0  0  0  0  0
  150.0514  137.9547  158.4513 C   0  0  0  0  0  0  0  0  0  0  0  0
  149.7900  137.2040  159.6251 O   0  0  0  0  0  0  0  0  0  0  0  0
  148.7432  136.2619  159.4533 C   0  0  0  0  0  0  0  0  0  0  0  0
  148.3437  135.7577  160.8048 C   0  0  0  0  0  0  0  0  0  0  0  0
  148.0195  136.5182  161.8996 C   0  0  0  0  0  0  0  0  0  0  0  0
  147.6659  135.7421  163.0424 C   0  0  0  0  0  0  0  0  0  0  0  0
  147.7182  134.3945  162.8060 C   0  0  0  0  0  0  0  0  0  0  0  0
  148.2024  134.0516  161.1680 S   0  0  0  0  0  0  0  0  0  0  0  0
  151.6713  139.6414  157.4356 C   0  0  0  0  0  0  0  0  0  0  0  0
  151.3085  141.0658  157.4741 N   0  0  0  0  0  0  0  0  0  0  0  0
  150.5521  141.7907  156.6058 C   0  0  0  0  0  0  0  0  0  0  0  0
  150.5066  143.0708  157.0680 N   0  3  0  0  0  0  0  0  0  0  0  0
  151.2430  143.1661  158.2506 C   0  0  0  0  0  0  0  0  0  0  0  0
  151.4885  144.2524  159.0849 C   0  0  0  0  0  0  0  0  0  0  0  0
  152.2839  144.0087  160.2238 C   0  0  0  0  0  0  0  0  0  0  0  0
  152.8003  142.7257  160.4980 C   0  0  0  0  0  0  0  0  0  0  0  0
  152.5460  141.6320  159.6444 C   0  0  0  0  0  0  0  0  0  0  0  0
  151.7605  141.8808  158.5191 C   0  0  0  0  0  0  0  0  0  0  0  0
  153.1333  138.5707  159.0123 H   0  0  0  0  0  0  0  0  0  0  0  0
  150.9945  139.6030  159.4840 H   0  0  0  0  0  0  0  0  0  0  0  0
  149.1674  138.5529  158.2246 H   0  0  0  0  0  0  0  0  0  0  0  0
  150.2306  137.3045  157.5929 H   0  0  0  0  0  0  0  0  0  0  0  0
  147.8903  136.7289  158.9589 H   0  0  0  0  0  0  0  0  0  0  0  0
  149.0777  135.4307  158.8311 H   0  0  0  0  0  0  0  0  0  0  0  0
  148.0245  137.5981  161.9195 H   0  0  0  0  0  0  0  0  0  0  0  0
  147.3879  136.1931  163.9836 H   0  0  0  0  0  0  0  0  0  0  0  0
  147.5007  133.5863  163.4888 H   0  0  0  0  0  0  0  0  0  0  0  0
  152.7412  139.5444  157.2495 H   0  0  0  0  0  0  0  0  0  0  0  0
  151.1719  139.2117  156.5664 H   0  0  0  0  0  0  0  0  0  0  0  0
  150.0750  141.4181  155.7108 H   0  0  0  0  0  0  0  0  0  0  0  0
  151.0921  145.2358  158.8786 H   0  0  0  0  0  0  0  0  0  0  0  0
  152.5008  144.8217  160.9014 H   0  0  0  0  0  0  0  0  0  0  0  0
  153.4027  142.5761  161.3823 H   0  0  0  0  0  0  0  0  0  0  0  0
  152.9414  140.6524  159.8682 H   0  0  0  0  0  0  0  0  0  0  0  0
  150.0079  143.8220  156.6086 H   0  0  0  0  0  0  0  0  0  0  0  0
  1  2  1  0  0  0  0
  1 21  1  0  0  0  0
  2  3  1  0  0  0  0
  2 11  1  0  0  0  0
  2 22  1  0  0  0  0
  3  4  1  0  0  0  0
  3 23  1  0  0  0  0
  3 24  1  0  0  0  0
  4  5  1  0  0  0  0
  5  6  1  0  0  0  0
  5 25  1  0  0  0  0
  5 26  1  0  0  0  0
  6 10  1  0  0  0  0
  6  7  2  0  0  0  0
  7  8  1  0  0  0  0
  7 27  1  0  0  0  0
  8  9  2  0  0  0  0
  8 28  1  0  0  0  0
  9 10  1  0  0  0  0
  9 29  1  0  0  0  0
 11 12  1  0  0  0  0
 11 30  1  0  0  0  0
 11 31  1  0  0  0  0
 12 20  1  0  0  0  0
 12 13  1  0  0  0  0
 13 14  2  0  0  0  0
 13 32  1  0  0  0  0
 14 15  1  0  0  0  0
 14 37  1  0  0  0  0
 15 20  2  0  0  0  0
 15 16  1  0  0  0  0
 16 17  2  0  0  0  0
 16 33  1  0  0  0  0
 17 18  1  0  0  0  0
 17 34  1  0  0  0  0
 18 19  2  0  0  0  0
 18 35  1  0  0  0  0
 19 20  1  0  0  0  0
 19 36  1  0  0  0  0
M  CHG  1  14   1
M  END
> <s_m_source_file>
AV-unprocessed.smi

> <i_m_source_file_index>
2532

> <i_lp_mmshare_version>
43012

> <i_f3d_flags>
0

> <s_epik_input>
W2NIXTFbY0hdW2NIXVtjSF1jKGMxMiluKFtjSF1uMilbQ0gyXVtDQEhdKFtPSF0pW0NIMl1PW0NIMl1jM1tjSF1bY0hdW2NIXXMz

> <s_epik_cmdline>
J2VwaWtfcHl0aG9uJywgJy1waCcsICc3LjAnLCAnLXRuJywgJzgnLCAnLW1hJywgJzIwMCcsICctbWV0YWxfYmluZGluZycsICctaW1hZScsICc8aW5maWxlLm1hZT4nLCAnLW9tYWUnLCAnPG91dGZpbGUubWFlPic=

> <r_epik_Ionization_Penalty>
1.31758

> <r_epik_Ionization_Penalty_Charging>
1.31758

> <r_epik_Ionization_Penalty_Neutral>
1.26231e-06

> <r_epik_State_Penalty>
1.39289

> <r_epik_Charging_Adjusted_Penalty>
2.71047

> <i_epik_Tot_Q>
1

> <i_epik_Tot_abs_Q>
1

> <r_epik_Metal_State_Penalty>
5.42637

> <b_epik_Metal_Only>
0

> <s_lp_Force_Field>
OPLS_2005

> <r_lp_Energy>
15.3098

> <b_lp_Chiralities_Consistent>
1

> <s_lp_Variant>
AV-unprocessed.smi:2532-3

> <Gold.Version>
5.8.1

> <Gold.Id.Protein>
6NUR|6NUR_protein|mol2

> <Gold.PLP.Fitness>
52.1922

> <Gold.PLP.PLP>
-47.7554

> <Gold.PLP.part.hbond>
-1.5995

> <Gold.PLP.part.metal>
0.0000

> <Gold.PLP.part.buried>
-5.7688

> <Gold.PLP.part.nonpolar>
-40.3591

> <Gold.PLP.part.repulsive>
0.0087

> <Gold.PLP.ligand.clash>
0.0000

> <Gold.PLP.ligand.torsion>
0.8164

> <Gold.PLP.Chemscore.Hbond>
2.0000

> <Gold.PLP.Chemscore.CHOScore>
0.0000

> <Gold.PLP.Chemscore.Metal>
0.0000

> <Gold.Chemscore.Hbonds>
donor molecule, donor type, donor heavy atom, donor atom, acceptor molecule, acceptor atom, score
      L1  H    14    37       P1  8028  2.00

> <Gold.PLP.Chemscore.Internal.Correction>
0.0695

> <Gold.Rescore>
     Score         DG    S(hbond)    S(metal)    S(lipo)     H(rot)  DE(clash)    DE(int)     intcor
     16.26     -17.05       1.00        0.00     124.24       2.46       0.04       0.75       ----

> <Gold.Chemscore.Fitness>
16.2641

> <Gold.Chemscore.DG>
-17.0534

> <Gold.Chemscore.ZeroCoef>
-5.4800

> <Gold.Chemscore.Hbond>
0.9991

> <Gold.Chemscore.Metal>
0.0000

> <Gold.Chemscore.Lipo>
124.2399

> <Gold.Chemscore.Internal_Hbond>
0.0000

> <Gold.Chemscore.DEClash>
0.0359

> <Gold.Chemscore.DEInternal>
0.7534

> <Gold.Chemscore.Rot>
2.4608

> <Gold.Chemscore.Internal.Correction>
   9.000000E+99

> <Gold.Chemscore.Hbonds>
donor molecule, donor type, donor heavy atom, donor atom, acceptor molecule, acceptor atom, score
      L1  H    14    37       P1  8028  1.00

> <Gold.Chemscore.Hbond.Weighted>
-3.3370

> <Gold.Chemscore.Metal.Weighted>
-0.0000

> <Gold.Chemscore.Lipo.Weighted>
-14.5361

> <Gold.Chemscore.Internal_Hbond.Weighted>
0.0000

> <Gold.Chemscore.DEClash.Weighted>
0.0359

> <Gold.Chemscore.DEInternal.Weighted>
0.7534

> <Gold.Chemscore.Rot.Weighted>
6.2996

> <Gold.Chemscore.Internal.Correction.Weighted>
   9.000000E+99

> <Gold.Protein.RotatedTorsions>
[ 6907 6896 6895 6894 ] final  -10.68 input  -60.11 | X-H torsion
[ 7974 7965 7964 7962 ] final  -50.81 input  175.53 | X-H torsion
[ 8008 7997 7996 7995 ] final   -0.18 input   59.86 | X-H torsion
[ 10167 10162 10161 10158 ] final  111.52 input  -65.29 | X-H torsion
[ 10718 10713 10712 10709 ] final  165.12 input   66.30 | X-H torsion
[ 10763 10752 10751 10750 ] final   66.23 input  -60.55 | X-H torsion
[ 11005 11000 10999 10996 ] final  -54.37 input  -57.11 | X-H torsion

> <Gold.Protein.ActiveResidues>
 VAL166  LYS551  ARG553  GLY616  TRP617  ASP618  TYR619  PRO620  LYS621  CYS622 
 ASP623  PHE694  ASN695  SER759  ASP760  ASP761  ALA762  ILE779  LEU786  VAL792 
 PHE793  MET794  SER795  GLU796  ALA797  LYS798  CYS799  TRP800  GLU811  SER814 

> <Gold.Protein.RotatedAtoms>
  151.3982  135.0967  159.9547 H   0  0  0  0  0  0  0  0  0  0  0  0  # atno 6907 bound_to 6896
  152.5059  133.8914  159.7406 H   0  0  0  0  0  0  0  0  0  0  0  0  # atno 6908 bound_to 6896
  150.9382  133.6631  159.2824 H   0  0  0  0  0  0  0  0  0  0  0  0  # atno 6909 bound_to 6896
  145.9257  140.7794  142.9625 H   0  0  0  0  0  0  0  0  0  0  0  0  # atno 7974 bound_to 7965
  154.6610  140.2590  155.7109 H   0  0  0  0  0  0  0  0  0  0  0  0  # atno 8008 bound_to 7997
  156.2618  140.2848  156.1004 H   0  0  0  0  0  0  0  0  0  0  0  0  # atno 8009 bound_to 7997
  155.1308  140.0378  157.2764 H   0  0  0  0  0  0  0  0  0  0  0  0  # atno 8010 bound_to 7997
  139.6605  144.7129  151.1875 H   0  0  0  0  0  0  0  0  0  0  0  0  # atno 10167 bound_to 10162
  157.0847  131.0401  151.2561 H   0  0  0  0  0  0  0  0  0  0  0  0  # atno 10718 bound_to 10713
  153.0131  135.5328  154.6792 H   0  0  0  0  0  0  0  0  0  0  0  0  # atno 10763 bound_to 10752
  154.5956  135.2863  155.0591 H   0  0  0  0  0  0  0  0  0  0  0  0  # atno 10764 bound_to 10752
  154.1668  135.6538  153.5052 H   0  0  0  0  0  0  0  0  0  0  0  0  # atno 10765 bound_to 10752
  141.1022  133.6617  156.4311 H   0  0  0  0  0  0  0  0  0  0  0  0  # atno 11005 bound_to 11000
  144.6758  140.2047  143.7383 LP  0  0  0  0  0  0  0  0  0  0  0  0  # atno 17320 bound_to 7965
  145.8491  139.2167  143.1782 LP  0  0  0  0  0  0  0  0  0  0  0  0  # atno 17321 bound_to 7965
  140.7578  143.6002  150.8707 LP  0  0  0  0  0  0  0  0  0  0  0  0  # atno 17342 bound_to 10162
  139.9659  143.6111  152.2988 LP  0  0  0  0  0  0  0  0  0  0  0  0  # atno 17343 bound_to 10162
  157.4771  130.7743  149.7378 LP  0  0  0  0  0  0  0  0  0  0  0  0  # atno 17370 bound_to 10713
  155.9914  130.3938  150.2986 LP  0  0  0  0  0  0  0  0  0  0  0  0  # atno 17371 bound_to 10713
  140.4992  134.6501  157.5242 LP  0  0  0  0  0  0  0  0  0  0  0  0  # atno 17394 bound_to 11000
  139.9878  134.7033  155.9742 LP  0  0  0  0  0  0  0  0  0  0  0  0  # atno 17395 bound_to 11000

$$$$
