AV-unprocessed.smi:1760|AV-procd|sdf|7091|dock2
  -GOLD-   22720 8313D 1   1.00000     0.00000
 Structure written by MMmdl.
 43 45  0  0  0  0  0  0  0  0  1 V2000
  150.2012  134.5848  155.9465 O   0  0  0  0  0  0  0  0  0  0  0  0
  149.8047  135.1054  154.9042 C   0  0  0  0  0  0  0  0  0  0  0  0
  149.1262  134.4829  153.9226 N   0  0  0  0  0  0  0  0  0  0  0  0
  148.6939  133.1479  153.8465 C   0  0  0  0  0  0  0  0  0  0  0  0
  149.3723  132.0806  154.3439 C   0  0  0  0  0  0  0  0  0  0  0  0
  148.8618  130.7240  154.2373 C   0  0  0  0  0  0  0  0  0  0  0  0
  149.6665  129.5299  154.7268 C   0  0  0  0  0  0  0  0  0  0  0  0
  149.8017  128.6115  153.7692 F   0  0  0  0  0  0  0  0  0  0  0  0
  150.8833  129.9030  155.1235 F   0  0  0  0  0  0  0  0  0  0  0  0
  149.0488  128.9623  155.7617 F   0  0  0  0  0  0  0  0  0  0  0  0
  147.6813  130.5745  153.6087 C   0  0  0  0  0  0  0  0  0  0  0  0
  146.9667  131.6681  153.1153 N   0  0  0  0  0  0  0  0  0  0  0  0
  147.3890  132.9500  153.1936 C   0  0  0  0  0  0  0  0  0  0  0  0
  146.6982  133.8600  152.7363 O   0  0  0  0  0  0  0  0  0  0  0  0
  150.0219  136.3908  154.5900 N   0  0  0  0  0  0  0  0  0  0  0  0
  150.7547  137.3587  155.4025 C   0  0  0  0  0  0  0  0  0  0  0  0
  149.9699  137.6778  156.6844 C   0  0  0  0  0  0  0  0  0  0  0  0
  150.6483  138.8088  157.4773 C   0  0  0  0  0  0  0  0  0  0  0  0
  150.7554  140.0111  156.6503 N   0  0  0  0  0  0  0  0  0  0  0  0
  151.3575  141.0736  157.4388 C   0  0  0  0  0  0  0  0  0  0  0  0
  150.4444  141.8933  158.3214 C   0  0  0  0  0  0  0  0  0  0  0  0
  151.0190  142.4980  157.0633 C   0  0  0  0  0  0  0  0  0  0  0  0
  151.6071  139.7438  155.4909 C   0  0  0  0  0  0  0  0  0  0  0  0
  150.9747  138.6547  154.6067 C   0  0  0  0  0  0  0  0  0  0  0  0
  146.0789  131.4753  152.6742 H   0  0  0  0  0  0  0  0  0  0  0  0
  148.9292  135.0324  153.0986 H   0  0  0  0  0  0  0  0  0  0  0  0
  150.3114  132.2083  154.8567 H   0  0  0  0  0  0  0  0  0  0  0  0
  147.2013  129.6229  153.4337 H   0  0  0  0  0  0  0  0  0  0  0  0
  149.6619  136.7265  153.7087 H   0  0  0  0  0  0  0  0  0  0  0  0
  151.7313  136.9639  155.6886 H   0  0  0  0  0  0  0  0  0  0  0  0
  148.9491  137.9728  156.4361 H   0  0  0  0  0  0  0  0  0  0  0  0
  149.8921  136.7857  157.3068 H   0  0  0  0  0  0  0  0  0  0  0  0
  150.0595  139.0311  158.3682 H   0  0  0  0  0  0  0  0  0  0  0  0
  151.6368  138.4945  157.8165 H   0  0  0  0  0  0  0  0  0  0  0  0
  152.3632  140.9235  157.8285 H   0  0  0  0  0  0  0  0  0  0  0  0
  149.3831  141.6514  158.3222 H   0  0  0  0  0  0  0  0  0  0  0  0
  150.8443  142.2369  159.2732 H   0  0  0  0  0  0  0  0  0  0  0  0
  151.8016  143.2454  157.1760 H   0  0  0  0  0  0  0  0  0  0  0  0
  150.3385  142.6582  156.2290 H   0  0  0  0  0  0  0  0  0  0  0  0
  151.7281  140.6587  154.9094 H   0  0  0  0  0  0  0  0  0  0  0  0
  152.6025  139.4367  155.8163 H   0  0  0  0  0  0  0  0  0  0  0  0
  151.6152  138.4602  153.7459 H   0  0  0  0  0  0  0  0  0  0  0  0
  150.0249  139.0178  154.2107 H   0  0  0  0  0  0  0  0  0  0  0  0
  1  2  2  0  0  0  0
  2  3  1  0  0  0  0
  2 15  1  0  0  0  0
  3  4  1  0  0  0  0
  3 26  1  0  0  0  0
  4 13  1  0  0  0  0
  4  5  2  0  0  0  0
  5  6  1  0  0  0  0
  5 27  1  0  0  0  0
  6  7  1  0  0  0  0
  6 11  2  0  0  0  0
  7  8  1  0  0  0  0
  7  9  1  0  0  0  0
  7 10  1  0  0  0  0
 11 12  1  0  0  0  0
 11 28  1  0  0  0  0
 12 25  1  0  0  0  0
 12 13  1  0  0  0  0
 13 14  2  0  0  0  0
 15 16  1  0  0  0  0
 15 29  1  0  0  0  0
 16 24  1  0  0  0  0
 16 17  1  0  0  0  0
 16 30  1  0  0  0  0
 17 18  1  0  0  0  0
 17 31  1  0  0  0  0
 17 32  1  0  0  0  0
 18 19  1  0  0  0  0
 18 33  1  0  0  0  0
 18 34  1  0  0  0  0
 19 20  1  0  0  0  0
 19 23  1  0  0  0  0
 20 22  1  0  0  0  0
 20 21  1  0  0  0  0
 20 35  1  0  0  0  0
 21 22  1  0  0  0  0
 21 36  1  0  0  0  0
 21 37  1  0  0  0  0
 22 38  1  0  0  0  0
 22 39  1  0  0  0  0
 23 24  1  0  0  0  0
 23 40  1  0  0  0  0
 23 41  1  0  0  0  0
 24 42  1  0  0  0  0
 24 43  1  0  0  0  0
M  END
> <s_m_source_file>
AV-unprocessed.smi

> <i_m_source_file_index>
1760

> <i_lp_mmshare_version>
43012

> <i_f3d_flags>
0

> <s_epik_input>
W0NIMl0xW0NIMl1bQ0hdMU4oW0NIMl1bQ0gyXTIpW0NIMl1bQ0gyXVtDSF0yW05IXUMoPU8pW05IXWMzW2NIXWMoQyhGKShGKUYpW2NIXVtuSF1jMz1P

> <s_epik_cmdline>
J2VwaWtfcHl0aG9uJywgJy1waCcsICc3LjAnLCAnLXRuJywgJzgnLCAnLW1hJywgJzIwMCcsICctbWV0YWxfYmluZGluZycsICctaW1hZScsICc8aW5maWxlLm1hZT4nLCAnLW9tYWUnLCAnPG91dGZpbGUubWFlPic=

> <r_lp_tautomer_probability>
0.999

> <r_epik_Ionization_Penalty>
0.980325

> <r_epik_Ionization_Penalty_Charging>
0.0037226

> <r_epik_Ionization_Penalty_Neutral>
0.976602

> <r_epik_State_Penalty>
1.02305

> <r_epik_Charging_Adjusted_Penalty>
1.02677

> <i_epik_Tot_Q>
0

> <i_epik_Tot_abs_Q>
0

> <r_epik_Metal_State_Penalty>
1.39928

> <b_epik_Metal_Only>
0

> <s_lp_Force_Field>
OPLS_2005

> <r_lp_Energy>
33.0511

> <b_lp_Chiralities_Consistent>
1

> <s_lp_Variant>
AV-unprocessed.smi:1760-3

> <Gold.Version>
5.8.1

> <Gold.Id.Protein>
6NUR|6NUR_protein|mol2

> <Gold.PLP.Fitness>
40.2753

> <Gold.PLP.PLP>
-35.4410

> <Gold.PLP.part.hbond>
-2.0279

> <Gold.PLP.part.metal>
0.0000

> <Gold.PLP.part.buried>
-3.5077

> <Gold.PLP.part.nonpolar>
-30.9034

> <Gold.PLP.part.repulsive>
0.2048

> <Gold.PLP.ligand.clash>
0.0000

> <Gold.PLP.ligand.torsion>
1.1116

> <Gold.PLP.Chemscore.Hbond>
1.9280

> <Gold.PLP.Chemscore.CHOScore>
0.0000

> <Gold.PLP.Chemscore.Metal>
0.0000

> <Gold.Chemscore.Hbonds>
donor molecule, donor type, donor heavy atom, donor atom, acceptor molecule, acceptor atom, score
      L1  H     3    26       P1  7948  1.00
      L1  H    15    29       P1  7948  0.93

> <Gold.PLP.Chemscore.Internal.Correction>
1.2734

> <Gold.Rescore>
     Score         DG    S(hbond)    S(metal)    S(lipo)     H(rot)  DE(clash)    DE(int)     intcor
     14.40     -15.62       1.40        0.00      74.49       1.27       0.23       0.99       ----

> <Gold.Chemscore.Fitness>
14.3972

> <Gold.Chemscore.DG>
-15.6212

> <Gold.Chemscore.ZeroCoef>
-5.4800

> <Gold.Chemscore.Hbond>
1.4029

> <Gold.Chemscore.Metal>
0.0000

> <Gold.Chemscore.Lipo>
74.4899

> <Gold.Chemscore.Internal_Hbond>
0.0000

> <Gold.Chemscore.DEClash>
0.2307

> <Gold.Chemscore.DEInternal>
0.9933

> <Gold.Chemscore.Rot>
1.2734

> <Gold.Chemscore.Internal.Correction>
   9.000000E+99

> <Gold.Chemscore.Hbonds>
donor molecule, donor type, donor heavy atom, donor atom, acceptor molecule, acceptor atom, score
      L1  H     3    26       P1  7948  0.26
      L1  H    15    29       P1  7948  0.56

> <Gold.Chemscore.Hbond.Weighted>
-4.6857

> <Gold.Chemscore.Metal.Weighted>
-0.0000

> <Gold.Chemscore.Lipo.Weighted>
-8.7153

> <Gold.Chemscore.Internal_Hbond.Weighted>
0.0000

> <Gold.Chemscore.DEClash.Weighted>
0.2307

> <Gold.Chemscore.DEInternal.Weighted>
0.9933

> <Gold.Chemscore.Rot.Weighted>
3.2598

> <Gold.Chemscore.Internal.Correction.Weighted>
   9.000000E+99

> <Gold.Protein.RotatedTorsions>
[ 6907 6896 6895 6894 ] final -164.66 input  -60.11 | X-H torsion
[ 7974 7965 7964 7962 ] final   20.02 input  175.53 | X-H torsion
[ 8008 7997 7996 7995 ] final    4.80 input   59.86 | X-H torsion
[ 10167 10162 10161 10158 ] final -119.08 input  -65.29 | X-H torsion
[ 10718 10713 10712 10709 ] final -164.80 input   66.30 | X-H torsion
[ 10763 10752 10751 10750 ] final   -2.25 input  -60.55 | X-H torsion
[ 11005 11000 10999 10996 ] final  -79.01 input  -57.11 | X-H torsion

> <Gold.Protein.ActiveResidues>
 VAL166  LYS551  ARG553  GLY616  TRP617  ASP618  TYR619  PRO620  LYS621  CYS622 
 ASP623  PHE694  ASN695  SER759  ASP760  ASP761  ALA762  ILE779  LEU786  VAL792 
 PHE793  MET794  SER795  GLU796  ALA797  LYS798  CYS799  TRP800  GLU811  SER814 

> <Gold.Protein.RotatedAtoms>
  151.4154  133.3714  159.2749 H   0  0  0  0  0  0  0  0  0  0  0  0  # atno 6907 bound_to 6896
  150.9332  134.8747  159.7575 H   0  0  0  0  0  0  0  0  0  0  0  0  # atno 6908 bound_to 6896
  152.5038  134.4100  159.9497 H   0  0  0  0  0  0  0  0  0  0  0  0  # atno 6909 bound_to 6896
  146.2127  139.8229  142.8676 H   0  0  0  0  0  0  0  0  0  0  0  0  # atno 7974 bound_to 7965
  154.7204  140.2710  155.6547 H   0  0  0  0  0  0  0  0  0  0  0  0  # atno 8008 bound_to 7997
  156.2822  140.2735  156.1798 H   0  0  0  0  0  0  0  0  0  0  0  0  # atno 8009 bound_to 7997
  155.0515  140.0371  157.2535 H   0  0  0  0  0  0  0  0  0  0  0  0  # atno 8010 bound_to 7997
  140.0506  143.5064  152.2084 H   0  0  0  0  0  0  0  0  0  0  0  0  # atno 10167 bound_to 10162
  156.6443  130.8981  151.3002 H   0  0  0  0  0  0  0  0  0  0  0  0  # atno 10718 bound_to 10713
  153.3555  135.6988  153.6754 H   0  0  0  0  0  0  0  0  0  0  0  0  # atno 10763 bound_to 10752
  153.5464  135.3562  155.2741 H   0  0  0  0  0  0  0  0  0  0  0  0  # atno 10764 bound_to 10752
  154.8660  135.4216  154.2800 H   0  0  0  0  0  0  0  0  0  0  0  0  # atno 10765 bound_to 10752
  141.1666  133.7087  156.8058 H   0  0  0  0  0  0  0  0  0  0  0  0  # atno 11005 bound_to 11000
  145.3077  141.0211  143.3572 LP  0  0  0  0  0  0  0  0  0  0  0  0  # atno 17320 bound_to 7965
  144.8959  139.4713  143.6656 LP  0  0  0  0  0  0  0  0  0  0  0  0  # atno 17321 bound_to 7965
  139.5956  144.7565  151.3295 LP  0  0  0  0  0  0  0  0  0  0  0  0  # atno 17342 bound_to 10162
  140.7218  143.7113  150.7767 LP  0  0  0  0  0  0  0  0  0  0  0  0  # atno 17343 bound_to 10162
  157.7161  130.9499  150.1261 LP  0  0  0  0  0  0  0  0  0  0  0  0  # atno 17370 bound_to 10713
  156.2134  130.3668  149.8642 LP  0  0  0  0  0  0  0  0  0  0  0  0  # atno 17371 bound_to 10713
  140.2223  134.8747  157.3390 LP  0  0  0  0  0  0  0  0  0  0  0  0  # atno 17394 bound_to 11000
  140.1975  134.4296  155.7681 LP  0  0  0  0  0  0  0  0  0  0  0  0  # atno 17395 bound_to 11000

$$$$
