AV-unprocessed.smi:913|AV-procd|sdf|4149|dock5
  -GOLD-   22720 2 53D 1   1.00000     0.00000
 Structure written by MMmdl.
 20 20  0  0  0  0  0  0  0  0  3 V2000
  152.1996  144.7885  159.3013 C   0  0  0  0  0  0  0  0  0  0  0  0
  152.0194  143.4314  158.6553 C   0  0  0  0  0  0  0  0  0  0  0  0
  151.1455  143.2903  157.7310 N   0  0  0  0  0  0  0  0  0  0  0  0
  150.9903  142.0284  157.1402 C   0  0  0  0  0  0  0  0  0  0  0  0
  150.0228  142.0184  156.1553 N   0  0  0  0  0  0  0  0  0  0  0  0
  151.7285  140.9496  157.5178 C   0  0  0  0  0  0  0  0  0  0  0  0
  151.5825  139.5753  156.8659 C   0  0  0  0  0  0  0  0  0  0  0  0
  151.8432  139.5929  155.3586 C   0  0  0  0  0  0  0  0  0  0  0  0
  150.8630  139.8134  154.6127 O   0  0  0  0  0  0  0  0  0  0  0  0
  153.0171  139.3949  154.9757 O   0  5  0  0  0  0  0  0  0  0  0  0
  152.7199  141.1579  158.5890 C   0  0  0  0  0  0  0  0  0  0  0  0
  153.4181  140.2239  158.9815 O   0  0  0  0  0  0  0  0  0  0  0  0
  152.8279  142.4138  159.1162 N   0  5  0  0  0  0  0  0  0  0  0  0
  151.5523  145.5343  158.8383 H   0  0  0  0  0  0  0  0  0  0  0  0
  153.2326  145.1220  159.1981 H   0  0  0  0  0  0  0  0  0  0  0  0
  151.9565  144.7359  160.3628 H   0  0  0  0  0  0  0  0  0  0  0  0
  149.5173  142.8648  155.9332 H   0  0  0  0  0  0  0  0  0  0  0  0
  150.0276  141.3081  155.4385 H   0  0  0  0  0  0  0  0  0  0  0  0
  152.2851  138.8893  157.3408 H   0  0  0  0  0  0  0  0  0  0  0  0
  150.5963  139.1488  157.0499 H   0  0  0  0  0  0  0  0  0  0  0  0
  1  2  1  0  0  0  0
  1 14  1  0  0  0  0
  1 15  1  0  0  0  0
  1 16  1  0  0  0  0
  2 13  1  0  0  0  0
  2  3  2  0  0  0  0
  3  4  1  0  0  0  0
  4  5  1  0  0  0  0
  4  6  2  0  0  0  0
  5 17  1  0  0  0  0
  5 18  1  0  0  0  0
  6  7  1  0  0  0  0
  6 11  1  0  0  0  0
  7  8  1  0  0  0  0
  7 19  1  0  0  0  0
  7 20  1  0  0  0  0
  8  9  2  0  0  0  0
  8 10  1  0  0  0  0
 11 12  2  0  0  0  0
 11 13  1  0  0  0  0
M  CHG  1  10  -1
M  CHG  1  13  -1
M  END
> <s_m_source_file>
AV-unprocessed.smi

> <i_m_source_file_index>
913

> <i_lp_mmshare_version>
43012

> <i_f3d_flags>
0

> <s_epik_input>
W0NIM11jMW5jKFtOSDJdKWMoYyg9TylbbkhdMSlbQ0gyXUMoPU8pW09IXQ==

> <s_epik_cmdline>
J2VwaWtfcHl0aG9uJywgJy1waCcsICc3LjAnLCAnLXRuJywgJzgnLCAnLW1hJywgJzIwMCcsICctbWV0YWxfYmluZGluZycsICctaW1hZScsICc8aW5maWxlLm1hZT4nLCAnLW9tYWUnLCAnPG91dGZpbGUubWFlPic=

> <r_lp_tautomer_probability>
0.994035

> <r_epik_Ionization_Penalty>
6.8797

> <r_epik_Ionization_Penalty_Charging>
0.00156716

> <r_epik_Ionization_Penalty_Neutral>
6.87813

> <r_epik_State_Penalty>
4.11317

> <r_epik_Charging_Adjusted_Penalty>
4.11474

> <i_epik_Tot_Q>
-2

> <i_epik_Tot_abs_Q>
2

> <r_epik_Metal_State_Penalty>
0.657697

> <b_epik_Metal_Only>
1

> <s_lp_Force_Field>
OPLS_2005

> <r_lp_Energy>
14.3997

> <b_lp_Chiralities_Consistent>
1

> <s_lp_Variant>
AV-unprocessed.smi:913-2

> <Gold.Version>
5.8.1

> <Gold.Id.Protein>
6NUR|6NUR_protein|mol2

> <Gold.PLP.Fitness>
37.7118

> <Gold.PLP.PLP>
-25.1373

> <Gold.PLP.part.hbond>
-4.8184

> <Gold.PLP.part.metal>
0.0000

> <Gold.PLP.part.buried>
-4.0473

> <Gold.PLP.part.nonpolar>
-15.9520

> <Gold.PLP.part.repulsive>
0.3268

> <Gold.PLP.ligand.clash>
0.0000

> <Gold.PLP.ligand.torsion>
0.3762

> <Gold.PLP.Chemscore.Hbond>
4.4420

> <Gold.PLP.Chemscore.CHOScore>
0.0000

> <Gold.PLP.Chemscore.Metal>
0.0000

> <Gold.Chemscore.Hbonds>
donor molecule, donor type, donor heavy atom, donor atom, acceptor molecule, acceptor atom, score
      L1  H     5    17       P1  8028  1.00
      P1  H  7989  7998       L1     9  0.90
      P1  H  7997  8008       L1    10  1.89
      P1  H  7997  8010       L1    12  0.27

> <Gold.PLP.Chemscore.Internal.Correction>
0.0009

> <Gold.Rescore>
     Score         DG    S(hbond)    S(metal)    S(lipo)     H(rot)  DE(clash)    DE(int)     intcor
     13.42     -13.79       2.88        0.00      25.31       1.67       0.00       0.36       ----

> <Gold.Chemscore.Fitness>
13.4236

> <Gold.Chemscore.DG>
-13.7893

> <Gold.Chemscore.ZeroCoef>
-5.4800

> <Gold.Chemscore.Hbond>
2.8797

> <Gold.Chemscore.Metal>
0.0000

> <Gold.Chemscore.Lipo>
25.3108

> <Gold.Chemscore.Internal_Hbond>
0.0000

> <Gold.Chemscore.DEClash>
0.0048

> <Gold.Chemscore.DEInternal>
0.3609

> <Gold.Chemscore.Rot>
1.6681

> <Gold.Chemscore.Internal.Correction>
   9.000000E+99

> <Gold.Chemscore.Hbonds>
donor molecule, donor type, donor heavy atom, donor atom, acceptor molecule, acceptor atom, score
      L1  H     5    17       P1  8028  0.98
      P1  H  7989  7998       L1     9  0.18
      P1  H  7997  8008       L1    10  0.88
      P1  H  7997  8010       L1    12  0.09

> <Gold.Chemscore.Hbond.Weighted>
-9.6182

> <Gold.Chemscore.Metal.Weighted>
-0.0000

> <Gold.Chemscore.Lipo.Weighted>
-2.9614

> <Gold.Chemscore.Internal_Hbond.Weighted>
0.0000

> <Gold.Chemscore.DEClash.Weighted>
0.0048

> <Gold.Chemscore.DEInternal.Weighted>
0.3609

> <Gold.Chemscore.Rot.Weighted>
4.2703

> <Gold.Chemscore.Internal.Correction.Weighted>
   9.000000E+99

> <Gold.Protein.RotatedTorsions>
[ 6907 6896 6895 6894 ] final  -36.16 input  -60.11 | X-H torsion
[ 7974 7965 7964 7962 ] final  -25.94 input  175.53 | X-H torsion
[ 8008 7997 7996 7995 ] final    7.12 input   59.86 | X-H torsion
[ 10167 10162 10161 10158 ] final   -7.23 input  -65.29 | X-H torsion
[ 10718 10713 10712 10709 ] final  147.70 input   66.30 | X-H torsion
[ 10763 10752 10751 10750 ] final   85.05 input  -60.55 | X-H torsion
[ 11005 11000 10999 10996 ] final  120.05 input  -57.11 | X-H torsion

> <Gold.Protein.ActiveResidues>
 VAL166  LYS551  ARG553  GLY616  TRP617  ASP618  TYR619  PRO620  LYS621  CYS622 
 ASP623  PHE694  ASN695  SER759  ASP760  ASP761  ALA762  ILE779  LEU786  VAL792 
 PHE793  MET794  SER795  GLU796  ALA797  LYS798  CYS799  TRP800  GLU811  SER814 

> <Gold.Protein.RotatedAtoms>
  151.0307  134.9537  159.8109 H   0  0  0  0  0  0  0  0  0  0  0  0  # atno 6907 bound_to 6896
  152.5345  134.2784  159.9008 H   0  0  0  0  0  0  0  0  0  0  0  0  # atno 6908 bound_to 6896
  151.2793  133.4175  159.2660 H   0  0  0  0  0  0  0  0  0  0  0  0  # atno 6909 bound_to 6896
  146.1458  140.4954  142.8632 H   0  0  0  0  0  0  0  0  0  0  0  0  # atno 7974 bound_to 7965
  154.7498  140.2764  155.6302 H   0  0  0  0  0  0  0  0  0  0  0  0  # atno 8008 bound_to 7997
  156.2893  140.2681  156.2174 H   0  0  0  0  0  0  0  0  0  0  0  0  # atno 8009 bound_to 7997
  155.0152  140.0372  157.2405 H   0  0  0  0  0  0  0  0  0  0  0  0  # atno 8010 bound_to 7997
  140.7022  143.6104  150.8710 H   0  0  0  0  0  0  0  0  0  0  0  0  # atno 10167 bound_to 10162
  157.3178  131.0899  151.1265 H   0  0  0  0  0  0  0  0  0  0  0  0  # atno 10718 bound_to 10713
  153.1438  135.4631  154.9536 H   0  0  0  0  0  0  0  0  0  0  0  0  # atno 10763 bound_to 10752
  154.7769  135.3176  154.8074 H   0  0  0  0  0  0  0  0  0  0  0  0  # atno 10764 bound_to 10752
  153.8592  135.6914  153.4838 H   0  0  0  0  0  0  0  0  0  0  0  0  # atno 10765 bound_to 10752
  139.9170  134.9632  156.7749 H   0  0  0  0  0  0  0  0  0  0  0  0  # atno 11005 bound_to 11000
  144.7844  140.5907  143.6583 LP  0  0  0  0  0  0  0  0  0  0  0  0  # atno 17320 bound_to 7965
  145.4941  139.1487  143.3693 LP  0  0  0  0  0  0  0  0  0  0  0  0  # atno 17321 bound_to 7965
  139.9827  143.5934  152.2937 LP  0  0  0  0  0  0  0  0  0  0  0  0  # atno 17342 bound_to 10162
  139.6560  144.7662  151.2054 LP  0  0  0  0  0  0  0  0  0  0  0  0  # atno 17343 bound_to 10162
  157.2562  130.6637  149.5953 LP  0  0  0  0  0  0  0  0  0  0  0  0  # atno 17370 bound_to 10713
  155.9683  130.4523  150.5768 LP  0  0  0  0  0  0  0  0  0  0  0  0  # atno 17371 bound_to 10713
  140.6591  133.9661  155.7795 LP  0  0  0  0  0  0  0  0  0  0  0  0  # atno 17394 bound_to 11000
  141.0656  134.0282  157.3599 LP  0  0  0  0  0  0  0  0  0  0  0  0  # atno 17395 bound_to 11000

$$$$
