AV-unprocessed.smi:1346|AV-procd|sdf|5513|dock4
  -GOLD-   22720 5 93D 1   1.00000     0.00000
 Structure written by MMmdl.
 47 48  0  0  0  0  0  0  0  0  1 V2000
  151.0447  141.4473  156.2159 C   0  0  0  0  0  0  0  0  0  0  0  0
  151.0016  140.0297  155.7226 C   0  0  0  0  0  0  0  0  0  0  0  0
  150.9250  139.8004  154.4226 N   0  0  0  0  0  0  0  0  0  0  0  0
  150.9047  138.4100  154.2790 O   0  0  0  0  0  0  0  0  0  0  0  0
  150.9686  137.8497  155.5132 C   0  0  0  0  0  0  0  0  0  0  0  0
  150.9628  136.3594  155.5682 C   0  0  0  0  0  0  0  0  0  0  0  0
  151.0289  138.8201  156.4758 C   0  0  0  0  0  0  0  0  0  0  0  0
  151.1092  138.6556  157.9718 C   0  0  0  0  0  0  0  0  0  0  0  0
  150.0902  137.6124  158.4308 C   0  0  0  0  0  0  0  0  0  0  0  0
  150.4459  136.6810  159.1529 O   0  0  0  0  0  0  0  0  0  0  0  0
  148.8288  137.7783  158.0049 N   0  0  0  0  0  0  0  0  0  0  0  0
  147.7123  136.8919  158.3131 C   0  0  0  0  0  0  0  0  0  0  0  0
  147.4035  136.8644  159.8171 C   0  0  0  0  0  0  0  0  0  0  0  0
  146.5750  135.7477  160.1029 O   0  0  0  0  0  0  0  0  0  0  0  0
  145.7395  135.9189  161.2427 C   0  0  1  0  0  0  0  0  0  0  0  0
  144.4566  135.0969  161.0213 C   0  0  0  0  0  0  0  0  0  0  0  0
  144.7389  133.5855  161.0004 C   0  0  0  0  0  0  0  0  0  0  0  0
  145.4719  133.1384  162.2739 C   0  0  0  0  0  0  0  0  0  0  0  0
  146.7646  133.9428  162.4843 C   0  0  0  0  0  0  0  0  0  0  0  0
  146.4885  135.4594  162.5154 C   0  0  1  0  0  0  0  0  0  0  0  0
  147.7727  136.2658  162.7629 C   0  0  0  0  0  0  0  0  0  0  0  0
  151.4582  141.5059  157.2224 H   0  0  0  0  0  0  0  0  0  0  0  0
  150.0450  141.8814  156.2414 H   0  0  0  0  0  0  0  0  0  0  0  0
  151.6639  142.0721  155.5714 H   0  0  0  0  0  0  0  0  0  0  0  0
  151.2890  136.0017  156.5449 H   0  0  0  0  0  0  0  0  0  0  0  0
  151.6340  135.9416  154.8176 H   0  0  0  0  0  0  0  0  0  0  0  0
  149.9617  135.9706  155.3829 H   0  0  0  0  0  0  0  0  0  0  0  0
  152.1107  138.3609  158.2878 H   0  0  0  0  0  0  0  0  0  0  0  0
  150.8985  139.5936  158.4863 H   0  0  0  0  0  0  0  0  0  0  0  0
  148.6286  138.5718  157.4135 H   0  0  0  0  0  0  0  0  0  0  0  0
  146.8293  137.2037  157.7530 H   0  0  0  0  0  0  0  0  0  0  0  0
  147.9620  135.8889  157.9666 H   0  0  0  0  0  0  0  0  0  0  0  0
  148.3274  136.8156  160.3952 H   0  0  0  0  0  0  0  0  0  0  0  0
  146.8892  137.7818  160.1063 H   0  0  0  0  0  0  0  0  0  0  0  0
  145.4513  136.9656  161.3621 H   0  0  0  0  0  0  0  0  0  0  0  0
  143.7462  135.3176  161.8189 H   0  0  0  0  0  0  0  0  0  0  0  0
  143.9759  135.4000  160.0905 H   0  0  0  0  0  0  0  0  0  0  0  0
  143.8037  133.0347  160.8973 H   0  0  0  0  0  0  0  0  0  0  0  0
  145.3411  133.3362  160.1260 H   0  0  0  0  0  0  0  0  0  0  0  0
  144.8172  133.2668  163.1367 H   0  0  0  0  0  0  0  0  0  0  0  0
  145.7017  132.0741  162.2161 H   0  0  0  0  0  0  0  0  0  0  0  0
  147.2374  133.6318  163.4164 H   0  0  0  0  0  0  0  0  0  0  0  0
  147.4731  133.7106  161.6880 H   0  0  0  0  0  0  0  0  0  0  0  0
  145.8285  135.6509  163.3628 H   0  0  0  0  0  0  0  0  0  0  0  0
  148.5082  136.0962  161.9764 H   0  0  0  0  0  0  0  0  0  0  0  0
  148.2339  135.9863  163.7105 H   0  0  0  0  0  0  0  0  0  0  0  0
  147.5645  137.3354  162.8002 H   0  0  0  0  0  0  0  0  0  0  0  0
  1  2  1  0  0  0  0
  1 22  1  0  0  0  0
  1 23  1  0  0  0  0
  1 24  1  0  0  0  0
  2  7  1  0  0  0  0
  2  3  2  0  0  0  0
  3  4  1  0  0  0  0
  4  5  1  0  0  0  0
  5  6  1  0  0  0  0
  5  7  2  0  0  0  0
  6 25  1  0  0  0  0
  6 26  1  0  0  0  0
  6 27  1  0  0  0  0
  7  8  1  0  0  0  0
  8  9  1  0  0  0  0
  8 28  1  0  0  0  0
  8 29  1  0  0  0  0
  9 10  2  0  0  0  0
  9 11  1  0  0  0  0
 11 12  1  0  0  0  0
 11 30  1  0  0  0  0
 12 13  1  0  0  0  0
 12 31  1  0  0  0  0
 12 32  1  0  0  0  0
 13 14  1  0  0  0  0
 13 33  1  0  0  0  0
 13 34  1  0  0  0  0
 14 15  1  0  0  0  0
 15 20  1  0  0  0  0
 15 16  1  0  0  0  0
 15 35  1  0  0  0  0
 16 17  1  0  0  0  0
 16 36  1  0  0  0  0
 16 37  1  0  0  0  0
 17 18  1  0  0  0  0
 17 38  1  0  0  0  0
 17 39  1  0  0  0  0
 18 19  1  0  0  0  0
 18 40  1  0  0  0  0
 18 41  1  0  0  0  0
 19 20  1  0  0  0  0
 19 42  1  0  0  0  0
 19 43  1  0  0  0  0
 20 21  1  0  0  0  0
 20 44  1  0  0  0  0
 21 45  1  0  0  0  0
 21 46  1  0  0  0  0
 21 47  1  0  0  0  0
M  END
> <s_m_source_file>
AV-unprocessed.smi

> <i_m_source_file_index>
1346

> <i_lp_mmshare_version>
43012

> <i_f3d_flags>
0

> <s_epik_input>
W0NIM11jMW5vYyhbQ0gzXSljMVtDSDJdQyg9TylbTkhdW0NIMl1bQ0gyXU9bQ0BASF0yW0NIMl1bQ0gyXVtDSDJdW0NIMl1bQ0BIXTJbQ0gzXQ==

> <s_epik_cmdline>
J2VwaWtfcHl0aG9uJywgJy1waCcsICc3LjAnLCAnLXRuJywgJzgnLCAnLW1hJywgJzIwMCcsICctbWV0YWxfYmluZGluZycsICctaW1hZScsICc8aW5maWxlLm1hZT4nLCAnLW9tYWUnLCAnPG91dGZpbGUubWFlPic=

> <r_lp_tautomer_probability>
1

> <r_epik_Ionization_Penalty>
3.26154e-08

> <r_epik_Ionization_Penalty_Charging>
0

> <r_epik_Ionization_Penalty_Neutral>
3.26154e-08

> <r_epik_State_Penalty>
-0

> <r_epik_Charging_Adjusted_Penalty>
0

> <i_epik_Tot_Q>
0

> <i_epik_Tot_abs_Q>
0

> <r_epik_Metal_State_Penalty>
-0

> <b_epik_Metal_Only>
0

> <s_lp_Force_Field>
OPLS_2005

> <r_lp_Energy>
6.45158

> <b_lp_Chiralities_Consistent>
1

> <s_lp_Variant>
AV-unprocessed.smi:1346-2

> <Gold.Version>
5.8.1

> <Gold.Id.Protein>
6NUR|6NUR_protein|mol2

> <Gold.PLP.Fitness>
37.3180

> <Gold.PLP.PLP>
-32.9236

> <Gold.PLP.part.hbond>
-2.0000

> <Gold.PLP.part.metal>
0.0000

> <Gold.PLP.part.buried>
-5.8751

> <Gold.PLP.part.nonpolar>
-25.4045

> <Gold.PLP.part.repulsive>
0.4055

> <Gold.PLP.ligand.clash>
0.0000

> <Gold.PLP.ligand.torsion>
0.8336

> <Gold.PLP.Chemscore.Hbond>
2.0000

> <Gold.PLP.Chemscore.CHOScore>
0.0000

> <Gold.PLP.Chemscore.Metal>
0.0000

> <Gold.Chemscore.Hbonds>
donor molecule, donor type, donor heavy atom, donor atom, acceptor molecule, acceptor atom, score
      P1  H  6896  6908       L1    10  1.00
      P1  H  7989  7998       L1     3  1.00

> <Gold.PLP.Chemscore.Internal.Correction>
0.0617

> <Gold.Rescore>
     Score         DG    S(hbond)    S(metal)    S(lipo)     H(rot)  DE(clash)    DE(int)     intcor
     17.32     -18.31       1.97        0.00      91.24       1.74       0.06       0.93       ----

> <Gold.Chemscore.Fitness>
17.3245

> <Gold.Chemscore.DG>
-18.3097

> <Gold.Chemscore.ZeroCoef>
-5.4800

> <Gold.Chemscore.Hbond>
1.9750

> <Gold.Chemscore.Metal>
0.0000

> <Gold.Chemscore.Lipo>
91.2424

> <Gold.Chemscore.Internal_Hbond>
0.0000

> <Gold.Chemscore.DEClash>
0.0576

> <Gold.Chemscore.DEInternal>
0.9275

> <Gold.Chemscore.Rot>
1.7352

> <Gold.Chemscore.Internal.Correction>
   9.000000E+99

> <Gold.Chemscore.Hbonds>
donor molecule, donor type, donor heavy atom, donor atom, acceptor molecule, acceptor atom, score
      P1  H  6896  6908       L1    10  0.99
      P1  H  7989  7998       L1     3  0.90

> <Gold.Chemscore.Hbond.Weighted>
-6.5964

> <Gold.Chemscore.Metal.Weighted>
-0.0000

> <Gold.Chemscore.Lipo.Weighted>
-10.6754

> <Gold.Chemscore.Internal_Hbond.Weighted>
0.0000

> <Gold.Chemscore.DEClash.Weighted>
0.0576

> <Gold.Chemscore.DEInternal.Weighted>
0.9275

> <Gold.Chemscore.Rot.Weighted>
4.4420

> <Gold.Chemscore.Internal.Correction.Weighted>
   9.000000E+99

> <Gold.Protein.RotatedTorsions>
[ 6907 6896 6895 6894 ] final -164.93 input  -60.11 | X-H torsion
[ 7974 7965 7964 7962 ] final  -67.38 input  175.53 | X-H torsion
[ 8008 7997 7996 7995 ] final -176.25 input   59.86 | X-H torsion
[ 10167 10162 10161 10158 ] final  138.53 input  -65.29 | X-H torsion
[ 10718 10713 10712 10709 ] final  -74.38 input   66.30 | X-H torsion
[ 10763 10752 10751 10750 ] final -171.25 input  -60.55 | X-H torsion
[ 11005 11000 10999 10996 ] final   76.15 input  -57.11 | X-H torsion

> <Gold.Protein.ActiveResidues>
 VAL166  LYS551  ARG553  GLY616  TRP617  ASP618  TYR619  PRO620  LYS621  CYS622 
 ASP623  PHE694  ASN695  SER759  ASP760  ASP761  ALA762  ILE779  LEU786  VAL792 
 PHE793  MET794  SER795  GLU796  ALA797  LYS798  CYS799  TRP800  GLU811  SER814 

> <Gold.Protein.RotatedAtoms>
  151.4197  133.3702  159.2754 H   0  0  0  0  0  0  0  0  0  0  0  0  # atno 6907 bound_to 6896
  150.9303  134.8719  159.7557 H   0  0  0  0  0  0  0  0  0  0  0  0  # atno 6908 bound_to 6896
  152.5024  134.4141  159.9510 H   0  0  0  0  0  0  0  0  0  0  0  0  # atno 6909 bound_to 6896
  145.7299  140.9001  143.0586 H   0  0  0  0  0  0  0  0  0  0  0  0  # atno 7974 bound_to 7965
  155.9925  140.1204  157.0624 H   0  0  0  0  0  0  0  0  0  0  0  0  # atno 8008 bound_to 7997
  154.4216  140.1123  156.5654 H   0  0  0  0  0  0  0  0  0  0  0  0  # atno 8009 bound_to 7997
  155.6323  140.3473  155.4689 H   0  0  0  0  0  0  0  0  0  0  0  0  # atno 8010 bound_to 7997
  139.5108  144.6348  151.5725 H   0  0  0  0  0  0  0  0  0  0  0  0  # atno 10167 bound_to 10162
  156.0245  130.4415  150.2884 H   0  0  0  0  0  0  0  0  0  0  0  0  # atno 10718 bound_to 10713
  154.6326  135.2888  155.0199 H   0  0  0  0  0  0  0  0  0  0  0  0  # atno 10763 bound_to 10752
  154.1354  135.6527  153.4935 H   0  0  0  0  0  0  0  0  0  0  0  0  # atno 10764 bound_to 10752
  153.0287  135.5320  154.7159 H   0  0  0  0  0  0  0  0  0  0  0  0  # atno 10765 bound_to 10752
  139.9311  134.7577  156.1360 H   0  0  0  0  0  0  0  0  0  0  0  0  # atno 11005 bound_to 11000
  144.6895  139.9316  143.7472 LP  0  0  0  0  0  0  0  0  0  0  0  0  # atno 17320 bound_to 7965
  146.0547  139.3545  143.0618 LP  0  0  0  0  0  0  0  0  0  0  0  0  # atno 17321 bound_to 7965
  140.6093  143.9465  150.6442 LP  0  0  0  0  0  0  0  0  0  0  0  0  # atno 17342 bound_to 10162
  140.2703  143.3461  152.1244 LP  0  0  0  0  0  0  0  0  0  0  0  0  # atno 17343 bound_to 10162
  157.0987  131.0190  151.3094 LP  0  0  0  0  0  0  0  0  0  0  0  0  # atno 17370 bound_to 10713
  157.4797  130.7757  149.7402 LP  0  0  0  0  0  0  0  0  0  0  0  0  # atno 17371 bound_to 10713
  141.0900  133.6718  156.2519 LP  0  0  0  0  0  0  0  0  0  0  0  0  # atno 17394 bound_to 11000
  140.6200  134.5371  157.5546 LP  0  0  0  0  0  0  0  0  0  0  0  0  # atno 17395 bound_to 11000

$$$$
