AV-unprocessed.smi:1477|AV-procd|sdf|5981|dock3
  -GOLD-   22720 6 73D 1   1.00000     0.00000
 Structure written by MMmdl.
 33 34  0  0  0  0  0  0  0  0  1 V2000
  151.9375  141.5649  157.7511 C   0  0  0  0  0  0  0  0  0  0  0  0
  151.2009  141.0188  156.6088 N   0  0  0  0  0  0  0  0  0  0  0  0
  150.0726  141.7281  156.1558 C   0  0  0  0  0  0  0  0  0  0  0  0
  149.3235  141.3151  155.1170 C   0  0  0  0  0  0  0  0  0  0  0  0
  148.2223  142.1033  154.7532 N   0  0  0  0  0  0  0  0  0  0  0  0
  147.1002  141.7547  154.0928 C   0  0  0  0  0  0  0  0  0  0  0  0
  146.8356  140.6258  153.6834 O   0  0  0  0  0  0  0  0  0  0  0  0
  146.1045  142.8857  153.8350 C   0  0  0  0  0  0  0  0  0  0  0  0
  145.4346  143.2107  155.0438 O   0  0  0  0  0  0  0  0  0  0  0  0
  144.4599  144.2241  154.8680 C   0  0  0  0  0  0  0  0  0  0  0  0
  144.0385  144.7469  156.2247 C   0  0  0  0  0  0  0  0  0  0  0  0
  142.9134  145.7508  156.3358 C   0  0  0  0  0  0  0  0  0  0  0  0
  144.3297  146.1742  156.6301 C   0  0  0  0  0  0  0  0  0  0  0  0
  149.7363  140.0830  154.4598 C   0  0  0  0  0  0  0  0  0  0  0  0
  150.8164  139.3999  154.8879 C   0  0  0  0  0  0  0  0  0  0  0  0
  151.6195  139.8601  156.0232 C   0  0  0  0  0  0  0  0  0  0  0  0
  152.6080  139.2439  156.4229 O   0  0  0  0  0  0  0  0  0  0  0  0
  151.4838  142.4722  158.1512 H   0  0  0  0  0  0  0  0  0  0  0  0
  152.9603  141.8115  157.4628 H   0  0  0  0  0  0  0  0  0  0  0  0
  151.9795  140.8384  158.5637 H   0  0  0  0  0  0  0  0  0  0  0  0
  149.8536  142.6304  156.7090 H   0  0  0  0  0  0  0  0  0  0  0  0
  148.2821  143.0710  155.0355 H   0  0  0  0  0  0  0  0  0  0  0  0
  146.6432  143.7530  153.4506 H   0  0  0  0  0  0  0  0  0  0  0  0
  145.3842  142.5752  153.0761 H   0  0  0  0  0  0  0  0  0  0  0  0
  144.8578  145.0406  154.2628 H   0  0  0  0  0  0  0  0  0  0  0  0
  143.5840  143.8222  154.3568 H   0  0  0  0  0  0  0  0  0  0  0  0
  144.0824  144.0012  157.0162 H   0  0  0  0  0  0  0  0  0  0  0  0
  142.4635  146.1136  155.4137 H   0  0  0  0  0  0  0  0  0  0  0  0
  142.2325  145.6500  157.1786 H   0  0  0  0  0  0  0  0  0  0  0  0
  144.5946  146.3560  157.6697 H   0  0  0  0  0  0  0  0  0  0  0  0
  144.8220  146.8187  155.9045 H   0  0  0  0  0  0  0  0  0  0  0  0
  149.2021  139.6823  153.6143 H   0  0  0  0  0  0  0  0  0  0  0  0
  151.1008  138.4902  154.3797 H   0  0  0  0  0  0  0  0  0  0  0  0
  1  2  1  0  0  0  0
  1 18  1  0  0  0  0
  1 19  1  0  0  0  0
  1 20  1  0  0  0  0
  2 16  1  0  0  0  0
  2  3  1  0  0  0  0
  3  4  2  0  0  0  0
  3 21  1  0  0  0  0
  4  5  1  0  0  0  0
  4 14  1  0  0  0  0
  5  6  1  0  0  0  0
  5 22  1  0  0  0  0
  6  7  2  0  0  0  0
  6  8  1  0  0  0  0
  8  9  1  0  0  0  0
  8 23  1  0  0  0  0
  8 24  1  0  0  0  0
  9 10  1  0  0  0  0
 10 11  1  0  0  0  0
 10 25  1  0  0  0  0
 10 26  1  0  0  0  0
 11 13  1  0  0  0  0
 11 12  1  0  0  0  0
 11 27  1  0  0  0  0
 12 13  1  0  0  0  0
 12 28  1  0  0  0  0
 12 29  1  0  0  0  0
 13 30  1  0  0  0  0
 13 31  1  0  0  0  0
 14 15  2  0  0  0  0
 14 32  1  0  0  0  0
 15 16  1  0  0  0  0
 15 33  1  0  0  0  0
 16 17  2  0  0  0  0
M  END
> <s_m_source_file>
AV-unprocessed.smi

> <i_m_source_file_index>
1477

> <i_lp_mmshare_version>
43012

> <i_f3d_flags>
0

> <s_epik_input>
Tz1jMVtjSF1bY0hdYyhbY0hdbjFbQ0gzXSlbTkhdQyg9TylbQ0gyXU9bQ0gyXVtDSF0yW0NIMl1bQ0gyXTI=

> <s_epik_cmdline>
J2VwaWtfcHl0aG9uJywgJy1waCcsICc3LjAnLCAnLXRuJywgJzgnLCAnLW1hJywgJzIwMCcsICctbWV0YWxfYmluZGluZycsICctaW1hZScsICc8aW5maWxlLm1hZT4nLCAnLW9tYWUnLCAnPG91dGZpbGUubWFlPic=

> <r_lp_tautomer_probability>
1

> <r_epik_Ionization_Penalty>
2.50647e-06

> <r_epik_Ionization_Penalty_Charging>
2.2009e-06

> <r_epik_Ionization_Penalty_Neutral>
3.05566e-07

> <r_epik_State_Penalty>
-0

> <r_epik_Charging_Adjusted_Penalty>
2.2009e-06

> <i_epik_Tot_Q>
0

> <i_epik_Tot_abs_Q>
0

> <r_epik_Metal_State_Penalty>
-0

> <b_epik_Metal_Only>
0

> <s_lp_Force_Field>
OPLS_2005

> <r_lp_Energy>
27.664

> <b_lp_Chiralities_Consistent>
1

> <s_lp_Variant>
AV-unprocessed.smi:1477-1

> <Gold.Version>
5.8.1

> <Gold.Id.Protein>
6NUR|6NUR_protein|mol2

> <Gold.PLP.Fitness>
41.1225

> <Gold.PLP.PLP>
-33.3909

> <Gold.PLP.part.hbond>
-2.0000

> <Gold.PLP.part.metal>
0.0000

> <Gold.PLP.part.buried>
-3.8041

> <Gold.PLP.part.nonpolar>
-27.1091

> <Gold.PLP.part.repulsive>
0.5477

> <Gold.PLP.ligand.clash>
0.0000

> <Gold.PLP.ligand.torsion>
0.7176

> <Gold.PLP.Chemscore.Hbond>
2.0000

> <Gold.PLP.Chemscore.CHOScore>
0.8687

> <Gold.PLP.Chemscore.Metal>
0.0000

> <Gold.Chemscore.Hbonds>
donor molecule, donor type, donor heavy atom, donor atom, acceptor molecule, acceptor atom, score
      L1  H     5    22       P1  8028  1.00
      P1  H  7997  8010       L1    17  0.99
      L1  C     3    21       P1  8028  0.88

> <Gold.PLP.Chemscore.Internal.Correction>
0.5609

> <Gold.Rescore>
     Score         DG    S(hbond)    S(metal)    S(lipo)     H(rot)  DE(clash)    DE(int)     intcor
     13.79     -15.56       1.96        0.00      64.73       1.58       0.40       1.37       ----

> <Gold.Chemscore.Fitness>
13.7855

> <Gold.Chemscore.DG>
-15.5589

> <Gold.Chemscore.ZeroCoef>
-5.4800

> <Gold.Chemscore.Hbond>
1.9637

> <Gold.Chemscore.Metal>
0.0000

> <Gold.Chemscore.Lipo>
64.7329

> <Gold.Chemscore.Internal_Hbond>
0.0000

> <Gold.Chemscore.DEClash>
0.3994

> <Gold.Chemscore.DEInternal>
1.3740

> <Gold.Chemscore.Rot>
1.5834

> <Gold.Chemscore.Internal.Correction>
   9.000000E+99

> <Gold.Chemscore.Hbonds>
donor molecule, donor type, donor heavy atom, donor atom, acceptor molecule, acceptor atom, score
      L1  H     5    22       P1  8028  0.99
      P1  H  7997  8010       L1    17  0.80

> <Gold.Chemscore.Hbond.Weighted>
-6.5588

> <Gold.Chemscore.Metal.Weighted>
-0.0000

> <Gold.Chemscore.Lipo.Weighted>
-7.5738

> <Gold.Chemscore.Internal_Hbond.Weighted>
0.0000

> <Gold.Chemscore.DEClash.Weighted>
0.3994

> <Gold.Chemscore.DEInternal.Weighted>
1.3740

> <Gold.Chemscore.Rot.Weighted>
4.0536

> <Gold.Chemscore.Internal.Correction.Weighted>
   9.000000E+99

> <Gold.Protein.RotatedTorsions>
[ 6907 6896 6895 6894 ] final   82.46 input  -60.11 | X-H torsion
[ 7974 7965 7964 7962 ] final    8.95 input  175.53 | X-H torsion
[ 8008 7997 7996 7995 ] final   93.96 input   59.86 | X-H torsion
[ 10167 10162 10161 10158 ] final  170.73 input  -65.29 | X-H torsion
[ 10718 10713 10712 10709 ] final   25.27 input   66.30 | X-H torsion
[ 10763 10752 10751 10750 ] final -160.31 input  -60.55 | X-H torsion
[ 11005 11000 10999 10996 ] final  -87.26 input  -57.11 | X-H torsion

> <Gold.Protein.ActiveResidues>
 VAL166  LYS551  ARG553  GLY616  TRP617  ASP618  TYR619  PRO620  LYS621  CYS622 
 ASP623  PHE694  ASN695  SER759  ASP760  ASP761  ALA762  ILE779  LEU786  VAL792 
 PHE793  MET794  SER795  GLU796  ALA797  LYS798  CYS799  TRP800  GLU811  SER814 

> <Gold.Protein.RotatedAtoms>
  152.5300  134.3046  159.9090 H   0  0  0  0  0  0  0  0  0  0  0  0  # atno 6907 bound_to 6896
  151.2996  133.4122  159.2646 H   0  0  0  0  0  0  0  0  0  0  0  0  # atno 6908 bound_to 6896
  151.0130  134.9427  159.8075 H   0  0  0  0  0  0  0  0  0  0  0  0  # atno 6909 bound_to 6896
  146.2410  139.9857  142.8431 H   0  0  0  0  0  0  0  0  0  0  0  0  # atno 7974 bound_to 7965
  156.0526  140.3306  155.7368 H   0  0  0  0  0  0  0  0  0  0  0  0  # atno 8008 bound_to 7997
  155.5578  140.0616  157.2853 H   0  0  0  0  0  0  0  0  0  0  0  0  # atno 8009 bound_to 7997
  154.4443  140.1882  156.0740 H   0  0  0  0  0  0  0  0  0  0  0  0  # atno 8010 bound_to 7997
  139.5027  144.3564  151.9870 H   0  0  0  0  0  0  0  0  0  0  0  0  # atno 10167 bound_to 10162
  157.1911  130.6846  149.6150 H   0  0  0  0  0  0  0  0  0  0  0  0  # atno 10718 bound_to 10713
  154.7401  135.3066  154.8743 H   0  0  0  0  0  0  0  0  0  0  0  0  # atno 10763 bound_to 10752
  153.9560  135.6758  153.4748 H   0  0  0  0  0  0  0  0  0  0  0  0  # atno 10764 bound_to 10752
  153.1000  135.4916  154.8774 H   0  0  0  0  0  0  0  0  0  0  0  0  # atno 10765 bound_to 10752
  141.1619  133.7501  156.9281 H   0  0  0  0  0  0  0  0  0  0  0  0  # atno 11005 bound_to 11000
  145.1550  140.9643  143.4410 LP  0  0  0  0  0  0  0  0  0  0  0  0  # atno 17320 bound_to 7965
  145.0169  139.3459  143.6092 LP  0  0  0  0  0  0  0  0  0  0  0  0  # atno 17321 bound_to 7965
  140.3000  144.3657  150.6063 LP  0  0  0  0  0  0  0  0  0  0  0  0  # atno 17342 bound_to 10162
  140.5880  143.2169  151.7305 LP  0  0  0  0  0  0  0  0  0  0  0  0  # atno 17343 bound_to 10162
  155.9711  130.4614  150.6109 LP  0  0  0  0  0  0  0  0  0  0  0  0  # atno 17370 bound_to 10713
  157.3859  131.0788  151.1436 LP  0  0  0  0  0  0  0  0  0  0  0  0  # atno 17371 bound_to 10713
  140.1405  134.9296  157.2460 LP  0  0  0  0  0  0  0  0  0  0  0  0  # atno 17394 bound_to 11000
  140.2842  134.3314  155.7334 LP  0  0  0  0  0  0  0  0  0  0  0  0  # atno 17395 bound_to 11000

$$$$
