AV-unprocessed.smi:36|AV-procd|sdf|284|dock6
  -GOLD-   2262016 63D 1   1.00000     0.00000
 Structure written by MMmdl.
 64 67  0  0  0  0  0  0  0  0  1 V2000
  146.3264  136.8665  160.4882 C   0  0  0  0  0  0  0  0  0  0  0  0
  147.3788  136.0374  161.2426 C   0  0  0  0  0  0  0  0  0  0  0  0
  148.7444  136.1684  160.5472 C   0  0  0  0  0  0  0  0  0  0  0  0
  147.4894  136.5286  162.6955 C   0  0  0  0  0  0  0  0  0  0  0  0
  146.8574  134.1996  161.2462 Si  0  0  0  0  0  0  0  0  0  0  0  0
  148.0168  133.1554  162.3298 C   0  0  0  0  0  0  0  0  0  0  0  0
  145.0635  133.9970  161.8402 C   0  0  0  0  0  0  0  0  0  0  0  0
  146.9655  133.6313  159.6573 O   0  0  0  0  0  0  0  0  0  0  0  0
  146.8632  134.4634  158.5217 C   0  0  0  0  0  0  0  0  0  0  0  0
  147.8208  133.9482  157.4403 C   0  0  1  0  0  0  0  0  0  0  0  0
  147.8622  134.8405  156.3223 O   0  0  0  0  0  0  0  0  0  0  0  0
  149.1848  135.0914  155.9422 C   0  0  1  0  0  0  0  0  0  0  0  0
  149.5767  136.4415  156.4653 N   0  0  0  0  0  0  0  0  0  0  0  0
  149.5891  136.9097  157.7635 C   0  0  0  0  0  0  0  0  0  0  0  0
  149.9799  138.1474  157.9094 N   0  0  0  0  0  0  0  0  0  0  0  0
  150.2253  138.5778  156.6124 C   0  0  0  0  0  0  0  0  0  0  0  0
  150.6613  139.8051  156.0486 C   0  0  0  0  0  0  0  0  0  0  0  0
  150.9504  140.8575  156.8493 N   0  0  0  0  0  0  0  0  0  0  0  0
  152.0089  140.9672  157.8374 C   0  0  0  0  0  0  0  0  0  0  0  0
  152.8637  140.0926  157.9822 O   0  0  0  0  0  0  0  0  0  0  0  0
  152.0571  142.2530  158.6101 C   0  0  0  0  0  0  0  0  0  0  0  0
  152.5089  142.2570  159.9488 C   0  0  0  0  0  0  0  0  0  0  0  0
  152.5383  143.4559  160.6875 C   0  0  0  0  0  0  0  0  0  0  0  0
  152.1087  144.6591  160.0966 C   0  0  0  0  0  0  0  0  0  0  0  0
  151.6469  144.6623  158.7671 C   0  0  0  0  0  0  0  0  0  0  0  0
  151.6175  143.4643  158.0270 C   0  0  0  0  0  0  0  0  0  0  0  0
  150.7844  139.8633  154.6962 N   0  0  0  0  0  0  0  0  0  0  0  0
  150.4930  138.7955  153.9473 C   0  0  0  0  0  0  0  0  0  0  0  0
  150.0771  137.5895  154.3404 N   0  0  0  0  0  0  0  0  0  0  0  0
  149.9607  137.5210  155.6981 C   0  0  0  0  0  0  0  0  0  0  0  0
  150.0256  134.0016  156.6090 C   0  0  0  0  0  0  0  0  0  0  0  0
  149.2730  133.7979  157.9065 C   0  0  2  0  0  0  0  0  0  0  0  0
  149.5364  132.5210  158.4509 O   0  0  0  0  0  0  0  0  0  0  0  0
  146.5952  137.9231  160.4691 H   0  0  0  0  0  0  0  0  0  0  0  0
  145.3457  136.7859  160.9578 H   0  0  0  0  0  0  0  0  0  0  0  0
  146.2248  136.5349  159.4547 H   0  0  0  0  0  0  0  0  0  0  0  0
  148.6954  135.8393  159.5089 H   0  0  0  0  0  0  0  0  0  0  0  0
  149.5037  135.5664  161.0477 H   0  0  0  0  0  0  0  0  0  0  0  0
  149.0913  137.2023  160.5467 H   0  0  0  0  0  0  0  0  0  0  0  0
  147.8076  137.5707  162.7388 H   0  0  0  0  0  0  0  0  0  0  0  0
  148.2147  135.9398  163.2582 H   0  0  0  0  0  0  0  0  0  0  0  0
  146.5334  136.4556  163.2142 H   0  0  0  0  0  0  0  0  0  0  0  0
  147.9948  133.4812  163.3694 H   0  0  0  0  0  0  0  0  0  0  0  0
  149.0502  133.2199  161.9900 H   0  0  0  0  0  0  0  0  0  0  0  0
  147.7365  132.1025  162.3144 H   0  0  0  0  0  0  0  0  0  0  0  0
  144.9250  134.4055  162.8409 H   0  0  0  0  0  0  0  0  0  0  0  0
  144.7700  132.9481  161.8764 H   0  0  0  0  0  0  0  0  0  0  0  0
  144.3628  134.5069  161.1795 H   0  0  0  0  0  0  0  0  0  0  0  0
  145.8356  134.4428  158.1578 H   0  0  0  0  0  0  0  0  0  0  0  0
  147.0953  135.4927  158.7932 H   0  0  0  0  0  0  0  0  0  0  0  0
  147.4571  132.9948  157.0535 H   0  0  0  0  0  0  0  0  0  0  0  0
  149.3062  135.1662  154.8610 H   0  0  0  0  0  0  0  0  0  0  0  0
  149.2982  136.3074  158.6106 H   0  0  0  0  0  0  0  0  0  0  0  0
  150.3427  141.6588  156.7610 H   0  0  0  0  0  0  0  0  0  0  0  0
  152.8404  141.3413  160.4171 H   0  0  0  0  0  0  0  0  0  0  0  0
  152.8890  143.4520  161.7089 H   0  0  0  0  0  0  0  0  0  0  0  0
  152.1295  145.5779  160.6637 H   0  0  0  0  0  0  0  0  0  0  0  0
  151.3119  145.5844  158.3154 H   0  0  0  0  0  0  0  0  0  0  0  0
  151.2497  143.4878  157.0116 H   0  0  0  0  0  0  0  0  0  0  0  0
  150.6128  138.9261  152.8820 H   0  0  0  0  0  0  0  0  0  0  0  0
  149.9841  133.1077  155.9846 H   0  0  0  0  0  0  0  0  0  0  0  0
  151.0682  134.2906  156.7410 H   0  0  0  0  0  0  0  0  0  0  0  0
  149.5388  134.5756  158.6243 H   0  0  0  0  0  0  0  0  0  0  0  0
  150.4716  132.3817  158.4471 H   0  0  0  0  0  0  0  0  0  0  0  0
  1  2  1  0  0  0  0
  1 34  1  0  0  0  0
  1 35  1  0  0  0  0
  1 36  1  0  0  0  0
  2  3  1  0  0  0  0
  2  4  1  0  0  0  0
  2  5  1  0  0  0  0
  3 37  1  0  0  0  0
  3 38  1  0  0  0  0
  3 39  1  0  0  0  0
  4 40  1  0  0  0  0
  4 41  1  0  0  0  0
  4 42  1  0  0  0  0
  5  6  1  0  0  0  0
  5  7  1  0  0  0  0
  5  8  1  0  0  0  0
  6 43  1  0  0  0  0
  6 44  1  0  0  0  0
  6 45  1  0  0  0  0
  7 46  1  0  0  0  0
  7 47  1  0  0  0  0
  7 48  1  0  0  0  0
  8  9  1  0  0  0  0
  9 10  1  0  0  0  0
  9 49  1  0  0  0  0
  9 50  1  0  0  0  0
 10 32  1  0  0  0  0
 10 11  1  0  0  0  0
 10 51  1  0  0  0  0
 11 12  1  0  0  0  0
 12 13  1  0  0  0  0
 12 31  1  0  0  0  0
 12 52  1  0  0  0  0
 13 30  1  0  0  0  0
 13 14  1  0  0  0  0
 14 15  2  0  0  0  0
 14 53  1  0  0  0  0
 15 16  1  0  0  0  0
 16 30  2  0  0  0  0
 16 17  1  0  0  0  0
 17 18  1  0  0  0  0
 17 27  2  0  0  0  0
 18 19  1  0  0  0  0
 18 54  1  0  0  0  0
 19 20  2  0  0  0  0
 19 21  1  0  0  0  0
 21 26  1  0  0  0  0
 21 22  2  0  0  0  0
 22 23  1  0  0  0  0
 22 55  1  0  0  0  0
 23 24  2  0  0  0  0
 23 56  1  0  0  0  0
 24 25  1  0  0  0  0
 24 57  1  0  0  0  0
 25 26  2  0  0  0  0
 25 58  1  0  0  0  0
 26 59  1  0  0  0  0
 27 28  1  0  0  0  0
 28 29  2  0  0  0  0
 28 60  1  0  0  0  0
 29 30  1  0  0  0  0
 31 32  1  0  0  0  0
 31 61  1  0  0  0  0
 31 62  1  0  0  0  0
 32 33  1  0  0  0  0
 32 63  1  0  0  0  0
 33 64  1  0  0  0  0
M  END
> <s_m_source_file>
AV-unprocessed.smi

> <i_m_source_file_index>
36

> <i_lp_mmshare_version>
43012

> <i_f3d_flags>
0

> <s_epik_input>
W0NIM11DKFtDSDNdKShbQ0gzXSlbU2ldKFtDSDNdKShbQ0gzXSlPW0NIMl1bQ0BASF0xT1tDQEhdKFtDSDJdW0NASF0xW09IXSluKFtjSF1uMiljKGMyMyluW2NIXW5jM1tOSF1DKD1PKWM0W2NIXVtjSF1bY0hdW2NIXVtjSF00

> <s_epik_cmdline>
J2VwaWtfcHl0aG9uJywgJy1waCcsICc3LjAnLCAnLXRuJywgJzgnLCAnLW1hJywgJzIwMCcsICctbWV0YWxfYmluZGluZycsICctaW1hZScsICc8aW5maWxlLm1hZT4nLCAnLW9tYWUnLCAnPG91dGZpbGUubWFlPic=

> <r_lp_tautomer_probability>
1

> <r_epik_Ionization_Penalty>
0.00150433

> <r_epik_Ionization_Penalty_Charging>
0

> <r_epik_Ionization_Penalty_Neutral>
0.00150433

> <r_epik_State_Penalty>
0.00724046

> <r_epik_Charging_Adjusted_Penalty>
0.00724046

> <i_epik_Tot_Q>
0

> <i_epik_Tot_abs_Q>
0

> <r_epik_Metal_State_Penalty>
0.323355

> <b_epik_Metal_Only>
0

> <s_epik_Chemistry_Notes>
This compound contains an acetal/aminal-like group ( X-CH(R)-Y where X, Y are N, S, or O) that may be acid/base labile, releasing an aldehyde.

> <s_lp_Force_Field>
OPLS_2005

> <r_lp_Energy>
33.6094

> <b_lp_Chiralities_Consistent>
1

> <s_lp_Variant>
AV-unprocessed.smi:36-6

> <Gold.Version>
5.8.1

> <Gold.Id.Protein>
6NUR|6NUR_protein|mol2

> <Gold.PLP.Fitness>
52.7728

> <Gold.PLP.PLP>
-47.6750

> <Gold.PLP.part.hbond>
-3.0000

> <Gold.PLP.part.metal>
0.0000

> <Gold.PLP.part.buried>
-4.5069

> <Gold.PLP.part.nonpolar>
-40.6874

> <Gold.PLP.part.repulsive>
0.8442

> <Gold.PLP.ligand.clash>
0.0000

> <Gold.PLP.ligand.torsion>
2.2001

> <Gold.PLP.Chemscore.Hbond>
2.0000

> <Gold.PLP.Chemscore.CHOScore>
1.0000

> <Gold.PLP.Chemscore.Metal>
0.0000

> <Gold.Chemscore.Hbonds>
donor molecule, donor type, donor heavy atom, donor atom, acceptor molecule, acceptor atom, score
      P1  H  7989  7998       L1    27  1.00
      P1  H  7997  8009       L1    20  1.00
      L1  C    28    60       P1  7957  1.00

> <Gold.PLP.Chemscore.Internal.Correction>
0.4981

> <Gold.Rescore>
     Score         DG    S(hbond)    S(metal)    S(lipo)     H(rot)  DE(clash)    DE(int)     intcor
     15.21     -19.35       1.87        0.00     124.38       2.70       1.83       2.31       ----

> <Gold.Chemscore.Fitness>
15.2070

> <Gold.Chemscore.DG>
-19.3457

> <Gold.Chemscore.ZeroCoef>
-5.4800

> <Gold.Chemscore.Hbond>
1.8672

> <Gold.Chemscore.Metal>
0.0000

> <Gold.Chemscore.Lipo>
124.3752

> <Gold.Chemscore.Internal_Hbond>
0.0000

> <Gold.Chemscore.DEClash>
1.8328

> <Gold.Chemscore.DEInternal>
2.3059

> <Gold.Chemscore.Rot>
2.7041

> <Gold.Chemscore.Internal.Correction>
   9.000000E+99

> <Gold.Chemscore.Hbonds>
donor molecule, donor type, donor heavy atom, donor atom, acceptor molecule, acceptor atom, score
      P1  H  7989  7998       L1    27  0.26
      P1  H  7997  8009       L1    20  0.95

> <Gold.Chemscore.Hbond.Weighted>
-6.2363

> <Gold.Chemscore.Metal.Weighted>
-0.0000

> <Gold.Chemscore.Lipo.Weighted>
-14.5519

> <Gold.Chemscore.Internal_Hbond.Weighted>
0.0000

> <Gold.Chemscore.DEClash.Weighted>
1.8328

> <Gold.Chemscore.DEInternal.Weighted>
2.3059

> <Gold.Chemscore.Rot.Weighted>
6.9225

> <Gold.Chemscore.Internal.Correction.Weighted>
   9.000000E+99

> <Gold.Protein.RotatedTorsions>
[ 6907 6896 6895 6894 ] final -127.86 input  -60.11 | X-H torsion
[ 7974 7965 7964 7962 ] final   89.26 input  175.53 | X-H torsion
[ 8008 7997 7996 7995 ] final  163.30 input   59.86 | X-H torsion
[ 10167 10162 10161 10158 ] final -161.11 input  -65.29 | X-H torsion
[ 10718 10713 10712 10709 ] final  -76.61 input   66.30 | X-H torsion
[ 10763 10752 10751 10750 ] final  138.58 input  -60.55 | X-H torsion
[ 11005 11000 10999 10996 ] final -118.39 input  -57.11 | X-H torsion

> <Gold.Protein.ActiveResidues>
 VAL166  LYS551  ARG553  GLY616  TRP617  ASP618  TYR619  PRO620  LYS621  CYS622 
 ASP623  PHE694  ASN695  SER759  ASP760  ASP761  ALA762  ILE779  LEU786  VAL792 
 PHE793  MET794  SER795  GLU796  ALA797  LYS798  CYS799  TRP800  GLU811  SER814 

> <Gold.Protein.RotatedAtoms>
  150.9117  133.6989  159.2852 H   0  0  0  0  0  0  0  0  0  0  0  0  # atno 6907 bound_to 6896
  151.4474  135.1025  159.9697 H   0  0  0  0  0  0  0  0  0  0  0  0  # atno 6908 bound_to 6896
  152.4933  133.8511  159.7257 H   0  0  0  0  0  0  0  0  0  0  0  0  # atno 6909 bound_to 6896
  145.5347  139.2285  143.2599 H   0  0  0  0  0  0  0  0  0  0  0  0  # atno 7974 bound_to 7965
  156.1967  140.1727  156.7983 H   0  0  0  0  0  0  0  0  0  0  0  0  # atno 8008 bound_to 7997
  154.5539  140.0712  156.8743 H   0  0  0  0  0  0  0  0  0  0  0  0  # atno 8009 bound_to 7997
  155.2976  140.3359  155.4251 H   0  0  0  0  0  0  0  0  0  0  0  0  # atno 8010 bound_to 7997
  139.6489  144.0120  152.2147 H   0  0  0  0  0  0  0  0  0  0  0  0  # atno 10167 bound_to 10162
  156.0170  130.4470  150.3219 H   0  0  0  0  0  0  0  0  0  0  0  0  # atno 10718 bound_to 10713
  153.8919  135.3032  155.3447 H   0  0  0  0  0  0  0  0  0  0  0  0  # atno 10763 bound_to 10752
  154.7712  135.4885  153.9656 H   0  0  0  0  0  0  0  0  0  0  0  0  # atno 10764 bound_to 10752
  153.1293  135.6800  153.9304 H   0  0  0  0  0  0  0  0  0  0  0  0  # atno 10765 bound_to 10752
  141.0289  134.0012  157.3173 H   0  0  0  0  0  0  0  0  0  0  0  0  # atno 11005 bound_to 11000
  146.2021  140.6164  142.9097 LP  0  0  0  0  0  0  0  0  0  0  0  0  # atno 17320 bound_to 7965
  144.7608  140.5416  143.6737 LP  0  0  0  0  0  0  0  0  0  0  0  0  # atno 17321 bound_to 7965
  139.9829  144.6416  150.7884 LP  0  0  0  0  0  0  0  0  0  0  0  0  # atno 17342 bound_to 10162
  140.7528  143.2997  151.3112 LP  0  0  0  0  0  0  0  0  0  0  0  0  # atno 17343 bound_to 10162
  157.1319  131.0274  151.2965 LP  0  0  0  0  0  0  0  0  0  0  0  0  # atno 17370 bound_to 10713
  157.4543  130.7616  149.7179 LP  0  0  0  0  0  0  0  0  0  0  0  0  # atno 17371 bound_to 10713
  139.9194  135.0199  156.8007 LP  0  0  0  0  0  0  0  0  0  0  0  0  # atno 17394 bound_to 11000
  140.6442  133.9790  155.7723 LP  0  0  0  0  0  0  0  0  0  0  0  0  # atno 17395 bound_to 11000

$$$$
