AV-unprocessed.smi:358|AV-procd|sdf|2417|dock4
  -GOLD-   2262022353D 1   1.00000     0.00000
 Structure written by MMmdl.
 37 39  0  0  0  0  0  0  0  0  1 V2000
  150.0458  138.4037  153.6153 N   0  0  0  0  0  0  0  0  0  0  0  0
  150.1691  139.2947  154.6016 C   0  0  0  0  0  0  0  0  0  0  0  0
  150.1951  140.5055  154.3879 O   0  0  0  0  0  0  0  0  0  0  0  0
  150.2801  138.7376  156.0248 C   0  0  0  0  0  0  0  0  0  0  0  0
  149.2155  139.2258  156.8940 N   0  0  0  0  0  0  0  0  0  0  0  0
  148.2413  138.5355  157.5223 C   0  0  0  0  0  0  0  0  0  0  0  0
  148.0673  136.7898  157.3890 S   0  0  0  0  0  0  0  0  0  0  0  0
  146.7001  136.6075  158.5706 C   0  0  0  0  0  0  0  0  0  0  0  0
  147.1461  136.5063  160.0303 C   0  0  0  0  0  0  0  0  0  0  0  0
  148.0140  137.2568  160.4776 O   0  0  0  0  0  0  0  0  0  0  0  0
  146.5260  135.5730  160.7674 N   0  0  0  0  0  0  0  0  0  0  0  0
  146.7719  135.3061  162.1476 C   0  0  0  0  0  0  0  0  0  0  0  0
  147.4059  133.9785  162.5030 C   0  0  0  0  0  0  0  0  0  0  0  0
  145.9536  134.2190  162.8104 C   0  0  0  0  0  0  0  0  0  0  0  0
  147.4340  139.2971  158.2641 N   0  0  0  0  0  0  0  0  0  0  0  0
  147.9042  140.5833  158.1179 N   0  0  0  0  0  0  0  0  0  0  0  0
  148.9444  140.4878  157.2865 C   0  0  0  0  0  0  0  0  0  0  0  0
  149.7788  141.6580  156.8718 C   0  0  0  0  0  0  0  0  0  0  0  0
  151.2825  141.6464  157.0391 C   0  0  0  0  0  0  0  0  0  0  0  0
  150.4399  142.5509  157.8988 C   0  0  0  0  0  0  0  0  0  0  0  0
  149.9674  138.7232  152.6604 H   0  0  0  0  0  0  0  0  0  0  0  0
  150.0292  137.4160  153.8241 H   0  0  0  0  0  0  0  0  0  0  0  0
  150.2462  137.6485  155.9885 H   0  0  0  0  0  0  0  0  0  0  0  0
  151.2431  139.0035  156.4626 H   0  0  0  0  0  0  0  0  0  0  0  0
  146.0327  137.4637  158.4706 H   0  0  0  0  0  0  0  0  0  0  0  0
  146.1266  135.7195  158.3013 H   0  0  0  0  0  0  0  0  0  0  0  0
  145.8249  135.0050  160.3145 H   0  0  0  0  0  0  0  0  0  0  0  0
  147.0500  136.1491  162.7786 H   0  0  0  0  0  0  0  0  0  0  0  0
  147.6400  133.2919  161.6916 H   0  0  0  0  0  0  0  0  0  0  0  0
  148.1006  133.9626  163.3403 H   0  0  0  0  0  0  0  0  0  0  0  0
  145.6775  134.3650  163.8527 H   0  0  0  0  0  0  0  0  0  0  0  0
  145.2179  133.6941  162.2037 H   0  0  0  0  0  0  0  0  0  0  0  0
  149.3702  142.1240  155.9773 H   0  0  0  0  0  0  0  0  0  0  0  0
  151.7357  140.7817  157.5202 H   0  0  0  0  0  0  0  0  0  0  0  0
  151.8780  142.1092  156.2549 H   0  0  0  0  0  0  0  0  0  0  0  0
  150.4709  143.6182  157.6899 H   0  0  0  0  0  0  0  0  0  0  0  0
  150.3374  142.2835  158.9486 H   0  0  0  0  0  0  0  0  0  0  0  0
  1  2  1  0  0  0  0
  1 21  1  0  0  0  0
  1 22  1  0  0  0  0
  2  3  2  0  0  0  0
  2  4  1  0  0  0  0
  4  5  1  0  0  0  0
  4 23  1  0  0  0  0
  4 24  1  0  0  0  0
  5 17  1  0  0  0  0
  5  6  1  0  0  0  0
  6  7  1  0  0  0  0
  6 15  2  0  0  0  0
  7  8  1  0  0  0  0
  8  9  1  0  0  0  0
  8 25  1  0  0  0  0
  8 26  1  0  0  0  0
  9 10  2  0  0  0  0
  9 11  1  0  0  0  0
 11 12  1  0  0  0  0
 11 27  1  0  0  0  0
 12 14  1  0  0  0  0
 12 13  1  0  0  0  0
 12 28  1  0  0  0  0
 13 14  1  0  0  0  0
 13 29  1  0  0  0  0
 13 30  1  0  0  0  0
 14 31  1  0  0  0  0
 14 32  1  0  0  0  0
 15 16  1  0  0  0  0
 16 17  2  0  0  0  0
 17 18  1  0  0  0  0
 18 20  1  0  0  0  0
 18 19  1  0  0  0  0
 18 33  1  0  0  0  0
 19 20  1  0  0  0  0
 19 34  1  0  0  0  0
 19 35  1  0  0  0  0
 20 36  1  0  0  0  0
 20 37  1  0  0  0  0
M  END
> <s_m_source_file>
AV-unprocessed.smi

> <i_m_source_file_index>
358

> <i_lp_mmshare_version>
43012

> <i_f3d_flags>
0

> <s_epik_input>
W0NIMl0xW0NIMl1bQ0hdMWMybm5jKG4yW0NIMl1DKD1PKVtOSDJdKVNbQ0gyXUMoPU8pW05IXVtDSF0zW0NIMl1bQ0gyXTM=

> <s_epik_cmdline>
J2VwaWtfcHl0aG9uJywgJy1waCcsICc3LjAnLCAnLXRuJywgJzgnLCAnLW1hJywgJzIwMCcsICctbWV0YWxfYmluZGluZycsICctaW1hZScsICc8aW5maWxlLm1hZT4nLCAnLW9tYWUnLCAnPG91dGZpbGUubWFlPic=

> <r_lp_tautomer_probability>
1

> <r_epik_Ionization_Penalty>
5.83215e-07

> <r_epik_Ionization_Penalty_Charging>
0

> <r_epik_Ionization_Penalty_Neutral>
5.83215e-07

> <r_epik_State_Penalty>
-0

> <r_epik_Charging_Adjusted_Penalty>
0

> <i_epik_Tot_Q>
0

> <i_epik_Tot_abs_Q>
0

> <r_epik_Metal_State_Penalty>
-0

> <b_epik_Metal_Only>
0

> <s_lp_Force_Field>
OPLS_2005

> <r_lp_Energy>
18.9456

> <b_lp_Chiralities_Consistent>
1

> <s_lp_Variant>
AV-unprocessed.smi:358-1

> <Gold.Version>
5.8.1

> <Gold.Id.Protein>
6NUR|6NUR_protein|mol2

> <Gold.PLP.Fitness>
39.4114

> <Gold.PLP.PLP>
-29.9587

> <Gold.PLP.part.hbond>
-7.0000

> <Gold.PLP.part.metal>
0.0000

> <Gold.PLP.part.buried>
-4.4294

> <Gold.PLP.part.nonpolar>
-19.3233

> <Gold.PLP.part.repulsive>
0.2299

> <Gold.PLP.ligand.clash>
0.0000

> <Gold.PLP.ligand.torsion>
0.4769

> <Gold.PLP.Chemscore.Hbond>
3.3840

> <Gold.PLP.Chemscore.CHOScore>
0.0000

> <Gold.PLP.Chemscore.Metal>
0.0000

> <Gold.Chemscore.Hbonds>
donor molecule, donor type, donor heavy atom, donor atom, acceptor molecule, acceptor atom, score
      L1  H     1    21       P1  7957  1.00
      P1  H  6931  6943       L1    10  0.72
      P1  H  6934  6947       L1    10  0.74
      P1  H  7989  7998       L1     3  0.90

> <Gold.PLP.Chemscore.Internal.Correction>
0.2545

> <Gold.Rescore>
     Score         DG    S(hbond)    S(metal)    S(lipo)     H(rot)  DE(clash)    DE(int)     intcor
     11.20     -13.01       3.05        0.00      49.39       3.30       0.00       1.81       ----

> <Gold.Chemscore.Fitness>
11.2044

> <Gold.Chemscore.DG>
-13.0114

> <Gold.Chemscore.ZeroCoef>
-5.4800

> <Gold.Chemscore.Hbond>
3.0527

> <Gold.Chemscore.Metal>
0.0000

> <Gold.Chemscore.Lipo>
49.3944

> <Gold.Chemscore.Internal_Hbond>
0.0000

> <Gold.Chemscore.DEClash>
0.0000

> <Gold.Chemscore.DEInternal>
1.8070

> <Gold.Chemscore.Rot>
3.2984

> <Gold.Chemscore.Internal.Correction>
   9.000000E+99

> <Gold.Chemscore.Hbonds>
donor molecule, donor type, donor heavy atom, donor atom, acceptor molecule, acceptor atom, score
      L1  H     1    21       P1  7957  0.47
      P1  H  6931  6943       L1    10  0.69
      P1  H  6934  6947       L1    10  0.53
      P1  H  7989  7998       L1     3  0.61

> <Gold.Chemscore.Hbond.Weighted>
-10.1961

> <Gold.Chemscore.Metal.Weighted>
-0.0000

> <Gold.Chemscore.Lipo.Weighted>
-5.7791

> <Gold.Chemscore.Internal_Hbond.Weighted>
0.0000

> <Gold.Chemscore.DEClash.Weighted>
0.0000

> <Gold.Chemscore.DEInternal.Weighted>
1.8070

> <Gold.Chemscore.Rot.Weighted>
8.4438

> <Gold.Chemscore.Internal.Correction.Weighted>
   9.000000E+99

> <Gold.Protein.RotatedTorsions>
[ 6907 6896 6895 6894 ] final   14.08 input  -60.11 | X-H torsion
[ 7974 7965 7964 7962 ] final -178.08 input  175.53 | X-H torsion
[ 8008 7997 7996 7995 ] final  -66.39 input   59.86 | X-H torsion
[ 10167 10162 10161 10158 ] final   20.39 input  -65.29 | X-H torsion
[ 10718 10713 10712 10709 ] final  128.19 input   66.30 | X-H torsion
[ 10763 10752 10751 10750 ] final  -89.00 input  -60.55 | X-H torsion
[ 11005 11000 10999 10996 ] final   88.86 input  -57.11 | X-H torsion

> <Gold.Protein.ActiveResidues>
 VAL166  LYS551  ARG553  GLY616  TRP617  ASP618  TYR619  PRO620  LYS621  CYS622 
 ASP623  PHE694  ASN695  SER759  ASP760  ASP761  ALA762  ILE779  LEU786  VAL792 
 PHE793  MET794  SER795  GLU796  ALA797  LYS798  CYS799  TRP800  GLU811  SER814 

> <Gold.Protein.RotatedAtoms>
  151.7966  135.0721  160.0394 H   0  0  0  0  0  0  0  0  0  0  0  0  # atno 6907 bound_to 6896
  152.3119  133.5757  159.5694 H   0  0  0  0  0  0  0  0  0  0  0  0  # atno 6908 bound_to 6896
  150.7324  134.0056  159.3694 H   0  0  0  0  0  0  0  0  0  0  0  0  # atno 6909 bound_to 6896
  144.7129  140.0922  143.6420 H   0  0  0  0  0  0  0  0  0  0  0  0  # atno 7974 bound_to 7965
  154.4731  140.0914  156.7195 H   0  0  0  0  0  0  0  0  0  0  0  0  # atno 8008 bound_to 7997
  155.4669  140.3463  155.4302 H   0  0  0  0  0  0  0  0  0  0  0  0  # atno 8009 bound_to 7997
  156.1073  140.1438  156.9376 H   0  0  0  0  0  0  0  0  0  0  0  0  # atno 8010 bound_to 7997
  140.5507  143.9514  150.6576 H   0  0  0  0  0  0  0  0  0  0  0  0  # atno 10167 bound_to 10162
  157.5267  131.1098  150.9072 H   0  0  0  0  0  0  0  0  0  0  0  0  # atno 10718 bound_to 10713
  154.6506  135.5356  153.7897 H   0  0  0  0  0  0  0  0  0  0  0  0  # atno 10763 bound_to 10752
  153.0384  135.6481  154.1022 H   0  0  0  0  0  0  0  0  0  0  0  0  # atno 10764 bound_to 10752
  154.0940  135.2938  155.3245 H   0  0  0  0  0  0  0  0  0  0  0  0  # atno 10765 bound_to 10752
  139.8887  134.8515  156.3060 H   0  0  0  0  0  0  0  0  0  0  0  0  # atno 11005 bound_to 11000
  145.9610  139.2800  143.1155 LP  0  0  0  0  0  0  0  0  0  0  0  0  # atno 17320 bound_to 7965
  145.9221  140.9108  143.0400 LP  0  0  0  0  0  0  0  0  0  0  0  0  # atno 17321 bound_to 7965
  140.2939  143.3306  152.1036 LP  0  0  0  0  0  0  0  0  0  0  0  0  # atno 17342 bound_to 10162
  139.5026  144.6738  151.6177 LP  0  0  0  0  0  0  0  0  0  0  0  0  # atno 17343 bound_to 10162
  156.9666  130.5475  149.5288 LP  0  0  0  0  0  0  0  0  0  0  0  0  # atno 17370 bound_to 10713
  156.0392  130.5476  150.8729 LP  0  0  0  0  0  0  0  0  0  0  0  0  # atno 17371 bound_to 10713
  140.9882  133.7225  156.0773 LP  0  0  0  0  0  0  0  0  0  0  0  0  # atno 17394 bound_to 11000
  140.7660  134.3885  157.5517 LP  0  0  0  0  0  0  0  0  0  0  0  0  # atno 17395 bound_to 11000

$$$$
