AV-unprocessed.smi:3254|AV-procd|sdf|12453|dock5
  -GOLD-   2272018353D 1   1.00000     0.00000
 Structure written by MMmdl.
 37 38  0  0  0  0  0  0  0  0  2 V2000
  152.3984  129.6198  155.2627 C   0  0  0  0  0  0  0  0  0  0  0  0
  151.1552  129.9787  156.0880 C   0  0  0  0  0  0  0  0  0  0  0  0
  150.6325  131.2926  155.7243 N   0  0  0  0  0  0  0  0  0  0  0  0
  150.3831  131.6322  154.3335 C   0  0  0  0  0  0  0  0  0  0  0  0
  149.6682  133.0008  154.3613 C   0  0  1  0  0  0  0  0  0  0  0  0
  148.1882  132.8960  153.9603 C   0  0  0  0  0  0  0  0  0  0  0  0
  147.4542  132.0748  154.5107 O   0  0  0  0  0  0  0  0  0  0  0  0
  147.7702  133.7325  152.9986 N   0  0  0  0  0  0  0  0  0  0  0  0
  146.4131  133.7998  152.4644 C   0  0  0  0  0  0  0  0  0  0  0  0
  145.9960  132.4633  151.8298 C   0  0  0  0  0  0  0  0  0  0  0  0
  144.9231  132.6174  150.8422 N   0  0  0  0  0  0  0  0  0  0  0  0
  144.9931  132.3715  149.4949 C   0  0  0  0  0  0  0  0  0  0  0  0
  143.7528  132.6512  148.9815 C   0  0  0  0  0  0  0  0  0  0  0  0
  142.9776  133.0515  150.0367 N   0  3  0  0  0  0  0  0  0  0  0  0
  143.6901  133.0277  151.1678 C   0  0  0  0  0  0  0  0  0  0  0  0
  149.8269  133.5059  155.8095 C   0  0  0  0  0  0  0  0  0  0  0  0
  150.3794  132.3056  156.5600 C   0  0  0  0  0  0  0  0  0  0  0  0
  150.5479  132.3011  157.7784 O   0  0  0  0  0  0  0  0  0  0  0  0
  152.7930  128.6477  155.5587 H   0  0  0  0  0  0  0  0  0  0  0  0
  153.1894  130.3569  155.4039 H   0  0  0  0  0  0  0  0  0  0  0  0
  152.1699  129.5735  154.1976 H   0  0  0  0  0  0  0  0  0  0  0  0
  150.3804  129.2240  155.9445 H   0  0  0  0  0  0  0  0  0  0  0  0
  151.4025  129.9667  157.1503 H   0  0  0  0  0  0  0  0  0  0  0  0
  151.3335  131.7032  153.8031 H   0  0  0  0  0  0  0  0  0  0  0  0
  149.7946  130.8503  153.8498 H   0  0  0  0  0  0  0  0  0  0  0  0
  150.1732  133.6855  153.6776 H   0  0  0  0  0  0  0  0  0  0  0  0
  148.4486  134.3651  152.6006 H   0  0  0  0  0  0  0  0  0  0  0  0
  145.7303  134.0695  153.2708 H   0  0  0  0  0  0  0  0  0  0  0  0
  146.3293  134.5851  151.7114 H   0  0  0  0  0  0  0  0  0  0  0  0
  146.8460  132.0118  151.3170 H   0  0  0  0  0  0  0  0  0  0  0  0
  145.6743  131.7540  152.5943 H   0  0  0  0  0  0  0  0  0  0  0  0
  145.8969  132.0259  149.0142 H   0  0  0  0  0  0  0  0  0  0  0  0
  143.3736  132.5955  147.9715 H   0  0  0  0  0  0  0  0  0  0  0  0
  143.3379  133.2898  152.1496 H   0  0  0  0  0  0  0  0  0  0  0  0
  150.5414  134.3279  155.8637 H   0  0  0  0  0  0  0  0  0  0  0  0
  148.8926  133.8414  156.2629 H   0  0  0  0  0  0  0  0  0  0  0  0
  142.0043  133.3229  149.9731 H   0  0  0  0  0  0  0  0  0  0  0  0
  1  2  1  0  0  0  0
  1 19  1  0  0  0  0
  1 20  1  0  0  0  0
  1 21  1  0  0  0  0
  2  3  1  0  0  0  0
  2 22  1  0  0  0  0
  2 23  1  0  0  0  0
  3 17  1  0  0  0  0
  3  4  1  0  0  0  0
  4  5  1  0  0  0  0
  4 24  1  0  0  0  0
  4 25  1  0  0  0  0
  5  6  1  0  0  0  0
  5 16  1  0  0  0  0
  5 26  1  0  0  0  0
  6  7  2  0  0  0  0
  6  8  1  0  0  0  0
  8  9  1  0  0  0  0
  8 27  1  0  0  0  0
  9 10  1  0  0  0  0
  9 28  1  0  0  0  0
  9 29  1  0  0  0  0
 10 11  1  0  0  0  0
 10 30  1  0  0  0  0
 10 31  1  0  0  0  0
 11 15  1  0  0  0  0
 11 12  1  0  0  0  0
 12 13  2  0  0  0  0
 12 32  1  0  0  0  0
 13 14  1  0  0  0  0
 13 33  1  0  0  0  0
 14 15  2  0  0  0  0
 14 37  1  0  0  0  0
 15 34  1  0  0  0  0
 16 17  1  0  0  0  0
 16 35  1  0  0  0  0
 16 36  1  0  0  0  0
 17 18  2  0  0  0  0
M  CHG  1  14   1
M  END
> <s_m_source_file>
AV-unprocessed.smi

> <i_m_source_file_index>
3254

> <i_lp_mmshare_version>
43012

> <i_f3d_flags>
0

> <s_epik_input>
W0NIM11bQ0gyXU4xW0NIMl1bQ0BIXShbQ0gyXUMxPU8pQyg9TylbTkhdW0NIMl1bQ0gyXW4yW2NIXVtjSF1uW2NIXTI=

> <s_epik_cmdline>
J2VwaWtfcHl0aG9uJywgJy1waCcsICc3LjAnLCAnLXRuJywgJzgnLCAnLW1hJywgJzIwMCcsICctbWV0YWxfYmluZGluZycsICctaW1hZScsICc8aW5maWxlLm1hZT4nLCAnLW9tYWUnLCAnPG91dGZpbGUubWFlPic=

> <r_lp_tautomer_probability>
1

> <r_epik_Ionization_Penalty>
0.274742

> <r_epik_Ionization_Penalty_Charging>
0

> <r_epik_Ionization_Penalty_Neutral>
0.274742

> <r_epik_State_Penalty>
0.267046

> <r_epik_Charging_Adjusted_Penalty>
0.267046

> <i_epik_Tot_Q>
1

> <i_epik_Tot_abs_Q>
1

> <r_epik_Metal_State_Penalty>
0.550456

> <b_epik_Metal_Only>
0

> <s_lp_Force_Field>
OPLS_2005

> <r_lp_Energy>
18.3055

> <b_lp_Chiralities_Consistent>
1

> <s_lp_Variant>
AV-unprocessed.smi:3254-1

> <Gold.Version>
5.8.1

> <Gold.Id.Protein>
6NUR|6NUR_protein|mol2

> <Gold.PLP.Fitness>
43.7149

> <Gold.PLP.PLP>
-32.9230

> <Gold.PLP.part.hbond>
-2.7859

> <Gold.PLP.part.metal>
0.0000

> <Gold.PLP.part.buried>
-5.3330

> <Gold.PLP.part.nonpolar>
-24.5696

> <Gold.PLP.part.repulsive>
0.0968

> <Gold.PLP.ligand.clash>
0.0000

> <Gold.PLP.ligand.torsion>
0.3139

> <Gold.PLP.Chemscore.Hbond>
3.8000

> <Gold.PLP.Chemscore.CHOScore>
0.0000

> <Gold.PLP.Chemscore.Metal>
0.0000

> <Gold.Chemscore.Hbonds>
donor molecule, donor type, donor heavy atom, donor atom, acceptor molecule, acceptor atom, score
      L1  H     8    27       P1  7948  0.70
      L1  H    14    37       P1 10186  1.89
      P1  H  6896  6907       L1    18  1.00

> <Gold.PLP.Chemscore.Internal.Correction>
0.0199

> <Gold.Rescore>
     Score         DG    S(hbond)    S(metal)    S(lipo)     H(rot)  DE(clash)    DE(int)     intcor
     12.74     -13.75       2.00        0.00      63.35       2.28       0.27       0.75       ----

> <Gold.Chemscore.Fitness>
12.7378

> <Gold.Chemscore.DG>
-13.7548

> <Gold.Chemscore.ZeroCoef>
-5.4800

> <Gold.Chemscore.Hbond>
2.0040

> <Gold.Chemscore.Metal>
0.0000

> <Gold.Chemscore.Lipo>
63.3516

> <Gold.Chemscore.Internal_Hbond>
0.0000

> <Gold.Chemscore.DEClash>
0.2669

> <Gold.Chemscore.DEInternal>
0.7501

> <Gold.Chemscore.Rot>
2.2776

> <Gold.Chemscore.Internal.Correction>
   9.000000E+99

> <Gold.Chemscore.Hbonds>
donor molecule, donor type, donor heavy atom, donor atom, acceptor molecule, acceptor atom, score
      L1  H     8    27       P1  7948  0.07
      L1  H    14    37       P1 10186  0.85
      P1  H  6896  6907       L1    18  0.97

> <Gold.Chemscore.Hbond.Weighted>
-6.6934

> <Gold.Chemscore.Metal.Weighted>
-0.0000

> <Gold.Chemscore.Lipo.Weighted>
-7.4121

> <Gold.Chemscore.Internal_Hbond.Weighted>
0.0000

> <Gold.Chemscore.DEClash.Weighted>
0.2669

> <Gold.Chemscore.DEInternal.Weighted>
0.7501

> <Gold.Chemscore.Rot.Weighted>
5.8307

> <Gold.Chemscore.Internal.Correction.Weighted>
   9.000000E+99

> <Gold.Protein.RotatedTorsions>
[ 6907 6896 6895 6894 ] final -166.63 input  -60.11 | X-H torsion
[ 7974 7965 7964 7962 ] final    5.00 input  175.53 | X-H torsion
[ 8008 7997 7996 7995 ] final   24.74 input   59.86 | X-H torsion
[ 10167 10162 10161 10158 ] final    6.02 input  -65.29 | X-H torsion
[ 10718 10713 10712 10709 ] final   68.22 input   66.30 | X-H torsion
[ 10763 10752 10751 10750 ] final   44.12 input  -60.55 | X-H torsion
[ 11005 11000 10999 10996 ] final   41.93 input  -57.11 | X-H torsion

> <Gold.Protein.ActiveResidues>
 VAL166  LYS551  ARG553  GLY616  TRP617  ASP618  TYR619  PRO620  LYS621  CYS622 
 ASP623  PHE694  ASN695  SER759  ASP760  ASP761  ALA762  ILE779  LEU786  VAL792 
 PHE793  MET794  SER795  GLU796  ALA797  LYS798  CYS799  TRP800  GLU811  SER814 

> <Gold.Protein.RotatedAtoms>
  151.4466  133.3629  159.2789 H   0  0  0  0  0  0  0  0  0  0  0  0  # atno 6907 bound_to 6896
  150.9120  134.8539  159.7442 H   0  0  0  0  0  0  0  0  0  0  0  0  # atno 6908 bound_to 6896
  152.4937  134.4396  159.9591 H   0  0  0  0  0  0  0  0  0  0  0  0  # atno 6909 bound_to 6896
  146.2442  140.0450  142.8379 H   0  0  0  0  0  0  0  0  0  0  0  0  # atno 7974 bound_to 7965
  155.0010  140.3125  155.4867 H   0  0  0  0  0  0  0  0  0  0  0  0  # atno 8008 bound_to 7997
  156.2925  140.2232  156.5060 H   0  0  0  0  0  0  0  0  0  0  0  0  # atno 8009 bound_to 7997
  154.7619  140.0458  157.0968 H   0  0  0  0  0  0  0  0  0  0  0  0  # atno 8010 bound_to 7997
  140.6450  143.7683  150.7485 H   0  0  0  0  0  0  0  0  0  0  0  0  # atno 10167 bound_to 10162
  157.6276  130.9362  150.0348 H   0  0  0  0  0  0  0  0  0  0  0  0  # atno 10718 bound_to 10713
  152.9847  135.6080  154.3223 H   0  0  0  0  0  0  0  0  0  0  0  0  # atno 10763 bound_to 10752
  154.2932  135.2774  155.2647 H   0  0  0  0  0  0  0  0  0  0  0  0  # atno 10764 bound_to 10752
  154.4933  135.5886  153.6532 H   0  0  0  0  0  0  0  0  0  0  0  0  # atno 10765 bound_to 10752
  140.1788  134.4130  155.8213 H   0  0  0  0  0  0  0  0  0  0  0  0  # atno 11005 bound_to 11000
  145.1035  140.9361  143.4698 LP  0  0  0  0  0  0  0  0  0  0  0  0  # atno 17320 bound_to 7965
  145.0648  139.3077  143.5862 LP  0  0  0  0  0  0  0  0  0  0  0  0  # atno 17321 bound_to 7965
  140.1322  143.4515  152.2247 LP  0  0  0  0  0  0  0  0  0  0  0  0  # atno 17342 bound_to 10162
  139.5660  144.7435  151.4020 LP  0  0  0  0  0  0  0  0  0  0  0  0  # atno 17343 bound_to 10162
  156.1459  130.3642  149.9512 LP  0  0  0  0  0  0  0  0  0  0  0  0  # atno 17370 bound_to 10713
  156.7542  130.9127  151.3639 LP  0  0  0  0  0  0  0  0  0  0  0  0  # atno 17371 bound_to 10713
  141.2222  133.6990  156.7893 LP  0  0  0  0  0  0  0  0  0  0  0  0  # atno 17394 bound_to 11000
  140.2292  134.8699  157.3459 LP  0  0  0  0  0  0  0  0  0  0  0  0  # atno 17395 bound_to 11000

$$$$
