AV-unprocessed.smi:925|AV-procd|sdf|4181|dock3
  -GOLD-   22720 2 83D 1   1.00000     0.00000
 Structure written by MMmdl.
 29 30  0  0  0  0  0  0  0  0  1 V2000
  150.7852  140.7147  156.2624 O   0  0  0  0  0  0  0  0  0  0  0  0
  150.1889  141.7655  156.0242 C   0  0  0  0  0  0  0  0  0  0  0  0
  149.1396  141.8934  155.1928 N   0  0  0  0  0  0  0  0  0  0  0  0
  148.4971  140.8865  154.4247 C   0  0  0  0  0  0  0  0  0  0  0  0
  148.9289  139.6177  154.3493 N   0  0  0  0  0  0  0  0  0  0  0  0
  148.1190  138.8407  153.5309 N   0  0  0  0  0  0  0  0  0  0  0  0
  147.1096  139.5530  153.0222 C   0  0  0  0  0  0  0  0  0  0  0  0
  147.0495  141.2427  153.4931 S   0  0  0  0  0  0  0  0  0  0  0  0
  150.5162  142.9432  156.5763 N   0  0  0  0  0  0  0  0  0  0  0  0
  151.6099  143.1566  157.5200 C   0  0  0  0  0  0  0  0  0  0  0  0
  151.6992  141.9890  158.5248 C   0  0  0  0  0  0  0  0  0  0  0  0
  152.7969  142.2325  159.5732 C   0  0  0  0  0  0  0  0  0  0  0  0
  152.5898  143.5711  160.2992 C   0  0  0  0  0  0  0  0  0  0  0  0
  152.5051  144.7363  159.3010 C   0  0  0  0  0  0  0  0  0  0  0  0
  151.4046  144.4948  158.2550 C   0  0  0  0  0  0  0  0  0  0  0  0
  148.7548  142.8215  155.0973 H   0  0  0  0  0  0  0  0  0  0  0  0
  146.3951  139.0798  152.3651 H   0  0  0  0  0  0  0  0  0  0  0  0
  149.9713  143.7546  156.3241 H   0  0  0  0  0  0  0  0  0  0  0  0
  152.5488  143.2173  156.9662 H   0  0  0  0  0  0  0  0  0  0  0  0
  150.7404  141.8606  159.0294 H   0  0  0  0  0  0  0  0  0  0  0  0
  151.8991  141.0538  158.0003 H   0  0  0  0  0  0  0  0  0  0  0  0
  152.8084  141.4158  160.2955 H   0  0  0  0  0  0  0  0  0  0  0  0
  153.7729  142.2285  159.0862 H   0  0  0  0  0  0  0  0  0  0  0  0
  151.6742  143.5285  160.8904 H   0  0  0  0  0  0  0  0  0  0  0  0
  153.4051  143.7426  161.0029 H   0  0  0  0  0  0  0  0  0  0  0  0
  152.3141  145.6685  159.8332 H   0  0  0  0  0  0  0  0  0  0  0  0
  153.4659  144.8581  158.7991 H   0  0  0  0  0  0  0  0  0  0  0  0
  151.3933  145.3175  157.5389 H   0  0  0  0  0  0  0  0  0  0  0  0
  150.4314  144.5009  158.7484 H   0  0  0  0  0  0  0  0  0  0  0  0
  1  2  2  0  0  0  0
  2  3  1  0  0  0  0
  2  9  1  0  0  0  0
  3  4  1  0  0  0  0
  3 16  1  0  0  0  0
  4  8  1  0  0  0  0
  4  5  2  0  0  0  0
  5  6  1  0  0  0  0
  6  7  2  0  0  0  0
  7  8  1  0  0  0  0
  7 17  1  0  0  0  0
  9 10  1  0  0  0  0
  9 18  1  0  0  0  0
 10 15  1  0  0  0  0
 10 11  1  0  0  0  0
 10 19  1  0  0  0  0
 11 12  1  0  0  0  0
 11 20  1  0  0  0  0
 11 21  1  0  0  0  0
 12 13  1  0  0  0  0
 12 22  1  0  0  0  0
 12 23  1  0  0  0  0
 13 14  1  0  0  0  0
 13 24  1  0  0  0  0
 13 25  1  0  0  0  0
 14 15  1  0  0  0  0
 14 26  1  0  0  0  0
 14 27  1  0  0  0  0
 15 28  1  0  0  0  0
 15 29  1  0  0  0  0
M  END
> <s_m_source_file>
AV-unprocessed.smi

> <i_m_source_file_index>
925

> <i_lp_mmshare_version>
43012

> <i_f3d_flags>
0

> <s_epik_input>
czFbY0hdbm5jMVtOSF1DKD1PKVtOSF1bQ0hdMltDSDJdW0NIMl1bQ0gyXVtDSDJdW0NIMl0y

> <s_epik_cmdline>
J2VwaWtfcHl0aG9uJywgJy1waCcsICc3LjAnLCAnLXRuJywgJzgnLCAnLW1hJywgJzIwMCcsICctbWV0YWxfYmluZGluZycsICctaW1hZScsICc8aW5maWxlLm1hZT4nLCAnLW9tYWUnLCAnPG91dGZpbGUubWFlPic=

> <r_lp_tautomer_probability>
1

> <r_epik_Ionization_Penalty>
0.000322846

> <r_epik_Ionization_Penalty_Charging>
0

> <r_epik_Ionization_Penalty_Neutral>
0.000322846

> <r_epik_State_Penalty>
-0

> <r_epik_Charging_Adjusted_Penalty>
0

> <i_epik_Tot_Q>
0

> <i_epik_Tot_abs_Q>
0

> <r_epik_Metal_State_Penalty>
0.17121

> <b_epik_Metal_Only>
0

> <s_lp_Force_Field>
OPLS_2005

> <r_lp_Energy>
7.89547

> <b_lp_Chiralities_Consistent>
1

> <s_lp_Variant>
AV-unprocessed.smi:925-1

> <Gold.Version>
5.8.1

> <Gold.Id.Protein>
6NUR|6NUR_protein|mol2

> <Gold.PLP.Fitness>
38.4429

> <Gold.PLP.PLP>
-33.1430

> <Gold.PLP.part.hbond>
-2.0000

> <Gold.PLP.part.metal>
0.0000

> <Gold.PLP.part.buried>
-5.5213

> <Gold.PLP.part.nonpolar>
-26.2580

> <Gold.PLP.part.repulsive>
1.1938

> <Gold.PLP.ligand.clash>
0.0000

> <Gold.PLP.ligand.torsion>
0.2677

> <Gold.PLP.Chemscore.Hbond>
1.9440

> <Gold.PLP.Chemscore.CHOScore>
0.0000

> <Gold.PLP.Chemscore.Metal>
0.0000

> <Gold.Chemscore.Hbonds>
donor molecule, donor type, donor heavy atom, donor atom, acceptor molecule, acceptor atom, score
      L1  H     3    16       P1  8028  0.94
      L1  H     9    18       P1  8028  1.00

> <Gold.PLP.Chemscore.Internal.Correction>
0.0032

> <Gold.Rescore>
     Score         DG    S(hbond)    S(metal)    S(lipo)     H(rot)  DE(clash)    DE(int)     intcor
     16.10     -19.22       1.91        0.00      84.71       1.00       0.03       3.09       ----

> <Gold.Chemscore.Fitness>
16.0951

> <Gold.Chemscore.DG>
-19.2171

> <Gold.Chemscore.ZeroCoef>
-5.4800

> <Gold.Chemscore.Hbond>
1.9119

> <Gold.Chemscore.Metal>
0.0000

> <Gold.Chemscore.Lipo>
84.7129

> <Gold.Chemscore.Internal_Hbond>
0.0000

> <Gold.Chemscore.DEClash>
0.0343

> <Gold.Chemscore.DEInternal>
3.0877

> <Gold.Chemscore.Rot>
1.0000

> <Gold.Chemscore.Internal.Correction>
   9.000000E+99

> <Gold.Chemscore.Hbonds>
donor molecule, donor type, donor heavy atom, donor atom, acceptor molecule, acceptor atom, score
      L1  H     3    16       P1  8028  0.89
      L1  H     9    18       P1  8028  0.98

> <Gold.Chemscore.Hbond.Weighted>
-6.3857

> <Gold.Chemscore.Metal.Weighted>
-0.0000

> <Gold.Chemscore.Lipo.Weighted>
-9.9114

> <Gold.Chemscore.Internal_Hbond.Weighted>
0.0000

> <Gold.Chemscore.DEClash.Weighted>
0.0343

> <Gold.Chemscore.DEInternal.Weighted>
3.0877

> <Gold.Chemscore.Rot.Weighted>
2.5600

> <Gold.Chemscore.Internal.Correction.Weighted>
   9.000000E+99

> <Gold.Protein.RotatedTorsions>
[ 6907 6896 6895 6894 ] final   13.73 input  -60.11 | X-H torsion
[ 7974 7965 7964 7962 ] final  134.03 input  175.53 | X-H torsion
[ 8008 7997 7996 7995 ] final -146.98 input   59.86 | X-H torsion
[ 10167 10162 10161 10158 ] final  -62.22 input  -65.29 | X-H torsion
[ 10718 10713 10712 10709 ] final   38.88 input   66.30 | X-H torsion
[ 10763 10752 10751 10750 ] final  120.81 input  -60.55 | X-H torsion
[ 11005 11000 10999 10996 ] final -144.12 input  -57.11 | X-H torsion

> <Gold.Protein.ActiveResidues>
 VAL166  LYS551  ARG553  GLY616  TRP617  ASP618  TYR619  PRO620  LYS621  CYS622 
 ASP623  PHE694  ASN695  SER759  ASP760  ASP761  ALA762  ILE779  LEU786  VAL792 
 PHE793  MET794  SER795  GLU796  ALA797  LYS798  CYS799  TRP800  GLU811  SER814 

> <Gold.Protein.RotatedAtoms>
  151.7910  135.0735  160.0386 H   0  0  0  0  0  0  0  0  0  0  0  0  # atno 6907 bound_to 6896
  152.3156  133.5795  159.5718 H   0  0  0  0  0  0  0  0  0  0  0  0  # atno 6908 bound_to 6896
  150.7342  134.0003  159.3678 H   0  0  0  0  0  0  0  0  0  0  0  0  # atno 6909 bound_to 6896
  144.9805  139.4509  143.5388 H   0  0  0  0  0  0  0  0  0  0  0  0  # atno 7974 bound_to 7965
  155.5682  140.0631  157.2813 H   0  0  0  0  0  0  0  0  0  0  0  0  # atno 8008 bound_to 7997
  154.4369  140.1873  156.0897 H   0  0  0  0  0  0  0  0  0  0  0  0  # atno 8009 bound_to 7997
  156.0396  140.3297  155.7233 H   0  0  0  0  0  0  0  0  0  0  0  0  # atno 8010 bound_to 7997
  140.5954  143.2350  151.6048 H   0  0  0  0  0  0  0  0  0  0  0  0  # atno 10167 bound_to 10162
  157.3640  130.7665  149.7069 H   0  0  0  0  0  0  0  0  0  0  0  0  # atno 10718 bound_to 10713
  153.6042  135.3442  155.2956 H   0  0  0  0  0  0  0  0  0  0  0  0  # atno 10763 bound_to 10752
  154.8630  135.4235  154.2379 H   0  0  0  0  0  0  0  0  0  0  0  0  # atno 10764 bound_to 10752
  153.3215  135.7038  153.7098 H   0  0  0  0  0  0  0  0  0  0  0  0  # atno 10765 bound_to 10752
  140.8056  134.2805  157.4961 H   0  0  0  0  0  0  0  0  0  0  0  0  # atno 11005 bound_to 11000
  146.3407  139.9075  142.8785 LP  0  0  0  0  0  0  0  0  0  0  0  0  # atno 17320 bound_to 7965
  145.2427  141.0015  143.3926 LP  0  0  0  0  0  0  0  0  0  0  0  0  # atno 17321 bound_to 7965
  139.5254  144.3074  152.1022 LP  0  0  0  0  0  0  0  0  0  0  0  0  # atno 17342 bound_to 10162
  140.2246  144.4431  150.6327 LP  0  0  0  0  0  0  0  0  0  0  0  0  # atno 17343 bound_to 10162
  155.9743  130.4106  150.3937 LP  0  0  0  0  0  0  0  0  0  0  0  0  # atno 17370 bound_to 10713
  157.2018  131.0440  151.2646 LP  0  0  0  0  0  0  0  0  0  0  0  0  # atno 17371 bound_to 10713
  139.8718  134.9454  156.3909 LP  0  0  0  0  0  0  0  0  0  0  0  0  # atno 17394 bound_to 11000
  140.9250  133.7618  155.9953 LP  0  0  0  0  0  0  0  0  0  0  0  0  # atno 17395 bound_to 11000

$$$$
