AV-unprocessed.smi:480|AV-procd|sdf|2679|dock4
  -GOLD-   2262023103D 1   1.00000     0.00000
 Structure written by MMmdl.
 47 49  0  0  0  0  0  0  0  0  2 V2000
  148.7413  141.4083  155.4335 C   0  0  0  0  0  0  0  0  0  0  0  0
  150.2723  141.4038  155.5016 C   0  0  0  0  0  0  0  0  0  0  0  0
  150.7666  142.0507  156.7545 C   0  0  0  0  0  0  0  0  0  0  0  0
  150.5808  143.3555  157.1027 N   0  3  0  0  0  0  0  0  0  0  0  0
  151.1966  143.6101  158.3286 C   0  0  0  0  0  0  0  0  0  0  0  0
  151.2778  144.7761  159.0836 C   0  0  0  0  0  0  0  0  0  0  0  0
  151.9891  144.6948  160.2989 C   0  0  0  0  0  0  0  0  0  0  0  0
  152.5857  143.4890  160.7214 C   0  0  0  0  0  0  0  0  0  0  0  0
  152.4967  142.3133  159.9471 C   0  0  0  0  0  0  0  0  0  0  0  0
  151.7914  142.4027  158.7475 C   0  0  0  0  0  0  0  0  0  0  0  0
  151.5019  141.4694  157.7465 N   0  0  0  0  0  0  0  0  0  0  0  0
  151.9937  140.0898  157.8905 C   0  0  0  0  0  0  0  0  0  0  0  0
  150.8602  139.0442  157.8932 C   0  0  1  0  0  0  0  0  0  0  0  0
  150.6308  138.6132  156.5660 O   0  0  0  0  0  0  0  0  0  0  0  0
  151.2127  137.8202  158.7526 C   0  0  0  0  0  0  0  0  0  0  0  0
  152.5759  137.4827  158.5325 O   0  0  0  0  0  0  0  0  0  0  0  0
  153.3502  137.1445  159.6219 C   0  0  0  0  0  0  0  0  0  0  0  0
  154.4849  136.2963  159.5624 C   0  0  0  0  0  0  0  0  0  0  0  0
  155.2202  136.0058  160.7283 C   0  0  0  0  0  0  0  0  0  0  0  0
  154.8346  136.5551  161.9668 C   0  0  0  0  0  0  0  0  0  0  0  0
  155.6271  136.2439  163.2196 C   0  0  0  0  0  0  0  0  0  0  0  0
  155.2424  137.1086  164.3453 C   0  0  0  0  0  0  0  0  0  0  0  0
  154.9398  137.7890  165.2307 N   0  0  0  0  0  0  0  0  0  0  0  0
  153.7084  137.3981  162.0333 C   0  0  0  0  0  0  0  0  0  0  0  0
  152.9740  137.6883  160.8673 C   0  0  0  0  0  0  0  0  0  0  0  0
  148.3922  140.9336  154.5163 H   0  0  0  0  0  0  0  0  0  0  0  0
  148.3479  142.4252  155.4517 H   0  0  0  0  0  0  0  0  0  0  0  0
  148.3082  140.8664  156.2748 H   0  0  0  0  0  0  0  0  0  0  0  0
  150.6443  140.3796  155.4586 H   0  0  0  0  0  0  0  0  0  0  0  0
  150.6887  141.9225  154.6378 H   0  0  0  0  0  0  0  0  0  0  0  0
  150.8216  145.7008  158.7619 H   0  0  0  0  0  0  0  0  0  0  0  0
  152.0790  145.5750  160.9190 H   0  0  0  0  0  0  0  0  0  0  0  0
  153.1227  143.4648  161.6588 H   0  0  0  0  0  0  0  0  0  0  0  0
  152.9563  141.3942  160.2796 H   0  0  0  0  0  0  0  0  0  0  0  0
  152.6877  139.8946  157.0723 H   0  0  0  0  0  0  0  0  0  0  0  0
  152.5813  140.0304  158.8077 H   0  0  0  0  0  0  0  0  0  0  0  0
  149.9487  139.5053  158.2744 H   0  0  0  0  0  0  0  0  0  0  0  0
  151.3674  138.0886  156.2908 H   0  0  0  0  0  0  0  0  0  0  0  0
  151.0085  138.0143  159.8075 H   0  0  0  0  0  0  0  0  0  0  0  0
  150.5963  136.9746  158.4429 H   0  0  0  0  0  0  0  0  0  0  0  0
  154.8140  135.8560  158.6335 H   0  0  0  0  0  0  0  0  0  0  0  0
  156.0838  135.3597  160.6681 H   0  0  0  0  0  0  0  0  0  0  0  0
  155.4698  135.2055  163.5126 H   0  0  0  0  0  0  0  0  0  0  0  0
  156.6933  136.3743  163.0330 H   0  0  0  0  0  0  0  0  0  0  0  0
  153.4060  137.8255  162.9782 H   0  0  0  0  0  0  0  0  0  0  0  0
  152.1126  138.3369  160.9300 H   0  0  0  0  0  0  0  0  0  0  0  0
  150.0686  144.0216  156.5390 H   0  0  0  0  0  0  0  0  0  0  0  0
  1  2  1  0  0  0  0
  1 26  1  0  0  0  0
  1 27  1  0  0  0  0
  1 28  1  0  0  0  0
  2  3  1  0  0  0  0
  2 29  1  0  0  0  0
  2 30  1  0  0  0  0
  3 11  1  0  0  0  0
  3  4  2  0  0  0  0
  4  5  1  0  0  0  0
  4 47  1  0  0  0  0
  5 10  2  0  0  0  0
  5  6  1  0  0  0  0
  6  7  2  0  0  0  0
  6 31  1  0  0  0  0
  7  8  1  0  0  0  0
  7 32  1  0  0  0  0
  8  9  2  0  0  0  0
  8 33  1  0  0  0  0
  9 10  1  0  0  0  0
  9 34  1  0  0  0  0
 10 11  1  0  0  0  0
 11 12  1  0  0  0  0
 12 13  1  0  0  0  0
 12 35  1  0  0  0  0
 12 36  1  0  0  0  0
 13 14  1  0  0  0  0
 13 15  1  0  0  0  0
 13 37  1  0  0  0  0
 14 38  1  0  0  0  0
 15 16  1  0  0  0  0
 15 39  1  0  0  0  0
 15 40  1  0  0  0  0
 16 17  1  0  0  0  0
 17 25  1  0  0  0  0
 17 18  2  0  0  0  0
 18 19  1  0  0  0  0
 18 41  1  0  0  0  0
 19 20  2  0  0  0  0
 19 42  1  0  0  0  0
 20 21  1  0  0  0  0
 20 24  1  0  0  0  0
 21 22  1  0  0  0  0
 21 43  1  0  0  0  0
 21 44  1  0  0  0  0
 22 23  3  0  0  0  0
 24 25  2  0  0  0  0
 24 45  1  0  0  0  0
 25 46  1  0  0  0  0
M  CHG  1   4   1
M  END
> <s_m_source_file>
AV-unprocessed.smi

> <i_m_source_file_index>
480

> <i_lp_mmshare_version>
43012

> <i_f3d_flags>
0

> <s_epik_input>
W2NIXTFbY0hdW2NIXVtjSF1jKGMxMiluKGMobjIpW0NIMl1bQ0gzXSlbQ0gyXVtDQEhdKFtPSF0pW0NIMl1PYzNbY0hdW2NIXWMoW0NIMl1DI04pW2NIXVtjSF0z

> <s_epik_cmdline>
J2VwaWtfcHl0aG9uJywgJy1waCcsICc3LjAnLCAnLXRuJywgJzgnLCAnLW1hJywgJzIwMCcsICctbWV0YWxfYmluZGluZycsICctaW1hZScsICc8aW5maWxlLm1hZT4nLCAnLW9tYWUnLCAnPG91dGZpbGUubWFlPic=

> <r_lp_tautomer_probability>
1

> <r_epik_Ionization_Penalty>
1.03158

> <r_epik_Ionization_Penalty_Charging>
1.03158

> <r_epik_Ionization_Penalty_Neutral>
2.3994e-06

> <r_epik_State_Penalty>
1.08278

> <r_epik_Charging_Adjusted_Penalty>
2.11436

> <i_epik_Tot_Q>
1

> <i_epik_Tot_abs_Q>
1

> <r_epik_Metal_State_Penalty>
5.07177

> <b_epik_Metal_Only>
0

> <s_lp_Force_Field>
OPLS_2005

> <r_lp_Energy>
21.7936

> <b_lp_Chiralities_Consistent>
1

> <s_lp_Variant>
AV-unprocessed.smi:480-4

> <Gold.Version>
5.8.1

> <Gold.Id.Protein>
6NUR|6NUR_protein|mol2

> <Gold.PLP.Fitness>
50.0144

> <Gold.PLP.PLP>
-46.5211

> <Gold.PLP.part.hbond>
-1.0000

> <Gold.PLP.part.metal>
0.0000

> <Gold.PLP.part.buried>
-6.7595

> <Gold.PLP.part.nonpolar>
-39.0516

> <Gold.PLP.part.repulsive>
0.1111

> <Gold.PLP.ligand.clash>
0.0000

> <Gold.PLP.ligand.torsion>
1.3611

> <Gold.PLP.Chemscore.Hbond>
2.0000

> <Gold.PLP.Chemscore.CHOScore>
0.0000

> <Gold.PLP.Chemscore.Metal>
0.0000

> <Gold.Chemscore.Hbonds>
donor molecule, donor type, donor heavy atom, donor atom, acceptor molecule, acceptor atom, score
      L1  H     4    47       P1  8028  2.00

> <Gold.PLP.Chemscore.Internal.Correction>
0.2156

> <Gold.Rescore>
     Score         DG    S(hbond)    S(metal)    S(lipo)     H(rot)  DE(clash)    DE(int)     intcor
     15.87     -17.44       0.98        0.00     132.84       2.67       0.17       1.40       ----

> <Gold.Chemscore.Fitness>
15.8737

> <Gold.Chemscore.DG>
-17.4448

> <Gold.Chemscore.ZeroCoef>
-5.4800

> <Gold.Chemscore.Hbond>
0.9762

> <Gold.Chemscore.Metal>
0.0000

> <Gold.Chemscore.Lipo>
132.8372

> <Gold.Chemscore.Internal_Hbond>
0.0000

> <Gold.Chemscore.DEClash>
0.1676

> <Gold.Chemscore.DEInternal>
1.4035

> <Gold.Chemscore.Rot>
2.6710

> <Gold.Chemscore.Internal.Correction>
   9.000000E+99

> <Gold.Chemscore.Hbonds>
donor molecule, donor type, donor heavy atom, donor atom, acceptor molecule, acceptor atom, score
      L1  H     4    47       P1  8028  0.99

> <Gold.Chemscore.Hbond.Weighted>
-3.2605

> <Gold.Chemscore.Metal.Weighted>
-0.0000

> <Gold.Chemscore.Lipo.Weighted>
-15.5419

> <Gold.Chemscore.Internal_Hbond.Weighted>
0.0000

> <Gold.Chemscore.DEClash.Weighted>
0.1676

> <Gold.Chemscore.DEInternal.Weighted>
1.4035

> <Gold.Chemscore.Rot.Weighted>
6.8377

> <Gold.Chemscore.Internal.Correction.Weighted>
   9.000000E+99

> <Gold.Protein.RotatedTorsions>
[ 6907 6896 6895 6894 ] final  -86.75 input  -60.11 | X-H torsion
[ 7974 7965 7964 7962 ] final  -52.22 input  175.53 | X-H torsion
[ 8008 7997 7996 7995 ] final  157.93 input   59.86 | X-H torsion
[ 10167 10162 10161 10158 ] final  119.68 input  -65.29 | X-H torsion
[ 10718 10713 10712 10709 ] final  130.58 input   66.30 | X-H torsion
[ 10763 10752 10751 10750 ] final    9.93 input  -60.55 | X-H torsion
[ 11005 11000 10999 10996 ] final -118.07 input  -57.11 | X-H torsion

> <Gold.Protein.ActiveResidues>
 VAL166  LYS551  ARG553  GLY616  TRP617  ASP618  TYR619  PRO620  LYS621  CYS622 
 ASP623  PHE694  ASN695  SER759  ASP760  ASP761  ALA762  ILE779  LEU786  VAL792 
 PHE793  MET794  SER795  GLU796  ALA797  LYS798  CYS799  TRP800  GLU811  SER814 

> <Gold.Protein.RotatedAtoms>
  150.6866  134.3002  159.4702 H   0  0  0  0  0  0  0  0  0  0  0  0  # atno 6907 bound_to 6896
  152.0898  134.9412  160.0581 H   0  0  0  0  0  0  0  0  0  0  0  0  # atno 6908 bound_to 6896
  152.0732  133.4082  159.4505 H   0  0  0  0  0  0  0  0  0  0  0  0  # atno 6909 bound_to 6896
  145.9104  140.7920  142.9698 H   0  0  0  0  0  0  0  0  0  0  0  0  # atno 7974 bound_to 7965
  156.2334  140.1872  156.7184 H   0  0  0  0  0  0  0  0  0  0  0  0  # atno 8008 bound_to 7997
  154.6062  140.0628  156.9462 H   0  0  0  0  0  0  0  0  0  0  0  0  # atno 8009 bound_to 7997
  155.2091  140.3298  155.4334 H   0  0  0  0  0  0  0  0  0  0  0  0  # atno 8010 bound_to 7997
  139.6031  144.7062  151.3017 H   0  0  0  0  0  0  0  0  0  0  0  0  # atno 10167 bound_to 10162
  157.5048  131.1095  150.9376 H   0  0  0  0  0  0  0  0  0  0  0  0  # atno 10718 bound_to 10713
  153.2087  135.6866  153.8141 H   0  0  0  0  0  0  0  0  0  0  0  0  # atno 10763 bound_to 10752
  153.7381  135.3242  155.3300 H   0  0  0  0  0  0  0  0  0  0  0  0  # atno 10764 bound_to 10752
  154.8210  135.4652  154.0885 H   0  0  0  0  0  0  0  0  0  0  0  0  # atno 10765 bound_to 10752
  141.0311  133.9980  157.3141 H   0  0  0  0  0  0  0  0  0  0  0  0  # atno 11005 bound_to 11000
  144.6743  140.1817  143.7405 LP  0  0  0  0  0  0  0  0  0  0  0  0  # atno 17320 bound_to 7965
  145.8679  139.2256  143.1678 LP  0  0  0  0  0  0  0  0  0  0  0  0  # atno 17321 bound_to 7965
  140.7264  143.6990  150.7860 LP  0  0  0  0  0  0  0  0  0  0  0  0  # atno 17342 bound_to 10162
  140.0571  143.5192  152.2646 LP  0  0  0  0  0  0  0  0  0  0  0  0  # atno 17343 bound_to 10162
  157.0036  130.5609  149.5314 LP  0  0  0  0  0  0  0  0  0  0  0  0  # atno 17370 bound_to 10713
  156.0251  130.5345  150.8385 LP  0  0  0  0  0  0  0  0  0  0  0  0  # atno 17371 bound_to 10713
  139.9208  135.0200  156.8058 LP  0  0  0  0  0  0  0  0  0  0  0  0  # atno 17394 bound_to 11000
  140.6405  133.9823  155.7705 LP  0  0  0  0  0  0  0  0  0  0  0  0  # atno 17395 bound_to 11000

$$$$
