AV-unprocessed.smi:657|AV-procd|sdf|3222|dock4
  -GOLD-   22720 0163D 1   1.00000     0.00000
 Structure written by MMmdl.
 47 48  0  0  0  0  0  0  0  0  2 V2000
  144.5128  142.1444  155.9038 C   0  0  0  0  0  0  0  0  0  0  0  0
  145.8322  141.9333  155.1326 C   0  0  0  0  0  0  0  0  0  0  0  0
  146.0398  143.1407  154.1935 C   0  0  0  0  0  0  0  0  0  0  0  0
  145.8742  140.6252  154.3922 N   0  3  2  0  0  0  0  0  0  0  0  0
  145.6020  139.4240  155.2416 C   0  0  0  0  0  0  0  0  0  0  0  0
  145.4798  138.1379  154.4074 C   0  0  0  0  0  0  0  0  0  0  0  0
  146.7181  137.9083  153.5400 C   0  0  0  0  0  0  0  0  0  0  0  0
  146.9561  139.1434  152.6640 C   0  0  0  0  0  0  0  0  0  0  0  0
  147.0623  140.4486  153.4856 C   0  0  2  0  0  0  0  0  0  0  0  0
  148.4348  140.5709  154.1846 C   0  0  0  0  0  0  0  0  0  0  0  0
  149.2012  141.4960  153.9189 O   0  0  0  0  0  0  0  0  0  0  0  0
  148.7240  139.6237  155.0905 N   0  0  0  0  0  0  0  0  0  0  0  0
  149.9515  139.5407  155.8793 C   0  0  0  0  0  0  0  0  0  0  0  0
  150.0867  140.6433  156.9520 C   0  0  0  0  0  0  0  0  0  0  0  0
  151.3457  140.5369  157.7736 C   0  0  0  0  0  0  0  0  0  0  0  0
  152.3760  139.5568  157.6903 C   0  0  0  0  0  0  0  0  0  0  0  0
  153.3568  139.7670  158.5529 N   0  0  0  0  0  0  0  0  0  0  0  0
  152.9833  140.8762  159.2230 N   0  0  0  0  0  0  0  0  0  0  0  0
  153.8354  141.4029  160.2675 C   0  0  0  0  0  0  0  0  0  0  0  0
  151.7722  141.3590  158.7782 C   0  0  0  0  0  0  0  0  0  0  0  0
  144.4642  143.1484  156.3271 H   0  0  0  0  0  0  0  0  0  0  0  0
  144.4128  141.4621  156.7475 H   0  0  0  0  0  0  0  0  0  0  0  0
  143.6455  142.0200  155.2545 H   0  0  0  0  0  0  0  0  0  0  0  0
  146.6336  141.9378  155.8717 H   0  0  0  0  0  0  0  0  0  0  0  0
  145.8816  144.0819  154.7196 H   0  0  0  0  0  0  0  0  0  0  0  0
  145.3444  143.1165  153.3539 H   0  0  0  0  0  0  0  0  0  0  0  0
  147.0528  143.1871  153.7956 H   0  0  0  0  0  0  0  0  0  0  0  0
  146.3696  139.3137  156.0069 H   0  0  0  0  0  0  0  0  0  0  0  0
  144.6574  139.5329  155.7706 H   0  0  0  0  0  0  0  0  0  0  0  0
  145.3244  137.2822  155.0653 H   0  0  0  0  0  0  0  0  0  0  0  0
  144.5962  138.2002  153.7707 H   0  0  0  0  0  0  0  0  0  0  0  0
  147.5861  137.7067  154.1680 H   0  0  0  0  0  0  0  0  0  0  0  0
  146.5786  137.0265  152.9144 H   0  0  0  0  0  0  0  0  0  0  0  0
  147.8533  138.9994  152.0598 H   0  0  0  0  0  0  0  0  0  0  0  0
  146.1335  139.2369  151.9535 H   0  0  0  0  0  0  0  0  0  0  0  0
  147.0152  141.2408  152.7388 H   0  0  0  0  0  0  0  0  0  0  0  0
  148.0370  138.9015  155.2529 H   0  0  0  0  0  0  0  0  0  0  0  0
  150.0362  138.5533  156.3352 H   0  0  0  0  0  0  0  0  0  0  0  0
  150.7813  139.6250  155.1769 H   0  0  0  0  0  0  0  0  0  0  0  0
  150.0416  141.6166  156.4623 H   0  0  0  0  0  0  0  0  0  0  0  0
  149.2085  140.6119  157.5973 H   0  0  0  0  0  0  0  0  0  0  0  0
  152.4435  138.7091  157.0244 H   0  0  0  0  0  0  0  0  0  0  0  0
  153.5505  142.4298  160.4977 H   0  0  0  0  0  0  0  0  0  0  0  0
  154.8766  141.3902  159.9434 H   0  0  0  0  0  0  0  0  0  0  0  0
  153.7326  140.7940  161.1661 H   0  0  0  0  0  0  0  0  0  0  0  0
  151.3212  142.2436  159.2035 H   0  0  0  0  0  0  0  0  0  0  0  0
  145.0852  140.6651  153.7632 H   0  0  0  0  0  0  0  0  0  0  0  0
  1  2  1  0  0  0  0
  1 21  1  0  0  0  0
  1 22  1  0  0  0  0
  1 23  1  0  0  0  0
  2  3  1  0  0  0  0
  2  4  1  0  0  0  0
  2 24  1  0  0  0  0
  3 25  1  0  0  0  0
  3 26  1  0  0  0  0
  3 27  1  0  0  0  0
  4  9  1  0  0  0  0
  4  5  1  0  0  0  0
  4 47  1  0  0  0  0
  5  6  1  0  0  0  0
  5 28  1  0  0  0  0
  5 29  1  0  0  0  0
  6  7  1  0  0  0  0
  6 30  1  0  0  0  0
  6 31  1  0  0  0  0
  7  8  1  0  0  0  0
  7 32  1  0  0  0  0
  7 33  1  0  0  0  0
  8  9  1  0  0  0  0
  8 34  1  0  0  0  0
  8 35  1  0  0  0  0
  9 10  1  0  0  0  0
  9 36  1  0  0  0  0
 10 11  2  0  0  0  0
 10 12  1  0  0  0  0
 12 13  1  0  0  0  0
 12 37  1  0  0  0  0
 13 14  1  0  0  0  0
 13 38  1  0  0  0  0
 13 39  1  0  0  0  0
 14 15  1  0  0  0  0
 14 40  1  0  0  0  0
 14 41  1  0  0  0  0
 15 20  2  0  0  0  0
 15 16  1  0  0  0  0
 16 17  2  0  0  0  0
 16 42  1  0  0  0  0
 17 18  1  0  0  0  0
 18 19  1  0  0  0  0
 18 20  1  0  0  0  0
 19 43  1  0  0  0  0
 19 44  1  0  0  0  0
 19 45  1  0  0  0  0
 20 46  1  0  0  0  0
M  CHG  1   4   1
M  END
> <s_m_source_file>
AV-unprocessed.smi

> <i_m_source_file_index>
657

> <i_lp_mmshare_version>
43012

> <i_f3d_flags>
0

> <s_epik_input>
W0NIM11bQ0hdKFtDSDNdKU4xW0NIMl1bQ0gyXVtDSDJdW0NIMl1bQ0BIXTFDKD1PKVtOSF1bQ0gyXVtDSDJdYzJbY0hdbm4oW0NIM10pW2NIXTI=

> <s_epik_cmdline>
J2VwaWtfcHl0aG9uJywgJy1waCcsICc3LjAnLCAnLXRuJywgJzgnLCAnLW1hJywgJzIwMCcsICctbWV0YWxfYmluZGluZycsICctaW1hZScsICc8aW5maWxlLm1hZT4nLCAnLW9tYWUnLCAnPG91dGZpbGUubWFlPic=

> <r_lp_tautomer_probability>
1

> <r_epik_Ionization_Penalty>
0.0244317

> <r_epik_Ionization_Penalty_Charging>
0.0240236

> <r_epik_Ionization_Penalty_Neutral>
0.00040815

> <r_epik_State_Penalty>
0.0194773

> <r_epik_Charging_Adjusted_Penalty>
0.0435009

> <i_epik_Tot_Q>
1

> <i_epik_Tot_abs_Q>
1

> <r_epik_Metal_State_Penalty>
0.0361957

> <b_epik_Metal_Only>
0

> <s_lp_Force_Field>
OPLS_2005

> <r_lp_Energy>
17.7945

> <b_lp_Chiralities_Consistent>
1

> <s_lp_Variant>
AV-unprocessed.smi:657-3

> <Gold.Version>
5.8.1

> <Gold.Id.Protein>
6NUR|6NUR_protein|mol2

> <Gold.PLP.Fitness>
43.8480

> <Gold.PLP.PLP>
-32.6883

> <Gold.PLP.part.hbond>
-4.0000

> <Gold.PLP.part.metal>
0.0000

> <Gold.PLP.part.buried>
-3.6808

> <Gold.PLP.part.nonpolar>
-25.9977

> <Gold.PLP.part.repulsive>
0.9556

> <Gold.PLP.ligand.clash>
0.0000

> <Gold.PLP.ligand.torsion>
0.1342

> <Gold.PLP.Chemscore.Hbond>
3.7440

> <Gold.PLP.Chemscore.CHOScore>
0.0000

> <Gold.PLP.Chemscore.Metal>
0.0000

> <Gold.Chemscore.Hbonds>
donor molecule, donor type, donor heavy atom, donor atom, acceptor molecule, acceptor atom, score
      L1  H     4    47       P1 10175  2.00
      P1  H  7997  8008       L1    17  0.90
      P1  H  8011  8017       L1    11  0.70

> <Gold.PLP.Chemscore.Internal.Correction>
0.1962

> <Gold.Rescore>
     Score         DG    S(hbond)    S(metal)    S(lipo)     H(rot)  DE(clash)    DE(int)     intcor
     16.12     -17.30       2.25        0.00      72.35       1.63       0.18       1.00       ----

> <Gold.Chemscore.Fitness>
16.1179

> <Gold.Chemscore.DG>
-17.2994

> <Gold.Chemscore.ZeroCoef>
-5.4800

> <Gold.Chemscore.Hbond>
2.2519

> <Gold.Chemscore.Metal>
0.0000

> <Gold.Chemscore.Lipo>
72.3545

> <Gold.Chemscore.Internal_Hbond>
0.0000

> <Gold.Chemscore.DEClash>
0.1793

> <Gold.Chemscore.DEInternal>
1.0022

> <Gold.Chemscore.Rot>
1.6279

> <Gold.Chemscore.Internal.Correction>
   9.000000E+99

> <Gold.Chemscore.Hbonds>
donor molecule, donor type, donor heavy atom, donor atom, acceptor molecule, acceptor atom, score
      L1  H     4    47       P1 10175  0.98
      P1  H  7997  8008       L1    17  0.15
      P1  H  8011  8017       L1    11  0.72

> <Gold.Chemscore.Hbond.Weighted>
-7.5213

> <Gold.Chemscore.Metal.Weighted>
-0.0000

> <Gold.Chemscore.Lipo.Weighted>
-8.4655

> <Gold.Chemscore.Internal_Hbond.Weighted>
0.0000

> <Gold.Chemscore.DEClash.Weighted>
0.1793

> <Gold.Chemscore.DEInternal.Weighted>
1.0022

> <Gold.Chemscore.Rot.Weighted>
4.1673

> <Gold.Chemscore.Internal.Correction.Weighted>
   9.000000E+99

> <Gold.Protein.RotatedTorsions>
[ 6907 6896 6895 6894 ] final -151.83 input  -60.11 | X-H torsion
[ 7974 7965 7964 7962 ] final  -82.16 input  175.53 | X-H torsion
[ 8008 7997 7996 7995 ] final -105.56 input   59.86 | X-H torsion
[ 10167 10162 10161 10158 ] final -104.66 input  -65.29 | X-H torsion
[ 10718 10713 10712 10709 ] final  -62.30 input   66.30 | X-H torsion
[ 10763 10752 10751 10750 ] final   30.63 input  -60.55 | X-H torsion
[ 11005 11000 10999 10996 ] final  176.71 input  -57.11 | X-H torsion

> <Gold.Protein.ActiveResidues>
 VAL166  LYS551  ARG553  GLY616  TRP617  ASP618  TYR619  PRO620  LYS621  CYS622 
 ASP623  PHE694  ASN695  SER759  ASP760  ASP761  ALA762  ILE779  LEU786  VAL792 
 PHE793  MET794  SER795  GLU796  ALA797  LYS798  CYS799  TRP800  GLU811  SER814 

> <Gold.Protein.RotatedAtoms>
  151.2189  133.4513  159.2599 H   0  0  0  0  0  0  0  0  0  0  0  0  # atno 6907 bound_to 6896
  151.0904  134.9913  159.8410 H   0  0  0  0  0  0  0  0  0  0  0  0  # atno 6908 bound_to 6896
  152.5434  134.2123  159.8807 H   0  0  0  0  0  0  0  0  0  0  0  0  # atno 6909 bound_to 6896
  145.5370  140.9514  143.1572 H   0  0  0  0  0  0  0  0  0  0  0  0  # atno 7974 bound_to 7965
  154.9017  140.0412  157.1896 H   0  0  0  0  0  0  0  0  0  0  0  0  # atno 8008 bound_to 7997
  154.8437  140.2918  155.5621 H   0  0  0  0  0  0  0  0  0  0  0  0  # atno 8009 bound_to 7997
  156.2993  140.2478  156.3384 H   0  0  0  0  0  0  0  0  0  0  0  0  # atno 8010 bound_to 7997
  140.2069  143.3776  152.1083 H   0  0  0  0  0  0  0  0  0  0  0  0  # atno 10167 bound_to 10162
  156.0864  130.4207  150.1115 H   0  0  0  0  0  0  0  0  0  0  0  0  # atno 10718 bound_to 10713
  153.0361  135.6459  154.1074 H   0  0  0  0  0  0  0  0  0  0  0  0  # atno 10763 bound_to 10752
  154.0789  135.2875  155.3296 H   0  0  0  0  0  0  0  0  0  0  0  0  # atno 10764 bound_to 10752
  154.6543  135.5414  153.8004 H   0  0  0  0  0  0  0  0  0  0  0  0  # atno 10765 bound_to 10752
  140.3761  134.6987  157.4422 H   0  0  0  0  0  0  0  0  0  0  0  0  # atno 11005 bound_to 11000
  144.7596  139.6988  143.7239 LP  0  0  0  0  0  0  0  0  0  0  0  0  # atno 17320 bound_to 7965
  146.2006  139.5299  142.9745 LP  0  0  0  0  0  0  0  0  0  0  0  0  # atno 17321 bound_to 7965
  139.5195  144.7020  151.5465 LP  0  0  0  0  0  0  0  0  0  0  0  0  # atno 17342 bound_to 10162
  140.6351  143.9000  150.6640 LP  0  0  0  0  0  0  0  0  0  0  0  0  # atno 17343 bound_to 10162
  156.9135  130.9659  151.3559 LP  0  0  0  0  0  0  0  0  0  0  0  0  # atno 17370 bound_to 10713
  157.6000  130.8506  149.8788 LP  0  0  0  0  0  0  0  0  0  0  0  0  # atno 17371 bound_to 10713
  140.0514  134.6125  155.8857 LP  0  0  0  0  0  0  0  0  0  0  0  0  # atno 17394 bound_to 11000
  141.1939  133.6580  156.5569 LP  0  0  0  0  0  0  0  0  0  0  0  0  # atno 17395 bound_to 11000

$$$$
