AV-unprocessed.smi:1224|AV-procd|sdf|5128|dock8
  -GOLD-   22720 4183D 1   1.00000     0.00000
 Structure written by MMmdl.
 44 46  0  0  0  0  0  0  0  0  2 V2000
  153.3060  142.9378  161.6485 C   0  0  0  0  0  0  0  0  0  0  0  0
  152.6414  142.6123  160.3226 C   0  0  0  0  0  0  0  0  0  0  0  0
  152.5525  141.2631  159.9116 C   0  0  0  0  0  0  0  0  0  0  0  0
  151.9363  140.9177  158.6891 C   0  0  0  0  0  0  0  0  0  0  0  0
  151.7384  139.6811  158.0993 N   0  0  0  0  0  0  0  0  0  0  0  0
  151.1053  140.0160  156.9789 C   0  0  0  0  0  0  0  0  0  0  0  0
  150.8627  141.3256  156.7763 N   0  0  0  0  0  0  0  0  0  0  0  0
  150.1806  141.9274  155.6447 C   0  0  0  0  0  0  0  0  0  0  0  0
  149.3154  140.9106  154.8751 C   0  0  2  0  0  0  0  0  0  0  0  0
  149.4937  141.1026  153.4844 O   0  0  0  0  0  0  0  0  0  0  0  0
  147.8214  141.0593  155.2020 C   0  0  0  0  0  0  0  0  0  0  0  0
  147.3492  142.4313  154.9176 N   0  3  0  0  0  0  0  0  0  0  0  0
  146.0857  142.8086  155.5835 C   0  0  0  0  0  0  0  0  0  0  0  0
  145.3769  143.9145  154.8707 C   0  0  0  0  0  0  0  0  0  0  0  0
  144.4306  144.7700  155.3758 C   0  0  0  0  0  0  0  0  0  0  0  0
  143.9720  145.7247  154.4213 C   0  0  0  0  0  0  0  0  0  0  0  0
  144.5746  145.5853  153.1994 C   0  0  0  0  0  0  0  0  0  0  0  0
  145.7199  144.2728  153.1964 S   0  0  0  0  0  0  0  0  0  0  0  0
  151.4058  141.9674  157.8837 C   0  0  0  0  0  0  0  0  0  0  0  0
  151.4928  143.3140  158.2788 C   0  0  0  0  0  0  0  0  0  0  0  0
  152.1122  143.6415  159.5029 C   0  0  0  0  0  0  0  0  0  0  0  0
  152.1995  145.0984  159.9223 C   0  0  0  0  0  0  0  0  0  0  0  0
  153.6974  142.0404  162.1285 H   0  0  0  0  0  0  0  0  0  0  0  0
  152.5899  143.3972  162.3302 H   0  0  0  0  0  0  0  0  0  0  0  0
  154.1373  143.6277  161.5028 H   0  0  0  0  0  0  0  0  0  0  0  0
  152.9564  140.4792  160.5354 H   0  0  0  0  0  0  0  0  0  0  0  0
  150.7916  139.2651  156.2683 H   0  0  0  0  0  0  0  0  0  0  0  0
  149.5627  142.7457  156.0170 H   0  0  0  0  0  0  0  0  0  0  0  0
  150.9254  142.3737  154.9838 H   0  0  0  0  0  0  0  0  0  0  0  0
  149.6432  139.9007  155.1261 H   0  0  0  0  0  0  0  0  0  0  0  0
  149.2458  140.3071  153.0369 H   0  0  0  0  0  0  0  0  0  0  0  0
  147.2378  140.3634  154.5977 H   0  0  0  0  0  0  0  0  0  0  0  0
  147.6413  140.8023  156.2468 H   0  0  0  0  0  0  0  0  0  0  0  0
  148.0678  143.0803  155.2063 H   0  0  0  0  0  0  0  0  0  0  0  0
  145.4425  141.9289  155.6162 H   0  0  0  0  0  0  0  0  0  0  0  0
  146.2866  143.0852  156.6194 H   0  0  0  0  0  0  0  0  0  0  0  0
  144.0560  144.7465  156.3886 H   0  0  0  0  0  0  0  0  0  0  0  0
  143.2273  146.4696  154.6607 H   0  0  0  0  0  0  0  0  0  0  0  0
  144.4162  146.1701  152.3049 H   0  0  0  0  0  0  0  0  0  0  0  0
  151.0851  144.0879  157.6458 H   0  0  0  0  0  0  0  0  0  0  0  0
  151.7319  145.7534  159.1867 H   0  0  0  0  0  0  0  0  0  0  0  0
  153.2409  145.4033  160.0271 H   0  0  0  0  0  0  0  0  0  0  0  0
  151.6953  145.2527  160.8764 H   0  0  0  0  0  0  0  0  0  0  0  0
  147.2216  142.5177  153.9195 H   0  0  0  0  0  0  0  0  0  0  0  0
  1  2  1  0  0  0  0
  1 23  1  0  0  0  0
  1 24  1  0  0  0  0
  1 25  1  0  0  0  0
  2 21  1  0  0  0  0
  2  3  2  0  0  0  0
  3  4  1  0  0  0  0
  3 26  1  0  0  0  0
  4 19  2  0  0  0  0
  4  5  1  0  0  0  0
  5  6  2  0  0  0  0
  6  7  1  0  0  0  0
  6 27  1  0  0  0  0
  7  8  1  0  0  0  0
  7 19  1  0  0  0  0
  8  9  1  0  0  0  0
  8 28  1  0  0  0  0
  8 29  1  0  0  0  0
  9 10  1  0  0  0  0
  9 11  1  0  0  0  0
  9 30  1  0  0  0  0
 10 31  1  0  0  0  0
 11 12  1  0  0  0  0
 11 32  1  0  0  0  0
 11 33  1  0  0  0  0
 12 13  1  0  0  0  0
 12 34  1  0  0  0  0
 12 44  1  0  0  0  0
 13 14  1  0  0  0  0
 13 35  1  0  0  0  0
 13 36  1  0  0  0  0
 14 18  1  0  0  0  0
 14 15  2  0  0  0  0
 15 16  1  0  0  0  0
 15 37  1  0  0  0  0
 16 17  2  0  0  0  0
 16 38  1  0  0  0  0
 17 18  1  0  0  0  0
 17 39  1  0  0  0  0
 19 20  1  0  0  0  0
 20 21  2  0  0  0  0
 20 40  1  0  0  0  0
 21 22  1  0  0  0  0
 22 41  1  0  0  0  0
 22 42  1  0  0  0  0
 22 43  1  0  0  0  0
M  CHG  1  12   1
M  END
> <s_m_source_file>
AV-unprocessed.smi

> <i_m_source_file_index>
1224

> <i_lp_mmshare_version>
43012

> <i_f3d_flags>
0

> <s_epik_input>
W0NIM11jKFtjSF0xKWMoW0NIM10pW2NIXWMoYzEyKW4oW2NIXW4yKVtDSDJdW0NASF0oW09IXSlbQ0gyXVtOSF1bQ0gyXWMzW2NIXVtjSF1bY0hdczM=

> <s_epik_cmdline>
J2VwaWtfcHl0aG9uJywgJy1waCcsICc3LjAnLCAnLXRuJywgJzgnLCAnLW1hJywgJzIwMCcsICctbWV0YWxfYmluZGluZycsICctaW1hZScsICc8aW5maWxlLm1hZT4nLCAnLW9tYWUnLCAnPG91dGZpbGUubWFlPic=

> <r_epik_Ionization_Penalty>
0.145091

> <r_epik_Ionization_Penalty_Charging>
0.0551904

> <r_epik_Ionization_Penalty_Neutral>
0.0899003

> <r_epik_State_Penalty>
0.131364

> <r_epik_Charging_Adjusted_Penalty>
0.186554

> <i_epik_Tot_Q>
1

> <i_epik_Tot_abs_Q>
1

> <r_epik_Metal_State_Penalty>
0.0472291

> <b_epik_Metal_Only>
0

> <s_lp_Force_Field>
OPLS_2005

> <r_lp_Energy>
7.24279

> <b_lp_Chiralities_Consistent>
1

> <s_lp_Variant>
AV-unprocessed.smi:1224-1

> <Gold.Version>
5.8.1

> <Gold.Id.Protein>
6NUR|6NUR_protein|mol2

> <Gold.PLP.Fitness>
61.3859

> <Gold.PLP.PLP>
-53.1859

> <Gold.PLP.part.hbond>
-4.0000

> <Gold.PLP.part.metal>
0.0000

> <Gold.PLP.part.buried>
-5.1921

> <Gold.PLP.part.nonpolar>
-43.0001

> <Gold.PLP.part.repulsive>
0.1038

> <Gold.PLP.ligand.clash>
0.0000

> <Gold.PLP.ligand.torsion>
1.3873

> <Gold.PLP.Chemscore.Hbond>
3.6464

> <Gold.PLP.Chemscore.CHOScore>
0.0000

> <Gold.PLP.Chemscore.Metal>
0.0000

> <Gold.Chemscore.Hbonds>
donor molecule, donor type, donor heavy atom, donor atom, acceptor molecule, acceptor atom, score
      L1  H    10    31       P1  7957  0.43
      L1  H    12    34       P1  8028  2.00
      P1  H  7989  7998       L1    10  0.15
      P1  H  8011  8017       L1    10  1.00

> <Gold.PLP.Chemscore.Internal.Correction>
0.0354

> <Gold.Rescore>
     Score         DG    S(hbond)    S(metal)    S(lipo)     H(rot)  DE(clash)    DE(int)     intcor
     19.05     -21.69       1.86        0.00     138.45       2.42       1.28       1.36       ----

> <Gold.Chemscore.Fitness>
19.0547

> <Gold.Chemscore.DG>
-21.6863

> <Gold.Chemscore.ZeroCoef>
-5.4800

> <Gold.Chemscore.Hbond>
1.8604

> <Gold.Chemscore.Metal>
0.0000

> <Gold.Chemscore.Lipo>
138.4462

> <Gold.Chemscore.Internal_Hbond>
0.0000

> <Gold.Chemscore.DEClash>
1.2764

> <Gold.Chemscore.DEInternal>
1.3552

> <Gold.Chemscore.Rot>
2.4240

> <Gold.Chemscore.Internal.Correction>
   9.000000E+99

> <Gold.Chemscore.Hbonds>
donor molecule, donor type, donor heavy atom, donor atom, acceptor molecule, acceptor atom, score
      L1  H    10    31       P1  7957  0.44
      L1  H    12    34       P1  8028  0.90
      P1  H  7989  7998       L1    10  0.01
      P1  H  8011  8017       L1    10  0.76

> <Gold.Chemscore.Hbond.Weighted>
-6.2136

> <Gold.Chemscore.Metal.Weighted>
-0.0000

> <Gold.Chemscore.Lipo.Weighted>
-16.1982

> <Gold.Chemscore.Internal_Hbond.Weighted>
0.0000

> <Gold.Chemscore.DEClash.Weighted>
1.2764

> <Gold.Chemscore.DEInternal.Weighted>
1.3552

> <Gold.Chemscore.Rot.Weighted>
6.2055

> <Gold.Chemscore.Internal.Correction.Weighted>
   9.000000E+99

> <Gold.Protein.RotatedTorsions>
[ 6907 6896 6895 6894 ] final  130.52 input  -60.11 | X-H torsion
[ 7974 7965 7964 7962 ] final   41.64 input  175.53 | X-H torsion
[ 8008 7997 7996 7995 ] final  -62.49 input   59.86 | X-H torsion
[ 10167 10162 10161 10158 ] final   92.84 input  -65.29 | X-H torsion
[ 10718 10713 10712 10709 ] final  137.70 input   66.30 | X-H torsion
[ 10763 10752 10751 10750 ] final   58.33 input  -60.55 | X-H torsion
[ 11005 11000 10999 10996 ] final  133.22 input  -57.11 | X-H torsion

> <Gold.Protein.ActiveResidues>
 VAL166  LYS551  ARG553  GLY616  TRP617  ASP618  TYR619  PRO620  LYS621  CYS622 
 ASP623  PHE694  ASN695  SER759  ASP760  ASP761  ALA762  ILE779  LEU786  VAL792 
 PHE793  MET794  SER795  GLU796  ALA797  LYS798  CYS799  TRP800  GLU811  SER814 

> <Gold.Protein.RotatedAtoms>
  152.3518  133.6189  159.5950 H   0  0  0  0  0  0  0  0  0  0  0  0  # atno 6907 bound_to 6896
  150.7543  133.9562  159.3510 H   0  0  0  0  0  0  0  0  0  0  0  0  # atno 6908 bound_to 6896
  151.7412  135.0854  160.0367 H   0  0  0  0  0  0  0  0  0  0  0  0  # atno 6909 bound_to 6896
  146.0807  139.5392  142.9539 H   0  0  0  0  0  0  0  0  0  0  0  0  # atno 7974 bound_to 7965
  154.4502  140.0995  156.6595 H   0  0  0  0  0  0  0  0  0  0  0  0  # atno 8008 bound_to 7997
  155.5309  140.3481  155.4407 H   0  0  0  0  0  0  0  0  0  0  0  0  # atno 8009 bound_to 7997
  156.0665  140.1339  156.9869 H   0  0  0  0  0  0  0  0  0  0  0  0  # atno 8010 bound_to 7997
  139.8237  144.6719  150.9486 H   0  0  0  0  0  0  0  0  0  0  0  0  # atno 10167 bound_to 10162
  157.4332  131.1050  151.0226 H   0  0  0  0  0  0  0  0  0  0  0  0  # atno 10718 bound_to 10713
  152.9868  135.5610  154.5535 H   0  0  0  0  0  0  0  0  0  0  0  0  # atno 10763 bound_to 10752
  154.4968  135.2795  155.1455 H   0  0  0  0  0  0  0  0  0  0  0  0  # atno 10764 bound_to 10752
  154.2902  135.6328  153.5435 H   0  0  0  0  0  0  0  0  0  0  0  0  # atno 10765 bound_to 10752
  139.9838  134.9539  156.9694 H   0  0  0  0  0  0  0  0  0  0  0  0  # atno 11005 bound_to 11000
  145.6223  141.0320  143.1908 LP  0  0  0  0  0  0  0  0  0  0  0  0  # atno 17320 bound_to 7965
  144.7291  139.7781  143.7354 LP  0  0  0  0  0  0  0  0  0  0  0  0  # atno 17321 bound_to 7965
  140.7811  143.4067  151.1060 LP  0  0  0  0  0  0  0  0  0  0  0  0  # atno 17342 bound_to 10162
  139.7725  143.8473  152.3123 LP  0  0  0  0  0  0  0  0  0  0  0  0  # atno 17343 bound_to 10162
  157.1115  130.6024  149.5483 LP  0  0  0  0  0  0  0  0  0  0  0  0  # atno 17370 bound_to 10713
  155.9921  130.4978  150.7326 LP  0  0  0  0  0  0  0  0  0  0  0  0  # atno 17371 bound_to 10713
  140.5042  134.1066  155.7257 LP  0  0  0  0  0  0  0  0  0  0  0  0  # atno 17394 bound_to 11000
  141.1507  133.8975  157.2106 LP  0  0  0  0  0  0  0  0  0  0  0  0  # atno 17395 bound_to 11000

$$$$
