AV-unprocessed.smi:2713|AV-procd|sdf|10479|dock2
  -GOLD-   2272014523D 1   1.00000     0.00000
 Structure written by MMmdl.
 52 53  0  0  0  0  0  0  0  0  1 V2000
  156.2083  134.2521  165.5210 C   0  0  0  0  0  0  0  0  0  0  0  0
  155.1344  134.4096  164.4217 C   0  0  0  0  0  0  0  0  0  0  0  0
  154.1160  133.2679  164.6261 C   0  0  0  0  0  0  0  0  0  0  0  0
  154.3822  135.7415  164.6184 C   0  0  0  0  0  0  0  0  0  0  0  0
  155.7309  134.2415  162.9837 C   0  0  0  0  0  0  0  0  0  0  0  0
  156.7036  135.2924  162.3575 C   0  0  0  0  0  0  0  0  0  0  0  0
  157.8904  135.6537  163.2769 C   0  0  0  0  0  0  0  0  0  0  0  0
  157.2506  134.6920  161.0426 C   0  0  0  0  0  0  0  0  0  0  0  0
  155.9013  136.4701  162.0082 N   0  0  0  0  0  0  0  0  0  0  0  0
  156.5754  137.5513  161.2981 C   0  0  0  0  0  0  0  0  0  0  0  0
  155.6165  138.6537  160.8960 C   0  0  0  0  0  0  0  0  0  0  0  0
  155.2117  138.8446  159.5591 C   0  0  0  0  0  0  0  0  0  0  0  0
  154.3494  139.8244  159.2128 N   0  0  0  0  0  0  0  0  0  0  0  0
  153.8780  140.6168  160.1860 C   0  0  0  0  0  0  0  0  0  0  0  0
  152.9841  141.6319  159.8222 N   0  0  0  0  0  0  0  0  0  0  0  0
  151.7349  141.3514  159.1108 C   0  0  0  0  0  0  0  0  0  0  0  0
  151.3566  142.5245  158.1904 C   0  0  0  0  0  0  0  0  0  0  0  0
  151.2936  143.7288  158.9445 O   0  0  0  0  0  0  0  0  0  0  0  0
  152.5516  144.0487  159.5256 C   0  0  0  0  0  0  0  0  0  0  0  0
  152.9754  142.9329  160.4957 C   0  0  0  0  0  0  0  0  0  0  0  0
  154.1986  140.5108  161.4832 N   0  0  0  0  0  0  0  0  0  0  0  0
  155.0613  139.5369  161.8430 C   0  0  0  0  0  0  0  0  0  0  0  0
  155.7501  134.1891  166.5088 H   0  0  0  0  0  0  0  0  0  0  0  0
  156.9002  135.0894  165.5636 H   0  0  0  0  0  0  0  0  0  0  0  0
  156.7946  133.3435  165.3801 H   0  0  0  0  0  0  0  0  0  0  0  0
  154.5840  132.2899  164.5053 H   0  0  0  0  0  0  0  0  0  0  0  0
  153.2963  133.3291  163.9093 H   0  0  0  0  0  0  0  0  0  0  0  0
  153.6736  133.2962  165.6228 H   0  0  0  0  0  0  0  0  0  0  0  0
  153.8935  135.7782  165.5926 H   0  0  0  0  0  0  0  0  0  0  0  0
  153.6089  135.8773  163.8616 H   0  0  0  0  0  0  0  0  0  0  0  0
  155.0511  136.5999  164.5693 H   0  0  0  0  0  0  0  0  0  0  0  0
  156.2277  133.2702  162.9616 H   0  0  0  0  0  0  0  0  0  0  0  0
  154.8987  134.1279  162.2864 H   0  0  0  0  0  0  0  0  0  0  0  0
  158.3669  134.7563  163.6724 H   0  0  0  0  0  0  0  0  0  0  0  0
  157.5846  136.2773  164.1158 H   0  0  0  0  0  0  0  0  0  0  0  0
  158.6631  136.2053  162.7403 H   0  0  0  0  0  0  0  0  0  0  0  0
  157.7723  133.7524  161.2287 H   0  0  0  0  0  0  0  0  0  0  0  0
  157.9646  135.3503  160.5480 H   0  0  0  0  0  0  0  0  0  0  0  0
  156.4491  134.4824  160.3327 H   0  0  0  0  0  0  0  0  0  0  0  0
  155.0785  136.1825  161.4977 H   0  0  0  0  0  0  0  0  0  0  0  0
  157.3455  137.9954  161.9284 H   0  0  0  0  0  0  0  0  0  0  0  0
  157.0649  137.1715  160.4023 H   0  0  0  0  0  0  0  0  0  0  0  0
  155.5788  138.2118  158.7642 H   0  0  0  0  0  0  0  0  0  0  0  0
  151.8072  140.4502  158.5023 H   0  0  0  0  0  0  0  0  0  0  0  0
  150.9457  141.1788  159.8433 H   0  0  0  0  0  0  0  0  0  0  0  0
  152.0768  142.6284  157.3771 H   0  0  0  0  0  0  0  0  0  0  0  0
  150.3845  142.3428  157.7323 H   0  0  0  0  0  0  0  0  0  0  0  0
  153.3013  144.1919  158.7455 H   0  0  0  0  0  0  0  0  0  0  0  0
  152.4640  144.9952  160.0594 H   0  0  0  0  0  0  0  0  0  0  0  0
  152.2792  142.8836  161.3337 H   0  0  0  0  0  0  0  0  0  0  0  0
  153.9485  143.1911  160.9119 H   0  0  0  0  0  0  0  0  0  0  0  0
  155.3072  139.4651  162.8924 H   0  0  0  0  0  0  0  0  0  0  0  0
  1  2  1  0  0  0  0
  1 23  1  0  0  0  0
  1 24  1  0  0  0  0
  1 25  1  0  0  0  0
  2  3  1  0  0  0  0
  2  4  1  0  0  0  0
  2  5  1  0  0  0  0
  3 26  1  0  0  0  0
  3 27  1  0  0  0  0
  3 28  1  0  0  0  0
  4 29  1  0  0  0  0
  4 30  1  0  0  0  0
  4 31  1  0  0  0  0
  5  6  1  0  0  0  0
  5 32  1  0  0  0  0
  5 33  1  0  0  0  0
  6  7  1  0  0  0  0
  6  8  1  0  0  0  0
  6  9  1  0  0  0  0
  7 34  1  0  0  0  0
  7 35  1  0  0  0  0
  7 36  1  0  0  0  0
  8 37  1  0  0  0  0
  8 38  1  0  0  0  0
  8 39  1  0  0  0  0
  9 10  1  0  0  0  0
  9 40  1  0  0  0  0
 10 11  1  0  0  0  0
 10 41  1  0  0  0  0
 10 42  1  0  0  0  0
 11 22  1  0  0  0  0
 11 12  2  0  0  0  0
 12 13  1  0  0  0  0
 12 43  1  0  0  0  0
 13 14  2  0  0  0  0
 14 15  1  0  0  0  0
 14 21  1  0  0  0  0
 15 20  1  0  0  0  0
 15 16  1  0  0  0  0
 16 17  1  0  0  0  0
 16 44  1  0  0  0  0
 16 45  1  0  0  0  0
 17 18  1  0  0  0  0
 17 46  1  0  0  0  0
 17 47  1  0  0  0  0
 18 19  1  0  0  0  0
 19 20  1  0  0  0  0
 19 48  1  0  0  0  0
 19 49  1  0  0  0  0
 20 50  1  0  0  0  0
 20 51  1  0  0  0  0
 21 22  2  0  0  0  0
 22 52  1  0  0  0  0
M  END
> <s_m_source_file>
AV-unprocessed.smi

> <i_m_source_file_index>
2713

> <i_lp_mmshare_version>
43012

> <i_f3d_flags>
0

> <s_epik_input>
W0NIM11DKFtDSDNdKShbQ0gzXSlbQ0gyXUMoW0NIM10pKFtDSDNdKVtOSF1bQ0gyXWMxW2NIXW5jKG5bY0hdMSlOMltDSDJdW0NIMl1PW0NIMl1bQ0gyXTI=

> <s_epik_cmdline>
J2VwaWtfcHl0aG9uJywgJy1waCcsICc3LjAnLCAnLXRuJywgJzgnLCAnLW1hJywgJzIwMCcsICctbWV0YWxfYmluZGluZycsICctaW1hZScsICc8aW5maWxlLm1hZT4nLCAnLW9tYWUnLCAnPG91dGZpbGUubWFlPic=

> <r_lp_tautomer_probability>
1

> <r_epik_Ionization_Penalty>
1.66691

> <r_epik_Ionization_Penalty_Charging>
0

> <r_epik_Ionization_Penalty_Neutral>
1.66691

> <r_epik_State_Penalty>
1.77023

> <r_epik_Charging_Adjusted_Penalty>
1.77023

> <i_epik_Tot_Q>
0

> <i_epik_Tot_abs_Q>
0

> <r_epik_Metal_State_Penalty>
1.77023

> <b_epik_Metal_Only>
0

> <s_lp_Force_Field>
OPLS_2005

> <r_lp_Energy>
27.9038

> <b_lp_Chiralities_Consistent>
1

> <s_lp_Variant>
AV-unprocessed.smi:2713-2

> <Gold.Version>
5.8.1

> <Gold.Id.Protein>
6NUR|6NUR_protein|mol2

> <Gold.PLP.Fitness>
33.3677

> <Gold.PLP.PLP>
-32.3069

> <Gold.PLP.part.hbond>
-1.0000

> <Gold.PLP.part.metal>
0.0000

> <Gold.PLP.part.buried>
-4.4509

> <Gold.PLP.part.nonpolar>
-27.2626

> <Gold.PLP.part.repulsive>
0.0723

> <Gold.PLP.ligand.clash>
0.0000

> <Gold.PLP.ligand.torsion>
1.0357

> <Gold.PLP.Chemscore.Hbond>
0.9920

> <Gold.PLP.Chemscore.CHOScore>
0.0000

> <Gold.PLP.Chemscore.Metal>
0.0000

> <Gold.Chemscore.Hbonds>
donor molecule, donor type, donor heavy atom, donor atom, acceptor molecule, acceptor atom, score
      P1  H  7997  8010       L1    13  0.91

> <Gold.PLP.Chemscore.Internal.Correction>
0.1563

> <Gold.Rescore>
     Score         DG    S(hbond)    S(metal)    S(lipo)     H(rot)  DE(clash)    DE(int)     intcor
     14.14     -15.54       0.81        0.00      95.36       1.48       0.26       1.14       ----

> <Gold.Chemscore.Fitness>
14.1357

> <Gold.Chemscore.DG>
-15.5399

> <Gold.Chemscore.ZeroCoef>
-5.4800

> <Gold.Chemscore.Hbond>
0.8063

> <Gold.Chemscore.Metal>
0.0000

> <Gold.Chemscore.Lipo>
95.3585

> <Gold.Chemscore.Internal_Hbond>
0.0000

> <Gold.Chemscore.DEClash>
0.2643

> <Gold.Chemscore.DEInternal>
1.1398

> <Gold.Chemscore.Rot>
1.4805

> <Gold.Chemscore.Internal.Correction>
   9.000000E+99

> <Gold.Chemscore.Hbonds>
donor molecule, donor type, donor heavy atom, donor atom, acceptor molecule, acceptor atom, score
      P1  H  7997  8010       L1    13  0.19

> <Gold.Chemscore.Hbond.Weighted>
-2.6930

> <Gold.Chemscore.Metal.Weighted>
-0.0000

> <Gold.Chemscore.Lipo.Weighted>
-11.1569

> <Gold.Chemscore.Internal_Hbond.Weighted>
0.0000

> <Gold.Chemscore.DEClash.Weighted>
0.2643

> <Gold.Chemscore.DEInternal.Weighted>
1.1398

> <Gold.Chemscore.Rot.Weighted>
3.7900

> <Gold.Chemscore.Internal.Correction.Weighted>
   9.000000E+99

> <Gold.Protein.RotatedTorsions>
[ 6907 6896 6895 6894 ] final  -98.85 input  -60.11 | X-H torsion
[ 7974 7965 7964 7962 ] final -165.79 input  175.53 | X-H torsion
[ 8008 7997 7996 7995 ] final   16.09 input   59.86 | X-H torsion
[ 10167 10162 10161 10158 ] final  -41.06 input  -65.29 | X-H torsion
[ 10718 10713 10712 10709 ] final   11.32 input   66.30 | X-H torsion
[ 10763 10752 10751 10750 ] final  -89.25 input  -60.55 | X-H torsion
[ 11005 11000 10999 10996 ] final -139.03 input  -57.11 | X-H torsion

> <Gold.Protein.ActiveResidues>
 VAL166  LYS551  ARG553  GLY616  TRP617  ASP618  TYR619  PRO620  LYS621  CYS622 
 ASP623  PHE694  ASN695  SER759  ASP760  ASP761  ALA762  ILE779  LEU786  VAL792 
 PHE793  MET794  SER795  GLU796  ALA797  LYS798  CYS799  TRP800  GLU811  SER814 

> <Gold.Protein.RotatedAtoms>
  150.7060  134.1130  159.4006 H   0  0  0  0  0  0  0  0  0  0  0  0  # atno 6907 bound_to 6896
  151.9117  135.0334  160.0524 H   0  0  0  0  0  0  0  0  0  0  0  0  # atno 6908 bound_to 6896
  152.2330  133.5038  159.5263 H   0  0  0  0  0  0  0  0  0  0  0  0  # atno 6909 bound_to 6896
  144.7261  140.2762  143.6243 H   0  0  0  0  0  0  0  0  0  0  0  0  # atno 7974 bound_to 7965
  154.8719  140.2960  155.5476 H   0  0  0  0  0  0  0  0  0  0  0  0  # atno 8008 bound_to 7997
  156.3021  140.2458  156.3643 H   0  0  0  0  0  0  0  0  0  0  0  0  # atno 8009 bound_to 7997
  154.8808  140.0398  157.1770 H   0  0  0  0  0  0  0  0  0  0  0  0  # atno 8010 bound_to 7997
  140.7014  143.3116  151.3013 H   0  0  0  0  0  0  0  0  0  0  0  0  # atno 10167 bound_to 10162
  156.9939  130.6053  149.5689 H   0  0  0  0  0  0  0  0  0  0  0  0  # atno 10718 bound_to 10713
  154.6532  135.5348  153.7927 H   0  0  0  0  0  0  0  0  0  0  0  0  # atno 10763 bound_to 10752
  153.0398  135.6487  154.0985 H   0  0  0  0  0  0  0  0  0  0  0  0  # atno 10764 bound_to 10752
  154.0900  135.2940  155.3253 H   0  0  0  0  0  0  0  0  0  0  0  0  # atno 10765 bound_to 10752
  140.8559  134.2228  157.4734 H   0  0  0  0  0  0  0  0  0  0  0  0  # atno 11005 bound_to 11000
  145.7994  139.1958  143.2056 LP  0  0  0  0  0  0  0  0  0  0  0  0  # atno 17320 bound_to 7965
  146.0689  140.7891  142.9698 LP  0  0  0  0  0  0  0  0  0  0  0  0  # atno 17321 bound_to 7965
  139.6541  144.0308  152.2647 LP  0  0  0  0  0  0  0  0  0  0  0  0  # atno 17342 bound_to 10162
  139.9854  144.6399  150.7862 LP  0  0  0  0  0  0  0  0  0  0  0  0  # atno 17343 bound_to 10162
  156.0197  130.5291  150.8238 LP  0  0  0  0  0  0  0  0  0  0  0  0  # atno 17370 bound_to 10713
  157.5439  131.0941  150.9789 LP  0  0  0  0  0  0  0  0  0  0  0  0  # atno 17371 bound_to 10713
  139.8705  134.9706  156.4707 LP  0  0  0  0  0  0  0  0  0  0  0  0  # atno 17394 bound_to 11000
  140.8738  133.7969  155.9392 LP  0  0  0  0  0  0  0  0  0  0  0  0  # atno 17395 bound_to 11000

$$$$
