AV-unprocessed.smi:2903|AV-procd|sdf|11159|dock2
  -GOLD-   2272016 43D 1   1.00000     0.00000
 Structure written by MMmdl.
 40 41  0  0  0  0  0  0  0  0  1 V2000
  155.2275  134.2551  166.0040 C   0  0  0  0  0  0  0  0  0  0  0  0
  155.4154  134.1404  164.4923 C   0  0  0  0  0  0  0  0  0  0  0  0
  155.7870  133.0669  164.0197 O   0  0  0  0  0  0  0  0  0  0  0  0
  155.1340  135.3474  163.6682 C   0  0  0  0  0  0  0  0  0  0  0  0
  154.7821  136.5905  164.2390 C   0  0  0  0  0  0  0  0  0  0  0  0
  154.5286  137.6871  163.3929 C   0  0  0  0  0  0  0  0  0  0  0  0
  154.6313  137.5262  161.9943 C   0  0  0  0  0  0  0  0  0  0  0  0
  154.3491  138.6907  161.2334 N   0  0  0  0  0  0  0  0  0  0  0  0
  154.6961  139.9646  161.4948 C   0  0  0  0  0  0  0  0  0  0  0  0
  155.3141  140.3367  162.4922 O   0  0  0  0  0  0  0  0  0  0  0  0
  154.2520  140.9913  160.4566 C   0  0  0  0  0  0  0  0  0  0  0  0
  153.3569  141.9040  161.0766 O   0  0  0  0  0  0  0  0  0  0  0  0
  153.0998  143.0770  160.3169 C   0  0  0  0  0  0  0  0  0  0  0  0
  152.2458  144.0714  161.1311 C   0  0  0  0  0  0  0  0  0  0  0  0
  151.8426  145.2887  160.2826 C   0  0  0  0  0  0  0  0  0  0  0  0
  151.1178  144.8602  158.9965 C   0  0  0  0  0  0  0  0  0  0  0  0
  151.9652  143.8668  158.1861 C   0  0  0  0  0  0  0  0  0  0  0  0
  152.3576  142.6495  159.0387 C   0  0  0  0  0  0  0  0  0  0  0  0
  154.9712  136.3332  161.4485 N   0  0  0  0  0  0  0  0  0  0  0  0
  155.2129  135.2818  162.2598 C   0  0  0  0  0  0  0  0  0  0  0  0
  154.1973  134.5207  166.2420 H   0  0  0  0  0  0  0  0  0  0  0  0
  155.8909  135.0167  166.4145 H   0  0  0  0  0  0  0  0  0  0  0  0
  155.4558  133.3063  166.4905 H   0  0  0  0  0  0  0  0  0  0  0  0
  154.7011  136.7237  165.3074 H   0  0  0  0  0  0  0  0  0  0  0  0
  154.2573  138.6421  163.8194 H   0  0  0  0  0  0  0  0  0  0  0  0
  153.8289  138.5393  160.3815 H   0  0  0  0  0  0  0  0  0  0  0  0
  155.1327  141.5014  160.0655 H   0  0  0  0  0  0  0  0  0  0  0  0
  153.7606  140.4871  159.6226 H   0  0  0  0  0  0  0  0  0  0  0  0
  154.0402  143.5481  160.0243 H   0  0  0  0  0  0  0  0  0  0  0  0
  151.3483  143.5694  161.4946 H   0  0  0  0  0  0  0  0  0  0  0  0
  152.7874  144.4114  162.0134 H   0  0  0  0  0  0  0  0  0  0  0  0
  151.2029  145.9522  160.8652 H   0  0  0  0  0  0  0  0  0  0  0  0
  152.7327  145.8645  160.0257 H   0  0  0  0  0  0  0  0  0  0  0  0
  150.1618  144.4011  159.2515 H   0  0  0  0  0  0  0  0  0  0  0  0
  150.8881  145.7359  158.3892 H   0  0  0  0  0  0  0  0  0  0  0  0
  151.4144  143.5410  157.3034 H   0  0  0  0  0  0  0  0  0  0  0  0
  152.8653  144.3642  157.8229 H   0  0  0  0  0  0  0  0  0  0  0  0
  152.9837  141.9748  158.4541 H   0  0  0  0  0  0  0  0  0  0  0  0
  151.4611  142.0875  159.3039 H   0  0  0  0  0  0  0  0  0  0  0  0
  155.4760  134.3618  161.7582 H   0  0  0  0  0  0  0  0  0  0  0  0
  1  2  1  0  0  0  0
  1 21  1  0  0  0  0
  1 22  1  0  0  0  0
  1 23  1  0  0  0  0
  2  3  2  0  0  0  0
  2  4  1  0  0  0  0
  4 20  1  0  0  0  0
  4  5  2  0  0  0  0
  5  6  1  0  0  0  0
  5 24  1  0  0  0  0
  6  7  2  0  0  0  0
  6 25  1  0  0  0  0
  7  8  1  0  0  0  0
  7 19  1  0  0  0  0
  8  9  1  0  0  0  0
  8 26  1  0  0  0  0
  9 10  2  0  0  0  0
  9 11  1  0  0  0  0
 11 12  1  0  0  0  0
 11 27  1  0  0  0  0
 11 28  1  0  0  0  0
 12 13  1  0  0  0  0
 13 18  1  0  0  0  0
 13 14  1  0  0  0  0
 13 29  1  0  0  0  0
 14 15  1  0  0  0  0
 14 30  1  0  0  0  0
 14 31  1  0  0  0  0
 15 16  1  0  0  0  0
 15 32  1  0  0  0  0
 15 33  1  0  0  0  0
 16 17  1  0  0  0  0
 16 34  1  0  0  0  0
 16 35  1  0  0  0  0
 17 18  1  0  0  0  0
 17 36  1  0  0  0  0
 17 37  1  0  0  0  0
 18 38  1  0  0  0  0
 18 39  1  0  0  0  0
 19 20  2  0  0  0  0
 20 40  1  0  0  0  0
M  END
> <s_m_source_file>
AV-unprocessed.smi

> <i_m_source_file_index>
2903

> <i_lp_mmshare_version>
43012

> <i_f3d_flags>
0

> <s_epik_input>
W0NIM11DKD1PKWMxW2NIXVtjSF1jKG5bY0hdMSlbTkhdQyg9TylbQ0gyXU9bQ0hdMltDSDJdW0NIMl1bQ0gyXVtDSDJdW0NIMl0y

> <s_epik_cmdline>
J2VwaWtfcHl0aG9uJywgJy1waCcsICc3LjAnLCAnLXRuJywgJzgnLCAnLW1hJywgJzIwMCcsICctbWV0YWxfYmluZGluZycsICctaW1hZScsICc8aW5maWxlLm1hZT4nLCAnLW9tYWUnLCAnPG91dGZpbGUubWFlPic=

> <r_lp_tautomer_probability>
1

> <r_epik_Ionization_Penalty>
3.51143e-05

> <r_epik_Ionization_Penalty_Charging>
0

> <r_epik_Ionization_Penalty_Neutral>
3.51143e-05

> <r_epik_State_Penalty>
-0

> <r_epik_Charging_Adjusted_Penalty>
0

> <i_epik_Tot_Q>
0

> <i_epik_Tot_abs_Q>
0

> <r_epik_Metal_State_Penalty>
-0

> <b_epik_Metal_Only>
0

> <s_lp_Force_Field>
OPLS_2005

> <r_lp_Energy>
19.6274

> <b_lp_Chiralities_Consistent>
1

> <s_lp_Variant>
AV-unprocessed.smi:2903-1

> <Gold.Version>
5.8.1

> <Gold.Id.Protein>
6NUR|6NUR_protein|mol2

> <Gold.PLP.Fitness>
47.5974

> <Gold.PLP.PLP>
-48.3409

> <Gold.PLP.part.hbond>
0.0000

> <Gold.PLP.part.metal>
0.0000

> <Gold.PLP.part.buried>
-5.9701

> <Gold.PLP.part.nonpolar>
-42.5633

> <Gold.PLP.part.repulsive>
0.0091

> <Gold.PLP.ligand.clash>
0.0000

> <Gold.PLP.ligand.torsion>
0.3808

> <Gold.PLP.Chemscore.Hbond>
0.0000

> <Gold.PLP.Chemscore.CHOScore>
0.0000

> <Gold.PLP.Chemscore.Metal>
0.0000

> <Gold.PLP.Chemscore.Internal.Correction>
0.0180

> <Gold.Rescore>
     Score         DG    S(hbond)    S(metal)    S(lipo)     H(rot)  DE(clash)    DE(int)     intcor
     14.37     -16.11       0.00        0.00     122.04       1.43       0.13       1.60       ----

> <Gold.Chemscore.Fitness>
14.3690

> <Gold.Chemscore.DG>
-16.1070

> <Gold.Chemscore.ZeroCoef>
-5.4800

> <Gold.Chemscore.Hbond>
0.0000

> <Gold.Chemscore.Metal>
0.0000

> <Gold.Chemscore.Lipo>
122.0389

> <Gold.Chemscore.Internal_Hbond>
0.0000

> <Gold.Chemscore.DEClash>
0.1337

> <Gold.Chemscore.DEInternal>
1.6043

> <Gold.Chemscore.Rot>
1.4264

> <Gold.Chemscore.Internal.Correction>
   9.000000E+99

> <Gold.Chemscore.Hbond.Weighted>
-0.0000

> <Gold.Chemscore.Metal.Weighted>
-0.0000

> <Gold.Chemscore.Lipo.Weighted>
-14.2786

> <Gold.Chemscore.Internal_Hbond.Weighted>
0.0000

> <Gold.Chemscore.DEClash.Weighted>
0.1337

> <Gold.Chemscore.DEInternal.Weighted>
1.6043

> <Gold.Chemscore.Rot.Weighted>
3.6516

> <Gold.Chemscore.Internal.Correction.Weighted>
   9.000000E+99

> <Gold.Protein.RotatedTorsions>
[ 6907 6896 6895 6894 ] final   -3.43 input  -60.11 | X-H torsion
[ 7974 7965 7964 7962 ] final  -94.93 input  175.53 | X-H torsion
[ 8008 7997 7996 7995 ] final  160.82 input   59.86 | X-H torsion
[ 10167 10162 10161 10158 ] final   68.40 input  -65.29 | X-H torsion
[ 10718 10713 10712 10709 ] final  161.69 input   66.30 | X-H torsion
[ 10763 10752 10751 10750 ] final  154.98 input  -60.55 | X-H torsion
[ 11005 11000 10999 10996 ] final  135.30 input  -57.11 | X-H torsion

> <Gold.Protein.ActiveResidues>
 VAL166  LYS551  ARG553  GLY616  TRP617  ASP618  TYR619  PRO620  LYS621  CYS622 
 ASP623  PHE694  ASN695  SER759  ASP760  ASP761  ALA762  ILE779  LEU786  VAL792 
 PHE793  MET794  SER795  GLU796  ALA797  LYS798  CYS799  TRP800  GLU811  SER814 

> <Gold.Protein.RotatedAtoms>
  151.5138  135.1065  159.9860 H   0  0  0  0  0  0  0  0  0  0  0  0  # atno 6907 bound_to 6896
  152.4650  133.7899  159.6907 H   0  0  0  0  0  0  0  0  0  0  0  0  # atno 6908 bound_to 6896
  150.8629  133.7553  159.3012 H   0  0  0  0  0  0  0  0  0  0  0  0  # atno 6909 bound_to 6896
  145.3668  140.9500  143.2470 H   0  0  0  0  0  0  0  0  0  0  0  0  # atno 7974 bound_to 7965
  156.2146  140.1794  156.7618 H   0  0  0  0  0  0  0  0  0  0  0  0  # atno 8008 bound_to 7997
  154.5772  140.0672  156.9081 H   0  0  0  0  0  0  0  0  0  0  0  0  # atno 8009 bound_to 7997
  155.2567  140.3333  155.4279 H   0  0  0  0  0  0  0  0  0  0  0  0  # atno 8010 bound_to 7997
  140.0791  144.5086  150.7174 H   0  0  0  0  0  0  0  0  0  0  0  0  # atno 10167 bound_to 10162
  157.1330  131.0521  151.2362 H   0  0  0  0  0  0  0  0  0  0  0  0  # atno 10718 bound_to 10713
  154.1610  135.2809  155.3108 H   0  0  0  0  0  0  0  0  0  0  0  0  # atno 10763 bound_to 10752
  154.6146  135.5487  153.7513 H   0  0  0  0  0  0  0  0  0  0  0  0  # atno 10764 bound_to 10752
  153.0192  135.6424  154.1752 H   0  0  0  0  0  0  0  0  0  0  0  0  # atno 10765 bound_to 10752
  139.9971  134.9493  156.9988 H   0  0  0  0  0  0  0  0  0  0  0  0  # atno 11005 bound_to 11000
  144.8606  139.5183  143.6814 LP  0  0  0  0  0  0  0  0  0  0  0  0  # atno 17320 bound_to 7965
  146.2903  139.7120  142.9166 LP  0  0  0  0  0  0  0  0  0  0  0  0  # atno 17321 bound_to 7965
  140.7087  143.2488  151.4648 LP  0  0  0  0  0  0  0  0  0  0  0  0  # atno 17342 bound_to 10162
  139.5790  144.1753  152.1943 LP  0  0  0  0  0  0  0  0  0  0  0  0  # atno 17343 bound_to 10162
  157.4375  130.7525  149.7041 LP  0  0  0  0  0  0  0  0  0  0  0  0  # atno 17370 bound_to 10713
  155.9804  130.4030  150.3531 LP  0  0  0  0  0  0  0  0  0  0  0  0  # atno 17371 bound_to 10713
  140.4798  134.1301  155.7215 LP  0  0  0  0  0  0  0  0  0  0  0  0  # atno 17394 bound_to 11000
  141.1613  133.8788  157.1841 LP  0  0  0  0  0  0  0  0  0  0  0  0  # atno 17395 bound_to 11000

$$$$
