AV-unprocessed.smi:227|AV-procd|sdf|1742|dock7
  -GOLD-   2262020253D 1   1.00000     0.00000
 Structure written by MMmdl.
 54 58  0  0  0  0  0  0  0  0  1 V2000
  151.8358  131.4615  158.4319 O   0  0  0  0  0  0  0  0  0  0  0  0
  152.1870  131.5580  157.0663 C   0  0  0  0  0  0  0  0  0  0  0  0
  150.9566  131.3749  156.1400 C   0  0  1  0  0  0  0  0  0  0  0  0
  150.7742  132.5645  155.1605 C   0  0  0  0  0  0  0  0  0  0  0  0
  149.5508  132.4994  154.3812 N   0  0  0  0  0  0  0  0  0  0  0  0
  149.1890  131.5017  153.5078 C   0  0  0  0  0  0  0  0  0  0  0  0
  148.0325  131.6672  152.9276 N   0  0  0  0  0  0  0  0  0  0  0  0
  147.5517  132.8671  153.4421 C   0  0  0  0  0  0  0  0  0  0  0  0
  146.3605  133.6331  153.2624 C   0  0  0  0  0  0  0  0  0  0  0  0
  145.3260  133.2944  152.4428 N   0  0  0  0  0  0  0  0  0  0  0  0
  144.0810  134.0491  152.4222 C   0  0  1  0  0  0  0  0  0  0  0  0
  144.4515  135.3583  151.6976 C   0  0  0  0  0  0  0  0  0  0  0  0
  145.4932  134.8533  150.6877 C   0  0  0  0  0  0  0  0  0  0  0  0
  145.5104  133.3383  150.9977 C   0  0  2  0  0  0  0  0  0  0  0  0
  144.2245  132.6372  150.5051 C   0  0  2  0  0  0  0  0  0  0  0  0
  143.8539  132.7986  149.0188 C   0  0  0  0  0  0  0  0  0  0  0  0
  142.6226  132.1639  148.7479 O   0  0  0  0  0  0  0  0  0  0  0  0
  143.1899  133.2040  151.4929 C   0  0  0  0  0  0  0  0  0  0  0  0
  146.2661  134.8010  153.9520 N   0  0  0  0  0  0  0  0  0  0  0  0
  147.2452  135.1902  154.7723 C   0  0  0  0  0  0  0  0  0  0  0  0
  148.3960  134.5759  155.0454 N   0  0  0  0  0  0  0  0  0  0  0  0
  148.5081  133.4086  154.3501 C   0  0  0  0  0  0  0  0  0  0  0  0
  151.0439  130.0370  155.3603 C   0  0  1  0  0  0  0  0  0  0  0  0
  152.3317  129.8445  154.5579 C   0  0  0  0  0  0  0  0  0  0  0  0
  152.6714  128.3580  154.7028 C   0  0  0  0  0  0  0  0  0  0  0  0
  151.5618  127.7835  155.3745 O   0  0  0  0  0  0  0  0  0  0  0  0
  151.0304  128.7777  156.2315 C   0  0  0  0  0  0  0  0  0  0  0  0
  151.4361  130.6180  158.5808 H   0  0  0  0  0  0  0  0  0  0  0  0
  152.6737  132.5157  156.8792 H   0  0  0  0  0  0  0  0  0  0  0  0
  152.9387  130.7902  156.8880 H   0  0  0  0  0  0  0  0  0  0  0  0
  150.0667  131.3193  156.7698 H   0  0  0  0  0  0  0  0  0  0  0  0
  150.7869  133.5073  155.7089 H   0  0  0  0  0  0  0  0  0  0  0  0
  151.6019  132.6115  154.4530 H   0  0  0  0  0  0  0  0  0  0  0  0
  149.8123  130.6402  153.3172 H   0  0  0  0  0  0  0  0  0  0  0  0
  143.6066  134.2051  153.3893 H   0  0  0  0  0  0  0  0  0  0  0  0
  143.5935  135.8335  151.2209 H   0  0  0  0  0  0  0  0  0  0  0  0
  144.8982  136.0779  152.3851 H   0  0  0  0  0  0  0  0  0  0  0  0
  145.2458  135.0925  149.6548 H   0  0  0  0  0  0  0  0  0  0  0  0
  146.4666  135.2988  150.8971 H   0  0  0  0  0  0  0  0  0  0  0  0
  146.4106  132.8393  150.6373 H   0  0  0  0  0  0  0  0  0  0  0  0
  144.3314  131.5695  150.7071 H   0  0  0  0  0  0  0  0  0  0  0  0
  143.7548  133.8568  148.7765 H   0  0  0  0  0  0  0  0  0  0  0  0
  144.6239  132.4014  148.3585 H   0  0  0  0  0  0  0  0  0  0  0  0
  141.9227  132.7560  148.9773 H   0  0  0  0  0  0  0  0  0  0  0  0
  142.7046  132.3961  152.0418 H   0  0  0  0  0  0  0  0  0  0  0  0
  142.4112  133.7977  151.0123 H   0  0  0  0  0  0  0  0  0  0  0  0
  147.0822  136.1277  155.2833 H   0  0  0  0  0  0  0  0  0  0  0  0
  150.2016  129.9708  154.6694 H   0  0  0  0  0  0  0  0  0  0  0  0
  152.1852  130.1214  153.5133 H   0  0  0  0  0  0  0  0  0  0  0  0
  153.1499  130.4506  154.9492 H   0  0  0  0  0  0  0  0  0  0  0  0
  152.8398  127.8715  153.7418 H   0  0  0  0  0  0  0  0  0  0  0  0
  153.5672  128.2275  155.3116 H   0  0  0  0  0  0  0  0  0  0  0  0
  151.6739  128.8899  157.1058 H   0  0  0  0  0  0  0  0  0  0  0  0
  150.0304  128.5063  156.5700 H   0  0  0  0  0  0  0  0  0  0  0  0
  1  2  1  0  0  0  0
  1 28  1  0  0  0  0
  2  3  1  0  0  0  0
  2 29  1  0  0  0  0
  2 30  1  0  0  0  0
  3  4  1  0  0  0  0
  3 23  1  0  0  0  0
  3 31  1  0  0  0  0
  4  5  1  0  0  0  0
  4 32  1  0  0  0  0
  4 33  1  0  0  0  0
  5 22  1  0  0  0  0
  5  6  1  0  0  0  0
  6  7  2  0  0  0  0
  6 34  1  0  0  0  0
  7  8  1  0  0  0  0
  8 22  2  0  0  0  0
  8  9  1  0  0  0  0
  9 10  1  0  0  0  0
  9 19  2  0  0  0  0
 10 14  1  0  0  0  0
 10 11  1  0  0  0  0
 11 18  1  0  0  0  0
 11 12  1  0  0  0  0
 11 35  1  0  0  0  0
 12 13  1  0  0  0  0
 12 36  1  0  0  0  0
 12 37  1  0  0  0  0
 13 14  1  0  0  0  0
 13 38  1  0  0  0  0
 13 39  1  0  0  0  0
 14 15  1  0  0  0  0
 14 40  1  0  0  0  0
 15 16  1  0  0  0  0
 15 18  1  0  0  0  0
 15 41  1  0  0  0  0
 16 17  1  0  0  0  0
 16 42  1  0  0  0  0
 16 43  1  0  0  0  0
 17 44  1  0  0  0  0
 18 45  1  0  0  0  0
 18 46  1  0  0  0  0
 19 20  1  0  0  0  0
 20 21  2  0  0  0  0
 20 47  1  0  0  0  0
 21 22  1  0  0  0  0
 23 27  1  0  0  0  0
 23 24  1  0  0  0  0
 23 48  1  0  0  0  0
 24 25  1  0  0  0  0
 24 49  1  0  0  0  0
 24 50  1  0  0  0  0
 25 26  1  0  0  0  0
 25 51  1  0  0  0  0
 25 52  1  0  0  0  0
 26 27  1  0  0  0  0
 27 53  1  0  0  0  0
 27 54  1  0  0  0  0
M  END
> <s_m_source_file>
AV-unprocessed.smi

> <i_m_source_file_index>
227

> <i_lp_mmshare_version>
43012

> <i_f3d_flags>
0

> <s_epik_input>
W0NIMl0xT1tDSDJdW0NIMl1bQ0BIXTFbQ0BIXShbQ0gyXVtPSF0pW0NIMl1uKFtjSF1uMiljKGMyMyluW2NIXW5jM04oW0NASF00NSlbQ0BASF0oW0NIMl1bQ0gyXTQpW0NASF0oW0NIMl01KVtDSDJdW09IXQ==

> <s_epik_cmdline>
J2VwaWtfcHl0aG9uJywgJy1waCcsICc3LjAnLCAnLXRuJywgJzgnLCAnLW1hJywgJzIwMCcsICctbWV0YWxfYmluZGluZycsICctaW1hZScsICc8aW5maWxlLm1hZT4nLCAnLW9tYWUnLCAnPG91dGZpbGUubWFlPic=

> <r_lp_tautomer_probability>
1

> <r_epik_Ionization_Penalty>
0.0055791

> <r_epik_Ionization_Penalty_Charging>
0

> <r_epik_Ionization_Penalty_Neutral>
0.0055791

> <r_epik_State_Penalty>
0.00401299

> <r_epik_Charging_Adjusted_Penalty>
0.00401299

> <i_epik_Tot_Q>
0

> <i_epik_Tot_abs_Q>
0

> <r_epik_Metal_State_Penalty>
-0

> <b_epik_Metal_Only>
0

> <s_lp_Force_Field>
OPLS_2005

> <r_lp_Energy>
88.534

> <b_lp_Chiralities_Consistent>
1

> <s_lp_Variant>
AV-unprocessed.smi:227-16

> <Gold.Version>
5.8.1

> <Gold.Id.Protein>
6NUR|6NUR_protein|mol2

> <Gold.PLP.Fitness>
49.6427

> <Gold.PLP.PLP>
-42.4116

> <Gold.PLP.part.hbond>
-4.0000

> <Gold.PLP.part.metal>
0.0000

> <Gold.PLP.part.buried>
-5.3780

> <Gold.PLP.part.nonpolar>
-33.7215

> <Gold.PLP.part.repulsive>
1.1371

> <Gold.PLP.ligand.clash>
0.0000

> <Gold.PLP.ligand.torsion>
0.9397

> <Gold.PLP.Chemscore.Hbond>
3.0000

> <Gold.PLP.Chemscore.CHOScore>
0.0000

> <Gold.PLP.Chemscore.Metal>
0.0000

> <Gold.Chemscore.Hbonds>
donor molecule, donor type, donor heavy atom, donor atom, acceptor molecule, acceptor atom, score
      L1  H    17    44       P1 10186  1.00
      P1  H  6896  6909       L1     1  0.99
      P1  H 10785 10796       L1    17  0.84

> <Gold.PLP.Chemscore.Internal.Correction>
0.1106

> <Gold.Rescore>
     Score         DG    S(hbond)    S(metal)    S(lipo)     H(rot)  DE(clash)    DE(int)     intcor
     11.78     -14.07       2.41        0.00      83.59       3.61       0.06       2.23       ----

> <Gold.Chemscore.Fitness>
11.7805

> <Gold.Chemscore.DG>
-14.0723

> <Gold.Chemscore.ZeroCoef>
-5.4800

> <Gold.Chemscore.Hbond>
2.4090

> <Gold.Chemscore.Metal>
0.0000

> <Gold.Chemscore.Lipo>
83.5920

> <Gold.Chemscore.Internal_Hbond>
0.0000

> <Gold.Chemscore.DEClash>
0.0582

> <Gold.Chemscore.DEInternal>
2.2336

> <Gold.Chemscore.Rot>
3.6071

> <Gold.Chemscore.Internal.Correction>
   9.000000E+99

> <Gold.Chemscore.Hbonds>
donor molecule, donor type, donor heavy atom, donor atom, acceptor molecule, acceptor atom, score
      L1  H    17    44       P1 10186  0.98
      P1  H  6896  6909       L1     1  0.75
      P1  H 10785 10796       L1    17  0.28

> <Gold.Chemscore.Hbond.Weighted>
-8.0462

> <Gold.Chemscore.Metal.Weighted>
-0.0000

> <Gold.Chemscore.Lipo.Weighted>
-9.7803

> <Gold.Chemscore.Internal_Hbond.Weighted>
0.0000

> <Gold.Chemscore.DEClash.Weighted>
0.0582

> <Gold.Chemscore.DEInternal.Weighted>
2.2336

> <Gold.Chemscore.Rot.Weighted>
9.2342

> <Gold.Chemscore.Internal.Correction.Weighted>
   9.000000E+99

> <Gold.Protein.RotatedTorsions>
[ 6907 6896 6895 6894 ] final  -72.93 input  -60.11 | X-H torsion
[ 7974 7965 7964 7962 ] final   49.92 input  175.53 | X-H torsion
[ 8008 7997 7996 7995 ] final -138.15 input   59.86 | X-H torsion
[ 10167 10162 10161 10158 ] final   39.58 input  -65.29 | X-H torsion
[ 10718 10713 10712 10709 ] final -102.77 input   66.30 | X-H torsion
[ 10763 10752 10751 10750 ] final  122.90 input  -60.55 | X-H torsion
[ 11005 11000 10999 10996 ] final   -3.28 input  -57.11 | X-H torsion

> <Gold.Protein.ActiveResidues>
 VAL166  LYS551  ARG553  GLY616  TRP617  ASP618  TYR619  PRO620  LYS621  CYS622 
 ASP623  PHE694  ASN695  SER759  ASP760  ASP761  ALA762  ILE779  LEU786  VAL792 
 PHE793  MET794  SER795  GLU796  ALA797  LYS798  CYS799  TRP800  GLU811  SER814 

> <Gold.Protein.RotatedAtoms>
  150.7150  134.5090  159.5597 H   0  0  0  0  0  0  0  0  0  0  0  0  # atno 6907 bound_to 6896
  152.2671  134.7970  160.0430 H   0  0  0  0  0  0  0  0  0  0  0  0  # atno 6908 bound_to 6896
  151.8663  133.3431  159.3757 H   0  0  0  0  0  0  0  0  0  0  0  0  # atno 6909 bound_to 6896
  146.0062  139.4493  142.9984 H   0  0  0  0  0  0  0  0  0  0  0  0  # atno 7974 bound_to 7965
  155.4237  140.0520  157.3024 H   0  0  0  0  0  0  0  0  0  0  0  0  # atno 8008 bound_to 7997
  154.4891  140.2113  155.9547 H   0  0  0  0  0  0  0  0  0  0  0  0  # atno 8009 bound_to 7997
  156.1317  140.3170  155.8364 H   0  0  0  0  0  0  0  0  0  0  0  0  # atno 8010 bound_to 7997
  140.3826  144.1959  150.6130 H   0  0  0  0  0  0  0  0  0  0  0  0  # atno 10167 bound_to 10162
  156.0240  130.5435  150.7156 H   0  0  0  0  0  0  0  0  0  0  0  0  # atno 10718 bound_to 10713
  153.6370  135.3386  155.3059 H   0  0  0  0  0  0  0  0  0  0  0  0  # atno 10763 bound_to 10752
  154.8568  135.4309  154.2045 H   0  0  0  0  0  0  0  0  0  0  0  0  # atno 10764 bound_to 10752
  153.2955  135.7020  153.7326 H   0  0  0  0  0  0  0  0  0  0  0  0  # atno 10765 bound_to 10752
  140.6676  133.9265  155.8475 H   0  0  0  0  0  0  0  0  0  0  0  0  # atno 11005 bound_to 11000
  145.7412  141.0007  143.1300 LP  0  0  0  0  0  0  0  0  0  0  0  0  # atno 17320 bound_to 7965
  144.6936  139.9101  143.7463 LP  0  0  0  0  0  0  0  0  0  0  0  0  # atno 17321 bound_to 7965
  140.4922  143.2344  151.8802 LP  0  0  0  0  0  0  0  0  0  0  0  0  # atno 17342 bound_to 10162
  139.4794  144.5153  151.8876 LP  0  0  0  0  0  0  0  0  0  0  0  0  # atno 17343 bound_to 10162
  157.4784  131.0900  151.0564 LP  0  0  0  0  0  0  0  0  0  0  0  0  # atno 17370 bound_to 10713
  157.1005  130.5980  149.5459 LP  0  0  0  0  0  0  0  0  0  0  0  0  # atno 17371 bound_to 10713
  141.0417  134.0612  157.3894 LP  0  0  0  0  0  0  0  0  0  0  0  0  # atno 17394 bound_to 11000
  139.8992  135.0157  156.7184 LP  0  0  0  0  0  0  0  0  0  0  0  0  # atno 17395 bound_to 11000

$$$$
