AV-unprocessed.smi:3181|AV-procd|sdf|12144|dock3
  -GOLD-   2272017583D 1   1.00000     0.00000
 Structure written by MMmdl.
 42 43  0  0  0  0  0  0  0  0  2 V2000
  148.1641  142.5236  158.0154 C   0  0  0  0  0  0  0  0  0  0  0  0
  148.5560  141.7067  156.7732 C   0  0  1  0  0  0  0  0  0  0  0  0
  147.4212  141.6462  155.7276 C   0  0  0  0  0  0  0  0  0  0  0  0
  147.5934  140.5702  154.7696 N   0  0  0  0  0  0  0  0  0  0  0  0
  146.8502  140.2108  153.7214 C   0  0  0  0  0  0  0  0  0  0  0  0
  147.3285  139.1663  153.0602 N   0  0  0  0  0  0  0  0  0  0  0  0
  148.4503  138.9206  153.8007 C   0  0  0  0  0  0  0  0  0  0  0  0
  148.6573  139.7362  154.8349 N   0  0  0  0  0  0  0  0  0  0  0  0
  149.7777  142.2840  156.1675 N   0  3  0  0  0  0  0  0  0  0  0  0
  150.9906  142.2875  157.0182 C   0  0  2  0  0  0  0  0  0  0  0  0
  151.0768  140.9663  157.7977 C   0  0  0  0  0  0  0  0  0  0  0  0
  152.3197  140.9323  158.6964 C   0  0  0  0  0  0  0  0  0  0  0  0
  152.3486  142.1154  159.6846 C   0  0  1  0  0  0  0  0  0  0  0  0
  153.6023  142.0232  160.5725 C   0  0  0  0  0  0  0  0  0  0  0  0
  152.2441  143.4631  158.9226 C   0  0  2  0  0  0  0  0  0  0  0  0
  152.2073  144.6819  159.8622 C   0  0  0  0  0  0  0  0  0  0  0  0
  151.0084  143.4784  157.9980 C   0  0  0  0  0  0  0  0  0  0  0  0
  147.3165  142.0781  158.5369 H   0  0  0  0  0  0  0  0  0  0  0  0
  147.8909  143.5452  157.7495 H   0  0  0  0  0  0  0  0  0  0  0  0
  148.9889  142.5738  158.7271 H   0  0  0  0  0  0  0  0  0  0  0  0
  148.7750  140.6931  157.1131 H   0  0  0  0  0  0  0  0  0  0  0  0
  146.4591  141.5124  156.2241 H   0  0  0  0  0  0  0  0  0  0  0  0
  147.3535  142.5816  155.1716 H   0  0  0  0  0  0  0  0  0  0  0  0
  145.9403  140.7198  153.4379 H   0  0  0  0  0  0  0  0  0  0  0  0
  149.1353  138.1180  153.5697 H   0  0  0  0  0  0  0  0  0  0  0  0
  149.9774  141.8050  155.3010 H   0  0  0  0  0  0  0  0  0  0  0  0
  151.8613  142.3499  156.3631 H   0  0  0  0  0  0  0  0  0  0  0  0
  150.1830  140.8346  158.4095 H   0  0  0  0  0  0  0  0  0  0  0  0
  151.1051  140.1239  157.1054 H   0  0  0  0  0  0  0  0  0  0  0  0
  152.3421  139.9890  159.2437 H   0  0  0  0  0  0  0  0  0  0  0  0
  153.2168  140.9473  158.0758 H   0  0  0  0  0  0  0  0  0  0  0  0
  151.4782  142.0245  160.3364 H   0  0  0  0  0  0  0  0  0  0  0  0
  154.5122  142.1846  159.9935 H   0  0  0  0  0  0  0  0  0  0  0  0
  153.6788  141.0415  161.0407 H   0  0  0  0  0  0  0  0  0  0  0  0
  153.5827  142.7561  161.3787 H   0  0  0  0  0  0  0  0  0  0  0  0
  153.1288  143.5638  158.2920 H   0  0  0  0  0  0  0  0  0  0  0  0
  151.3830  144.6112  160.5725 H   0  0  0  0  0  0  0  0  0  0  0  0
  152.0802  145.6068  159.2988 H   0  0  0  0  0  0  0  0  0  0  0  0
  153.1318  144.7849  160.4298 H   0  0  0  0  0  0  0  0  0  0  0  0
  151.0004  144.4161  157.4418 H   0  0  0  0  0  0  0  0  0  0  0  0
  150.0997  143.4698  158.6022 H   0  0  0  0  0  0  0  0  0  0  0  0
  149.5705  143.2491  155.9524 H   0  0  0  0  0  0  0  0  0  0  0  0
  1  2  1  0  0  0  0
  1 18  1  0  0  0  0
  1 19  1  0  0  0  0
  1 20  1  0  0  0  0
  2  3  1  0  0  0  0
  2  9  1  0  0  0  0
  2 21  1  0  0  0  0
  3  4  1  0  0  0  0
  3 22  1  0  0  0  0
  3 23  1  0  0  0  0
  4  8  1  0  0  0  0
  4  5  1  0  0  0  0
  5  6  2  0  0  0  0
  5 24  1  0  0  0  0
  6  7  1  0  0  0  0
  7  8  2  0  0  0  0
  7 25  1  0  0  0  0
  9 10  1  0  0  0  0
  9 26  1  0  0  0  0
  9 42  1  0  0  0  0
 10 17  1  0  0  0  0
 10 11  1  0  0  0  0
 10 27  1  0  0  0  0
 11 12  1  0  0  0  0
 11 28  1  0  0  0  0
 11 29  1  0  0  0  0
 12 13  1  0  0  0  0
 12 30  1  0  0  0  0
 12 31  1  0  0  0  0
 13 14  1  0  0  0  0
 13 15  1  0  0  0  0
 13 32  1  0  0  0  0
 14 33  1  0  0  0  0
 14 34  1  0  0  0  0
 14 35  1  0  0  0  0
 15 16  1  0  0  0  0
 15 17  1  0  0  0  0
 15 36  1  0  0  0  0
 16 37  1  0  0  0  0
 16 38  1  0  0  0  0
 16 39  1  0  0  0  0
 17 40  1  0  0  0  0
 17 41  1  0  0  0  0
M  CHG  1   9   1
M  END
> <s_m_source_file>
AV-unprocessed.smi

> <i_m_source_file_index>
3181

> <i_lp_mmshare_version>
43012

> <i_f3d_flags>
0

> <s_epik_input>
bjFbY0hdbltjSF1uMVtDSDJdW0NAQEhdKFtDSDNdKVtOSF1bQ0BASF0yW0NIMl1bQ0gyXVtDQEBIXShbQ0gzXSlbQ0BASF0oW0NIM10pW0NIMl0y

> <s_epik_cmdline>
J2VwaWtfcHl0aG9uJywgJy1waCcsICc3LjAnLCAnLXRuJywgJzgnLCAnLW1hJywgJzIwMCcsICctbWV0YWxfYmluZGluZycsICctaW1hZScsICc8aW5maWxlLm1hZT4nLCAnLW9tYWUnLCAnPG91dGZpbGUubWFlPic=

> <r_lp_tautomer_probability>
1

> <r_epik_Ionization_Penalty>
0.000617007

> <r_epik_Ionization_Penalty_Charging>
0.000616215

> <r_epik_Ionization_Penalty_Neutral>
7.92544e-07

> <r_epik_State_Penalty>
0.000388807

> <r_epik_Charging_Adjusted_Penalty>
0.00100502

> <i_epik_Tot_Q>
1

> <i_epik_Tot_abs_Q>
1

> <r_epik_Metal_State_Penalty>
-0

> <b_epik_Metal_Only>
0

> <s_lp_Force_Field>
OPLS_2005

> <r_lp_Energy>
19.3641

> <b_lp_Chiralities_Consistent>
1

> <s_lp_Variant>
AV-unprocessed.smi:3181-10

> <Gold.Version>
5.8.1

> <Gold.Id.Protein>
6NUR|6NUR_protein|mol2

> <Gold.PLP.Fitness>
43.7722

> <Gold.PLP.PLP>
-32.4517

> <Gold.PLP.part.hbond>
-1.0000

> <Gold.PLP.part.metal>
0.0000

> <Gold.PLP.part.buried>
-3.7120

> <Gold.PLP.part.nonpolar>
-28.5009

> <Gold.PLP.part.repulsive>
0.7550

> <Gold.PLP.ligand.clash>
0.0000

> <Gold.PLP.ligand.torsion>
0.3485

> <Gold.PLP.Chemscore.Hbond>
2.0000

> <Gold.PLP.Chemscore.CHOScore>
2.0000

> <Gold.PLP.Chemscore.Metal>
0.0000

> <Gold.Chemscore.Hbonds>
donor molecule, donor type, donor heavy atom, donor atom, acceptor molecule, acceptor atom, score
      L1  H     9    42       P1  8028  2.00
      L1  C     5    24       P1 10175  1.00
      L1  C     7    25       P1  7948  1.00

> <Gold.PLP.Chemscore.Internal.Correction>
0.0175

> <Gold.Rescore>
     Score         DG    S(hbond)    S(metal)    S(lipo)     H(rot)  DE(clash)    DE(int)     intcor
     13.60     -14.10       1.00        0.00      91.31       2.11       0.01       0.49       ----

> <Gold.Chemscore.Fitness>
13.5982

> <Gold.Chemscore.DG>
-14.0995

> <Gold.Chemscore.ZeroCoef>
-5.4800

> <Gold.Chemscore.Hbond>
0.9988

> <Gold.Chemscore.Metal>
0.0000

> <Gold.Chemscore.Lipo>
91.3143

> <Gold.Chemscore.Internal_Hbond>
0.0000

> <Gold.Chemscore.DEClash>
0.0130

> <Gold.Chemscore.DEInternal>
0.4883

> <Gold.Chemscore.Rot>
2.1095

> <Gold.Chemscore.Internal.Correction>
   9.000000E+99

> <Gold.Chemscore.Hbonds>
donor molecule, donor type, donor heavy atom, donor atom, acceptor molecule, acceptor atom, score
      L1  H     9    42       P1  8028  1.00

> <Gold.Chemscore.Hbond.Weighted>
-3.3361

> <Gold.Chemscore.Metal.Weighted>
-0.0000

> <Gold.Chemscore.Lipo.Weighted>
-10.6838

> <Gold.Chemscore.Internal_Hbond.Weighted>
0.0000

> <Gold.Chemscore.DEClash.Weighted>
0.0130

> <Gold.Chemscore.DEInternal.Weighted>
0.4883

> <Gold.Chemscore.Rot.Weighted>
5.4003

> <Gold.Chemscore.Internal.Correction.Weighted>
   9.000000E+99

> <Gold.Protein.RotatedTorsions>
[ 6907 6896 6895 6894 ] final  -16.95 input  -60.11 | X-H torsion
[ 7974 7965 7964 7962 ] final   59.68 input  175.53 | X-H torsion
[ 8008 7997 7996 7995 ] final  163.12 input   59.86 | X-H torsion
[ 10167 10162 10161 10158 ] final  111.58 input  -65.29 | X-H torsion
[ 10718 10713 10712 10709 ] final   64.49 input   66.30 | X-H torsion
[ 10763 10752 10751 10750 ] final  -98.66 input  -60.55 | X-H torsion
[ 11005 11000 10999 10996 ] final   35.85 input  -57.11 | X-H torsion

> <Gold.Protein.ActiveResidues>
 VAL166  LYS551  ARG553  GLY616  TRP617  ASP618  TYR619  PRO620  LYS621  CYS622 
 ASP623  PHE694  ASN695  SER759  ASP760  ASP761  ALA762  ILE779  LEU786  VAL792 
 PHE793  MET794  SER795  GLU796  ALA797  LYS798  CYS799  TRP800  GLU811  SER814 

> <Gold.Protein.RotatedAtoms>
  151.3008  135.0768  159.9237 H   0  0  0  0  0  0  0  0  0  0  0  0  # atno 6907 bound_to 6896
  152.5298  133.9835  159.7828 H   0  0  0  0  0  0  0  0  0  0  0  0  # atno 6908 bound_to 6896
  151.0122  133.5903  159.2712 H   0  0  0  0  0  0  0  0  0  0  0  0  # atno 6909 bound_to 6896
  145.9045  139.3606  143.0572 H   0  0  0  0  0  0  0  0  0  0  0  0  # atno 7974 bound_to 7965
  156.1981  140.1732  156.7956 H   0  0  0  0  0  0  0  0  0  0  0  0  # atno 8008 bound_to 7997
  154.5556  140.0709  156.8769 H   0  0  0  0  0  0  0  0  0  0  0  0  # atno 8009 bound_to 7997
  155.2946  140.3357  155.4253 H   0  0  0  0  0  0  0  0  0  0  0  0  # atno 8010 bound_to 7997
  139.6601  144.7129  151.1882 H   0  0  0  0  0  0  0  0  0  0  0  0  # atno 10167 bound_to 10162
  157.6043  130.9162  149.9852 H   0  0  0  0  0  0  0  0  0  0  0  0  # atno 10718 bound_to 10713
  154.7433  135.5001  153.9160 H   0  0  0  0  0  0  0  0  0  0  0  0  # atno 10763 bound_to 10752
  153.1066  135.6698  153.9584 H   0  0  0  0  0  0  0  0  0  0  0  0  # atno 10764 bound_to 10752
  153.9355  135.3073  155.3423 H   0  0  0  0  0  0  0  0  0  0  0  0  # atno 10765 bound_to 10752
  140.2385  134.3443  155.7935 H   0  0  0  0  0  0  0  0  0  0  0  0  # atno 11005 bound_to 11000
  145.8749  140.9398  143.0631 LP  0  0  0  0  0  0  0  0  0  0  0  0  # atno 17320 bound_to 7965
  144.6738  140.0704  143.7473 LP  0  0  0  0  0  0  0  0  0  0  0  0  # atno 17321 bound_to 7965
  140.7576  143.6009  150.8701 LP  0  0  0  0  0  0  0  0  0  0  0  0  # atno 17342 bound_to 10162
  139.9665  143.6104  152.2986 LP  0  0  0  0  0  0  0  0  0  0  0  0  # atno 17343 bound_to 10162
  156.1124  130.3649  150.0026 LP  0  0  0  0  0  0  0  0  0  0  0  0  # atno 17370 bound_to 10713
  156.8122  130.9328  151.3644 LP  0  0  0  0  0  0  0  0  0  0  0  0  # atno 17371 bound_to 10713
  141.2212  133.7285  156.8846 LP  0  0  0  0  0  0  0  0  0  0  0  0  # atno 17394 bound_to 11000
  140.1678  134.9121  157.2795 LP  0  0  0  0  0  0  0  0  0  0  0  0  # atno 17395 bound_to 11000

$$$$
