AV-unprocessed.smi:3285|AV-procd|sdf|12587|dock3
  -GOLD-   2272018513D 1   1.00000     0.00000
 Structure written by MMmdl.
 45 46  0  0  0  0  0  0  0  0  2 V2000
  150.7253  135.5668  156.7611 C   0  0  0  0  0  0  0  0  0  0  0  0
  150.6407  134.0797  156.5697 C   0  0  0  0  0  0  0  0  0  0  0  0
  151.1279  133.2719  157.4962 N   0  0  0  0  0  0  0  0  0  0  0  0
  150.8989  131.9734  157.0315 O   0  0  0  0  0  0  0  0  0  0  0  0
  150.2733  132.0513  155.8297 C   0  0  0  0  0  0  0  0  0  0  0  0
  149.9393  130.7592  155.1642 C   0  0  0  0  0  0  0  0  0  0  0  0
  150.0781  133.3587  155.4778 C   0  0  0  0  0  0  0  0  0  0  0  0
  149.4255  133.9117  154.2400 C   0  0  0  0  0  0  0  0  0  0  0  0
  147.9969  133.3782  154.0723 C   0  0  0  0  0  0  0  0  0  0  0  0
  147.1640  134.3284  153.3061 N   0  3  0  0  0  0  0  0  0  0  0  0
  146.1140  133.7122  152.4650 C   0  0  1  0  0  0  0  0  0  0  0  0
  145.4394  134.7942  151.6032 C   0  0  0  0  0  0  0  0  0  0  0  0
  144.3672  134.1989  150.6772 C   0  0  0  0  0  0  0  0  0  0  0  0
  144.9511  133.0871  149.7838 C   0  0  2  0  0  0  0  0  0  0  0  0
  143.9100  132.5450  148.7908 C   0  0  0  0  0  0  0  0  0  0  0  0
  145.6334  131.9794  150.6267 C   0  0  2  0  0  0  0  0  0  0  0  0
  144.6498  131.0750  151.3970 C   0  0  0  0  0  0  0  0  0  0  0  0
  146.6925  132.5970  151.5648 C   0  0  0  0  0  0  0  0  0  0  0  0
  149.7309  136.0051  156.8433 H   0  0  0  0  0  0  0  0  0  0  0  0
  151.2286  136.0403  155.9181 H   0  0  0  0  0  0  0  0  0  0  0  0
  151.2789  135.8287  157.6636 H   0  0  0  0  0  0  0  0  0  0  0  0
  148.9580  130.8066  154.6926 H   0  0  0  0  0  0  0  0  0  0  0  0
  149.9261  129.9399  155.8834 H   0  0  0  0  0  0  0  0  0  0  0  0
  150.6736  130.5222  154.3947 H   0  0  0  0  0  0  0  0  0  0  0  0
  149.4015  135.0015  154.2731 H   0  0  0  0  0  0  0  0  0  0  0  0
  150.0119  133.6574  153.3562 H   0  0  0  0  0  0  0  0  0  0  0  0
  148.0239  132.4149  153.5633 H   0  0  0  0  0  0  0  0  0  0  0  0
  147.5449  133.2132  155.0515 H   0  0  0  0  0  0  0  0  0  0  0  0
  146.7057  134.9300  153.9754 H   0  0  0  0  0  0  0  0  0  0  0  0
  145.3579  133.2907  153.1286 H   0  0  0  0  0  0  0  0  0  0  0  0
  144.9873  135.5536  152.2419 H   0  0  0  0  0  0  0  0  0  0  0  0
  146.1899  135.3068  150.9996 H   0  0  0  0  0  0  0  0  0  0  0  0
  143.5398  133.8103  151.2719 H   0  0  0  0  0  0  0  0  0  0  0  0
  143.9475  134.9911  150.0561 H   0  0  0  0  0  0  0  0  0  0  0  0
  145.7343  133.5472  149.1788 H   0  0  0  0  0  0  0  0  0  0  0  0
  143.0356  132.1407  149.3008 H   0  0  0  0  0  0  0  0  0  0  0  0
  144.3324  131.7546  148.1698 H   0  0  0  0  0  0  0  0  0  0  0  0
  143.5612  133.3343  148.1243 H   0  0  0  0  0  0  0  0  0  0  0  0
  146.1679  131.3271  149.9345 H   0  0  0  0  0  0  0  0  0  0  0  0
  144.0141  131.6409  152.0772 H   0  0  0  0  0  0  0  0  0  0  0  0
  145.1860  130.3342  151.9906 H   0  0  0  0  0  0  0  0  0  0  0  0
  143.9992  130.5234  150.7184 H   0  0  0  0  0  0  0  0  0  0  0  0
  147.5016  133.0099  150.9603 H   0  0  0  0  0  0  0  0  0  0  0  0
  147.1427  131.8075  152.1665 H   0  0  0  0  0  0  0  0  0  0  0  0
  147.7588  134.8967  152.7201 H   0  0  0  0  0  0  0  0  0  0  0  0
  1  2  1  0  0  0  0
  1 19  1  0  0  0  0
  1 20  1  0  0  0  0
  1 21  1  0  0  0  0
  2  7  1  0  0  0  0
  2  3  2  0  0  0  0
  3  4  1  0  0  0  0
  4  5  1  0  0  0  0
  5  6  1  0  0  0  0
  5  7  2  0  0  0  0
  6 22  1  0  0  0  0
  6 23  1  0  0  0  0
  6 24  1  0  0  0  0
  7  8  1  0  0  0  0
  8  9  1  0  0  0  0
  8 25  1  0  0  0  0
  8 26  1  0  0  0  0
  9 10  1  0  0  0  0
  9 27  1  0  0  0  0
  9 28  1  0  0  0  0
 10 11  1  0  0  0  0
 10 29  1  0  0  0  0
 10 45  1  0  0  0  0
 11 18  1  0  0  0  0
 11 12  1  0  0  0  0
 11 30  1  0  0  0  0
 12 13  1  0  0  0  0
 12 31  1  0  0  0  0
 12 32  1  0  0  0  0
 13 14  1  0  0  0  0
 13 33  1  0  0  0  0
 13 34  1  0  0  0  0
 14 15  1  0  0  0  0
 14 16  1  0  0  0  0
 14 35  1  0  0  0  0
 15 36  1  0  0  0  0
 15 37  1  0  0  0  0
 15 38  1  0  0  0  0
 16 17  1  0  0  0  0
 16 18  1  0  0  0  0
 16 39  1  0  0  0  0
 17 40  1  0  0  0  0
 17 41  1  0  0  0  0
 17 42  1  0  0  0  0
 18 43  1  0  0  0  0
 18 44  1  0  0  0  0
M  CHG  1  10   1
M  END
> <s_m_source_file>
AV-unprocessed.smi

> <i_m_source_file_index>
3285

> <i_lp_mmshare_version>
43012

> <i_f3d_flags>
0

> <s_epik_input>
W0NIM11jMW5vYyhbQ0gzXSljMVtDSDJdW0NIMl1bTkhdW0NAQEhdMltDSDJdW0NIMl1bQ0BASF0oW0NIM10pW0NAQEhdKFtDSDNdKVtDSDJdMg==

> <s_epik_cmdline>
J2VwaWtfcHl0aG9uJywgJy1waCcsICc3LjAnLCAnLXRuJywgJzgnLCAnLW1hJywgJzIwMCcsICctbWV0YWxfYmluZGluZycsICctaW1hZScsICc8aW5maWxlLm1hZT4nLCAnLW9tYWUnLCAnPG91dGZpbGUubWFlPic=

> <r_lp_tautomer_probability>
1

> <r_epik_Ionization_Penalty>
0.000204615

> <r_epik_Ionization_Penalty_Charging>
0.000204615

> <r_epik_Ionization_Penalty_Neutral>
9.28663e-11

> <r_epik_State_Penalty>
-0

> <r_epik_Charging_Adjusted_Penalty>
0.000204615

> <i_epik_Tot_Q>
1

> <i_epik_Tot_abs_Q>
1

> <r_epik_Metal_State_Penalty>
-0

> <b_epik_Metal_Only>
0

> <s_lp_Force_Field>
OPLS_2005

> <r_lp_Energy>
12.1842

> <b_lp_Chiralities_Consistent>
1

> <s_lp_Variant>
AV-unprocessed.smi:3285-8

> <Gold.Version>
5.8.1

> <Gold.Id.Protein>
6NUR|6NUR_protein|mol2

> <Gold.PLP.Fitness>
43.0052

> <Gold.PLP.PLP>
-35.1943

> <Gold.PLP.part.hbond>
-2.0000

> <Gold.PLP.part.metal>
0.0000

> <Gold.PLP.part.buried>
-2.6064

> <Gold.PLP.part.nonpolar>
-31.1234

> <Gold.PLP.part.repulsive>
0.0000

> <Gold.PLP.ligand.clash>
0.0000

> <Gold.PLP.ligand.torsion>
0.4044

> <Gold.PLP.Chemscore.Hbond>
2.8640

> <Gold.PLP.Chemscore.CHOScore>
0.0000

> <Gold.PLP.Chemscore.Metal>
0.0000

> <Gold.Chemscore.Hbonds>
donor molecule, donor type, donor heavy atom, donor atom, acceptor molecule, acceptor atom, score
      L1  H    10    45       P1  7948  2.00
      P1  H  6896  6908       L1     3  0.77

> <Gold.PLP.Chemscore.Internal.Correction>
0.0277

> <Gold.Rescore>
     Score         DG    S(hbond)    S(metal)    S(lipo)     H(rot)  DE(clash)    DE(int)     intcor
     18.80     -19.27       1.79        0.00      96.24       1.35       0.03       0.43       ----

> <Gold.Chemscore.Fitness>
18.8028

> <Gold.Chemscore.DG>
-19.2671

> <Gold.Chemscore.ZeroCoef>
-5.4800

> <Gold.Chemscore.Hbond>
1.7887

> <Gold.Chemscore.Metal>
0.0000

> <Gold.Chemscore.Lipo>
96.2381

> <Gold.Chemscore.Internal_Hbond>
0.0000

> <Gold.Chemscore.DEClash>
0.0323

> <Gold.Chemscore.DEInternal>
0.4320

> <Gold.Chemscore.Rot>
1.3465

> <Gold.Chemscore.Internal.Correction>
   9.000000E+99

> <Gold.Chemscore.Hbonds>
donor molecule, donor type, donor heavy atom, donor atom, acceptor molecule, acceptor atom, score
      L1  H    10    45       P1  7948  0.94
      P1  H  6896  6908       L1     3  0.67

> <Gold.Chemscore.Hbond.Weighted>
-5.9742

> <Gold.Chemscore.Metal.Weighted>
-0.0000

> <Gold.Chemscore.Lipo.Weighted>
-11.2599

> <Gold.Chemscore.Internal_Hbond.Weighted>
0.0000

> <Gold.Chemscore.DEClash.Weighted>
0.0323

> <Gold.Chemscore.DEInternal.Weighted>
0.4320

> <Gold.Chemscore.Rot.Weighted>
3.4470

> <Gold.Chemscore.Internal.Correction.Weighted>
   9.000000E+99

> <Gold.Protein.RotatedTorsions>
[ 6907 6896 6895 6894 ] final   77.19 input  -60.11 | X-H torsion
[ 7974 7965 7964 7962 ] final  -46.63 input  175.53 | X-H torsion
[ 8008 7997 7996 7995 ] final   77.99 input   59.86 | X-H torsion
[ 10167 10162 10161 10158 ] final -134.51 input  -65.29 | X-H torsion
[ 10718 10713 10712 10709 ] final    3.86 input   66.30 | X-H torsion
[ 10763 10752 10751 10750 ] final -111.72 input  -60.55 | X-H torsion
[ 11005 11000 10999 10996 ] final -177.09 input  -57.11 | X-H torsion

> <Gold.Protein.ActiveResidues>
 VAL166  LYS551  ARG553  GLY616  TRP617  ASP618  TYR619  PRO620  LYS621  CYS622 
 ASP623  PHE694  ASN695  SER759  ASP760  ASP761  ALA762  ILE779  LEU786  VAL792 
 PHE793  MET794  SER795  GLU796  ALA797  LYS798  CYS799  TRP800  GLU811  SER814 

> <Gold.Protein.RotatedAtoms>
  152.5107  134.3854  159.9365 H   0  0  0  0  0  0  0  0  0  0  0  0  # atno 6907 bound_to 6896
  151.3812  133.3814  159.2718 H   0  0  0  0  0  0  0  0  0  0  0  0  # atno 6908 bound_to 6896
  150.9503  134.8924  159.7726 H   0  0  0  0  0  0  0  0  0  0  0  0  # atno 6909 bound_to 6896
  145.9699  140.7394  142.9415 H   0  0  0  0  0  0  0  0  0  0  0  0  # atno 7974 bound_to 7965
  155.8494  140.3459  155.5683 H   0  0  0  0  0  0  0  0  0  0  0  0  # atno 8008 bound_to 7997
  155.8054  140.0891  157.1953 H   0  0  0  0  0  0  0  0  0  0  0  0  # atno 8009 bound_to 7997
  154.4007  140.1457  156.3311 H   0  0  0  0  0  0  0  0  0  0  0  0  # atno 8010 bound_to 7997
  139.8873  143.6766  152.2618 H   0  0  0  0  0  0  0  0  0  0  0  0  # atno 10167 bound_to 10162
  156.8840  130.5664  149.5652 H   0  0  0  0  0  0  0  0  0  0  0  0  # atno 10718 bound_to 10713
  154.8314  135.4517  154.1083 H   0  0  0  0  0  0  0  0  0  0  0  0  # atno 10763 bound_to 10752
  153.2352  135.6910  153.7851 H   0  0  0  0  0  0  0  0  0  0  0  0  # atno 10764 bound_to 10752
  153.7219  135.3340  155.3244 H   0  0  0  0  0  0  0  0  0  0  0  0  # atno 10765 bound_to 10752
  140.4448  134.6398  157.4774 H   0  0  0  0  0  0  0  0  0  0  0  0  # atno 11005 bound_to 11000
  144.6834  140.2731  143.7303 LP  0  0  0  0  0  0  0  0  0  0  0  0  # atno 17320 bound_to 7965
  145.7921  139.1931  143.2097 LP  0  0  0  0  0  0  0  0  0  0  0  0  # atno 17321 bound_to 7965
  139.7142  144.7615  151.1062 LP  0  0  0  0  0  0  0  0  0  0  0  0  # atno 17342 bound_to 10162
  140.7733  143.5291  150.9444 LP  0  0  0  0  0  0  0  0  0  0  0  0  # atno 17343 bound_to 10162
  156.0662  130.5705  150.9294 LP  0  0  0  0  0  0  0  0  0  0  0  0  # atno 17370 bound_to 10713
  157.6123  131.0935  150.8773 LP  0  0  0  0  0  0  0  0  0  0  0  0  # atno 17371 bound_to 10713
  140.0046  134.6784  155.9476 LP  0  0  0  0  0  0  0  0  0  0  0  0  # atno 17394 bound_to 11000
  141.1690  133.6537  156.4582 LP  0  0  0  0  0  0  0  0  0  0  0  0  # atno 17395 bound_to 11000

$$$$
