AV-unprocessed.smi:901|AV-procd|sdf|4092|dock3
  -GOLD-   22720 1583D 1   1.00000     0.00000
 Structure written by MMmdl.
 43 44  0  0  0  0  0  0  0  0  1 V2000
  152.0843  143.9039  160.5590 C   0  0  0  0  0  0  0  0  0  0  0  0
  151.9831  143.5840  159.0810 C   0  0  0  0  0  0  0  0  0  0  0  0
  152.5875  144.6313  158.1624 C   0  0  0  0  0  0  0  0  0  0  0  0
  151.3953  142.4557  158.6387 C   0  0  0  0  0  0  0  0  0  0  0  0
  151.2448  142.0328  157.2156 C   0  0  2  0  0  0  0  0  0  0  0  0
  149.9444  141.5372  156.5875 C   0  0  2  0  0  0  0  0  0  0  0  0
  148.7001  141.3788  157.4038 C   0  0  0  0  0  0  0  0  0  0  0  0
  148.3890  140.3183  157.9443 O   0  0  0  0  0  0  0  0  0  0  0  0
  148.0160  142.5288  157.5391 N   0  0  0  0  0  0  0  0  0  0  0  0
  146.7913  142.7523  158.2180 C   0  0  0  0  0  0  0  0  0  0  0  0
  145.7248  143.5887  157.7711 C   0  0  0  0  0  0  0  0  0  0  0  0
  144.8014  143.4779  158.7710 C   0  0  0  0  0  0  0  0  0  0  0  0
  145.3253  142.6336  159.7300 N   0  0  0  0  0  0  0  0  0  0  0  0
  144.7237  142.2088  160.9828 C   0  0  0  0  0  0  0  0  0  0  0  0
  144.4976  143.3885  161.9339 C   0  0  0  0  0  0  0  0  0  0  0  0
  144.9963  144.5704  161.5628 N   0  0  0  0  0  0  0  0  0  0  0  0
  143.8804  143.2412  162.9874 O   0  0  0  0  0  0  0  0  0  0  0  0
  146.5545  142.1873  159.3895 N   0  0  0  0  0  0  0  0  0  0  0  0
  151.1039  140.5745  156.8167 C   0  0  0  0  0  0  0  0  0  0  0  0
  151.8590  140.0661  155.6014 C   0  0  0  0  0  0  0  0  0  0  0  0
  151.0508  139.4753  157.8756 C   0  0  0  0  0  0  0  0  0  0  0  0
  151.5617  144.8348  160.7796 H   0  0  0  0  0  0  0  0  0  0  0  0
  153.1285  144.0197  160.8497 H   0  0  0  0  0  0  0  0  0  0  0  0
  151.6462  143.1159  161.1724 H   0  0  0  0  0  0  0  0  0  0  0  0
  152.0893  145.5895  158.3121 H   0  0  0  0  0  0  0  0  0  0  0  0
  152.4931  144.3687  157.1092 H   0  0  0  0  0  0  0  0  0  0  0  0
  153.6472  144.7596  158.3835 H   0  0  0  0  0  0  0  0  0  0  0  0
  150.9963  141.7709  159.3722 H   0  0  0  0  0  0  0  0  0  0  0  0
  151.8692  142.6489  156.5708 H   0  0  0  0  0  0  0  0  0  0  0  0
  149.7684  141.8787  155.5689 H   0  0  0  0  0  0  0  0  0  0  0  0
  148.4243  143.3439  157.1053 H   0  0  0  0  0  0  0  0  0  0  0  0
  145.6378  144.1809  156.8726 H   0  0  0  0  0  0  0  0  0  0  0  0
  143.8267  143.9296  158.8825 H   0  0  0  0  0  0  0  0  0  0  0  0
  143.7799  141.7095  160.7590 H   0  0  0  0  0  0  0  0  0  0  0  0
  145.3689  141.4738  161.4672 H   0  0  0  0  0  0  0  0  0  0  0  0
  144.8763  145.3790  162.1553 H   0  0  0  0  0  0  0  0  0  0  0  0
  145.4951  144.6498  160.6883 H   0  0  0  0  0  0  0  0  0  0  0  0
  151.3591  139.1930  155.1811 H   0  0  0  0  0  0  0  0  0  0  0  0
  152.8772  139.7883  155.8752 H   0  0  0  0  0  0  0  0  0  0  0  0
  151.9115  140.8337  154.8286 H   0  0  0  0  0  0  0  0  0  0  0  0
  150.5387  138.5967  157.4821 H   0  0  0  0  0  0  0  0  0  0  0  0
  150.5228  139.7975  158.7730 H   0  0  0  0  0  0  0  0  0  0  0  0
  152.0601  139.1839  158.1674 H   0  0  0  0  0  0  0  0  0  0  0  0
  1  2  1  0  0  0  0
  1 22  1  0  0  0  0
  1 23  1  0  0  0  0
  1 24  1  0  0  0  0
  2  3  1  0  0  0  0
  2  4  2  0  0  0  0
  3 25  1  0  0  0  0
  3 26  1  0  0  0  0
  3 27  1  0  0  0  0
  4  5  1  0  0  0  0
  4 28  1  0  0  0  0
  5 19  1  0  0  0  0
  5  6  1  0  0  0  0
  5 29  1  0  0  0  0
  6  7  1  0  0  0  0
  6 19  1  0  0  0  0
  6 30  1  0  0  0  0
  7  8  2  0  0  0  0
  7  9  1  0  0  0  0
  9 10  1  0  0  0  0
  9 31  1  0  0  0  0
 10 18  2  0  0  0  0
 10 11  1  0  0  0  0
 11 12  2  0  0  0  0
 11 32  1  0  0  0  0
 12 13  1  0  0  0  0
 12 33  1  0  0  0  0
 13 14  1  0  0  0  0
 13 18  1  0  0  0  0
 14 15  1  0  0  0  0
 14 34  1  0  0  0  0
 14 35  1  0  0  0  0
 15 16  1  0  0  0  0
 15 17  2  0  0  0  0
 16 36  1  0  0  0  0
 16 37  1  0  0  0  0
 19 20  1  0  0  0  0
 19 21  1  0  0  0  0
 20 38  1  0  0  0  0
 20 39  1  0  0  0  0
 20 40  1  0  0  0  0
 21 41  1  0  0  0  0
 21 42  1  0  0  0  0
 21 43  1  0  0  0  0
M  END
> <s_m_source_file>
AV-unprocessed.smi

> <i_m_source_file_index>
901

> <i_lp_mmshare_version>
43012

> <i_f3d_flags>
0

> <s_epik_input>
W0NIM11DKFtDSDNdKT1bQ0hdW0NAQEhdKEMxKFtDSDNdKVtDSDNdKVtDQEhdMUMoPU8pW05IXWMyW2NIXVtjSF1uKG4yKVtDSDJdQyg9TylbTkgyXQ==

> <s_epik_cmdline>
J2VwaWtfcHl0aG9uJywgJy1waCcsICc3LjAnLCAnLXRuJywgJzgnLCAnLW1hJywgJzIwMCcsICctbWV0YWxfYmluZGluZycsICctaW1hZScsICc8aW5maWxlLm1hZT4nLCAnLW9tYWUnLCAnPG91dGZpbGUubWFlPic=

> <r_lp_tautomer_probability>
1

> <r_epik_Ionization_Penalty>
1.01454e-05

> <r_epik_Ionization_Penalty_Charging>
0

> <r_epik_Ionization_Penalty_Neutral>
1.01454e-05

> <r_epik_State_Penalty>
-0

> <r_epik_Charging_Adjusted_Penalty>
0

> <i_epik_Tot_Q>
0

> <i_epik_Tot_abs_Q>
0

> <r_epik_Metal_State_Penalty>
-0

> <b_epik_Metal_Only>
0

> <s_lp_Force_Field>
OPLS_2005

> <r_lp_Energy>
21.7989

> <b_lp_Chiralities_Consistent>
1

> <s_lp_Variant>
AV-unprocessed.smi:901-3

> <Gold.Version>
5.8.1

> <Gold.Id.Protein>
6NUR|6NUR_protein|mol2

> <Gold.PLP.Fitness>
43.7965

> <Gold.PLP.PLP>
-40.3667

> <Gold.PLP.part.hbond>
-4.3278

> <Gold.PLP.part.metal>
0.0000

> <Gold.PLP.part.buried>
-6.0564

> <Gold.PLP.part.nonpolar>
-29.9561

> <Gold.PLP.part.repulsive>
0.2200

> <Gold.PLP.ligand.clash>
0.0000

> <Gold.PLP.ligand.torsion>
1.3130

> <Gold.PLP.Chemscore.Hbond>
1.9420

> <Gold.PLP.Chemscore.CHOScore>
0.0000

> <Gold.PLP.Chemscore.Metal>
0.0000

> <Gold.Chemscore.Hbonds>
donor molecule, donor type, donor heavy atom, donor atom, acceptor molecule, acceptor atom, score
      L1  H     9    31       P1  8028  0.90
      P1  H  6934  6946       L1    18  0.99

> <Gold.PLP.Chemscore.Internal.Correction>
0.2298

> <Gold.Rescore>
     Score         DG    S(hbond)    S(metal)    S(lipo)     H(rot)  DE(clash)    DE(int)     intcor
      9.25     -13.24       1.07        0.00      82.25       2.13       0.00       3.98       ----

> <Gold.Chemscore.Fitness>
9.2542

> <Gold.Chemscore.DG>
-13.2381

> <Gold.Chemscore.ZeroCoef>
-5.4800

> <Gold.Chemscore.Hbond>
1.0747

> <Gold.Chemscore.Metal>
0.0000

> <Gold.Chemscore.Lipo>
82.2535

> <Gold.Chemscore.Internal_Hbond>
0.0000

> <Gold.Chemscore.DEClash>
0.0048

> <Gold.Chemscore.DEInternal>
3.9791

> <Gold.Chemscore.Rot>
2.1309

> <Gold.Chemscore.Internal.Correction>
   9.000000E+99

> <Gold.Chemscore.Hbonds>
donor molecule, donor type, donor heavy atom, donor atom, acceptor molecule, acceptor atom, score
      L1  H     9    31       P1  8028  0.17
      P1  H  6934  6946       L1    18  0.42

> <Gold.Chemscore.Hbond.Weighted>
-3.5896

> <Gold.Chemscore.Metal.Weighted>
-0.0000

> <Gold.Chemscore.Lipo.Weighted>
-9.6237

> <Gold.Chemscore.Internal_Hbond.Weighted>
0.0000

> <Gold.Chemscore.DEClash.Weighted>
0.0048

> <Gold.Chemscore.DEInternal.Weighted>
3.9791

> <Gold.Chemscore.Rot.Weighted>
5.4552

> <Gold.Chemscore.Internal.Correction.Weighted>
   9.000000E+99

> <Gold.Protein.RotatedTorsions>
[ 6907 6896 6895 6894 ] final  -52.71 input  -60.11 | X-H torsion
[ 7974 7965 7964 7962 ] final  -91.53 input  175.53 | X-H torsion
[ 8008 7997 7996 7995 ] final   58.79 input   59.86 | X-H torsion
[ 10167 10162 10161 10158 ] final  -77.53 input  -65.29 | X-H torsion
[ 10718 10713 10712 10709 ] final   15.68 input   66.30 | X-H torsion
[ 10763 10752 10751 10750 ] final   64.27 input  -60.55 | X-H torsion
[ 11005 11000 10999 10996 ] final  132.91 input  -57.11 | X-H torsion

> <Gold.Protein.ActiveResidues>
 VAL166  LYS551  ARG553  GLY616  TRP617  ASP618  TYR619  PRO620  LYS621  CYS622 
 ASP623  PHE694  ASN695  SER759  ASP760  ASP761  ALA762  ILE779  LEU786  VAL792 
 PHE793  MET794  SER795  GLU796  ALA797  LYS798  CYS799  TRP800  GLU811  SER814 

> <Gold.Protein.RotatedAtoms>
  150.8493  134.7812  159.6995 H   0  0  0  0  0  0  0  0  0  0  0  0  # atno 6907 bound_to 6896
  152.4562  134.5283  159.9813 H   0  0  0  0  0  0  0  0  0  0  0  0  # atno 6908 bound_to 6896
  151.5408  133.3395  159.2970 H   0  0  0  0  0  0  0  0  0  0  0  0  # atno 6909 bound_to 6896
  145.4119  140.9545  143.2229 H   0  0  0  0  0  0  0  0  0  0  0  0  # atno 7974 bound_to 7965
  155.5558  140.3487  155.4479 H   0  0  0  0  0  0  0  0  0  0  0  0  # atno 8008 bound_to 7997
  156.0550  140.1326  157.0032 H   0  0  0  0  0  0  0  0  0  0  0  0  # atno 8009 bound_to 7997
  154.4452  140.0997  156.6417 H   0  0  0  0  0  0  0  0  0  0  0  0  # atno 8010 bound_to 7997
  140.4762  143.2413  151.8128 H   0  0  0  0  0  0  0  0  0  0  0  0  # atno 10167 bound_to 10162
  157.0570  130.6293  149.5779 H   0  0  0  0  0  0  0  0  0  0  0  0  # atno 10718 bound_to 10713
  153.0049  135.5399  154.6484 H   0  0  0  0  0  0  0  0  0  0  0  0  # atno 10763 bound_to 10752
  154.5722  135.2842  155.0818 H   0  0  0  0  0  0  0  0  0  0  0  0  # atno 10764 bound_to 10752
  154.1979  135.6489  153.5131 H   0  0  0  0  0  0  0  0  0  0  0  0  # atno 10765 bound_to 10752
  139.9819  134.9545  156.9650 H   0  0  0  0  0  0  0  0  0  0  0  0  # atno 11005 bound_to 11000
  144.8303  139.5639  143.6946 LP  0  0  0  0  0  0  0  0  0  0  0  0  # atno 17320 bound_to 7965
  146.2700  139.6613  142.9302 LP  0  0  0  0  0  0  0  0  0  0  0  0  # atno 17321 bound_to 7965
  139.4826  144.4830  151.9283 LP  0  0  0  0  0  0  0  0  0  0  0  0  # atno 17342 bound_to 10162
  140.3915  144.2609  150.5899 LP  0  0  0  0  0  0  0  0  0  0  0  0  # atno 17343 bound_to 10162
  155.9990  130.5065  150.7591 LP  0  0  0  0  0  0  0  0  0  0  0  0  # atno 17370 bound_to 10713
  157.4985  131.0916  151.0343 LP  0  0  0  0  0  0  0  0  0  0  0  0  # atno 17371 bound_to 10713
  140.5079  134.1031  155.7264 LP  0  0  0  0  0  0  0  0  0  0  0  0  # atno 17394 bound_to 11000
  141.1490  133.9003  157.2145 LP  0  0  0  0  0  0  0  0  0  0  0  0  # atno 17395 bound_to 11000

$$$$
