AV-unprocessed.smi:2525|AV-procd|sdf|9927|dock1
  -GOLD-   2272013563D 1   1.00000     0.00000
 Structure written by MMmdl.
 44 45  0  0  0  0  0  0  0  0  1 V2000
  152.1663  139.1344  157.5320 C   0  0  0  0  0  0  0  0  0  0  0  0
  150.9723  138.2966  157.0528 C   0  0  0  0  0  0  0  0  0  0  0  0
  150.6654  138.3730  155.5405 C   0  0  0  0  0  0  0  0  0  0  0  0
  151.9077  137.8243  154.7703 C   0  0  0  0  0  0  0  0  0  0  0  0
  153.1380  138.7467  154.7204 C   0  0  0  0  0  0  0  0  0  0  0  0
  149.2837  137.7695  155.1509 C   0  0  2  0  0  0  0  0  0  0  0  0
  149.3302  136.4278  154.5832 N   0  0  0  0  0  0  0  0  0  0  0  0
  149.6878  135.3278  155.2618 C   0  0  0  0  0  0  0  0  0  0  0  0
  149.9097  135.3181  156.4723 O   0  0  0  0  0  0  0  0  0  0  0  0
  149.8481  134.0479  154.4417 C   0  0  0  0  0  0  0  0  0  0  0  0
  148.5862  133.6708  153.8288 N   0  0  0  0  0  0  0  0  0  0  0  0
  148.3504  132.7070  152.8696 C   0  0  0  0  0  0  0  0  0  0  0  0
  147.0069  132.8041  152.6452 C   0  0  0  0  0  0  0  0  0  0  0  0
  146.4886  133.8062  153.4635 N   0  0  0  0  0  0  0  0  0  0  0  0
  147.4460  134.3179  154.1711 N   0  0  0  0  0  0  0  0  0  0  0  0
  149.1444  138.8668  154.0900 C   0  0  1  0  0  0  0  0  0  0  0  0
  147.7604  139.3595  153.6875 C   0  0  0  0  0  0  0  0  0  0  0  0
  150.0478  139.7043  155.0166 C   0  0  1  0  0  0  0  0  0  0  0  0
  149.3129  140.3823  156.0317 O   0  0  0  0  0  0  0  0  0  0  0  0
  150.0762  141.3618  156.7153 C   0  0  0  0  0  0  0  0  0  0  0  0
  152.2034  139.1551  158.6212 H   0  0  0  0  0  0  0  0  0  0  0  0
  152.0987  140.1658  157.1856 H   0  0  0  0  0  0  0  0  0  0  0  0
  153.1121  138.7160  157.1910 H   0  0  0  0  0  0  0  0  0  0  0  0
  151.1215  137.2604  157.3586 H   0  0  0  0  0  0  0  0  0  0  0  0
  150.0988  138.6224  157.6183 H   0  0  0  0  0  0  0  0  0  0  0  0
  152.2152  136.8631  155.1837 H   0  0  0  0  0  0  0  0  0  0  0  0
  151.6629  137.6011  153.7327 H   0  0  0  0  0  0  0  0  0  0  0  0
  153.9977  138.2100  154.3184 H   0  0  0  0  0  0  0  0  0  0  0  0
  153.4193  139.1294  155.6994 H   0  0  0  0  0  0  0  0  0  0  0  0
  152.9664  139.6013  154.0661 H   0  0  0  0  0  0  0  0  0  0  0  0
  148.5329  137.8788  155.9376 H   0  0  0  0  0  0  0  0  0  0  0  0
  149.1587  136.3427  153.5917 H   0  0  0  0  0  0  0  0  0  0  0  0
  150.5898  134.1952  153.6555 H   0  0  0  0  0  0  0  0  0  0  0  0
  150.2066  133.2378  155.0788 H   0  0  0  0  0  0  0  0  0  0  0  0
  149.1207  132.0768  152.4502 H   0  0  0  0  0  0  0  0  0  0  0  0
  146.3771  132.2450  151.9691 H   0  0  0  0  0  0  0  0  0  0  0  0
  149.7152  138.5988  153.1980 H   0  0  0  0  0  0  0  0  0  0  0  0
  147.1597  139.6251  154.5576 H   0  0  0  0  0  0  0  0  0  0  0  0
  147.2165  138.5917  153.1373 H   0  0  0  0  0  0  0  0  0  0  0  0
  147.8252  140.2391  153.0470 H   0  0  0  0  0  0  0  0  0  0  0  0
  150.7461  140.3581  154.4950 H   0  0  0  0  0  0  0  0  0  0  0  0
  149.4459  141.8739  157.4420 H   0  0  0  0  0  0  0  0  0  0  0  0
  150.4777  142.1094  156.0311 H   0  0  0  0  0  0  0  0  0  0  0  0
  150.9051  140.9023  157.2551 H   0  0  0  0  0  0  0  0  0  0  0  0
  1  2  1  0  0  0  0
  1 21  1  0  0  0  0
  1 22  1  0  0  0  0
  1 23  1  0  0  0  0
  2  3  1  0  0  0  0
  2 24  1  0  0  0  0
  2 25  1  0  0  0  0
  3 18  1  0  0  0  0
  3  4  1  0  0  0  0
  3  6  1  0  0  0  0
  4  5  1  0  0  0  0
  4 26  1  0  0  0  0
  4 27  1  0  0  0  0
  5 28  1  0  0  0  0
  5 29  1  0  0  0  0
  5 30  1  0  0  0  0
  6  7  1  0  0  0  0
  6 16  1  0  0  0  0
  6 31  1  0  0  0  0
  7  8  1  0  0  0  0
  7 32  1  0  0  0  0
  8  9  2  0  0  0  0
  8 10  1  0  0  0  0
 10 11  1  0  0  0  0
 10 33  1  0  0  0  0
 10 34  1  0  0  0  0
 11 15  1  0  0  0  0
 11 12  1  0  0  0  0
 12 13  2  0  0  0  0
 12 35  1  0  0  0  0
 13 14  1  0  0  0  0
 13 36  1  0  0  0  0
 14 15  2  0  0  0  0
 16 17  1  0  0  0  0
 16 18  1  0  0  0  0
 16 37  1  0  0  0  0
 17 38  1  0  0  0  0
 17 39  1  0  0  0  0
 17 40  1  0  0  0  0
 18 19  1  0  0  0  0
 18 41  1  0  0  0  0
 19 20  1  0  0  0  0
 20 42  1  0  0  0  0
 20 43  1  0  0  0  0
 20 44  1  0  0  0  0
M  END
> <s_m_source_file>
AV-unprocessed.smi

> <i_m_source_file_index>
2525

> <i_lp_mmshare_version>
43012

> <i_f3d_flags>
0

> <s_epik_input>
W0NIM11PW0NAQEhdMVtDQEhdKFtDSDNdKVtDQEBIXShDMShbQ0gyXVtDSDNdKVtDSDJdW0NIM10pW05IXUMoPU8pW0NIMl1uMltjSF1bY0hdbm4y

> <s_epik_cmdline>
J2VwaWtfcHl0aG9uJywgJy1waCcsICc3LjAnLCAnLXRuJywgJzgnLCAnLW1hJywgJzIwMCcsICctbWV0YWxfYmluZGluZycsICctaW1hZScsICc8aW5maWxlLm1hZT4nLCAnLW9tYWUnLCAnPG91dGZpbGUubWFlPic=

> <r_lp_tautomer_probability>
1

> <r_epik_Ionization_Penalty>
1.18045e-06

> <r_epik_Ionization_Penalty_Charging>
0

> <r_epik_Ionization_Penalty_Neutral>
1.18045e-06

> <r_epik_State_Penalty>
-0

> <r_epik_Charging_Adjusted_Penalty>
0

> <i_epik_Tot_Q>
0

> <i_epik_Tot_abs_Q>
0

> <r_epik_Metal_State_Penalty>
-0

> <b_epik_Metal_Only>
0

> <s_lp_Force_Field>
OPLS_2005

> <r_lp_Energy>
28.7766

> <b_lp_Chiralities_Consistent>
1

> <s_lp_Variant>
AV-unprocessed.smi:2525-2

> <Gold.Version>
5.8.1

> <Gold.Id.Protein>
6NUR|6NUR_protein|mol2

> <Gold.PLP.Fitness>
34.4172

> <Gold.PLP.PLP>
-29.1492

> <Gold.PLP.part.hbond>
-1.0000

> <Gold.PLP.part.metal>
0.0000

> <Gold.PLP.part.buried>
-2.3191

> <Gold.PLP.part.nonpolar>
-26.4841

> <Gold.PLP.part.repulsive>
0.2308

> <Gold.PLP.ligand.clash>
0.0012

> <Gold.PLP.ligand.torsion>
0.7100

> <Gold.PLP.Chemscore.Hbond>
1.0000

> <Gold.PLP.Chemscore.CHOScore>
0.9763

> <Gold.PLP.Chemscore.Metal>
0.0000

> <Gold.Chemscore.Hbonds>
donor molecule, donor type, donor heavy atom, donor atom, acceptor molecule, acceptor atom, score
      L1  H     7    32       P1  7948  1.00
      L1  C    12    35       P1 10747  0.94

> <Gold.PLP.Chemscore.Internal.Correction>
0.7602

> <Gold.Rescore>
     Score         DG    S(hbond)    S(metal)    S(lipo)     H(rot)  DE(clash)    DE(int)     intcor
     10.82     -12.51       0.91        0.00      77.58       1.98       0.11       1.57       ----

> <Gold.Chemscore.Fitness>
10.8248

> <Gold.Chemscore.DG>
-12.5094

> <Gold.Chemscore.ZeroCoef>
-5.4800

> <Gold.Chemscore.Hbond>
0.9059

> <Gold.Chemscore.Metal>
0.0000

> <Gold.Chemscore.Lipo>
77.5777

> <Gold.Chemscore.Internal_Hbond>
0.0000

> <Gold.Chemscore.DEClash>
0.1114

> <Gold.Chemscore.DEInternal>
1.5732

> <Gold.Chemscore.Rot>
1.9817

> <Gold.Chemscore.Internal.Correction>
   9.000000E+99

> <Gold.Chemscore.Hbonds>
donor molecule, donor type, donor heavy atom, donor atom, acceptor molecule, acceptor atom, score
      L1  H     7    32       P1  7948  0.96

> <Gold.Chemscore.Hbond.Weighted>
-3.0259

> <Gold.Chemscore.Metal.Weighted>
-0.0000

> <Gold.Chemscore.Lipo.Weighted>
-9.0766

> <Gold.Chemscore.Internal_Hbond.Weighted>
0.0000

> <Gold.Chemscore.DEClash.Weighted>
0.1114

> <Gold.Chemscore.DEInternal.Weighted>
1.5732

> <Gold.Chemscore.Rot.Weighted>
5.0731

> <Gold.Chemscore.Internal.Correction.Weighted>
   9.000000E+99

> <Gold.Protein.RotatedTorsions>
[ 6907 6896 6895 6894 ] final  168.15 input  -60.11 | X-H torsion
[ 7974 7965 7964 7962 ] final  107.79 input  175.53 | X-H torsion
[ 8008 7997 7996 7995 ] final   76.35 input   59.86 | X-H torsion
[ 10167 10162 10161 10158 ] final -172.56 input  -65.29 | X-H torsion
[ 10718 10713 10712 10709 ] final -109.79 input   66.30 | X-H torsion
[ 10763 10752 10751 10750 ] final  159.25 input  -60.55 | X-H torsion
[ 11005 11000 10999 10996 ] final  -27.31 input  -57.11 | X-H torsion

> <Gold.Protein.ActiveResidues>
 VAL166  LYS551  ARG553  GLY616  TRP617  ASP618  TYR619  PRO620  LYS621  CYS622 
 ASP623  PHE694  ASN695  SER759  ASP760  ASP761  ALA762  ILE779  LEU786  VAL792 
 PHE793  MET794  SER795  GLU796  ALA797  LYS798  CYS799  TRP800  GLU811  SER814 

> <Gold.Protein.RotatedAtoms>
  151.8522  133.3442  159.3676 H   0  0  0  0  0  0  0  0  0  0  0  0  # atno 6907 bound_to 6896
  150.7203  134.5288  159.5699 H   0  0  0  0  0  0  0  0  0  0  0  0  # atno 6908 bound_to 6896
  152.2784  134.7856  160.0452 H   0  0  0  0  0  0  0  0  0  0  0  0  # atno 6909 bound_to 6896
  145.2891  139.2606  143.3874 H   0  0  0  0  0  0  0  0  0  0  0  0  # atno 7974 bound_to 7965
  155.8261  140.3468  155.5544 H   0  0  0  0  0  0  0  0  0  0  0  0  # atno 8008 bound_to 7997
  155.8291  140.0924  157.1823 H   0  0  0  0  0  0  0  0  0  0  0  0  # atno 8009 bound_to 7997
  154.4004  140.1415  156.3579 H   0  0  0  0  0  0  0  0  0  0  0  0  # atno 8010 bound_to 7997
  139.5737  144.1581  152.1421 H   0  0  0  0  0  0  0  0  0  0  0  0  # atno 10167 bound_to 10162
  156.0556  130.5782  150.8148 H   0  0  0  0  0  0  0  0  0  0  0  0  # atno 10718 bound_to 10713
  154.2288  135.2779  155.2897 H   0  0  0  0  0  0  0  0  0  0  0  0  # atno 10763 bound_to 10752
  154.5641  135.5638  153.7037 H   0  0  0  0  0  0  0  0  0  0  0  0  # atno 10764 bound_to 10752
  153.0025  135.6305  154.2429 H   0  0  0  0  0  0  0  0  0  0  0  0  # atno 10765 bound_to 10752
  140.9108  133.7462  156.0668 H   0  0  0  0  0  0  0  0  0  0  0  0  # atno 11005 bound_to 11000
  146.3191  140.3378  142.8645 LP  0  0  0  0  0  0  0  0  0  0  0  0  # atno 17320 bound_to 7965
  144.9188  140.7843  143.5761 LP  0  0  0  0  0  0  0  0  0  0  0  0  # atno 17321 bound_to 7965
  140.1119  144.5449  150.6919 LP  0  0  0  0  0  0  0  0  0  0  0  0  # atno 17342 bound_to 10162
  140.7021  143.2442  151.4834 LP  0  0  0  0  0  0  0  0  0  0  0  0  # atno 17343 bound_to 10162
  157.5522  131.0944  150.9679 LP  0  0  0  0  0  0  0  0  0  0  0  0  # atno 17370 bound_to 10713
  156.9937  130.5573  149.5305 LP  0  0  0  0  0  0  0  0  0  0  0  0  # atno 17371 bound_to 10713
  140.8113  134.3396  157.5411 LP  0  0  0  0  0  0  0  0  0  0  0  0  # atno 17394 bound_to 11000
  139.8757  134.9255  156.3377 LP  0  0  0  0  0  0  0  0  0  0  0  0  # atno 17395 bound_to 11000

$$$$
