AV-unprocessed.smi:1972|AV-procd|sdf|7974|dock4
  -GOLD-   2272010153D 1   1.00000     0.00000
 Structure written by MMmdl.
 44 45  0  0  0  0  0  0  0  0  1 V2000
  143.9392  134.6288  151.7742 C   0  0  0  0  0  0  0  0  0  0  0  0
  143.0913  135.6427  153.0129 S   0  0  0  0  0  0  0  0  0  0  0  0
  144.0748  137.1641  152.8803 C   0  0  0  0  0  0  0  0  0  0  0  0
  145.5594  136.8789  152.5887 C   0  0  0  0  0  0  0  0  0  0  0  0
  146.3630  138.1298  152.2163 C   0  0  0  0  0  0  0  0  0  0  0  0
  146.8816  138.2296  151.1042 O   0  0  0  0  0  0  0  0  0  0  0  0
  146.4675  139.0727  153.1659 N   0  0  0  0  0  0  0  0  0  0  0  0
  147.1713  140.3452  153.0283 C   0  0  0  0  0  0  0  0  0  0  0  0
  148.0321  140.7220  154.2265 C   0  0  0  0  0  0  0  0  0  0  0  0
  147.4548  141.3826  155.3287 C   0  0  0  0  0  0  0  0  0  0  0  0
  148.2675  141.7326  156.4237 C   0  0  0  0  0  0  0  0  0  0  0  0
  149.6477  141.4213  156.3873 C   0  0  0  0  0  0  0  0  0  0  0  0
  150.4847  141.7621  157.4729 N   0  0  0  0  0  0  0  0  0  0  0  0
  151.2986  140.7051  158.0706 C   0  0  0  0  0  0  0  0  0  0  0  0
  151.9039  141.1817  159.4011 C   0  0  0  0  0  0  0  0  0  0  0  0
  152.6282  142.3898  159.1937 O   0  0  0  0  0  0  0  0  0  0  0  0
  151.7918  143.4417  158.7205 C   0  0  1  0  0  0  0  0  0  0  0  0
  152.6336  144.7179  158.6197 C   0  0  0  0  0  0  0  0  0  0  0  0
  151.1875  143.0382  157.3614 C   0  0  0  0  0  0  0  0  0  0  0  0
  150.2008  140.7869  155.3241 N   0  0  0  0  0  0  0  0  0  0  0  0
  149.4170  140.4534  154.2773 C   0  0  0  0  0  0  0  0  0  0  0  0
  143.4734  133.6454  151.7095 H   0  0  0  0  0  0  0  0  0  0  0  0
  144.9878  134.4982  152.0419 H   0  0  0  0  0  0  0  0  0  0  0  0
  143.8854  135.1024  150.7937 H   0  0  0  0  0  0  0  0  0  0  0  0
  143.6578  137.7661  152.0727 H   0  0  0  0  0  0  0  0  0  0  0  0
  143.9588  137.7495  153.7934 H   0  0  0  0  0  0  0  0  0  0  0  0
  146.0151  136.3767  153.4436 H   0  0  0  0  0  0  0  0  0  0  0  0
  145.6322  136.1846  151.7512 H   0  0  0  0  0  0  0  0  0  0  0  0
  146.0119  138.9012  154.0507 H   0  0  0  0  0  0  0  0  0  0  0  0
  147.7947  140.3531  152.1328 H   0  0  0  0  0  0  0  0  0  0  0  0
  146.4175  141.1182  152.8773 H   0  0  0  0  0  0  0  0  0  0  0  0
  146.4000  141.6148  155.3413 H   0  0  0  0  0  0  0  0  0  0  0  0
  147.8210  142.2191  157.2777 H   0  0  0  0  0  0  0  0  0  0  0  0
  150.6932  139.8156  158.2493 H   0  0  0  0  0  0  0  0  0  0  0  0
  152.0934  140.4267  157.3772 H   0  0  0  0  0  0  0  0  0  0  0  0
  151.1252  141.3353  160.1501 H   0  0  0  0  0  0  0  0  0  0  0  0
  152.5808  140.4248  159.7974 H   0  0  0  0  0  0  0  0  0  0  0  0
  150.9902  143.6123  159.4417 H   0  0  0  0  0  0  0  0  0  0  0  0
  152.0318  145.5581  158.2728 H   0  0  0  0  0  0  0  0  0  0  0  0
  153.4632  144.5897  157.9238 H   0  0  0  0  0  0  0  0  0  0  0  0
  153.0510  144.9865  159.5904 H   0  0  0  0  0  0  0  0  0  0  0  0
  151.9763  142.9377  156.6146 H   0  0  0  0  0  0  0  0  0  0  0  0
  150.5276  143.8337  157.0186 H   0  0  0  0  0  0  0  0  0  0  0  0
  149.9212  139.9612  153.4594 H   0  0  0  0  0  0  0  0  0  0  0  0
  1  2  1  0  0  0  0
  1 22  1  0  0  0  0
  1 23  1  0  0  0  0
  1 24  1  0  0  0  0
  2  3  1  0  0  0  0
  3  4  1  0  0  0  0
  3 25  1  0  0  0  0
  3 26  1  0  0  0  0
  4  5  1  0  0  0  0
  4 27  1  0  0  0  0
  4 28  1  0  0  0  0
  5  6  2  0  0  0  0
  5  7  1  0  0  0  0
  7  8  1  0  0  0  0
  7 29  1  0  0  0  0
  8  9  1  0  0  0  0
  8 30  1  0  0  0  0
  8 31  1  0  0  0  0
  9 21  1  0  0  0  0
  9 10  2  0  0  0  0
 10 11  1  0  0  0  0
 10 32  1  0  0  0  0
 11 12  2  0  0  0  0
 11 33  1  0  0  0  0
 12 13  1  0  0  0  0
 12 20  1  0  0  0  0
 13 19  1  0  0  0  0
 13 14  1  0  0  0  0
 14 15  1  0  0  0  0
 14 34  1  0  0  0  0
 14 35  1  0  0  0  0
 15 16  1  0  0  0  0
 15 36  1  0  0  0  0
 15 37  1  0  0  0  0
 16 17  1  0  0  0  0
 17 18  1  0  0  0  0
 17 19  1  0  0  0  0
 17 38  1  0  0  0  0
 18 39  1  0  0  0  0
 18 40  1  0  0  0  0
 18 41  1  0  0  0  0
 19 42  1  0  0  0  0
 19 43  1  0  0  0  0
 20 21  2  0  0  0  0
 21 44  1  0  0  0  0
M  END
> <s_m_source_file>
AV-unprocessed.smi

> <i_m_source_file_index>
1972

> <i_lp_mmshare_version>
43012

> <i_f3d_flags>
0

> <s_epik_input>
W0NIM11TW0NIMl1bQ0gyXUMoPU8pW05IXVtDSDJdYzFbY0hdW2NIXWMobltjSF0xKU4yW0NIMl1bQ0gyXU9bQ0BASF0oW0NIM10pW0NIMl0y

> <s_epik_cmdline>
J2VwaWtfcHl0aG9uJywgJy1waCcsICc3LjAnLCAnLXRuJywgJzgnLCAnLW1hJywgJzIwMCcsICctbWV0YWxfYmluZGluZycsICctaW1hZScsICc8aW5maWxlLm1hZT4nLCAnLW9tYWUnLCAnPG91dGZpbGUubWFlPic=

> <r_lp_tautomer_probability>
1

> <r_epik_Ionization_Penalty>
0.00559088

> <r_epik_Ionization_Penalty_Charging>
0

> <r_epik_Ionization_Penalty_Neutral>
0.00559088

> <r_epik_State_Penalty>
0.00409544

> <r_epik_Charging_Adjusted_Penalty>
0.00409544

> <i_epik_Tot_Q>
0

> <i_epik_Tot_abs_Q>
0

> <r_epik_Metal_State_Penalty>
-0

> <b_epik_Metal_Only>
0

> <s_lp_Force_Field>
OPLS_2005

> <r_lp_Energy>
17.6906

> <b_lp_Chiralities_Consistent>
1

> <s_lp_Variant>
AV-unprocessed.smi:1972-1

> <Gold.Version>
5.8.1

> <Gold.Id.Protein>
6NUR|6NUR_protein|mol2

> <Gold.PLP.Fitness>
43.2671

> <Gold.PLP.PLP>
-38.8801

> <Gold.PLP.part.hbond>
-2.5711

> <Gold.PLP.part.metal>
0.0000

> <Gold.PLP.part.buried>
-3.1756

> <Gold.PLP.part.nonpolar>
-35.0682

> <Gold.PLP.part.repulsive>
0.5443

> <Gold.PLP.ligand.clash>
0.0000

> <Gold.PLP.ligand.torsion>
1.0273

> <Gold.PLP.Chemscore.Hbond>
1.0000

> <Gold.PLP.Chemscore.CHOScore>
1.0000

> <Gold.PLP.Chemscore.Metal>
0.0000

> <Gold.Chemscore.Hbonds>
donor molecule, donor type, donor heavy atom, donor atom, acceptor molecule, acceptor atom, score
      P1  H  7954  7966       L1     6  1.00
      L1  C    21    44       P1  7957  1.00

> <Gold.PLP.Chemscore.Internal.Correction>
0.4417

> <Gold.Rescore>
     Score         DG    S(hbond)    S(metal)    S(lipo)     H(rot)  DE(clash)    DE(int)     intcor
     14.20     -15.36       0.99        0.00      94.47       1.75       0.20       0.96       ----

> <Gold.Chemscore.Fitness>
14.1989

> <Gold.Chemscore.DG>
-15.3631

> <Gold.Chemscore.ZeroCoef>
-5.4800

> <Gold.Chemscore.Hbond>
0.9881

> <Gold.Chemscore.Metal>
0.0000

> <Gold.Chemscore.Lipo>
94.4653

> <Gold.Chemscore.Internal_Hbond>
0.0000

> <Gold.Chemscore.DEClash>
0.2011

> <Gold.Chemscore.DEInternal>
0.9631

> <Gold.Chemscore.Rot>
1.7460

> <Gold.Chemscore.Internal.Correction>
   9.000000E+99

> <Gold.Chemscore.Hbonds>
donor molecule, donor type, donor heavy atom, donor atom, acceptor molecule, acceptor atom, score
      P1  H  7954  7966       L1     6  1.00

> <Gold.Chemscore.Hbond.Weighted>
-3.3003

> <Gold.Chemscore.Metal.Weighted>
-0.0000

> <Gold.Chemscore.Lipo.Weighted>
-11.0524

> <Gold.Chemscore.Internal_Hbond.Weighted>
0.0000

> <Gold.Chemscore.DEClash.Weighted>
0.2011

> <Gold.Chemscore.DEInternal.Weighted>
0.9631

> <Gold.Chemscore.Rot.Weighted>
4.4697

> <Gold.Chemscore.Internal.Correction.Weighted>
   9.000000E+99

> <Gold.Protein.RotatedTorsions>
[ 6907 6896 6895 6894 ] final   97.41 input  -60.11 | X-H torsion
[ 7974 7965 7964 7962 ] final  -21.40 input  175.53 | X-H torsion
[ 8008 7997 7996 7995 ] final  177.40 input   59.86 | X-H torsion
[ 10167 10162 10161 10158 ] final  -79.22 input  -65.29 | X-H torsion
[ 10718 10713 10712 10709 ] final  -38.62 input   66.30 | X-H torsion
[ 10763 10752 10751 10750 ] final  161.80 input  -60.55 | X-H torsion
[ 11005 11000 10999 10996 ] final -147.41 input  -57.11 | X-H torsion

> <Gold.Protein.ActiveResidues>
 VAL166  LYS551  ARG553  GLY616  TRP617  ASP618  TYR619  PRO620  LYS621  CYS622 
 ASP623  PHE694  ASN695  SER759  ASP760  ASP761  ALA762  ILE779  LEU786  VAL792 
 PHE793  MET794  SER795  GLU796  ALA797  LYS798  CYS799  TRP800  GLU811  SER814 

> <Gold.Protein.RotatedAtoms>
  152.5424  134.0738  159.8205 H   0  0  0  0  0  0  0  0  0  0  0  0  # atno 6907 bound_to 6896
  151.0849  133.5354  159.2625 H   0  0  0  0  0  0  0  0  0  0  0  0  # atno 6908 bound_to 6896
  151.2167  135.0511  159.8987 H   0  0  0  0  0  0  0  0  0  0  0  0  # atno 6909 bound_to 6896
  146.1735  140.4336  142.8523 H   0  0  0  0  0  0  0  0  0  0  0  0  # atno 7974 bound_to 7965
  156.0661  140.1359  156.9884 H   0  0  0  0  0  0  0  0  0  0  0  0  # atno 8008 bound_to 7997
  154.4507  140.0981  156.6660 H   0  0  0  0  0  0  0  0  0  0  0  0  # atno 8009 bound_to 7997
  155.5302  140.3458  155.4427 H   0  0  0  0  0  0  0  0  0  0  0  0  # atno 8010 bound_to 7997
  140.4612  143.2453  151.8345 H   0  0  0  0  0  0  0  0  0  0  0  0  # atno 10167 bound_to 10162
  156.3017  130.4241  149.8136 H   0  0  0  0  0  0  0  0  0  0  0  0  # atno 10718 bound_to 10713
  154.2686  135.2766  155.2748 H   0  0  0  0  0  0  0  0  0  0  0  0  # atno 10763 bound_to 10752
  154.5322  135.5726  153.6771 H   0  0  0  0  0  0  0  0  0  0  0  0  # atno 10764 bound_to 10752
  152.9949  135.6230  154.2839 H   0  0  0  0  0  0  0  0  0  0  0  0  # atno 10765 bound_to 10752
  140.7720  134.3178  157.5072 H   0  0  0  0  0  0  0  0  0  0  0  0  # atno 11005 bound_to 11000
  144.8199  140.6533  143.6359 LP  0  0  0  0  0  0  0  0  0  0  0  0  # atno 17320 bound_to 7965
  145.4276  139.1554  143.4040 LP  0  0  0  0  0  0  0  0  0  0  0  0  # atno 17321 bound_to 7965
  139.4806  144.5005  151.9067 LP  0  0  0  0  0  0  0  0  0  0  0  0  # atno 17342 bound_to 10162
  140.4091  144.2393  150.5889 LP  0  0  0  0  0  0  0  0  0  0  0  0  # atno 17343 bound_to 10162
  156.5512  130.8343  151.3300 LP  0  0  0  0  0  0  0  0  0  0  0  0  # atno 17370 bound_to 10713
  157.7369  130.9787  150.2165 LP  0  0  0  0  0  0  0  0  0  0  0  0  # atno 17371 bound_to 10713
  139.8754  134.9266  156.3405 LP  0  0  0  0  0  0  0  0  0  0  0  0  # atno 17394 bound_to 11000
  140.9565  133.7416  156.0342 LP  0  0  0  0  0  0  0  0  0  0  0  0  # atno 17395 bound_to 11000

$$$$
