AV-unprocessed.smi:2426|AV-procd|sdf|9576|dock8
  -GOLD-   2272013213D 1   1.00000     0.00000
 Structure written by MMmdl.
 36 37  0  0  0  0  0  0  0  0  1 V2000
  150.9925  141.3868  156.0241 C   0  0  0  0  0  0  0  0  0  0  0  0
  150.6811  140.4064  155.0407 O   0  0  0  0  0  0  0  0  0  0  0  0
  149.3704  140.2930  154.6264 C   0  0  0  0  0  0  0  0  0  0  0  0
  148.9704  139.1495  153.9049 C   0  0  0  0  0  0  0  0  0  0  0  0
  147.6191  139.0726  153.4993 C   0  0  0  0  0  0  0  0  0  0  0  0
  147.2580  137.9050  152.7764 N   0  0  0  0  0  0  0  0  0  0  0  0
  146.0362  137.3616  152.6353 C   0  0  0  0  0  0  0  0  0  0  0  0
  144.9975  137.8078  153.1237 O   0  0  0  0  0  0  0  0  0  0  0  0
  146.0843  136.2513  151.8844 N   0  0  0  0  0  0  0  0  0  0  0  0
  144.9399  135.4171  151.5286 C   0  0  2  0  0  0  0  0  0  0  0  0
  144.1309  135.0608  152.7862 C   0  0  0  0  0  0  0  0  0  0  0  0
  145.4373  134.1736  150.7937 C   0  0  0  0  0  0  0  0  0  0  0  0
  144.4471  133.0661  150.4009 C   0  0  0  0  0  0  0  0  0  0  0  0
  145.5585  132.0448  150.6588 C   0  0  0  0  0  0  0  0  0  0  0  0
  146.2261  133.0945  151.5517 C   0  0  0  0  0  0  0  0  0  0  0  0
  146.7622  140.0773  153.8075 N   0  0  0  0  0  0  0  0  0  0  0  0
  147.2389  141.1172  154.4940 C   0  0  0  0  0  0  0  0  0  0  0  0
  148.4917  141.2816  154.9201 N   0  0  0  0  0  0  0  0  0  0  0  0
  152.0593  141.3518  156.2438 H   0  0  0  0  0  0  0  0  0  0  0  0
  150.4569  141.2014  156.9562 H   0  0  0  0  0  0  0  0  0  0  0  0
  150.7600  142.3925  155.6713 H   0  0  0  0  0  0  0  0  0  0  0  0
  149.6770  138.3656  153.6743 H   0  0  0  0  0  0  0  0  0  0  0  0
  148.0176  137.4277  152.3146 H   0  0  0  0  0  0  0  0  0  0  0  0
  146.9821  135.9589  151.5274 H   0  0  0  0  0  0  0  0  0  0  0  0
  144.2899  135.9809  150.8567 H   0  0  0  0  0  0  0  0  0  0  0  0
  143.2639  134.4495  152.5352 H   0  0  0  0  0  0  0  0  0  0  0  0
  143.7635  135.9564  153.2880 H   0  0  0  0  0  0  0  0  0  0  0  0
  144.7358  134.5026  153.5015 H   0  0  0  0  0  0  0  0  0  0  0  0
  146.0104  134.4543  149.9070 H   0  0  0  0  0  0  0  0  0  0  0  0
  143.6170  132.9704  151.1027 H   0  0  0  0  0  0  0  0  0  0  0  0
  144.0977  133.1111  149.3690 H   0  0  0  0  0  0  0  0  0  0  0  0
  145.2378  131.1403  151.1764 H   0  0  0  0  0  0  0  0  0  0  0  0
  146.1411  131.8173  149.7645 H   0  0  0  0  0  0  0  0  0  0  0  0
  147.3091  133.1632  151.4458 H   0  0  0  0  0  0  0  0  0  0  0  0
  145.9285  133.0075  152.5980 H   0  0  0  0  0  0  0  0  0  0  0  0
  146.5392  141.9057  154.7277 H   0  0  0  0  0  0  0  0  0  0  0  0
  1  2  1  0  0  0  0
  1 19  1  0  0  0  0
  1 20  1  0  0  0  0
  1 21  1  0  0  0  0
  2  3  1  0  0  0  0
  3 18  1  0  0  0  0
  3  4  2  0  0  0  0
  4  5  1  0  0  0  0
  4 22  1  0  0  0  0
  5  6  1  0  0  0  0
  5 16  2  0  0  0  0
  6  7  1  0  0  0  0
  6 23  1  0  0  0  0
  7  8  2  0  0  0  0
  7  9  1  0  0  0  0
  9 10  1  0  0  0  0
  9 24  1  0  0  0  0
 10 11  1  0  0  0  0
 10 12  1  0  0  0  0
 10 25  1  0  0  0  0
 11 26  1  0  0  0  0
 11 27  1  0  0  0  0
 11 28  1  0  0  0  0
 12 15  1  0  0  0  0
 12 13  1  0  0  0  0
 12 29  1  0  0  0  0
 13 14  1  0  0  0  0
 13 30  1  0  0  0  0
 13 31  1  0  0  0  0
 14 15  1  0  0  0  0
 14 32  1  0  0  0  0
 14 33  1  0  0  0  0
 15 34  1  0  0  0  0
 15 35  1  0  0  0  0
 16 17  1  0  0  0  0
 17 18  2  0  0  0  0
 17 36  1  0  0  0  0
M  END
> <s_m_source_file>
AV-unprocessed.smi

> <i_m_source_file_index>
2426

> <i_lp_mmshare_version>
43012

> <i_f3d_flags>
0

> <s_epik_input>
W0NIM11PYzFbY0hdYyhuW2NIXW4xKVtOSF1DKD1PKVtOSF1bQ0BIXShbQ0gzXSlbQ0hdMltDSDJdW0NIMl1bQ0gyXTI=

> <s_epik_cmdline>
J2VwaWtfcHl0aG9uJywgJy1waCcsICc3LjAnLCAnLXRuJywgJzgnLCAnLW1hJywgJzIwMCcsICctbWV0YWxfYmluZGluZycsICctaW1hZScsICc8aW5maWxlLm1hZT4nLCAnLW9tYWUnLCAnPG91dGZpbGUubWFlPic=

> <r_lp_tautomer_probability>
1

> <r_epik_Ionization_Penalty>
2.84534e-05

> <r_epik_Ionization_Penalty_Charging>
0

> <r_epik_Ionization_Penalty_Neutral>
2.84534e-05

> <r_epik_State_Penalty>
-0

> <r_epik_Charging_Adjusted_Penalty>
0

> <i_epik_Tot_Q>
0

> <i_epik_Tot_abs_Q>
0

> <r_epik_Metal_State_Penalty>
-0

> <b_epik_Metal_Only>
0

> <s_lp_Force_Field>
OPLS_2005

> <r_lp_Energy>
12.1235

> <b_lp_Chiralities_Consistent>
1

> <s_lp_Variant>
AV-unprocessed.smi:2426-1

> <Gold.Version>
5.8.1

> <Gold.Id.Protein>
6NUR|6NUR_protein|mol2

> <Gold.PLP.Fitness>
37.3495

> <Gold.PLP.PLP>
-29.5088

> <Gold.PLP.part.hbond>
-3.0000

> <Gold.PLP.part.metal>
0.0000

> <Gold.PLP.part.buried>
-4.3304

> <Gold.PLP.part.nonpolar>
-22.9799

> <Gold.PLP.part.repulsive>
1.2551

> <Gold.PLP.ligand.clash>
0.0000

> <Gold.PLP.ligand.torsion>
0.4130

> <Gold.PLP.Chemscore.Hbond>
2.8480

> <Gold.PLP.Chemscore.CHOScore>
0.0000

> <Gold.PLP.Chemscore.Metal>
0.0000

> <Gold.Chemscore.Hbonds>
donor molecule, donor type, donor heavy atom, donor atom, acceptor molecule, acceptor atom, score
      L1  H     6    23       P1  7948  1.00
      L1  H     9    24       P1  7948  0.85
      P1  H  7989  7998       L1     2  1.00

> <Gold.PLP.Chemscore.Internal.Correction>
0.1227

> <Gold.Rescore>
     Score         DG    S(hbond)    S(metal)    S(lipo)     H(rot)  DE(clash)    DE(int)     intcor
     13.83     -16.59       2.66        0.00      54.10       1.60       0.30       2.46       ----

> <Gold.Chemscore.Fitness>
13.8274

> <Gold.Chemscore.DG>
-16.5921

> <Gold.Chemscore.ZeroCoef>
-5.4800

> <Gold.Chemscore.Hbond>
2.6560

> <Gold.Chemscore.Metal>
0.0000

> <Gold.Chemscore.Lipo>
54.0996

> <Gold.Chemscore.Internal_Hbond>
0.0000

> <Gold.Chemscore.DEClash>
0.3006

> <Gold.Chemscore.DEInternal>
2.4642

> <Gold.Chemscore.Rot>
1.5971

> <Gold.Chemscore.Internal.Correction>
   9.000000E+99

> <Gold.Chemscore.Hbonds>
donor molecule, donor type, donor heavy atom, donor atom, acceptor molecule, acceptor atom, score
      L1  H     6    23       P1  7948  0.96
      L1  H     9    24       P1  7948  0.81
      P1  H  7989  7998       L1     2  0.27

> <Gold.Chemscore.Hbond.Weighted>
-8.8711

> <Gold.Chemscore.Metal.Weighted>
-0.0000

> <Gold.Chemscore.Lipo.Weighted>
-6.3297

> <Gold.Chemscore.Internal_Hbond.Weighted>
0.0000

> <Gold.Chemscore.DEClash.Weighted>
0.3006

> <Gold.Chemscore.DEInternal.Weighted>
2.4642

> <Gold.Chemscore.Rot.Weighted>
4.0886

> <Gold.Chemscore.Internal.Correction.Weighted>
   9.000000E+99

> <Gold.Protein.RotatedTorsions>
[ 6907 6896 6895 6894 ] final   69.14 input  -60.11 | X-H torsion
[ 7974 7965 7964 7962 ] final -151.61 input  175.53 | X-H torsion
[ 8008 7997 7996 7995 ] final   97.84 input   59.86 | X-H torsion
[ 10167 10162 10161 10158 ] final  103.54 input  -65.29 | X-H torsion
[ 10718 10713 10712 10709 ] final  -57.30 input   66.30 | X-H torsion
[ 10763 10752 10751 10750 ] final  -15.65 input  -60.55 | X-H torsion
[ 11005 11000 10999 10996 ] final   60.70 input  -57.11 | X-H torsion

> <Gold.Protein.ActiveResidues>
 VAL166  LYS551  ARG553  GLY616  TRP617  ASP618  TYR619  PRO620  LYS621  CYS622 
 ASP623  PHE694  ASN695  SER759  ASP760  ASP761  ALA762  ILE779  LEU786  VAL792 
 PHE793  MET794  SER795  GLU796  ALA797  LYS798  CYS799  TRP800  GLU811  SER814 

> <Gold.Protein.RotatedAtoms>
  152.4667  134.5059  159.9738 H   0  0  0  0  0  0  0  0  0  0  0  0  # atno 6907 bound_to 6896
  151.5096  133.3482  159.2890 H   0  0  0  0  0  0  0  0  0  0  0  0  # atno 6908 bound_to 6896
  150.8654  134.8045  159.7177 H   0  0  0  0  0  0  0  0  0  0  0  0  # atno 6909 bound_to 6896
  144.7840  140.4775  143.5819 H   0  0  0  0  0  0  0  0  0  0  0  0  # atno 7974 bound_to 7965
  156.0942  140.3252  155.7856 H   0  0  0  0  0  0  0  0  0  0  0  0  # atno 8008 bound_to 7997
  155.4945  140.0564  157.2966 H   0  0  0  0  0  0  0  0  0  0  0  0  # atno 8009 bound_to 7997
  154.4656  140.1988  156.0142 H   0  0  0  0  0  0  0  0  0  0  0  0  # atno 8010 bound_to 7997
  139.7254  144.7049  151.0806 H   0  0  0  0  0  0  0  0  0  0  0  0  # atno 10167 bound_to 10162
  156.1222  130.4165  150.0421 H   0  0  0  0  0  0  0  0  0  0  0  0  # atno 10718 bound_to 10713
  153.5466  135.7012  153.5611 H   0  0  0  0  0  0  0  0  0  0  0  0  # atno 10763 bound_to 10752
  153.3553  135.3984  155.1677 H   0  0  0  0  0  0  0  0  0  0  0  0  # atno 10764 bound_to 10752
  154.8667  135.3775  154.4974 H   0  0  0  0  0  0  0  0  0  0  0  0  # atno 10765 bound_to 10752
  140.0213  134.6149  155.9636 H   0  0  0  0  0  0  0  0  0  0  0  0  # atno 11005 bound_to 11000
  145.5972  139.1500  143.3149 LP  0  0  0  0  0  0  0  0  0  0  0  0  # atno 17320 bound_to 7965
  146.2063  140.6095  142.9079 LP  0  0  0  0  0  0  0  0  0  0  0  0  # atno 17321 bound_to 7965
  140.7761  143.5112  150.9650 LP  0  0  0  0  0  0  0  0  0  0  0  0  # atno 17342 bound_to 10162
  139.8800  143.7084  152.3158 LP  0  0  0  0  0  0  0  0  0  0  0  0  # atno 17343 bound_to 10162
  156.8356  130.9408  151.3635 LP  0  0  0  0  0  0  0  0  0  0  0  0  # atno 17370 bound_to 10713
  157.6405  130.8801  149.9439 LP  0  0  0  0  0  0  0  0  0  0  0  0  # atno 17371 bound_to 10713
  141.1775  133.6542  156.4888 LP  0  0  0  0  0  0  0  0  0  0  0  0  # atno 17394 bound_to 11000
  140.4382  134.7039  157.4978 LP  0  0  0  0  0  0  0  0  0  0  0  0  # atno 17395 bound_to 11000

$$$$
