AV-unprocessed.smi:2473|AV-procd|sdf|9749|dock1
  -GOLD-   2272013393D 1   1.00000     0.00000
 Structure written by MMmdl.
 47 48  0  0  0  0  0  0  0  0  1 V2000
  153.9948  141.5125  160.8499 C   0  0  0  0  0  0  0  0  0  0  0  0
  152.7950  142.1424  160.1282 C   0  0  2  0  0  0  0  0  0  0  0  0
  152.0393  141.0980  159.2894 C   0  0  0  0  0  0  0  0  0  0  0  0
  150.8274  141.7199  158.5684 C   0  0  2  0  0  0  0  0  0  0  0  0
  150.0969  140.6577  157.7364 C   0  0  0  0  0  0  0  0  0  0  0  0
  148.9041  140.4266  157.9356 O   0  0  0  0  0  0  0  0  0  0  0  0
  150.8185  140.0421  156.7856 N   0  0  0  0  0  0  0  0  0  0  0  0
  150.2939  139.1011  155.7991 C   0  0  0  0  0  0  0  0  0  0  0  0
  150.1385  139.7434  154.4064 C   0  0  0  0  0  0  0  0  0  0  0  0
  148.9153  140.6018  154.2646 C   0  0  0  0  0  0  0  0  0  0  0  0
  148.9456  141.9305  154.3011 N   0  0  0  0  0  0  0  0  0  0  0  0
  147.6279  142.3225  154.0936 C   0  0  0  0  0  0  0  0  0  0  0  0
  146.8390  141.2081  153.9429 C   0  0  0  0  0  0  0  0  0  0  0  0
  147.6780  140.1077  154.0559 N   0  0  0  0  0  0  0  0  0  0  0  0
  147.2711  138.7187  153.9585 C   0  0  0  0  0  0  0  0  0  0  0  0
  151.2812  142.9035  157.6851 C   0  0  0  0  0  0  0  0  0  0  0  0
  152.0659  143.9893  158.4637 C   0  0  0  0  0  0  0  0  0  0  0  0
  152.6520  144.9966  157.4549 C   0  0  0  0  0  0  0  0  0  0  0  0
  151.1345  144.7683  159.4184 C   0  0  0  0  0  0  0  0  0  0  0  0
  153.2314  143.3280  159.2422 C   0  0  0  0  0  0  0  0  0  0  0  0
  154.7181  141.1098  160.1402 H   0  0  0  0  0  0  0  0  0  0  0  0
  153.6772  140.6970  161.5002 H   0  0  0  0  0  0  0  0  0  0  0  0
  154.5094  142.2466  161.4703 H   0  0  0  0  0  0  0  0  0  0  0  0
  152.1190  142.5124  160.8991 H   0  0  0  0  0  0  0  0  0  0  0  0
  152.7221  140.6557  158.5615 H   0  0  0  0  0  0  0  0  0  0  0  0
  151.7097  140.2819  159.9333 H   0  0  0  0  0  0  0  0  0  0  0  0
  150.1322  142.0886  159.3236 H   0  0  0  0  0  0  0  0  0  0  0  0
  151.7938  140.2897  156.7016 H   0  0  0  0  0  0  0  0  0  0  0  0
  150.9775  138.2545  155.7363 H   0  0  0  0  0  0  0  0  0  0  0  0
  149.3370  138.6923  156.1275 H   0  0  0  0  0  0  0  0  0  0  0  0
  151.0268  140.3287  154.1688 H   0  0  0  0  0  0  0  0  0  0  0  0
  150.0923  138.9581  153.6515 H   0  0  0  0  0  0  0  0  0  0  0  0
  147.3521  143.3662  154.0687 H   0  0  0  0  0  0  0  0  0  0  0  0
  145.7780  141.1100  153.7671 H   0  0  0  0  0  0  0  0  0  0  0  0
  146.2141  138.6542  153.6991 H   0  0  0  0  0  0  0  0  0  0  0  0
  147.4310  138.2195  154.9143 H   0  0  0  0  0  0  0  0  0  0  0  0
  147.8506  138.2126  153.1869 H   0  0  0  0  0  0  0  0  0  0  0  0
  151.9129  142.5223  156.8805 H   0  0  0  0  0  0  0  0  0  0  0  0
  150.4158  143.3531  157.1956 H   0  0  0  0  0  0  0  0  0  0  0  0
  153.2211  145.7788  157.9586 H   0  0  0  0  0  0  0  0  0  0  0  0
  151.8658  145.4832  156.8766 H   0  0  0  0  0  0  0  0  0  0  0  0
  153.3237  144.5101  156.7464 H   0  0  0  0  0  0  0  0  0  0  0  0
  151.6794  145.5497  159.9492 H   0  0  0  0  0  0  0  0  0  0  0  0
  150.6751  144.1306  160.1718 H   0  0  0  0  0  0  0  0  0  0  0  0
  150.3252  145.2517  158.8703 H   0  0  0  0  0  0  0  0  0  0  0  0
  153.7392  144.0759  159.8528 H   0  0  0  0  0  0  0  0  0  0  0  0
  153.9772  142.9693  158.5310 H   0  0  0  0  0  0  0  0  0  0  0  0
  1  2  1  0  0  0  0
  1 21  1  0  0  0  0
  1 22  1  0  0  0  0
  1 23  1  0  0  0  0
  2 20  1  0  0  0  0
  2  3  1  0  0  0  0
  2 24  1  0  0  0  0
  3  4  1  0  0  0  0
  3 25  1  0  0  0  0
  3 26  1  0  0  0  0
  4  5  1  0  0  0  0
  4 16  1  0  0  0  0
  4 27  1  0  0  0  0
  5  6  2  0  0  0  0
  5  7  1  0  0  0  0
  7  8  1  0  0  0  0
  7 28  1  0  0  0  0
  8  9  1  0  0  0  0
  8 29  1  0  0  0  0
  8 30  1  0  0  0  0
  9 10  1  0  0  0  0
  9 31  1  0  0  0  0
  9 32  1  0  0  0  0
 10 14  1  0  0  0  0
 10 11  2  0  0  0  0
 11 12  1  0  0  0  0
 12 13  2  0  0  0  0
 12 33  1  0  0  0  0
 13 14  1  0  0  0  0
 13 34  1  0  0  0  0
 14 15  1  0  0  0  0
 15 35  1  0  0  0  0
 15 36  1  0  0  0  0
 15 37  1  0  0  0  0
 16 17  1  0  0  0  0
 16 38  1  0  0  0  0
 16 39  1  0  0  0  0
 17 18  1  0  0  0  0
 17 19  1  0  0  0  0
 17 20  1  0  0  0  0
 18 40  1  0  0  0  0
 18 41  1  0  0  0  0
 18 42  1  0  0  0  0
 19 43  1  0  0  0  0
 19 44  1  0  0  0  0
 19 45  1  0  0  0  0
 20 46  1  0  0  0  0
 20 47  1  0  0  0  0
M  END
> <s_m_source_file>
AV-unprocessed.smi

> <i_m_source_file_index>
2473

> <i_lp_mmshare_version>
43012

> <i_f3d_flags>
0

> <s_epik_input>
W0NIM11bQ0BASF0oW0NIMl0xKVtDSDJdW0NASF0oW0NIMl1DMShbQ0gzXSlbQ0gzXSlDKD1PKVtOSF1bQ0gyXVtDSDJdYzJuW2NIXVtjSF1uMltDSDNd

> <s_epik_cmdline>
J2VwaWtfcHl0aG9uJywgJy1waCcsICc3LjAnLCAnLXRuJywgJzgnLCAnLW1hJywgJzIwMCcsICctbWV0YWxfYmluZGluZycsICctaW1hZScsICc8aW5maWxlLm1hZT4nLCAnLW9tYWUnLCAnPG91dGZpbGUubWFlPic=

> <r_lp_tautomer_probability>
1

> <r_epik_Ionization_Penalty>
1.22858

> <r_epik_Ionization_Penalty_Charging>
1.22858

> <r_epik_Ionization_Penalty_Neutral>
2.12671e-08

> <r_epik_State_Penalty>
1.2965

> <r_epik_Charging_Adjusted_Penalty>
2.52508

> <i_epik_Tot_Q>
0

> <i_epik_Tot_abs_Q>
0

> <r_epik_Metal_State_Penalty>
0.411461

> <b_epik_Metal_Only>
0

> <s_lp_Force_Field>
OPLS_2005

> <r_lp_Energy>
12.8127

> <b_lp_Chiralities_Consistent>
1

> <s_lp_Variant>
AV-unprocessed.smi:2473-7

> <Gold.Version>
5.8.1

> <Gold.Id.Protein>
6NUR|6NUR_protein|mol2

> <Gold.PLP.Fitness>
48.7043

> <Gold.PLP.PLP>
-44.0004

> <Gold.PLP.part.hbond>
-1.0000

> <Gold.PLP.part.metal>
0.0000

> <Gold.PLP.part.buried>
-3.6086

> <Gold.PLP.part.nonpolar>
-39.3292

> <Gold.PLP.part.repulsive>
0.5348

> <Gold.PLP.ligand.clash>
0.0000

> <Gold.PLP.ligand.torsion>
0.4655

> <Gold.PLP.Chemscore.Hbond>
0.2501

> <Gold.PLP.Chemscore.CHOScore>
1.6228

> <Gold.PLP.Chemscore.Metal>
0.0000

> <Gold.Chemscore.Hbonds>
donor molecule, donor type, donor heavy atom, donor atom, acceptor molecule, acceptor atom, score
      P1  H  8011  8017       L1    11  0.25
      L1  C    12    33       P1  8028  0.62
      L1  C    13    34       P1 10175  1.00

> <Gold.PLP.Chemscore.Internal.Correction>
0.0160

> <Gold.Rescore>
     Score         DG    S(hbond)    S(metal)    S(lipo)     H(rot)  DE(clash)    DE(int)     intcor
     15.44     -18.12       0.28        0.00     133.17       1.51       2.32       0.36       ----

> <Gold.Chemscore.Fitness>
15.4408

> <Gold.Chemscore.DG>
-18.1178

> <Gold.Chemscore.ZeroCoef>
-5.4800

> <Gold.Chemscore.Hbond>
0.2769

> <Gold.Chemscore.Metal>
0.0000

> <Gold.Chemscore.Lipo>
133.1690

> <Gold.Chemscore.Internal_Hbond>
0.0000

> <Gold.Chemscore.DEClash>
2.3206

> <Gold.Chemscore.DEInternal>
0.3563

> <Gold.Chemscore.Rot>
1.5109

> <Gold.Chemscore.Internal.Correction>
   9.000000E+99

> <Gold.Chemscore.Hbonds>
donor molecule, donor type, donor heavy atom, donor atom, acceptor molecule, acceptor atom, score
      P1  H  8011  8017       L1    11  0.03

> <Gold.Chemscore.Hbond.Weighted>
-0.9250

> <Gold.Chemscore.Metal.Weighted>
-0.0000

> <Gold.Chemscore.Lipo.Weighted>
-15.5808

> <Gold.Chemscore.Internal_Hbond.Weighted>
0.0000

> <Gold.Chemscore.DEClash.Weighted>
2.3206

> <Gold.Chemscore.DEInternal.Weighted>
0.3563

> <Gold.Chemscore.Rot.Weighted>
3.8680

> <Gold.Chemscore.Internal.Correction.Weighted>
   9.000000E+99

> <Gold.Protein.RotatedTorsions>
[ 6907 6896 6895 6894 ] final -165.84 input  -60.11 | X-H torsion
[ 7974 7965 7964 7962 ] final   89.26 input  175.53 | X-H torsion
[ 8008 7997 7996 7995 ] final   13.78 input   59.86 | X-H torsion
[ 10167 10162 10161 10158 ] final   58.57 input  -65.29 | X-H torsion
[ 10718 10713 10712 10709 ] final  165.71 input   66.30 | X-H torsion
[ 10763 10752 10751 10750 ] final   71.59 input  -60.55 | X-H torsion
[ 11005 11000 10999 10996 ] final -104.02 input  -57.11 | X-H torsion

> <Gold.Protein.ActiveResidues>
 VAL166  LYS551  ARG553  GLY616  TRP617  ASP618  TYR619  PRO620  LYS621  CYS622 
 ASP623  PHE694  ASN695  SER759  ASP760  ASP761  ALA762  ILE779  LEU786  VAL792 
 PHE793  MET794  SER795  GLU796  ALA797  LYS798  CYS799  TRP800  GLU811  SER814 

> <Gold.Protein.RotatedAtoms>
  151.4340  133.3662  159.2772 H   0  0  0  0  0  0  0  0  0  0  0  0  # atno 6907 bound_to 6896
  150.9204  134.8623  159.7496 H   0  0  0  0  0  0  0  0  0  0  0  0  # atno 6908 bound_to 6896
  152.4979  134.4278  159.9554 H   0  0  0  0  0  0  0  0  0  0  0  0  # atno 6909 bound_to 6896
  145.5347  139.2285  143.2599 H   0  0  0  0  0  0  0  0  0  0  0  0  # atno 7974 bound_to 7965
  154.8392  140.2912  155.5671 H   0  0  0  0  0  0  0  0  0  0  0  0  # atno 8008 bound_to 7997
  156.3010  140.2517  156.3263 H   0  0  0  0  0  0  0  0  0  0  0  0  # atno 8009 bound_to 7997
  154.9144  140.0387  157.1953 H   0  0  0  0  0  0  0  0  0  0  0  0  # atno 8010 bound_to 7997
  140.1858  144.4135  150.6594 H   0  0  0  0  0  0  0  0  0  0  0  0  # atno 10167 bound_to 10162
  157.0763  131.0380  151.2592 H   0  0  0  0  0  0  0  0  0  0  0  0  # atno 10718 bound_to 10713
  153.0408  135.5131  154.7616 H   0  0  0  0  0  0  0  0  0  0  0  0  # atno 10763 bound_to 10752
  154.6555  135.2931  154.9935 H   0  0  0  0  0  0  0  0  0  0  0  0  # atno 10764 bound_to 10752
  154.0804  135.6665  153.4889 H   0  0  0  0  0  0  0  0  0  0  0  0  # atno 10765 bound_to 10752
  141.1120  133.8688  157.1558 H   0  0  0  0  0  0  0  0  0  0  0  0  # atno 11005 bound_to 11000
  146.2021  140.6165  142.9098 LP  0  0  0  0  0  0  0  0  0  0  0  0  # atno 17320 bound_to 7965
  144.7608  140.5416  143.6737 LP  0  0  0  0  0  0  0  0  0  0  0  0  # atno 17321 bound_to 7965
  140.6489  143.2220  151.6123 LP  0  0  0  0  0  0  0  0  0  0  0  0  # atno 17342 bound_to 10162
  139.5276  144.3011  152.1073 LP  0  0  0  0  0  0  0  0  0  0  0  0  # atno 17343 bound_to 10162
  157.4837  130.7780  149.7439 LP  0  0  0  0  0  0  0  0  0  0  0  0  # atno 17370 bound_to 10713
  155.9936  130.3923  150.2893 LP  0  0  0  0  0  0  0  0  0  0  0  0  # atno 17371 bound_to 10713
  140.0019  135.0024  157.0208 LP  0  0  0  0  0  0  0  0  0  0  0  0  # atno 17394 bound_to 11000
  140.4750  134.1347  155.7208 LP  0  0  0  0  0  0  0  0  0  0  0  0  # atno 17395 bound_to 11000

$$$$
