AV-unprocessed.smi:1056|AV-procd|sdf|4639|dock4
  -GOLD-   22720 3143D 1   1.00000     0.00000
 Structure written by MMmdl.
 44 46  0  0  0  0  0  0  0  0  1 V2000
  152.9248  142.8685  161.5378 C   0  0  0  0  0  0  0  0  0  0  0  0
  152.3729  142.5491  160.1594 C   0  0  0  0  0  0  0  0  0  0  0  0
  152.7546  141.3434  159.5288 C   0  0  0  0  0  0  0  0  0  0  0  0
  152.2629  141.0090  158.2478 C   0  0  0  0  0  0  0  0  0  0  0  0
  152.4995  139.8976  157.4568 N   0  0  0  0  0  0  0  0  0  0  0  0
  151.7594  140.1693  156.3859 C   0  0  0  0  0  0  0  0  0  0  0  0
  151.0708  141.3266  156.3890 N   0  0  0  0  0  0  0  0  0  0  0  0
  150.2039  141.8285  155.3377 C   0  0  0  0  0  0  0  0  0  0  0  0
  149.2837  140.7363  154.7587 C   0  0  1  0  0  0  0  0  0  0  0  0
  150.0056  139.9721  153.8121 O   0  0  0  0  0  0  0  0  0  0  0  0
  148.7632  139.7912  155.8617 C   0  0  0  0  0  0  0  0  0  0  0  0
  147.5480  140.2336  156.5683 N   0  0  0  0  0  0  0  0  0  0  0  0
  146.4004  139.3356  156.3960 C   0  0  0  0  0  0  0  0  0  0  0  0
  145.8584  139.3016  154.9527 C   0  0  0  0  0  0  0  0  0  0  0  0
  145.8181  140.6302  154.3426 N   0  0  0  0  0  0  0  0  0  0  0  0
  146.4349  141.7197  154.8327 C   0  0  0  0  0  0  0  0  0  0  0  0
  146.4130  142.7977  154.2437 O   0  0  0  0  0  0  0  0  0  0  0  0
  147.1592  141.6009  156.1890 C   0  0  0  0  0  0  0  0  0  0  0  0
  151.3733  141.9219  157.6091 C   0  0  0  0  0  0  0  0  0  0  0  0
  150.9859  143.1240  158.2268 C   0  0  0  0  0  0  0  0  0  0  0  0
  151.4856  143.4424  159.5069 C   0  0  0  0  0  0  0  0  0  0  0  0
  151.0597  144.7423  160.1660 C   0  0  0  0  0  0  0  0  0  0  0  0
  153.5671  142.0674  161.9051 H   0  0  0  0  0  0  0  0  0  0  0  0
  152.1136  143.0010  162.2543 H   0  0  0  0  0  0  0  0  0  0  0  0
  153.5155  143.7844  161.5091 H   0  0  0  0  0  0  0  0  0  0  0  0
  153.4302  140.6626  160.0252 H   0  0  0  0  0  0  0  0  0  0  0  0
  151.7134  139.4872  155.5496 H   0  0  0  0  0  0  0  0  0  0  0  0
  149.6158  142.6572  155.7341 H   0  0  0  0  0  0  0  0  0  0  0  0
  150.8335  142.2442  154.5500 H   0  0  0  0  0  0  0  0  0  0  0  0
  148.4572  141.2287  154.2486 H   0  0  0  0  0  0  0  0  0  0  0  0
  149.5739  140.0500  152.9749 H   0  0  0  0  0  0  0  0  0  0  0  0
  148.5722  138.8224  155.3974 H   0  0  0  0  0  0  0  0  0  0  0  0
  149.5650  139.6075  156.5774 H   0  0  0  0  0  0  0  0  0  0  0  0
  146.6262  138.3280  156.7410 H   0  0  0  0  0  0  0  0  0  0  0  0
  145.5984  139.6763  157.0528 H   0  0  0  0  0  0  0  0  0  0  0  0
  146.4859  138.6624  154.3311 H   0  0  0  0  0  0  0  0  0  0  0  0
  144.8588  138.8668  154.9346 H   0  0  0  0  0  0  0  0  0  0  0  0
  145.3240  140.7196  153.4665 H   0  0  0  0  0  0  0  0  0  0  0  0
  146.4783  141.9945  156.9446 H   0  0  0  0  0  0  0  0  0  0  0  0
  148.0246  142.2650  156.2019 H   0  0  0  0  0  0  0  0  0  0  0  0
  150.3065  143.7932  157.7197 H   0  0  0  0  0  0  0  0  0  0  0  0
  150.3990  145.3188  159.5179 H   0  0  0  0  0  0  0  0  0  0  0  0
  151.9291  145.3600  160.3916 H   0  0  0  0  0  0  0  0  0  0  0  0
  150.5258  144.5414  161.0951 H   0  0  0  0  0  0  0  0  0  0  0  0
  1  2  1  0  0  0  0
  1 23  1  0  0  0  0
  1 24  1  0  0  0  0
  1 25  1  0  0  0  0
  2 21  1  0  0  0  0
  2  3  2  0  0  0  0
  3  4  1  0  0  0  0
  3 26  1  0  0  0  0
  4 19  2  0  0  0  0
  4  5  1  0  0  0  0
  5  6  2  0  0  0  0
  6  7  1  0  0  0  0
  6 27  1  0  0  0  0
  7  8  1  0  0  0  0
  7 19  1  0  0  0  0
  8  9  1  0  0  0  0
  8 28  1  0  0  0  0
  8 29  1  0  0  0  0
  9 10  1  0  0  0  0
  9 11  1  0  0  0  0
  9 30  1  0  0  0  0
 10 31  1  0  0  0  0
 11 12  1  0  0  0  0
 11 32  1  0  0  0  0
 11 33  1  0  0  0  0
 12 18  1  0  0  0  0
 12 13  1  0  0  0  0
 13 14  1  0  0  0  0
 13 34  1  0  0  0  0
 13 35  1  0  0  0  0
 14 15  1  0  0  0  0
 14 36  1  0  0  0  0
 14 37  1  0  0  0  0
 15 16  1  0  0  0  0
 15 38  1  0  0  0  0
 16 17  2  0  0  0  0
 16 18  1  0  0  0  0
 18 39  1  0  0  0  0
 18 40  1  0  0  0  0
 19 20  1  0  0  0  0
 20 21  2  0  0  0  0
 20 41  1  0  0  0  0
 21 22  1  0  0  0  0
 22 42  1  0  0  0  0
 22 43  1  0  0  0  0
 22 44  1  0  0  0  0
M  END
> <s_m_source_file>
AV-unprocessed.smi

> <i_m_source_file_index>
1056

> <i_lp_mmshare_version>
43012

> <i_f3d_flags>
0

> <s_epik_input>
W0NIM11jKFtjSF0xKWMoW0NIM10pW2NIXWMoYzEyKW4oW2NIXW4yKVtDSDJdW0NASF0oW09IXSlbQ0gyXU4zW0NIMl1bQ0gyXVtOSF1DKD1PKVtDSDJdMw==

> <s_epik_cmdline>
J2VwaWtfcHl0aG9uJywgJy1waCcsICc3LjAnLCAnLXRuJywgJzgnLCAnLW1hJywgJzIwMCcsICctbWV0YWxfYmluZGluZycsICctaW1hZScsICc8aW5maWxlLm1hZT4nLCAnLW9tYWUnLCAnPG91dGZpbGUubWFlPic=

> <r_epik_Ionization_Penalty>
1.40166

> <r_epik_Ionization_Penalty_Charging>
0

> <r_epik_Ionization_Penalty_Neutral>
1.40166

> <r_epik_State_Penalty>
1.44226

> <r_epik_Charging_Adjusted_Penalty>
1.44226

> <i_epik_Tot_Q>
0

> <i_epik_Tot_abs_Q>
0

> <r_epik_Metal_State_Penalty>
1.50267

> <b_epik_Metal_Only>
0

> <s_lp_Force_Field>
OPLS_2005

> <r_lp_Energy>
31.4444

> <b_lp_Chiralities_Consistent>
1

> <s_lp_Variant>
AV-unprocessed.smi:1056-10

> <Gold.Version>
5.8.1

> <Gold.Id.Protein>
6NUR|6NUR_protein|mol2

> <Gold.PLP.Fitness>
46.6201

> <Gold.PLP.PLP>
-39.6119

> <Gold.PLP.part.hbond>
-4.0000

> <Gold.PLP.part.metal>
0.0000

> <Gold.PLP.part.buried>
-5.5850

> <Gold.PLP.part.nonpolar>
-29.6926

> <Gold.PLP.part.repulsive>
0.2111

> <Gold.PLP.ligand.clash>
1.6933

> <Gold.PLP.ligand.torsion>
1.4531

> <Gold.PLP.Chemscore.Hbond>
3.8560

> <Gold.PLP.Chemscore.CHOScore>
0.0000

> <Gold.PLP.Chemscore.Metal>
0.0000

> <Gold.Chemscore.Hbonds>
donor molecule, donor type, donor heavy atom, donor atom, acceptor molecule, acceptor atom, score
      L1  H    10    31       P1  7957  1.00
      L1  H    15    38       P1 10175  0.98
      P1  H  7989  7998       L1    10  0.83
      P1  H  7997  8008       L1     5  0.96

> <Gold.PLP.Chemscore.Internal.Correction>
0.0397

> <Gold.Rescore>
     Score         DG    S(hbond)    S(metal)    S(lipo)     H(rot)  DE(clash)    DE(int)     intcor
     17.45     -20.05       2.72        0.00      97.65       2.31       0.59       2.01       ----

> <Gold.Chemscore.Fitness>
17.4500

> <Gold.Chemscore.DG>
-20.0538

> <Gold.Chemscore.ZeroCoef>
-5.4800

> <Gold.Chemscore.Hbond>
2.7169

> <Gold.Chemscore.Metal>
0.0000

> <Gold.Chemscore.Lipo>
97.6501

> <Gold.Chemscore.Internal_Hbond>
0.0000

> <Gold.Chemscore.DEClash>
0.5941

> <Gold.Chemscore.DEInternal>
2.0098

> <Gold.Chemscore.Rot>
2.3147

> <Gold.Chemscore.Internal.Correction>
   9.000000E+99

> <Gold.Chemscore.Hbonds>
donor molecule, donor type, donor heavy atom, donor atom, acceptor molecule, acceptor atom, score
      L1  H    10    31       P1  7957  0.95
      L1  H    15    38       P1 10175  0.83
      P1  H  7989  7998       L1    10  0.16
      P1  H  7997  8008       L1     5  0.22

> <Gold.Chemscore.Hbond.Weighted>
-9.0743

> <Gold.Chemscore.Metal.Weighted>
-0.0000

> <Gold.Chemscore.Lipo.Weighted>
-11.4251

> <Gold.Chemscore.Internal_Hbond.Weighted>
0.0000

> <Gold.Chemscore.DEClash.Weighted>
0.5941

> <Gold.Chemscore.DEInternal.Weighted>
2.0098

> <Gold.Chemscore.Rot.Weighted>
5.9256

> <Gold.Chemscore.Internal.Correction.Weighted>
   9.000000E+99

> <Gold.Protein.RotatedTorsions>
[ 6907 6896 6895 6894 ] final   50.27 input  -60.11 | X-H torsion
[ 7974 7965 7964 7962 ] final -114.06 input  175.53 | X-H torsion
[ 8008 7997 7996 7995 ] final  -69.24 input   59.86 | X-H torsion
[ 10167 10162 10161 10158 ] final   23.95 input  -65.29 | X-H torsion
[ 10718 10713 10712 10709 ] final -150.63 input   66.30 | X-H torsion
[ 10763 10752 10751 10750 ] final -160.76 input  -60.55 | X-H torsion
[ 11005 11000 10999 10996 ] final -178.66 input  -57.11 | X-H torsion

> <Gold.Protein.ActiveResidues>
 VAL166  LYS551  ARG553  GLY616  TRP617  ASP618  TYR619  PRO620  LYS621  CYS622 
 ASP623  PHE694  ASN695  SER759  ASP760  ASP761  ALA762  ILE779  LEU786  VAL792 
 PHE793  MET794  SER795  GLU796  ALA797  LYS798  CYS799  TRP800  GLU811  SER814 

> <Gold.Protein.RotatedAtoms>
  152.3000  134.7622  160.0359 H   0  0  0  0  0  0  0  0  0  0  0  0  # atno 6907 bound_to 6896
  151.8139  133.3380  159.3572 H   0  0  0  0  0  0  0  0  0  0  0  0  # atno 6908 bound_to 6896
  150.7269  134.5567  159.5866 H   0  0  0  0  0  0  0  0  0  0  0  0  # atno 6909 bound_to 6896
  145.1246  140.8689  143.3793 H   0  0  0  0  0  0  0  0  0  0  0  0  # atno 7974 bound_to 7965
  154.4924  140.0857  156.7623 H   0  0  0  0  0  0  0  0  0  0  0  0  # atno 8008 bound_to 7997
  155.4198  140.3445  155.4252 H   0  0  0  0  0  0  0  0  0  0  0  0  # atno 8009 bound_to 7997
  156.1348  140.1512  156.8999 H   0  0  0  0  0  0  0  0  0  0  0  0  # atno 8010 bound_to 7997
  140.5227  143.9975  150.6425 H   0  0  0  0  0  0  0  0  0  0  0  0  # atno 10167 bound_to 10162
  156.4486  130.8157  151.2387 H   0  0  0  0  0  0  0  0  0  0  0  0  # atno 10718 bound_to 10713
  154.7362  135.3058  154.8807 H   0  0  0  0  0  0  0  0  0  0  0  0  # atno 10763 bound_to 10752
  153.9635  135.6750  153.4749 H   0  0  0  0  0  0  0  0  0  0  0  0  # atno 10764 bound_to 10752
  153.0965  135.4933  154.8710 H   0  0  0  0  0  0  0  0  0  0  0  0  # atno 10765 bound_to 10752
  140.4273  134.6551  157.4694 H   0  0  0  0  0  0  0  0  0  0  0  0  # atno 11005 bound_to 11000
  145.0702  139.3037  143.5836 LP  0  0  0  0  0  0  0  0  0  0  0  0  # atno 17320 bound_to 7965
  146.3518  140.0174  142.8661 LP  0  0  0  0  0  0  0  0  0  0  0  0  # atno 17321 bound_to 7965
  140.3328  143.3067  152.0669 LP  0  0  0  0  0  0  0  0  0  0  0  0  # atno 17342 bound_to 10162
  139.4928  144.6497  151.6702 LP  0  0  0  0  0  0  0  0  0  0  0  0  # atno 17343 bound_to 10162
  157.7504  131.0145  150.3467 LP  0  0  0  0  0  0  0  0  0  0  0  0  # atno 17370 bound_to 10713
  156.3840  130.3886  149.7079 LP  0  0  0  0  0  0  0  0  0  0  0  0  # atno 17371 bound_to 10713
  140.0158  134.6621  155.9311 LP  0  0  0  0  0  0  0  0  0  0  0  0  # atno 17394 bound_to 11000
  141.1760  133.6540  156.4830 LP  0  0  0  0  0  0  0  0  0  0  0  0  # atno 17395 bound_to 11000

$$$$
