AV-unprocessed.smi:1030|AV-procd|sdf|4479|dock2
  -GOLD-   22720 2453D 1   1.00000     0.00000
 Structure written by MMmdl.
 28 29  0  0  0  0  0  0  0  0  2 V2000
  152.0529  137.4128  154.2278 N   0  5  0  0  0  0  0  0  0  0  0  0
  151.8907  138.7766  155.0760 S   0  0  0  0  0  0  0  0  0  0  0  0
  153.1766  139.2645  155.5988 O   0  0  0  0  0  0  0  0  0  0  0  0
  151.0027  139.7547  154.4279 O   0  0  0  0  0  0  0  0  0  0  0  0
  150.9851  138.0877  156.4765 C   0  0  0  0  0  0  0  0  0  0  0  0
  150.4444  136.7891  156.3640 C   0  0  0  0  0  0  0  0  0  0  0  0
  149.7397  136.2474  157.4553 C   0  0  0  0  0  0  0  0  0  0  0  0
  149.6064  137.0284  158.6182 C   0  0  0  0  0  0  0  0  0  0  0  0
  150.1170  138.2716  158.7389 N   0  0  0  0  0  0  0  0  0  0  0  0
  150.7946  138.8015  157.6899 C   0  0  0  0  0  0  0  0  0  0  0  0
  151.2965  140.1022  157.8501 N   0  0  0  0  0  0  0  0  0  0  0  0
  150.3048  141.1527  157.6655 C   0  0  0  0  0  0  0  0  0  0  0  0
  150.9972  142.5263  157.6725 C   0  0  0  0  0  0  0  0  0  0  0  0
  151.7401  142.6812  158.8796 O   0  0  0  0  0  0  0  0  0  0  0  0
  152.7538  141.6879  159.0159 C   0  0  0  0  0  0  0  0  0  0  0  0
  152.1096  140.2911  159.0433 C   0  0  0  0  0  0  0  0  0  0  0  0
  151.1891  137.2744  153.6905 H   0  0  0  0  0  0  0  0  0  0  0  0
  150.5595  136.2099  155.4603 H   0  0  0  0  0  0  0  0  0  0  0  0
  149.3125  135.2571  157.4012 H   0  0  0  0  0  0  0  0  0  0  0  0
  149.0727  136.6454  159.4752 H   0  0  0  0  0  0  0  0  0  0  0  0
  149.7767  141.0025  156.7231 H   0  0  0  0  0  0  0  0  0  0  0  0
  149.5637  141.1049  158.4646 H   0  0  0  0  0  0  0  0  0  0  0  0
  151.6576  142.6324  156.8100 H   0  0  0  0  0  0  0  0  0  0  0  0
  150.2551  143.3217  157.6060 H   0  0  0  0  0  0  0  0  0  0  0  0
  153.4692  141.7689  158.1958 H   0  0  0  0  0  0  0  0  0  0  0  0
  153.3055  141.8660  159.9388 H   0  0  0  0  0  0  0  0  0  0  0  0
  151.4886  140.1845  159.9338 H   0  0  0  0  0  0  0  0  0  0  0  0
  152.8816  139.5219  159.0903 H   0  0  0  0  0  0  0  0  0  0  0  0
  1  2  1  0  0  0  0
  1 17  1  0  0  0  0
  2  3  2  0  0  0  0
  2  4  2  0  0  0  0
  2  5  1  0  0  0  0
  5 10  1  0  0  0  0
  5  6  2  0  0  0  0
  6  7  1  0  0  0  0
  6 18  1  0  0  0  0
  7  8  2  0  0  0  0
  7 19  1  0  0  0  0
  8  9  1  0  0  0  0
  8 20  1  0  0  0  0
  9 10  2  0  0  0  0
 10 11  1  0  0  0  0
 11 16  1  0  0  0  0
 11 12  1  0  0  0  0
 12 13  1  0  0  0  0
 12 21  1  0  0  0  0
 12 22  1  0  0  0  0
 13 14  1  0  0  0  0
 13 23  1  0  0  0  0
 13 24  1  0  0  0  0
 14 15  1  0  0  0  0
 15 16  1  0  0  0  0
 15 25  1  0  0  0  0
 15 26  1  0  0  0  0
 16 27  1  0  0  0  0
 16 28  1  0  0  0  0
M  CHG  1   1  -1
M  END
> <s_m_source_file>
AV-unprocessed.smi

> <i_m_source_file_index>
1030

> <i_lp_mmshare_version>
43012

> <i_f3d_flags>
0

> <s_epik_input>
W05IMl1TKD1PKSg9TyljMVtjSF1bY0hdW2NIXW5jMU4yW0NIMl1bQ0gyXU9bQ0gyXVtDSDJdMg==

> <s_epik_cmdline>
J2VwaWtfcHl0aG9uJywgJy1waCcsICc3LjAnLCAnLXRuJywgJzgnLCAnLW1hJywgJzIwMCcsICctbWV0YWxfYmluZGluZycsICctaW1hZScsICc8aW5maWxlLm1hZT4nLCAnLW9tYWUnLCAnPG91dGZpbGUubWFlPic=

> <r_lp_tautomer_probability>
1

> <r_epik_Ionization_Penalty>
3.31232

> <r_epik_Ionization_Penalty_Charging>
3.30848

> <r_epik_Ionization_Penalty_Neutral>
0.00383963

> <r_epik_State_Penalty>
3.30625

> <r_epik_Charging_Adjusted_Penalty>
6.61473

> <i_epik_Tot_Q>
-1

> <i_epik_Tot_abs_Q>
1

> <r_epik_Metal_State_Penalty>
0.483198

> <b_epik_Metal_Only>
1

> <s_lp_Force_Field>
OPLS_2005

> <r_lp_Energy>
26.4459

> <b_lp_Chiralities_Consistent>
1

> <s_lp_Variant>
AV-unprocessed.smi:1030-2

> <Gold.Version>
5.8.1

> <Gold.Id.Protein>
6NUR|6NUR_protein|mol2

> <Gold.PLP.Fitness>
33.3438

> <Gold.PLP.PLP>
-22.2911

> <Gold.PLP.part.hbond>
-3.7757

> <Gold.PLP.part.metal>
0.0000

> <Gold.PLP.part.buried>
-6.2130

> <Gold.PLP.part.nonpolar>
-12.4562

> <Gold.PLP.part.repulsive>
0.1301

> <Gold.PLP.ligand.clash>
0.1509

> <Gold.PLP.ligand.torsion>
1.5260

> <Gold.PLP.Chemscore.Hbond>
4.0000

> <Gold.PLP.Chemscore.CHOScore>
0.0000

> <Gold.PLP.Chemscore.Metal>
0.0000

> <Gold.Chemscore.Hbonds>
donor molecule, donor type, donor heavy atom, donor atom, acceptor molecule, acceptor atom, score
      P1  H  7989  7998       L1     4  1.00
      P1  H  7997  8010       L1     3  1.00
      P1  H 10752 10765       L1     1  1.82

> <Gold.PLP.Chemscore.Internal.Correction>
2.2556

> <Gold.Rescore>
     Score         DG    S(hbond)    S(metal)    S(lipo)     H(rot)  DE(clash)    DE(int)     intcor
     16.26     -17.71       2.95        0.00      42.11       1.00       0.01       1.44       ----

> <Gold.Chemscore.Fitness>
16.2632

> <Gold.Chemscore.DG>
-17.7150

> <Gold.Chemscore.ZeroCoef>
-5.4800

> <Gold.Chemscore.Hbond>
2.9544

> <Gold.Chemscore.Metal>
0.0000

> <Gold.Chemscore.Lipo>
42.1130

> <Gold.Chemscore.Internal_Hbond>
0.0000

> <Gold.Chemscore.DEClash>
0.0077

> <Gold.Chemscore.DEInternal>
1.4441

> <Gold.Chemscore.Rot>
1.0000

> <Gold.Chemscore.Internal.Correction>
   9.000000E+99

> <Gold.Chemscore.Hbonds>
donor molecule, donor type, donor heavy atom, donor atom, acceptor molecule, acceptor atom, score
      P1  H  7989  7998       L1     4  0.94
      P1  H  7997  8010       L1     3  0.98
      P1  H 10752 10765       L1     1  0.49

> <Gold.Chemscore.Hbond.Weighted>
-9.8678

> <Gold.Chemscore.Metal.Weighted>
-0.0000

> <Gold.Chemscore.Lipo.Weighted>
-4.9272

> <Gold.Chemscore.Internal_Hbond.Weighted>
0.0000

> <Gold.Chemscore.DEClash.Weighted>
0.0077

> <Gold.Chemscore.DEInternal.Weighted>
1.4441

> <Gold.Chemscore.Rot.Weighted>
2.5600

> <Gold.Chemscore.Internal.Correction.Weighted>
   9.000000E+99

> <Gold.Protein.RotatedTorsions>
[ 6907 6896 6895 6894 ] final  131.40 input  -60.11 | X-H torsion
[ 7974 7965 7964 7962 ] final  -32.77 input  175.53 | X-H torsion
[ 8008 7997 7996 7995 ] final  102.65 input   59.86 | X-H torsion
[ 10167 10162 10161 10158 ] final  142.07 input  -65.29 | X-H torsion
[ 10718 10713 10712 10709 ] final -179.35 input   66.30 | X-H torsion
[ 10763 10752 10751 10750 ] final  154.45 input  -60.55 | X-H torsion
[ 11005 11000 10999 10996 ] final  -21.27 input  -57.11 | X-H torsion

> <Gold.Protein.ActiveResidues>
 VAL166  LYS551  ARG553  GLY616  TRP617  ASP618  TYR619  PRO620  LYS621  CYS622 
 ASP623  PHE694  ASN695  SER759  ASP760  ASP761  ALA762  ILE779  LEU786  VAL792 
 PHE793  MET794  SER795  GLU796  ALA797  LYS798  CYS799  TRP800  GLU811  SER814 

> <Gold.Protein.RotatedAtoms>
  152.3429  133.6088  159.5889 H   0  0  0  0  0  0  0  0  0  0  0  0  # atno 6907 bound_to 6896
  150.7490  133.9694  159.3549 H   0  0  0  0  0  0  0  0  0  0  0  0  # atno 6908 bound_to 6896
  151.7555  135.0823  160.0388 H   0  0  0  0  0  0  0  0  0  0  0  0  # atno 6909 bound_to 6896
  146.0964  140.5833  142.8841 H   0  0  0  0  0  0  0  0  0  0  0  0  # atno 7974 bound_to 7965
  156.1412  140.3178  155.8498 H   0  0  0  0  0  0  0  0  0  0  0  0  # atno 8008 bound_to 7997
  155.4150  140.0508  157.3046 H   0  0  0  0  0  0  0  0  0  0  0  0  # atno 8009 bound_to 7997
  154.4978  140.2117  155.9423 H   0  0  0  0  0  0  0  0  0  0  0  0  # atno 8010 bound_to 7997
  139.5004  144.6131  151.6226 H   0  0  0  0  0  0  0  0  0  0  0  0  # atno 10167 bound_to 10162
  156.8578  130.9741  151.3086 H   0  0  0  0  0  0  0  0  0  0  0  0  # atno 10718 bound_to 10713
  154.1524  135.2814  155.3131 H   0  0  0  0  0  0  0  0  0  0  0  0  # atno 10763 bound_to 10752
  154.6207  135.5468  153.7576 H   0  0  0  0  0  0  0  0  0  0  0  0  # atno 10764 bound_to 10752
  153.0217  135.6438  154.1668 H   0  0  0  0  0  0  0  0  0  0  0  0  # atno 10765 bound_to 10752
  140.8545  133.7832  156.0004 H   0  0  0  0  0  0  0  0  0  0  0  0  # atno 11005 bound_to 11000
  144.7398  140.4912  143.6877 LP  0  0  0  0  0  0  0  0  0  0  0  0  # atno 17320 bound_to 7965
  145.5940  139.1498  143.3166 LP  0  0  0  0  0  0  0  0  0  0  0  0  # atno 17321 bound_to 7965
  140.5811  143.9944  150.6269 LP  0  0  0  0  0  0  0  0  0  0  0  0  # atno 17342 bound_to 10162
  140.3093  143.3208  152.0894 LP  0  0  0  0  0  0  0  0  0  0  0  0  # atno 17343 bound_to 10162
  157.6267  130.8697  149.9202 LP  0  0  0  0  0  0  0  0  0  0  0  0  # atno 17370 bound_to 10713
  156.0793  130.3675  150.0613 LP  0  0  0  0  0  0  0  0  0  0  0  0  # atno 17371 bound_to 10713
  140.8752  134.2678  157.5171 LP  0  0  0  0  0  0  0  0  0  0  0  0  # atno 17394 bound_to 11000
  139.8705  134.9587  156.4310 LP  0  0  0  0  0  0  0  0  0  0  0  0  # atno 17395 bound_to 11000

$$$$
