AV-unprocessed.smi:1673|AV-procd|sdf|6710|dock8
  -GOLD-   22720 7453D 1   1.00000     0.00000
 Structure written by MMmdl.
 39 40  0  0  0  0  0  0  0  0  1 V2000
  149.5049  136.8877  159.7826 C   0  0  0  0  0  0  0  0  0  0  0  0
  150.3024  137.0322  158.5161 C   0  0  0  0  0  0  0  0  0  0  0  0
  150.4074  135.9931  157.7006 N   0  0  0  0  0  0  0  0  0  0  0  0
  151.1376  136.4283  156.5837 O   0  0  0  0  0  0  0  0  0  0  0  0
  151.4617  137.7368  156.7534 C   0  0  0  0  0  0  0  0  0  0  0  0
  152.2302  138.3930  155.6569 C   0  0  0  0  0  0  0  0  0  0  0  0
  150.9856  138.1541  157.9609 C   0  0  0  0  0  0  0  0  0  0  0  0
  151.1109  139.4733  158.4631 N   0  0  0  0  0  0  0  0  0  0  0  0
  152.1967  140.2587  158.4027 C   0  0  0  0  0  0  0  0  0  0  0  0
  153.2470  139.9634  157.8334 O   0  0  0  0  0  0  0  0  0  0  0  0
  151.9884  141.4237  159.0323 N   0  0  0  0  0  0  0  0  0  0  0  0
  152.9558  142.5144  159.1713 C   0  0  1  0  0  0  0  0  0  0  0  0
  152.4720  143.7440  158.3763 C   0  0  0  0  0  0  0  0  0  0  0  0
  151.2375  144.4025  159.0165 C   0  0  0  0  0  0  0  0  0  0  0  0
  151.4979  144.7612  160.4871 C   0  0  0  0  0  0  0  0  0  0  0  0
  151.9608  143.5350  161.2904 C   0  0  0  0  0  0  0  0  0  0  0  0
  153.2058  142.8795  160.6577 C   0  0  1  0  0  0  0  0  0  0  0  0
  153.7090  141.6932  161.4985 C   0  0  0  0  0  0  0  0  0  0  0  0
  149.0096  137.8218  160.0476 H   0  0  0  0  0  0  0  0  0  0  0  0
  150.1441  136.5968  160.6160 H   0  0  0  0  0  0  0  0  0  0  0  0
  148.7291  136.1284  159.6810 H   0  0  0  0  0  0  0  0  0  0  0  0
  152.3290  139.4643  155.8330 H   0  0  0  0  0  0  0  0  0  0  0  0
  151.7313  138.2531  154.6980 H   0  0  0  0  0  0  0  0  0  0  0  0
  153.2317  137.9696  155.5828 H   0  0  0  0  0  0  0  0  0  0  0  0
  150.2711  139.8847  158.8435 H   0  0  0  0  0  0  0  0  0  0  0  0
  151.0878  141.5691  159.4642 H   0  0  0  0  0  0  0  0  0  0  0  0
  153.9070  142.2053  158.7341 H   0  0  0  0  0  0  0  0  0  0  0  0
  153.2786  144.4766  158.3264 H   0  0  0  0  0  0  0  0  0  0  0  0
  152.2542  143.4648  157.3446 H   0  0  0  0  0  0  0  0  0  0  0  0
  150.9655  145.2993  158.4591 H   0  0  0  0  0  0  0  0  0  0  0  0
  150.3818  143.7294  158.9497 H   0  0  0  0  0  0  0  0  0  0  0  0
  152.2579  145.5412  160.5431 H   0  0  0  0  0  0  0  0  0  0  0  0
  150.5946  145.1784  160.9328 H   0  0  0  0  0  0  0  0  0  0  0  0
  152.1792  143.8358  162.3155 H   0  0  0  0  0  0  0  0  0  0  0  0
  151.1482  142.8101  161.3516 H   0  0  0  0  0  0  0  0  0  0  0  0
  154.0017  143.6257  160.6701 H   0  0  0  0  0  0  0  0  0  0  0  0
  152.9472  140.9208  161.6058 H   0  0  0  0  0  0  0  0  0  0  0  0
  153.9899  142.0171  162.5009 H   0  0  0  0  0  0  0  0  0  0  0  0
  154.5873  141.2347  161.0433 H   0  0  0  0  0  0  0  0  0  0  0  0
  1  2  1  0  0  0  0
  1 19  1  0  0  0  0
  1 20  1  0  0  0  0
  1 21  1  0  0  0  0
  2  7  1  0  0  0  0
  2  3  2  0  0  0  0
  3  4  1  0  0  0  0
  4  5  1  0  0  0  0
  5  6  1  0  0  0  0
  5  7  2  0  0  0  0
  6 22  1  0  0  0  0
  6 23  1  0  0  0  0
  6 24  1  0  0  0  0
  7  8  1  0  0  0  0
  8  9  1  0  0  0  0
  8 25  1  0  0  0  0
  9 10  2  0  0  0  0
  9 11  1  0  0  0  0
 11 12  1  0  0  0  0
 11 26  1  0  0  0  0
 12 17  1  0  0  0  0
 12 13  1  0  0  0  0
 12 27  1  0  0  0  0
 13 14  1  0  0  0  0
 13 28  1  0  0  0  0
 13 29  1  0  0  0  0
 14 15  1  0  0  0  0
 14 30  1  0  0  0  0
 14 31  1  0  0  0  0
 15 16  1  0  0  0  0
 15 32  1  0  0  0  0
 15 33  1  0  0  0  0
 16 17  1  0  0  0  0
 16 34  1  0  0  0  0
 16 35  1  0  0  0  0
 17 18  1  0  0  0  0
 17 36  1  0  0  0  0
 18 37  1  0  0  0  0
 18 38  1  0  0  0  0
 18 39  1  0  0  0  0
M  END
> <s_m_source_file>
AV-unprocessed.smi

> <i_m_source_file_index>
1673

> <i_lp_mmshare_version>
43012

> <i_f3d_flags>
0

> <s_epik_input>
W0NIM11jMW5vYyhbQ0gzXSljMVtOSF1DKD1PKVtOSF1bQ0BASF0yW0NIMl1bQ0gyXVtDSDJdW0NIMl1bQ0BIXTJbQ0gzXQ==

> <s_epik_cmdline>
J2VwaWtfcHl0aG9uJywgJy1waCcsICc3LjAnLCAnLXRuJywgJzgnLCAnLW1hJywgJzIwMCcsICctbWV0YWxfYmluZGluZycsICctaW1hZScsICc8aW5maWxlLm1hZT4nLCAnLW9tYWUnLCAnPG91dGZpbGUubWFlPic=

> <r_lp_tautomer_probability>
1

> <r_epik_Ionization_Penalty>
4.01865e-05

> <r_epik_Ionization_Penalty_Charging>
0

> <r_epik_Ionization_Penalty_Neutral>
4.01865e-05

> <r_epik_State_Penalty>
-0

> <r_epik_Charging_Adjusted_Penalty>
0

> <i_epik_Tot_Q>
0

> <i_epik_Tot_abs_Q>
0

> <r_epik_Metal_State_Penalty>
-0

> <b_epik_Metal_Only>
0

> <s_lp_Force_Field>
OPLS_2005

> <r_lp_Energy>
11.4639

> <b_lp_Chiralities_Consistent>
1

> <s_lp_Variant>
AV-unprocessed.smi:1673-2

> <Gold.Version>
5.8.1

> <Gold.Id.Protein>
6NUR|6NUR_protein|mol2

> <Gold.PLP.Fitness>
37.8117

> <Gold.PLP.PLP>
-35.2524

> <Gold.PLP.part.hbond>
-1.0976

> <Gold.PLP.part.metal>
0.0000

> <Gold.PLP.part.buried>
-2.9407

> <Gold.PLP.part.nonpolar>
-31.2546

> <Gold.PLP.part.repulsive>
0.2553

> <Gold.PLP.ligand.clash>
0.0000

> <Gold.PLP.ligand.torsion>
0.3427

> <Gold.PLP.Chemscore.Hbond>
1.0000

> <Gold.PLP.Chemscore.CHOScore>
0.0000

> <Gold.PLP.Chemscore.Metal>
0.0000

> <Gold.Chemscore.Hbonds>
donor molecule, donor type, donor heavy atom, donor atom, acceptor molecule, acceptor atom, score
      P1  H  7997  8008       L1    10  1.00

> <Gold.PLP.Chemscore.Internal.Correction>
0.2447

> <Gold.Rescore>
     Score         DG    S(hbond)    S(metal)    S(lipo)     H(rot)  DE(clash)    DE(int)     intcor
     16.98     -20.87       1.73        0.00     104.05       1.00       1.63       2.26       ----

> <Gold.Chemscore.Fitness>
16.9791

> <Gold.Chemscore.DG>
-20.8665

> <Gold.Chemscore.ZeroCoef>
-5.4800

> <Gold.Chemscore.Hbond>
1.7284

> <Gold.Chemscore.Metal>
0.0000

> <Gold.Chemscore.Lipo>
104.0484

> <Gold.Chemscore.Internal_Hbond>
0.0000

> <Gold.Chemscore.DEClash>
1.6275

> <Gold.Chemscore.DEInternal>
2.2599

> <Gold.Chemscore.Rot>
1.0000

> <Gold.Chemscore.Internal.Correction>
   9.000000E+99

> <Gold.Chemscore.Hbonds>
donor molecule, donor type, donor heavy atom, donor atom, acceptor molecule, acceptor atom, score
      P1  H  7997  8008       L1    10  0.94

> <Gold.Chemscore.Hbond.Weighted>
-5.7728

> <Gold.Chemscore.Metal.Weighted>
-0.0000

> <Gold.Chemscore.Lipo.Weighted>
-12.1737

> <Gold.Chemscore.Internal_Hbond.Weighted>
0.0000

> <Gold.Chemscore.DEClash.Weighted>
1.6275

> <Gold.Chemscore.DEInternal.Weighted>
2.2599

> <Gold.Chemscore.Rot.Weighted>
2.5600

> <Gold.Chemscore.Internal.Correction.Weighted>
   9.000000E+99

> <Gold.Protein.RotatedTorsions>
[ 6907 6896 6895 6894 ] final   18.59 input  -60.11 | X-H torsion
[ 7974 7965 7964 7962 ] final  -95.29 input  175.53 | X-H torsion
[ 8008 7997 7996 7995 ] final  -69.23 input   59.86 | X-H torsion
[ 10167 10162 10161 10158 ] final    2.82 input  -65.29 | X-H torsion
[ 10718 10713 10712 10709 ] final   96.56 input   66.30 | X-H torsion
[ 10763 10752 10751 10750 ] final  -85.82 input  -60.55 | X-H torsion
[ 11005 11000 10999 10996 ] final -156.44 input  -57.11 | X-H torsion

> <Gold.Protein.ActiveResidues>
 VAL166  LYS551  ARG553  GLY616  TRP617  ASP618  TYR619  PRO620  LYS621  CYS622 
 ASP623  PHE694  ASN695  SER759  ASP760  ASP761  ALA762  ILE779  LEU786  VAL792 
 PHE793  MET794  SER795  GLU796  ALA797  LYS798  CYS799  TRP800  GLU811  SER814 

> <Gold.Protein.RotatedAtoms>
  151.8677  135.0501  160.0475 H   0  0  0  0  0  0  0  0  0  0  0  0  # atno 6907 bound_to 6896
  152.2613  133.5295  159.5392 H   0  0  0  0  0  0  0  0  0  0  0  0  # atno 6908 bound_to 6896
  150.7117  134.0742  159.3917 H   0  0  0  0  0  0  0  0  0  0  0  0  # atno 6909 bound_to 6896
  145.3620  140.9493  143.2495 H   0  0  0  0  0  0  0  0  0  0  0  0  # atno 7974 bound_to 7965
  154.4923  140.0857  156.7622 H   0  0  0  0  0  0  0  0  0  0  0  0  # atno 8008 bound_to 7997
  155.4200  140.3445  155.4252 H   0  0  0  0  0  0  0  0  0  0  0  0  # atno 8009 bound_to 7997
  156.1347  140.1511  156.9000 H   0  0  0  0  0  0  0  0  0  0  0  0  # atno 8010 bound_to 7997
  140.6616  143.7288  150.7750 H   0  0  0  0  0  0  0  0  0  0  0  0  # atno 10167 bound_to 10162
  157.6925  131.0582  150.4509 H   0  0  0  0  0  0  0  0  0  0  0  0  # atno 10718 bound_to 10713
  154.6154  135.5471  153.7518 H   0  0  0  0  0  0  0  0  0  0  0  0  # atno 10763 bound_to 10752
  153.0214  135.6400  154.1517 H   0  0  0  0  0  0  0  0  0  0  0  0  # atno 10764 bound_to 10752
  154.1454  135.2906  155.3130 H   0  0  0  0  0  0  0  0  0  0  0  0  # atno 10765 bound_to 10752
  140.6755  134.4201  157.5229 H   0  0  0  0  0  0  0  0  0  0  0  0  # atno 11005 bound_to 11000
  144.8640  139.5136  143.6799 LP  0  0  0  0  0  0  0  0  0  0  0  0  # atno 17320 bound_to 7965
  146.2923  139.7176  142.9152 LP  0  0  0  0  0  0  0  0  0  0  0  0  # atno 17321 bound_to 7965
  140.0957  143.4835  152.2453 LP  0  0  0  0  0  0  0  0  0  0  0  0  # atno 17342 bound_to 10162
  139.5852  144.7528  151.3538 LP  0  0  0  0  0  0  0  0  0  0  0  0  # atno 17343 bound_to 10162
  156.4861  130.4084  149.6433 LP  0  0  0  0  0  0  0  0  0  0  0  0  # atno 17370 bound_to 10713
  156.3461  130.7408  151.2360 LP  0  0  0  0  0  0  0  0  0  0  0  0  # atno 17371 bound_to 10713
  139.8968  134.8651  156.2072 LP  0  0  0  0  0  0  0  0  0  0  0  0  # atno 17394 bound_to 11000
  141.0358  133.6964  156.1511 LP  0  0  0  0  0  0  0  0  0  0  0  0  # atno 17395 bound_to 11000

$$$$
