AV-unprocessed.smi:2322|AV-procd|sdf|9288|dock2
  -GOLD-   2272012513D 1   1.00000     0.00000
 Structure written by MMmdl.
 38 40  0  0  0  0  0  0  0  0  1 V2000
  145.4807  135.5192  150.8728 C   0  0  0  0  0  0  0  0  0  0  0  0
  144.7518  136.3011  151.8530 N   0  0  0  0  0  0  0  0  0  0  0  0
  143.3985  136.3304  151.8516 N   0  0  0  0  0  0  0  0  0  0  0  0
  143.1216  137.1358  152.8764 C   0  0  0  0  0  0  0  0  0  0  0  0
  144.1982  137.6376  153.5504 N   0  0  0  0  0  0  0  0  0  0  0  0
  145.1826  137.0726  152.8561 C   0  0  0  0  0  0  0  0  0  0  0  0
  146.5839  137.2181  153.0801 N   0  0  0  0  0  0  0  0  0  0  0  0
  147.2680  137.9064  154.0178 C   0  0  0  0  0  0  0  0  0  0  0  0
  146.6805  138.5626  154.8761 O   0  0  0  0  0  0  0  0  0  0  0  0
  148.6075  137.8342  153.9483 N   0  0  0  0  0  0  0  0  0  0  0  0
  149.5403  138.5092  154.8447 C   0  0  1  0  0  0  0  0  0  0  0  0
  150.9813  138.1368  154.4719 C   0  0  0  0  0  0  0  0  0  0  0  0
  151.9844  138.9294  155.3237 C   0  0  0  0  0  0  0  0  0  0  0  0
  151.7610  140.3307  155.1812 O   0  0  0  0  0  0  0  0  0  0  0  0
  150.4591  140.7822  155.5580 C   0  0  2  0  0  0  0  0  0  0  0  0
  150.2483  140.7151  157.0647 C   0  0  0  0  0  0  0  0  0  0  0  0
  149.4577  141.7844  157.7817 C   0  0  0  0  0  0  0  0  0  0  0  0
  150.9512  141.6866  157.9830 C   0  0  0  0  0  0  0  0  0  0  0  0
  149.3739  140.0366  154.7566 C   0  0  0  0  0  0  0  0  0  0  0  0
  146.0787  134.7620  151.3801 H   0  0  0  0  0  0  0  0  0  0  0  0
  146.1411  136.1715  150.3012 H   0  0  0  0  0  0  0  0  0  0  0  0
  144.7923  135.0248  150.1863 H   0  0  0  0  0  0  0  0  0  0  0  0
  142.1035  137.3720  153.1484 H   0  0  0  0  0  0  0  0  0  0  0  0
  147.1644  136.7129  152.4268 H   0  0  0  0  0  0  0  0  0  0  0  0
  149.0094  137.2721  153.2108 H   0  0  0  0  0  0  0  0  0  0  0  0
  149.3519  138.1784  155.8675 H   0  0  0  0  0  0  0  0  0  0  0  0
  151.1429  137.0666  154.6056 H   0  0  0  0  0  0  0  0  0  0  0  0
  151.1597  138.3505  153.4169 H   0  0  0  0  0  0  0  0  0  0  0  0
  151.9241  138.6342  156.3712 H   0  0  0  0  0  0  0  0  0  0  0  0
  153.0012  138.7078  154.9992 H   0  0  0  0  0  0  0  0  0  0  0  0
  150.4129  141.8345  155.2749 H   0  0  0  0  0  0  0  0  0  0  0  0
  150.1251  139.7082  157.4571 H   0  0  0  0  0  0  0  0  0  0  0  0
  149.0835  142.6201  157.1936 H   0  0  0  0  0  0  0  0  0  0  0  0
  148.8169  141.4682  158.6024 H   0  0  0  0  0  0  0  0  0  0  0  0
  151.3072  141.3059  158.9380 H   0  0  0  0  0  0  0  0  0  0  0  0
  151.5706  142.4570  157.5279 H   0  0  0  0  0  0  0  0  0  0  0  0
  149.4409  140.3434  153.7118 H   0  0  0  0  0  0  0  0  0  0  0  0
  148.3830  140.3367  155.0995 H   0  0  0  0  0  0  0  0  0  0  0  0
  1  2  1  0  0  0  0
  1 20  1  0  0  0  0
  1 21  1  0  0  0  0
  1 22  1  0  0  0  0
  2  6  1  0  0  0  0
  2  3  1  0  0  0  0
  3  4  2  0  0  0  0
  4  5  1  0  0  0  0
  4 23  1  0  0  0  0
  5  6  2  0  0  0  0
  6  7  1  0  0  0  0
  7  8  1  0  0  0  0
  7 24  1  0  0  0  0
  8  9  2  0  0  0  0
  8 10  1  0  0  0  0
 10 11  1  0  0  0  0
 10 25  1  0  0  0  0
 11 19  1  0  0  0  0
 11 12  1  0  0  0  0
 11 26  1  0  0  0  0
 12 13  1  0  0  0  0
 12 27  1  0  0  0  0
 12 28  1  0  0  0  0
 13 14  1  0  0  0  0
 13 29  1  0  0  0  0
 13 30  1  0  0  0  0
 14 15  1  0  0  0  0
 15 16  1  0  0  0  0
 15 19  1  0  0  0  0
 15 31  1  0  0  0  0
 16 18  1  0  0  0  0
 16 17  1  0  0  0  0
 16 32  1  0  0  0  0
 17 18  1  0  0  0  0
 17 33  1  0  0  0  0
 17 34  1  0  0  0  0
 18 35  1  0  0  0  0
 18 36  1  0  0  0  0
 19 37  1  0  0  0  0
 19 38  1  0  0  0  0
M  END
> <s_m_source_file>
AV-unprocessed.smi

> <i_m_source_file_index>
2322

> <i_lp_mmshare_version>
43012

> <i_f3d_flags>
0

> <s_epik_input>
W0NIM11uMW5bY0hdbmMxW05IXUMoPU8pW05IXVtDQEBIXTJbQ0gyXVtDSDJdT1tDQEhdKFtDSDJdMilbQ0hdM1tDSDJdW0NIMl0z

> <s_epik_cmdline>
J2VwaWtfcHl0aG9uJywgJy1waCcsICc3LjAnLCAnLXRuJywgJzgnLCAnLW1hJywgJzIwMCcsICctbWV0YWxfYmluZGluZycsICctaW1hZScsICc8aW5maWxlLm1hZT4nLCAnLW9tYWUnLCAnPG91dGZpbGUubWFlPic=

> <r_lp_tautomer_probability>
1

> <r_epik_Ionization_Penalty>
2.16399e-05

> <r_epik_Ionization_Penalty_Charging>
0

> <r_epik_Ionization_Penalty_Neutral>
2.16399e-05

> <r_epik_State_Penalty>
-0

> <r_epik_Charging_Adjusted_Penalty>
0

> <i_epik_Tot_Q>
0

> <i_epik_Tot_abs_Q>
0

> <r_epik_Metal_State_Penalty>
-0

> <b_epik_Metal_Only>
0

> <s_lp_Force_Field>
OPLS_2005

> <r_lp_Energy>
22.4811

> <b_lp_Chiralities_Consistent>
1

> <s_lp_Variant>
AV-unprocessed.smi:2322-4

> <Gold.Version>
5.8.1

> <Gold.Id.Protein>
6NUR|6NUR_protein|mol2

> <Gold.PLP.Fitness>
36.8639

> <Gold.PLP.PLP>
-28.4991

> <Gold.PLP.part.hbond>
-3.0000

> <Gold.PLP.part.metal>
0.0000

> <Gold.PLP.part.buried>
-4.1140

> <Gold.PLP.part.nonpolar>
-22.9617

> <Gold.PLP.part.repulsive>
0.4593

> <Gold.PLP.ligand.clash>
0.0000

> <Gold.PLP.ligand.torsion>
0.5693

> <Gold.PLP.Chemscore.Hbond>
2.8080

> <Gold.PLP.Chemscore.CHOScore>
0.0000

> <Gold.PLP.Chemscore.Metal>
0.0000

> <Gold.Chemscore.Hbonds>
donor molecule, donor type, donor heavy atom, donor atom, acceptor molecule, acceptor atom, score
      L1  H     7    24       P1  7948  0.98
      L1  H    10    25       P1  7948  1.00
      P1  H  7989  7998       L1    14  0.67

> <Gold.PLP.Chemscore.Internal.Correction>
1.0794

> <Gold.Rescore>
     Score         DG    S(hbond)    S(metal)    S(lipo)     H(rot)  DE(clash)    DE(int)     intcor
     14.31     -16.05       2.30        0.00      53.30       1.31       0.02       1.72       ----

> <Gold.Chemscore.Fitness>
14.3095

> <Gold.Chemscore.DG>
-16.0476

> <Gold.Chemscore.ZeroCoef>
-5.4800

> <Gold.Chemscore.Hbond>
2.2988

> <Gold.Chemscore.Metal>
0.0000

> <Gold.Chemscore.Lipo>
53.3008

> <Gold.Chemscore.Internal_Hbond>
0.0000

> <Gold.Chemscore.DEClash>
0.0189

> <Gold.Chemscore.DEInternal>
1.7192

> <Gold.Chemscore.Rot>
1.3072

> <Gold.Chemscore.Internal.Correction>
   9.000000E+99

> <Gold.Chemscore.Hbonds>
donor molecule, donor type, donor heavy atom, donor atom, acceptor molecule, acceptor atom, score
      L1  H     7    24       P1  7948  0.93
      L1  H    10    25       P1  7948  0.98
      P1  H  7989  7998       L1    14  0.09

> <Gold.Chemscore.Hbond.Weighted>
-7.6778

> <Gold.Chemscore.Metal.Weighted>
-0.0000

> <Gold.Chemscore.Lipo.Weighted>
-6.2362

> <Gold.Chemscore.Internal_Hbond.Weighted>
0.0000

> <Gold.Chemscore.DEClash.Weighted>
0.0189

> <Gold.Chemscore.DEInternal.Weighted>
1.7192

> <Gold.Chemscore.Rot.Weighted>
3.3464

> <Gold.Chemscore.Internal.Correction.Weighted>
   9.000000E+99

> <Gold.Protein.RotatedTorsions>
[ 6907 6896 6895 6894 ] final -153.70 input  -60.11 | X-H torsion
[ 7974 7965 7964 7962 ] final   -1.91 input  175.53 | X-H torsion
[ 8008 7997 7996 7995 ] final -124.60 input   59.86 | X-H torsion
[ 10167 10162 10161 10158 ] final   24.67 input  -65.29 | X-H torsion
[ 10718 10713 10712 10709 ] final -122.56 input   66.30 | X-H torsion
[ 10763 10752 10751 10750 ] final  157.18 input  -60.55 | X-H torsion
[ 11005 11000 10999 10996 ] final -151.99 input  -57.11 | X-H torsion

> <Gold.Protein.ActiveResidues>
 VAL166  LYS551  ARG553  GLY616  TRP617  ASP618  TYR619  PRO620  LYS621  CYS622 
 ASP623  PHE694  ASN695  SER759  ASP760  ASP761  ALA762  ILE779  LEU786  VAL792 
 PHE793  MET794  SER795  GLU796  ALA797  LYS798  CYS799  TRP800  GLU811  SER814 

> <Gold.Protein.RotatedAtoms>
  151.2465  133.4372  159.2609 H   0  0  0  0  0  0  0  0  0  0  0  0  # atno 6907 bound_to 6896
  151.0656  134.9766  159.8293 H   0  0  0  0  0  0  0  0  0  0  0  0  # atno 6908 bound_to 6896
  152.5405  134.2413  159.8916 H   0  0  0  0  0  0  0  0  0  0  0  0  # atno 6909 bound_to 6896
  146.2411  140.1491  142.8334 H   0  0  0  0  0  0  0  0  0  0  0  0  # atno 7974 bound_to 7965
  155.1996  140.0415  157.2915 H   0  0  0  0  0  0  0  0  0  0  0  0  # atno 8008 bound_to 7997
  154.6084  140.2470  155.7673 H   0  0  0  0  0  0  0  0  0  0  0  0  # atno 8009 bound_to 7997
  156.2364  140.2920  156.0333 H   0  0  0  0  0  0  0  0  0  0  0  0  # atno 8010 bound_to 7997
  140.5169  144.0067  150.6398 H   0  0  0  0  0  0  0  0  0  0  0  0  # atno 10167 bound_to 10162
  156.1429  130.6479  150.9798 H   0  0  0  0  0  0  0  0  0  0  0  0  # atno 10718 bound_to 10713
  154.1962  135.2792  155.3006 H   0  0  0  0  0  0  0  0  0  0  0  0  # atno 10763 bound_to 10752
  154.5890  135.5565  153.7263 H   0  0  0  0  0  0  0  0  0  0  0  0  # atno 10764 bound_to 10752
  153.0099  135.6363  154.2100 H   0  0  0  0  0  0  0  0  0  0  0  0  # atno 10765 bound_to 10752
  140.7236  134.3699  157.5179 H   0  0  0  0  0  0  0  0  0  0  0  0  # atno 11005 bound_to 11000
  145.0182  140.8772  143.5183 LP  0  0  0  0  0  0  0  0  0  0  0  0  # atno 17320 bound_to 7965
  145.1536  139.2500  143.5428 LP  0  0  0  0  0  0  0  0  0  0  0  0  # atno 17321 bound_to 7965
  140.3405  143.3022  152.0593 LP  0  0  0  0  0  0  0  0  0  0  0  0  # atno 17342 bound_to 10162
  139.4912  144.6446  151.6806 LP  0  0  0  0  0  0  0  0  0  0  0  0  # atno 17343 bound_to 10162
  157.6591  131.0884  150.7879 LP  0  0  0  0  0  0  0  0  0  0  0  0  # atno 17370 bound_to 10713
  156.7953  130.4903  149.5378 LP  0  0  0  0  0  0  0  0  0  0  0  0  # atno 17371 bound_to 10713
  139.8842  134.8972  156.2717 LP  0  0  0  0  0  0  0  0  0  0  0  0  # atno 17394 bound_to 11000
  140.9982  133.7167  156.0918 LP  0  0  0  0  0  0  0  0  0  0  0  0  # atno 17395 bound_to 11000

$$$$
