AV-unprocessed.smi:1867|AV-procd|sdf|7573|dock7
  -GOLD-   22720 9283D 1   1.00000     0.00000
 Structure written by MMmdl.
 53 56  0  0  0  0  0  0  0  0  3 V2000
  147.1193  140.1708  154.0068 O   0  0  0  0  0  0  0  0  0  0  0  0
  147.9873  139.3538  153.7114 C   0  0  0  0  0  0  0  0  0  0  0  0
  149.2607  139.3842  154.1537 N   0  0  0  0  0  0  0  0  0  0  0  0
  149.8938  140.3143  155.0247 C   0  0  0  0  0  0  0  0  0  0  0  0
  150.9709  139.8425  155.8047 C   0  0  0  0  0  0  0  0  0  0  0  0
  151.6347  140.7153  156.6910 C   0  0  0  0  0  0  0  0  0  0  0  0
  151.2146  142.0623  156.7926 C   0  0  0  0  0  0  0  0  0  0  0  0
  151.8216  142.9913  157.6589 N   0  0  0  0  0  0  0  0  0  0  0  0
  151.3505  144.3623  157.7596 C   0  0  0  0  0  0  0  0  0  0  0  0
  152.1709  144.9690  158.8972 C   0  0  0  0  0  0  0  0  0  0  0  0
  152.4054  143.7802  159.8297 C   0  0  0  0  0  0  0  0  0  0  0  0
  152.4881  142.5746  158.8861 C   0  0  0  0  0  0  0  0  0  0  0  0
  150.1719  142.4711  156.0317 N   0  3  0  0  0  0  0  0  0  0  0  0
  149.5083  141.6693  155.1709 C   0  0  0  0  0  0  0  0  0  0  0  0
  147.7156  138.3280  152.8848 N   0  0  0  0  0  0  0  0  0  0  0  0
  146.4475  138.0012  152.2314 C   0  0  1  0  0  0  0  0  0  0  0  0
  146.5634  137.7290  150.7335 C   0  0  0  0  0  0  0  0  0  0  0  0
  145.2854  136.9375  150.4481 C   0  0  0  0  0  0  0  0  0  0  0  0
  145.0161  136.1433  151.6687 N   0  3  2  0  0  0  0  0  0  0  0  0
  143.5782  135.9674  151.9882 C   0  0  0  0  0  0  0  0  0  0  0  0
  143.4027  135.1211  153.2632 C   0  0  0  0  0  0  0  0  0  0  0  0
  144.2630  135.6184  154.4447 C   0  0  0  0  0  0  0  0  0  0  0  0
  145.0732  136.8753  154.0921 C   0  0  0  0  0  0  0  0  0  0  0  0
  145.8551  136.6911  152.7722 C   0  0  2  0  0  0  0  0  0  0  0  0
  149.8597  138.6519  153.8023 H   0  0  0  0  0  0  0  0  0  0  0  0
  151.2920  138.8139  155.7278 H   0  0  0  0  0  0  0  0  0  0  0  0
  152.4559  140.3386  157.2824 H   0  0  0  0  0  0  0  0  0  0  0  0
  151.4926  144.9097  156.8274 H   0  0  0  0  0  0  0  0  0  0  0  0
  150.2879  144.3642  158.0065 H   0  0  0  0  0  0  0  0  0  0  0  0
  153.1265  145.3285  158.5132 H   0  0  0  0  0  0  0  0  0  0  0  0
  151.6681  145.8041  159.3860 H   0  0  0  0  0  0  0  0  0  0  0  0
  153.2954  143.8941  160.4493 H   0  0  0  0  0  0  0  0  0  0  0  0
  151.5481  143.6655  160.4945 H   0  0  0  0  0  0  0  0  0  0  0  0
  152.0227  141.6963  159.3352 H   0  0  0  0  0  0  0  0  0  0  0  0
  153.5265  142.3330  158.6576 H   0  0  0  0  0  0  0  0  0  0  0  0
  148.6985  142.1538  154.6479 H   0  0  0  0  0  0  0  0  0  0  0  0
  148.4821  137.6988  152.6920 H   0  0  0  0  0  0  0  0  0  0  0  0
  145.7271  138.8065  152.3888 H   0  0  0  0  0  0  0  0  0  0  0  0
  146.6373  138.6385  150.1367 H   0  0  0  0  0  0  0  0  0  0  0  0
  147.4398  137.1134  150.5239 H   0  0  0  0  0  0  0  0  0  0  0  0
  144.4650  137.6345  150.2695 H   0  0  0  0  0  0  0  0  0  0  0  0
  145.3766  136.2991  149.5691 H   0  0  0  0  0  0  0  0  0  0  0  0
  143.1075  136.9434  152.1178 H   0  0  0  0  0  0  0  0  0  0  0  0
  143.0757  135.4864  151.1481 H   0  0  0  0  0  0  0  0  0  0  0  0
  142.3504  135.1105  153.5491 H   0  0  0  0  0  0  0  0  0  0  0  0
  143.6633  134.0843  153.0454 H   0  0  0  0  0  0  0  0  0  0  0  0
  143.6317  135.8178  155.3113 H   0  0  0  0  0  0  0  0  0  0  0  0
  144.9475  134.8246  154.7472 H   0  0  0  0  0  0  0  0  0  0  0  0
  144.3931  137.7246  154.0107 H   0  0  0  0  0  0  0  0  0  0  0  0
  145.7598  137.1180  154.9039 H   0  0  0  0  0  0  0  0  0  0  0  0
  146.6552  135.9653  152.9288 H   0  0  0  0  0  0  0  0  0  0  0  0
  145.3788  135.2169  151.4934 H   0  0  0  0  0  0  0  0  0  0  0  0
  149.8676  143.4414  156.1134 H   0  0  0  0  0  0  0  0  0  0  0  0
  1  2  2  0  0  0  0
  2  3  1  0  0  0  0
  2 15  1  0  0  0  0
  3  4  1  0  0  0  0
  3 25  1  0  0  0  0
  4 14  1  0  0  0  0
  4  5  2  0  0  0  0
  5  6  1  0  0  0  0
  5 26  1  0  0  0  0
  6  7  2  0  0  0  0
  6 27  1  0  0  0  0
  7  8  1  0  0  0  0
  7 13  1  0  0  0  0
  8 12  1  0  0  0  0
  8  9  1  0  0  0  0
  9 10  1  0  0  0  0
  9 28  1  0  0  0  0
  9 29  1  0  0  0  0
 10 11  1  0  0  0  0
 10 30  1  0  0  0  0
 10 31  1  0  0  0  0
 11 12  1  0  0  0  0
 11 32  1  0  0  0  0
 11 33  1  0  0  0  0
 12 34  1  0  0  0  0
 12 35  1  0  0  0  0
 13 14  2  0  0  0  0
 13 53  1  0  0  0  0
 14 36  1  0  0  0  0
 15 16  1  0  0  0  0
 15 37  1  0  0  0  0
 16 24  1  0  0  0  0
 16 17  1  0  0  0  0
 16 38  1  0  0  0  0
 17 18  1  0  0  0  0
 17 39  1  0  0  0  0
 17 40  1  0  0  0  0
 18 19  1  0  0  0  0
 18 41  1  0  0  0  0
 18 42  1  0  0  0  0
 19 24  1  0  0  0  0
 19 20  1  0  0  0  0
 19 52  1  0  0  0  0
 20 21  1  0  0  0  0
 20 43  1  0  0  0  0
 20 44  1  0  0  0  0
 21 22  1  0  0  0  0
 21 45  1  0  0  0  0
 21 46  1  0  0  0  0
 22 23  1  0  0  0  0
 22 47  1  0  0  0  0
 22 48  1  0  0  0  0
 23 24  1  0  0  0  0
 23 49  1  0  0  0  0
 23 50  1  0  0  0  0
 24 51  1  0  0  0  0
M  CHG  1  13   1
M  CHG  1  19   1
M  END
> <s_m_source_file>
AV-unprocessed.smi

> <i_m_source_file_index>
1867

> <i_lp_mmshare_version>
43012

> <i_f3d_flags>
0

> <s_epik_input>
W0NIMl0xW0NIMl1bQ0gyXVtDSDJdW0NASF0oTjEyKVtDQEBIXShbQ0gyXVtDSDJdMilbTkhdQyg9TylbTkhdYzNbY0hdW2NIXWMobltjSF0zKU40W0NIMl1bQ0gyXVtDSDJdW0NIMl00

> <s_epik_cmdline>
J2VwaWtfcHl0aG9uJywgJy1waCcsICc3LjAnLCAnLXRuJywgJzgnLCAnLW1hJywgJzIwMCcsICctbWV0YWxfYmluZGluZycsICctaW1hZScsICc8aW5maWxlLm1hZT4nLCAnLW9tYWUnLCAnPG91dGZpbGUubWFlPic=

> <r_lp_tautomer_probability>
0.999994

> <r_epik_Ionization_Penalty>
1.27347

> <r_epik_Ionization_Penalty_Charging>
1.27345

> <r_epik_Ionization_Penalty_Neutral>
1.96458e-05

> <r_epik_State_Penalty>
1.34393

> <r_epik_Charging_Adjusted_Penalty>
2.61738

> <i_epik_Tot_Q>
2

> <i_epik_Tot_abs_Q>
2

> <r_epik_Metal_State_Penalty>
1.41094

> <b_epik_Metal_Only>
0

> <s_lp_Force_Field>
OPLS_2005

> <r_lp_Energy>
84.8883

> <b_lp_Chiralities_Consistent>
1

> <s_lp_Variant>
AV-unprocessed.smi:1867-14

> <Gold.Version>
5.8.1

> <Gold.Id.Protein>
6NUR|6NUR_protein|mol2

> <Gold.PLP.Fitness>
46.7916

> <Gold.PLP.PLP>
-38.5853

> <Gold.PLP.part.hbond>
-3.6286

> <Gold.PLP.part.metal>
0.0000

> <Gold.PLP.part.buried>
8.0472

> <Gold.PLP.part.nonpolar>
-43.8812

> <Gold.PLP.part.repulsive>
0.3908

> <Gold.PLP.ligand.clash>
0.0000

> <Gold.PLP.ligand.torsion>
0.4077

> <Gold.PLP.Chemscore.Hbond>
2.9440

> <Gold.PLP.Chemscore.CHOScore>
0.0000

> <Gold.PLP.Chemscore.Metal>
0.0000

> <Gold.Chemscore.Hbonds>
donor molecule, donor type, donor heavy atom, donor atom, acceptor molecule, acceptor atom, score
      L1  H    13    53       P1  8028  2.00
      L1  H    15    37       P1  7948  0.91

> <Gold.PLP.Chemscore.Internal.Correction>
0.1897

> <Gold.Rescore>
     Score         DG    S(hbond)    S(metal)    S(lipo)     H(rot)  DE(clash)    DE(int)     intcor
     18.33     -23.34       1.95        0.00     118.88       1.00       4.05       0.96       ----

> <Gold.Chemscore.Fitness>
18.3268

> <Gold.Chemscore.DG>
-23.3362

> <Gold.Chemscore.ZeroCoef>
-5.4800

> <Gold.Chemscore.Hbond>
1.9483

> <Gold.Chemscore.Metal>
0.0000

> <Gold.Chemscore.Lipo>
118.8808

> <Gold.Chemscore.Internal_Hbond>
0.0000

> <Gold.Chemscore.DEClash>
4.0514

> <Gold.Chemscore.DEInternal>
0.9580

> <Gold.Chemscore.Rot>
1.0000

> <Gold.Chemscore.Internal.Correction>
   9.000000E+99

> <Gold.Chemscore.Hbonds>
donor molecule, donor type, donor heavy atom, donor atom, acceptor molecule, acceptor atom, score
      L1  H    13    53       P1  8028  0.96
      L1  H    15    37       P1  7948  0.88

> <Gold.Chemscore.Hbond.Weighted>
-6.5072

> <Gold.Chemscore.Metal.Weighted>
-0.0000

> <Gold.Chemscore.Lipo.Weighted>
-13.9091

> <Gold.Chemscore.Internal_Hbond.Weighted>
0.0000

> <Gold.Chemscore.DEClash.Weighted>
4.0514

> <Gold.Chemscore.DEInternal.Weighted>
0.9580

> <Gold.Chemscore.Rot.Weighted>
2.5600

> <Gold.Chemscore.Internal.Correction.Weighted>
   9.000000E+99

> <Gold.Protein.RotatedTorsions>
[ 6907 6896 6895 6894 ] final -176.54 input  -60.11 | X-H torsion
[ 7974 7965 7964 7962 ] final   65.44 input  175.53 | X-H torsion
[ 8008 7997 7996 7995 ] final  167.79 input   59.86 | X-H torsion
[ 10167 10162 10161 10158 ] final  138.51 input  -65.29 | X-H torsion
[ 10718 10713 10712 10709 ] final   37.59 input   66.30 | X-H torsion
[ 10763 10752 10751 10750 ] final  -92.87 input  -60.55 | X-H torsion
[ 11005 11000 10999 10996 ] final   23.86 input  -57.11 | X-H torsion

> <Gold.Protein.ActiveResidues>
 VAL166  LYS551  ARG553  GLY616  TRP617  ASP618  TYR619  PRO620  LYS621  CYS622 
 ASP623  PHE694  ASN695  SER759  ASP760  ASP761  ALA762  ILE779  LEU786  VAL792 
 PHE793  MET794  SER795  GLU796  ALA797  LYS798  CYS799  TRP800  GLU811  SER814 

> <Gold.Protein.RotatedAtoms>
  151.6065  133.3351  159.3058 H   0  0  0  0  0  0  0  0  0  0  0  0  # atno 6907 bound_to 6896
  150.8180  134.7375  159.6758 H   0  0  0  0  0  0  0  0  0  0  0  0  # atno 6908 bound_to 6896
  152.4275  134.5847  160.0009 H   0  0  0  0  0  0  0  0  0  0  0  0  # atno 6909 bound_to 6896
  145.8384  139.3181  143.0946 H   0  0  0  0  0  0  0  0  0  0  0  0  # atno 7974 bound_to 7965
  156.1603  140.1607  156.8623 H   0  0  0  0  0  0  0  0  0  0  0  0  # atno 8008 bound_to 7997
  154.5154  140.0791  156.8107 H   0  0  0  0  0  0  0  0  0  0  0  0  # atno 8009 bound_to 7997
  155.3720  140.3401  155.4246 H   0  0  0  0  0  0  0  0  0  0  0  0  # atno 8010 bound_to 7997
  139.5108  144.6349  151.5722 H   0  0  0  0  0  0  0  0  0  0  0  0  # atno 10167 bound_to 10162
  157.3487  130.7586  149.6963 H   0  0  0  0  0  0  0  0  0  0  0  0  # atno 10718 bound_to 10713
  154.6904  135.5215  153.8384 H   0  0  0  0  0  0  0  0  0  0  0  0  # atno 10763 bound_to 10752
  153.0628  135.6574  154.0433 H   0  0  0  0  0  0  0  0  0  0  0  0  # atno 10764 bound_to 10752
  154.0308  135.2985  155.3348 H   0  0  0  0  0  0  0  0  0  0  0  0  # atno 10765 bound_to 10752
  140.3650  134.2084  155.7670 H   0  0  0  0  0  0  0  0  0  0  0  0  # atno 11005 bound_to 11000
  145.9492  140.8921  143.0268 LP  0  0  0  0  0  0  0  0  0  0  0  0  # atno 17320 bound_to 7965
  144.6735  140.1657  143.7418 LP  0  0  0  0  0  0  0  0  0  0  0  0  # atno 17321 bound_to 7965
  140.6095  143.9463  150.6443 LP  0  0  0  0  0  0  0  0  0  0  0  0  # atno 17342 bound_to 10162
  140.2701  143.3462  152.1246 LP  0  0  0  0  0  0  0  0  0  0  0  0  # atno 17343 bound_to 10162
  155.9718  130.4147  150.4144 LP  0  0  0  0  0  0  0  0  0  0  0  0  # atno 17370 bound_to 10713
  157.2203  131.0481  151.2550 LP  0  0  0  0  0  0  0  0  0  0  0  0  # atno 17371 bound_to 10713
  141.1972  133.8064  157.0636 LP  0  0  0  0  0  0  0  0  0  0  0  0  # atno 17394 bound_to 11000
  140.0597  134.9761  157.1282 LP  0  0  0  0  0  0  0  0  0  0  0  0  # atno 17395 bound_to 11000

$$$$
