AV-unprocessed.smi:3230|AV-procd|sdf|12329|dock5
  -GOLD-   2272018183D 1   1.00000     0.00000
 Structure written by MMmdl.
 40 40  0  0  0  0  0  0  0  0  1 V2000
  151.3628  144.7270  159.1005 C   0  0  0  0  0  0  0  0  0  0  0  0
  151.0716  143.4599  158.2822 C   0  0  0  0  0  0  0  0  0  0  0  0
  151.0752  142.1470  159.1080 C   0  0  0  0  0  0  0  0  0  0  0  0
  152.3604  142.0152  159.9644 C   0  0  0  0  0  0  0  0  0  0  0  0
  152.3613  142.8545  161.2511 C   0  0  0  0  0  0  0  0  0  0  0  0
  150.8234  140.8908  158.2268 C   0  0  2  0  0  0  0  0  0  0  0  0
  149.4658  140.8587  157.8293 O   0  0  0  0  0  0  0  0  0  0  0  0
  151.1610  139.5616  158.9404 C   0  0  0  0  0  0  0  0  0  0  0  0
  150.1039  138.5678  158.7836 N   0  0  0  0  0  0  0  0  0  0  0  0
  150.1740  137.2920  159.1952 C   0  0  0  0  0  0  0  0  0  0  0  0
  151.1653  136.8115  159.7453 O   0  0  0  0  0  0  0  0  0  0  0  0
  148.9391  136.4239  158.9502 C   0  0  0  0  0  0  0  0  0  0  0  0
  148.4838  135.7971  160.2398 C   0  0  0  0  0  0  0  0  0  0  0  0
  148.4286  134.4165  160.5791 C   0  0  0  0  0  0  0  0  0  0  0  0
  147.9468  134.4163  161.8568 C   0  0  0  0  0  0  0  0  0  0  0  0
  147.6443  133.3277  162.8286 C   0  0  0  0  0  0  0  0  0  0  0  0
  147.7182  135.6887  162.2721 O   0  0  0  0  0  0  0  0  0  0  0  0
  148.0600  136.5623  161.2339 N   0  0  0  0  0  0  0  0  0  0  0  0
  151.2429  145.6166  158.4820 H   0  0  0  0  0  0  0  0  0  0  0  0
  152.3807  144.7412  159.4884 H   0  0  0  0  0  0  0  0  0  0  0  0
  150.6777  144.8184  159.9438 H   0  0  0  0  0  0  0  0  0  0  0  0
  150.0967  143.6020  157.8179 H   0  0  0  0  0  0  0  0  0  0  0  0
  151.7843  143.3874  157.4599 H   0  0  0  0  0  0  0  0  0  0  0  0
  150.2386  142.2103  159.8055 H   0  0  0  0  0  0  0  0  0  0  0  0
  152.5455  140.9691  160.2099 H   0  0  0  0  0  0  0  0  0  0  0  0
  153.2219  142.3359  159.3808 H   0  0  0  0  0  0  0  0  0  0  0  0
  153.3387  142.8143  161.7320 H   0  0  0  0  0  0  0  0  0  0  0  0
  151.6328  142.4940  161.9766 H   0  0  0  0  0  0  0  0  0  0  0  0
  152.1406  143.9011  161.0400 H   0  0  0  0  0  0  0  0  0  0  0  0
  151.4331  140.9656  157.3277 H   0  0  0  0  0  0  0  0  0  0  0  0
  149.1175  141.7354  157.8859 H   0  0  0  0  0  0  0  0  0  0  0  0
  152.0851  139.1428  158.5385 H   0  0  0  0  0  0  0  0  0  0  0  0
  151.3386  139.7184  160.0048 H   0  0  0  0  0  0  0  0  0  0  0  0
  149.2523  138.8773  158.3375 H   0  0  0  0  0  0  0  0  0  0  0  0
  148.1416  137.0198  158.5034 H   0  0  0  0  0  0  0  0  0  0  0  0
  149.1907  135.6515  158.2227 H   0  0  0  0  0  0  0  0  0  0  0  0
  148.7047  133.5620  159.9792 H   0  0  0  0  0  0  0  0  0  0  0  0
  147.6752  132.3526  162.3424 H   0  0  0  0  0  0  0  0  0  0  0  0
  146.6521  133.4580  163.2608 H   0  0  0  0  0  0  0  0  0  0  0  0
  148.3708  133.3239  163.6413 H   0  0  0  0  0  0  0  0  0  0  0  0
  1  2  1  0  0  0  0
  1 19  1  0  0  0  0
  1 20  1  0  0  0  0
  1 21  1  0  0  0  0
  2  3  1  0  0  0  0
  2 22  1  0  0  0  0
  2 23  1  0  0  0  0
  3  4  1  0  0  0  0
  3  6  1  0  0  0  0
  3 24  1  0  0  0  0
  4  5  1  0  0  0  0
  4 25  1  0  0  0  0
  4 26  1  0  0  0  0
  5 27  1  0  0  0  0
  5 28  1  0  0  0  0
  5 29  1  0  0  0  0
  6  7  1  0  0  0  0
  6  8  1  0  0  0  0
  6 30  1  0  0  0  0
  7 31  1  0  0  0  0
  8  9  1  0  0  0  0
  8 32  1  0  0  0  0
  8 33  1  0  0  0  0
  9 10  1  0  0  0  0
  9 34  1  0  0  0  0
 10 11  2  0  0  0  0
 10 12  1  0  0  0  0
 12 13  1  0  0  0  0
 12 35  1  0  0  0  0
 12 36  1  0  0  0  0
 13 18  2  0  0  0  0
 13 14  1  0  0  0  0
 14 15  2  0  0  0  0
 14 37  1  0  0  0  0
 15 16  1  0  0  0  0
 15 17  1  0  0  0  0
 16 38  1  0  0  0  0
 16 39  1  0  0  0  0
 16 40  1  0  0  0  0
 17 18  1  0  0  0  0
M  END
> <s_m_source_file>
AV-unprocessed.smi

> <i_m_source_file_index>
3230

> <i_lp_mmshare_version>
43012

> <i_f3d_flags>
0

> <s_epik_input>
W0NIM11bQ0gyXVtDSF0oW0NIMl1bQ0gzXSlbQ0BIXShbT0hdKVtDSDJdW05IXUMoPU8pW0NIMl1jMVtjSF1jKFtDSDNdKW9uMQ==

> <s_epik_cmdline>
J2VwaWtfcHl0aG9uJywgJy1waCcsICc3LjAnLCAnLXRuJywgJzgnLCAnLW1hJywgJzIwMCcsICctbWV0YWxfYmluZGluZycsICctaW1hZScsICc8aW5maWxlLm1hZT4nLCAnLW9tYWUnLCAnPG91dGZpbGUubWFlPic=

> <r_lp_tautomer_probability>
1

> <r_epik_Ionization_Penalty>
2.40054e-07

> <r_epik_Ionization_Penalty_Charging>
0

> <r_epik_Ionization_Penalty_Neutral>
2.40054e-07

> <r_epik_State_Penalty>
-0

> <r_epik_Charging_Adjusted_Penalty>
0

> <i_epik_Tot_Q>
0

> <i_epik_Tot_abs_Q>
0

> <r_epik_Metal_State_Penalty>
-0

> <b_epik_Metal_Only>
0

> <s_lp_Force_Field>
OPLS_2005

> <r_lp_Energy>
9.05643

> <b_lp_Chiralities_Consistent>
1

> <s_lp_Variant>
AV-unprocessed.smi:3230-1

> <Gold.Version>
5.8.1

> <Gold.Id.Protein>
6NUR|6NUR_protein|mol2

> <Gold.PLP.Fitness>
45.6893

> <Gold.PLP.PLP>
-39.8007

> <Gold.PLP.part.hbond>
-3.0000

> <Gold.PLP.part.metal>
0.0000

> <Gold.PLP.part.buried>
-5.7754

> <Gold.PLP.part.nonpolar>
-31.7568

> <Gold.PLP.part.repulsive>
0.1851

> <Gold.PLP.ligand.clash>
0.0000

> <Gold.PLP.ligand.torsion>
1.2690

> <Gold.PLP.Chemscore.Hbond>
2.7280

> <Gold.PLP.Chemscore.CHOScore>
0.0000

> <Gold.PLP.Chemscore.Metal>
0.0000

> <Gold.Chemscore.Hbonds>
donor molecule, donor type, donor heavy atom, donor atom, acceptor molecule, acceptor atom, score
      P1  H  6896  6907       L1    11  1.00
      P1  H  6931  6943       L1    18  0.93

> <Gold.PLP.Chemscore.Internal.Correction>
0.2426

> <Gold.Rescore>
     Score         DG    S(hbond)    S(metal)    S(lipo)     H(rot)  DE(clash)    DE(int)     intcor
     17.23     -18.41       2.54        0.00      94.27       2.57       0.09       1.10       ----

> <Gold.Chemscore.Fitness>
17.2254

> <Gold.Chemscore.DG>
-18.4102

> <Gold.Chemscore.ZeroCoef>
-5.4800

> <Gold.Chemscore.Hbond>
2.5402

> <Gold.Chemscore.Metal>
0.0000

> <Gold.Chemscore.Lipo>
94.2653

> <Gold.Chemscore.Internal_Hbond>
0.0000

> <Gold.Chemscore.DEClash>
0.0879

> <Gold.Chemscore.DEInternal>
1.0969

> <Gold.Chemscore.Rot>
2.5715

> <Gold.Chemscore.Internal.Correction>
   9.000000E+99

> <Gold.Chemscore.Hbonds>
donor molecule, donor type, donor heavy atom, donor atom, acceptor molecule, acceptor atom, score
      P1  H  6896  6907       L1    11  0.98
      P1  H  6931  6943       L1    18  0.75

> <Gold.Chemscore.Hbond.Weighted>
-8.4842

> <Gold.Chemscore.Metal.Weighted>
-0.0000

> <Gold.Chemscore.Lipo.Weighted>
-11.0290

> <Gold.Chemscore.Internal_Hbond.Weighted>
0.0000

> <Gold.Chemscore.DEClash.Weighted>
0.0879

> <Gold.Chemscore.DEInternal.Weighted>
1.0969

> <Gold.Chemscore.Rot.Weighted>
6.5831

> <Gold.Chemscore.Internal.Correction.Weighted>
   9.000000E+99

> <Gold.Protein.RotatedTorsions>
[ 6907 6896 6895 6894 ] final  -15.52 input  -60.11 | X-H torsion
[ 7974 7965 7964 7962 ] final -159.45 input  175.53 | X-H torsion
[ 8008 7997 7996 7995 ] final   89.44 input   59.86 | X-H torsion
[ 10167 10162 10161 10158 ] final  136.75 input  -65.29 | X-H torsion
[ 10718 10713 10712 10709 ] final -127.25 input   66.30 | X-H torsion
[ 10763 10752 10751 10750 ] final  -11.54 input  -60.55 | X-H torsion
[ 11005 11000 10999 10996 ] final   -8.75 input  -57.11 | X-H torsion

> <Gold.Protein.ActiveResidues>
 VAL166  LYS551  ARG553  GLY616  TRP617  ASP618  TYR619  PRO620  LYS621  CYS622 
 ASP623  PHE694  ASN695  SER759  ASP760  ASP761  ALA762  ILE779  LEU786  VAL792 
 PHE793  MET794  SER795  GLU796  ALA797  LYS798  CYS799  TRP800  GLU811  SER814 

> <Gold.Protein.RotatedAtoms>
  151.3227  135.0822  159.9311 H   0  0  0  0  0  0  0  0  0  0  0  0  # atno 6907 bound_to 6896
  152.5253  133.9622  159.7733 H   0  0  0  0  0  0  0  0  0  0  0  0  # atno 6908 bound_to 6896
  150.9946  133.6063  159.2733 H   0  0  0  0  0  0  0  0  0  0  0  0  # atno 6909 bound_to 6896
  144.7465  140.3683  143.6081 H   0  0  0  0  0  0  0  0  0  0  0  0  # atno 7974 bound_to 7965
  155.9999  140.3360  155.6835 H   0  0  0  0  0  0  0  0  0  0  0  0  # atno 8008 bound_to 7997
  155.6304  140.0684  157.2668 H   0  0  0  0  0  0  0  0  0  0  0  0  # atno 8009 bound_to 7997
  154.4246  140.1760  156.1454 H   0  0  0  0  0  0  0  0  0  0  0  0  # atno 8010 bound_to 7997
  139.5168  144.6447  151.5471 H   0  0  0  0  0  0  0  0  0  0  0  0  # atno 10167 bound_to 10162
  156.1840  130.6751  151.0340 H   0  0  0  0  0  0  0  0  0  0  0  0  # atno 10718 bound_to 10713
  153.4852  135.7017  153.5915 H   0  0  0  0  0  0  0  0  0  0  0  0  # atno 10763 bound_to 10752
  153.4111  135.3848  155.2051 H   0  0  0  0  0  0  0  0  0  0  0  0  # atno 10764 bound_to 10752
  154.8719  135.3905  154.4306 H   0  0  0  0  0  0  0  0  0  0  0  0  # atno 10765 bound_to 10752
  140.7268  133.8782  155.8862 H   0  0  0  0  0  0  0  0  0  0  0  0  # atno 11005 bound_to 11000
  145.7104  139.1683  143.2542 LP  0  0  0  0  0  0  0  0  0  0  0  0  # atno 17320 bound_to 7965
  146.1351  140.7134  142.9394 LP  0  0  0  0  0  0  0  0  0  0  0  0  # atno 17321 bound_to 7965
  140.6228  143.9226  150.6540 LP  0  0  0  0  0  0  0  0  0  0  0  0  # atno 17342 bound_to 10162
  140.2505  143.3596  152.1409 LP  0  0  0  0  0  0  0  0  0  0  0  0  # atno 17343 bound_to 10162
  157.6886  131.0817  150.7171 LP  0  0  0  0  0  0  0  0  0  0  0  0  # atno 17370 bound_to 10713
  156.7228  130.4686  149.5518 LP  0  0  0  0  0  0  0  0  0  0  0  0  # atno 17371 bound_to 10713
  140.9956  134.1220  157.4367 LP  0  0  0  0  0  0  0  0  0  0  0  0  # atno 17394 bound_to 11000
  139.8835  135.0053  156.6307 LP  0  0  0  0  0  0  0  0  0  0  0  0  # atno 17395 bound_to 11000

$$$$
