AV-unprocessed.smi:1897|AV-procd|sdf|7689|dock1
  -GOLD-   22720 9423D 1   1.00000     0.00000
 Structure written by MMmdl.
 39 41  0  0  0  0  0  0  0  0  2 V2000
  147.4814  136.4709  163.0595 C   0  0  0  0  0  0  0  0  0  0  0  0
  147.4760  136.3117  161.5777 C   0  0  0  0  0  0  0  0  0  0  0  0
  147.7829  137.3102  160.7412 N   0  0  0  0  0  0  0  0  0  0  0  0
  147.7144  136.9213  159.4116 N   0  0  0  0  0  0  0  0  0  0  0  0
  147.3467  135.6383  159.2796 C   0  0  0  0  0  0  0  0  0  0  0  0
  147.2143  134.9583  158.0334 N   0  0  0  0  0  0  0  0  0  0  0  0
  147.7404  135.2122  156.8163 C   0  0  0  0  0  0  0  0  0  0  0  0
  148.4776  136.1791  156.6330 O   0  0  0  0  0  0  0  0  0  0  0  0
  147.4083  134.3577  155.8346 N   0  0  0  0  0  0  0  0  0  0  0  0
  147.7940  134.4823  154.4332 C   0  0  1  0  0  0  0  0  0  0  0  0
  148.4957  133.2251  153.8885 C   0  0  0  0  0  0  0  0  0  0  0  0
  147.9508  133.0382  152.4587 C   0  0  0  0  0  0  0  0  0  0  0  0
  147.1039  134.2194  152.2064 N   0  3  1  0  0  0  0  0  0  0  0  0
  146.0488  134.0848  151.1784 C   0  0  0  0  0  0  0  0  0  0  0  0
  145.3302  135.4383  151.0070 C   0  0  0  0  0  0  0  0  0  0  0  0
  144.8136  135.9865  152.3530 C   0  0  0  0  0  0  0  0  0  0  0  0
  145.9345  136.0144  153.4100 C   0  0  0  0  0  0  0  0  0  0  0  0
  146.5747  134.6203  153.5182 C   0  0  2  0  0  0  0  0  0  0  0  0
  147.0620  134.7929  160.7922 S   0  0  0  0  0  0  0  0  0  0  0  0
  148.1741  137.2592  163.3563 H   0  0  0  0  0  0  0  0  0  0  0  0
  147.7899  135.5404  163.5364 H   0  0  0  0  0  0  0  0  0  0  0  0
  146.4826  136.7309  163.4097 H   0  0  0  0  0  0  0  0  0  0  0  0
  146.7038  134.0888  158.0915 H   0  0  0  0  0  0  0  0  0  0  0  0
  146.8061  133.5824  156.0739 H   0  0  0  0  0  0  0  0  0  0  0  0
  148.4589  135.3362  154.2878 H   0  0  0  0  0  0  0  0  0  0  0  0
  149.5790  133.3508  153.8942 H   0  0  0  0  0  0  0  0  0  0  0  0
  148.2658  132.3440  154.4897 H   0  0  0  0  0  0  0  0  0  0  0  0
  148.7449  132.9637  151.7154 H   0  0  0  0  0  0  0  0  0  0  0  0
  147.3495  132.1293  152.4054 H   0  0  0  0  0  0  0  0  0  0  0  0
  146.4949  133.7728  150.2336 H   0  0  0  0  0  0  0  0  0  0  0  0
  145.3391  133.3095  151.4725 H   0  0  0  0  0  0  0  0  0  0  0  0
  146.0209  136.1592  150.5674 H   0  0  0  0  0  0  0  0  0  0  0  0
  144.5036  135.3365  150.3031 H   0  0  0  0  0  0  0  0  0  0  0  0
  144.3997  136.9862  152.2178 H   0  0  0  0  0  0  0  0  0  0  0  0
  143.9952  135.3594  152.7094 H   0  0  0  0  0  0  0  0  0  0  0  0
  146.6874  136.7544  153.1354 H   0  0  0  0  0  0  0  0  0  0  0  0
  145.5283  136.3224  154.3738 H   0  0  0  0  0  0  0  0  0  0  0  0
  145.8160  133.8951  153.8225 H   0  0  0  0  0  0  0  0  0  0  0  0
  147.7230  134.9602  151.9094 H   0  0  0  0  0  0  0  0  0  0  0  0
  1  2  1  0  0  0  0
  1 20  1  0  0  0  0
  1 21  1  0  0  0  0
  1 22  1  0  0  0  0
  2 19  1  0  0  0  0
  2  3  2  0  0  0  0
  3  4  1  0  0  0  0
  4  5  2  0  0  0  0
  5  6  1  0  0  0  0
  5 19  1  0  0  0  0
  6  7  1  0  0  0  0
  6 23  1  0  0  0  0
  7  8  2  0  0  0  0
  7  9  1  0  0  0  0
  9 10  1  0  0  0  0
  9 24  1  0  0  0  0
 10 18  1  0  0  0  0
 10 11  1  0  0  0  0
 10 25  1  0  0  0  0
 11 12  1  0  0  0  0
 11 26  1  0  0  0  0
 11 27  1  0  0  0  0
 12 13  1  0  0  0  0
 12 28  1  0  0  0  0
 12 29  1  0  0  0  0
 13 18  1  0  0  0  0
 13 14  1  0  0  0  0
 13 39  1  0  0  0  0
 14 15  1  0  0  0  0
 14 30  1  0  0  0  0
 14 31  1  0  0  0  0
 15 16  1  0  0  0  0
 15 32  1  0  0  0  0
 15 33  1  0  0  0  0
 16 17  1  0  0  0  0
 16 34  1  0  0  0  0
 16 35  1  0  0  0  0
 17 18  1  0  0  0  0
 17 36  1  0  0  0  0
 17 37  1  0  0  0  0
 18 38  1  0  0  0  0
M  CHG  1  13   1
M  END
> <s_m_source_file>
AV-unprocessed.smi

> <i_m_source_file_index>
1897

> <i_lp_mmshare_version>
43012

> <i_f3d_flags>
0

> <s_epik_input>
W0NIM11jMW5uYyhzMSlbTkhdQyg9TylbTkhdW0NASF0oW0NIMl1bQ0gyXTIpW0NAQEhdKE4yMylbQ0gyXVtDSDJdW0NIMl1bQ0gyXTM=

> <s_epik_cmdline>
J2VwaWtfcHl0aG9uJywgJy1waCcsICc3LjAnLCAnLXRuJywgJzgnLCAnLW1hJywgJzIwMCcsICctbWV0YWxfYmluZGluZycsICctaW1hZScsICc8aW5maWxlLm1hZT4nLCAnLW9tYWUnLCAnPG91dGZpbGUubWFlPic=

> <r_lp_tautomer_probability>
1

> <r_epik_Ionization_Penalty>
0.00228891

> <r_epik_Ionization_Penalty_Charging>
0.00107044

> <r_epik_Ionization_Penalty_Neutral>
0.00121847

> <r_epik_State_Penalty>
-0

> <r_epik_Charging_Adjusted_Penalty>
0.00107044

> <i_epik_Tot_Q>
1

> <i_epik_Tot_abs_Q>
1

> <r_epik_Metal_State_Penalty>
0.304057

> <b_epik_Metal_Only>
0

> <s_lp_Force_Field>
OPLS_2005

> <r_lp_Energy>
35.8573

> <b_lp_Chiralities_Consistent>
1

> <s_lp_Variant>
AV-unprocessed.smi:1897-6

> <Gold.Version>
5.8.1

> <Gold.Id.Protein>
6NUR|6NUR_protein|mol2

> <Gold.PLP.Fitness>
39.0980

> <Gold.PLP.PLP>
-28.3983

> <Gold.PLP.part.hbond>
-3.0000

> <Gold.PLP.part.metal>
0.0000

> <Gold.PLP.part.buried>
-2.8063

> <Gold.PLP.part.nonpolar>
-22.6686

> <Gold.PLP.part.repulsive>
0.0515

> <Gold.PLP.ligand.clash>
0.0000

> <Gold.PLP.ligand.torsion>
0.1274

> <Gold.PLP.Chemscore.Hbond>
3.6480

> <Gold.PLP.Chemscore.CHOScore>
0.0000

> <Gold.PLP.Chemscore.Metal>
0.0000

> <Gold.Chemscore.Hbonds>
donor molecule, donor type, donor heavy atom, donor atom, acceptor molecule, acceptor atom, score
      L1  H    13    39       P1  7948  2.00
      P1  H  6931  6943       L1     3  0.69
      P1  H  6934  6947       L1     3  0.85

> <Gold.PLP.Chemscore.Internal.Correction>
0.0104

> <Gold.Rescore>
     Score         DG    S(hbond)    S(metal)    S(lipo)     H(rot)  DE(clash)    DE(int)     intcor
     15.27     -16.54       1.93        0.00      61.25       1.00       0.01       1.26       ----

> <Gold.Chemscore.Fitness>
15.2721

> <Gold.Chemscore.DG>
-16.5443

> <Gold.Chemscore.ZeroCoef>
-5.4800

> <Gold.Chemscore.Hbond>
1.9334

> <Gold.Chemscore.Metal>
0.0000

> <Gold.Chemscore.Lipo>
61.2537

> <Gold.Chemscore.Internal_Hbond>
0.0000

> <Gold.Chemscore.DEClash>
0.0139

> <Gold.Chemscore.DEInternal>
1.2584

> <Gold.Chemscore.Rot>
1.0000

> <Gold.Chemscore.Internal.Correction>
   9.000000E+99

> <Gold.Chemscore.Hbonds>
donor molecule, donor type, donor heavy atom, donor atom, acceptor molecule, acceptor atom, score
      L1  H    13    39       P1  7948  0.70
      P1  H  6931  6943       L1     3  0.14
      P1  H  6934  6947       L1     3  0.63

> <Gold.Chemscore.Hbond.Weighted>
-6.4576

> <Gold.Chemscore.Metal.Weighted>
-0.0000

> <Gold.Chemscore.Lipo.Weighted>
-7.1667

> <Gold.Chemscore.Internal_Hbond.Weighted>
0.0000

> <Gold.Chemscore.DEClash.Weighted>
0.0139

> <Gold.Chemscore.DEInternal.Weighted>
1.2584

> <Gold.Chemscore.Rot.Weighted>
2.5600

> <Gold.Chemscore.Internal.Correction.Weighted>
   9.000000E+99

> <Gold.Protein.RotatedTorsions>
[ 6907 6896 6895 6894 ] final   95.65 input  -60.11 | X-H torsion
[ 7974 7965 7964 7962 ] final  -71.10 input  175.53 | X-H torsion
[ 8008 7997 7996 7995 ] final   99.17 input   59.86 | X-H torsion
[ 10167 10162 10161 10158 ] final   11.62 input  -65.29 | X-H torsion
[ 10718 10713 10712 10709 ] final  -78.77 input   66.30 | X-H torsion
[ 10763 10752 10751 10750 ] final  -21.34 input  -60.55 | X-H torsion
[ 11005 11000 10999 10996 ] final  -49.19 input  -57.11 | X-H torsion

> <Gold.Protein.ActiveResidues>
 VAL166  LYS551  ARG553  GLY616  TRP617  ASP618  TYR619  PRO620  LYS621  CYS622 
 ASP623  PHE694  ASN695  SER759  ASP760  ASP761  ALA762  ILE779  LEU786  VAL792 
 PHE793  MET794  SER795  GLU796  ALA797  LYS798  CYS799  TRP800  GLU811  SER814 

> <Gold.Protein.RotatedAtoms>
  152.5442  134.1008  159.8316 H   0  0  0  0  0  0  0  0  0  0  0  0  # atno 6907 bound_to 6896
  151.1086  133.5183  159.2614 H   0  0  0  0  0  0  0  0  0  0  0  0  # atno 6908 bound_to 6896
  151.1910  135.0412  159.8887 H   0  0  0  0  0  0  0  0  0  0  0  0  # atno 6909 bound_to 6896
  145.6824  140.9183  143.0825 H   0  0  0  0  0  0  0  0  0  0  0  0  # atno 7974 bound_to 7965
  156.1078  140.3233  155.8031 H   0  0  0  0  0  0  0  0  0  0  0  0  # atno 8008 bound_to 7997
  155.4725  140.0547  157.2995 H   0  0  0  0  0  0  0  0  0  0  0  0  # atno 8009 bound_to 7997
  154.4739  140.2024  155.9940 H   0  0  0  0  0  0  0  0  0  0  0  0  # atno 8010 bound_to 7997
  140.6120  143.8388  150.7076 H   0  0  0  0  0  0  0  0  0  0  0  0  # atno 10167 bound_to 10162
  156.0109  130.4527  150.3547 H   0  0  0  0  0  0  0  0  0  0  0  0  # atno 10718 bound_to 10713
  153.6347  135.6987  153.5263 H   0  0  0  0  0  0  0  0  0  0  0  0  # atno 10763 bound_to 10752
  153.2831  135.4179  155.1097 H   0  0  0  0  0  0  0  0  0  0  0  0  # atno 10764 bound_to 10752
  154.8514  135.3607  154.5890 H   0  0  0  0  0  0  0  0  0  0  0  0  # atno 10765 bound_to 10752
  141.0745  133.6670  156.3550 H   0  0  0  0  0  0  0  0  0  0  0  0  # atno 11005 bound_to 11000
  144.7022  139.8714  143.7441 LP  0  0  0  0  0  0  0  0  0  0  0  0  # atno 17320 bound_to 7965
  146.0952  139.3944  143.0381 LP  0  0  0  0  0  0  0  0  0  0  0  0  # atno 17321 bound_to 7965
  140.1958  143.3999  152.1829 LP  0  0  0  0  0  0  0  0  0  0  0  0  # atno 17342 bound_to 10162
  139.5368  144.7218  151.4865 LP  0  0  0  0  0  0  0  0  0  0  0  0  # atno 17343 bound_to 10162
  157.1638  131.0351  151.2828 LP  0  0  0  0  0  0  0  0  0  0  0  0  # atno 17370 bound_to 10713
  157.4288  130.7479  149.6973 LP  0  0  0  0  0  0  0  0  0  0  0  0  # atno 17371 bound_to 10713
  140.5603  134.5940  157.5432 LP  0  0  0  0  0  0  0  0  0  0  0  0  # atno 17394 bound_to 11000
  139.9557  134.7539  156.0347 LP  0  0  0  0  0  0  0  0  0  0  0  0  # atno 17395 bound_to 11000

$$$$
