AV-unprocessed.smi:30|AV-procd|sdf|193|dock10
  -GOLD-   2262015463D 1   1.00000     0.00000
 Structure written by MMmdl.
 54 57  0  0  0  0  0  0  0  0  1 V2000
  147.0225  140.4525  153.7557 O   0  0  0  0  0  0  0  0  0  0  0  0
  147.3543  139.4892  153.0633 C   0  0  0  0  0  0  0  0  0  0  0  0
  146.4386  138.9867  151.9356 C   0  0  0  0  0  0  0  0  0  0  0  0
  145.7848  137.6934  152.2350 N   0  0  0  0  0  0  0  0  0  0  0  0
  145.1413  137.5370  153.4873 C   0  0  0  0  0  0  0  0  0  0  0  0
  145.0938  138.4608  154.3011 O   0  0  0  0  0  0  0  0  0  0  0  0
  144.5705  136.2199  153.7397 C   0  0  0  0  0  0  0  0  0  0  0  0
  143.9846  135.9641  154.9217 F   0  0  0  0  0  0  0  0  0  0  0  0
  144.6374  135.2444  152.8108 C   0  0  0  0  0  0  0  0  0  0  0  0
  145.2189  135.4247  151.5678 N   0  0  0  0  0  0  0  0  0  0  0  0
  145.3683  134.2807  150.5855 C   0  0  2  0  0  0  0  0  0  0  0  0
  144.0389  133.7796  149.9941 C   0  0  0  0  0  0  0  0  0  0  0  0
  143.8270  132.4736  150.7344 C   0  0  0  0  0  0  0  0  0  0  0  0
  145.2618  132.0181  150.9691 C   0  0  0  0  0  0  0  0  0  0  0  0
  145.9639  133.2176  151.2673 O   0  0  0  0  0  0  0  0  0  0  0  0
  145.8633  136.6502  151.2812 C   0  0  0  0  0  0  0  0  0  0  0  0
  146.4811  136.8078  150.2258 O   0  0  0  0  0  0  0  0  0  0  0  0
  148.4874  138.7841  153.2345 N   0  0  0  0  0  0  0  0  0  0  0  0
  149.5411  139.0114  154.1603 C   0  0  0  0  0  0  0  0  0  0  0  0
  149.3060  139.9371  155.1960 C   0  0  0  0  0  0  0  0  0  0  0  0
  150.2970  140.1940  156.1622 C   0  0  0  0  0  0  0  0  0  0  0  0
  151.5359  139.5241  156.1223 C   0  0  0  0  0  0  0  0  0  0  0  0
  152.4475  139.8336  157.1091 O   0  0  0  0  0  0  0  0  0  0  0  0
  151.9544  140.2485  158.3759 C   0  0  0  0  0  0  0  0  0  0  0  0
  152.0948  141.7467  158.5567 C   0  0  0  0  0  0  0  0  0  0  0  0
  152.7693  142.2573  159.6854 C   0  0  0  0  0  0  0  0  0  0  0  0
  152.8989  143.6485  159.8636 C   0  0  0  0  0  0  0  0  0  0  0  0
  152.3532  144.5341  158.9142 C   0  0  0  0  0  0  0  0  0  0  0  0
  151.6776  144.0279  157.7868 C   0  0  0  0  0  0  0  0  0  0  0  0
  151.5472  142.6367  157.6085 C   0  0  0  0  0  0  0  0  0  0  0  0
  151.7665  138.5812  155.0898 C   0  0  0  0  0  0  0  0  0  0  0  0
  150.7770  138.3238  154.1213 C   0  0  0  0  0  0  0  0  0  0  0  0
  145.6901  139.7524  151.7241 H   0  0  0  0  0  0  0  0  0  0  0  0
  147.0249  138.9321  151.0172 H   0  0  0  0  0  0  0  0  0  0  0  0
  144.2196  134.2859  153.0739 H   0  0  0  0  0  0  0  0  0  0  0  0
  146.0194  134.6457  149.7898 H   0  0  0  0  0  0  0  0  0  0  0  0
  143.2242  134.4981  150.0828 H   0  0  0  0  0  0  0  0  0  0  0  0
  144.1945  133.5803  148.9331 H   0  0  0  0  0  0  0  0  0  0  0  0
  143.3286  132.6449  151.6885 H   0  0  0  0  0  0  0  0  0  0  0  0
  143.2387  131.7519  150.1677 H   0  0  0  0  0  0  0  0  0  0  0  0
  145.3480  131.2911  151.7768 H   0  0  0  0  0  0  0  0  0  0  0  0
  145.6772  131.5754  150.0624 H   0  0  0  0  0  0  0  0  0  0  0  0
  148.5812  137.9546  152.6667 H   0  0  0  0  0  0  0  0  0  0  0  0
  148.3626  140.4606  155.2520 H   0  0  0  0  0  0  0  0  0  0  0  0
  150.1020  140.9118  156.9456 H   0  0  0  0  0  0  0  0  0  0  0  0
  150.9049  139.9673  158.4797 H   0  0  0  0  0  0  0  0  0  0  0  0
  152.5116  139.7578  159.1754 H   0  0  0  0  0  0  0  0  0  0  0  0
  153.1890  141.5817  160.4165 H   0  0  0  0  0  0  0  0  0  0  0  0
  153.4168  144.0362  160.7285 H   0  0  0  0  0  0  0  0  0  0  0  0
  152.4526  145.6009  159.0508 H   0  0  0  0  0  0  0  0  0  0  0  0
  151.2594  144.7066  157.0583 H   0  0  0  0  0  0  0  0  0  0  0  0
  151.0270  142.2575  156.7410 H   0  0  0  0  0  0  0  0  0  0  0  0
  152.6948  138.0353  155.0208 H   0  0  0  0  0  0  0  0  0  0  0  0
  150.9831  137.5810  153.3660 H   0  0  0  0  0  0  0  0  0  0  0  0
  1  2  2  0  0  0  0
  2  3  1  0  0  0  0
  2 18  1  0  0  0  0
  3  4  1  0  0  0  0
  3 33  1  0  0  0  0
  3 34  1  0  0  0  0
  4 16  1  0  0  0  0
  4  5  1  0  0  0  0
  5  6  2  0  0  0  0
  5  7  1  0  0  0  0
  7  8  1  0  0  0  0
  7  9  2  0  0  0  0
  9 10  1  0  0  0  0
  9 35  1  0  0  0  0
 10 11  1  0  0  0  0
 10 16  1  0  0  0  0
 11 15  1  0  0  0  0
 11 12  1  0  0  0  0
 11 36  1  0  0  0  0
 12 13  1  0  0  0  0
 12 37  1  0  0  0  0
 12 38  1  0  0  0  0
 13 14  1  0  0  0  0
 13 39  1  0  0  0  0
 13 40  1  0  0  0  0
 14 15  1  0  0  0  0
 14 41  1  0  0  0  0
 14 42  1  0  0  0  0
 16 17  2  0  0  0  0
 18 19  1  0  0  0  0
 18 43  1  0  0  0  0
 19 32  1  0  0  0  0
 19 20  2  0  0  0  0
 20 21  1  0  0  0  0
 20 44  1  0  0  0  0
 21 22  2  0  0  0  0
 21 45  1  0  0  0  0
 22 23  1  0  0  0  0
 22 31  1  0  0  0  0
 23 24  1  0  0  0  0
 24 25  1  0  0  0  0
 24 46  1  0  0  0  0
 24 47  1  0  0  0  0
 25 30  1  0  0  0  0
 25 26  2  0  0  0  0
 26 27  1  0  0  0  0
 26 48  1  0  0  0  0
 27 28  2  0  0  0  0
 27 49  1  0  0  0  0
 28 29  1  0  0  0  0
 28 50  1  0  0  0  0
 29 30  2  0  0  0  0
 29 51  1  0  0  0  0
 30 52  1  0  0  0  0
 31 32  2  0  0  0  0
 31 53  1  0  0  0  0
 32 54  1  0  0  0  0
M  END
> <s_m_source_file>
AV-unprocessed.smi

> <i_m_source_file_index>
30

> <i_lp_mmshare_version>
43012

> <i_f3d_flags>
0

> <s_epik_input>
TzFbQ0gyXVtDSDJdW0NIMl1bQ0BIXTFuKGMyPU8pW2NIXWMoRiljKD1PKW4yW0NIMl1DKD1PKVtOSF1jM1tjSF1bY0hdYyhbY0hdW2NIXTMpT1tDSDJdYzRbY0hdW2NIXVtjSF1bY0hdW2NIXTQ=

> <s_epik_cmdline>
J2VwaWtfcHl0aG9uJywgJy1waCcsICc3LjAnLCAnLXRuJywgJzgnLCAnLW1hJywgJzIwMCcsICctbWV0YWxfYmluZGluZycsICctaW1hZScsICc8aW5maWxlLm1hZT4nLCAnLW9tYWUnLCAnPG91dGZpbGUubWFlPic=

> <r_lp_tautomer_probability>
1

> <r_epik_Ionization_Penalty>
1.04818e-05

> <r_epik_Ionization_Penalty_Charging>
3.88729e-08

> <r_epik_Ionization_Penalty_Neutral>
1.04429e-05

> <r_epik_State_Penalty>
-0

> <r_epik_Charging_Adjusted_Penalty>
3.88729e-08

> <i_epik_Tot_Q>
0

> <i_epik_Tot_abs_Q>
0

> <r_epik_Metal_State_Penalty>
-0

> <b_epik_Metal_Only>
0

> <s_epik_Chemistry_Notes>
This compound contains an acetal/aminal-like group ( X-CH(R)-Y where X, Y are N, S, or O) that may be acid/base labile, releasing an aldehyde.

> <s_lp_Force_Field>
OPLS_2005

> <r_lp_Energy>
43.3432

> <b_lp_Chiralities_Consistent>
1

> <s_lp_Variant>
AV-unprocessed.smi:30-1

> <Gold.Version>
5.8.1

> <Gold.Id.Protein>
6NUR|6NUR_protein|mol2

> <Gold.PLP.Fitness>
63.9677

> <Gold.PLP.PLP>
-58.1455

> <Gold.PLP.part.hbond>
-4.0000

> <Gold.PLP.part.metal>
0.0000

> <Gold.PLP.part.buried>
-0.9419

> <Gold.PLP.part.nonpolar>
-55.2323

> <Gold.PLP.part.repulsive>
2.0549

> <Gold.PLP.ligand.clash>
0.0517

> <Gold.PLP.ligand.torsion>
1.0394

> <Gold.PLP.Chemscore.Hbond>
2.5897

> <Gold.PLP.Chemscore.CHOScore>
0.0000

> <Gold.PLP.Chemscore.Metal>
0.0000

> <Gold.Chemscore.Hbonds>
donor molecule, donor type, donor heavy atom, donor atom, acceptor molecule, acceptor atom, score
      L1  H    18    43       P1  7948  1.00
      P1  H  7954  7966       L1    17  0.67
      P1  H  7997  8009       L1    23  1.00

> <Gold.PLP.Chemscore.Internal.Correction>
0.1836

> <Gold.Rescore>
     Score         DG    S(hbond)    S(metal)    S(lipo)     H(rot)  DE(clash)    DE(int)     intcor
     18.82     -26.68       2.57        0.00     155.87       2.20       2.44       5.41       ----

> <Gold.Chemscore.Fitness>
18.8242

> <Gold.Chemscore.DG>
-26.6803

> <Gold.Chemscore.ZeroCoef>
-5.4800

> <Gold.Chemscore.Hbond>
2.5698

> <Gold.Chemscore.Metal>
0.0000

> <Gold.Chemscore.Lipo>
155.8695

> <Gold.Chemscore.Internal_Hbond>
0.0000

> <Gold.Chemscore.DEClash>
2.4448

> <Gold.Chemscore.DEInternal>
5.4113

> <Gold.Chemscore.Rot>
2.1952

> <Gold.Chemscore.Internal.Correction>
   9.000000E+99

> <Gold.Chemscore.Hbonds>
donor molecule, donor type, donor heavy atom, donor atom, acceptor molecule, acceptor atom, score
      L1  H    18    43       P1  7948  1.00
      P1  H  7954  7966       L1    17  0.66
      P1  H  7997  8009       L1    23  0.92

> <Gold.Chemscore.Hbond.Weighted>
-8.5832

> <Gold.Chemscore.Metal.Weighted>
-0.0000

> <Gold.Chemscore.Lipo.Weighted>
-18.2367

> <Gold.Chemscore.Internal_Hbond.Weighted>
0.0000

> <Gold.Chemscore.DEClash.Weighted>
2.4448

> <Gold.Chemscore.DEInternal.Weighted>
5.4113

> <Gold.Chemscore.Rot.Weighted>
5.6196

> <Gold.Chemscore.Internal.Correction.Weighted>
   9.000000E+99

> <Gold.Protein.RotatedTorsions>
[ 6907 6896 6895 6894 ] final -177.46 input  -60.11 | X-H torsion
[ 7974 7965 7964 7962 ] final  -34.24 input  175.53 | X-H torsion
[ 8008 7997 7996 7995 ] final -179.75 input   59.86 | X-H torsion
[ 10167 10162 10161 10158 ] final -113.17 input  -65.29 | X-H torsion
[ 10718 10713 10712 10709 ] final -146.88 input   66.30 | X-H torsion
[ 10763 10752 10751 10750 ] final -137.69 input  -60.55 | X-H torsion
[ 11005 11000 10999 10996 ] final  178.63 input  -57.11 | X-H torsion

> <Gold.Protein.ActiveResidues>
 VAL166  LYS551  ARG553  GLY616  TRP617  ASP618  TYR619  PRO620  LYS621  CYS622 
 ASP623  PHE694  ASN695  SER759  ASP760  ASP761  ALA762  ILE779  LEU786  VAL792 
 PHE793  MET794  SER795  GLU796  ALA797  LYS798  CYS799  TRP800  GLU811  SER814 

> <Gold.Protein.RotatedAtoms>
  151.6213  133.3339  159.3088 H   0  0  0  0  0  0  0  0  0  0  0  0  # atno 6907 bound_to 6896
  150.8104  134.7259  159.6694 H   0  0  0  0  0  0  0  0  0  0  0  0  # atno 6908 bound_to 6896
  152.4201  134.5976  160.0043 H   0  0  0  0  0  0  0  0  0  0  0  0  # atno 6909 bound_to 6896
  146.0845  140.6014  142.8893 H   0  0  0  0  0  0  0  0  0  0  0  0  # atno 7974 bound_to 7965
  156.0341  140.1288  157.0226 H   0  0  0  0  0  0  0  0  0  0  0  0  # atno 8008 bound_to 7997
  154.4362  140.1043  156.6212 H   0  0  0  0  0  0  0  0  0  0  0  0  # atno 8009 bound_to 7997
  155.5763  140.3467  155.4531 H   0  0  0  0  0  0  0  0  0  0  0  0  # atno 8010 bound_to 7997
  140.1147  143.4496  152.1730 H   0  0  0  0  0  0  0  0  0  0  0  0  # atno 10167 bound_to 10162
  156.4005  130.7931  151.2141 H   0  0  0  0  0  0  0  0  0  0  0  0  # atno 10718 bound_to 10713
  154.8655  135.3634  154.5264 H   0  0  0  0  0  0  0  0  0  0  0  0  # atno 10763 bound_to 10752
  153.5892  135.7016  153.5435 H   0  0  0  0  0  0  0  0  0  0  0  0  # atno 10764 bound_to 10752
  153.3388  135.4103  155.1517 H   0  0  0  0  0  0  0  0  0  0  0  0  # atno 10765 bound_to 10752
  140.3972  134.6810  157.4541 H   0  0  0  0  0  0  0  0  0  0  0  0  # atno 11005 bound_to 11000
  144.7316  140.4689  143.6933 LP  0  0  0  0  0  0  0  0  0  0  0  0  # atno 17320 bound_to 7965
  145.6155  139.1518  143.3052 LP  0  0  0  0  0  0  0  0  0  0  0  0  # atno 17321 bound_to 7965
  139.5600  144.7399  151.4182 LP  0  0  0  0  0  0  0  0  0  0  0  0  # atno 17342 bound_to 10162
  140.6906  143.7871  150.7249 LP  0  0  0  0  0  0  0  0  0  0  0  0  # atno 17343 bound_to 10162
  157.7503  131.0288  150.4065 LP  0  0  0  0  0  0  0  0  0  0  0  0  # atno 17370 bound_to 10713
  156.4344  130.3978  149.6739 LP  0  0  0  0  0  0  0  0  0  0  0  0  # atno 17371 bound_to 10713
  140.0363  134.6332  155.9039 LP  0  0  0  0  0  0  0  0  0  0  0  0  # atno 17394 bound_to 11000
  141.1870  133.6558  156.5262 LP  0  0  0  0  0  0  0  0  0  0  0  0  # atno 17395 bound_to 11000

$$$$
