AV-unprocessed.smi:2725|AV-procd|sdf|10515|dock8
  -GOLD-   2272014553D 1   1.00000     0.00000
 Structure written by MMmdl.
 44 45  0  0  0  0  0  0  0  0  1 V2000
  150.5313  141.8101  158.8664 O   0  0  0  0  0  0  0  0  0  0  0  0
  150.5340  142.6068  157.9273 C   0  0  0  0  0  0  0  0  0  0  0  0
  151.2649  143.9483  158.0373 C   0  0  0  0  0  0  0  0  0  0  0  0
  151.4238  144.4422  159.4884 C   0  0  0  0  0  0  0  0  0  0  0  0
  152.5976  143.7747  160.2266 C   0  0  0  0  0  0  0  0  0  0  0  0
  153.1050  142.4833  159.5766 C   0  0  0  0  0  0  0  0  0  0  0  0
  153.8523  141.7376  160.6884 C   0  0  0  0  0  0  0  0  0  0  0  0
  153.3319  142.3082  162.0167 C   0  0  0  0  0  0  0  0  0  0  0  0
  152.2507  143.3292  161.6489 C   0  0  0  0  0  0  0  0  0  0  0  0
  149.9108  142.3718  156.7627 N   0  0  0  0  0  0  0  0  0  0  0  0
  149.1499  141.1657  156.4365 C   0  0  2  0  0  0  0  0  0  0  0  0
  148.7535  141.2045  154.9469 C   0  0  0  0  0  0  0  0  0  0  0  0
  149.8079  140.7180  154.1432 O   0  0  0  0  0  0  0  0  0  0  0  0
  147.9150  141.0240  157.3613 C   0  0  0  0  0  0  0  0  0  0  0  0
  146.6859  141.7973  156.9051 C   0  0  0  0  0  0  0  0  0  0  0  0
  146.2078  142.8963  157.6515 C   0  0  0  0  0  0  0  0  0  0  0  0
  145.0725  143.5847  157.1828 C   0  0  0  0  0  0  0  0  0  0  0  0
  144.4584  143.1484  155.9930 C   0  0  0  0  0  0  0  0  0  0  0  0
  145.0094  142.0381  155.3228 C   0  0  0  0  0  0  0  0  0  0  0  0
  146.0989  141.3724  155.7630 N   0  0  0  0  0  0  0  0  0  0  0  0
  152.2427  143.8414  157.5670 H   0  0  0  0  0  0  0  0  0  0  0  0
  150.7179  144.6944  157.4587 H   0  0  0  0  0  0  0  0  0  0  0  0
  151.5816  145.5217  159.4835 H   0  0  0  0  0  0  0  0  0  0  0  0
  150.5002  144.2713  160.0441 H   0  0  0  0  0  0  0  0  0  0  0  0
  153.4277  144.4803  160.2885 H   0  0  0  0  0  0  0  0  0  0  0  0
  152.2600  141.8796  159.2418 H   0  0  0  0  0  0  0  0  0  0  0  0
  153.7378  142.6721  158.7090 H   0  0  0  0  0  0  0  0  0  0  0  0
  153.6912  140.6615  160.6178 H   0  0  0  0  0  0  0  0  0  0  0  0
  154.9255  141.9125  160.6059 H   0  0  0  0  0  0  0  0  0  0  0  0
  152.9418  141.5297  162.6732 H   0  0  0  0  0  0  0  0  0  0  0  0
  154.1463  142.8034  162.5469 H   0  0  0  0  0  0  0  0  0  0  0  0
  152.2102  144.1628  162.3507 H   0  0  0  0  0  0  0  0  0  0  0  0
  151.2746  142.8421  161.6584 H   0  0  0  0  0  0  0  0  0  0  0  0
  149.9684  143.0797  156.0449 H   0  0  0  0  0  0  0  0  0  0  0  0
  149.7742  140.2840  156.5960 H   0  0  0  0  0  0  0  0  0  0  0  0
  147.8937  140.5588  154.7665 H   0  0  0  0  0  0  0  0  0  0  0  0
  148.4687  142.2080  154.6281 H   0  0  0  0  0  0  0  0  0  0  0  0
  149.5144  139.9340  153.7045 H   0  0  0  0  0  0  0  0  0  0  0  0
  147.6525  139.9716  157.4777 H   0  0  0  0  0  0  0  0  0  0  0  0
  148.1776  141.3662  158.3633 H   0  0  0  0  0  0  0  0  0  0  0  0
  146.7028  143.2090  158.5594 H   0  0  0  0  0  0  0  0  0  0  0  0
  144.6804  144.4319  157.7259 H   0  0  0  0  0  0  0  0  0  0  0  0
  143.5857  143.6515  155.6037 H   0  0  0  0  0  0  0  0  0  0  0  0
  144.5641  141.6752  154.4083 H   0  0  0  0  0  0  0  0  0  0  0  0
  1  2  2  0  0  0  0
  2  3  1  0  0  0  0
  2 10  1  0  0  0  0
  3  4  1  0  0  0  0
  3 21  1  0  0  0  0
  3 22  1  0  0  0  0
  4  5  1  0  0  0  0
  4 23  1  0  0  0  0
  4 24  1  0  0  0  0
  5  9  1  0  0  0  0
  5  6  1  0  0  0  0
  5 25  1  0  0  0  0
  6  7  1  0  0  0  0
  6 26  1  0  0  0  0
  6 27  1  0  0  0  0
  7  8  1  0  0  0  0
  7 28  1  0  0  0  0
  7 29  1  0  0  0  0
  8  9  1  0  0  0  0
  8 30  1  0  0  0  0
  8 31  1  0  0  0  0
  9 32  1  0  0  0  0
  9 33  1  0  0  0  0
 10 11  1  0  0  0  0
 10 34  1  0  0  0  0
 11 12  1  0  0  0  0
 11 14  1  0  0  0  0
 11 35  1  0  0  0  0
 12 13  1  0  0  0  0
 12 36  1  0  0  0  0
 12 37  1  0  0  0  0
 13 38  1  0  0  0  0
 14 15  1  0  0  0  0
 14 39  1  0  0  0  0
 14 40  1  0  0  0  0
 15 20  1  0  0  0  0
 15 16  2  0  0  0  0
 16 17  1  0  0  0  0
 16 41  1  0  0  0  0
 17 18  2  0  0  0  0
 17 42  1  0  0  0  0
 18 19  1  0  0  0  0
 18 43  1  0  0  0  0
 19 20  2  0  0  0  0
 19 44  1  0  0  0  0
M  END
> <s_m_source_file>
AV-unprocessed.smi

> <i_m_source_file_index>
2725

> <i_lp_mmshare_version>
43012

> <i_f3d_flags>
0

> <s_epik_input>
W0NIMl0xW0NIMl1bQ0gyXVtDSDJdW0NIXTFbQ0gyXVtDSDJdQyg9TylbTkhdW0NASF0oW0NIMl1bT0hdKVtDSDJdYzJbY0hdW2NIXVtjSF1bY0hdbjI=

> <s_epik_cmdline>
J2VwaWtfcHl0aG9uJywgJy1waCcsICc3LjAnLCAnLXRuJywgJzgnLCAnLW1hJywgJzIwMCcsICctbWV0YWxfYmluZGluZycsICctaW1hZScsICc8aW5maWxlLm1hZT4nLCAnLW9tYWUnLCAnPG91dGZpbGUubWFlPic=

> <r_epik_Ionization_Penalty>
0.0257016

> <r_epik_Ionization_Penalty_Charging>
0

> <r_epik_Ionization_Penalty_Neutral>
0.0257016

> <r_epik_State_Penalty>
0.0209381

> <r_epik_Charging_Adjusted_Penalty>
0.0209381

> <i_epik_Tot_Q>
0

> <i_epik_Tot_abs_Q>
0

> <r_epik_Metal_State_Penalty>
0.0200649

> <b_epik_Metal_Only>
0

> <s_lp_Force_Field>
OPLS_2005

> <r_lp_Energy>
24.7076

> <b_lp_Chiralities_Consistent>
1

> <s_lp_Variant>
AV-unprocessed.smi:2725-1

> <Gold.Version>
5.8.1

> <Gold.Id.Protein>
6NUR|6NUR_protein|mol2

> <Gold.PLP.Fitness>
47.2589

> <Gold.PLP.PLP>
-43.6496

> <Gold.PLP.part.hbond>
-3.3365

> <Gold.PLP.part.metal>
0.0000

> <Gold.PLP.part.buried>
-7.4810

> <Gold.PLP.part.nonpolar>
-34.5092

> <Gold.PLP.part.repulsive>
0.1280

> <Gold.PLP.ligand.clash>
0.0000

> <Gold.PLP.ligand.torsion>
1.6849

> <Gold.PLP.Chemscore.Hbond>
1.2960

> <Gold.PLP.Chemscore.CHOScore>
0.9855

> <Gold.PLP.Chemscore.Metal>
0.0000

> <Gold.Chemscore.Hbonds>
donor molecule, donor type, donor heavy atom, donor atom, acceptor molecule, acceptor atom, score
      L1  H    10    34       P1  8028  0.66
      P1  H  7989  7998       L1    13  0.62
      L1  C    19    44       P1 10175  1.00

> <Gold.PLP.Chemscore.Internal.Correction>
0.1347

> <Gold.Rescore>
     Score         DG    S(hbond)    S(metal)    S(lipo)     H(rot)  DE(clash)    DE(int)     intcor
     13.10     -16.56       1.28        0.00     111.74       2.44       0.09       3.37       ----

> <Gold.Chemscore.Fitness>
13.1013

> <Gold.Chemscore.DG>
-16.5622

> <Gold.Chemscore.ZeroCoef>
-5.4800

> <Gold.Chemscore.Hbond>
1.2753

> <Gold.Chemscore.Metal>
0.0000

> <Gold.Chemscore.Lipo>
111.7364

> <Gold.Chemscore.Internal_Hbond>
0.0000

> <Gold.Chemscore.DEClash>
0.0894

> <Gold.Chemscore.DEInternal>
3.3715

> <Gold.Chemscore.Rot>
2.4416

> <Gold.Chemscore.Internal.Correction>
   9.000000E+99

> <Gold.Chemscore.Hbonds>
donor molecule, donor type, donor heavy atom, donor atom, acceptor molecule, acceptor atom, score
      L1  H    10    34       P1  8028  0.63
      P1  H  7989  7998       L1    13  0.22

> <Gold.Chemscore.Hbond.Weighted>
-4.2596

> <Gold.Chemscore.Metal.Weighted>
-0.0000

> <Gold.Chemscore.Lipo.Weighted>
-13.0732

> <Gold.Chemscore.Internal_Hbond.Weighted>
0.0000

> <Gold.Chemscore.DEClash.Weighted>
0.0894

> <Gold.Chemscore.DEInternal.Weighted>
3.3715

> <Gold.Chemscore.Rot.Weighted>
6.2505

> <Gold.Chemscore.Internal.Correction.Weighted>
   9.000000E+99

> <Gold.Protein.RotatedTorsions>
[ 6907 6896 6895 6894 ] final  -87.37 input  -60.11 | X-H torsion
[ 7974 7965 7964 7962 ] final   10.87 input  175.53 | X-H torsion
[ 8008 7997 7996 7995 ] final   64.38 input   59.86 | X-H torsion
[ 10167 10162 10161 10158 ] final  156.72 input  -65.29 | X-H torsion
[ 10718 10713 10712 10709 ] final   76.75 input   66.30 | X-H torsion
[ 10763 10752 10751 10750 ] final   22.80 input  -60.55 | X-H torsion
[ 11005 11000 10999 10996 ] final   86.66 input  -57.11 | X-H torsion

> <Gold.Protein.ActiveResidues>
 VAL166  LYS551  ARG553  GLY616  TRP617  ASP618  TYR619  PRO620  LYS621  CYS622 
 ASP623  PHE694  ASN695  SER759  ASP760  ASP761  ALA762  ILE779  LEU786  VAL792 
 PHE793  MET794  SER795  GLU796  ALA797  LYS798  CYS799  TRP800  GLU811  SER814 

> <Gold.Protein.RotatedAtoms>
  150.6866  134.2907  159.4665 H   0  0  0  0  0  0  0  0  0  0  0  0  # atno 6907 bound_to 6896
  152.0813  134.9467  160.0582 H   0  0  0  0  0  0  0  0  0  0  0  0  # atno 6908 bound_to 6896
  152.0819  133.4122  159.4542 H   0  0  0  0  0  0  0  0  0  0  0  0  # atno 6909 bound_to 6896
  146.2381  139.9570  142.8463 H   0  0  0  0  0  0  0  0  0  0  0  0  # atno 7974 bound_to 7965
  155.6452  140.3497  155.4729 H   0  0  0  0  0  0  0  0  0  0  0  0  # atno 8008 bound_to 7997
  155.9893  140.1190  157.0676 H   0  0  0  0  0  0  0  0  0  0  0  0  # atno 8009 bound_to 7997
  154.4214  140.1122  156.5530 H   0  0  0  0  0  0  0  0  0  0  0  0  # atno 8010 bound_to 7997
  139.4821  144.4983  151.8206 H   0  0  0  0  0  0  0  0  0  0  0  0  # atno 10167 bound_to 10162
  157.6685  130.9789  150.1542 H   0  0  0  0  0  0  0  0  0  0  0  0  # atno 10718 bound_to 10713
  153.0887  135.6640  153.9897 H   0  0  0  0  0  0  0  0  0  0  0  0  # atno 10763 bound_to 10752
  153.9499  135.2985  155.3440 H   0  0  0  0  0  0  0  0  0  0  0  0  # atno 10764 bound_to 10752
  154.7299  135.5127  153.9019 H   0  0  0  0  0  0  0  0  0  0  0  0  # atno 10765 bound_to 10752
  139.8939  134.8370  156.2751 H   0  0  0  0  0  0  0  0  0  0  0  0  # atno 11005 bound_to 11000
  145.1807  140.9766  143.4268 LP  0  0  0  0  0  0  0  0  0  0  0  0  # atno 17320 bound_to 7965
  144.9944  139.3658  143.6198 LP  0  0  0  0  0  0  0  0  0  0  0  0  # atno 17321 bound_to 7965
  140.4474  144.1903  150.5895 LP  0  0  0  0  0  0  0  0  0  0  0  0  # atno 17342 bound_to 10162
  140.4620  143.2445  151.9206 LP  0  0  0  0  0  0  0  0  0  0  0  0  # atno 17343 bound_to 10162
  156.2334  130.3684  149.8419 LP  0  0  0  0  0  0  0  0  0  0  0  0  # atno 17370 bound_to 10713
  156.6239  130.8638  151.3481 LP  0  0  0  0  0  0  0  0  0  0  0  0  # atno 17371 bound_to 10713
  141.0075  133.7115  156.1058 LP  0  0  0  0  0  0  0  0  0  0  0  0  # atno 17394 bound_to 11000
  140.7413  134.4147  157.5554 LP  0  0  0  0  0  0  0  0  0  0  0  0  # atno 17395 bound_to 11000

$$$$
