AV-unprocessed.smi:1276|AV-procd|sdf|5344|dock6
  -GOLD-   22720 4473D 1   1.00000     0.00000
 Structure written by MMmdl.
 44 45  0  0  0  0  0  0  0  0  1 V2000
  145.8338  144.2261  152.8358 C   0  0  0  0  0  0  0  0  0  0  0  0
  146.2680  143.2991  153.9389 C   0  0  0  0  0  0  0  0  0  0  0  0
  147.3812  142.6668  153.7609 N   0  0  0  0  0  0  0  0  0  0  0  0
  147.8685  141.7873  154.7085 N   0  0  0  0  0  0  0  0  0  0  0  0
  149.1330  141.1387  154.3313 C   0  0  0  0  0  0  0  0  0  0  0  0
  150.1633  141.1099  155.4698 C   0  0  0  0  0  0  0  0  0  0  0  0
  150.6917  140.0520  155.8151 O   0  0  0  0  0  0  0  0  0  0  0  0
  150.4550  142.2949  156.0286 N   0  0  0  0  0  0  0  0  0  0  0  0
  151.4005  142.5096  157.1224 C   0  0  0  0  0  0  0  0  0  0  0  0
  151.1735  141.4026  158.1742 C   0  0  0  0  0  0  0  0  0  0  0  0
  151.8032  141.6114  159.5637 C   0  0  0  0  0  0  0  0  0  0  0  0
  153.1590  142.3341  159.5860 C   0  0  0  0  0  0  0  0  0  0  0  0
  153.0127  143.8649  159.5994 C   0  0  0  0  0  0  0  0  0  0  0  0
  152.5941  144.4832  158.2575 C   0  0  0  0  0  0  0  0  0  0  0  0
  151.2759  143.9486  157.6699 C   0  0  0  0  0  0  0  0  0  0  0  0
  147.2575  141.5083  155.8959 C   0  0  0  0  0  0  0  0  0  0  0  0
  147.7322  140.7206  156.7159 O   0  0  0  0  0  0  0  0  0  0  0  0
  145.9978  142.2293  156.0914 C   0  0  0  0  0  0  0  0  0  0  0  0
  145.3230  141.9623  157.3206 C   0  0  0  0  0  0  0  0  0  0  0  0
  144.7866  141.7287  158.3194 N   0  0  0  0  0  0  0  0  0  0  0  0
  145.5060  143.0908  155.1660 C   0  0  0  0  0  0  0  0  0  0  0  0
  144.2025  143.8623  155.3202 C   0  0  0  0  0  0  0  0  0  0  0  0
  145.7732  145.2532  153.1958 H   0  0  0  0  0  0  0  0  0  0  0  0
  144.8530  143.9417  152.4546 H   0  0  0  0  0  0  0  0  0  0  0  0
  146.5292  144.2124  151.9952 H   0  0  0  0  0  0  0  0  0  0  0  0
  148.9499  140.1094  154.0175 H   0  0  0  0  0  0  0  0  0  0  0  0
  149.5623  141.6371  153.4600 H   0  0  0  0  0  0  0  0  0  0  0  0
  149.9772  143.1117  155.6767 H   0  0  0  0  0  0  0  0  0  0  0  0
  152.4073  142.3796  156.7209 H   0  0  0  0  0  0  0  0  0  0  0  0
  150.1036  141.2442  158.3191 H   0  0  0  0  0  0  0  0  0  0  0  0
  151.5500  140.4667  157.7589 H   0  0  0  0  0  0  0  0  0  0  0  0
  151.1003  142.1483  160.2020 H   0  0  0  0  0  0  0  0  0  0  0  0
  151.9172  140.6318  160.0296 H   0  0  0  0  0  0  0  0  0  0  0  0
  153.6763  142.0456  160.5017 H   0  0  0  0  0  0  0  0  0  0  0  0
  153.7979  142.0029  158.7666 H   0  0  0  0  0  0  0  0  0  0  0  0
  152.3079  144.1624  160.3766 H   0  0  0  0  0  0  0  0  0  0  0  0
  153.9688  144.3019  159.8891 H   0  0  0  0  0  0  0  0  0  0  0  0
  152.4980  145.5604  158.3979 H   0  0  0  0  0  0  0  0  0  0  0  0
  153.3964  144.3549  157.5299 H   0  0  0  0  0  0  0  0  0  0  0  0
  150.9996  144.6205  156.8558 H   0  0  0  0  0  0  0  0  0  0  0  0
  150.4663  144.0200  158.3972 H   0  0  0  0  0  0  0  0  0  0  0  0
  143.7206  143.6710  156.2784 H   0  0  0  0  0  0  0  0  0  0  0  0
  143.4977  143.5815  154.5371 H   0  0  0  0  0  0  0  0  0  0  0  0
  144.3811  144.9357  155.2541 H   0  0  0  0  0  0  0  0  0  0  0  0
  1  2  1  0  0  0  0
  1 23  1  0  0  0  0
  1 24  1  0  0  0  0
  1 25  1  0  0  0  0
  2 21  1  0  0  0  0
  2  3  2  0  0  0  0
  3  4  1  0  0  0  0
  4  5  1  0  0  0  0
  4 16  1  0  0  0  0
  5  6  1  0  0  0  0
  5 26  1  0  0  0  0
  5 27  1  0  0  0  0
  6  7  2  0  0  0  0
  6  8  1  0  0  0  0
  8  9  1  0  0  0  0
  8 28  1  0  0  0  0
  9 15  1  0  0  0  0
  9 10  1  0  0  0  0
  9 29  1  0  0  0  0
 10 11  1  0  0  0  0
 10 30  1  0  0  0  0
 10 31  1  0  0  0  0
 11 12  1  0  0  0  0
 11 32  1  0  0  0  0
 11 33  1  0  0  0  0
 12 13  1  0  0  0  0
 12 34  1  0  0  0  0
 12 35  1  0  0  0  0
 13 14  1  0  0  0  0
 13 36  1  0  0  0  0
 13 37  1  0  0  0  0
 14 15  1  0  0  0  0
 14 38  1  0  0  0  0
 14 39  1  0  0  0  0
 15 40  1  0  0  0  0
 15 41  1  0  0  0  0
 16 17  2  0  0  0  0
 16 18  1  0  0  0  0
 18 19  1  0  0  0  0
 18 21  2  0  0  0  0
 19 20  3  0  0  0  0
 21 22  1  0  0  0  0
 22 42  1  0  0  0  0
 22 43  1  0  0  0  0
 22 44  1  0  0  0  0
M  END
> <s_m_source_file>
AV-unprocessed.smi

> <i_m_source_file_index>
1276

> <i_lp_mmshare_version>
43012

> <i_f3d_flags>
0

> <s_epik_input>
TiNDYyhjMVtDSDNdKWMoPU8pbihuYzFbQ0gzXSlbQ0gyXUMoPU8pW05IXVtDSF0yW0NIMl1bQ0gyXVtDSDJdW0NIMl1bQ0gyXVtDSDJdMg==

> <s_epik_cmdline>
J2VwaWtfcHl0aG9uJywgJy1waCcsICc3LjAnLCAnLXRuJywgJzgnLCAnLW1hJywgJzIwMCcsICctbWV0YWxfYmluZGluZycsICctaW1hZScsICc8aW5maWxlLm1hZT4nLCAnLW9tYWUnLCAnPG91dGZpbGUubWFlPic=

> <r_lp_tautomer_probability>
1

> <r_epik_Ionization_Penalty>
2.02378e-08

> <r_epik_Ionization_Penalty_Charging>
2.27609e-11

> <r_epik_Ionization_Penalty_Neutral>
2.0215e-08

> <r_epik_State_Penalty>
-0

> <r_epik_Charging_Adjusted_Penalty>
2.27609e-11

> <i_epik_Tot_Q>
0

> <i_epik_Tot_abs_Q>
0

> <r_epik_Metal_State_Penalty>
-0

> <b_epik_Metal_Only>
0

> <s_lp_Force_Field>
OPLS_2005

> <r_lp_Energy>
30.1422

> <b_lp_Chiralities_Consistent>
1

> <s_lp_Variant>
AV-unprocessed.smi:1276-1

> <Gold.Version>
5.8.1

> <Gold.Id.Protein>
6NUR|6NUR_protein|mol2

> <Gold.PLP.Fitness>
45.2849

> <Gold.PLP.PLP>
-43.0438

> <Gold.PLP.part.hbond>
-1.0000

> <Gold.PLP.part.metal>
0.0000

> <Gold.PLP.part.buried>
-4.5295

> <Gold.PLP.part.nonpolar>
-37.0712

> <Gold.PLP.part.repulsive>
0.3281

> <Gold.PLP.ligand.clash>
0.0000

> <Gold.PLP.ligand.torsion>
0.3901

> <Gold.PLP.Chemscore.Hbond>
1.0000

> <Gold.PLP.Chemscore.CHOScore>
0.0000

> <Gold.PLP.Chemscore.Metal>
0.0000

> <Gold.Chemscore.Hbonds>
donor molecule, donor type, donor heavy atom, donor atom, acceptor molecule, acceptor atom, score
      L1  H     8    28       P1  8028  1.00
      P1  H  8022  8030       L1     3  0.02

> <Gold.PLP.Chemscore.Internal.Correction>
0.0213

> <Gold.Rescore>
     Score         DG    S(hbond)    S(metal)    S(lipo)     H(rot)  DE(clash)    DE(int)     intcor
     14.73     -17.48       0.99        0.00     106.18       1.46       0.32       2.43       ----

> <Gold.Chemscore.Fitness>
14.7326

> <Gold.Chemscore.DG>
-17.4803

> <Gold.Chemscore.ZeroCoef>
-5.4800

> <Gold.Chemscore.Hbond>
0.9938

> <Gold.Chemscore.Metal>
0.0000

> <Gold.Chemscore.Lipo>
106.1752

> <Gold.Chemscore.Internal_Hbond>
0.0000

> <Gold.Chemscore.DEClash>
0.3180

> <Gold.Chemscore.DEInternal>
2.4297

> <Gold.Chemscore.Rot>
1.4615

> <Gold.Chemscore.Internal.Correction>
   9.000000E+99

> <Gold.Chemscore.Hbonds>
donor molecule, donor type, donor heavy atom, donor atom, acceptor molecule, acceptor atom, score
      L1  H     8    28       P1  8028  0.99

> <Gold.Chemscore.Hbond.Weighted>
-3.3192

> <Gold.Chemscore.Metal.Weighted>
-0.0000

> <Gold.Chemscore.Lipo.Weighted>
-12.4225

> <Gold.Chemscore.Internal_Hbond.Weighted>
0.0000

> <Gold.Chemscore.DEClash.Weighted>
0.3180

> <Gold.Chemscore.DEInternal.Weighted>
2.4297

> <Gold.Chemscore.Rot.Weighted>
3.7414

> <Gold.Chemscore.Internal.Correction.Weighted>
   9.000000E+99

> <Gold.Protein.RotatedTorsions>
[ 6907 6896 6895 6894 ] final   83.02 input  -60.11 | X-H torsion
[ 7974 7965 7964 7962 ] final   70.56 input  175.53 | X-H torsion
[ 8008 7997 7996 7995 ] final  115.44 input   59.86 | X-H torsion
[ 10167 10162 10161 10158 ] final  -61.00 input  -65.29 | X-H torsion
[ 10718 10713 10712 10709 ] final  127.33 input   66.30 | X-H torsion
[ 10763 10752 10751 10750 ] final  -51.62 input  -60.55 | X-H torsion
[ 11005 11000 10999 10996 ] final   43.34 input  -57.11 | X-H torsion

> <Gold.Protein.ActiveResidues>
 VAL166  LYS551  ARG553  GLY616  TRP617  ASP618  TYR619  PRO620  LYS621  CYS622 
 ASP623  PHE694  ASN695  SER759  ASP760  ASP761  ALA762  ILE779  LEU786  VAL792 
 PHE793  MET794  SER795  GLU796  ALA797  LYS798  CYS799  TRP800  GLU811  SER814 

> <Gold.Protein.RotatedAtoms>
  152.5315  134.2961  159.9060 H   0  0  0  0  0  0  0  0  0  0  0  0  # atno 6907 bound_to 6896
  151.2912  133.4158  159.2641 H   0  0  0  0  0  0  0  0  0  0  0  0  # atno 6908 bound_to 6896
  151.0199  134.9477  159.8111 H   0  0  0  0  0  0  0  0  0  0  0  0  # atno 6909 bound_to 6896
  145.7767  139.2868  143.1290 H   0  0  0  0  0  0  0  0  0  0  0  0  # atno 7974 bound_to 7965
  156.2381  140.2938  156.0369 H   0  0  0  0  0  0  0  0  0  0  0  0  # atno 8008 bound_to 7997
  155.2031  140.0410  157.2938 H   0  0  0  0  0  0  0  0  0  0  0  0  # atno 8009 bound_to 7997
  154.6117  140.2453  155.7668 H   0  0  0  0  0  0  0  0  0  0  0  0  # atno 8010 bound_to 7997
  140.6035  143.2367  151.5875 H   0  0  0  0  0  0  0  0  0  0  0  0  # atno 10167 bound_to 10162
  157.5342  131.1098  150.8962 H   0  0  0  0  0  0  0  0  0  0  0  0  # atno 10718 bound_to 10713
  154.1295  135.6522  153.4919 H   0  0  0  0  0  0  0  0  0  0  0  0  # atno 10763 bound_to 10752
  153.0200  135.5289  154.7016 H   0  0  0  0  0  0  0  0  0  0  0  0  # atno 10764 bound_to 10752
  154.6246  135.2969  155.0257 H   0  0  0  0  0  0  0  0  0  0  0  0  # atno 10765 bound_to 10752
  140.1654  134.4288  155.8290 H   0  0  0  0  0  0  0  0  0  0  0  0  # atno 11005 bound_to 11000
  146.0116  140.8430  142.9968 LP  0  0  0  0  0  0  0  0  0  0  0  0  # atno 17320 bound_to 7965
  144.6803  140.2498  143.7333 LP  0  0  0  0  0  0  0  0  0  0  0  0  # atno 17321 bound_to 7965
  139.5308  144.2923  152.1142 LP  0  0  0  0  0  0  0  0  0  0  0  0  # atno 17342 bound_to 10162
  140.2108  144.4565  150.6387 LP  0  0  0  0  0  0  0  0  0  0  0  0  # atno 17343 bound_to 10162
  156.9534  130.5428  149.5283 LP  0  0  0  0  0  0  0  0  0  0  0  0  # atno 17370 bound_to 10713
  156.0445  130.5524  150.8850 LP  0  0  0  0  0  0  0  0  0  0  0  0  # atno 17371 bound_to 10713
  141.2213  133.6932  156.7669 LP  0  0  0  0  0  0  0  0  0  0  0  0  # atno 17394 bound_to 11000
  140.2440  134.8592  157.3602 LP  0  0  0  0  0  0  0  0  0  0  0  0  # atno 17395 bound_to 11000

$$$$
