AV-unprocessed.smi:2247|AV-procd|sdf|9093|dock4
  -GOLD-   2272012293D 1   1.00000     0.00000
 Structure written by MMmdl.
 33 34  0  0  0  0  0  0  0  0  2 V2000
  152.3192  141.4528  159.6275 C   0  0  0  0  0  0  0  0  0  0  0  0
  151.9310  141.7848  158.1749 C   0  0  0  0  0  0  0  0  0  0  0  0
  151.0776  143.0607  158.0925 C   0  0  0  0  0  0  0  0  0  0  0  0
  151.2496  140.6723  157.4976 N   0  0  0  0  0  0  0  0  0  0  0  0
  149.8428  140.7205  157.1330 C   0  0  0  0  0  0  0  0  0  0  0  0
  149.6292  139.5022  156.2295 C   0  0  0  0  0  0  0  0  0  0  0  0
  150.8385  138.5775  156.4418 C   0  0  2  0  0  0  0  0  0  0  0  0
  150.4633  137.4644  157.3120 N   0  0  0  0  0  0  0  0  0  0  0  0
  149.8447  137.5621  158.4979 C   0  0  0  0  0  0  0  0  0  0  0  0
  149.5427  138.6709  158.9452 O   0  0  0  0  0  0  0  0  0  0  0  0
  149.6172  136.3688  159.0914 N   0  5  0  0  0  0  0  0  0  0  0  0
  148.5113  136.1920  159.8321 C   0  0  0  0  0  0  0  0  0  0  0  0
  147.7812  137.1508  160.4043 N   0  0  0  0  0  0  0  0  0  0  0  0
  146.7425  136.5001  161.0525 C   0  0  0  0  0  0  0  0  0  0  0  0
  146.8873  135.1573  160.8343 C   0  0  0  0  0  0  0  0  0  0  0  0
  147.9971  134.9506  160.0629 O   0  0  0  0  0  0  0  0  0  0  0  0
  151.8160  139.5046  157.1619 C   0  0  0  0  0  0  0  0  0  0  0  0
  152.9896  139.1948  157.3665 O   0  0  0  0  0  0  0  0  0  0  0  0
  152.9005  142.2641  160.0664 H   0  0  0  0  0  0  0  0  0  0  0  0
  152.9309  140.5514  159.6766 H   0  0  0  0  0  0  0  0  0  0  0  0
  151.4437  141.3027  160.2597 H   0  0  0  0  0  0  0  0  0  0  0  0
  152.8638  141.9759  157.6414 H   0  0  0  0  0  0  0  0  0  0  0  0
  151.5898  143.9051  158.5542 H   0  0  0  0  0  0  0  0  0  0  0  0
  150.1224  142.9308  158.6023 H   0  0  0  0  0  0  0  0  0  0  0  0
  150.8682  143.3319  157.0571 H   0  0  0  0  0  0  0  0  0  0  0  0
  149.2297  140.6416  158.0317 H   0  0  0  0  0  0  0  0  0  0  0  0
  149.5883  141.6490  156.6205 H   0  0  0  0  0  0  0  0  0  0  0  0
  148.6739  139.0123  156.4233 H   0  0  0  0  0  0  0  0  0  0  0  0
  149.6102  139.8282  155.1886 H   0  0  0  0  0  0  0  0  0  0  0  0
  151.2452  138.2316  155.4900 H   0  0  0  0  0  0  0  0  0  0  0  0
  150.6857  136.5364  156.9836 H   0  0  0  0  0  0  0  0  0  0  0  0
  145.9903  137.0379  161.6099 H   0  0  0  0  0  0  0  0  0  0  0  0
  146.3306  134.2814  161.1323 H   0  0  0  0  0  0  0  0  0  0  0  0
  1  2  1  0  0  0  0
  1 19  1  0  0  0  0
  1 20  1  0  0  0  0
  1 21  1  0  0  0  0
  2  3  1  0  0  0  0
  2  4  1  0  0  0  0
  2 22  1  0  0  0  0
  3 23  1  0  0  0  0
  3 24  1  0  0  0  0
  3 25  1  0  0  0  0
  4 17  1  0  0  0  0
  4  5  1  0  0  0  0
  5  6  1  0  0  0  0
  5 26  1  0  0  0  0
  5 27  1  0  0  0  0
  6  7  1  0  0  0  0
  6 28  1  0  0  0  0
  6 29  1  0  0  0  0
  7  8  1  0  0  0  0
  7 17  1  0  0  0  0
  7 30  1  0  0  0  0
  8  9  1  0  0  0  0
  8 31  1  0  0  0  0
  9 10  2  0  0  0  0
  9 11  1  0  0  0  0
 11 12  1  0  0  0  0
 12 16  1  0  0  0  0
 12 13  2  0  0  0  0
 13 14  1  0  0  0  0
 14 15  2  0  0  0  0
 14 32  1  0  0  0  0
 15 16  1  0  0  0  0
 15 33  1  0  0  0  0
 17 18  2  0  0  0  0
M  CHG  1  11  -1
M  END
> <s_m_source_file>
AV-unprocessed.smi

> <i_m_source_file_index>
2247

> <i_lp_mmshare_version>
43012

> <i_f3d_flags>
0

> <s_epik_input>
W0NIM11bQ0hdKFtDSDNdKU4xW0NIMl1bQ0gyXVtDQEhdKEMxPU8pW05IXUMoPU8pW05IXWMybltjSF1bY0hdbzI=

> <s_epik_cmdline>
J2VwaWtfcHl0aG9uJywgJy1waCcsICc3LjAnLCAnLXRuJywgJzgnLCAnLW1hJywgJzIwMCcsICctbWV0YWxfYmluZGluZycsICctaW1hZScsICc8aW5maWxlLm1hZT4nLCAnLW9tYWUnLCAnPG91dGZpbGUubWFlPic=

> <r_lp_tautomer_probability>
0.785861

> <r_epik_Ionization_Penalty>
8.37364

> <r_epik_Ionization_Penalty_Charging>
6.20178

> <r_epik_Ionization_Penalty_Neutral>
2.17186

> <r_epik_State_Penalty>
6.22234

> <r_epik_Charging_Adjusted_Penalty>
12.4241

> <i_epik_Tot_Q>
-1

> <i_epik_Tot_abs_Q>
1

> <r_epik_Metal_State_Penalty>
2.14252

> <b_epik_Metal_Only>
1

> <s_lp_Force_Field>
OPLS_2005

> <r_lp_Energy>
16.3016

> <b_lp_Chiralities_Consistent>
1

> <s_lp_Variant>
AV-unprocessed.smi:2247-8

> <Gold.Version>
5.8.1

> <Gold.Id.Protein>
6NUR|6NUR_protein|mol2

> <Gold.PLP.Fitness>
35.6745

> <Gold.PLP.PLP>
-23.6783

> <Gold.PLP.part.hbond>
-5.6105

> <Gold.PLP.part.metal>
0.0000

> <Gold.PLP.part.buried>
-2.6317

> <Gold.PLP.part.nonpolar>
-15.8309

> <Gold.PLP.part.repulsive>
0.0358

> <Gold.PLP.ligand.clash>
0.0000

> <Gold.PLP.ligand.torsion>
0.6232

> <Gold.PLP.Chemscore.Hbond>
4.3880

> <Gold.PLP.Chemscore.CHOScore>
0.0000

> <Gold.PLP.Chemscore.Metal>
0.0000

> <Gold.Chemscore.Hbonds>
donor molecule, donor type, donor heavy atom, donor atom, acceptor molecule, acceptor atom, score
      P1  H  6896  6908       L1    11  2.00
      P1  H  6931  6943       L1    13  0.36
      P1  H  6934  6947       L1    13  0.70
      P1  H  7997  8010       L1    18  1.00

> <Gold.PLP.Chemscore.Internal.Correction>
0.0786

> <Gold.Rescore>
     Score         DG    S(hbond)    S(metal)    S(lipo)     H(rot)  DE(clash)    DE(int)     intcor
     12.32     -17.65       2.87        0.00      50.92       1.32       0.12       5.21       ----

> <Gold.Chemscore.Fitness>
12.3248

> <Gold.Chemscore.DG>
-17.6481

> <Gold.Chemscore.ZeroCoef>
-5.4800

> <Gold.Chemscore.Hbond>
2.8728

> <Gold.Chemscore.Metal>
0.0000

> <Gold.Chemscore.Lipo>
50.9165

> <Gold.Chemscore.Internal_Hbond>
0.0000

> <Gold.Chemscore.DEClash>
0.1164

> <Gold.Chemscore.DEInternal>
5.2069

> <Gold.Chemscore.Rot>
1.3219

> <Gold.Chemscore.Internal.Correction>
   9.000000E+99

> <Gold.Chemscore.Hbonds>
donor molecule, donor type, donor heavy atom, donor atom, acceptor molecule, acceptor atom, score
      P1  H  6896  6908       L1    11  0.37
      P1  H  6931  6943       L1    13  0.20
      P1  H  6934  6947       L1    13  0.10
      P1  H  7997  8010       L1    18  1.00

> <Gold.Chemscore.Hbond.Weighted>
-9.5950

> <Gold.Chemscore.Metal.Weighted>
-0.0000

> <Gold.Chemscore.Lipo.Weighted>
-5.9572

> <Gold.Chemscore.Internal_Hbond.Weighted>
0.0000

> <Gold.Chemscore.DEClash.Weighted>
0.1164

> <Gold.Chemscore.DEInternal.Weighted>
5.2069

> <Gold.Chemscore.Rot.Weighted>
3.3842

> <Gold.Chemscore.Internal.Correction.Weighted>
   9.000000E+99

> <Gold.Protein.RotatedTorsions>
[ 6907 6896 6895 6894 ] final -172.51 input  -60.11 | X-H torsion
[ 7974 7965 7964 7962 ] final  117.12 input  175.53 | X-H torsion
[ 8008 7997 7996 7995 ] final   47.58 input   59.86 | X-H torsion
[ 10167 10162 10161 10158 ] final  155.58 input  -65.29 | X-H torsion
[ 10718 10713 10712 10709 ] final -160.01 input   66.30 | X-H torsion
[ 10763 10752 10751 10750 ] final   -4.28 input  -60.55 | X-H torsion
[ 11005 11000 10999 10996 ] final  140.50 input  -57.11 | X-H torsion

> <Gold.Protein.ActiveResidues>
 VAL166  LYS551  ARG553  GLY616  TRP617  ASP618  TYR619  PRO620  LYS621  CYS622 
 ASP623  PHE694  ASN695  SER759  ASP760  ASP761  ALA762  ILE779  LEU786  VAL792 
 PHE793  MET794  SER795  GLU796  ALA797  LYS798  CYS799  TRP800  GLU811  SER814 

> <Gold.Protein.RotatedAtoms>
  151.5412  133.3432  159.2935 H   0  0  0  0  0  0  0  0  0  0  0  0  # atno 6907 bound_to 6896
  150.8534  134.7868  159.7038 H   0  0  0  0  0  0  0  0  0  0  0  0  # atno 6908 bound_to 6896
  152.4574  134.5269  159.9851 H   0  0  0  0  0  0  0  0  0  0  0  0  # atno 6909 bound_to 6896
  145.1713  139.3100  143.4466 H   0  0  0  0  0  0  0  0  0  0  0  0  # atno 7974 bound_to 7965
  155.3715  140.3424  155.4243 H   0  0  0  0  0  0  0  0  0  0  0  0  # atno 8008 bound_to 7997
  156.1660  140.1616  156.8565 H   0  0  0  0  0  0  0  0  0  0  0  0  # atno 8009 bound_to 7997
  154.5185  140.0772  156.8110 H   0  0  0  0  0  0  0  0  0  0  0  0  # atno 8010 bound_to 7997
  139.4821  144.5086  151.8060 H   0  0  0  0  0  0  0  0  0  0  0  0  # atno 10167 bound_to 10162
  156.5761  130.8709  151.2851 H   0  0  0  0  0  0  0  0  0  0  0  0  # atno 10718 bound_to 10713
  153.3828  135.6999  153.6553 H   0  0  0  0  0  0  0  0  0  0  0  0  # atno 10763 bound_to 10752
  153.5157  135.3622  155.2608 H   0  0  0  0  0  0  0  0  0  0  0  0  # atno 10764 bound_to 10752
  154.8694  135.4145  154.3129 H   0  0  0  0  0  0  0  0  0  0  0  0  # atno 10765 bound_to 10752
  140.0332  134.9342  157.0702 H   0  0  0  0  0  0  0  0  0  0  0  0  # atno 11005 bound_to 11000
  146.3468  140.1859  142.8589 LP  0  0  0  0  0  0  0  0  0  0  0  0  # atno 17320 bound_to 7965
  145.0230  140.8809  143.5155 LP  0  0  0  0  0  0  0  0  0  0  0  0  # atno 17321 bound_to 7965
  140.4586  144.1754  150.5904 LP  0  0  0  0  0  0  0  0  0  0  0  0  # atno 17342 bound_to 10162
  140.4509  143.2487  151.9349 LP  0  0  0  0  0  0  0  0  0  0  0  0  # atno 17343 bound_to 10162
  157.7337  130.9735  150.1992 LP  0  0  0  0  0  0  0  0  0  0  0  0  # atno 17370 bound_to 10713
  156.2672  130.3717  149.8069 LP  0  0  0  0  0  0  0  0  0  0  0  0  # atno 17371 bound_to 10713
  140.4191  134.1899  155.7164 LP  0  0  0  0  0  0  0  0  0  0  0  0  # atno 17394 bound_to 11000
  141.1843  133.8348  157.1146 LP  0  0  0  0  0  0  0  0  0  0  0  0  # atno 17395 bound_to 11000

$$$$
