AV-unprocessed.smi:276|AV-procd|sdf|2079|dock9
  -GOLD-   2262021343D 1   1.00000     0.00000
 Structure written by MMmdl.
 57 61  0  0  0  0  0  0  0  0  1 V2000
  141.9235  135.3753  153.7682 C   0  0  0  0  0  0  0  0  0  0  0  0
  142.6902  136.3718  153.1140 O   0  0  0  0  0  0  0  0  0  0  0  0
  144.0853  136.1151  153.1603 C   0  0  1  0  0  0  0  0  0  0  0  0
  144.8633  137.0032  152.1853 C   0  0  0  0  0  0  0  0  0  0  0  0
  145.9725  137.0589  153.2430 C   0  0  1  0  0  0  0  0  0  0  0  0
  146.6511  138.3561  153.2952 N   0  0  0  0  0  0  0  0  0  0  0  0
  146.9558  138.9702  152.0092 C   0  0  0  0  0  0  0  0  0  0  0  0
  147.7247  138.4358  154.1137 C   0  0  0  0  0  0  0  0  0  0  0  0
  148.1111  137.2914  154.7314 N   0  0  0  0  0  0  0  0  0  0  0  0
  149.1678  137.2947  155.5489 C   0  0  0  0  0  0  0  0  0  0  0  0
  149.9580  138.3151  155.8881 N   0  0  0  0  0  0  0  0  0  0  0  0
  149.5578  139.4718  155.2867 C   0  0  0  0  0  0  0  0  0  0  0  0
  148.4579  139.6245  154.3961 C   0  0  0  0  0  0  0  0  0  0  0  0
  148.3527  140.9539  154.0024 N   0  0  0  0  0  0  0  0  0  0  0  0
  149.3407  141.5483  154.6133 C   0  0  0  0  0  0  0  0  0  0  0  0
  150.1141  140.7320  155.4060 N   0  0  0  0  0  0  0  0  0  0  0  0
  151.2651  141.1207  156.2009 C   0  0  0  0  0  0  0  0  0  0  0  0
  150.9944  142.3800  157.0473 C   0  0  2  0  0  0  0  0  0  0  0  0
  150.9855  143.5153  156.2023 O   0  0  0  0  0  0  0  0  0  0  0  0
  152.0537  142.5836  158.1460 C   0  0  1  0  0  0  0  0  0  0  0  0
  151.9152  143.8906  158.9268 C   0  0  0  0  0  0  0  0  0  0  0  0
  152.6131  143.5894  160.2427 C   0  0  0  0  0  0  0  0  0  0  0  0
  152.6432  142.0596  160.3046 C   0  0  0  0  0  0  0  0  0  0  0  0
  151.8988  141.6194  159.1761 O   0  0  0  0  0  0  0  0  0  0  0  0
  144.8640  136.8075  154.3003 C   0  0  0  0  0  0  0  0  0  0  0  0
  145.1599  136.0666  155.6116 C   0  0  0  0  0  0  0  0  0  0  0  0
  144.8807  137.3616  156.3816 C   0  0  0  0  0  0  0  0  0  0  0  0
  144.2173  137.9382  155.1263 C   0  0  0  0  0  0  0  0  0  0  0  0
  140.8640  135.6168  153.6848 H   0  0  0  0  0  0  0  0  0  0  0  0
  142.1687  135.3132  154.8284 H   0  0  0  0  0  0  0  0  0  0  0  0
  142.0816  134.3959  153.3148 H   0  0  0  0  0  0  0  0  0  0  0  0
  144.3459  135.0613  153.0378 H   0  0  0  0  0  0  0  0  0  0  0  0
  145.1464  136.5180  151.2510 H   0  0  0  0  0  0  0  0  0  0  0  0
  144.3797  137.9664  152.0108 H   0  0  0  0  0  0  0  0  0  0  0  0
  146.6439  136.2054  153.1388 H   0  0  0  0  0  0  0  0  0  0  0  0
  147.6529  138.3519  151.4421 H   0  0  0  0  0  0  0  0  0  0  0  0
  147.3988  139.9590  152.1381 H   0  0  0  0  0  0  0  0  0  0  0  0
  146.0495  139.0917  151.4160 H   0  0  0  0  0  0  0  0  0  0  0  0
  149.4168  136.3428  155.9945 H   0  0  0  0  0  0  0  0  0  0  0  0
  149.5296  142.6066  154.5068 H   0  0  0  0  0  0  0  0  0  0  0  0
  151.5281  140.2809  156.8450 H   0  0  0  0  0  0  0  0  0  0  0  0
  152.1142  141.2804  155.5349 H   0  0  0  0  0  0  0  0  0  0  0  0
  150.0095  142.2980  157.5093 H   0  0  0  0  0  0  0  0  0  0  0  0
  150.0903  143.7103  155.9710 H   0  0  0  0  0  0  0  0  0  0  0  0
  153.0605  142.5001  157.7315 H   0  0  0  0  0  0  0  0  0  0  0  0
  152.3468  144.7445  158.4037 H   0  0  0  0  0  0  0  0  0  0  0  0
  150.8625  144.1075  159.1140 H   0  0  0  0  0  0  0  0  0  0  0  0
  153.6275  143.9900  160.2501 H   0  0  0  0  0  0  0  0  0  0  0  0
  152.0736  144.0232  161.0852 H   0  0  0  0  0  0  0  0  0  0  0  0
  153.6673  141.6921  160.2275 H   0  0  0  0  0  0  0  0  0  0  0  0
  152.2114  141.6712  161.2272 H   0  0  0  0  0  0  0  0  0  0  0  0
  144.4337  135.2831  155.8297 H   0  0  0  0  0  0  0  0  0  0  0  0
  146.1812  135.6988  155.7070 H   0  0  0  0  0  0  0  0  0  0  0  0
  144.2065  137.2428  157.2301 H   0  0  0  0  0  0  0  0  0  0  0  0
  145.7907  137.8901  156.6660 H   0  0  0  0  0  0  0  0  0  0  0  0
  144.5328  138.9493  154.8709 H   0  0  0  0  0  0  0  0  0  0  0  0
  143.1302  137.8730  155.1744 H   0  0  0  0  0  0  0  0  0  0  0  0
  1  2  1  0  0  0  0
  1 29  1  0  0  0  0
  1 30  1  0  0  0  0
  1 31  1  0  0  0  0
  2  3  1  0  0  0  0
  3 25  1  0  0  0  0
  3  4  1  0  0  0  0
  3 32  1  0  0  0  0
  4  5  1  0  0  0  0
  4 33  1  0  0  0  0
  4 34  1  0  0  0  0
  5  6  1  0  0  0  0
  5 25  1  0  0  0  0
  5 35  1  0  0  0  0
  6  7  1  0  0  0  0
  6  8  1  0  0  0  0
  7 36  1  0  0  0  0
  7 37  1  0  0  0  0
  7 38  1  0  0  0  0
  8 13  1  0  0  0  0
  8  9  2  0  0  0  0
  9 10  1  0  0  0  0
 10 11  2  0  0  0  0
 10 39  1  0  0  0  0
 11 12  1  0  0  0  0
 12 16  1  0  0  0  0
 12 13  2  0  0  0  0
 13 14  1  0  0  0  0
 14 15  2  0  0  0  0
 15 16  1  0  0  0  0
 15 40  1  0  0  0  0
 16 17  1  0  0  0  0
 17 18  1  0  0  0  0
 17 41  1  0  0  0  0
 17 42  1  0  0  0  0
 18 19  1  0  0  0  0
 18 20  1  0  0  0  0
 18 43  1  0  0  0  0
 19 44  1  0  0  0  0
 20 24  1  0  0  0  0
 20 21  1  0  0  0  0
 20 45  1  0  0  0  0
 21 22  1  0  0  0  0
 21 46  1  0  0  0  0
 21 47  1  0  0  0  0
 22 23  1  0  0  0  0
 22 48  1  0  0  0  0
 22 49  1  0  0  0  0
 23 24  1  0  0  0  0
 23 50  1  0  0  0  0
 23 51  1  0  0  0  0
 25 28  1  0  0  0  0
 25 26  1  0  0  0  0
 26 27  1  0  0  0  0
 26 52  1  0  0  0  0
 26 53  1  0  0  0  0
 27 28  1  0  0  0  0
 27 54  1  0  0  0  0
 27 55  1  0  0  0  0
 28 56  1  0  0  0  0
 28 57  1  0  0  0  0
M  END
> <s_m_source_file>
AV-unprocessed.smi

> <i_m_source_file_index>
276

> <i_lp_mmshare_version>
43012

> <i_f3d_flags>
0

> <s_epik_input>
W0NIMl0xW0NIMl1bQ0gyXUMxMltDQEhdKE9bQ0gzXSlbQ0gyXVtDQEhdMk4oW0NIM10pYyhuW2NIXW4zKWMoYzM0KW5bY0hdbjRbQ0gyXVtDQEhdKFtPSF0pW0NAQEhdNVtDSDJdW0NIMl1bQ0gyXU81

> <s_epik_cmdline>
J2VwaWtfcHl0aG9uJywgJy1waCcsICc3LjAnLCAnLXRuJywgJzgnLCAnLW1hJywgJzIwMCcsICctbWV0YWxfYmluZGluZycsICctaW1hZScsICc8aW5maWxlLm1hZT4nLCAnLW9tYWUnLCAnPG91dGZpbGUubWFlPic=

> <r_lp_tautomer_probability>
1

> <r_epik_Ionization_Penalty>
0.00204117

> <r_epik_Ionization_Penalty_Charging>
0

> <r_epik_Ionization_Penalty_Neutral>
0.00204117

> <r_epik_State_Penalty>
0.00127401

> <r_epik_Charging_Adjusted_Penalty>
0.00127401

> <i_epik_Tot_Q>
0

> <i_epik_Tot_abs_Q>
0

> <r_epik_Metal_State_Penalty>
-0

> <b_epik_Metal_Only>
0

> <s_lp_Force_Field>
OPLS_2005

> <r_lp_Energy>
54.7762

> <b_lp_Chiralities_Consistent>
1

> <s_lp_Variant>
AV-unprocessed.smi:276-10

> <Gold.Version>
5.8.1

> <Gold.Id.Protein>
6NUR|6NUR_protein|mol2

> <Gold.PLP.Fitness>
42.6921

> <Gold.PLP.PLP>
-38.5003

> <Gold.PLP.part.hbond>
-0.7551

> <Gold.PLP.part.metal>
0.0000

> <Gold.PLP.part.buried>
-3.6374

> <Gold.PLP.part.nonpolar>
-34.7888

> <Gold.PLP.part.repulsive>
0.6895

> <Gold.PLP.ligand.clash>
0.0000

> <Gold.PLP.ligand.torsion>
1.2492

> <Gold.PLP.Chemscore.Hbond>
0.9920

> <Gold.PLP.Chemscore.CHOScore>
1.0000

> <Gold.PLP.Chemscore.Metal>
0.0000

> <Gold.Chemscore.Hbonds>
donor molecule, donor type, donor heavy atom, donor atom, acceptor molecule, acceptor atom, score
      L1  H    19    44       P1  8028  1.00
      L1  C    15    40       P1  8028  1.00

> <Gold.PLP.Chemscore.Internal.Correction>
0.7142

> <Gold.Rescore>
     Score         DG    S(hbond)    S(metal)    S(lipo)     H(rot)  DE(clash)    DE(int)     intcor
     11.09     -12.64       0.98        0.00      92.71       2.72       0.14       1.41       ----

> <Gold.Chemscore.Fitness>
11.0858

> <Gold.Chemscore.DG>
-12.6425

> <Gold.Chemscore.ZeroCoef>
-5.4800

> <Gold.Chemscore.Hbond>
0.9796

> <Gold.Chemscore.Metal>
0.0000

> <Gold.Chemscore.Lipo>
92.7061

> <Gold.Chemscore.Internal_Hbond>
0.0000

> <Gold.Chemscore.DEClash>
0.1419

> <Gold.Chemscore.DEInternal>
1.4148

> <Gold.Chemscore.Rot>
2.7172

> <Gold.Chemscore.Internal.Correction>
   9.000000E+99

> <Gold.Chemscore.Hbonds>
donor molecule, donor type, donor heavy atom, donor atom, acceptor molecule, acceptor atom, score
      L1  H    19    44       P1  8028  0.95

> <Gold.Chemscore.Hbond.Weighted>
-3.2719

> <Gold.Chemscore.Metal.Weighted>
-0.0000

> <Gold.Chemscore.Lipo.Weighted>
-10.8466

> <Gold.Chemscore.Internal_Hbond.Weighted>
0.0000

> <Gold.Chemscore.DEClash.Weighted>
0.1419

> <Gold.Chemscore.DEInternal.Weighted>
1.4148

> <Gold.Chemscore.Rot.Weighted>
6.9560

> <Gold.Chemscore.Internal.Correction.Weighted>
   9.000000E+99

> <Gold.Protein.RotatedTorsions>
[ 6907 6896 6895 6894 ] final -150.97 input  -60.11 | X-H torsion
[ 7974 7965 7964 7962 ] final -171.55 input  175.53 | X-H torsion
[ 8008 7997 7996 7995 ] final  112.10 input   59.86 | X-H torsion
[ 10167 10162 10161 10158 ] final   25.10 input  -65.29 | X-H torsion
[ 10718 10713 10712 10709 ] final   30.46 input   66.30 | X-H torsion
[ 10763 10752 10751 10750 ] final  -83.80 input  -60.55 | X-H torsion
[ 11005 11000 10999 10996 ] final -172.00 input  -57.11 | X-H torsion

> <Gold.Protein.ActiveResidues>
 VAL166  LYS551  ARG553  GLY616  TRP617  ASP618  TYR619  PRO620  LYS621  CYS622 
 ASP623  PHE694  ASN695  SER759  ASP760  ASP761  ALA762  ILE779  LEU786  VAL792 
 PHE793  MET794  SER795  GLU796  ALA797  LYS798  CYS799  TRP800  GLU811  SER814 

> <Gold.Protein.RotatedAtoms>
  151.2063  133.4581  159.2597 H   0  0  0  0  0  0  0  0  0  0  0  0  # atno 6907 bound_to 6896
  151.1020  134.9977  159.8463 H   0  0  0  0  0  0  0  0  0  0  0  0  # atno 6908 bound_to 6896
  152.5444  134.1989  159.8757 H   0  0  0  0  0  0  0  0  0  0  0  0  # atno 6909 bound_to 6896
  144.7156  140.1905  143.6349 H   0  0  0  0  0  0  0  0  0  0  0  0  # atno 7974 bound_to 7965
  156.2169  140.3006  155.9862 H   0  0  0  0  0  0  0  0  0  0  0  0  # atno 8008 bound_to 7997
  155.2581  140.0428  157.3011 H   0  0  0  0  0  0  0  0  0  0  0  0  # atno 8009 bound_to 7997
  154.5782  140.2367  155.8100 H   0  0  0  0  0  0  0  0  0  0  0  0  # atno 8010 bound_to 7997
  140.5134  144.0123  150.6383 H   0  0  0  0  0  0  0  0  0  0  0  0  # atno 10167 bound_to 10162
  157.2599  130.7156  149.6448 H   0  0  0  0  0  0  0  0  0  0  0  0  # atno 10718 bound_to 10713
  154.5920  135.5543  153.7288 H   0  0  0  0  0  0  0  0  0  0  0  0  # atno 10763 bound_to 10752
  153.0120  135.6345  154.1836 H   0  0  0  0  0  0  0  0  0  0  0  0  # atno 10764 bound_to 10752
  154.1777  135.2889  155.3042 H   0  0  0  0  0  0  0  0  0  0  0  0  # atno 10765 bound_to 10752
  140.5019  134.5885  157.4990 H   0  0  0  0  0  0  0  0  0  0  0  0  # atno 11005 bound_to 11000
  145.8772  139.2303  143.1626 LP  0  0  0  0  0  0  0  0  0  0  0  0  # atno 17320 bound_to 7965
  146.0029  140.8504  143.0009 LP  0  0  0  0  0  0  0  0  0  0  0  0  # atno 17321 bound_to 7965
  140.3452  143.2996  152.0546 LP  0  0  0  0  0  0  0  0  0  0  0  0  # atno 17342 bound_to 10162
  139.4902  144.6414  151.6869 LP  0  0  0  0  0  0  0  0  0  0  0  0  # atno 17343 bound_to 10162
  155.9664  130.4401  150.5284 LP  0  0  0  0  0  0  0  0  0  0  0  0  # atno 17370 bound_to 10713
  157.3187  131.0677  151.1948 LP  0  0  0  0  0  0  0  0  0  0  0  0  # atno 17371 bound_to 10713
  139.9708  134.7296  156.0045 LP  0  0  0  0  0  0  0  0  0  0  0  0  # atno 17394 bound_to 11000
  141.1431  133.6561  156.3787 LP  0  0  0  0  0  0  0  0  0  0  0  0  # atno 17395 bound_to 11000

$$$$
