AV-unprocessed.smi:1443|AV-procd|sdf|5880|dock9
  -GOLD-   22720 5563D 1   1.00000     0.00000
 Structure written by MMmdl.
 27 28  0  0  0  0  0  0  0  0  1 V2000
  145.2227  138.4179  152.9678 C   0  0  0  0  0  0  0  0  0  0  0  0
  145.5717  140.1876  153.1607 S   0  0  0  0  0  0  0  0  0  0  0  0
  146.9678  140.2908  154.2336 C   0  0  0  0  0  0  0  0  0  0  0  0
  147.5216  139.1778  154.7484 N   0  0  0  0  0  0  0  0  0  0  0  0
  148.8257  139.6283  155.7260 S   0  0  0  0  0  0  0  0  0  0  0  0
  148.5460  141.3091  155.3776 C   0  0  0  0  0  0  0  0  0  0  0  0
  149.3506  142.3500  155.9262 N   0  0  0  0  0  0  0  0  0  0  0  0
  150.3814  142.3097  156.7982 C   0  0  0  0  0  0  0  0  0  0  0  0
  150.7771  141.2421  157.2631 O   0  0  0  0  0  0  0  0  0  0  0  0
  150.9316  143.4924  157.1154 N   0  0  0  0  0  0  0  0  0  0  0  0
  152.0149  143.7008  158.0179 C   0  0  1  0  0  0  0  0  0  0  0  0
  151.8238  144.7620  159.0796 C   0  0  0  0  0  0  0  0  0  0  0  0
  151.8091  143.3077  159.4668 C   0  0  2  0  0  0  0  0  0  0  0  0
  152.9436  142.7324  160.2865 C   0  0  0  0  0  0  0  0  0  0  0  0
  147.5067  141.4783  154.5604 N   0  0  0  0  0  0  0  0  0  0  0  0
  144.3655  138.2729  152.3104 H   0  0  0  0  0  0  0  0  0  0  0  0
  144.9976  137.9662  153.9343 H   0  0  0  0  0  0  0  0  0  0  0  0
  146.0814  137.9041  152.5351 H   0  0  0  0  0  0  0  0  0  0  0  0
  149.1199  143.2753  155.5939 H   0  0  0  0  0  0  0  0  0  0  0  0
  150.5410  144.3169  156.6819 H   0  0  0  0  0  0  0  0  0  0  0  0
  153.0245  143.5950  157.6230 H   0  0  0  0  0  0  0  0  0  0  0  0
  152.6944  145.3532  159.3569 H   0  0  0  0  0  0  0  0  0  0  0  0
  150.8748  145.2948  159.1040 H   0  0  0  0  0  0  0  0  0  0  0  0
  150.8346  142.8931  159.7201 H   0  0  0  0  0  0  0  0  0  0  0  0
  153.8970  143.1722  159.9924 H   0  0  0  0  0  0  0  0  0  0  0  0
  152.9994  141.6536  160.1404 H   0  0  0  0  0  0  0  0  0  0  0  0
  152.7791  142.9324  161.3454 H   0  0  0  0  0  0  0  0  0  0  0  0
  1  2  1  0  0  0  0
  1 16  1  0  0  0  0
  1 17  1  0  0  0  0
  1 18  1  0  0  0  0
  2  3  1  0  0  0  0
  3 15  1  0  0  0  0
  3  4  2  0  0  0  0
  4  5  1  0  0  0  0
  5  6  1  0  0  0  0
  6  7  1  0  0  0  0
  6 15  2  0  0  0  0
  7  8  1  0  0  0  0
  7 19  1  0  0  0  0
  8  9  2  0  0  0  0
  8 10  1  0  0  0  0
 10 11  1  0  0  0  0
 10 20  1  0  0  0  0
 11 13  1  0  0  0  0
 11 12  1  0  0  0  0
 11 21  1  0  0  0  0
 12 13  1  0  0  0  0
 12 22  1  0  0  0  0
 12 23  1  0  0  0  0
 13 14  1  0  0  0  0
 13 24  1  0  0  0  0
 14 25  1  0  0  0  0
 14 26  1  0  0  0  0
 14 27  1  0  0  0  0
M  END
> <s_m_source_file>
AV-unprocessed.smi

> <i_m_source_file_index>
1443

> <i_lp_mmshare_version>
43012

> <i_f3d_flags>
0

> <s_epik_input>
W0NIM11TYzFuc2MobjEpW05IXUMoPU8pW05IXVtDQEBIXTJbQ0gyXVtDQEhdMltDSDNd

> <s_epik_cmdline>
J2VwaWtfcHl0aG9uJywgJy1waCcsICc3LjAnLCAnLXRuJywgJzgnLCAnLW1hJywgJzIwMCcsICctbWV0YWxfYmluZGluZycsICctaW1hZScsICc8aW5maWxlLm1hZT4nLCAnLW9tYWUnLCAnPG91dGZpbGUubWFlPic=

> <r_lp_tautomer_probability>
1

> <r_epik_Ionization_Penalty>
2.74658e-05

> <r_epik_Ionization_Penalty_Charging>
0

> <r_epik_Ionization_Penalty_Neutral>
2.74658e-05

> <r_epik_State_Penalty>
-0

> <r_epik_Charging_Adjusted_Penalty>
0

> <i_epik_Tot_Q>
0

> <i_epik_Tot_abs_Q>
0

> <r_epik_Metal_State_Penalty>
-0

> <b_epik_Metal_Only>
0

> <s_lp_Force_Field>
OPLS_2005

> <r_lp_Energy>
20.7485

> <b_lp_Chiralities_Consistent>
1

> <s_lp_Variant>
AV-unprocessed.smi:1443-4

> <Gold.Version>
5.8.1

> <Gold.Id.Protein>
6NUR|6NUR_protein|mol2

> <Gold.PLP.Fitness>
37.0024

> <Gold.PLP.PLP>
-31.7988

> <Gold.PLP.part.hbond>
-2.1824

> <Gold.PLP.part.metal>
0.0000

> <Gold.PLP.part.buried>
0.9879

> <Gold.PLP.part.nonpolar>
-33.1191

> <Gold.PLP.part.repulsive>
1.5389

> <Gold.PLP.ligand.clash>
0.0000

> <Gold.PLP.ligand.torsion>
0.0564

> <Gold.PLP.Chemscore.Hbond>
1.7613

> <Gold.PLP.Chemscore.CHOScore>
0.0000

> <Gold.PLP.Chemscore.Metal>
0.0000

> <Gold.Chemscore.Hbonds>
donor molecule, donor type, donor heavy atom, donor atom, acceptor molecule, acceptor atom, score
      L1  H     7    19       P1  8028  0.83
      L1  H    10    20       P1  8028  0.74

> <Gold.PLP.Chemscore.Internal.Correction>
0.0326

> <Gold.Rescore>
     Score         DG    S(hbond)    S(metal)    S(lipo)     H(rot)  DE(clash)    DE(int)     intcor
     15.66     -15.98       1.84        0.00      65.10       1.27       0.02       0.30       ----

> <Gold.Chemscore.Fitness>
15.6560

> <Gold.Chemscore.DG>
-15.9818

> <Gold.Chemscore.ZeroCoef>
-5.4800

> <Gold.Chemscore.Hbond>
1.8370

> <Gold.Chemscore.Metal>
0.0000

> <Gold.Chemscore.Lipo>
65.1029

> <Gold.Chemscore.Internal_Hbond>
0.0000

> <Gold.Chemscore.DEClash>
0.0245

> <Gold.Chemscore.DEInternal>
0.3012

> <Gold.Chemscore.Rot>
1.2699

> <Gold.Chemscore.Internal.Correction>
   9.000000E+99

> <Gold.Chemscore.Hbonds>
donor molecule, donor type, donor heavy atom, donor atom, acceptor molecule, acceptor atom, score
      L1  H     7    19       P1  8028  0.80
      L1  H    10    20       P1  8028  0.72

> <Gold.Chemscore.Hbond.Weighted>
-6.1356

> <Gold.Chemscore.Metal.Weighted>
-0.0000

> <Gold.Chemscore.Lipo.Weighted>
-7.6170

> <Gold.Chemscore.Internal_Hbond.Weighted>
0.0000

> <Gold.Chemscore.DEClash.Weighted>
0.0245

> <Gold.Chemscore.DEInternal.Weighted>
0.3012

> <Gold.Chemscore.Rot.Weighted>
3.2509

> <Gold.Chemscore.Internal.Correction.Weighted>
   9.000000E+99

> <Gold.Protein.RotatedTorsions>
[ 6907 6896 6895 6894 ] final -151.60 input  -60.11 | X-H torsion
[ 7974 7965 7964 7962 ] final   -3.22 input  175.53 | X-H torsion
[ 8008 7997 7996 7995 ] final  159.94 input   59.86 | X-H torsion
[ 10167 10162 10161 10158 ] final -115.60 input  -65.29 | X-H torsion
[ 10718 10713 10712 10709 ] final -176.12 input   66.30 | X-H torsion
[ 10763 10752 10751 10750 ] final   86.80 input  -60.55 | X-H torsion
[ 11005 11000 10999 10996 ] final   -3.03 input  -57.11 | X-H torsion

> <Gold.Protein.ActiveResidues>
 VAL166  LYS551  ARG553  GLY616  TRP617  ASP618  TYR619  PRO620  LYS621  CYS622 
 ASP623  PHE694  ASN695  SER759  ASP760  ASP761  ALA762  ILE779  LEU786  VAL792 
 PHE793  MET794  SER795  GLU796  ALA797  LYS798  CYS799  TRP800  GLU811  SER814 

> <Gold.Protein.RotatedAtoms>
  151.2155  133.4531  159.2599 H   0  0  0  0  0  0  0  0  0  0  0  0  # atno 6907 bound_to 6896
  151.0935  134.9930  159.8424 H   0  0  0  0  0  0  0  0  0  0  0  0  # atno 6908 bound_to 6896
  152.5437  134.2087  159.8794 H   0  0  0  0  0  0  0  0  0  0  0  0  # atno 6909 bound_to 6896
  146.2393  140.1688  142.8332 H   0  0  0  0  0  0  0  0  0  0  0  0  # atno 7974 bound_to 7965
  156.2206  140.1818  156.7486 H   0  0  0  0  0  0  0  0  0  0  0  0  # atno 8008 bound_to 7997
  154.5859  140.0658  156.9199 H   0  0  0  0  0  0  0  0  0  0  0  0  # atno 8009 bound_to 7997
  155.2420  140.3322  155.4293 H   0  0  0  0  0  0  0  0  0  0  0  0  # atno 8010 bound_to 7997
  140.0883  143.4723  152.1885 H   0  0  0  0  0  0  0  0  0  0  0  0  # atno 10167 bound_to 10162
  156.8099  130.9582  151.3116 H   0  0  0  0  0  0  0  0  0  0  0  0  # atno 10718 bound_to 10713
  153.1606  135.4567  154.9766 H   0  0  0  0  0  0  0  0  0  0  0  0  # atno 10763 bound_to 10752
  154.7894  135.3215  154.7814 H   0  0  0  0  0  0  0  0  0  0  0  0  # atno 10764 bound_to 10752
  153.8304  135.6939  153.4870 H   0  0  0  0  0  0  0  0  0  0  0  0  # atno 10765 bound_to 10752
  140.6649  133.9288  155.8458 H   0  0  0  0  0  0  0  0  0  0  0  0  # atno 11005 bound_to 11000
  145.0028  140.8647  143.5271 LP  0  0  0  0  0  0  0  0  0  0  0  0  # atno 17320 bound_to 7965
  145.1710  139.2404  143.5342 LP  0  0  0  0  0  0  0  0  0  0  0  0  # atno 17321 bound_to 7965
  139.5739  144.7477  151.3816 LP  0  0  0  0  0  0  0  0  0  0  0  0  # atno 17342 bound_to 10162
  140.7042  143.7556  150.7453 LP  0  0  0  0  0  0  0  0  0  0  0  0  # atno 17343 bound_to 10162
  157.6511  130.8885  149.9635 LP  0  0  0  0  0  0  0  0  0  0  0  0  # atno 17370 bound_to 10713
  156.1051  130.3653  150.0149 LP  0  0  0  0  0  0  0  0  0  0  0  0  # atno 17371 bound_to 10713
  141.0437  134.0585  157.3870 LP  0  0  0  0  0  0  0  0  0  0  0  0  # atno 17394 bound_to 11000
  139.9001  135.0161  156.7224 LP  0  0  0  0  0  0  0  0  0  0  0  0  # atno 17395 bound_to 11000

$$$$
