AV-unprocessed.smi:2578|AV-procd|sdf|10122|dock5
  -GOLD-   2272014143D 1   1.00000     0.00000
 Structure written by MMmdl.
 41 42  0  0  0  0  0  0  0  0  1 V2000
  146.4985  133.5502  152.4889 C   0  0  0  0  0  0  0  0  0  0  0  0
  147.3337  132.4545  153.1306 C   0  0  0  0  0  0  0  0  0  0  0  0
  146.9421  131.1650  153.0265 C   0  0  0  0  0  0  0  0  0  0  0  0
  147.6956  130.0581  153.6172 C   0  0  0  0  0  0  0  0  0  0  0  0
  147.3297  128.8867  153.5182 O   0  0  0  0  0  0  0  0  0  0  0  0
  148.8289  130.4100  154.2838 N   0  0  0  0  0  0  0  0  0  0  0  0
  149.6554  129.3752  154.9115 C   0  0  0  0  0  0  0  0  0  0  0  0
  149.2455  131.7467  154.4031 C   0  0  0  0  0  0  0  0  0  0  0  0
  148.5550  132.7744  153.8600 C   0  0  0  0  0  0  0  0  0  0  0  0
  148.9305  134.1267  153.9510 N   0  0  0  0  0  0  0  0  0  0  0  0
  149.6469  134.7642  154.8965 C   0  0  0  0  0  0  0  0  0  0  0  0
  150.1266  134.2565  155.9095 O   0  0  0  0  0  0  0  0  0  0  0  0
  149.7881  136.0625  154.5925 N   0  0  0  0  0  0  0  0  0  0  0  0
  150.5264  137.0333  155.3922 C   0  0  0  0  0  0  0  0  0  0  0  0
  150.9696  138.2382  154.5451 C   0  0  0  0  0  0  0  0  0  0  0  0
  150.4900  139.5599  155.1112 C   0  0  0  0  0  0  0  0  0  0  0  0
  151.0321  140.2324  156.1255 C   0  0  0  0  0  0  0  0  0  0  0  0
  150.2871  141.4991  156.4460 C   0  0  0  0  0  0  0  0  0  0  0  0
  149.1212  141.5142  155.4320 C   0  0  0  0  0  0  0  0  0  0  0  0
  149.2674  140.2473  154.5594 C   0  0  0  0  0  0  0  0  0  0  0  0
  145.6240  133.1463  151.9780 H   0  0  0  0  0  0  0  0  0  0  0  0
  147.0911  134.0982  151.7559 H   0  0  0  0  0  0  0  0  0  0  0  0
  146.1495  134.2527  153.2460 H   0  0  0  0  0  0  0  0  0  0  0  0
  146.0364  130.9286  152.4869 H   0  0  0  0  0  0  0  0  0  0  0  0
  150.5607  129.7744  155.3698 H   0  0  0  0  0  0  0  0  0  0  0  0
  149.9679  128.6327  154.1756 H   0  0  0  0  0  0  0  0  0  0  0  0
  149.0933  128.8627  155.6933 H   0  0  0  0  0  0  0  0  0  0  0  0
  150.1571  131.8559  154.9665 H   0  0  0  0  0  0  0  0  0  0  0  0
  148.6150  134.6970  153.1802 H   0  0  0  0  0  0  0  0  0  0  0  0
  149.3616  136.4031  153.7433 H   0  0  0  0  0  0  0  0  0  0  0  0
  149.8777  137.3680  156.2021 H   0  0  0  0  0  0  0  0  0  0  0  0
  151.3845  136.5494  155.8611 H   0  0  0  0  0  0  0  0  0  0  0  0
  152.0571  138.2732  154.4705 H   0  0  0  0  0  0  0  0  0  0  0  0
  150.5899  138.1317  153.5280 H   0  0  0  0  0  0  0  0  0  0  0  0
  151.9066  139.9260  156.6805 H   0  0  0  0  0  0  0  0  0  0  0  0
  149.9275  141.4753  157.4751 H   0  0  0  0  0  0  0  0  0  0  0  0
  150.9419  142.3624  156.3239 H   0  0  0  0  0  0  0  0  0  0  0  0
  148.1615  141.5148  155.9500 H   0  0  0  0  0  0  0  0  0  0  0  0
  149.1565  142.4137  154.8161 H   0  0  0  0  0  0  0  0  0  0  0  0
  149.4093  140.5019  153.5090 H   0  0  0  0  0  0  0  0  0  0  0  0
  148.3965  139.5964  154.6451 H   0  0  0  0  0  0  0  0  0  0  0  0
  1  2  1  0  0  0  0
  1 21  1  0  0  0  0
  1 22  1  0  0  0  0
  1 23  1  0  0  0  0
  2  9  1  0  0  0  0
  2  3  2  0  0  0  0
  3  4  1  0  0  0  0
  3 24  1  0  0  0  0
  4  5  2  0  0  0  0
  4  6  1  0  0  0  0
  6  7  1  0  0  0  0
  6  8  1  0  0  0  0
  7 25  1  0  0  0  0
  7 26  1  0  0  0  0
  7 27  1  0  0  0  0
  8  9  2  0  0  0  0
  8 28  1  0  0  0  0
  9 10  1  0  0  0  0
 10 11  1  0  0  0  0
 10 29  1  0  0  0  0
 11 12  2  0  0  0  0
 11 13  1  0  0  0  0
 13 14  1  0  0  0  0
 13 30  1  0  0  0  0
 14 15  1  0  0  0  0
 14 31  1  0  0  0  0
 14 32  1  0  0  0  0
 15 16  1  0  0  0  0
 15 33  1  0  0  0  0
 15 34  1  0  0  0  0
 16 20  1  0  0  0  0
 16 17  2  0  0  0  0
 17 18  1  0  0  0  0
 17 35  1  0  0  0  0
 18 19  1  0  0  0  0
 18 36  1  0  0  0  0
 18 37  1  0  0  0  0
 19 20  1  0  0  0  0
 19 38  1  0  0  0  0
 19 39  1  0  0  0  0
 20 40  1  0  0  0  0
 20 41  1  0  0  0  0
M  END
> <s_m_source_file>
AV-unprocessed.smi

> <i_m_source_file_index>
2578

> <i_lp_mmshare_version>
43012

> <i_f3d_flags>
0

> <s_epik_input>
W0NIM11jMVtjSF1jKD1PKW4oW0NIM10pW2NIXWMxW05IXUMoPU8pW05IXVtDSDJdW0NIMl1DMj1bQ0hdW0NIMl1bQ0gyXVtDSDJdMg==

> <s_epik_cmdline>
J2VwaWtfcHl0aG9uJywgJy1waCcsICc3LjAnLCAnLXRuJywgJzgnLCAnLW1hJywgJzIwMCcsICctbWV0YWxfYmluZGluZycsICctaW1hZScsICc8aW5maWxlLm1hZT4nLCAnLW9tYWUnLCAnPG91dGZpbGUubWFlPic=

> <r_lp_tautomer_probability>
1

> <r_epik_Ionization_Penalty>
2.83926e-05

> <r_epik_Ionization_Penalty_Charging>
8.15285e-06

> <r_epik_Ionization_Penalty_Neutral>
2.02397e-05

> <r_epik_State_Penalty>
-0

> <r_epik_Charging_Adjusted_Penalty>
8.15285e-06

> <i_epik_Tot_Q>
0

> <i_epik_Tot_abs_Q>
0

> <r_epik_Metal_State_Penalty>
-0

> <b_epik_Metal_Only>
0

> <s_lp_Force_Field>
OPLS_2005

> <r_lp_Energy>
31.0137

> <b_lp_Chiralities_Consistent>
1

> <s_lp_Variant>
AV-unprocessed.smi:2578-1

> <Gold.Version>
5.8.1

> <Gold.Id.Protein>
6NUR|6NUR_protein|mol2

> <Gold.PLP.Fitness>
43.3609

> <Gold.PLP.PLP>
-39.5936

> <Gold.PLP.part.hbond>
-2.7703

> <Gold.PLP.part.metal>
0.0000

> <Gold.PLP.part.buried>
-0.7797

> <Gold.PLP.part.nonpolar>
-35.8412

> <Gold.PLP.part.repulsive>
0.1878

> <Gold.PLP.ligand.clash>
0.0000

> <Gold.PLP.ligand.torsion>
0.9725

> <Gold.PLP.Chemscore.Hbond>
1.9000

> <Gold.PLP.Chemscore.CHOScore>
0.0000

> <Gold.PLP.Chemscore.Metal>
0.0000

> <Gold.Chemscore.Hbonds>
donor molecule, donor type, donor heavy atom, donor atom, acceptor molecule, acceptor atom, score
      L1  H    10    29       P1  7948  0.98
      L1  H    13    30       P1  7948  1.00

> <Gold.PLP.Chemscore.Internal.Correction>
0.0124

> <Gold.Rescore>
     Score         DG    S(hbond)    S(metal)    S(lipo)     H(rot)  DE(clash)    DE(int)     intcor
     14.49     -15.44       1.37        0.00      75.43       1.35       0.04       0.91       ----

> <Gold.Chemscore.Fitness>
14.4888

> <Gold.Chemscore.DG>
-15.4395

> <Gold.Chemscore.ZeroCoef>
-5.4800

> <Gold.Chemscore.Hbond>
1.3738

> <Gold.Chemscore.Metal>
0.0000

> <Gold.Chemscore.Lipo>
75.4276

> <Gold.Chemscore.Internal_Hbond>
0.0000

> <Gold.Chemscore.DEClash>
0.0391

> <Gold.Chemscore.DEInternal>
0.9116

> <Gold.Chemscore.Rot>
1.3493

> <Gold.Chemscore.Internal.Correction>
   9.000000E+99

> <Gold.Chemscore.Hbonds>
donor molecule, donor type, donor heavy atom, donor atom, acceptor molecule, acceptor atom, score
      L1  H    10    29       P1  7948  0.35
      L1  H    13    30       P1  7948  0.80

> <Gold.Chemscore.Hbond.Weighted>
-4.5887

> <Gold.Chemscore.Metal.Weighted>
-0.0000

> <Gold.Chemscore.Lipo.Weighted>
-8.8250

> <Gold.Chemscore.Internal_Hbond.Weighted>
0.0000

> <Gold.Chemscore.DEClash.Weighted>
0.0391

> <Gold.Chemscore.DEInternal.Weighted>
0.9116

> <Gold.Chemscore.Rot.Weighted>
3.4541

> <Gold.Chemscore.Internal.Correction.Weighted>
   9.000000E+99

> <Gold.Protein.RotatedTorsions>
[ 6907 6896 6895 6894 ] final   39.82 input  -60.11 | X-H torsion
[ 7974 7965 7964 7962 ] final -146.56 input  175.53 | X-H torsion
[ 8008 7997 7996 7995 ] final  131.38 input   59.86 | X-H torsion
[ 10167 10162 10161 10158 ] final  -43.95 input  -65.29 | X-H torsion
[ 10718 10713 10712 10709 ] final   63.24 input   66.30 | X-H torsion
[ 10763 10752 10751 10750 ] final -163.72 input  -60.55 | X-H torsion
[ 11005 11000 10999 10996 ] final   31.82 input  -57.11 | X-H torsion

> <Gold.Protein.ActiveResidues>
 VAL166  LYS551  ARG553  GLY616  TRP617  ASP618  TYR619  PRO620  LYS621  CYS622 
 ASP623  PHE694  ASN695  SER759  ASP760  ASP761  ALA762  ILE779  LEU786  VAL792 
 PHE793  MET794  SER795  GLU796  ALA797  LYS798  CYS799  TRP800  GLU811  SER814 

> <Gold.Protein.RotatedAtoms>
  152.1745  134.8806  160.0531 H   0  0  0  0  0  0  0  0  0  0  0  0  # atno 6907 bound_to 6896
  151.9754  133.3735  159.4095 H   0  0  0  0  0  0  0  0  0  0  0  0  # atno 6908 bound_to 6896
  150.6907  134.4018  159.5166 H   0  0  0  0  0  0  0  0  0  0  0  0  # atno 6909 bound_to 6896
  144.8151  140.5440  143.5616 H   0  0  0  0  0  0  0  0  0  0  0  0  # atno 7974 bound_to 7965
  156.2969  140.2572  156.2916 H   0  0  0  0  0  0  0  0  0  0  0  0  # atno 8008 bound_to 7997
  154.9504  140.0394  157.2160 H   0  0  0  0  0  0  0  0  0  0  0  0  # atno 8009 bound_to 7997
  154.8042  140.2833  155.5904 H   0  0  0  0  0  0  0  0  0  0  0  0  # atno 8010 bound_to 7997
  140.6915  143.2955  151.3426 H   0  0  0  0  0  0  0  0  0  0  0  0  # atno 10167 bound_to 10162
  157.5958  130.9094  149.9691 H   0  0  0  0  0  0  0  0  0  0  0  0  # atno 10718 bound_to 10713
  154.7096  135.3003  154.9217 H   0  0  0  0  0  0  0  0  0  0  0  0  # atno 10763 bound_to 10752
  154.0123  135.6693  153.4770 H   0  0  0  0  0  0  0  0  0  0  0  0  # atno 10764 bound_to 10752
  153.0745  135.5042  154.8287 H   0  0  0  0  0  0  0  0  0  0  0  0  # atno 10765 bound_to 10752
  140.2799  134.2985  155.7803 H   0  0  0  0  0  0  0  0  0  0  0  0  # atno 11005 bound_to 11000
  145.5233  139.1476  143.3540 LP  0  0  0  0  0  0  0  0  0  0  0  0  # atno 17320 bound_to 7965
  146.2454  140.5373  142.8916 LP  0  0  0  0  0  0  0  0  0  0  0  0  # atno 17321 bound_to 7965
  139.6323  144.0698  152.2486 LP  0  0  0  0  0  0  0  0  0  0  0  0  # atno 17342 bound_to 10162
  140.0176  144.6177  150.7594 LP  0  0  0  0  0  0  0  0  0  0  0  0  # atno 17343 bound_to 10162
  156.1020  130.3655  150.0201 LP  0  0  0  0  0  0  0  0  0  0  0  0  # atno 17370 bound_to 10713
  156.8315  130.9394  151.3637 LP  0  0  0  0  0  0  0  0  0  0  0  0  # atno 17371 bound_to 10713
  141.2164  133.7519  156.9464 LP  0  0  0  0  0  0  0  0  0  0  0  0  # atno 17394 bound_to 11000
  140.1293  134.9366  157.2315 LP  0  0  0  0  0  0  0  0  0  0  0  0  # atno 17395 bound_to 11000

$$$$
