AV-unprocessed.smi:763|AV-procd|sdf|3636|dock6
  -GOLD-   22720 1 33D 1   1.00000     0.00000
 Structure written by MMmdl.
 44 45  0  0  0  0  0  0  0  0  1 V2000
  144.7192  132.6507  150.0448 C   0  0  0  0  0  0  0  0  0  0  0  0
  146.0997  132.3447  150.1313 O   0  0  0  0  0  0  0  0  0  0  0  0
  146.8506  133.3903  150.7249 C   0  0  0  0  0  0  0  0  0  0  0  0
  146.4239  133.5428  152.1935 C   0  0  0  0  0  0  0  0  0  0  0  0
  147.4488  134.1529  152.9785 O   0  0  0  0  0  0  0  0  0  0  0  0
  148.4630  133.3804  153.5148 C   0  0  0  0  0  0  0  0  0  0  0  0
  148.4930  132.0540  153.2303 N   0  0  0  0  0  0  0  0  0  0  0  0
  149.4879  131.3064  153.7503 C   0  0  0  0  0  0  0  0  0  0  0  0
  150.5015  131.8361  154.5698 C   0  0  0  0  0  0  0  0  0  0  0  0
  150.4736  133.2118  154.8625 C   0  0  0  0  0  0  0  0  0  0  0  0
  149.4355  134.0070  154.3279 C   0  0  0  0  0  0  0  0  0  0  0  0
  149.3454  135.3825  154.5741 N   0  0  0  0  0  0  0  0  0  0  0  0
  150.3803  136.4069  155.5195 S   0  0  0  0  0  0  0  0  0  0  0  0
  149.5522  136.8185  156.6627 O   0  0  0  0  0  0  0  0  0  0  0  0
  151.6168  135.6395  155.7364 O   0  0  0  0  0  0  0  0  0  0  0  0
  150.6950  137.8429  154.3616 C   0  0  2  0  0  0  0  0  0  0  0  0
  151.9936  138.5831  154.7438 C   0  0  0  0  0  0  0  0  0  0  0  0
  151.8345  139.3927  156.0429 C   0  0  0  0  0  0  0  0  0  0  0  0
  150.6775  140.3986  155.9293 C   0  0  0  0  0  0  0  0  0  0  0  0
  149.3598  139.7030  155.5503 C   0  0  0  0  0  0  0  0  0  0  0  0
  149.5264  138.8562  154.2721 C   0  0  2  0  0  0  0  0  0  0  0  0
  148.3125  138.2160  153.9349 O   0  0  0  0  0  0  0  0  0  0  0  0
  144.1883  131.8204  149.5795 H   0  0  0  0  0  0  0  0  0  0  0  0
  144.5496  133.5409  149.4377 H   0  0  0  0  0  0  0  0  0  0  0  0
  144.2885  132.8136  151.0336 H   0  0  0  0  0  0  0  0  0  0  0  0
  147.9199  133.1953  150.6380 H   0  0  0  0  0  0  0  0  0  0  0  0
  146.6477  134.3216  150.1940 H   0  0  0  0  0  0  0  0  0  0  0  0
  145.4854  134.0935  152.2730 H   0  0  0  0  0  0  0  0  0  0  0  0
  146.2180  132.5580  152.6132 H   0  0  0  0  0  0  0  0  0  0  0  0
  149.4768  130.2550  153.5036 H   0  0  0  0  0  0  0  0  0  0  0  0
  151.2820  131.2026  154.9643 H   0  0  0  0  0  0  0  0  0  0  0  0
  151.2459  133.6350  155.4859 H   0  0  0  0  0  0  0  0  0  0  0  0
  148.5841  135.8490  154.1017 H   0  0  0  0  0  0  0  0  0  0  0  0
  150.8479  137.4095  153.3736 H   0  0  0  0  0  0  0  0  0  0  0  0
  152.8227  137.8816  154.8367 H   0  0  0  0  0  0  0  0  0  0  0  0
  152.2694  139.2615  153.9354 H   0  0  0  0  0  0  0  0  0  0  0  0
  151.6574  138.7219  156.8842 H   0  0  0  0  0  0  0  0  0  0  0  0
  152.7619  139.9219  156.2635 H   0  0  0  0  0  0  0  0  0  0  0  0
  150.5566  140.9357  156.8705 H   0  0  0  0  0  0  0  0  0  0  0  0
  150.9219  141.1486  155.1760 H   0  0  0  0  0  0  0  0  0  0  0  0
  149.0223  139.0920  156.3859 H   0  0  0  0  0  0  0  0  0  0  0  0
  148.5839  140.4540  155.3973 H   0  0  0  0  0  0  0  0  0  0  0  0
  149.7437  139.5407  153.4511 H   0  0  0  0  0  0  0  0  0  0  0  0
  148.5048  137.4740  153.3825 H   0  0  0  0  0  0  0  0  0  0  0  0
  1  2  1  0  0  0  0
  1 23  1  0  0  0  0
  1 24  1  0  0  0  0
  1 25  1  0  0  0  0
  2  3  1  0  0  0  0
  3  4  1  0  0  0  0
  3 26  1  0  0  0  0
  3 27  1  0  0  0  0
  4  5  1  0  0  0  0
  4 28  1  0  0  0  0
  4 29  1  0  0  0  0
  5  6  1  0  0  0  0
  6 11  1  0  0  0  0
  6  7  2  0  0  0  0
  7  8  1  0  0  0  0
  8  9  2  0  0  0  0
  8 30  1  0  0  0  0
  9 10  1  0  0  0  0
  9 31  1  0  0  0  0
 10 11  2  0  0  0  0
 10 32  1  0  0  0  0
 11 12  1  0  0  0  0
 12 13  1  0  0  0  0
 12 33  1  0  0  0  0
 13 14  2  0  0  0  0
 13 15  2  0  0  0  0
 13 16  1  0  0  0  0
 16 21  1  0  0  0  0
 16 17  1  0  0  0  0
 16 34  1  0  0  0  0
 17 18  1  0  0  0  0
 17 35  1  0  0  0  0
 17 36  1  0  0  0  0
 18 19  1  0  0  0  0
 18 37  1  0  0  0  0
 18 38  1  0  0  0  0
 19 20  1  0  0  0  0
 19 39  1  0  0  0  0
 19 40  1  0  0  0  0
 20 21  1  0  0  0  0
 20 41  1  0  0  0  0
 20 42  1  0  0  0  0
 21 22  1  0  0  0  0
 21 43  1  0  0  0  0
 22 44  1  0  0  0  0
M  END
> <s_m_source_file>
AV-unprocessed.smi

> <i_m_source_file_index>
763

> <i_lp_mmshare_version>
43012

> <i_f3d_flags>
0

> <s_epik_input>
W0NIM11PW0NIMl1bQ0gyXU9jMW5bY0hdW2NIXVtjSF1jMVtOSF1TKD1PKSg9TylbQ0BASF0yW0NIMl1bQ0gyXVtDSDJdW0NIMl1bQ0BIXTJbT0hd

> <s_epik_cmdline>
J2VwaWtfcHl0aG9uJywgJy1waCcsICc3LjAnLCAnLXRuJywgJzgnLCAnLW1hJywgJzIwMCcsICctbWV0YWxfYmluZGluZycsICctaW1hZScsICc8aW5maWxlLm1hZT4nLCAnLW9tYWUnLCAnPG91dGZpbGUubWFlPic=

> <r_epik_Ionization_Penalty>
0.124685

> <r_epik_Ionization_Penalty_Charging>
0

> <r_epik_Ionization_Penalty_Neutral>
0.124685

> <r_epik_State_Penalty>
0.114154

> <r_epik_Charging_Adjusted_Penalty>
0.114154

> <i_epik_Tot_Q>
0

> <i_epik_Tot_abs_Q>
0

> <r_epik_Metal_State_Penalty>
0.443785

> <b_epik_Metal_Only>
0

> <s_lp_Force_Field>
OPLS_2005

> <r_lp_Energy>
4.78457

> <b_lp_Chiralities_Consistent>
1

> <s_lp_Variant>
AV-unprocessed.smi:763-3

> <Gold.Version>
5.8.1

> <Gold.Id.Protein>
6NUR|6NUR_protein|mol2

> <Gold.PLP.Fitness>
43.6093

> <Gold.PLP.PLP>
-39.0350

> <Gold.PLP.part.hbond>
-3.2080

> <Gold.PLP.part.metal>
0.0000

> <Gold.PLP.part.buried>
-5.1665

> <Gold.PLP.part.nonpolar>
-33.1571

> <Gold.PLP.part.repulsive>
2.4969

> <Gold.PLP.ligand.clash>
0.0000

> <Gold.PLP.ligand.torsion>
1.6321

> <Gold.PLP.Chemscore.Hbond>
2.1685

> <Gold.PLP.Chemscore.CHOScore>
0.0000

> <Gold.PLP.Chemscore.Metal>
0.0000

> <Gold.Chemscore.Hbonds>
donor molecule, donor type, donor heavy atom, donor atom, acceptor molecule, acceptor atom, score
      L1  H    12    33       P1  7948  0.10
      L1  H    22    44       P1  7948  1.00
      P1  H 10752 10763       L1    15  1.00

> <Gold.PLP.Chemscore.Internal.Correction>
1.3331

> <Gold.Rescore>
     Score         DG    S(hbond)    S(metal)    S(lipo)     H(rot)  DE(clash)    DE(int)     intcor
     12.97     -17.25       2.31        0.00      87.26       2.41       0.74       3.53       ----

> <Gold.Chemscore.Fitness>
12.9725

> <Gold.Chemscore.DG>
-17.2465

> <Gold.Chemscore.ZeroCoef>
-5.4800

> <Gold.Chemscore.Hbond>
2.3097

> <Gold.Chemscore.Metal>
0.0000

> <Gold.Chemscore.Lipo>
87.2599

> <Gold.Chemscore.Internal_Hbond>
0.0000

> <Gold.Chemscore.DEClash>
0.7434

> <Gold.Chemscore.DEInternal>
3.5306

> <Gold.Chemscore.Rot>
2.4052

> <Gold.Chemscore.Internal.Correction>
   9.000000E+99

> <Gold.Chemscore.Hbonds>
donor molecule, donor type, donor heavy atom, donor atom, acceptor molecule, acceptor atom, score
      L1  H    12    33       P1  7948  0.09
      L1  H    22    44       P1  7948  0.96
      P1  H 10752 10763       L1    15  1.00

> <Gold.Chemscore.Hbond.Weighted>
-7.7145

> <Gold.Chemscore.Metal.Weighted>
-0.0000

> <Gold.Chemscore.Lipo.Weighted>
-10.2094

> <Gold.Chemscore.Internal_Hbond.Weighted>
0.0000

> <Gold.Chemscore.DEClash.Weighted>
0.7434

> <Gold.Chemscore.DEInternal.Weighted>
3.5306

> <Gold.Chemscore.Rot.Weighted>
6.1574

> <Gold.Chemscore.Internal.Correction.Weighted>
   9.000000E+99

> <Gold.Protein.RotatedTorsions>
[ 6907 6896 6895 6894 ] final   75.01 input  -60.11 | X-H torsion
[ 7974 7965 7964 7962 ] final   52.27 input  175.53 | X-H torsion
[ 8008 7997 7996 7995 ] final -124.68 input   59.86 | X-H torsion
[ 10167 10162 10161 10158 ] final  108.79 input  -65.29 | X-H torsion
[ 10718 10713 10712 10709 ] final  -29.42 input   66.30 | X-H torsion
[ 10763 10752 10751 10750 ] final   80.57 input  -60.55 | X-H torsion
[ 11005 11000 10999 10996 ] final  -45.21 input  -57.11 | X-H torsion

> <Gold.Protein.ActiveResidues>
 VAL166  LYS551  ARG553  GLY616  TRP617  ASP618  TYR619  PRO620  LYS621  CYS622 
 ASP623  PHE694  ASN695  SER759  ASP760  ASP761  ALA762  ILE779  LEU786  VAL792 
 PHE793  MET794  SER795  GLU796  ALA797  LYS798  CYS799  TRP800  GLU811  SER814 

> <Gold.Protein.RotatedAtoms>
  152.5004  134.4185  159.9472 H   0  0  0  0  0  0  0  0  0  0  0  0  # atno 6907 bound_to 6896
  151.4157  133.3707  159.2757 H   0  0  0  0  0  0  0  0  0  0  0  0  # atno 6908 bound_to 6896
  150.9259  134.8698  159.7579 H   0  0  0  0  0  0  0  0  0  0  0  0  # atno 6909 bound_to 6896
  145.9830  139.4262  143.0120 H   0  0  0  0  0  0  0  0  0  0  0  0  # atno 7974 bound_to 7965
  155.2008  140.0416  157.2917 H   0  0  0  0  0  0  0  0  0  0  0  0  # atno 8008 bound_to 7997
  154.6076  140.2468  155.7682 H   0  0  0  0  0  0  0  0  0  0  0  0  # atno 8009 bound_to 7997
  156.2359  140.2921  156.0322 H   0  0  0  0  0  0  0  0  0  0  0  0  # atno 8010 bound_to 7997
  139.6818  144.7117  151.1502 H   0  0  0  0  0  0  0  0  0  0  0  0  # atno 10167 bound_to 10162
  156.4126  130.4411  149.7241 H   0  0  0  0  0  0  0  0  0  0  0  0  # atno 10718 bound_to 10713
  153.1045  135.4797  154.8926 H   0  0  0  0  0  0  0  0  0  0  0  0  # atno 10763 bound_to 10752
  154.7415  135.3083  154.8723 H   0  0  0  0  0  0  0  0  0  0  0  0  # atno 10764 bound_to 10752
  153.9329  135.6842  153.4798 H   0  0  0  0  0  0  0  0  0  0  0  0  # atno 10765 bound_to 10752
  141.0501  133.6746  156.2981 H   0  0  0  0  0  0  0  0  0  0  0  0  # atno 11005 bound_to 11000
  145.7741  140.9884  143.1134 LP  0  0  0  0  0  0  0  0  0  0  0  0  # atno 17320 bound_to 7965
  144.6867  139.9484  143.7477 LP  0  0  0  0  0  0  0  0  0  0  0  0  # atno 17321 bound_to 7965
  140.7654  143.5688  150.9018 LP  0  0  0  0  0  0  0  0  0  0  0  0  # atno 17342 bound_to 10162
  139.9361  143.6437  152.3065 LP  0  0  0  0  0  0  0  0  0  0  0  0  # atno 17343 bound_to 10162
  156.4213  130.7770  151.2787 LP  0  0  0  0  0  0  0  0  0  0  0  0  # atno 17370 bound_to 10713
  157.7507  131.0182  150.3615 LP  0  0  0  0  0  0  0  0  0  0  0  0  # atno 17371 bound_to 10713
  140.6072  134.5495  157.5527 LP  0  0  0  0  0  0  0  0  0  0  0  0  # atno 17394 bound_to 11000
  139.9343  134.7904  156.0845 LP  0  0  0  0  0  0  0  0  0  0  0  0  # atno 17395 bound_to 11000

$$$$
