AV-unprocessed.smi:158|AV-procd|sdf|1338|dock1
  -GOLD-   2262019 33D 1   1.00000     0.00000
 Structure written by MMmdl.
 31 33  0  0  0  0  0  0  0  0  1 V2000
  153.0250  140.0288  159.1469 N   0  0  0  0  0  0  0  0  0  0  0  0
  152.3013  140.8714  158.3958 C   0  0  0  0  0  0  0  0  0  0  0  0
  152.4288  142.2010  158.6144 N   0  0  0  0  0  0  0  0  0  0  0  0
  151.7233  143.0757  157.8870 C   0  0  0  0  0  0  0  0  0  0  0  0
  151.9588  144.7451  158.2489 Cl  0  0  0  0  0  0  0  0  0  0  0  0
  150.8534  142.8015  156.9099 N   0  0  0  0  0  0  0  0  0  0  0  0
  150.7216  141.4625  156.6845 C   0  0  0  0  0  0  0  0  0  0  0  0
  151.4093  140.4356  157.3853 C   0  0  0  0  0  0  0  0  0  0  0  0
  151.0305  139.1928  156.8966 N   0  0  0  0  0  0  0  0  0  0  0  0
  150.1663  139.4753  155.9586 C   0  0  0  0  0  0  0  0  0  0  0  0
  149.9220  140.8173  155.7618 N   0  0  0  0  0  0  0  0  0  0  0  0
  148.9896  141.4363  154.7657 C   0  0  1  0  0  0  0  0  0  0  0  0
  148.7323  140.4897  153.7731 O   0  0  0  0  0  0  0  0  0  0  0  0
  147.3324  140.4009  153.5299 C   0  0  1  0  0  0  0  0  0  0  0  0
  146.9904  138.9944  153.0123 C   0  0  0  0  0  0  0  0  0  0  0  0
  147.4437  138.8314  151.6851 O   0  0  0  0  0  0  0  0  0  0  0  0
  146.6929  140.7680  154.8730 C   0  0  2  0  0  0  0  0  0  0  0  0
  145.3918  141.2970  154.7110 O   0  0  0  0  0  0  0  0  0  0  0  0
  147.6428  141.8300  155.3977 C   0  0  1  0  0  0  0  0  0  0  0  0
  147.7005  141.8492  156.7315 F   0  0  0  0  0  0  0  0  0  0  0  0
  149.5400  142.2875  154.3634 H   0  0  0  0  0  0  0  0  0  0  0  0
  147.0938  141.1547  152.7768 H   0  0  0  0  0  0  0  0  0  0  0  0
  146.6695  139.9090  155.5437 H   0  0  0  0  0  0  0  0  0  0  0  0
  147.3741  142.8275  155.0468 H   0  0  0  0  0  0  0  0  0  0  0  0
  152.9457  139.0324  159.0019 H   0  0  0  0  0  0  0  0  0  0  0  0
  153.6482  140.3906  159.8542 H   0  0  0  0  0  0  0  0  0  0  0  0
  149.6813  138.7048  155.3770 H   0  0  0  0  0  0  0  0  0  0  0  0
  147.4801  138.2409  153.6294 H   0  0  0  0  0  0  0  0  0  0  0  0
  145.9180  138.8040  153.0635 H   0  0  0  0  0  0  0  0  0  0  0  0
  147.8688  137.9903  151.6141 H   0  0  0  0  0  0  0  0  0  0  0  0
  145.0494  141.0084  153.8791 H   0  0  0  0  0  0  0  0  0  0  0  0
  1  2  1  0  0  0  0
  1 25  1  0  0  0  0
  1 26  1  0  0  0  0
  2  8  1  0  0  0  0
  2  3  2  0  0  0  0
  3  4  1  0  0  0  0
  4  5  1  0  0  0  0
  4  6  2  0  0  0  0
  6  7  1  0  0  0  0
  7 11  1  0  0  0  0
  7  8  2  0  0  0  0
  8  9  1  0  0  0  0
  9 10  2  0  0  0  0
 10 11  1  0  0  0  0
 10 27  1  0  0  0  0
 11 12  1  0  0  0  0
 12 21  1  0  0  0  0
 12 19  1  0  0  0  0
 12 13  1  0  0  0  0
 13 14  1  0  0  0  0
 14 22  1  0  0  0  0
 14 15  1  0  0  0  0
 14 17  1  0  0  0  0
 15 16  1  0  0  0  0
 15 28  1  0  0  0  0
 15 29  1  0  0  0  0
 16 30  1  0  0  0  0
 17 23  1  0  0  0  0
 17 18  1  0  0  0  0
 17 19  1  0  0  0  0
 18 31  1  0  0  0  0
 19 24  1  0  0  0  0
 19 20  1  0  0  0  0
M  END
> <s_m_source_file>
AV-unprocessed.smi

> <i_m_source_file_index>
158

> <i_lp_mmshare_version>
43012

> <i_f3d_flags>
0

> <s_epik_input>
Q2xjKG4xKW5jKFtOSDJdKWMoYzEyKW5bY0hdbjJbQ0BASF0zT1tDQEhdKFtDSDJdW09IXSlbQ0BASF0oW09IXSlbQ0BASF0zRg==

> <s_epik_cmdline>
J2VwaWtfcHl0aG9uJywgJy1waCcsICc3LjAnLCAnLXRuJywgJzgnLCAnLW1hJywgJzIwMCcsICctbWV0YWxfYmluZGluZycsICctaW1hZScsICc8aW5maWxlLm1hZT4nLCAnLW9tYWUnLCAnPG91dGZpbGUubWFlPic=

> <r_lp_tautomer_probability>
1

> <r_epik_Ionization_Penalty>
6.51543e-05

> <r_epik_Ionization_Penalty_Charging>
0

> <r_epik_Ionization_Penalty_Neutral>
6.51543e-05

> <r_epik_State_Penalty>
-0

> <r_epik_Charging_Adjusted_Penalty>
0

> <i_epik_Tot_Q>
0

> <i_epik_Tot_abs_Q>
0

> <r_epik_Metal_State_Penalty>
-0

> <b_epik_Metal_Only>
0

> <s_epik_Chemistry_Notes>
This compound contains an acetal/aminal-like group ( X-CH(R)-Y where X, Y are N, S, or O) that may be acid/base labile, releasing an aldehyde.

> <s_lp_Force_Field>
OPLS_2005

> <r_lp_Energy>
35.9184

> <b_lp_Chiralities_Consistent>
1

> <s_lp_Variant>
AV-unprocessed.smi:158-16

> <Gold.Version>
5.8.1

> <Gold.Id.Protein>
6NUR|6NUR_protein|mol2

> <Gold.PLP.Fitness>
35.7045

> <Gold.PLP.PLP>
-30.9141

> <Gold.PLP.part.hbond>
-3.8444

> <Gold.PLP.part.metal>
0.0000

> <Gold.PLP.part.buried>
-5.8095

> <Gold.PLP.part.nonpolar>
-24.4790

> <Gold.PLP.part.repulsive>
2.7491

> <Gold.PLP.ligand.clash>
0.0000

> <Gold.PLP.ligand.torsion>
0.6222

> <Gold.PLP.Chemscore.Hbond>
2.0000

> <Gold.PLP.Chemscore.CHOScore>
0.0000

> <Gold.PLP.Chemscore.Metal>
0.0000

> <Gold.Chemscore.Hbonds>
donor molecule, donor type, donor heavy atom, donor atom, acceptor molecule, acceptor atom, score
      L1  H    16    30       P1  7948  0.98
      L1  H    18    31       P1 10175  1.00

> <Gold.PLP.Chemscore.Internal.Correction>
0.0349

> <Gold.Rescore>
     Score         DG    S(hbond)    S(metal)    S(lipo)     H(rot)  DE(clash)    DE(int)     intcor
      7.29      -8.62       1.97        0.00      38.91       3.12       0.61       0.72       ----

> <Gold.Chemscore.Fitness>
7.2855

> <Gold.Chemscore.DG>
-8.6206

> <Gold.Chemscore.ZeroCoef>
-5.4800

> <Gold.Chemscore.Hbond>
1.9710

> <Gold.Chemscore.Metal>
0.0000

> <Gold.Chemscore.Lipo>
38.9098

> <Gold.Chemscore.Internal_Hbond>
0.0000

> <Gold.Chemscore.DEClash>
0.6138

> <Gold.Chemscore.DEInternal>
0.7213

> <Gold.Chemscore.Rot>
3.1230

> <Gold.Chemscore.Internal.Correction>
   9.000000E+99

> <Gold.Chemscore.Hbonds>
donor molecule, donor type, donor heavy atom, donor atom, acceptor molecule, acceptor atom, score
      L1  H    16    30       P1  7948  0.91
      L1  H    18    31       P1 10175  0.77

> <Gold.Chemscore.Hbond.Weighted>
-6.5831

> <Gold.Chemscore.Metal.Weighted>
-0.0000

> <Gold.Chemscore.Lipo.Weighted>
-4.5524

> <Gold.Chemscore.Internal_Hbond.Weighted>
0.0000

> <Gold.Chemscore.DEClash.Weighted>
0.6138

> <Gold.Chemscore.DEInternal.Weighted>
0.7213

> <Gold.Chemscore.Rot.Weighted>
7.9950

> <Gold.Chemscore.Internal.Correction.Weighted>
   9.000000E+99

> <Gold.Protein.RotatedTorsions>
[ 6907 6896 6895 6894 ] final   98.16 input  -60.11 | X-H torsion
[ 7974 7965 7964 7962 ] final  -43.92 input  175.53 | X-H torsion
[ 8008 7997 7996 7995 ] final   93.89 input   59.86 | X-H torsion
[ 10167 10162 10161 10158 ] final  175.08 input  -65.29 | X-H torsion
[ 10718 10713 10712 10709 ] final   80.87 input   66.30 | X-H torsion
[ 10763 10752 10751 10750 ] final   30.51 input  -60.55 | X-H torsion
[ 11005 11000 10999 10996 ] final  123.77 input  -57.11 | X-H torsion

> <Gold.Protein.ActiveResidues>
 VAL166  LYS551  ARG553  GLY616  TRP617  ASP618  TYR619  PRO620  LYS621  CYS622 
 ASP623  PHE694  ASN695  SER759  ASP760  ASP761  ALA762  ILE779  LEU786  VAL792 
 PHE793  MET794  SER795  GLU796  ALA797  LYS798  CYS799  TRP800  GLU811  SER814 

> <Gold.Protein.RotatedAtoms>
  152.5413  134.0623  159.8157 H   0  0  0  0  0  0  0  0  0  0  0  0  # atno 6907 bound_to 6896
  151.0749  133.5429  159.2632 H   0  0  0  0  0  0  0  0  0  0  0  0  # atno 6908 bound_to 6896
  151.2278  135.0551  159.9029 H   0  0  0  0  0  0  0  0  0  0  0  0  # atno 6909 bound_to 6896
  145.9972  140.7115  142.9288 H   0  0  0  0  0  0  0  0  0  0  0  0  # atno 7974 bound_to 7965
  156.0518  140.3307  155.7360 H   0  0  0  0  0  0  0  0  0  0  0  0  # atno 8008 bound_to 7997
  155.5589  140.0617  157.2851 H   0  0  0  0  0  0  0  0  0  0  0  0  # atno 8009 bound_to 7997
  154.4439  140.1881  156.0750 H   0  0  0  0  0  0  0  0  0  0  0  0  # atno 8010 bound_to 7997
  139.5164  144.3073  152.0324 H   0  0  0  0  0  0  0  0  0  0  0  0  # atno 10167 bound_to 10162
  157.6818  130.9978  150.2142 H   0  0  0  0  0  0  0  0  0  0  0  0  # atno 10718 bound_to 10713
  153.0367  135.6462  154.1056 H   0  0  0  0  0  0  0  0  0  0  0  0  # atno 10763 bound_to 10752
  154.0769  135.2876  155.3299 H   0  0  0  0  0  0  0  0  0  0  0  0  # atno 10764 bound_to 10752
  154.6556  135.5410  153.8019 H   0  0  0  0  0  0  0  0  0  0  0  0  # atno 10765 bound_to 10752
  139.9328  134.9641  156.8309 H   0  0  0  0  0  0  0  0  0  0  0  0  # atno 11005 bound_to 11000
  144.6907  140.3171  143.7238 LP  0  0  0  0  0  0  0  0  0  0  0  0  # atno 17320 bound_to 7965
  145.7542  139.1803  143.2304 LP  0  0  0  0  0  0  0  0  0  0  0  0  # atno 17321 bound_to 7965
  140.2518  144.4160  150.6219 LP  0  0  0  0  0  0  0  0  0  0  0  0  # atno 17342 bound_to 10162
  140.6219  143.2177  151.6676 LP  0  0  0  0  0  0  0  0  0  0  0  0  # atno 17343 bound_to 10162
  156.2807  130.3733  149.7938 LP  0  0  0  0  0  0  0  0  0  0  0  0  # atno 17370 bound_to 10713
  156.5627  130.8390  151.3333 LP  0  0  0  0  0  0  0  0  0  0  0  0  # atno 17371 bound_to 10713
  140.6156  134.0041  155.7596 LP  0  0  0  0  0  0  0  0  0  0  0  0  # atno 17394 bound_to 11000
  141.0926  133.9893  157.3213 LP  0  0  0  0  0  0  0  0  0  0  0  0  # atno 17395 bound_to 11000

$$$$
