AV-unprocessed.smi:2896|AV-procd|sdf|11136|dock2
  -GOLD-   2272016 13D 1   1.00000     0.00000
 Structure written by MMmdl.
 50 51  0  0  0  0  0  0  0  0  2 V2000
  149.0895  132.5784  154.0075 C   0  0  0  0  0  0  0  0  0  0  0  0
  148.8693  133.9676  154.6324 C   0  0  2  0  0  0  0  0  0  0  0  0
  149.3796  133.9664  156.0906 C   0  0  0  0  0  0  0  0  0  0  0  0
  148.2996  133.8404  157.0656 N   0  0  0  0  0  0  0  0  0  0  0  0
  148.2307  134.4733  158.2501 C   0  0  0  0  0  0  0  0  0  0  0  0
  149.1158  135.2389  158.6352 O   0  0  0  0  0  0  0  0  0  0  0  0
  146.9832  134.2298  159.1375 C   0  0  0  0  0  0  0  0  0  0  0  0
  145.6708  134.6751  158.4418 C   0  0  0  0  0  0  0  0  0  0  0  0
  146.8603  132.7048  159.3846 C   0  0  0  0  0  0  0  0  0  0  0  0
  147.1786  135.0346  160.4369 C   0  0  0  0  0  0  0  0  0  0  0  0
  147.2024  134.3766  161.6907 C   0  0  0  0  0  0  0  0  0  0  0  0
  147.3813  135.1262  162.8681 C   0  0  0  0  0  0  0  0  0  0  0  0
  147.5310  136.5205  162.7561 C   0  0  0  0  0  0  0  0  0  0  0  0
  147.5110  137.1710  161.5752 N   0  0  0  0  0  0  0  0  0  0  0  0
  147.3384  136.4435  160.4507 C   0  0  0  0  0  0  0  0  0  0  0  0
  147.3854  134.3995  154.5303 C   0  0  0  0  0  0  0  0  0  0  0  0
  146.9277  134.6210  153.1347 N   0  3  0  0  0  0  0  0  0  0  0  0
  146.5968  133.3514  152.4443 C   0  0  0  0  0  0  0  0  0  0  0  0
  146.1795  133.6204  150.9887 C   0  0  0  0  0  0  0  0  0  0  0  0
  145.0779  134.5192  150.9679 O   0  0  0  0  0  0  0  0  0  0  0  0
  145.4072  135.7758  151.5461 C   0  0  0  0  0  0  0  0  0  0  0  0
  145.8011  135.5808  153.0204 C   0  0  0  0  0  0  0  0  0  0  0  0
  148.4878  131.8189  154.5080 H   0  0  0  0  0  0  0  0  0  0  0  0
  150.1342  132.2753  154.0827 H   0  0  0  0  0  0  0  0  0  0  0  0
  148.8287  132.5664  152.9492 H   0  0  0  0  0  0  0  0  0  0  0  0
  149.4857  134.6784  154.0825 H   0  0  0  0  0  0  0  0  0  0  0  0
  150.1300  133.1866  156.2321 H   0  0  0  0  0  0  0  0  0  0  0  0
  149.8859  134.9089  156.3014 H   0  0  0  0  0  0  0  0  0  0  0  0
  147.5310  133.2353  156.8142 H   0  0  0  0  0  0  0  0  0  0  0  0
  145.6564  135.7380  158.1992 H   0  0  0  0  0  0  0  0  0  0  0  0
  144.8094  134.4869  159.0835 H   0  0  0  0  0  0  0  0  0  0  0  0
  145.5047  134.1276  157.5127 H   0  0  0  0  0  0  0  0  0  0  0  0
  147.7429  132.2852  159.8696 H   0  0  0  0  0  0  0  0  0  0  0  0
  146.7269  132.1627  158.4472 H   0  0  0  0  0  0  0  0  0  0  0  0
  145.9992  132.4712  160.0116 H   0  0  0  0  0  0  0  0  0  0  0  0
  147.0808  133.3058  161.7576 H   0  0  0  0  0  0  0  0  0  0  0  0
  147.4022  134.6435  163.8340 H   0  0  0  0  0  0  0  0  0  0  0  0
  147.6704  137.1288  163.6374 H   0  0  0  0  0  0  0  0  0  0  0  0
  147.3326  137.0281  159.5439 H   0  0  0  0  0  0  0  0  0  0  0  0
  146.7724  133.6240  154.9925 H   0  0  0  0  0  0  0  0  0  0  0  0
  147.1992  135.3117  155.0973 H   0  0  0  0  0  0  0  0  0  0  0  0
  147.4600  132.6850  152.4594 H   0  0  0  0  0  0  0  0  0  0  0  0
  145.7902  132.8446  152.9767 H   0  0  0  0  0  0  0  0  0  0  0  0
  147.0112  134.0304  150.4132 H   0  0  0  0  0  0  0  0  0  0  0  0
  145.8851  132.6892  150.5042 H   0  0  0  0  0  0  0  0  0  0  0  0
  146.2160  136.2478  150.9857 H   0  0  0  0  0  0  0  0  0  0  0  0
  144.5424  136.4356  151.4726 H   0  0  0  0  0  0  0  0  0  0  0  0
  144.9454  135.2116  153.5880 H   0  0  0  0  0  0  0  0  0  0  0  0
  146.0747  136.5455  153.4458 H   0  0  0  0  0  0  0  0  0  0  0  0
  147.7093  135.0191  152.6338 H   0  0  0  0  0  0  0  0  0  0  0  0
  1  2  1  0  0  0  0
  1 23  1  0  0  0  0
  1 24  1  0  0  0  0
  1 25  1  0  0  0  0
  2  3  1  0  0  0  0
  2 16  1  0  0  0  0
  2 26  1  0  0  0  0
  3  4  1  0  0  0  0
  3 27  1  0  0  0  0
  3 28  1  0  0  0  0
  4  5  1  0  0  0  0
  4 29  1  0  0  0  0
  5  6  2  0  0  0  0
  5  7  1  0  0  0  0
  7  8  1  0  0  0  0
  7  9  1  0  0  0  0
  7 10  1  0  0  0  0
  8 30  1  0  0  0  0
  8 31  1  0  0  0  0
  8 32  1  0  0  0  0
  9 33  1  0  0  0  0
  9 34  1  0  0  0  0
  9 35  1  0  0  0  0
 10 15  1  0  0  0  0
 10 11  2  0  0  0  0
 11 12  1  0  0  0  0
 11 36  1  0  0  0  0
 12 13  2  0  0  0  0
 12 37  1  0  0  0  0
 13 14  1  0  0  0  0
 13 38  1  0  0  0  0
 14 15  2  0  0  0  0
 15 39  1  0  0  0  0
 16 17  1  0  0  0  0
 16 40  1  0  0  0  0
 16 41  1  0  0  0  0
 17 22  1  0  0  0  0
 17 18  1  0  0  0  0
 17 50  1  0  0  0  0
 18 19  1  0  0  0  0
 18 42  1  0  0  0  0
 18 43  1  0  0  0  0
 19 20  1  0  0  0  0
 19 44  1  0  0  0  0
 19 45  1  0  0  0  0
 20 21  1  0  0  0  0
 21 22  1  0  0  0  0
 21 46  1  0  0  0  0
 21 47  1  0  0  0  0
 22 48  1  0  0  0  0
 22 49  1  0  0  0  0
M  CHG  1  17   1
M  END
> <s_m_source_file>
AV-unprocessed.smi

> <i_m_source_file_index>
2896

> <i_lp_mmshare_version>
43012

> <i_f3d_flags>
0

> <s_epik_input>
W0NIMl0xW0NIMl1PW0NIMl1bQ0gyXU4xW0NIMl1bQ0BIXShbQ0gzXSlbQ0gyXVtOSF1DKD1PKUMoW0NIM10pKFtDSDNdKWMyW2NIXVtjSF1bY0hdbltjSF0y

> <s_epik_cmdline>
J2VwaWtfcHl0aG9uJywgJy1waCcsICc3LjAnLCAnLXRuJywgJzgnLCAnLW1hJywgJzIwMCcsICctbWV0YWxfYmluZGluZycsICctaW1hZScsICc8aW5maWxlLm1hZT4nLCAnLW9tYWUnLCAnPG91dGZpbGUubWFlPic=

> <r_epik_Ionization_Penalty>
0.378644

> <r_epik_Ionization_Penalty_Charging>
0.372108

> <r_epik_Ionization_Penalty_Neutral>
0.0065361

> <r_epik_State_Penalty>
0.380038

> <r_epik_Charging_Adjusted_Penalty>
0.752147

> <i_epik_Tot_Q>
1

> <i_epik_Tot_abs_Q>
1

> <r_epik_Metal_State_Penalty>
0.375202

> <b_epik_Metal_Only>
0

> <s_lp_Force_Field>
OPLS_2005

> <r_lp_Energy>
28.248

> <b_lp_Chiralities_Consistent>
1

> <s_lp_Variant>
AV-unprocessed.smi:2896-1

> <Gold.Version>
5.8.1

> <Gold.Id.Protein>
6NUR|6NUR_protein|mol2

> <Gold.PLP.Fitness>
48.8456

> <Gold.PLP.PLP>
-36.3087

> <Gold.PLP.part.hbond>
-4.0000

> <Gold.PLP.part.metal>
0.0000

> <Gold.PLP.part.buried>
-5.0964

> <Gold.PLP.part.nonpolar>
-27.8757

> <Gold.PLP.part.repulsive>
0.2369

> <Gold.PLP.ligand.clash>
0.0000

> <Gold.PLP.ligand.torsion>
1.0122

> <Gold.PLP.Chemscore.Hbond>
4.7920

> <Gold.PLP.Chemscore.CHOScore>
0.0000

> <Gold.PLP.Chemscore.Metal>
0.0000

> <Gold.Chemscore.Hbonds>
donor molecule, donor type, donor heavy atom, donor atom, acceptor molecule, acceptor atom, score
      L1  H    17    50       P1  7948  2.00
      P1  H  6896  6907       L1     6  1.00
      P1  H  6931  6943       L1    14  0.77
      P1  H  6934  6947       L1    14  0.83

> <Gold.PLP.Chemscore.Internal.Correction>
0.1853

> <Gold.Rescore>
     Score         DG    S(hbond)    S(metal)    S(lipo)     H(rot)  DE(clash)    DE(int)     intcor
     17.72     -20.33       2.94        0.00      81.94       1.78       0.00       2.61       ----

> <Gold.Chemscore.Fitness>
17.7199

> <Gold.Chemscore.DG>
-20.3313

> <Gold.Chemscore.ZeroCoef>
-5.4800

> <Gold.Chemscore.Hbond>
2.9383

> <Gold.Chemscore.Metal>
0.0000

> <Gold.Chemscore.Lipo>
81.9382

> <Gold.Chemscore.Internal_Hbond>
0.0000

> <Gold.Chemscore.DEClash>
0.0015

> <Gold.Chemscore.DEInternal>
2.6099

> <Gold.Chemscore.Rot>
1.7771

> <Gold.Chemscore.Internal.Correction>
   9.000000E+99

> <Gold.Chemscore.Hbonds>
donor molecule, donor type, donor heavy atom, donor atom, acceptor molecule, acceptor atom, score
      L1  H    17    50       P1  7948  0.98
      P1  H  6896  6907       L1     6  0.94
      P1  H  6931  6943       L1    14  0.11
      P1  H  6934  6947       L1    14  0.32

> <Gold.Chemscore.Hbond.Weighted>
-9.8139

> <Gold.Chemscore.Metal.Weighted>
-0.0000

> <Gold.Chemscore.Lipo.Weighted>
-9.5868

> <Gold.Chemscore.Internal_Hbond.Weighted>
0.0000

> <Gold.Chemscore.DEClash.Weighted>
0.0015

> <Gold.Chemscore.DEInternal.Weighted>
2.6099

> <Gold.Chemscore.Rot.Weighted>
4.5494

> <Gold.Chemscore.Internal.Correction.Weighted>
   9.000000E+99

> <Gold.Protein.RotatedTorsions>
[ 6907 6896 6895 6894 ] final  -79.06 input  -60.11 | X-H torsion
[ 7974 7965 7964 7962 ] final  -17.82 input  175.53 | X-H torsion
[ 8008 7997 7996 7995 ] final   76.69 input   59.86 | X-H torsion
[ 10167 10162 10161 10158 ] final -178.76 input  -65.29 | X-H torsion
[ 10718 10713 10712 10709 ] final -173.82 input   66.30 | X-H torsion
[ 10763 10752 10751 10750 ] final   97.55 input  -60.55 | X-H torsion
[ 11005 11000 10999 10996 ] final  154.53 input  -57.11 | X-H torsion

> <Gold.Protein.ActiveResidues>
 VAL166  LYS551  ARG553  GLY616  TRP617  ASP618  TYR619  PRO620  LYS621  CYS622 
 ASP623  PHE694  ASN695  SER759  ASP760  ASP761  ALA762  ILE779  LEU786  VAL792 
 PHE793  MET794  SER795  GLU796  ALA797  LYS798  CYS799  TRP800  GLU811  SER814 

> <Gold.Protein.RotatedAtoms>
  150.6958  134.4177  159.5190 H   0  0  0  0  0  0  0  0  0  0  0  0  # atno 6907 bound_to 6896
  152.1925  134.8656  160.0525 H   0  0  0  0  0  0  0  0  0  0  0  0  # atno 6908 bound_to 6896
  151.9606  133.3659  159.4071 H   0  0  0  0  0  0  0  0  0  0  0  0  # atno 6909 bound_to 6896
  146.1923  140.3833  142.8453 H   0  0  0  0  0  0  0  0  0  0  0  0  # atno 7974 bound_to 7965
  155.8309  140.3466  155.5572 H   0  0  0  0  0  0  0  0  0  0  0  0  # atno 8008 bound_to 7997
  155.8243  140.0917  157.1850 H   0  0  0  0  0  0  0  0  0  0  0  0  # atno 8009 bound_to 7997
  154.4004  140.1424  156.3525 H   0  0  0  0  0  0  0  0  0  0  0  0  # atno 8010 bound_to 7997
  139.5417  144.2344  152.0909 H   0  0  0  0  0  0  0  0  0  0  0  0  # atno 10167 bound_to 10162
  156.7759  130.9465  151.3120 H   0  0  0  0  0  0  0  0  0  0  0  0  # atno 10718 bound_to 10713
  153.2782  135.4179  155.1053 H   0  0  0  0  0  0  0  0  0  0  0  0  # atno 10763 bound_to 10752
  154.8480  135.3489  154.6149 H   0  0  0  0  0  0  0  0  0  0  0  0  # atno 10764 bound_to 10752
  153.6569  135.7050  153.5248 H   0  0  0  0  0  0  0  0  0  0  0  0  # atno 10765 bound_to 10752
  140.1497  134.8683  157.2439 H   0  0  0  0  0  0  0  0  0  0  0  0  # atno 11005 bound_to 11000
  144.8510  140.7001  143.6168 LP  0  0  0  0  0  0  0  0  0  0  0  0  # atno 17320 bound_to 7965
  145.3755  139.1648  143.4309 LP  0  0  0  0  0  0  0  0  0  0  0  0  # atno 17321 bound_to 7965
  140.1824  144.4832  150.6521 LP  0  0  0  0  0  0  0  0  0  0  0  0  # atno 17342 bound_to 10162
  140.6650  143.2265  151.5765 LP  0  0  0  0  0  0  0  0  0  0  0  0  # atno 17343 bound_to 10162
  157.6669  130.9016  149.9952 LP  0  0  0  0  0  0  0  0  0  0  0  0  # atno 17370 bound_to 10713
  156.1248  130.3645  149.9827 LP  0  0  0  0  0  0  0  0  0  0  0  0  # atno 17371 bound_to 10713
  140.2619  134.3561  155.7403 LP  0  0  0  0  0  0  0  0  0  0  0  0  # atno 17394 bound_to 11000
  141.2197  133.7374  156.9093 LP  0  0  0  0  0  0  0  0  0  0  0  0  # atno 17395 bound_to 11000

$$$$
