AV-unprocessed.smi:1781|AV-procd|sdf|7187|dock7
  -GOLD-   22720 8433D 1   1.00000     0.00000
 Structure written by MMmdl.
 38 39  0  0  0  0  0  0  0  0  1 V2000
  153.5855  133.9189  164.8486 C   0  0  0  0  0  0  0  0  0  0  0  0
  154.2804  134.0045  163.4879 C   0  0  0  0  0  0  0  0  0  0  0  0
  154.0124  135.2720  162.9124 O   0  0  0  0  0  0  0  0  0  0  0  0
  154.3790  135.3404  161.5425 C   0  0  0  0  0  0  0  0  0  0  0  0
  153.7721  136.5927  160.9063 C   0  0  0  0  0  0  0  0  0  0  0  0
  152.8880  136.4882  160.0550 O   0  0  0  0  0  0  0  0  0  0  0  0
  154.2776  137.7608  161.3453 N   0  0  0  0  0  0  0  0  0  0  0  0
  153.9327  139.0786  160.9425 C   0  0  0  0  0  0  0  0  0  0  0  0
  154.4238  140.1072  161.7770 C   0  0  0  0  0  0  0  0  0  0  0  0
  154.1406  141.4503  161.4624 C   0  0  0  0  0  0  0  0  0  0  0  0
  153.3689  141.7375  160.3203 C   0  0  0  0  0  0  0  0  0  0  0  0
  153.0829  143.0698  159.9888 N   0  0  0  0  0  0  0  0  0  0  0  0
  152.5450  143.2189  158.6427 C   0  0  0  0  0  0  0  0  0  0  0  0
  152.3773  144.7109  158.3039 C   0  0  0  0  0  0  0  0  0  0  0  0
  151.5616  145.3388  159.2896 O   0  0  0  0  0  0  0  0  0  0  0  0
  152.1332  145.2508  160.5921 C   0  0  0  0  0  0  0  0  0  0  0  0
  152.2867  143.7719  160.9880 C   0  0  0  0  0  0  0  0  0  0  0  0
  152.9202  140.6475  159.5420 C   0  0  0  0  0  0  0  0  0  0  0  0
  153.1922  139.3603  159.8421 N   0  0  0  0  0  0  0  0  0  0  0  0
  153.7696  132.9537  165.3206 H   0  0  0  0  0  0  0  0  0  0  0  0
  152.5070  134.0412  164.7457 H   0  0  0  0  0  0  0  0  0  0  0  0
  153.9486  134.6953  165.5222 H   0  0  0  0  0  0  0  0  0  0  0  0
  155.3557  133.8676  163.6109 H   0  0  0  0  0  0  0  0  0  0  0  0
  153.9179  133.2097  162.8344 H   0  0  0  0  0  0  0  0  0  0  0  0
  155.4654  135.3730  161.4445 H   0  0  0  0  0  0  0  0  0  0  0  0
  154.0181  134.4597  161.0089 H   0  0  0  0  0  0  0  0  0  0  0  0
  154.9978  137.6968  162.0496 H   0  0  0  0  0  0  0  0  0  0  0  0
  155.0136  139.8748  162.6518 H   0  0  0  0  0  0  0  0  0  0  0  0
  154.5115  142.2465  162.0916 H   0  0  0  0  0  0  0  0  0  0  0  0
  153.2119  142.7448  157.9215 H   0  0  0  0  0  0  0  0  0  0  0  0
  151.5807  142.7134  158.5735 H   0  0  0  0  0  0  0  0  0  0  0  0
  153.3470  145.2083  158.2493 H   0  0  0  0  0  0  0  0  0  0  0  0
  151.9056  144.8239  157.3276 H   0  0  0  0  0  0  0  0  0  0  0  0
  153.0974  145.7615  160.6132 H   0  0  0  0  0  0  0  0  0  0  0  0
  151.4842  145.7646  161.3013 H   0  0  0  0  0  0  0  0  0  0  0  0
  151.3013  143.3120  161.0716 H   0  0  0  0  0  0  0  0  0  0  0  0
  152.7660  143.6932  161.9646 H   0  0  0  0  0  0  0  0  0  0  0  0
  152.3333  140.8073  158.6496 H   0  0  0  0  0  0  0  0  0  0  0  0
  1  2  1  0  0  0  0
  1 20  1  0  0  0  0
  1 21  1  0  0  0  0
  1 22  1  0  0  0  0
  2  3  1  0  0  0  0
  2 23  1  0  0  0  0
  2 24  1  0  0  0  0
  3  4  1  0  0  0  0
  4  5  1  0  0  0  0
  4 25  1  0  0  0  0
  4 26  1  0  0  0  0
  5  6  2  0  0  0  0
  5  7  1  0  0  0  0
  7  8  1  0  0  0  0
  7 27  1  0  0  0  0
  8 19  1  0  0  0  0
  8  9  2  0  0  0  0
  9 10  1  0  0  0  0
  9 28  1  0  0  0  0
 10 11  2  0  0  0  0
 10 29  1  0  0  0  0
 11 12  1  0  0  0  0
 11 18  1  0  0  0  0
 12 17  1  0  0  0  0
 12 13  1  0  0  0  0
 13 14  1  0  0  0  0
 13 30  1  0  0  0  0
 13 31  1  0  0  0  0
 14 15  1  0  0  0  0
 14 32  1  0  0  0  0
 14 33  1  0  0  0  0
 15 16  1  0  0  0  0
 16 17  1  0  0  0  0
 16 34  1  0  0  0  0
 16 35  1  0  0  0  0
 17 36  1  0  0  0  0
 17 37  1  0  0  0  0
 18 19  2  0  0  0  0
 18 38  1  0  0  0  0
M  END
> <s_m_source_file>
AV-unprocessed.smi

> <i_m_source_file_index>
1781

> <i_lp_mmshare_version>
43012

> <i_f3d_flags>
0

> <s_epik_input>
W0NIM11bQ0gyXU9bQ0gyXUMoPU8pW05IXWMxW2NIXVtjSF1jKFtjSF1uMSlOMltDSDJdW0NIMl1PW0NIMl1bQ0gyXTI=

> <s_epik_cmdline>
J2VwaWtfcHl0aG9uJywgJy1waCcsICc3LjAnLCAnLXRuJywgJzgnLCAnLW1hJywgJzIwMCcsICctbWV0YWxfYmluZGluZycsICctaW1hZScsICc8aW5maWxlLm1hZT4nLCAnLW9tYWUnLCAnPG91dGZpbGUubWFlPic=

> <r_lp_tautomer_probability>
1

> <r_epik_Ionization_Penalty>
0.00358585

> <r_epik_Ionization_Penalty_Charging>
0

> <r_epik_Ionization_Penalty_Neutral>
0.00358585

> <r_epik_State_Penalty>
0.00535288

> <r_epik_Charging_Adjusted_Penalty>
0.00535288

> <i_epik_Tot_Q>
0

> <i_epik_Tot_abs_Q>
0

> <r_epik_Metal_State_Penalty>
-0

> <b_epik_Metal_Only>
0

> <s_lp_Force_Field>
OPLS_2005

> <r_lp_Energy>
27.8059

> <b_lp_Chiralities_Consistent>
1

> <s_lp_Variant>
AV-unprocessed.smi:1781-1

> <Gold.Version>
5.8.1

> <Gold.Id.Protein>
6NUR|6NUR_protein|mol2

> <Gold.PLP.Fitness>
42.4862

> <Gold.PLP.PLP>
-40.0391

> <Gold.PLP.part.hbond>
-1.0000

> <Gold.PLP.part.metal>
0.0000

> <Gold.PLP.part.buried>
-5.0906

> <Gold.PLP.part.nonpolar>
-33.7659

> <Gold.PLP.part.repulsive>
0.1304

> <Gold.PLP.ligand.clash>
0.0039

> <Gold.PLP.ligand.torsion>
0.3318

> <Gold.PLP.Chemscore.Hbond>
1.0000

> <Gold.PLP.Chemscore.CHOScore>
0.0000

> <Gold.PLP.Chemscore.Metal>
0.0000

> <Gold.Chemscore.Hbonds>
donor molecule, donor type, donor heavy atom, donor atom, acceptor molecule, acceptor atom, score
      P1  H  6896  6907       L1     6  1.00

> <Gold.PLP.Chemscore.Internal.Correction>
0.1145

> <Gold.Rescore>
     Score         DG    S(hbond)    S(metal)    S(lipo)     H(rot)  DE(clash)    DE(int)     intcor
     15.79     -17.63       1.00        0.00     109.57       1.56       0.18       1.66       ----

> <Gold.Chemscore.Fitness>
15.7882

> <Gold.Chemscore.DG>
-17.6267

> <Gold.Chemscore.ZeroCoef>
-5.4800

> <Gold.Chemscore.Hbond>
0.9973

> <Gold.Chemscore.Metal>
0.0000

> <Gold.Chemscore.Lipo>
109.5669

> <Gold.Chemscore.Internal_Hbond>
0.0000

> <Gold.Chemscore.DEClash>
0.1831

> <Gold.Chemscore.DEInternal>
1.6554

> <Gold.Chemscore.Rot>
1.5639

> <Gold.Chemscore.Internal.Correction>
   9.000000E+99

> <Gold.Chemscore.Hbonds>
donor molecule, donor type, donor heavy atom, donor atom, acceptor molecule, acceptor atom, score
      P1  H  6896  6907       L1     6  0.94

> <Gold.Chemscore.Hbond.Weighted>
-3.3309

> <Gold.Chemscore.Metal.Weighted>
-0.0000

> <Gold.Chemscore.Lipo.Weighted>
-12.8193

> <Gold.Chemscore.Internal_Hbond.Weighted>
0.0000

> <Gold.Chemscore.DEClash.Weighted>
0.1831

> <Gold.Chemscore.DEInternal.Weighted>
1.6554

> <Gold.Chemscore.Rot.Weighted>
4.0036

> <Gold.Chemscore.Internal.Correction.Weighted>
   9.000000E+99

> <Gold.Protein.RotatedTorsions>
[ 6907 6896 6895 6894 ] final   24.25 input  -60.11 | X-H torsion
[ 7974 7965 7964 7962 ] final   34.51 input  175.53 | X-H torsion
[ 8008 7997 7996 7995 ] final -169.39 input   59.86 | X-H torsion
[ 10167 10162 10161 10158 ] final   81.06 input  -65.29 | X-H torsion
[ 10718 10713 10712 10709 ] final -126.59 input   66.30 | X-H torsion
[ 10763 10752 10751 10750 ] final  -48.42 input  -60.55 | X-H torsion
[ 11005 11000 10999 10996 ] final    2.63 input  -57.11 | X-H torsion

> <Gold.Protein.ActiveResidues>
 VAL166  LYS551  ARG553  GLY616  TRP617  ASP618  TYR619  PRO620  LYS621  CYS622 
 ASP623  PHE694  ASN695  SER759  ASP760  ASP761  ALA762  ILE779  LEU786  VAL792 
 PHE793  MET794  SER795  GLU796  ALA797  LYS798  CYS799  TRP800  GLU811  SER814 

> <Gold.Protein.RotatedAtoms>
  151.9546  135.0153  160.0543 H   0  0  0  0  0  0  0  0  0  0  0  0  # atno 6907 bound_to 6896
  152.1923  133.4777  159.5022 H   0  0  0  0  0  0  0  0  0  0  0  0  # atno 6908 bound_to 6896
  150.6937  134.1614  159.4220 H   0  0  0  0  0  0  0  0  0  0  0  0  # atno 6909 bound_to 6896
  146.1348  139.6260  142.9203 H   0  0  0  0  0  0  0  0  0  0  0  0  # atno 7974 bound_to 7965
  155.9043  140.1046  157.1327 H   0  0  0  0  0  0  0  0  0  0  0  0  # atno 8008 bound_to 7997
  154.4030  140.1286  156.4540 H   0  0  0  0  0  0  0  0  0  0  0  0  # atno 8009 bound_to 7997
  155.7385  140.3467  155.5095 H   0  0  0  0  0  0  0  0  0  0  0  0  # atno 8010 bound_to 7997
  139.9432  144.6076  150.8232 H   0  0  0  0  0  0  0  0  0  0  0  0  # atno 10167 bound_to 10162
  156.1779  130.6712  151.0266 H   0  0  0  0  0  0  0  0  0  0  0  0  # atno 10718 bound_to 10713
  154.0774  135.6596  153.4833 H   0  0  0  0  0  0  0  0  0  0  0  0  # atno 10763 bound_to 10752
  153.0368  135.5172  154.7507 H   0  0  0  0  0  0  0  0  0  0  0  0  # atno 10764 bound_to 10752
  154.6592  135.3012  154.9857 H   0  0  0  0  0  0  0  0  0  0  0  0  # atno 10765 bound_to 10752
  140.6021  133.9826  155.8137 H   0  0  0  0  0  0  0  0  0  0  0  0  # atno 11005 bound_to 11000
  145.5181  141.0433  143.2450 LP  0  0  0  0  0  0  0  0  0  0  0  0  # atno 17320 bound_to 7965
  144.7728  139.6697  143.7187 LP  0  0  0  0  0  0  0  0  0  0  0  0  # atno 17321 bound_to 7965
  140.7605  143.3152  151.2750 LP  0  0  0  0  0  0  0  0  0  0  0  0  # atno 17342 bound_to 10162
  139.6688  144.0058  152.2740 LP  0  0  0  0  0  0  0  0  0  0  0  0  # atno 17343 bound_to 10162
  157.6848  131.0828  150.7272 LP  0  0  0  0  0  0  0  0  0  0  0  0  # atno 17370 bound_to 10713
  156.7330  130.4715  149.5495 LP  0  0  0  0  0  0  0  0  0  0  0  0  # atno 17371 bound_to 10713
  141.0865  133.9983  157.3305 LP  0  0  0  0  0  0  0  0  0  0  0  0  # atno 17394 bound_to 11000
  139.9228  135.0201  156.8126 LP  0  0  0  0  0  0  0  0  0  0  0  0  # atno 17395 bound_to 11000

$$$$
