AV-unprocessed.smi:3057|AV-procd|sdf|11665|dock7
  -GOLD-   2272017 73D 1   1.00000     0.00000
 Structure written by MMmdl.
 41 43  0  0  0  0  0  0  0  0  2 V2000
  149.5040  139.8014  157.1320 C   0  0  0  0  0  0  0  0  0  0  0  0
  150.0911  139.8849  155.7098 C   0  0  1  0  0  0  0  0  0  0  0  0
  151.5819  140.2680  155.7371 C   0  0  0  0  0  0  0  0  0  0  0  0
  152.3257  138.9257  155.6728 C   0  0  0  0  0  0  0  0  0  0  0  0
  151.2937  138.0105  155.0338 C   0  0  0  0  0  0  0  0  0  0  0  0
  151.5740  136.9295  154.5180 O   0  0  0  0  0  0  0  0  0  0  0  0
  150.0855  138.5874  155.0614 N   0  0  0  0  0  0  0  0  0  0  0  0
  148.9193  138.2248  154.2522 C   0  0  1  0  0  0  0  0  0  0  0  0
  148.1524  137.0590  154.8989 C   0  0  0  0  0  0  0  0  0  0  0  0
  147.9394  137.0367  156.1119 O   0  0  0  0  0  0  0  0  0  0  0  0
  147.7356  136.0954  154.0648 N   0  0  0  0  0  0  0  0  0  0  0  0
  147.0079  134.9008  154.4725 C   0  0  0  0  0  0  0  0  0  0  0  0
  145.6087  134.8822  153.8418 C   0  0  0  0  0  0  0  0  0  0  0  0
  145.5528  134.0294  152.5892 C   0  0  0  0  0  0  0  0  0  0  0  0
  146.4417  134.2188  151.5085 C   0  0  0  0  0  0  0  0  0  0  0  0
  146.3318  133.3889  150.3730 C   0  0  0  0  0  0  0  0  0  0  0  0
  145.3368  132.3897  150.3414 C   0  0  0  0  0  0  0  0  0  0  0  0
  144.4749  132.2456  151.4477 C   0  0  0  0  0  0  0  0  0  0  0  0
  144.6123  133.0594  152.5175 N   0  3  0  0  0  0  0  0  0  0  0  0
  148.0198  139.4845  154.1907 C   0  0  0  0  0  0  0  0  0  0  0  0
  149.0651  140.9002  154.6335 S   0  0  0  0  0  0  0  0  0  0  0  0
  150.0585  139.0967  157.7524 H   0  0  0  0  0  0  0  0  0  0  0  0
  148.4621  139.4816  157.1224 H   0  0  0  0  0  0  0  0  0  0  0  0
  149.5393  140.7734  157.6249 H   0  0  0  0  0  0  0  0  0  0  0  0
  151.8407  140.8679  154.8633 H   0  0  0  0  0  0  0  0  0  0  0  0
  151.8520  140.8483  156.6202 H   0  0  0  0  0  0  0  0  0  0  0  0
  153.2406  138.9858  155.0827 H   0  0  0  0  0  0  0  0  0  0  0  0
  152.5690  138.5548  156.6689 H   0  0  0  0  0  0  0  0  0  0  0  0
  149.2540  137.9590  153.2475 H   0  0  0  0  0  0  0  0  0  0  0  0
  147.9476  136.1926  153.0823 H   0  0  0  0  0  0  0  0  0  0  0  0
  147.5561  134.0054  154.1740 H   0  0  0  0  0  0  0  0  0  0  0  0
  146.9345  134.8857  155.5606 H   0  0  0  0  0  0  0  0  0  0  0  0
  144.8784  134.5096  154.5615 H   0  0  0  0  0  0  0  0  0  0  0  0
  145.3000  135.8975  153.5876 H   0  0  0  0  0  0  0  0  0  0  0  0
  147.1989  134.9886  151.5465 H   0  0  0  0  0  0  0  0  0  0  0  0
  147.0026  133.5174  149.5361 H   0  0  0  0  0  0  0  0  0  0  0  0
  145.2361  131.7441  149.4812 H   0  0  0  0  0  0  0  0  0  0  0  0
  143.6862  131.5099  151.5092 H   0  0  0  0  0  0  0  0  0  0  0  0
  147.5778  139.6256  153.2042 H   0  0  0  0  0  0  0  0  0  0  0  0
  147.2035  139.4423  154.9137 H   0  0  0  0  0  0  0  0  0  0  0  0
  143.9776  132.9371  153.3071 H   0  0  0  0  0  0  0  0  0  0  0  0
  1  2  1  0  0  0  0
  1 22  1  0  0  0  0
  1 23  1  0  0  0  0
  1 24  1  0  0  0  0
  2  7  1  0  0  0  0
  2 21  1  0  0  0  0
  2  3  1  0  0  0  0
  3  4  1  0  0  0  0
  3 25  1  0  0  0  0
  3 26  1  0  0  0  0
  4  5  1  0  0  0  0
  4 27  1  0  0  0  0
  4 28  1  0  0  0  0
  5  6  2  0  0  0  0
  5  7  1  0  0  0  0
  7  8  1  0  0  0  0
  8  9  1  0  0  0  0
  8 20  1  0  0  0  0
  8 29  1  0  0  0  0
  9 10  2  0  0  0  0
  9 11  1  0  0  0  0
 11 12  1  0  0  0  0
 11 30  1  0  0  0  0
 12 13  1  0  0  0  0
 12 31  1  0  0  0  0
 12 32  1  0  0  0  0
 13 14  1  0  0  0  0
 13 33  1  0  0  0  0
 13 34  1  0  0  0  0
 14 19  1  0  0  0  0
 14 15  2  0  0  0  0
 15 16  1  0  0  0  0
 15 35  1  0  0  0  0
 16 17  2  0  0  0  0
 16 36  1  0  0  0  0
 17 18  1  0  0  0  0
 17 37  1  0  0  0  0
 18 19  2  0  0  0  0
 18 38  1  0  0  0  0
 19 41  1  0  0  0  0
 20 21  1  0  0  0  0
 20 39  1  0  0  0  0
 20 40  1  0  0  0  0
M  CHG  1  19   1
M  END
> <s_m_source_file>
AV-unprocessed.smi

> <i_m_source_file_index>
3057

> <i_lp_mmshare_version>
43012

> <i_f3d_flags>
0

> <s_epik_input>
W0NIMl0xW0NIMl1DKD1PKU4oW0NAQF0xMltDSDNdKVtDQEhdKFtDSDJdUzIpQyg9TylbTkhdW0NIMl1bQ0gyXWMzW2NIXVtjSF1bY0hdW2NIXW4z

> <s_epik_cmdline>
J2VwaWtfcHl0aG9uJywgJy1waCcsICc3LjAnLCAnLXRuJywgJzgnLCAnLW1hJywgJzIwMCcsICctbWV0YWxfYmluZGluZycsICctaW1hZScsICc8aW5maWxlLm1hZT4nLCAnLW9tYWUnLCAnPG91dGZpbGUubWFlPic=

> <r_epik_Ionization_Penalty>
1.8888

> <r_epik_Ionization_Penalty_Charging>
1.8888

> <r_epik_Ionization_Penalty_Neutral>
1.66252e-07

> <r_epik_State_Penalty>
2.00916

> <r_epik_Charging_Adjusted_Penalty>
3.89796

> <i_epik_Tot_Q>
1

> <i_epik_Tot_abs_Q>
1

> <r_epik_Metal_State_Penalty>
2.03343

> <b_epik_Metal_Only>
0

> <s_lp_Force_Field>
OPLS_2005

> <r_lp_Energy>
32.3191

> <b_lp_Chiralities_Consistent>
1

> <s_lp_Variant>
AV-unprocessed.smi:3057-5

> <Gold.Version>
5.8.1

> <Gold.Id.Protein>
6NUR|6NUR_protein|mol2

> <Gold.PLP.Fitness>
40.4081

> <Gold.PLP.PLP>
-30.3029

> <Gold.PLP.part.hbond>
-3.0000

> <Gold.PLP.part.metal>
0.0000

> <Gold.PLP.part.buried>
-2.6056

> <Gold.PLP.part.nonpolar>
-26.8946

> <Gold.PLP.part.repulsive>
0.5296

> <Gold.PLP.ligand.clash>
0.0000

> <Gold.PLP.ligand.torsion>
0.6929

> <Gold.PLP.Chemscore.Hbond>
3.8200

> <Gold.PLP.Chemscore.CHOScore>
0.0000

> <Gold.PLP.Chemscore.Metal>
0.0000

> <Gold.Chemscore.Hbonds>
donor molecule, donor type, donor heavy atom, donor atom, acceptor molecule, acceptor atom, score
      L1  H    11    30       P1  7948  1.00
      L1  H    19    41       P1 10957  0.71
      P1  H 10752 10765       L1     6  1.00

> <Gold.PLP.Chemscore.Internal.Correction>
0.0311

> <Gold.Rescore>
     Score         DG    S(hbond)    S(metal)    S(lipo)     H(rot)  DE(clash)    DE(int)     intcor
     18.19     -18.99       2.79        0.00      71.33       1.62       0.01       0.79       ----

> <Gold.Chemscore.Fitness>
18.1935

> <Gold.Chemscore.DG>
-18.9940

> <Gold.Chemscore.ZeroCoef>
-5.4800

> <Gold.Chemscore.Hbond>
2.7917

> <Gold.Chemscore.Metal>
0.0000

> <Gold.Chemscore.Lipo>
71.3306

> <Gold.Chemscore.Internal_Hbond>
0.0000

> <Gold.Chemscore.DEClash>
0.0073

> <Gold.Chemscore.DEInternal>
0.7932

> <Gold.Chemscore.Rot>
1.6234

> <Gold.Chemscore.Internal.Correction>
   9.000000E+99

> <Gold.Chemscore.Hbonds>
donor molecule, donor type, donor heavy atom, donor atom, acceptor molecule, acceptor atom, score
      L1  H    11    30       P1  7948  0.94
      L1  H    19    41       P1 10957  0.22
      P1  H 10752 10765       L1     6  1.00

> <Gold.Chemscore.Hbond.Weighted>
-9.3241

> <Gold.Chemscore.Metal.Weighted>
-0.0000

> <Gold.Chemscore.Lipo.Weighted>
-8.3457

> <Gold.Chemscore.Internal_Hbond.Weighted>
0.0000

> <Gold.Chemscore.DEClash.Weighted>
0.0073

> <Gold.Chemscore.DEInternal.Weighted>
0.7932

> <Gold.Chemscore.Rot.Weighted>
4.1558

> <Gold.Chemscore.Internal.Correction.Weighted>
   9.000000E+99

> <Gold.Protein.RotatedTorsions>
[ 6907 6896 6895 6894 ] final -116.06 input  -60.11 | X-H torsion
[ 7974 7965 7964 7962 ] final   10.77 input  175.53 | X-H torsion
[ 8008 7997 7996 7995 ] final -139.82 input   59.86 | X-H torsion
[ 10167 10162 10161 10158 ] final  -80.48 input  -65.29 | X-H torsion
[ 10718 10713 10712 10709 ] final   34.61 input   66.30 | X-H torsion
[ 10763 10752 10751 10750 ] final  165.84 input  -60.55 | X-H torsion
[ 11005 11000 10999 10996 ] final  118.37 input  -57.11 | X-H torsion

> <Gold.Protein.ActiveResidues>
 VAL166  LYS551  ARG553  GLY616  TRP617  ASP618  TYR619  PRO620  LYS621  CYS622 
 ASP623  PHE694  ASN695  SER759  ASP760  ASP761  ALA762  ILE779  LEU786  VAL792 
 PHE793  MET794  SER795  GLU796  ALA797  LYS798  CYS799  TRP800  GLU811  SER814 

> <Gold.Protein.RotatedAtoms>
  150.8026  133.8570  159.3221 H   0  0  0  0  0  0  0  0  0  0  0  0  # atno 6907 bound_to 6896
  151.6378  135.1014  160.0144 H   0  0  0  0  0  0  0  0  0  0  0  0  # atno 6908 bound_to 6896
  152.4115  133.6930  159.6436 H   0  0  0  0  0  0  0  0  0  0  0  0  # atno 6909 bound_to 6896
  146.2383  139.9585  142.8461 H   0  0  0  0  0  0  0  0  0  0  0  0  # atno 7974 bound_to 7965
  155.4512  140.0539  157.3001 H   0  0  0  0  0  0  0  0  0  0  0  0  # atno 8008 bound_to 7997
  154.4777  140.2068  155.9795 H   0  0  0  0  0  0  0  0  0  0  0  0  # atno 8009 bound_to 7997
  156.1157  140.3197  155.8140 H   0  0  0  0  0  0  0  0  0  0  0  0  # atno 8010 bound_to 7997
  140.4499  143.2486  151.8503 H   0  0  0  0  0  0  0  0  0  0  0  0  # atno 10167 bound_to 10162
  157.3124  130.7406  149.6733 H   0  0  0  0  0  0  0  0  0  0  0  0  # atno 10718 bound_to 10713
  154.3301  135.2755  155.2476 H   0  0  0  0  0  0  0  0  0  0  0  0  # atno 10763 bound_to 10752
  154.4792  135.5863  153.6380 H   0  0  0  0  0  0  0  0  0  0  0  0  # atno 10764 bound_to 10752
  152.9867  135.6107  154.3493 H   0  0  0  0  0  0  0  0  0  0  0  0  # atno 10765 bound_to 10752
  139.9107  134.9619  156.7492 H   0  0  0  0  0  0  0  0  0  0  0  0  # atno 11005 bound_to 11000
  145.1793  140.9759  143.4275 LP  0  0  0  0  0  0  0  0  0  0  0  0  # atno 17320 bound_to 7965
  144.9956  139.3647  143.6193 LP  0  0  0  0  0  0  0  0  0  0  0  0  # atno 17321 bound_to 7965
  139.4796  144.5132  151.8904 LP  0  0  0  0  0  0  0  0  0  0  0  0  # atno 17342 bound_to 10162
  140.4219  144.2232  150.5887 LP  0  0  0  0  0  0  0  0  0  0  0  0  # atno 17343 bound_to 10162
  155.9679  130.4247  150.4621 LP  0  0  0  0  0  0  0  0  0  0  0  0  # atno 17370 bound_to 10713
  157.2622  131.0569  151.2313 LP  0  0  0  0  0  0  0  0  0  0  0  0  # atno 17371 bound_to 10713
  140.6787  133.9494  155.7898 LP  0  0  0  0  0  0  0  0  0  0  0  0  # atno 17394 bound_to 11000
  141.0526  134.0463  157.3764 LP  0  0  0  0  0  0  0  0  0  0  0  0  # atno 17395 bound_to 11000

$$$$
