AV-unprocessed.smi:1411|AV-procd|sdf|5739|dock9
  -GOLD-   22720 5373D 1   1.00000     0.00000
 Structure written by MMmdl.
 43 44  0  0  0  0  0  0  0  0  3 V2000
  145.3401  138.3787  153.7995 O   0  0  0  0  0  0  0  0  0  0  0  0
  146.3893  138.0167  153.2649 C   0  0  0  0  0  0  0  0  0  0  0  0
  147.4592  139.0366  152.8490 C   0  0  0  0  0  0  0  0  0  0  0  0
  148.3596  139.4192  153.9495 N   0  0  0  0  0  0  0  0  0  0  0  0
  149.6410  138.8339  153.9512 C   0  0  0  0  0  0  0  0  0  0  0  0
  150.5543  139.1115  154.9021 C   0  0  0  0  0  0  0  0  0  0  0  0
  151.8671  138.5041  154.8847 N   0  3  0  0  0  0  0  0  0  0  0  0
  151.9961  137.3966  154.3730 O   0  0  0  0  0  0  0  0  0  0  0  0
  152.8112  139.1123  155.3801 O   0  5  0  0  0  0  0  0  0  0  0  0
  150.1779  140.0456  155.9454 C   0  0  0  0  0  0  0  0  0  0  0  0
  148.9554  140.6127  155.9467 C   0  0  0  0  0  0  0  0  0  0  0  0
  147.9646  140.3123  154.9081 C   0  0  0  0  0  0  0  0  0  0  0  0
  146.8491  140.8327  154.9003 O   0  0  0  0  0  0  0  0  0  0  0  0
  146.6791  136.7312  153.0120 N   0  0  0  0  0  0  0  0  0  0  0  0
  145.8195  135.5872  153.3100 C   0  0  0  0  0  0  0  0  0  0  0  0
  146.5504  134.2902  152.8996 C   0  0  0  0  0  0  0  0  0  0  0  0
  145.6982  133.0054  152.9277 C   0  0  0  0  0  0  0  0  0  0  0  0
  145.2320  132.5168  151.5408 C   0  0  0  0  0  0  0  0  0  0  0  0
  144.1747  133.3760  150.8171 C   0  0  0  0  0  0  0  0  0  0  0  0
  144.6822  134.7476  150.3264 C   0  0  0  0  0  0  0  0  0  0  0  0
  144.2793  135.9536  151.1970 C   0  0  0  0  0  0  0  0  0  0  0  0
  144.4003  135.7822  152.7240 C   0  0  0  0  0  0  0  0  0  0  0  0
  148.0212  138.6276  152.0077 H   0  0  0  0  0  0  0  0  0  0  0  0
  146.9652  139.9253  152.4525 H   0  0  0  0  0  0  0  0  0  0  0  0
  149.8243  138.1576  153.1284 H   0  0  0  0  0  0  0  0  0  0  0  0
  150.8737  140.2984  156.7320 H   0  0  0  0  0  0  0  0  0  0  0  0
  148.6971  141.3071  156.7329 H   0  0  0  0  0  0  0  0  0  0  0  0
  147.5657  136.5265  152.5743 H   0  0  0  0  0  0  0  0  0  0  0  0
  145.6993  135.5355  154.3938 H   0  0  0  0  0  0  0  0  0  0  0  0
  147.0327  134.3998  151.9289 H   0  0  0  0  0  0  0  0  0  0  0  0
  147.3805  134.1577  153.5952 H   0  0  0  0  0  0  0  0  0  0  0  0
  146.3173  132.2124  153.3488 H   0  0  0  0  0  0  0  0  0  0  0  0
  144.8582  133.0972  153.6160 H   0  0  0  0  0  0  0  0  0  0  0  0
  146.0987  132.3850  150.8919 H   0  0  0  0  0  0  0  0  0  0  0  0
  144.8136  131.5175  151.6672 H   0  0  0  0  0  0  0  0  0  0  0  0
  143.8594  132.8122  149.9383 H   0  0  0  0  0  0  0  0  0  0  0  0
  143.2726  133.4773  151.4204 H   0  0  0  0  0  0  0  0  0  0  0  0
  145.7600  134.7250  150.1745 H   0  0  0  0  0  0  0  0  0  0  0  0
  144.2755  134.9245  149.3300 H   0  0  0  0  0  0  0  0  0  0  0  0
  144.8410  136.8313  150.8763 H   0  0  0  0  0  0  0  0  0  0  0  0
  143.2357  136.1846  150.9805 H   0  0  0  0  0  0  0  0  0  0  0  0
  143.7446  134.9813  153.0607 H   0  0  0  0  0  0  0  0  0  0  0  0
  143.9701  136.6739  153.1816 H   0  0  0  0  0  0  0  0  0  0  0  0
  1  2  2  0  0  0  0
  2  3  1  0  0  0  0
  2 14  1  0  0  0  0
  3  4  1  0  0  0  0
  3 23  1  0  0  0  0
  3 24  1  0  0  0  0
  4 12  1  0  0  0  0
  4  5  1  0  0  0  0
  5  6  2  0  0  0  0
  5 25  1  0  0  0  0
  6  7  1  0  0  0  0
  6 10  1  0  0  0  0
  7  8  2  0  0  0  0
  7  9  1  0  0  0  0
 10 11  2  0  0  0  0
 10 26  1  0  0  0  0
 11 12  1  0  0  0  0
 11 27  1  0  0  0  0
 12 13  2  0  0  0  0
 14 15  1  0  0  0  0
 14 28  1  0  0  0  0
 15 22  1  0  0  0  0
 15 16  1  0  0  0  0
 15 29  1  0  0  0  0
 16 17  1  0  0  0  0
 16 30  1  0  0  0  0
 16 31  1  0  0  0  0
 17 18  1  0  0  0  0
 17 32  1  0  0  0  0
 17 33  1  0  0  0  0
 18 19  1  0  0  0  0
 18 34  1  0  0  0  0
 18 35  1  0  0  0  0
 19 20  1  0  0  0  0
 19 36  1  0  0  0  0
 19 37  1  0  0  0  0
 20 21  1  0  0  0  0
 20 38  1  0  0  0  0
 20 39  1  0  0  0  0
 21 22  1  0  0  0  0
 21 40  1  0  0  0  0
 21 41  1  0  0  0  0
 22 42  1  0  0  0  0
 22 43  1  0  0  0  0
M  CHG  1   7   1
M  CHG  1   9  -1
M  END
> <s_m_source_file>
AV-unprocessed.smi

> <i_m_source_file_index>
1411

> <i_lp_mmshare_version>
43012

> <i_f3d_flags>
0

> <s_epik_input>
Tz1jMVtjSF1bY0hdYyhbTitdKD1PKVtPLV0pW2NIXW4xW0NIMl1DKD1PKVtOSF1bQ0hdMltDSDJdW0NIMl1bQ0gyXVtDSDJdW0NIMl1bQ0gyXVtDSDJdMg==

> <s_epik_cmdline>
J2VwaWtfcHl0aG9uJywgJy1waCcsICc3LjAnLCAnLXRuJywgJzgnLCAnLW1hJywgJzIwMCcsICctbWV0YWxfYmluZGluZycsICctaW1hZScsICc8aW5maWxlLm1hZT4nLCAnLW9tYWUnLCAnPG91dGZpbGUubWFlPic=

> <r_lp_tautomer_probability>
1

> <r_epik_Ionization_Penalty>
2.02954e-08

> <r_epik_Ionization_Penalty_Charging>
8.05481e-11

> <r_epik_Ionization_Penalty_Neutral>
2.02148e-08

> <r_epik_State_Penalty>
-0

> <r_epik_Charging_Adjusted_Penalty>
8.05481e-11

> <i_epik_Tot_Q>
0

> <i_epik_Tot_abs_Q>
2

> <r_epik_Metal_State_Penalty>
-0

> <b_epik_Metal_Only>
0

> <s_lp_Force_Field>
OPLS_2005

> <r_lp_Energy>
31.3753

> <b_lp_Chiralities_Consistent>
1

> <s_lp_Variant>
AV-unprocessed.smi:1411-1

> <Gold.Version>
5.8.1

> <Gold.Id.Protein>
6NUR|6NUR_protein|mol2

> <Gold.PLP.Fitness>
42.1051

> <Gold.PLP.PLP>
-31.4919

> <Gold.PLP.part.hbond>
-3.0068

> <Gold.PLP.part.metal>
0.0000

> <Gold.PLP.part.buried>
-2.6398

> <Gold.PLP.part.nonpolar>
-26.0580

> <Gold.PLP.part.repulsive>
0.3688

> <Gold.PLP.ligand.clash>
0.0000

> <Gold.PLP.ligand.torsion>
0.9504

> <Gold.PLP.Chemscore.Hbond>
2.8564

> <Gold.PLP.Chemscore.CHOScore>
1.2980

> <Gold.PLP.Chemscore.Metal>
0.0000

> <Gold.Chemscore.Hbonds>
donor molecule, donor type, donor heavy atom, donor atom, acceptor molecule, acceptor atom, score
      L1  H    14    28       P1  7948  1.00
      P1  H  7997  8009       L1     9  1.00
      P1  H 10752 10765       L1     8  0.91
      L1  C     5    25       P1  7948  1.00
      L1  C     5    25       P1  7957  0.19

> <Gold.PLP.Chemscore.Internal.Correction>
0.0508

> <Gold.Rescore>
     Score         DG    S(hbond)    S(metal)    S(lipo)     H(rot)  DE(clash)    DE(int)     intcor
     16.67     -18.53       2.85        0.00      64.01       1.54       0.00       1.87       ----

> <Gold.Chemscore.Fitness>
16.6655

> <Gold.Chemscore.DG>
-18.5318

> <Gold.Chemscore.ZeroCoef>
-5.4800

> <Gold.Chemscore.Hbond>
2.8454

> <Gold.Chemscore.Metal>
0.0000

> <Gold.Chemscore.Lipo>
64.0085

> <Gold.Chemscore.Internal_Hbond>
0.0000

> <Gold.Chemscore.DEClash>
0.0000

> <Gold.Chemscore.DEInternal>
1.8663

> <Gold.Chemscore.Rot>
1.5393

> <Gold.Chemscore.Internal.Correction>
   9.000000E+99

> <Gold.Chemscore.Hbonds>
donor molecule, donor type, donor heavy atom, donor atom, acceptor molecule, acceptor atom, score
      L1  H    14    28       P1  7948  0.98
      P1  H  7997  8009       L1     9  0.93
      P1  H 10752 10765       L1     8  0.88

> <Gold.Chemscore.Hbond.Weighted>
-9.5036

> <Gold.Chemscore.Metal.Weighted>
-0.0000

> <Gold.Chemscore.Lipo.Weighted>
-7.4890

> <Gold.Chemscore.Internal_Hbond.Weighted>
0.0000

> <Gold.Chemscore.DEClash.Weighted>
0.0000

> <Gold.Chemscore.DEInternal.Weighted>
1.8663

> <Gold.Chemscore.Rot.Weighted>
3.9407

> <Gold.Chemscore.Internal.Correction.Weighted>
   9.000000E+99

> <Gold.Protein.RotatedTorsions>
[ 6907 6896 6895 6894 ] final  -50.80 input  -60.11 | X-H torsion
[ 7974 7965 7964 7962 ] final -151.98 input  175.53 | X-H torsion
[ 8008 7997 7996 7995 ] final -156.77 input   59.86 | X-H torsion
[ 10167 10162 10161 10158 ] final   76.42 input  -65.29 | X-H torsion
[ 10718 10713 10712 10709 ] final -157.24 input   66.30 | X-H torsion
[ 10763 10752 10751 10750 ] final  155.78 input  -60.55 | X-H torsion
[ 11005 11000 10999 10996 ] final  121.77 input  -57.11 | X-H torsion

> <Gold.Protein.ActiveResidues>
 VAL166  LYS551  ARG553  GLY616  TRP617  ASP618  TYR619  PRO620  LYS621  CYS622 
 ASP623  PHE694  ASN695  SER759  ASP760  ASP761  ALA762  ILE779  LEU786  VAL792 
 PHE793  MET794  SER795  GLU796  ALA797  LYS798  CYS799  TRP800  GLU811  SER814 

> <Gold.Protein.RotatedAtoms>
  150.8673  134.8039  159.7127 H   0  0  0  0  0  0  0  0  0  0  0  0  # atno 6907 bound_to 6896
  152.4690  134.5004  159.9733 H   0  0  0  0  0  0  0  0  0  0  0  0  # atno 6908 bound_to 6896
  151.5098  133.3449  159.2918 H   0  0  0  0  0  0  0  0  0  0  0  0  # atno 6909 bound_to 6896
  144.7819  140.4724  143.5833 H   0  0  0  0  0  0  0  0  0  0  0  0  # atno 7974 bound_to 7965
  155.7222  140.0791  157.2325 H   0  0  0  0  0  0  0  0  0  0  0  0  # atno 8008 bound_to 7997
  154.4043  140.1610  156.2469 H   0  0  0  0  0  0  0  0  0  0  0  0  # atno 8009 bound_to 7997
  155.9186  140.3399  155.6157 H   0  0  0  0  0  0  0  0  0  0  0  0  # atno 8010 bound_to 7997
  139.9924  144.5747  150.7806 H   0  0  0  0  0  0  0  0  0  0  0  0  # atno 10167 bound_to 10162
  156.5375  130.8548  151.2737 H   0  0  0  0  0  0  0  0  0  0  0  0  # atno 10718 bound_to 10713
  154.1739  135.2803  155.3072 H   0  0  0  0  0  0  0  0  0  0  0  0  # atno 10763 bound_to 10752
  154.6054  135.5516  153.7421 H   0  0  0  0  0  0  0  0  0  0  0  0  # atno 10764 bound_to 10752
  153.0157  135.6402  154.1879 H   0  0  0  0  0  0  0  0  0  0  0  0  # atno 10765 bound_to 10752
  139.9240  134.9640  156.8009 H   0  0  0  0  0  0  0  0  0  0  0  0  # atno 11005 bound_to 11000
  145.6026  139.1505  143.3121 LP  0  0  0  0  0  0  0  0  0  0  0  0  # atno 17320 bound_to 7965
  146.2032  140.6146  142.9093 LP  0  0  0  0  0  0  0  0  0  0  0  0  # atno 17321 bound_to 7965
  140.7449  143.2868  151.3440 LP  0  0  0  0  0  0  0  0  0  0  0  0  # atno 17342 bound_to 10162
  139.6330  144.0684  152.2492 LP  0  0  0  0  0  0  0  0  0  0  0  0  # atno 17343 bound_to 10162
  157.7411  130.9863  150.2422 LP  0  0  0  0  0  0  0  0  0  0  0  0  # atno 17370 bound_to 10713
  156.3002  130.3757  149.7758 LP  0  0  0  0  0  0  0  0  0  0  0  0  # atno 17371 bound_to 10713
  140.6391  133.9835  155.7698 LP  0  0  0  0  0  0  0  0  0  0  0  0  # atno 17394 bound_to 11000
  141.0783  134.0101  157.3424 LP  0  0  0  0  0  0  0  0  0  0  0  0  # atno 17395 bound_to 11000

$$$$
