AV-unprocessed.smi:627|AV-procd|sdf|3113|dock1
  -GOLD-   22720 0 33D 1   1.00000     0.00000
 Structure written by MMmdl.
 40 42  0  0  0  0  0  0  0  0  1 V2000
  150.8566  141.6224  156.3136 C   0  0  0  0  0  0  0  0  0  0  0  0
  151.2992  139.9029  155.8350 S   0  0  0  0  0  0  0  0  0  0  0  0
  150.8825  139.7017  154.4382 O   0  0  0  0  0  0  0  0  0  0  0  0
  152.6998  139.6632  156.2165 O   0  0  0  0  0  0  0  0  0  0  0  0
  150.2625  138.8894  156.8832 C   0  0  0  0  0  0  0  0  0  0  0  0
  150.7092  138.4923  158.1598 C   0  0  0  0  0  0  0  0  0  0  0  0
  149.8671  137.6683  158.9303 C   0  0  0  0  0  0  0  0  0  0  0  0
  148.6171  137.2738  158.3935 C   0  0  0  0  0  0  0  0  0  0  0  0
  147.6901  136.4348  159.0681 N   0  0  0  0  0  0  0  0  0  0  0  0
  147.3654  136.4333  160.3724 C   0  0  0  0  0  0  0  0  0  0  0  0
  147.8388  137.1868  161.2227 O   0  0  0  0  0  0  0  0  0  0  0  0
  146.4312  135.5084  160.6368 N   0  0  0  0  0  0  0  0  0  0  0  0
  145.8308  135.2553  161.9428 C   0  0  0  0  0  0  0  0  0  0  0  0
  146.3942  133.9995  162.5818 C   0  0  0  0  0  0  0  0  0  0  0  0
  147.7867  133.5100  162.2613 C   0  0  0  0  0  0  0  0  0  0  0  0
  146.5812  132.7337  161.7805 C   0  0  0  0  0  0  0  0  0  0  0  0
  144.3142  135.1798  161.8796 C   0  0  0  0  0  0  0  0  0  0  0  0
  143.4436  136.0611  162.7439 C   0  0  0  0  0  0  0  0  0  0  0  0
  143.5103  134.5739  163.0062 C   0  0  0  0  0  0  0  0  0  0  0  0
  148.2910  137.7075  157.0904 C   0  0  0  0  0  0  0  0  0  0  0  0
  149.0892  138.4977  156.3425 N   0  0  0  0  0  0  0  0  0  0  0  0
  151.4418  142.3255  155.7216 H   0  0  0  0  0  0  0  0  0  0  0  0
  151.0715  141.7726  157.3714 H   0  0  0  0  0  0  0  0  0  0  0  0
  149.7953  141.7884  156.1318 H   0  0  0  0  0  0  0  0  0  0  0  0
  151.6691  138.8053  158.5427 H   0  0  0  0  0  0  0  0  0  0  0  0
  150.2008  137.3450  159.9042 H   0  0  0  0  0  0  0  0  0  0  0  0
  147.1572  135.8138  158.4770 H   0  0  0  0  0  0  0  0  0  0  0  0
  146.1022  134.9378  159.8719 H   0  0  0  0  0  0  0  0  0  0  0  0
  146.0896  136.0855  162.6035 H   0  0  0  0  0  0  0  0  0  0  0  0
  146.0744  133.8587  163.6129 H   0  0  0  0  0  0  0  0  0  0  0  0
  148.3605  134.0522  161.5125 H   0  0  0  0  0  0  0  0  0  0  0  0
  148.3686  133.0841  163.0761 H   0  0  0  0  0  0  0  0  0  0  0  0
  146.3600  131.7898  162.2745 H   0  0  0  0  0  0  0  0  0  0  0  0
  146.3520  132.7690  160.7173 H   0  0  0  0  0  0  0  0  0  0  0  0
  143.9346  134.9829  160.8786 H   0  0  0  0  0  0  0  0  0  0  0  0
  143.9337  136.7173  163.4605 H   0  0  0  0  0  0  0  0  0  0  0  0
  142.5317  136.4545  162.2997 H   0  0  0  0  0  0  0  0  0  0  0  0
  142.6416  133.9759  162.7384 H   0  0  0  0  0  0  0  0  0  0  0  0
  144.0418  134.2506  163.8990 H   0  0  0  0  0  0  0  0  0  0  0  0
  147.3569  137.4154  156.6333 H   0  0  0  0  0  0  0  0  0  0  0  0
  1  2  1  0  0  0  0
  1 22  1  0  0  0  0
  1 23  1  0  0  0  0
  1 24  1  0  0  0  0
  2  3  2  0  0  0  0
  2  4  2  0  0  0  0
  2  5  1  0  0  0  0
  5 21  1  0  0  0  0
  5  6  2  0  0  0  0
  6  7  1  0  0  0  0
  6 25  1  0  0  0  0
  7  8  2  0  0  0  0
  7 26  1  0  0  0  0
  8  9  1  0  0  0  0
  8 20  1  0  0  0  0
  9 10  1  0  0  0  0
  9 27  1  0  0  0  0
 10 11  2  0  0  0  0
 10 12  1  0  0  0  0
 12 13  1  0  0  0  0
 12 28  1  0  0  0  0
 13 14  1  0  0  0  0
 13 17  1  0  0  0  0
 13 29  1  0  0  0  0
 14 16  1  0  0  0  0
 14 15  1  0  0  0  0
 14 30  1  0  0  0  0
 15 16  1  0  0  0  0
 15 31  1  0  0  0  0
 15 32  1  0  0  0  0
 16 33  1  0  0  0  0
 16 34  1  0  0  0  0
 17 19  1  0  0  0  0
 17 18  1  0  0  0  0
 17 35  1  0  0  0  0
 18 19  1  0  0  0  0
 18 36  1  0  0  0  0
 18 37  1  0  0  0  0
 19 38  1  0  0  0  0
 19 39  1  0  0  0  0
 20 21  2  0  0  0  0
 20 40  1  0  0  0  0
M  END
> <s_m_source_file>
AV-unprocessed.smi

> <i_m_source_file_index>
627

> <i_lp_mmshare_version>
43012

> <i_f3d_flags>
0

> <s_epik_input>
W0NIM11TKD1PKSg9TyljMVtjSF1bY0hdYyhbY0hdbjEpW05IXUMoPU8pW05IXVtDSF0oW0NIXTJbQ0gyXVtDSDJdMilbQ0hdM1tDSDJdW0NIMl0z

> <s_epik_cmdline>
J2VwaWtfcHl0aG9uJywgJy1waCcsICc3LjAnLCAnLXRuJywgJzgnLCAnLW1hJywgJzIwMCcsICctbWV0YWxfYmluZGluZycsICctaW1hZScsICc8aW5maWxlLm1hZT4nLCAnLW9tYWUnLCAnPG91dGZpbGUubWFlPic=

> <r_lp_tautomer_probability>
1

> <r_epik_Ionization_Penalty>
4.12334e-05

> <r_epik_Ionization_Penalty_Charging>
0

> <r_epik_Ionization_Penalty_Neutral>
4.12334e-05

> <r_epik_State_Penalty>
-0

> <r_epik_Charging_Adjusted_Penalty>
0

> <i_epik_Tot_Q>
0

> <i_epik_Tot_abs_Q>
0

> <r_epik_Metal_State_Penalty>
-0

> <b_epik_Metal_Only>
0

> <s_lp_Force_Field>
OPLS_2005

> <r_lp_Energy>
25.9195

> <b_lp_Chiralities_Consistent>
1

> <s_lp_Variant>
AV-unprocessed.smi:627-1

> <Gold.Version>
5.8.1

> <Gold.Id.Protein>
6NUR|6NUR_protein|mol2

> <Gold.PLP.Fitness>
43.5009

> <Gold.PLP.PLP>
-33.7713

> <Gold.PLP.part.hbond>
-4.0000

> <Gold.PLP.part.metal>
0.0000

> <Gold.PLP.part.buried>
-5.4777

> <Gold.PLP.part.nonpolar>
-24.2505

> <Gold.PLP.part.repulsive>
0.2343

> <Gold.PLP.ligand.clash>
0.0000

> <Gold.PLP.ligand.torsion>
2.8970

> <Gold.PLP.Chemscore.Hbond>
3.7680

> <Gold.PLP.Chemscore.CHOScore>
0.0000

> <Gold.PLP.Chemscore.Metal>
0.0000

> <Gold.Chemscore.Hbonds>
donor molecule, donor type, donor heavy atom, donor atom, acceptor molecule, acceptor atom, score
      P1  H  6931  6943       L1    11  0.99
      P1  H  6934  6947       L1    11  0.78
      P1  H  7989  7998       L1     3  1.00
      P1  H  7997  8009       L1     4  1.00

> <Gold.PLP.Chemscore.Internal.Correction>
4.2197

> <Gold.Rescore>
     Score         DG    S(hbond)    S(metal)    S(lipo)     H(rot)  DE(clash)    DE(int)     intcor
     18.77     -21.77       3.70        0.00      64.04       1.40       0.03       2.97       ----

> <Gold.Chemscore.Fitness>
18.7706

> <Gold.Chemscore.DG>
-21.7702

> <Gold.Chemscore.ZeroCoef>
-5.4800

> <Gold.Chemscore.Hbond>
3.7039

> <Gold.Chemscore.Metal>
0.0000

> <Gold.Chemscore.Lipo>
64.0389

> <Gold.Chemscore.Internal_Hbond>
0.0000

> <Gold.Chemscore.DEClash>
0.0319

> <Gold.Chemscore.DEInternal>
2.9677

> <Gold.Chemscore.Rot>
1.3958

> <Gold.Chemscore.Internal.Correction>
   9.000000E+99

> <Gold.Chemscore.Hbonds>
donor molecule, donor type, donor heavy atom, donor atom, acceptor molecule, acceptor atom, score
      P1  H  6931  6943       L1    11  0.94
      P1  H  6934  6947       L1    11  0.57
      P1  H  7989  7998       L1     3  0.70
      P1  H  7997  8009       L1     4  1.00

> <Gold.Chemscore.Hbond.Weighted>
-12.3709

> <Gold.Chemscore.Metal.Weighted>
-0.0000

> <Gold.Chemscore.Lipo.Weighted>
-7.4926

> <Gold.Chemscore.Internal_Hbond.Weighted>
0.0000

> <Gold.Chemscore.DEClash.Weighted>
0.0319

> <Gold.Chemscore.DEInternal.Weighted>
2.9677

> <Gold.Chemscore.Rot.Weighted>
3.5733

> <Gold.Chemscore.Internal.Correction.Weighted>
   9.000000E+99

> <Gold.Protein.RotatedTorsions>
[ 6907 6896 6895 6894 ] final  153.92 input  -60.11 | X-H torsion
[ 7974 7965 7964 7962 ] final  -20.29 input  175.53 | X-H torsion
[ 8008 7997 7996 7995 ] final -171.63 input   59.86 | X-H torsion
[ 10167 10162 10161 10158 ] final   -8.95 input  -65.29 | X-H torsion
[ 10718 10713 10712 10709 ] final  -87.31 input   66.30 | X-H torsion
[ 10763 10752 10751 10750 ] final   61.09 input  -60.55 | X-H torsion
[ 11005 11000 10999 10996 ] final  142.96 input  -57.11 | X-H torsion

> <Gold.Protein.ActiveResidues>
 VAL166  LYS551  ARG553  GLY616  TRP617  ASP618  TYR619  PRO620  LYS621  CYS622 
 ASP623  PHE694  ASN695  SER759  ASP760  ASP761  ALA762  ILE779  LEU786  VAL792 
 PHE793  MET794  SER795  GLU796  ALA797  LYS798  CYS799  TRP800  GLU811  SER814 

> <Gold.Protein.RotatedAtoms>
  152.0659  133.4083  159.4437 H   0  0  0  0  0  0  0  0  0  0  0  0  # atno 6907 bound_to 6896
  150.6865  134.3147  159.4770 H   0  0  0  0  0  0  0  0  0  0  0  0  # atno 6908 bound_to 6896
  152.0974  134.9365  160.0621 H   0  0  0  0  0  0  0  0  0  0  0  0  # atno 6909 bound_to 6896
  146.1796  140.4182  142.8500 H   0  0  0  0  0  0  0  0  0  0  0  0  # atno 7974 bound_to 7965
  155.9340  140.1096  157.1109 H   0  0  0  0  0  0  0  0  0  0  0  0  # atno 8008 bound_to 7997
  154.4076  140.1232  156.4906 H   0  0  0  0  0  0  0  0  0  0  0  0  # atno 8009 bound_to 7997
  155.7044  140.3471  155.4949 H   0  0  0  0  0  0  0  0  0  0  0  0  # atno 8010 bound_to 7997
  140.7074  143.5911  150.8892 H   0  0  0  0  0  0  0  0  0  0  0  0  # atno 10167 bound_to 10162
  155.9986  130.4795  150.4847 H   0  0  0  0  0  0  0  0  0  0  0  0  # atno 10718 bound_to 10713
  152.9940  135.5513  154.5979 H   0  0  0  0  0  0  0  0  0  0  0  0  # atno 10763 bound_to 10752
  154.5326  135.2814  155.1168 H   0  0  0  0  0  0  0  0  0  0  0  0  # atno 10764 bound_to 10752
  154.2477  135.6404  153.5282 H   0  0  0  0  0  0  0  0  0  0  0  0  # atno 10765 bound_to 10752
  140.0517  134.9252  157.1028 H   0  0  0  0  0  0  0  0  0  0  0  0  # atno 11005 bound_to 11000
  144.8292  140.6679  143.6302 LP  0  0  0  0  0  0  0  0  0  0  0  0  # atno 17320 bound_to 7965
  145.4115  139.1579  143.4123 LP  0  0  0  0  0  0  0  0  0  0  0  0  # atno 17321 bound_to 7965
  139.9637  143.6135  152.2995 LP  0  0  0  0  0  0  0  0  0  0  0  0  # atno 17342 bound_to 10162
  139.6697  144.7661  151.1807 LP  0  0  0  0  0  0  0  0  0  0  0  0  # atno 17343 bound_to 10162
  157.2849  131.0614  151.2173 LP  0  0  0  0  0  0  0  0  0  0  0  0  # atno 17370 bound_to 10713
  157.3206  130.6935  149.6267 LP  0  0  0  0  0  0  0  0  0  0  0  0  # atno 17371 bound_to 10713
  140.3908  134.2187  155.7166 LP  0  0  0  0  0  0  0  0  0  0  0  0  # atno 17394 bound_to 11000
  141.1933  133.8154  157.0804 LP  0  0  0  0  0  0  0  0  0  0  0  0  # atno 17395 bound_to 11000

$$$$
