AV-unprocessed.smi:2964|AV-procd|sdf|11321|dock4
  -GOLD-   2272016223D 1   1.00000     0.00000
 Structure written by MMmdl.
 35 36  0  0  0  0  0  0  0  0  1 V2000
  148.8782  140.6841  156.8216 O   0  0  0  0  0  0  0  0  0  0  0  0
  149.3221  141.4724  155.9854 C   0  0  0  0  0  0  0  0  0  0  0  0
  150.8185  141.8139  155.9380 C   0  0  0  0  0  0  0  0  0  0  0  0
  151.4520  141.8564  157.2670 N   0  0  0  0  0  0  0  0  0  0  0  0
  151.2752  143.0310  158.0250 C   0  0  0  0  0  0  0  0  0  0  0  0
  151.8081  143.1978  159.2512 C   0  0  0  0  0  0  0  0  0  0  0  0
  151.5938  144.4597  160.0718 C   0  0  0  0  0  0  0  0  0  0  0  0
  152.0632  145.5221  159.4178 F   0  0  0  0  0  0  0  0  0  0  0  0
  150.2919  144.6496  160.2822 F   0  0  0  0  0  0  0  0  0  0  0  0
  152.2045  144.3919  161.2557 F   0  0  0  0  0  0  0  0  0  0  0  0
  152.5758  142.0881  159.7784 C   0  0  0  0  0  0  0  0  0  0  0  0
  152.7560  140.9588  159.0661 C   0  0  0  0  0  0  0  0  0  0  0  0
  152.1815  140.7966  157.7285 C   0  0  0  0  0  0  0  0  0  0  0  0
  152.3442  139.7721  157.0654 O   0  0  0  0  0  0  0  0  0  0  0  0
  148.5555  142.0673  155.0590 N   0  0  0  0  0  0  0  0  0  0  0  0
  147.1128  141.8863  154.9234 C   0  0  0  0  0  0  0  0  0  0  0  0
  146.5154  142.8137  153.8445 C   0  0  0  0  0  0  0  0  0  0  0  0
  145.2959  143.4774  154.4855 C   0  0  0  0  0  0  0  0  0  0  0  0
  145.6433  143.5473  155.9688 C   0  0  0  0  0  0  0  0  0  0  0  0
  146.3952  142.2433  156.2382 C   0  0  0  0  0  0  0  0  0  0  0  0
  151.3141  141.0797  155.3015 H   0  0  0  0  0  0  0  0  0  0  0  0
  150.9532  142.7692  155.4269 H   0  0  0  0  0  0  0  0  0  0  0  0
  150.6807  143.7906  157.5383 H   0  0  0  0  0  0  0  0  0  0  0  0
  153.0165  142.1686  160.7612 H   0  0  0  0  0  0  0  0  0  0  0  0
  153.3375  140.1531  159.4896 H   0  0  0  0  0  0  0  0  0  0  0  0
  149.0001  142.6962  154.4060 H   0  0  0  0  0  0  0  0  0  0  0  0
  146.9027  140.8428  154.6809 H   0  0  0  0  0  0  0  0  0  0  0  0
  147.2317  143.5873  153.5629 H   0  0  0  0  0  0  0  0  0  0  0  0
  146.2542  142.2712  152.9352 H   0  0  0  0  0  0  0  0  0  0  0  0
  145.0770  144.4561  154.0578 H   0  0  0  0  0  0  0  0  0  0  0  0
  144.4171  142.8471  154.3439 H   0  0  0  0  0  0  0  0  0  0  0  0
  146.3015  144.3979  156.1515 H   0  0  0  0  0  0  0  0  0  0  0  0
  144.7633  143.6637  156.6020 H   0  0  0  0  0  0  0  0  0  0  0  0
  145.6762  141.4590  156.4787 H   0  0  0  0  0  0  0  0  0  0  0  0
  147.0695  142.3293  157.0914 H   0  0  0  0  0  0  0  0  0  0  0  0
  1  2  2  0  0  0  0
  2  3  1  0  0  0  0
  2 15  1  0  0  0  0
  3  4  1  0  0  0  0
  3 21  1  0  0  0  0
  3 22  1  0  0  0  0
  4 13  1  0  0  0  0
  4  5  1  0  0  0  0
  5  6  2  0  0  0  0
  5 23  1  0  0  0  0
  6  7  1  0  0  0  0
  6 11  1  0  0  0  0
  7  8  1  0  0  0  0
  7  9  1  0  0  0  0
  7 10  1  0  0  0  0
 11 12  2  0  0  0  0
 11 24  1  0  0  0  0
 12 13  1  0  0  0  0
 12 25  1  0  0  0  0
 13 14  2  0  0  0  0
 15 16  1  0  0  0  0
 15 26  1  0  0  0  0
 16 20  1  0  0  0  0
 16 17  1  0  0  0  0
 16 27  1  0  0  0  0
 17 18  1  0  0  0  0
 17 28  1  0  0  0  0
 17 29  1  0  0  0  0
 18 19  1  0  0  0  0
 18 30  1  0  0  0  0
 18 31  1  0  0  0  0
 19 20  1  0  0  0  0
 19 32  1  0  0  0  0
 19 33  1  0  0  0  0
 20 34  1  0  0  0  0
 20 35  1  0  0  0  0
M  END
> <s_m_source_file>
AV-unprocessed.smi

> <i_m_source_file_index>
2964

> <i_lp_mmshare_version>
43012

> <i_f3d_flags>
0

> <s_epik_input>
W0NIMl0xW0NIMl1bQ0gyXVtDSDJdW0NIXTFbTkhdQyg9TylbQ0gyXW4yW2NIXWMoQyhGKShGKUYpW2NIXVtjSF1jMj1P

> <s_epik_cmdline>
J2VwaWtfcHl0aG9uJywgJy1waCcsICc3LjAnLCAnLXRuJywgJzgnLCAnLW1hJywgJzIwMCcsICctbWV0YWxfYmluZGluZycsICctaW1hZScsICc8aW5maWxlLm1hZT4nLCAnLW9tYWUnLCAnPG91dGZpbGUubWFlPic=

> <r_lp_tautomer_probability>
1

> <r_epik_Ionization_Penalty>
3.84201e-08

> <r_epik_Ionization_Penalty_Charging>
1.91184e-08

> <r_epik_Ionization_Penalty_Neutral>
1.93017e-08

> <r_epik_State_Penalty>
-0

> <r_epik_Charging_Adjusted_Penalty>
1.91184e-08

> <i_epik_Tot_Q>
0

> <i_epik_Tot_abs_Q>
0

> <r_epik_Metal_State_Penalty>
-0

> <b_epik_Metal_Only>
0

> <s_lp_Force_Field>
OPLS_2005

> <r_lp_Energy>
29.7678

> <b_lp_Chiralities_Consistent>
1

> <s_lp_Variant>
AV-unprocessed.smi:2964-1

> <Gold.Version>
5.8.1

> <Gold.Id.Protein>
6NUR|6NUR_protein|mol2

> <Gold.PLP.Fitness>
48.5737

> <Gold.PLP.PLP>
-44.8841

> <Gold.PLP.part.hbond>
-2.0000

> <Gold.PLP.part.metal>
0.0000

> <Gold.PLP.part.buried>
-6.6494

> <Gold.PLP.part.nonpolar>
-35.1852

> <Gold.PLP.part.repulsive>
0.2032

> <Gold.PLP.ligand.clash>
0.0000

> <Gold.PLP.ligand.torsion>
0.6646

> <Gold.PLP.Chemscore.Hbond>
0.9913

> <Gold.PLP.Chemscore.CHOScore>
0.6765

> <Gold.PLP.Chemscore.Metal>
0.0000

> <Gold.Chemscore.Hbonds>
donor molecule, donor type, donor heavy atom, donor atom, acceptor molecule, acceptor atom, score
      P1  H  7997  8008       L1    14  0.65
      L1  C     5    23       P1  8028  0.48

> <Gold.PLP.Chemscore.Internal.Correction>
0.0157

> <Gold.Rescore>
     Score         DG    S(hbond)    S(metal)    S(lipo)     H(rot)  DE(clash)    DE(int)     intcor
     12.97     -14.46       0.91        0.00      84.75       1.56       0.80       0.69       ----

> <Gold.Chemscore.Fitness>
12.9666

> <Gold.Chemscore.DG>
-14.4583

> <Gold.Chemscore.ZeroCoef>
-5.4800

> <Gold.Chemscore.Hbond>
0.9126

> <Gold.Chemscore.Metal>
0.0000

> <Gold.Chemscore.Lipo>
84.7494

> <Gold.Chemscore.Internal_Hbond>
0.0000

> <Gold.Chemscore.DEClash>
0.8013

> <Gold.Chemscore.DEInternal>
0.6904

> <Gold.Chemscore.Rot>
1.5568

> <Gold.Chemscore.Internal.Correction>
   9.000000E+99

> <Gold.Chemscore.Hbonds>
donor molecule, donor type, donor heavy atom, donor atom, acceptor molecule, acceptor atom, score
      L1  H    15    26       P1  8028  0.01
      P1  H  7997  8008       L1    14  0.09

> <Gold.Chemscore.Hbond.Weighted>
-3.0480

> <Gold.Chemscore.Metal.Weighted>
-0.0000

> <Gold.Chemscore.Lipo.Weighted>
-9.9157

> <Gold.Chemscore.Internal_Hbond.Weighted>
0.0000

> <Gold.Chemscore.DEClash.Weighted>
0.8013

> <Gold.Chemscore.DEInternal.Weighted>
0.6904

> <Gold.Chemscore.Rot.Weighted>
3.9854

> <Gold.Chemscore.Internal.Correction.Weighted>
   9.000000E+99

> <Gold.Protein.RotatedTorsions>
[ 6907 6896 6895 6894 ] final  164.74 input  -60.11 | X-H torsion
[ 7974 7965 7964 7962 ] final  176.75 input  175.53 | X-H torsion
[ 8008 7997 7996 7995 ] final  -63.83 input   59.86 | X-H torsion
[ 10167 10162 10161 10158 ] final  128.41 input  -65.29 | X-H torsion
[ 10718 10713 10712 10709 ] final  155.55 input   66.30 | X-H torsion
[ 10763 10752 10751 10750 ] final  157.93 input  -60.55 | X-H torsion
[ 11005 11000 10999 10996 ] final   -4.47 input  -57.11 | X-H torsion

> <Gold.Protein.ActiveResidues>
 VAL166  LYS551  ARG553  GLY616  TRP617  ASP618  TYR619  PRO620  LYS621  CYS622 
 ASP623  PHE694  ASN695  SER759  ASP760  ASP761  ALA762  ILE779  LEU786  VAL792 
 PHE793  MET794  SER795  GLU796  ALA797  LYS798  CYS799  TRP800  GLU811  SER814 

> <Gold.Protein.RotatedAtoms>
  151.9052  133.3547  159.3844 H   0  0  0  0  0  0  0  0  0  0  0  0  # atno 6907 bound_to 6896
  150.7070  134.4788  159.5469 H   0  0  0  0  0  0  0  0  0  0  0  0  # atno 6908 bound_to 6896
  152.2383  134.8254  160.0515 H   0  0  0  0  0  0  0  0  0  0  0  0  # atno 6909 bound_to 6896
  144.7179  140.0144  143.6440 H   0  0  0  0  0  0  0  0  0  0  0  0  # atno 7974 bound_to 7965
  154.4577  140.0966  156.6804 H   0  0  0  0  0  0  0  0  0  0  0  0  # atno 8008 bound_to 7997
  155.5089  140.3476  155.4366 H   0  0  0  0  0  0  0  0  0  0  0  0  # atno 8009 bound_to 7997
  156.0809  140.1373  156.9702 H   0  0  0  0  0  0  0  0  0  0  0  0  # atno 8010 bound_to 7997
  139.5528  144.6826  151.4271 H   0  0  0  0  0  0  0  0  0  0  0  0  # atno 10167 bound_to 10162
  157.2168  131.0710  151.1936 H   0  0  0  0  0  0  0  0  0  0  0  0  # atno 10718 bound_to 10713
  154.2080  135.2787  155.2968 H   0  0  0  0  0  0  0  0  0  0  0  0  # atno 10763 bound_to 10752
  154.5801  135.5592  153.7181 H   0  0  0  0  0  0  0  0  0  0  0  0  # atno 10764 bound_to 10752
  153.0071  135.6343  154.2219 H   0  0  0  0  0  0  0  0  0  0  0  0  # atno 10765 bound_to 10752
  140.6806  133.9157  155.8553 H   0  0  0  0  0  0  0  0  0  0  0  0  # atno 11005 bound_to 11000
  146.0232  139.3269  143.0800 LP  0  0  0  0  0  0  0  0  0  0  0  0  # atno 17320 bound_to 7965
  145.8543  140.9511  143.0733 LP  0  0  0  0  0  0  0  0  0  0  0  0  # atno 17321 bound_to 7965
  140.6795  143.8114  150.7102 LP  0  0  0  0  0  0  0  0  0  0  0  0  # atno 17342 bound_to 10162
  140.1563  143.4314  152.2097 LP  0  0  0  0  0  0  0  0  0  0  0  0  # atno 17343 bound_to 10162
  157.3616  130.7134  149.6506 LP  0  0  0  0  0  0  0  0  0  0  0  0  # atno 17370 bound_to 10713
  155.9685  130.4224  150.4513 LP  0  0  0  0  0  0  0  0  0  0  0  0  # atno 17371 bound_to 10713
  141.0320  134.0742  157.4003 LP  0  0  0  0  0  0  0  0  0  0  0  0  # atno 17394 bound_to 11000
  139.8953  135.0140  156.6994 LP  0  0  0  0  0  0  0  0  0  0  0  0  # atno 17395 bound_to 11000

$$$$
