AV-unprocessed.smi:652|AV-procd|sdf|3194|dock5
  -GOLD-   22720 0123D 1   1.00000     0.00000
 Structure written by MMmdl.
 48 49  0  0  0  0  0  0  0  0  2 V2000
  146.7240  133.7317  151.0405 C   0  0  0  0  0  0  0  0  0  0  0  0
  145.8299  134.9137  151.4376 C   0  0  0  0  0  0  0  0  0  0  0  0
  145.5132  135.8207  150.2394 C   0  0  0  0  0  0  0  0  0  0  0  0
  146.4842  135.6816  152.4927 N   0  0  0  0  0  0  0  0  0  0  0  0
  146.0111  135.8650  153.7356 C   0  0  0  0  0  0  0  0  0  0  0  0
  144.9367  135.4120  154.1290 O   0  0  0  0  0  0  0  0  0  0  0  0
  146.8894  136.6815  154.6851 C   0  0  0  0  0  0  0  0  0  0  0  0
  146.8950  138.1751  154.3006 C   0  0  0  0  0  0  0  0  0  0  0  0
  148.1009  138.5794  153.5255 N   0  3  1  0  0  0  0  0  0  0  0  0
  147.8325  139.6641  152.5492 C   0  0  0  0  0  0  0  0  0  0  0  0
  147.7333  141.0342  153.2486 C   0  0  0  0  0  0  0  0  0  0  0  0
  148.9148  141.2793  154.0050 O   0  0  0  0  0  0  0  0  0  0  0  0
  149.1215  140.3061  155.0232 C   0  0  2  0  0  0  0  0  0  0  0  0
  150.3533  140.7245  155.8485 C   0  0  0  0  0  0  0  0  0  0  0  0
  150.1946  142.0232  156.4963 N   0  0  0  0  0  0  0  0  0  0  0  0
  150.8942  142.3497  157.6672 C   0  0  0  0  0  0  0  0  0  0  0  0
  151.2571  143.6930  157.8899 C   0  0  0  0  0  0  0  0  0  0  0  0
  151.9697  143.9907  159.0644 C   0  0  0  0  0  0  0  0  0  0  0  0
  152.2628  142.9211  159.9297 C   0  0  0  0  0  0  0  0  0  0  0  0
  151.8894  141.6488  159.6664 N   0  0  0  0  0  0  0  0  0  0  0  0
  151.2092  141.3683  158.5492 N   0  0  0  0  0  0  0  0  0  0  0  0
  149.2893  138.9270  154.3466 C   0  0  0  0  0  0  0  0  0  0  0  0
  146.2523  133.1270  150.2655 H   0  0  0  0  0  0  0  0  0  0  0  0
  146.9122  133.0805  151.8946 H   0  0  0  0  0  0  0  0  0  0  0  0
  147.6880  134.0695  150.6586 H   0  0  0  0  0  0  0  0  0  0  0  0
  144.8920  134.5028  151.8158 H   0  0  0  0  0  0  0  0  0  0  0  0
  145.0159  135.2613  149.4466 H   0  0  0  0  0  0  0  0  0  0  0  0
  146.4201  136.2570  149.8193 H   0  0  0  0  0  0  0  0  0  0  0  0
  144.8516  136.6383  150.5277 H   0  0  0  0  0  0  0  0  0  0  0  0
  147.3737  136.0990  152.2602 H   0  0  0  0  0  0  0  0  0  0  0  0
  146.5258  136.5296  155.7004 H   0  0  0  0  0  0  0  0  0  0  0  0
  147.9043  136.2835  154.6585 H   0  0  0  0  0  0  0  0  0  0  0  0
  146.0115  138.3688  153.6903 H   0  0  0  0  0  0  0  0  0  0  0  0
  146.7842  138.7972  155.1889 H   0  0  0  0  0  0  0  0  0  0  0  0
  148.6515  139.6877  151.8289 H   0  0  0  0  0  0  0  0  0  0  0  0
  146.9288  139.4540  151.9761 H   0  0  0  0  0  0  0  0  0  0  0  0
  147.6233  141.8245  152.5060 H   0  0  0  0  0  0  0  0  0  0  0  0
  146.8554  141.0866  153.8940 H   0  0  0  0  0  0  0  0  0  0  0  0
  148.2508  140.3042  155.6780 H   0  0  0  0  0  0  0  0  0  0  0  0
  150.5452  139.9820  156.6234 H   0  0  0  0  0  0  0  0  0  0  0  0
  151.2417  140.7426  155.2161 H   0  0  0  0  0  0  0  0  0  0  0  0
  149.7495  142.7633  155.9728 H   0  0  0  0  0  0  0  0  0  0  0  0
  151.0030  144.4701  157.1840 H   0  0  0  0  0  0  0  0  0  0  0  0
  152.2808  144.9993  159.2935 H   0  0  0  0  0  0  0  0  0  0  0  0
  152.8093  143.0863  160.8463 H   0  0  0  0  0  0  0  0  0  0  0  0
  149.4990  138.1534  155.0820 H   0  0  0  0  0  0  0  0  0  0  0  0
  150.1610  138.9520  153.6912 H   0  0  0  0  0  0  0  0  0  0  0  0
  148.3516  137.7678  152.9790 H   0  0  0  0  0  0  0  0  0  0  0  0
  1  2  1  0  0  0  0
  1 23  1  0  0  0  0
  1 24  1  0  0  0  0
  1 25  1  0  0  0  0
  2  3  1  0  0  0  0
  2  4  1  0  0  0  0
  2 26  1  0  0  0  0
  3 27  1  0  0  0  0
  3 28  1  0  0  0  0
  3 29  1  0  0  0  0
  4  5  1  0  0  0  0
  4 30  1  0  0  0  0
  5  6  2  0  0  0  0
  5  7  1  0  0  0  0
  7  8  1  0  0  0  0
  7 31  1  0  0  0  0
  7 32  1  0  0  0  0
  8  9  1  0  0  0  0
  8 33  1  0  0  0  0
  8 34  1  0  0  0  0
  9 22  1  0  0  0  0
  9 10  1  0  0  0  0
  9 48  1  0  0  0  0
 10 11  1  0  0  0  0
 10 35  1  0  0  0  0
 10 36  1  0  0  0  0
 11 12  1  0  0  0  0
 11 37  1  0  0  0  0
 11 38  1  0  0  0  0
 12 13  1  0  0  0  0
 13 14  1  0  0  0  0
 13 22  1  0  0  0  0
 13 39  1  0  0  0  0
 14 15  1  0  0  0  0
 14 40  1  0  0  0  0
 14 41  1  0  0  0  0
 15 16  1  0  0  0  0
 15 42  1  0  0  0  0
 16 21  1  0  0  0  0
 16 17  2  0  0  0  0
 17 18  1  0  0  0  0
 17 43  1  0  0  0  0
 18 19  2  0  0  0  0
 18 44  1  0  0  0  0
 19 20  1  0  0  0  0
 19 45  1  0  0  0  0
 20 21  2  0  0  0  0
 22 46  1  0  0  0  0
 22 47  1  0  0  0  0
M  CHG  1   9   1
M  END
> <s_m_source_file>
AV-unprocessed.smi

> <i_m_source_file_index>
652

> <i_lp_mmshare_version>
43012

> <i_f3d_flags>
0

> <s_epik_input>
W0NIM11bQ0hdKFtDSDNdKVtOSF1DKD1PKVtDSDJdW0NIMl1OMVtDSDJdW0NIMl1PW0NASF0oW0NIMl0xKVtDSDJdW05IXWMyW2NIXVtjSF1bY0hdbm4y

> <s_epik_cmdline>
J2VwaWtfcHl0aG9uJywgJy1waCcsICc3LjAnLCAnLXRuJywgJzgnLCAnLW1hJywgJzIwMCcsICctbWV0YWxfYmluZGluZycsICctaW1hZScsICc8aW5maWxlLm1hZT4nLCAnLW9tYWUnLCAnPG91dGZpbGUubWFlPic=

> <r_lp_tautomer_probability>
0.999978

> <r_epik_Ionization_Penalty>
0.433079

> <r_epik_Ionization_Penalty_Charging>
0.413784

> <r_epik_Ionization_Penalty_Neutral>
0.0192945

> <r_epik_State_Penalty>
0.425138

> <r_epik_Charging_Adjusted_Penalty>
0.838922

> <i_epik_Tot_Q>
1

> <i_epik_Tot_abs_Q>
1

> <r_epik_Metal_State_Penalty>
0.422073

> <b_epik_Metal_Only>
0

> <s_lp_Force_Field>
OPLS_2005

> <r_lp_Energy>
22.7305

> <b_lp_Chiralities_Consistent>
1

> <s_lp_Variant>
AV-unprocessed.smi:652-3

> <Gold.Version>
5.8.1

> <Gold.Id.Protein>
6NUR|6NUR_protein|mol2

> <Gold.PLP.Fitness>
50.5087

> <Gold.PLP.PLP>
-39.0863

> <Gold.PLP.part.hbond>
-4.4955

> <Gold.PLP.part.metal>
0.0000

> <Gold.PLP.part.buried>
-0.1310

> <Gold.PLP.part.nonpolar>
-34.5888

> <Gold.PLP.part.repulsive>
0.3407

> <Gold.PLP.ligand.clash>
0.0000

> <Gold.PLP.ligand.torsion>
1.1284

> <Gold.PLP.Chemscore.Hbond>
4.5023

> <Gold.PLP.Chemscore.CHOScore>
0.0000

> <Gold.PLP.Chemscore.Metal>
0.0000

> <Gold.Chemscore.Hbonds>
donor molecule, donor type, donor heavy atom, donor atom, acceptor molecule, acceptor atom, score
      L1  H     4    30       P1  7948  1.00
      L1  H     9    48       P1  7948  2.00
      L1  H    15    42       P1  8028  0.67
      P1  H  8011  8017       L1    12  0.25

> <Gold.PLP.Chemscore.Internal.Correction>
0.1724

> <Gold.Rescore>
     Score         DG    S(hbond)    S(metal)    S(lipo)     H(rot)  DE(clash)    DE(int)     intcor
     18.49     -21.52       3.24        0.00      93.92       2.26       1.76       1.28       ----

> <Gold.Chemscore.Fitness>
18.4859

> <Gold.Chemscore.DG>
-21.5173

> <Gold.Chemscore.ZeroCoef>
-5.4800

> <Gold.Chemscore.Hbond>
3.2435

> <Gold.Chemscore.Metal>
0.0000

> <Gold.Chemscore.Lipo>
93.9166

> <Gold.Chemscore.Internal_Hbond>
0.0000

> <Gold.Chemscore.DEClash>
1.7550

> <Gold.Chemscore.DEInternal>
1.2764

> <Gold.Chemscore.Rot>
2.2594

> <Gold.Chemscore.Internal.Correction>
   9.000000E+99

> <Gold.Chemscore.Hbonds>
donor molecule, donor type, donor heavy atom, donor atom, acceptor molecule, acceptor atom, score
      L1  H     4    30       P1  7948  0.99
      L1  H     9    48       P1  7948  0.98
      L1  H    15    42       P1  8028  0.66
      P1  H  8011  8017       L1    12  0.01

> <Gold.Chemscore.Hbond.Weighted>
-10.8332

> <Gold.Chemscore.Metal.Weighted>
-0.0000

> <Gold.Chemscore.Lipo.Weighted>
-10.9882

> <Gold.Chemscore.Internal_Hbond.Weighted>
0.0000

> <Gold.Chemscore.DEClash.Weighted>
1.7550

> <Gold.Chemscore.DEInternal.Weighted>
1.2764

> <Gold.Chemscore.Rot.Weighted>
5.7841

> <Gold.Chemscore.Internal.Correction.Weighted>
   9.000000E+99

> <Gold.Protein.RotatedTorsions>
[ 6907 6896 6895 6894 ] final -150.93 input  -60.11 | X-H torsion
[ 7974 7965 7964 7962 ] final  -27.68 input  175.53 | X-H torsion
[ 8008 7997 7996 7995 ] final  128.34 input   59.86 | X-H torsion
[ 10167 10162 10161 10158 ] final  -23.14 input  -65.29 | X-H torsion
[ 10718 10713 10712 10709 ] final  -59.98 input   66.30 | X-H torsion
[ 10763 10752 10751 10750 ] final -173.58 input  -60.55 | X-H torsion
[ 11005 11000 10999 10996 ] final  -40.83 input  -57.11 | X-H torsion

> <Gold.Protein.ActiveResidues>
 VAL166  LYS551  ARG553  GLY616  TRP617  ASP618  TYR619  PRO620  LYS621  CYS622 
 ASP623  PHE694  ASN695  SER759  ASP760  ASP761  ALA762  ILE779  LEU786  VAL792 
 PHE793  MET794  SER795  GLU796  ALA797  LYS798  CYS799  TRP800  GLU811  SER814 

> <Gold.Protein.RotatedAtoms>
  151.2056  133.4585  159.2596 H   0  0  0  0  0  0  0  0  0  0  0  0  # atno 6907 bound_to 6896
  151.1026  134.9981  159.8466 H   0  0  0  0  0  0  0  0  0  0  0  0  # atno 6908 bound_to 6896
  152.5444  134.1982  159.8754 H   0  0  0  0  0  0  0  0  0  0  0  0  # atno 6909 bound_to 6896
  146.1341  140.5184  142.8680 H   0  0  0  0  0  0  0  0  0  0  0  0  # atno 7974 bound_to 7965
  156.2912  140.2647  156.2419 H   0  0  0  0  0  0  0  0  0  0  0  0  # atno 8008 bound_to 7997
  154.9968  140.0388  157.2361 H   0  0  0  0  0  0  0  0  0  0  0  0  # atno 8009 bound_to 7997
  154.7636  140.2765  155.6199 H   0  0  0  0  0  0  0  0  0  0  0  0  # atno 8010 bound_to 7997
  140.7287  143.4470  151.0572 H   0  0  0  0  0  0  0  0  0  0  0  0  # atno 10167 bound_to 10162
  156.1023  130.4185  150.0791 H   0  0  0  0  0  0  0  0  0  0  0  0  # atno 10718 bound_to 10713
  154.6062  135.2859  155.0482 H   0  0  0  0  0  0  0  0  0  0  0  0  # atno 10763 bound_to 10752
  154.1728  135.6469  153.5018 H   0  0  0  0  0  0  0  0  0  0  0  0  # atno 10764 bound_to 10752
  153.0176  135.5405  154.6799 H   0  0  0  0  0  0  0  0  0  0  0  0  # atno 10765 bound_to 10752
  141.0203  133.6866  156.2375 H   0  0  0  0  0  0  0  0  0  0  0  0  # atno 11005 bound_to 11000
  144.7721  140.5660  143.6663 LP  0  0  0  0  0  0  0  0  0  0  0  0  # atno 17320 bound_to 7965
  145.5196  139.1477  143.3560 LP  0  0  0  0  0  0  0  0  0  0  0  0  # atno 17321 bound_to 7965
  139.8142  143.7908  152.3173 LP  0  0  0  0  0  0  0  0  0  0  0  0  # atno 17342 bound_to 10162
  139.7968  144.7389  150.9879 LP  0  0  0  0  0  0  0  0  0  0  0  0  # atno 17343 bound_to 10162
  156.8775  130.9545  151.3603 LP  0  0  0  0  0  0  0  0  0  0  0  0  # atno 17370 bound_to 10713
  157.6194  130.8644  149.9084 LP  0  0  0  0  0  0  0  0  0  0  0  0  # atno 17371 bound_to 10713
  140.6585  134.4993  157.5582 LP  0  0  0  0  0  0  0  0  0  0  0  0  # atno 17394 bound_to 11000
  139.9142  134.8281  156.1424 LP  0  0  0  0  0  0  0  0  0  0  0  0  # atno 17395 bound_to 11000

$$$$
