AV-unprocessed.smi:312|AV-procd|sdf|2306|dock3
  -GOLD-   2262022203D 1   1.00000     0.00000
 Structure written by MMmdl.
 36 37  0  0  0  0  0  0  0  0  2 V2000
  147.9872  141.1336  157.0741 C   0  0  0  0  0  0  0  0  0  0  0  0
  149.1622  141.4249  156.1314 C   0  0  1  0  0  0  0  0  0  0  0  0
  148.6712  141.6931  154.6917 C   0  0  0  0  0  0  0  0  0  0  0  0
  148.2173  140.4808  154.0020 N   0  0  0  0  0  0  0  0  0  0  0  0
  147.0275  140.2924  153.3466 C   0  0  0  0  0  0  0  0  0  0  0  0
  147.0543  139.0157  152.8476 C   0  0  0  0  0  0  0  0  0  0  0  0
  148.2547  138.4767  153.2260 N   0  3  0  0  0  0  0  0  0  0  0  0
  148.9585  139.3674  153.9320 C   0  0  0  0  0  0  0  0  0  0  0  0
  149.9150  142.5653  156.6530 N   0  0  0  0  0  0  0  0  0  0  0  0
  151.0393  142.4947  157.3838 C   0  0  0  0  0  0  0  0  0  0  0  0
  151.5752  141.4304  157.6959 O   0  0  0  0  0  0  0  0  0  0  0  0
  151.6589  143.8333  157.8151 C   0  0  0  0  0  0  0  0  0  0  0  0
  152.8549  143.6318  158.7754 C   0  0  0  0  0  0  0  0  0  0  0  0
  152.4918  144.3258  160.0948 C   0  0  0  0  0  0  0  0  0  0  0  0
  150.9729  144.4699  160.0715 C   0  0  0  0  0  0  0  0  0  0  0  0
  150.6520  144.6995  158.5956 C   0  0  0  0  0  0  0  0  0  0  0  0
  147.4210  140.2648  156.7376 H   0  0  0  0  0  0  0  0  0  0  0  0
  147.2993  141.9782  157.1270 H   0  0  0  0  0  0  0  0  0  0  0  0
  148.3373  140.9248  158.0858 H   0  0  0  0  0  0  0  0  0  0  0  0
  149.7972  140.5369  156.1287 H   0  0  0  0  0  0  0  0  0  0  0  0
  147.8354  142.3943  154.6991 H   0  0  0  0  0  0  0  0  0  0  0  0
  149.4604  142.1492  154.0923 H   0  0  0  0  0  0  0  0  0  0  0  0
  146.2737  141.0636  153.2781 H   0  0  0  0  0  0  0  0  0  0  0  0
  146.3290  138.4651  152.2664 H   0  0  0  0  0  0  0  0  0  0  0  0
  149.9375  139.2200  154.3522 H   0  0  0  0  0  0  0  0  0  0  0  0
  149.5470  143.4829  156.4471 H   0  0  0  0  0  0  0  0  0  0  0  0
  151.9843  144.3759  156.9258 H   0  0  0  0  0  0  0  0  0  0  0  0
  153.0565  142.5748  158.9590 H   0  0  0  0  0  0  0  0  0  0  0  0
  153.7702  144.0533  158.3587 H   0  0  0  0  0  0  0  0  0  0  0  0
  152.8447  143.7770  160.9685 H   0  0  0  0  0  0  0  0  0  0  0  0
  152.9480  145.3164  160.1215 H   0  0  0  0  0  0  0  0  0  0  0  0
  150.5067  143.5455  160.4151 H   0  0  0  0  0  0  0  0  0  0  0  0
  150.6178  145.2801  160.7090 H   0  0  0  0  0  0  0  0  0  0  0  0
  150.8089  145.7501  158.3470 H   0  0  0  0  0  0  0  0  0  0  0  0
  149.6098  144.4705  158.3662 H   0  0  0  0  0  0  0  0  0  0  0  0
  148.5678  137.5400  153.0034 H   0  0  0  0  0  0  0  0  0  0  0  0
  1  2  1  0  0  0  0
  1 17  1  0  0  0  0
  1 18  1  0  0  0  0
  1 19  1  0  0  0  0
  2  3  1  0  0  0  0
  2  9  1  0  0  0  0
  2 20  1  0  0  0  0
  3  4  1  0  0  0  0
  3 21  1  0  0  0  0
  3 22  1  0  0  0  0
  4  8  1  0  0  0  0
  4  5  1  0  0  0  0
  5  6  2  0  0  0  0
  5 23  1  0  0  0  0
  6  7  1  0  0  0  0
  6 24  1  0  0  0  0
  7  8  2  0  0  0  0
  7 36  1  0  0  0  0
  8 25  1  0  0  0  0
  9 10  1  0  0  0  0
  9 26  1  0  0  0  0
 10 11  2  0  0  0  0
 10 12  1  0  0  0  0
 12 16  1  0  0  0  0
 12 13  1  0  0  0  0
 12 27  1  0  0  0  0
 13 14  1  0  0  0  0
 13 28  1  0  0  0  0
 13 29  1  0  0  0  0
 14 15  1  0  0  0  0
 14 30  1  0  0  0  0
 14 31  1  0  0  0  0
 15 16  1  0  0  0  0
 15 32  1  0  0  0  0
 15 33  1  0  0  0  0
 16 34  1  0  0  0  0
 16 35  1  0  0  0  0
M  CHG  1   7   1
M  END
> <s_m_source_file>
AV-unprocessed.smi

> <i_m_source_file_index>
312

> <i_lp_mmshare_version>
43012

> <i_f3d_flags>
0

> <s_epik_input>
W2NIXTFuW2NIXVtjSF1uMVtDSDJdW0NAQEhdKFtDSDNdKVtOSF1DKD1PKVtDSF0yW0NIMl1bQ0gyXVtDSDJdW0NIMl0y

> <s_epik_cmdline>
J2VwaWtfcHl0aG9uJywgJy1waCcsICc3LjAnLCAnLXRuJywgJzgnLCAnLW1hJywgJzIwMCcsICctbWV0YWxfYmluZGluZycsICctaW1hZScsICc8aW5maWxlLm1hZT4nLCAnLW9tYWUnLCAnPG91dGZpbGUubWFlPic=

> <r_lp_tautomer_probability>
1

> <r_epik_Ionization_Penalty>
0.244425

> <r_epik_Ionization_Penalty_Charging>
0

> <r_epik_Ionization_Penalty_Neutral>
0.244425

> <r_epik_State_Penalty>
0.23553

> <r_epik_Charging_Adjusted_Penalty>
0.23553

> <i_epik_Tot_Q>
1

> <i_epik_Tot_abs_Q>
1

> <r_epik_Metal_State_Penalty>
0.528799

> <b_epik_Metal_Only>
0

> <s_lp_Force_Field>
OPLS_2005

> <r_lp_Energy>
22.578

> <b_lp_Chiralities_Consistent>
1

> <s_lp_Variant>
AV-unprocessed.smi:312-2

> <Gold.Version>
5.8.1

> <Gold.Id.Protein>
6NUR|6NUR_protein|mol2

> <Gold.PLP.Fitness>
44.9700

> <Gold.PLP.PLP>
-36.0679

> <Gold.PLP.part.hbond>
-3.0000

> <Gold.PLP.part.metal>
0.0000

> <Gold.PLP.part.buried>
-1.3203

> <Gold.PLP.part.nonpolar>
-31.8739

> <Gold.PLP.part.repulsive>
0.1047

> <Gold.PLP.ligand.clash>
0.0000

> <Gold.PLP.ligand.torsion>
0.5177

> <Gold.PLP.Chemscore.Hbond>
3.0000

> <Gold.PLP.Chemscore.CHOScore>
0.3056

> <Gold.PLP.Chemscore.Metal>
0.0000

> <Gold.Chemscore.Hbonds>
donor molecule, donor type, donor heavy atom, donor atom, acceptor molecule, acceptor atom, score
      L1  H     7    36       P1  7948  2.00
      L1  H     9    26       P1  8028  1.00
      L1  C     5    23       P1 10175  0.35

> <Gold.PLP.Chemscore.Internal.Correction>
0.0208

> <Gold.Rescore>
     Score         DG    S(hbond)    S(metal)    S(lipo)     H(rot)  DE(clash)    DE(int)     intcor
     16.98     -17.74       1.96        0.00      88.82       1.82       0.34       0.42       ----

> <Gold.Chemscore.Fitness>
16.9793

> <Gold.Chemscore.DG>
-17.7420

> <Gold.Chemscore.ZeroCoef>
-5.4800

> <Gold.Chemscore.Hbond>
1.9577

> <Gold.Chemscore.Metal>
0.0000

> <Gold.Chemscore.Lipo>
88.8161

> <Gold.Chemscore.Internal_Hbond>
0.0000

> <Gold.Chemscore.DEClash>
0.3435

> <Gold.Chemscore.DEInternal>
0.4192

> <Gold.Chemscore.Rot>
1.8235

> <Gold.Chemscore.Internal.Correction>
   9.000000E+99

> <Gold.Chemscore.Hbonds>
donor molecule, donor type, donor heavy atom, donor atom, acceptor molecule, acceptor atom, score
      L1  H     7    36       P1  7948  0.96
      L1  H     9    26       P1  8028  0.98

> <Gold.Chemscore.Hbond.Weighted>
-6.5388

> <Gold.Chemscore.Metal.Weighted>
-0.0000

> <Gold.Chemscore.Lipo.Weighted>
-10.3915

> <Gold.Chemscore.Internal_Hbond.Weighted>
0.0000

> <Gold.Chemscore.DEClash.Weighted>
0.3435

> <Gold.Chemscore.DEInternal.Weighted>
0.4192

> <Gold.Chemscore.Rot.Weighted>
4.6683

> <Gold.Chemscore.Internal.Correction.Weighted>
   9.000000E+99

> <Gold.Protein.RotatedTorsions>
[ 6907 6896 6895 6894 ] final    9.26 input  -60.11 | X-H torsion
[ 7974 7965 7964 7962 ] final -116.32 input  175.53 | X-H torsion
[ 8008 7997 7996 7995 ] final  157.47 input   59.86 | X-H torsion
[ 10167 10162 10161 10158 ] final  163.41 input  -65.29 | X-H torsion
[ 10718 10713 10712 10709 ] final   35.94 input   66.30 | X-H torsion
[ 10763 10752 10751 10750 ] final  -12.41 input  -60.55 | X-H torsion
[ 11005 11000 10999 10996 ] final -143.94 input  -57.11 | X-H torsion

> <Gold.Protein.ActiveResidues>
 VAL166  LYS551  ARG553  GLY616  TRP617  ASP618  TYR619  PRO620  LYS621  CYS622 
 ASP623  PHE694  ASN695  SER759  ASP760  ASP761  ALA762  ILE779  LEU786  VAL792 
 PHE793  MET794  SER795  GLU796  ALA797  LYS798  CYS799  TRP800  GLU811  SER814 

> <Gold.Protein.RotatedAtoms>
  151.7193  135.0897  160.0281 H   0  0  0  0  0  0  0  0  0  0  0  0  # atno 6907 bound_to 6896
  152.3612  133.6295  159.6025 H   0  0  0  0  0  0  0  0  0  0  0  0  # atno 6908 bound_to 6896
  150.7606  133.9337  159.3476 H   0  0  0  0  0  0  0  0  0  0  0  0  # atno 6909 bound_to 6896
  145.0982  140.8534  143.3942 H   0  0  0  0  0  0  0  0  0  0  0  0  # atno 7974 bound_to 7965
  156.2362  140.1884  156.7113 H   0  0  0  0  0  0  0  0  0  0  0  0  # atno 8008 bound_to 7997
  154.6110  140.0622  156.9521 H   0  0  0  0  0  0  0  0  0  0  0  0  # atno 8009 bound_to 7997
  155.2016  140.3292  155.4345 H   0  0  0  0  0  0  0  0  0  0  0  0  # atno 8010 bound_to 7997
  139.4873  144.4340  151.9035 H   0  0  0  0  0  0  0  0  0  0  0  0  # atno 10167 bound_to 10162
  157.3288  130.7486  149.6833 H   0  0  0  0  0  0  0  0  0  0  0  0  # atno 10718 bound_to 10713
  153.4981  135.7017  153.5847 H   0  0  0  0  0  0  0  0  0  0  0  0  # atno 10763 bound_to 10752
  153.3990  135.3877  155.1975 H   0  0  0  0  0  0  0  0  0  0  0  0  # atno 10764 bound_to 10752
  154.8712  135.3877  154.4449 H   0  0  0  0  0  0  0  0  0  0  0  0  # atno 10765 bound_to 10752
  140.8075  134.2784  157.4954 H   0  0  0  0  0  0  0  0  0  0  0  0  # atno 11005 bound_to 11000
  145.0987  139.2838  143.5697 LP  0  0  0  0  0  0  0  0  0  0  0  0  # atno 17320 bound_to 7965
  146.3530  140.0547  142.8633 LP  0  0  0  0  0  0  0  0  0  0  0  0  # atno 17321 bound_to 7965
  140.3789  144.2761  150.5911 LP  0  0  0  0  0  0  0  0  0  0  0  0  # atno 17342 bound_to 10162
  140.5251  143.2256  151.8327 LP  0  0  0  0  0  0  0  0  0  0  0  0  # atno 17343 bound_to 10162
  155.9693  130.4201  150.4408 LP  0  0  0  0  0  0  0  0  0  0  0  0  # atno 17370 bound_to 10713
  157.2437  131.0531  151.2421 LP  0  0  0  0  0  0  0  0  0  0  0  0  # atno 17371 bound_to 10713
  139.8716  134.9464  156.3938 LP  0  0  0  0  0  0  0  0  0  0  0  0  # atno 17394 bound_to 11000
  140.9232  133.7630  155.9932 LP  0  0  0  0  0  0  0  0  0  0  0  0  # atno 17395 bound_to 11000

$$$$
