AV-unprocessed.smi:21|AV-procd|sdf|156|dock10
  -GOLD-   2262015383D 1   1.00000     0.00000
 Structure written by MMmdl.
 61 64  0  0  0  0  0  0  0  0  1 V2000
  151.8437  145.6986  159.8900 C   0  0  0  0  0  0  0  0  0  0  0  0
  152.1212  144.3512  160.2364 O   0  0  0  0  0  0  0  0  0  0  0  0
  152.6001  143.5792  159.1437 C   0  0  2  0  0  0  0  0  0  0  0  0
  151.5006  143.3425  158.0950 C   0  0  0  0  0  0  0  0  0  0  0  0
  151.4982  141.8222  157.8787 C   0  0  2  0  0  0  0  0  0  0  0  0
  150.1546  141.2699  157.3487 C   0  0  0  0  0  0  0  0  0  0  0  0
  150.2111  140.8337  155.9525 N   0  0  0  0  0  0  0  0  0  0  0  0
  149.5683  141.6868  154.9568 C   0  0  0  0  0  0  0  0  0  0  0  0
  150.2990  139.4999  155.6943 C   0  0  0  0  0  0  0  0  0  0  0  0
  151.0000  139.0848  154.6040 N   0  0  0  0  0  0  0  0  0  0  0  0
  151.0693  137.7883  154.2912 C   0  0  0  0  0  0  0  0  0  0  0  0
  150.5221  136.7488  154.9214 N   0  0  0  0  0  0  0  0  0  0  0  0
  149.8339  137.1513  156.0271 C   0  0  0  0  0  0  0  0  0  0  0  0
  149.6798  138.4900  156.4892 C   0  0  0  0  0  0  0  0  0  0  0  0
  148.9326  138.4925  157.6628 N   0  0  0  0  0  0  0  0  0  0  0  0
  148.6422  137.2372  157.8669 C   0  0  0  0  0  0  0  0  0  0  0  0
  149.1338  136.3651  156.9239 N   0  0  0  0  0  0  0  0  0  0  0  0
  148.9564  134.9251  156.8886 C   0  0  0  0  0  0  0  0  0  0  0  0
  149.7478  134.2265  155.7505 C   0  0  2  0  0  0  0  0  0  0  0  0
  148.9425  134.1606  154.4270 C   0  0  0  0  0  0  0  0  0  0  0  0
  148.3006  135.3847  154.1349 O   0  0  0  0  0  0  0  0  0  0  0  0
  150.2043  132.8129  156.1965 C   0  0  2  0  0  0  0  0  0  0  0  0
  151.6174  132.7422  156.7526 C   0  0  0  0  0  0  0  0  0  0  0  0
  151.9327  131.2562  156.6442 C   0  0  0  0  0  0  0  0  0  0  0  0
  151.2813  130.8234  155.4576 O   0  0  0  0  0  0  0  0  0  0  0  0
  150.3001  131.7790  155.0653 C   0  0  0  0  0  0  0  0  0  0  0  0
  151.8947  141.2862  159.1711 N   0  0  0  0  0  0  0  0  0  0  0  0
  152.3158  139.8918  159.1310 C   0  0  0  0  0  0  0  0  0  0  0  0
  152.9596  142.1659  159.6179 C   0  0  0  0  0  0  0  0  0  0  0  0
  153.4836  144.0442  158.7020 H   0  0  0  0  0  0  0  0  0  0  0  0
  152.2830  141.5880  157.1569 H   0  0  0  0  0  0  0  0  0  0  0  0
  151.4474  146.2245  160.7583 H   0  0  0  0  0  0  0  0  0  0  0  0
  151.1048  145.7664  159.0909 H   0  0  0  0  0  0  0  0  0  0  0  0
  152.7493  146.2150  159.5691 H   0  0  0  0  0  0  0  0  0  0  0  0
  150.5341  143.6647  158.4863 H   0  0  0  0  0  0  0  0  0  0  0  0
  151.6874  143.8942  157.1734 H   0  0  0  0  0  0  0  0  0  0  0  0
  149.8626  140.3998  157.9357 H   0  0  0  0  0  0  0  0  0  0  0  0
  149.3650  141.9981  157.5168 H   0  0  0  0  0  0  0  0  0  0  0  0
  149.9921  141.5140  153.9667 H   0  0  0  0  0  0  0  0  0  0  0  0
  149.7145  142.7393  155.2006 H   0  0  0  0  0  0  0  0  0  0  0  0
  148.4953  141.4955  154.9145 H   0  0  0  0  0  0  0  0  0  0  0  0
  151.6403  137.5510  153.4058 H   0  0  0  0  0  0  0  0  0  0  0  0
  148.0485  136.9134  158.7092 H   0  0  0  0  0  0  0  0  0  0  0  0
  149.2613  134.5444  157.8631 H   0  0  0  0  0  0  0  0  0  0  0  0
  147.8915  134.7091  156.7930 H   0  0  0  0  0  0  0  0  0  0  0  0
  150.6522  134.8072  155.5613 H   0  0  0  0  0  0  0  0  0  0  0  0
  149.5909  133.9493  153.5781 H   0  0  0  0  0  0  0  0  0  0  0  0
  148.2036  133.3597  154.4627 H   0  0  0  0  0  0  0  0  0  0  0  0
  148.3651  135.5455  153.2057 H   0  0  0  0  0  0  0  0  0  0  0  0
  149.5185  132.4334  156.9561 H   0  0  0  0  0  0  0  0  0  0  0  0
  152.3033  133.3171  156.1283 H   0  0  0  0  0  0  0  0  0  0  0  0
  151.7000  133.1054  157.7772 H   0  0  0  0  0  0  0  0  0  0  0  0
  153.0035  131.0550  156.6101 H   0  0  0  0  0  0  0  0  0  0  0  0
  151.5107  130.7156  157.4923 H   0  0  0  0  0  0  0  0  0  0  0  0
  149.3459  131.2890  154.8694 H   0  0  0  0  0  0  0  0  0  0  0  0
  150.6351  132.2458  154.1380 H   0  0  0  0  0  0  0  0  0  0  0  0
  152.6565  139.5672  160.1146 H   0  0  0  0  0  0  0  0  0  0  0  0
  153.1334  139.7450  158.4239 H   0  0  0  0  0  0  0  0  0  0  0  0
  151.4923  139.2406  158.8394 H   0  0  0  0  0  0  0  0  0  0  0  0
  153.9017  141.8713  159.1522 H   0  0  0  0  0  0  0  0  0  0  0  0
  153.0985  142.1072  160.6979 H   0  0  0  0  0  0  0  0  0  0  0  0
  1  2  1  0  0  0  0
  1 32  1  0  0  0  0
  1 33  1  0  0  0  0
  1 34  1  0  0  0  0
  2  3  1  0  0  0  0
  3 30  1  0  0  0  0
  3 29  1  0  0  0  0
  3  4  1  0  0  0  0
  4  5  1  0  0  0  0
  4 35  1  0  0  0  0
  4 36  1  0  0  0  0
  5 31  1  0  0  0  0
  5  6  1  0  0  0  0
  5 27  1  0  0  0  0
  6  7  1  0  0  0  0
  6 37  1  0  0  0  0
  6 38  1  0  0  0  0
  7  8  1  0  0  0  0
  7  9  1  0  0  0  0
  8 39  1  0  0  0  0
  8 40  1  0  0  0  0
  8 41  1  0  0  0  0
  9 14  1  0  0  0  0
  9 10  2  0  0  0  0
 10 11  1  0  0  0  0
 11 12  2  0  0  0  0
 11 42  1  0  0  0  0
 12 13  1  0  0  0  0
 13 17  1  0  0  0  0
 13 14  2  0  0  0  0
 14 15  1  0  0  0  0
 15 16  2  0  0  0  0
 16 17  1  0  0  0  0
 16 43  1  0  0  0  0
 17 18  1  0  0  0  0
 18 19  1  0  0  0  0
 18 44  1  0  0  0  0
 18 45  1  0  0  0  0
 19 20  1  0  0  0  0
 19 22  1  0  0  0  0
 19 46  1  0  0  0  0
 20 21  1  0  0  0  0
 20 47  1  0  0  0  0
 20 48  1  0  0  0  0
 21 49  1  0  0  0  0
 22 26  1  0  0  0  0
 22 23  1  0  0  0  0
 22 50  1  0  0  0  0
 23 24  1  0  0  0  0
 23 51  1  0  0  0  0
 23 52  1  0  0  0  0
 24 25  1  0  0  0  0
 24 53  1  0  0  0  0
 24 54  1  0  0  0  0
 25 26  1  0  0  0  0
 26 55  1  0  0  0  0
 26 56  1  0  0  0  0
 27 28  1  0  0  0  0
 27 29  1  0  0  0  0
 28 57  1  0  0  0  0
 28 58  1  0  0  0  0
 28 59  1  0  0  0  0
 29 60  1  0  0  0  0
 29 61  1  0  0  0  0
M  END
> <s_m_source_file>
AV-unprocessed.smi

> <i_m_source_file_index>
21

> <i_lp_mmshare_version>
43012

> <i_f3d_flags>
0

> <s_epik_input>
W0NIM11PW0NASF0xW0NIMl1bQ0BIXShOKFtDSDNdKVtDSDJdMSlbQ0gyXU4oW0NIM10pYyhuW2NIXW4yKWMoYzIzKW5bY0hdbjNbQ0gyXVtDQEhdKFtDSDJdW09IXSlbQ0BASF00W0NIMl1bQ0gyXU9bQ0gyXTQ=

> <s_epik_cmdline>
J2VwaWtfcHl0aG9uJywgJy1waCcsICc3LjAnLCAnLXRuJywgJzgnLCAnLW1hJywgJzIwMCcsICctbWV0YWxfYmluZGluZycsICctaW1hZScsICc8aW5maWxlLm1hZT4nLCAnLW9tYWUnLCAnPG91dGZpbGUubWFlPic=

> <r_lp_tautomer_probability>
1

> <r_epik_Ionization_Penalty>
2.17574

> <r_epik_Ionization_Penalty_Charging>
0

> <r_epik_Ionization_Penalty_Neutral>
2.17574

> <r_epik_State_Penalty>
2.31336

> <r_epik_Charging_Adjusted_Penalty>
2.31336

> <i_epik_Tot_Q>
0

> <i_epik_Tot_abs_Q>
0

> <r_epik_Metal_State_Penalty>
2.31025

> <b_epik_Metal_Only>
0

> <s_lp_Force_Field>
OPLS_2005

> <r_lp_Energy>
68.7045

> <b_lp_Chiralities_Consistent>
1

> <s_lp_Variant>
AV-unprocessed.smi:21-36

> <Gold.Version>
5.8.1

> <Gold.Id.Protein>
6NUR|6NUR_protein|mol2

> <Gold.PLP.Fitness>
47.5790

> <Gold.PLP.PLP>
-44.8860

> <Gold.PLP.part.hbond>
-1.5376

> <Gold.PLP.part.metal>
0.0000

> <Gold.PLP.part.buried>
-4.7223

> <Gold.PLP.part.nonpolar>
-37.4824

> <Gold.PLP.part.repulsive>
0.3488

> <Gold.PLP.ligand.clash>
0.0000

> <Gold.PLP.ligand.torsion>
3.2027

> <Gold.PLP.Chemscore.Hbond>
1.7963

> <Gold.PLP.Chemscore.CHOScore>
1.0000

> <Gold.PLP.Chemscore.Metal>
0.0000

> <Gold.Chemscore.Hbonds>
donor molecule, donor type, donor heavy atom, donor atom, acceptor molecule, acceptor atom, score
      L1  H    21    49       P1  7948  1.00
      P1  H  7989  7998       L1    10  0.62
      L1  C    11    42       P1  7949  1.00

> <Gold.PLP.Chemscore.Internal.Correction>
0.7096

> <Gold.Rescore>
     Score         DG    S(hbond)    S(metal)    S(lipo)     H(rot)  DE(clash)    DE(int)     intcor
     10.71     -16.45       1.71        0.00     110.63       3.00       0.33       5.40       ----

> <Gold.Chemscore.Fitness>
10.7140

> <Gold.Chemscore.DG>
-16.4506

> <Gold.Chemscore.ZeroCoef>
-5.4800

> <Gold.Chemscore.Hbond>
1.7111

> <Gold.Chemscore.Metal>
0.0000

> <Gold.Chemscore.Lipo>
110.6284

> <Gold.Chemscore.Internal_Hbond>
0.0000

> <Gold.Chemscore.DEClash>
0.3321

> <Gold.Chemscore.DEInternal>
5.4045

> <Gold.Chemscore.Rot>
3.0031

> <Gold.Chemscore.Internal.Correction>
   9.000000E+99

> <Gold.Chemscore.Hbonds>
donor molecule, donor type, donor heavy atom, donor atom, acceptor molecule, acceptor atom, score
      L1  H    21    49       P1  7948  0.97
      P1  H  7989  7998       L1    10  0.39

> <Gold.Chemscore.Hbond.Weighted>
-5.7151

> <Gold.Chemscore.Metal.Weighted>
-0.0000

> <Gold.Chemscore.Lipo.Weighted>
-12.9435

> <Gold.Chemscore.Internal_Hbond.Weighted>
0.0000

> <Gold.Chemscore.DEClash.Weighted>
0.3321

> <Gold.Chemscore.DEInternal.Weighted>
5.4045

> <Gold.Chemscore.Rot.Weighted>
7.6880

> <Gold.Chemscore.Internal.Correction.Weighted>
   9.000000E+99

> <Gold.Protein.RotatedTorsions>
[ 6907 6896 6895 6894 ] final -107.47 input  -60.11 | X-H torsion
[ 7974 7965 7964 7962 ] final   76.47 input  175.53 | X-H torsion
[ 8008 7997 7996 7995 ] final   93.86 input   59.86 | X-H torsion
[ 10167 10162 10161 10158 ] final -132.29 input  -65.29 | X-H torsion
[ 10718 10713 10712 10709 ] final -125.41 input   66.30 | X-H torsion
[ 10763 10752 10751 10750 ] final   94.25 input  -60.55 | X-H torsion
[ 11005 11000 10999 10996 ] final  -66.59 input  -57.11 | X-H torsion

> <Gold.Protein.ActiveResidues>
 VAL166  LYS551  ARG553  GLY616  TRP617  ASP618  TYR619  PRO620  LYS621  CYS622 
 ASP623  PHE694  ASN695  SER759  ASP760  ASP761  ALA762  ILE779  LEU786  VAL792 
 PHE793  MET794  SER795  GLU796  ALA797  LYS798  CYS799  TRP800  GLU811  SER814 

> <Gold.Protein.RotatedAtoms>
  150.7446  133.9822  159.3579 H   0  0  0  0  0  0  0  0  0  0  0  0  # atno 6907 bound_to 6896
  151.7764  135.0771  160.0377 H   0  0  0  0  0  0  0  0  0  0  0  0  # atno 6908 bound_to 6896
  152.3304  133.5915  159.5842 H   0  0  0  0  0  0  0  0  0  0  0  0  # atno 6909 bound_to 6896
  145.7024  139.2587  143.1698 H   0  0  0  0  0  0  0  0  0  0  0  0  # atno 7974 bound_to 7965
  156.0514  140.3307  155.7356 H   0  0  0  0  0  0  0  0  0  0  0  0  # atno 8008 bound_to 7997
  155.5594  140.0617  157.2849 H   0  0  0  0  0  0  0  0  0  0  0  0  # atno 8009 bound_to 7997
  154.4438  140.1880  156.0756 H   0  0  0  0  0  0  0  0  0  0  0  0  # atno 8010 bound_to 7997
  139.9101  143.6504  152.2577 H   0  0  0  0  0  0  0  0  0  0  0  0  # atno 10167 bound_to 10162
  156.1673  130.6643  151.0132 H   0  0  0  0  0  0  0  0  0  0  0  0  # atno 10718 bound_to 10713
  153.2394  135.4296  155.0682 H   0  0  0  0  0  0  0  0  0  0  0  0  # atno 10763 bound_to 10752
  154.8334  135.3399  154.6671 H   0  0  0  0  0  0  0  0  0  0  0  0  # atno 10764 bound_to 10752
  153.7095  135.7023  153.5098 H   0  0  0  0  0  0  0  0  0  0  0  0  # atno 10765 bound_to 10752
  141.1486  133.6702  156.6163 H   0  0  0  0  0  0  0  0  0  0  0  0  # atno 11005 bound_to 11000
  146.0786  140.7789  142.9653 LP  0  0  0  0  0  0  0  0  0  0  0  0  # atno 17320 bound_to 7965
  144.6965  140.3454  143.7191 LP  0  0  0  0  0  0  0  0  0  0  0  0  # atno 17321 bound_to 7965
  139.6950  144.7642  151.1372 LP  0  0  0  0  0  0  0  0  0  0  0  0  # atno 17342 bound_to 10162
  140.7687  143.5536  150.9177 LP  0  0  0  0  0  0  0  0  0  0  0  0  # atno 17343 bound_to 10162
  157.6777  131.0846  150.7452 LP  0  0  0  0  0  0  0  0  0  0  0  0  # atno 17370 bound_to 10713
  156.7512  130.4769  149.5456 LP  0  0  0  0  0  0  0  0  0  0  0  0  # atno 17371 bound_to 10713
  140.3575  134.7716  157.4510 LP  0  0  0  0  0  0  0  0  0  0  0  0  # atno 17394 bound_to 11000
  140.0811  134.5729  155.8539 LP  0  0  0  0  0  0  0  0  0  0  0  0  # atno 17395 bound_to 11000

$$$$
