AV-unprocessed.smi:148|AV-procd|sdf|1209|dock10
  -GOLD-   2262018383D 1   1.00000     0.00000
 Structure written by MMmdl.
 63 67  0  0  0  0  0  0  0  0  1 V2000
  150.2301  132.9038  157.9207 O   0  0  0  0  0  0  0  0  0  0  0  0
  150.7343  133.4584  156.7237 C   0  0  0  0  0  0  0  0  0  0  0  0
  149.6228  133.5450  155.6512 C   0  0  1  0  0  0  0  0  0  0  0  0
  149.8709  134.7526  154.7124 C   0  0  0  0  0  0  0  0  0  0  0  0
  149.8849  136.0281  155.4062 N   0  0  0  0  0  0  0  0  0  0  0  0
  148.9617  136.4808  156.3226 C   0  0  0  0  0  0  0  0  0  0  0  0
  149.2017  137.6652  156.8157 N   0  0  0  0  0  0  0  0  0  0  0  0
  150.3746  138.0582  156.1845 C   0  0  0  0  0  0  0  0  0  0  0  0
  151.1841  139.2218  156.2446 C   0  0  0  0  0  0  0  0  0  0  0  0
  150.8800  140.2595  157.0534 N   0  0  0  0  0  0  0  0  0  0  0  0
  152.0680  140.6965  157.7894 C   0  0  0  0  0  0  0  0  0  0  0  0
  151.6961  141.6414  158.9358 C   0  0  0  0  0  0  0  0  0  0  0  0
  150.9002  142.8285  158.3909 C   0  0  0  0  0  0  0  0  0  0  0  0
  149.6720  142.3266  157.6196 C   0  0  0  0  0  0  0  0  0  0  0  0
  150.0398  141.3330  156.4839 C   0  0  2  0  0  0  0  0  0  0  0  0
  148.7449  140.8105  155.7667 C   0  0  1  0  0  0  0  0  0  0  0  0
  147.7360  141.8975  155.3511 C   0  0  0  0  0  0  0  0  0  0  0  0
  146.7993  141.2471  154.3268 C   0  0  0  0  0  0  0  0  0  0  0  0
  147.5280  140.0002  153.8130 C   0  0  0  0  0  0  0  0  0  0  0  0
  148.9256  140.0346  154.4407 C   0  0  1  0  0  0  0  0  0  0  0  0
  149.8024  140.7151  153.5621 O   0  0  0  0  0  0  0  0  0  0  0  0
  152.2948  139.2699  155.4622 N   0  0  0  0  0  0  0  0  0  0  0  0
  152.5872  138.2418  154.6596 C   0  0  0  0  0  0  0  0  0  0  0  0
  151.9232  137.0947  154.4956 N   0  0  0  0  0  0  0  0  0  0  0  0
  150.8137  137.0461  155.2880 C   0  0  0  0  0  0  0  0  0  0  0  0
  149.4054  132.2161  154.8738 C   0  0  2  0  0  0  0  0  0  0  0  0
  148.2857  132.2349  153.8313 C   0  0  0  0  0  0  0  0  0  0  0  0
  147.4491  130.9985  154.1591 C   0  0  0  0  0  0  0  0  0  0  0  0
  148.3470  130.1518  154.8577 O   0  0  0  0  0  0  0  0  0  0  0  0
  149.0877  130.9853  155.7330 C   0  0  0  0  0  0  0  0  0  0  0  0
  149.4034  132.4853  157.7347 H   0  0  0  0  0  0  0  0  0  0  0  0
  151.1503  134.4419  156.9420 H   0  0  0  0  0  0  0  0  0  0  0  0
  151.5621  132.8308  156.3972 H   0  0  0  0  0  0  0  0  0  0  0  0
  148.6862  133.7341  156.1782 H   0  0  0  0  0  0  0  0  0  0  0  0
  150.8254  134.6457  154.1961 H   0  0  0  0  0  0  0  0  0  0  0  0
  149.1044  134.7908  153.9375 H   0  0  0  0  0  0  0  0  0  0  0  0
  148.1036  135.8977  156.6235 H   0  0  0  0  0  0  0  0  0  0  0  0
  152.5981  139.8310  158.1911 H   0  0  0  0  0  0  0  0  0  0  0  0
  152.7540  141.2017  157.1076 H   0  0  0  0  0  0  0  0  0  0  0  0
  151.1039  141.1059  159.6790 H   0  0  0  0  0  0  0  0  0  0  0  0
  152.5962  141.9906  159.4422 H   0  0  0  0  0  0  0  0  0  0  0  0
  150.5914  143.4809  159.2080 H   0  0  0  0  0  0  0  0  0  0  0  0
  151.5311  143.4264  157.7321 H   0  0  0  0  0  0  0  0  0  0  0  0
  148.9833  141.8460  158.3160 H   0  0  0  0  0  0  0  0  0  0  0  0
  149.1521  143.1972  157.2211 H   0  0  0  0  0  0  0  0  0  0  0  0
  150.6485  141.8802  155.7634 H   0  0  0  0  0  0  0  0  0  0  0  0
  148.2203  140.1557  156.4653 H   0  0  0  0  0  0  0  0  0  0  0  0
  147.1817  142.3007  156.1994 H   0  0  0  0  0  0  0  0  0  0  0  0
  148.2608  142.7280  154.8763 H   0  0  0  0  0  0  0  0  0  0  0  0
  145.8557  140.9621  154.7938 H   0  0  0  0  0  0  0  0  0  0  0  0
  146.5675  141.9394  153.5171 H   0  0  0  0  0  0  0  0  0  0  0  0
  146.9994  139.1113  154.1602 H   0  0  0  0  0  0  0  0  0  0  0  0
  147.5540  139.9488  152.7238 H   0  0  0  0  0  0  0  0  0  0  0  0
  149.2909  139.0194  154.5795 H   0  0  0  0  0  0  0  0  0  0  0  0
  149.5661  140.4959  152.6739 H   0  0  0  0  0  0  0  0  0  0  0  0
  153.4795  138.3554  154.0619 H   0  0  0  0  0  0  0  0  0  0  0  0
  150.3120  131.9869  154.3131 H   0  0  0  0  0  0  0  0  0  0  0  0
  147.6829  133.1426  153.8385 H   0  0  0  0  0  0  0  0  0  0  0  0
  148.7133  132.1451  152.8317 H   0  0  0  0  0  0  0  0  0  0  0  0
  146.6158  131.2595  154.8133 H   0  0  0  0  0  0  0  0  0  0  0  0
  147.0465  130.5142  153.2694 H   0  0  0  0  0  0  0  0  0  0  0  0
  149.9855  130.4844  156.0956 H   0  0  0  0  0  0  0  0  0  0  0  0
  148.4650  131.2284  156.5937 H   0  0  0  0  0  0  0  0  0  0  0  0
  1  2  1  0  0  0  0
  1 31  1  0  0  0  0
  2  3  1  0  0  0  0
  2 32  1  0  0  0  0
  2 33  1  0  0  0  0
  3  4  1  0  0  0  0
  3 26  1  0  0  0  0
  3 34  1  0  0  0  0
  4  5  1  0  0  0  0
  4 35  1  0  0  0  0
  4 36  1  0  0  0  0
  5 25  1  0  0  0  0
  5  6  1  0  0  0  0
  6  7  2  0  0  0  0
  6 37  1  0  0  0  0
  7  8  1  0  0  0  0
  8 25  2  0  0  0  0
  8  9  1  0  0  0  0
  9 10  1  0  0  0  0
  9 22  2  0  0  0  0
 10 15  1  0  0  0  0
 10 11  1  0  0  0  0
 11 12  1  0  0  0  0
 11 38  1  0  0  0  0
 11 39  1  0  0  0  0
 12 13  1  0  0  0  0
 12 40  1  0  0  0  0
 12 41  1  0  0  0  0
 13 14  1  0  0  0  0
 13 42  1  0  0  0  0
 13 43  1  0  0  0  0
 14 15  1  0  0  0  0
 14 44  1  0  0  0  0
 14 45  1  0  0  0  0
 15 16  1  0  0  0  0
 15 46  1  0  0  0  0
 16 20  1  0  0  0  0
 16 17  1  0  0  0  0
 16 47  1  0  0  0  0
 17 18  1  0  0  0  0
 17 48  1  0  0  0  0
 17 49  1  0  0  0  0
 18 19  1  0  0  0  0
 18 50  1  0  0  0  0
 18 51  1  0  0  0  0
 19 20  1  0  0  0  0
 19 52  1  0  0  0  0
 19 53  1  0  0  0  0
 20 21  1  0  0  0  0
 20 54  1  0  0  0  0
 21 55  1  0  0  0  0
 22 23  1  0  0  0  0
 23 24  2  0  0  0  0
 23 56  1  0  0  0  0
 24 25  1  0  0  0  0
 26 30  1  0  0  0  0
 26 27  1  0  0  0  0
 26 57  1  0  0  0  0
 27 28  1  0  0  0  0
 27 58  1  0  0  0  0
 27 59  1  0  0  0  0
 28 29  1  0  0  0  0
 28 60  1  0  0  0  0
 28 61  1  0  0  0  0
 29 30  1  0  0  0  0
 30 62  1  0  0  0  0
 30 63  1  0  0  0  0
M  END
> <s_m_source_file>
AV-unprocessed.smi

> <i_m_source_file_index>
148

> <i_lp_mmshare_version>
43012

> <i_f3d_flags>
0

> <s_epik_input>
W0NIMl0xT1tDSDJdW0NIMl1bQ0BIXTFbQ0BIXShbQ0gyXVtPSF0pW0NIMl1uKFtjSF1uMiljKGMyMyluW2NIXW5jM040W0NIMl1bQ0gyXVtDSDJdW0NIMl1bQ0BIXTRbQ0BASF01W0NIMl1bQ0gyXVtDSDJdW0NASF01W09IXQ==

> <s_epik_cmdline>
J2VwaWtfcHl0aG9uJywgJy1waCcsICc3LjAnLCAnLXRuJywgJzgnLCAnLW1hJywgJzIwMCcsICctbWV0YWxfYmluZGluZycsICctaW1hZScsICc8aW5maWxlLm1hZT4nLCAnLW9tYWUnLCAnPG91dGZpbGUubWFlPic=

> <r_lp_tautomer_probability>
1

> <r_epik_Ionization_Penalty>
0.00556303

> <r_epik_Ionization_Penalty_Charging>
0

> <r_epik_Ionization_Penalty_Neutral>
0.00556303

> <r_epik_State_Penalty>
0.00401767

> <r_epik_Charging_Adjusted_Penalty>
0.00401767

> <i_epik_Tot_Q>
0

> <i_epik_Tot_abs_Q>
0

> <r_epik_Metal_State_Penalty>
-0

> <b_epik_Metal_Only>
0

> <s_lp_Force_Field>
OPLS_2005

> <r_lp_Energy>
71.0858

> <b_lp_Chiralities_Consistent>
1

> <s_lp_Variant>
AV-unprocessed.smi:148-8

> <Gold.Version>
5.8.1

> <Gold.Id.Protein>
6NUR|6NUR_protein|mol2

> <Gold.PLP.Fitness>
55.9399

> <Gold.PLP.PLP>
-45.9421

> <Gold.PLP.part.hbond>
-5.3690

> <Gold.PLP.part.metal>
0.0000

> <Gold.PLP.part.buried>
-6.0410

> <Gold.PLP.part.nonpolar>
-33.6772

> <Gold.PLP.part.repulsive>
0.1794

> <Gold.PLP.ligand.clash>
0.0000

> <Gold.PLP.ligand.torsion>
1.1193

> <Gold.PLP.Chemscore.Hbond>
3.8500

> <Gold.PLP.Chemscore.CHOScore>
0.0000

> <Gold.PLP.Chemscore.Metal>
0.0000

> <Gold.Chemscore.Hbonds>
donor molecule, donor type, donor heavy atom, donor atom, acceptor molecule, acceptor atom, score
      L1  H    21    55       P1  7957  1.00
      P1  H  6896  6907       L1     1  1.00
      P1  H  7989  7998       L1    21  0.42
      P1  H  7997  8009       L1    22  0.21
      P1  H 10752 10765       L1    24  1.00

> <Gold.PLP.Chemscore.Internal.Correction>
0.6864

> <Gold.Rescore>
     Score         DG    S(hbond)    S(metal)    S(lipo)     H(rot)  DE(clash)    DE(int)     intcor
     16.08     -18.50       2.88        0.00     101.62       3.32       0.73       1.70       ----

> <Gold.Chemscore.Fitness>
16.0757

> <Gold.Chemscore.DG>
-18.5032

> <Gold.Chemscore.ZeroCoef>
-5.4800

> <Gold.Chemscore.Hbond>
2.8843

> <Gold.Chemscore.Metal>
0.0000

> <Gold.Chemscore.Lipo>
101.6214

> <Gold.Chemscore.Internal_Hbond>
0.0000

> <Gold.Chemscore.DEClash>
0.7294

> <Gold.Chemscore.DEInternal>
1.6981

> <Gold.Chemscore.Rot>
3.3203

> <Gold.Chemscore.Internal.Correction>
   9.000000E+99

> <Gold.Chemscore.Hbonds>
donor molecule, donor type, donor heavy atom, donor atom, acceptor molecule, acceptor atom, score
      L1  H    21    55       P1  7957  0.97
      P1  H  6896  6907       L1     1  0.74
      P1  H  7989  7998       L1    21  0.15
      P1  H  7997  8009       L1    22  0.12
      P1  H 10752 10765       L1    24  0.85

> <Gold.Chemscore.Hbond.Weighted>
-9.6335

> <Gold.Chemscore.Metal.Weighted>
-0.0000

> <Gold.Chemscore.Lipo.Weighted>
-11.8897

> <Gold.Chemscore.Internal_Hbond.Weighted>
0.0000

> <Gold.Chemscore.DEClash.Weighted>
0.7294

> <Gold.Chemscore.DEInternal.Weighted>
1.6981

> <Gold.Chemscore.Rot.Weighted>
8.5000

> <Gold.Chemscore.Internal.Correction.Weighted>
   9.000000E+99

> <Gold.Protein.RotatedTorsions>
[ 6907 6896 6895 6894 ] final -146.32 input  -60.11 | X-H torsion
[ 7974 7965 7964 7962 ] final  134.89 input  175.53 | X-H torsion
[ 8008 7997 7996 7995 ] final -146.51 input   59.86 | X-H torsion
[ 10167 10162 10161 10158 ] final  -17.71 input  -65.29 | X-H torsion
[ 10718 10713 10712 10709 ] final   86.04 input   66.30 | X-H torsion
[ 10763 10752 10751 10750 ] final  163.47 input  -60.55 | X-H torsion
[ 11005 11000 10999 10996 ] final  -67.00 input  -57.11 | X-H torsion

> <Gold.Protein.ActiveResidues>
 VAL166  LYS551  ARG553  GLY616  TRP617  ASP618  TYR619  PRO620  LYS621  CYS622 
 ASP623  PHE694  ASN695  SER759  ASP760  ASP761  ALA762  ILE779  LEU786  VAL792 
 PHE793  MET794  SER795  GLU796  ALA797  LYS798  CYS799  TRP800  GLU811  SER814 

> <Gold.Protein.RotatedAtoms>
  151.1400  133.4977  159.2596 H   0  0  0  0  0  0  0  0  0  0  0  0  # atno 6907 bound_to 6896
  151.1665  135.0297  159.8743 H   0  0  0  0  0  0  0  0  0  0  0  0  # atno 6908 bound_to 6896
  152.5462  134.1268  159.8475 H   0  0  0  0  0  0  0  0  0  0  0  0  # atno 6909 bound_to 6896
  144.9718  139.4597  143.5429 H   0  0  0  0  0  0  0  0  0  0  0  0  # atno 7974 bound_to 7965
  155.5605  140.0625  157.2830 H   0  0  0  0  0  0  0  0  0  0  0  0  # atno 8008 bound_to 7997
  154.4392  140.1886  156.0823 H   0  0  0  0  0  0  0  0  0  0  0  0  # atno 8009 bound_to 7997
  156.0450  140.3291  155.7290 H   0  0  0  0  0  0  0  0  0  0  0  0  # atno 8010 bound_to 7997
  140.7250  143.4988  150.9896 H   0  0  0  0  0  0  0  0  0  0  0  0  # atno 10167 bound_to 10162
  157.6923  131.0199  150.2912 H   0  0  0  0  0  0  0  0  0  0  0  0  # atno 10718 bound_to 10713
  154.2942  135.2760  155.2641 H   0  0  0  0  0  0  0  0  0  0  0  0  # atno 10763 bound_to 10752
  154.5106  135.5783  153.6605 H   0  0  0  0  0  0  0  0  0  0  0  0  # atno 10764 bound_to 10752
  152.9910  135.6180  154.3108 H   0  0  0  0  0  0  0  0  0  0  0  0  # atno 10765 bound_to 10752
  141.1497  133.6710  156.6226 H   0  0  0  0  0  0  0  0  0  0  0  0  # atno 11005 bound_to 11000
  146.3384  139.8935  142.8805 LP  0  0  0  0  0  0  0  0  0  0  0  0  # atno 17320 bound_to 7965
  145.2548  141.0056  143.3860 LP  0  0  0  0  0  0  0  0  0  0  0  0  # atno 17321 bound_to 7965
  139.8696  143.7209  152.3167 LP  0  0  0  0  0  0  0  0  0  0  0  0  # atno 17342 bound_to 10162
  139.7453  144.7549  151.0589 LP  0  0  0  0  0  0  0  0  0  0  0  0  # atno 17343 bound_to 10162
  156.3443  130.3820  149.7382 LP  0  0  0  0  0  0  0  0  0  0  0  0  # atno 17370 bound_to 10713
  156.4881  130.8072  151.3083 LP  0  0  0  0  0  0  0  0  0  0  0  0  # atno 17371 bound_to 10713
  140.3528  134.7754  157.4479 LP  0  0  0  0  0  0  0  0  0  0  0  0  # atno 17394 bound_to 11000
  140.0847  134.5683  155.8505 LP  0  0  0  0  0  0  0  0  0  0  0  0  # atno 17395 bound_to 11000

$$$$
