AV-unprocessed.smi:2675|AV-procd|sdf|10360|dock8
  -GOLD-   2272014383D 1   1.00000     0.00000
 Structure written by MMmdl.
 37 38  0  0  0  0  0  0  0  0  2 V2000
  151.1596  145.2299  158.5107 C   0  0  0  0  0  0  0  0  0  0  0  0
  151.0315  143.7603  158.2864 C   0  0  0  0  0  0  0  0  0  0  0  0
  150.2371  143.2505  157.2938 N   0  3  0  0  0  0  0  0  0  0  0  0
  150.2845  141.9179  157.2923 C   0  0  0  0  0  0  0  0  0  0  0  0
  151.1077  141.5591  158.2838 N   0  0  0  0  0  0  0  0  0  0  0  0
  151.3804  140.1468  158.5864 C   0  0  0  0  0  0  0  0  0  0  0  0
  151.8279  139.4018  157.3295 C   0  0  0  0  0  0  0  0  0  0  0  0
  152.9985  139.4774  156.9608 O   0  0  0  0  0  0  0  0  0  0  0  0
  150.8895  138.6609  156.7152 N   0  0  0  0  0  0  0  0  0  0  0  0
  151.0438  137.7663  155.5608 C   0  0  1  0  0  0  0  0  0  0  0  0
  151.6657  138.6183  154.4423 C   0  0  0  0  0  0  0  0  0  0  0  0
  151.9706  136.6531  155.8462 C   0  0  0  0  0  0  0  0  0  0  0  0
  152.6962  135.7791  156.0677 N   0  0  0  0  0  0  0  0  0  0  0  0
  149.7385  137.1601  155.0395 C   0  0  0  0  0  0  0  0  0  0  0  0
  148.8971  136.2171  155.8713 C   0  0  0  0  0  0  0  0  0  0  0  0
  149.5805  135.7147  154.6190 C   0  0  0  0  0  0  0  0  0  0  0  0
  151.5934  142.6777  158.9254 C   0  0  0  0  0  0  0  0  0  0  0  0
  152.5376  142.6057  160.0823 C   0  0  0  0  0  0  0  0  0  0  0  0
  151.8051  145.4383  159.3635 H   0  0  0  0  0  0  0  0  0  0  0  0
  150.1803  145.6677  158.7056 H   0  0  0  0  0  0  0  0  0  0  0  0
  151.5866  145.7089  157.6293 H   0  0  0  0  0  0  0  0  0  0  0  0
  149.7551  141.2611  156.6250 H   0  0  0  0  0  0  0  0  0  0  0  0
  152.1453  140.0957  159.3631 H   0  0  0  0  0  0  0  0  0  0  0  0
  150.4780  139.6911  158.9947 H   0  0  0  0  0  0  0  0  0  0  0  0
  149.9606  138.6947  157.1091 H   0  0  0  0  0  0  0  0  0  0  0  0
  151.8413  138.0257  153.5435 H   0  0  0  0  0  0  0  0  0  0  0  0
  152.6261  139.0356  154.7483 H   0  0  0  0  0  0  0  0  0  0  0  0
  151.0161  139.4498  154.1653 H   0  0  0  0  0  0  0  0  0  0  0  0
  149.1743  137.8629  154.4284 H   0  0  0  0  0  0  0  0  0  0  0  0
  149.2917  135.8762  156.8261 H   0  0  0  0  0  0  0  0  0  0  0  0
  147.8176  136.3486  155.8371 H   0  0  0  0  0  0  0  0  0  0  0  0
  148.9527  135.5147  153.7531 H   0  0  0  0  0  0  0  0  0  0  0  0
  150.4107  135.0270  154.7505 H   0  0  0  0  0  0  0  0  0  0  0  0
  152.8244  143.6040  160.4114 H   0  0  0  0  0  0  0  0  0  0  0  0
  153.4427  142.0679  159.8006 H   0  0  0  0  0  0  0  0  0  0  0  0
  152.0699  142.0906  160.9215 H   0  0  0  0  0  0  0  0  0  0  0  0
  149.6872  143.8059  156.6505 H   0  0  0  0  0  0  0  0  0  0  0  0
  1  2  1  0  0  0  0
  1 19  1  0  0  0  0
  1 20  1  0  0  0  0
  1 21  1  0  0  0  0
  2 17  2  0  0  0  0
  2  3  1  0  0  0  0
  3  4  2  0  0  0  0
  3 37  1  0  0  0  0
  4  5  1  0  0  0  0
  4 22  1  0  0  0  0
  5  6  1  0  0  0  0
  5 17  1  0  0  0  0
  6  7  1  0  0  0  0
  6 23  1  0  0  0  0
  6 24  1  0  0  0  0
  7  8  2  0  0  0  0
  7  9  1  0  0  0  0
  9 10  1  0  0  0  0
  9 25  1  0  0  0  0
 10 11  1  0  0  0  0
 10 12  1  0  0  0  0
 10 14  1  0  0  0  0
 11 26  1  0  0  0  0
 11 27  1  0  0  0  0
 11 28  1  0  0  0  0
 12 13  3  0  0  0  0
 14 16  1  0  0  0  0
 14 15  1  0  0  0  0
 14 29  1  0  0  0  0
 15 16  1  0  0  0  0
 15 30  1  0  0  0  0
 15 31  1  0  0  0  0
 16 32  1  0  0  0  0
 16 33  1  0  0  0  0
 17 18  1  0  0  0  0
 18 34  1  0  0  0  0
 18 35  1  0  0  0  0
 18 36  1  0  0  0  0
M  CHG  1   3   1
M  END
> <s_m_source_file>
AV-unprocessed.smi

> <i_m_source_file_index>
2675

> <i_lp_mmshare_version>
43012

> <i_f3d_flags>
0

> <s_epik_input>
W0NIM11jMW5bY0hdbihjMVtDSDNdKVtDSDJdQyg9TylbTkhdW0NAQF0oW0NIM10pKEMjTilbQ0hdMltDSDJdW0NIMl0y

> <s_epik_cmdline>
J2VwaWtfcHl0aG9uJywgJy1waCcsICc3LjAnLCAnLXRuJywgJzgnLCAnLW1hJywgJzIwMCcsICctbWV0YWxfYmluZGluZycsICctaW1hZScsICc8aW5maWxlLm1hZT4nLCAnLW9tYWUnLCAnPG91dGZpbGUubWFlPic=

> <r_lp_tautomer_probability>
1

> <r_epik_Ionization_Penalty>
0.153253

> <r_epik_Ionization_Penalty_Charging>
0

> <r_epik_Ionization_Penalty_Neutral>
0.153253

> <r_epik_State_Penalty>
0.14254

> <r_epik_Charging_Adjusted_Penalty>
0.14254

> <i_epik_Tot_Q>
1

> <i_epik_Tot_abs_Q>
1

> <r_epik_Metal_State_Penalty>
0.466899

> <b_epik_Metal_Only>
0

> <s_lp_Force_Field>
OPLS_2005

> <r_lp_Energy>
18.2007

> <b_lp_Chiralities_Consistent>
1

> <s_lp_Variant>
AV-unprocessed.smi:2675-1

> <Gold.Version>
5.8.1

> <Gold.Id.Protein>
6NUR|6NUR_protein|mol2

> <Gold.PLP.Fitness>
42.8031

> <Gold.PLP.PLP>
-31.9716

> <Gold.PLP.part.hbond>
-3.0000

> <Gold.PLP.part.metal>
0.0000

> <Gold.PLP.part.buried>
-4.3565

> <Gold.PLP.part.nonpolar>
-24.5726

> <Gold.PLP.part.repulsive>
0.0047

> <Gold.PLP.ligand.clash>
0.0000

> <Gold.PLP.ligand.torsion>
1.3354

> <Gold.PLP.Chemscore.Hbond>
4.0000

> <Gold.PLP.Chemscore.CHOScore>
0.0000

> <Gold.PLP.Chemscore.Metal>
0.0000

> <Gold.Chemscore.Hbonds>
donor molecule, donor type, donor heavy atom, donor atom, acceptor molecule, acceptor atom, score
      L1  H     3    37       P1  8028  2.00
      P1  H  7997  8008       L1     8  1.00

> <Gold.PLP.Chemscore.Internal.Correction>
1.5022

> <Gold.Rescore>
     Score         DG    S(hbond)    S(metal)    S(lipo)     H(rot)  DE(clash)    DE(int)     intcor
     16.87     -18.88       2.95        0.00      69.72       1.80       0.02       1.99       ----

> <Gold.Chemscore.Fitness>
16.8663

> <Gold.Chemscore.DG>
-18.8789

> <Gold.Chemscore.ZeroCoef>
-5.4800

> <Gold.Chemscore.Hbond>
2.9455

> <Gold.Chemscore.Metal>
0.0000

> <Gold.Chemscore.Lipo>
69.7206

> <Gold.Chemscore.Internal_Hbond>
0.0000

> <Gold.Chemscore.DEClash>
0.0202

> <Gold.Chemscore.DEInternal>
1.9923

> <Gold.Chemscore.Rot>
1.7955

> <Gold.Chemscore.Internal.Correction>
   9.000000E+99

> <Gold.Chemscore.Hbonds>
donor molecule, donor type, donor heavy atom, donor atom, acceptor molecule, acceptor atom, score
      L1  H     3    37       P1  8028  0.96
      P1  H  7997  8008       L1     8  0.97
      P1  H 10752 10764       L1    13  0.04

> <Gold.Chemscore.Hbond.Weighted>
-9.8381

> <Gold.Chemscore.Metal.Weighted>
-0.0000

> <Gold.Chemscore.Lipo.Weighted>
-8.1573

> <Gold.Chemscore.Internal_Hbond.Weighted>
0.0000

> <Gold.Chemscore.DEClash.Weighted>
0.0202

> <Gold.Chemscore.DEInternal.Weighted>
1.9923

> <Gold.Chemscore.Rot.Weighted>
4.5965

> <Gold.Chemscore.Internal.Correction.Weighted>
   9.000000E+99

> <Gold.Protein.RotatedTorsions>
[ 6907 6896 6895 6894 ] final  -74.58 input  -60.11 | X-H torsion
[ 7974 7965 7964 7962 ] final -132.32 input  175.53 | X-H torsion
[ 8008 7997 7996 7995 ] final  -44.94 input   59.86 | X-H torsion
[ 10167 10162 10161 10158 ] final  159.44 input  -65.29 | X-H torsion
[ 10718 10713 10712 10709 ] final -130.50 input   66.30 | X-H torsion
[ 10763 10752 10751 10750 ] final  -22.00 input  -60.55 | X-H torsion
[ 11005 11000 10999 10996 ] final -141.70 input  -57.11 | X-H torsion

> <Gold.Protein.ActiveResidues>
 VAL166  LYS551  ARG553  GLY616  TRP617  ASP618  TYR619  PRO620  LYS621  CYS622 
 ASP623  PHE694  ASN695  SER759  ASP760  ASP761  ALA762  ILE779  LEU786  VAL792 
 PHE793  MET794  SER795  GLU796  ALA797  LYS798  CYS799  TRP800  GLU811  SER814 

> <Gold.Protein.RotatedAtoms>
  150.7088  134.4848  159.5487 H   0  0  0  0  0  0  0  0  0  0  0  0  # atno 6907 bound_to 6896
  152.2478  134.8161  160.0460 H   0  0  0  0  0  0  0  0  0  0  0  0  # atno 6908 bound_to 6896
  151.8919  133.3483  159.3838 H   0  0  0  0  0  0  0  0  0  0  0  0  # atno 6909 bound_to 6896
  144.9296  140.7113  143.4914 H   0  0  0  0  0  0  0  0  0  0  0  0  # atno 7974 bound_to 7965
  154.3999  140.1409  156.3766 H   0  0  0  0  0  0  0  0  0  0  0  0  # atno 8008 bound_to 7997
  155.8043  140.3475  155.5400 H   0  0  0  0  0  0  0  0  0  0  0  0  # atno 8009 bound_to 7997
  155.8451  140.0933  157.1700 H   0  0  0  0  0  0  0  0  0  0  0  0  # atno 8010 bound_to 7997
  139.4832  144.4729  151.8551 H   0  0  0  0  0  0  0  0  0  0  0  0  # atno 10167 bound_to 10162
  156.2151  130.6943  151.0693 H   0  0  0  0  0  0  0  0  0  0  0  0  # atno 10718 bound_to 10713
  153.6449  135.6983  153.5228 H   0  0  0  0  0  0  0  0  0  0  0  0  # atno 10763 bound_to 10752
  153.2752  135.4202  155.1026 H   0  0  0  0  0  0  0  0  0  0  0  0  # atno 10764 bound_to 10752
  154.8490  135.3588  154.5994 H   0  0  0  0  0  0  0  0  0  0  0  0  # atno 10765 bound_to 10752
  140.8298  134.2530  157.4862 H   0  0  0  0  0  0  0  0  0  0  0  0  # atno 11005 bound_to 11000
  145.3163  139.1802  143.4612 LP  0  0  0  0  0  0  0  0  0  0  0  0  # atno 17320 bound_to 7965
  146.3241  140.3174  142.8631 LP  0  0  0  0  0  0  0  0  0  0  0  0  # atno 17321 bound_to 7965
  140.4199  144.2257  150.5887 LP  0  0  0  0  0  0  0  0  0  0  0  0  # atno 17342 bound_to 10162
  140.4884  143.2355  151.8855 LP  0  0  0  0  0  0  0  0  0  0  0  0  # atno 17343 bound_to 10162
  157.7059  131.0756  150.6669 LP  0  0  0  0  0  0  0  0  0  0  0  0  # atno 17370 bound_to 10713
  156.6730  130.4545  149.5651 LP  0  0  0  0  0  0  0  0  0  0  0  0  # atno 17371 bound_to 10713
  139.8705  134.9580  156.4287 LP  0  0  0  0  0  0  0  0  0  0  0  0  # atno 17394 bound_to 11000
  140.9010  133.7780  155.9680 LP  0  0  0  0  0  0  0  0  0  0  0  0  # atno 17395 bound_to 11000

$$$$
