AV-unprocessed.smi:2252|AV-procd|sdf|9112|dock1
  -GOLD-   2272012313D 1   1.00000     0.00000
 Structure written by MMmdl.
 44 46  0  0  0  0  0  0  0  0  3 V2000
  151.9038  145.2238  158.7102 C   0  0  0  0  0  0  0  0  0  0  0  0
  152.0041  143.9043  159.3046 N   0  0  0  0  0  0  0  0  0  0  0  0
  152.7272  143.5821  160.4455 C   0  0  0  0  0  0  0  0  0  0  0  0
  152.5487  142.2372  160.6592 C   0  0  0  0  0  0  0  0  0  0  0  0
  151.7244  141.7183  159.6673 N   0  0  0  0  0  0  0  0  0  0  0  0
  151.4318  142.7559  158.8839 C   0  0  0  0  0  0  0  0  0  0  0  0
  150.5491  142.6667  157.6673 C   0  0  0  0  0  0  0  0  0  0  0  0
  151.1027  141.7652  156.5407 C   0  0  0  0  0  0  0  0  0  0  0  0
  150.6799  140.3814  156.7460 N   0  5  0  0  0  0  0  0  0  0  0  0
  149.9254  139.6756  155.8554 C   0  0  0  0  0  0  0  0  0  0  0  0
  149.0559  138.8198  156.0466 O   0  0  0  0  0  0  0  0  0  0  0  0
  150.2627  140.0547  154.4002 C   0  0  1  0  0  0  0  0  0  0  0  0
  151.0084  138.8885  153.7093 C   0  0  0  0  0  0  0  0  0  0  0  0
  151.7623  137.8608  154.5264 C   0  0  0  0  0  0  0  0  0  0  0  0
  152.5206  138.8375  153.6653 C   0  0  0  0  0  0  0  0  0  0  0  0
  149.0553  140.4759  153.6336 N   0  3  0  0  0  0  0  0  0  0  0  0
  148.0642  139.4109  153.3695 C   0  0  0  0  0  0  0  0  0  0  0  0
  146.7953  140.1559  152.9721 C   0  0  0  0  0  0  0  0  0  0  0  0
  146.8215  141.4003  153.8567 C   0  0  0  0  0  0  0  0  0  0  0  0
  148.3023  141.6200  154.2011 C   0  0  0  0  0  0  0  0  0  0  0  0
  152.5267  145.9316  159.2573 H   0  0  0  0  0  0  0  0  0  0  0  0
  150.8693  145.5659  158.7435 H   0  0  0  0  0  0  0  0  0  0  0  0
  152.2386  145.1898  157.6732 H   0  0  0  0  0  0  0  0  0  0  0  0
  153.2935  144.3173  160.9979 H   0  0  0  0  0  0  0  0  0  0  0  0
  152.9451  141.6088  161.4429 H   0  0  0  0  0  0  0  0  0  0  0  0
  149.5770  142.2913  157.9902 H   0  0  0  0  0  0  0  0  0  0  0  0
  150.3637  143.6709  157.2849 H   0  0  0  0  0  0  0  0  0  0  0  0
  150.7386  142.1381  155.5831 H   0  0  0  0  0  0  0  0  0  0  0  0
  152.1881  141.8625  156.4956 H   0  0  0  0  0  0  0  0  0  0  0  0
  150.9371  140.9123  154.4374 H   0  0  0  0  0  0  0  0  0  0  0  0
  150.4911  138.4930  152.8366 H   0  0  0  0  0  0  0  0  0  0  0  0
  151.8071  138.0031  155.6046 H   0  0  0  0  0  0  0  0  0  0  0  0
  151.7142  136.8257  154.1949 H   0  0  0  0  0  0  0  0  0  0  0  0
  152.9821  138.4557  152.7570 H   0  0  0  0  0  0  0  0  0  0  0  0
  153.0731  139.6254  154.1732 H   0  0  0  0  0  0  0  0  0  0  0  0
  148.3961  138.7225  152.5915 H   0  0  0  0  0  0  0  0  0  0  0  0
  147.8875  138.8363  154.2801 H   0  0  0  0  0  0  0  0  0  0  0  0
  146.8543  140.4473  151.9225 H   0  0  0  0  0  0  0  0  0  0  0  0
  145.8931  139.5581  153.1049 H   0  0  0  0  0  0  0  0  0  0  0  0
  146.3783  142.2639  153.3597 H   0  0  0  0  0  0  0  0  0  0  0  0
  146.2543  141.2189  154.7707 H   0  0  0  0  0  0  0  0  0  0  0  0
  148.4162  141.6644  155.2847 H   0  0  0  0  0  0  0  0  0  0  0  0
  148.6814  142.5543  153.7860 H   0  0  0  0  0  0  0  0  0  0  0  0
  149.3879  140.7731  152.7270 H   0  0  0  0  0  0  0  0  0  0  0  0
  1  2  1  0  0  0  0
  1 21  1  0  0  0  0
  1 22  1  0  0  0  0
  1 23  1  0  0  0  0
  2  6  1  0  0  0  0
  2  3  1  0  0  0  0
  3  4  2  0  0  0  0
  3 24  1  0  0  0  0
  4  5  1  0  0  0  0
  4 25  1  0  0  0  0
  5  6  2  0  0  0  0
  6  7  1  0  0  0  0
  7  8  1  0  0  0  0
  7 26  1  0  0  0  0
  7 27  1  0  0  0  0
  8  9  1  0  0  0  0
  8 28  1  0  0  0  0
  8 29  1  0  0  0  0
  9 10  1  0  0  0  0
 10 11  2  0  0  0  0
 10 12  1  0  0  0  0
 12 13  1  0  0  0  0
 12 16  1  0  0  0  0
 12 30  1  0  0  0  0
 13 15  1  0  0  0  0
 13 14  1  0  0  0  0
 13 31  1  0  0  0  0
 14 15  1  0  0  0  0
 14 32  1  0  0  0  0
 14 33  1  0  0  0  0
 15 34  1  0  0  0  0
 15 35  1  0  0  0  0
 16 20  1  0  0  0  0
 16 17  1  0  0  0  0
 16 44  1  0  0  0  0
 17 18  1  0  0  0  0
 17 36  1  0  0  0  0
 17 37  1  0  0  0  0
 18 19  1  0  0  0  0
 18 38  1  0  0  0  0
 18 39  1  0  0  0  0
 19 20  1  0  0  0  0
 19 40  1  0  0  0  0
 19 41  1  0  0  0  0
 20 42  1  0  0  0  0
 20 43  1  0  0  0  0
M  CHG  1   9  -1
M  CHG  1  16   1
M  END
> <s_m_source_file>
AV-unprocessed.smi

> <i_m_source_file_index>
2252

> <i_lp_mmshare_version>
43012

> <i_f3d_flags>
0

> <s_epik_input>
W0NIM11uMVtjSF1bY0hdbmMxW0NIMl1bQ0gyXVtOSF1DKD1PKVtDQEhdKFtDSF0yW0NIMl1bQ0gyXTIpTjNbQ0gyXVtDSDJdW0NIMl1bQ0gyXTM=

> <s_epik_cmdline>
J2VwaWtfcHl0aG9uJywgJy1waCcsICc3LjAnLCAnLXRuJywgJzgnLCAnLW1hJywgJzIwMCcsICctbWV0YWxfYmluZGluZycsICctaW1hZScsICc8aW5maWxlLm1hZT4nLCAnLW9tYWUnLCAnPG91dGZpbGUubWFlPic=

> <r_lp_tautomer_probability>
1

> <r_epik_Ionization_Penalty>
7.86289

> <r_epik_Ionization_Penalty_Charging>
7.86289

> <r_epik_Ionization_Penalty_Neutral>
4.79398e-13

> <r_epik_State_Penalty>
7.18546

> <r_epik_Charging_Adjusted_Penalty>
15.0484

> <i_epik_Tot_Q>
0

> <i_epik_Tot_abs_Q>
2

> <r_epik_Metal_State_Penalty>
3.4294

> <b_epik_Metal_Only>
1

> <s_lp_Force_Field>
OPLS_2005

> <r_lp_Energy>
30.1163

> <b_lp_Chiralities_Consistent>
1

> <s_lp_Variant>
AV-unprocessed.smi:2252-10

> <Gold.Version>
5.8.1

> <Gold.Id.Protein>
6NUR|6NUR_protein|mol2

> <Gold.PLP.Fitness>
45.9386

> <Gold.PLP.PLP>
-44.4840

> <Gold.PLP.part.hbond>
-1.4393

> <Gold.PLP.part.metal>
0.0000

> <Gold.PLP.part.buried>
-2.8000

> <Gold.PLP.part.nonpolar>
-39.4164

> <Gold.PLP.part.repulsive>
0.1511

> <Gold.PLP.ligand.clash>
0.0000

> <Gold.PLP.ligand.torsion>
1.5389

> <Gold.PLP.Chemscore.Hbond>
1.0000

> <Gold.PLP.Chemscore.CHOScore>
0.0000

> <Gold.PLP.Chemscore.Metal>
0.0000

> <Gold.Chemscore.Hbonds>
donor molecule, donor type, donor heavy atom, donor atom, acceptor molecule, acceptor atom, score
      L1  H    16    44       P1  7957  0.75

> <Gold.PLP.Chemscore.Internal.Correction>
1.5324

> <Gold.Rescore>
     Score         DG    S(hbond)    S(metal)    S(lipo)     H(rot)  DE(clash)    DE(int)     intcor
     14.62     -17.24       0.99        0.00     113.49       1.88       0.09       2.53       ----

> <Gold.Chemscore.Fitness>
14.6162

> <Gold.Chemscore.DG>
-17.2418

> <Gold.Chemscore.ZeroCoef>
-5.4800

> <Gold.Chemscore.Hbond>
0.9881

> <Gold.Chemscore.Metal>
0.0000

> <Gold.Chemscore.Lipo>
113.4852

> <Gold.Chemscore.Internal_Hbond>
0.0000

> <Gold.Chemscore.DEClash>
0.0927

> <Gold.Chemscore.DEInternal>
2.5329

> <Gold.Chemscore.Rot>
1.8814

> <Gold.Chemscore.Internal.Correction>
   9.000000E+99

> <Gold.Chemscore.Hbonds>
donor molecule, donor type, donor heavy atom, donor atom, acceptor molecule, acceptor atom, score
      L1  H    16    44       P1  7957  0.74

> <Gold.Chemscore.Hbond.Weighted>
-3.3003

> <Gold.Chemscore.Metal.Weighted>
-0.0000

> <Gold.Chemscore.Lipo.Weighted>
-13.2778

> <Gold.Chemscore.Internal_Hbond.Weighted>
0.0000

> <Gold.Chemscore.DEClash.Weighted>
0.0927

> <Gold.Chemscore.DEInternal.Weighted>
2.5329

> <Gold.Chemscore.Rot.Weighted>
4.8163

> <Gold.Chemscore.Internal.Correction.Weighted>
   9.000000E+99

> <Gold.Protein.RotatedTorsions>
[ 6907 6896 6895 6894 ] final  -56.87 input  -60.11 | X-H torsion
[ 7974 7965 7964 7962 ] final   59.62 input  175.53 | X-H torsion
[ 8008 7997 7996 7995 ] final  108.48 input   59.86 | X-H torsion
[ 10167 10162 10161 10158 ] final    5.93 input  -65.29 | X-H torsion
[ 10718 10713 10712 10709 ] final -141.14 input   66.30 | X-H torsion
[ 10763 10752 10751 10750 ] final -159.32 input  -60.55 | X-H torsion
[ 11005 11000 10999 10996 ] final -171.33 input  -57.11 | X-H torsion

> <Gold.Protein.ActiveResidues>
 VAL166  LYS551  ARG553  GLY616  TRP617  ASP618  TYR619  PRO620  LYS621  CYS622 
 ASP623  PHE694  ASN695  SER759  ASP760  ASP761  ALA762  ILE779  LEU786  VAL792 
 PHE793  MET794  SER795  GLU796  ALA797  LYS798  CYS799  TRP800  GLU811  SER814 

> <Gold.Protein.RotatedAtoms>
  150.8132  134.7299  159.6706 H   0  0  0  0  0  0  0  0  0  0  0  0  # atno 6907 bound_to 6896
  152.4251  134.5879  159.9976 H   0  0  0  0  0  0  0  0  0  0  0  0  # atno 6908 bound_to 6896
  151.6083  133.3312  159.3098 H   0  0  0  0  0  0  0  0  0  0  0  0  # atno 6909 bound_to 6896
  145.9052  139.3611  143.0569 H   0  0  0  0  0  0  0  0  0  0  0  0  # atno 7974 bound_to 7965
  156.1906  140.3075  155.9325 H   0  0  0  0  0  0  0  0  0  0  0  0  # atno 8008 bound_to 7997
  155.3181  140.0454  157.3055 H   0  0  0  0  0  0  0  0  0  0  0  0  # atno 8009 bound_to 7997
  154.5448  140.2273  155.8591 H   0  0  0  0  0  0  0  0  0  0  0  0  # atno 8010 bound_to 7997
  140.6456  143.7671  150.7493 H   0  0  0  0  0  0  0  0  0  0  0  0  # atno 10167 bound_to 10162
  156.3305  130.7583  151.1700 H   0  0  0  0  0  0  0  0  0  0  0  0  # atno 10718 bound_to 10713
  154.7484  135.3086  154.8602 H   0  0  0  0  0  0  0  0  0  0  0  0  # atno 10763 bound_to 10752
  153.9396  135.6776  153.4748 H   0  0  0  0  0  0  0  0  0  0  0  0  # atno 10764 bound_to 10752
  153.1081  135.4879  154.8913 H   0  0  0  0  0  0  0  0  0  0  0  0  # atno 10765 bound_to 10752
  140.5095  134.5815  157.5014 H   0  0  0  0  0  0  0  0  0  0  0  0  # atno 11005 bound_to 11000
  145.8741  140.9402  143.0635 LP  0  0  0  0  0  0  0  0  0  0  0  0  # atno 17320 bound_to 7965
  144.6739  140.0694  143.7473 LP  0  0  0  0  0  0  0  0  0  0  0  0  # atno 17321 bound_to 7965
  140.1311  143.4525  152.2253 LP  0  0  0  0  0  0  0  0  0  0  0  0  # atno 17342 bound_to 10162
  139.5666  144.7439  151.4005 LP  0  0  0  0  0  0  0  0  0  0  0  0  # atno 17343 bound_to 10162
  157.7429  131.0482  150.4985 LP  0  0  0  0  0  0  0  0  0  0  0  0  # atno 17370 bound_to 10713
  156.5150  130.4148  149.6280 LP  0  0  0  0  0  0  0  0  0  0  0  0  # atno 17371 bound_to 10713
  139.9667  134.7361  156.0124 LP  0  0  0  0  0  0  0  0  0  0  0  0  # atno 17394 bound_to 11000
  141.1393  133.6568  156.3684 LP  0  0  0  0  0  0  0  0  0  0  0  0  # atno 17395 bound_to 11000

$$$$
