AV-unprocessed.smi:1244|AV-procd|sdf|5238|dock3
  -GOLD-   22720 4343D 1   1.00000     0.00000
 Structure written by MMmdl.
 55 57  0  0  0  0  0  0  0  0  4 V2000
  151.9361  142.6795  158.8042 C   0  0  0  0  0  0  0  0  0  0  0  0
  151.5941  141.4860  157.9054 C   0  0  1  0  0  0  0  0  0  0  0  0
  151.7634  140.1447  158.6410 C   0  0  0  0  0  0  0  0  0  0  0  0
  151.3363  139.0207  157.7751 N   0  3  1  0  0  0  0  0  0  0  0  0
  151.5931  137.6895  158.3867 C   0  0  0  0  0  0  0  0  0  0  0  0
  150.8829  137.5264  159.7461 C   0  0  0  0  0  0  0  0  0  0  0  0
  150.0140  136.3505  159.7154 N   0  5  0  0  0  0  0  0  0  0  0  0
  148.8783  136.2013  160.4481 C   0  0  0  0  0  0  0  0  0  0  0  0
  148.0593  137.0736  160.7584 O   0  0  0  0  0  0  0  0  0  0  0  0
  148.7099  134.9313  160.8547 N   0  0  0  0  0  0  0  0  0  0  0  0
  147.6770  134.3658  161.6553 C   0  0  0  0  0  0  0  0  0  0  0  0
  146.3846  134.9477  161.7121 C   0  0  0  0  0  0  0  0  0  0  0  0
  145.3900  134.3763  162.5272 C   0  0  0  0  0  0  0  0  0  0  0  0
  145.6993  133.2243  163.2693 C   0  0  0  0  0  0  0  0  0  0  0  0
  146.9294  132.6793  163.1750 N   0  3  0  0  0  0  0  0  0  0  0  0
  147.9257  133.1735  162.3973 C   0  0  0  0  0  0  0  0  0  0  0  0
  149.1575  132.4776  162.3946 N   0  0  0  0  0  0  0  0  0  0  0  0
  149.5047  131.5839  163.4932 C   0  0  0  0  0  0  0  0  0  0  0  0
  150.7133  130.7950  162.9969 C   0  0  0  0  0  0  0  0  0  0  0  0
  150.4169  130.6422  161.5084 C   0  0  0  0  0  0  0  0  0  0  0  0
  149.6938  131.9436  161.1463 C   0  0  0  0  0  0  0  0  0  0  0  0
  149.9306  139.2228  157.3356 C   0  0  0  0  0  0  0  0  0  0  0  0
  149.7605  140.5853  156.6372 C   0  0  2  0  0  0  0  0  0  0  0  0
  150.3817  140.6357  155.2296 C   0  0  0  0  0  0  0  0  0  0  0  0
  150.2412  141.6321  157.4807 O   0  0  0  0  0  0  0  0  0  0  0  0
  152.9686  142.6279  159.1501 H   0  0  0  0  0  0  0  0  0  0  0  0
  151.2902  142.7105  159.6821 H   0  0  0  0  0  0  0  0  0  0  0  0
  151.8127  143.6201  158.2668 H   0  0  0  0  0  0  0  0  0  0  0  0
  152.2563  141.5150  157.0399 H   0  0  0  0  0  0  0  0  0  0  0  0
  152.8097  140.0165  158.9222 H   0  0  0  0  0  0  0  0  0  0  0  0
  151.1790  140.1361  159.5626 H   0  0  0  0  0  0  0  0  0  0  0  0
  151.2249  136.9074  157.7207 H   0  0  0  0  0  0  0  0  0  0  0  0
  152.6672  137.5216  158.4814 H   0  0  0  0  0  0  0  0  0  0  0  0
  151.6354  137.4322  160.5291 H   0  0  0  0  0  0  0  0  0  0  0  0
  150.3404  138.4441  159.9780 H   0  0  0  0  0  0  0  0  0  0  0  0
  149.4781  134.3130  160.6406 H   0  0  0  0  0  0  0  0  0  0  0  0
  146.1359  135.8253  161.1351 H   0  0  0  0  0  0  0  0  0  0  0  0
  144.4054  134.8171  162.5814 H   0  0  0  0  0  0  0  0  0  0  0  0
  145.0037  132.7190  163.9231 H   0  0  0  0  0  0  0  0  0  0  0  0
  149.7290  132.1382  164.4048 H   0  0  0  0  0  0  0  0  0  0  0  0
  148.6798  130.9005  163.6981 H   0  0  0  0  0  0  0  0  0  0  0  0
  151.6242  131.3787  163.1367 H   0  0  0  0  0  0  0  0  0  0  0  0
  150.8384  129.8405  163.5089 H   0  0  0  0  0  0  0  0  0  0  0  0
  151.3128  130.4753  160.9101 H   0  0  0  0  0  0  0  0  0  0  0  0
  149.7470  129.7954  161.3537 H   0  0  0  0  0  0  0  0  0  0  0  0
  148.9143  131.7694  160.4034 H   0  0  0  0  0  0  0  0  0  0  0  0
  150.4039  132.6616  160.7355 H   0  0  0  0  0  0  0  0  0  0  0  0
  149.6147  138.4229  156.6652 H   0  0  0  0  0  0  0  0  0  0  0  0
  149.2759  139.1756  158.2073 H   0  0  0  0  0  0  0  0  0  0  0  0
  148.6917  140.7641  156.5154 H   0  0  0  0  0  0  0  0  0  0  0  0
  149.9017  139.9125  154.5698 H   0  0  0  0  0  0  0  0  0  0  0  0
  151.4470  140.4065  155.2375 H   0  0  0  0  0  0  0  0  0  0  0  0
  150.2543  141.6223  154.7837 H   0  0  0  0  0  0  0  0  0  0  0  0
  151.9175  139.0635  156.9500 H   0  0  0  0  0  0  0  0  0  0  0  0
  147.1201  131.8364  163.7166 H   0  0  0  0  0  0  0  0  0  0  0  0
  1  2  1  0  0  0  0
  1 26  1  0  0  0  0
  1 27  1  0  0  0  0
  1 28  1  0  0  0  0
  2 25  1  0  0  0  0
  2  3  1  0  0  0  0
  2 29  1  0  0  0  0
  3  4  1  0  0  0  0
  3 30  1  0  0  0  0
  3 31  1  0  0  0  0
  4  5  1  0  0  0  0
  4 22  1  0  0  0  0
  4 54  1  0  0  0  0
  5  6  1  0  0  0  0
  5 32  1  0  0  0  0
  5 33  1  0  0  0  0
  6  7  1  0  0  0  0
  6 34  1  0  0  0  0
  6 35  1  0  0  0  0
  7  8  1  0  0  0  0
  8  9  2  0  0  0  0
  8 10  1  0  0  0  0
 10 11  1  0  0  0  0
 10 36  1  0  0  0  0
 11 16  1  0  0  0  0
 11 12  2  0  0  0  0
 12 13  1  0  0  0  0
 12 37  1  0  0  0  0
 13 14  2  0  0  0  0
 13 38  1  0  0  0  0
 14 15  1  0  0  0  0
 14 39  1  0  0  0  0
 15 16  2  0  0  0  0
 15 55  1  0  0  0  0
 16 17  1  0  0  0  0
 17 21  1  0  0  0  0
 17 18  1  0  0  0  0
 18 19  1  0  0  0  0
 18 40  1  0  0  0  0
 18 41  1  0  0  0  0
 19 20  1  0  0  0  0
 19 42  1  0  0  0  0
 19 43  1  0  0  0  0
 20 21  1  0  0  0  0
 20 44  1  0  0  0  0
 20 45  1  0  0  0  0
 21 46  1  0  0  0  0
 21 47  1  0  0  0  0
 22 23  1  0  0  0  0
 22 48  1  0  0  0  0
 22 49  1  0  0  0  0
 23 24  1  0  0  0  0
 23 25  1  0  0  0  0
 23 50  1  0  0  0  0
 24 51  1  0  0  0  0
 24 52  1  0  0  0  0
 24 53  1  0  0  0  0
M  CHG  1   4   1
M  CHG  1   7  -1
M  CHG  1  15   1
M  END
> <s_m_source_file>
AV-unprocessed.smi

> <i_m_source_file_index>
1244

> <i_lp_mmshare_version>
43012

> <i_f3d_flags>
0

> <s_epik_input>
W0NIM11bQ0BASF0xW0NIMl1OKFtDSDJdW0NASF0oTzEpW0NIM10pW0NIMl1bQ0gyXVtOSF1DKD1PKVtOSF1jMltjSF1bY0hdW2NIXW5jMk4zW0NIMl1bQ0gyXVtDSDJdW0NIMl0z

> <s_epik_cmdline>
J2VwaWtfcHl0aG9uJywgJy1waCcsICc3LjAnLCAnLXRuJywgJzgnLCAnLW1hJywgJzIwMCcsICctbWV0YWxfYmluZGluZycsICctaW1hZScsICc8aW5maWxlLm1hZT4nLCAnLW9tYWUnLCAnPG91dGZpbGUubWFlPic=

> <r_lp_tautomer_probability>
0.999994

> <r_epik_Ionization_Penalty>
8.60539

> <r_epik_Ionization_Penalty_Charging>
8.60539

> <r_epik_Ionization_Penalty_Neutral>
3.60441e-06

> <r_epik_State_Penalty>
8.59967

> <r_epik_Charging_Adjusted_Penalty>
17.2051

> <i_epik_Tot_Q>
1

> <i_epik_Tot_abs_Q>
3

> <r_epik_Metal_State_Penalty>
4.59489

> <b_epik_Metal_Only>
1

> <s_lp_Force_Field>
OPLS_2005

> <r_lp_Energy>
46.9431

> <b_lp_Chiralities_Consistent>
1

> <s_lp_Variant>
AV-unprocessed.smi:1244-18

> <Gold.Version>
5.8.1

> <Gold.Id.Protein>
6NUR|6NUR_protein|mol2

> <Gold.PLP.Fitness>
45.2756

> <Gold.PLP.PLP>
-36.7202

> <Gold.PLP.part.hbond>
-3.0000

> <Gold.PLP.part.metal>
0.0000

> <Gold.PLP.part.buried>
-4.9836

> <Gold.PLP.part.nonpolar>
-29.3252

> <Gold.PLP.part.repulsive>
0.2517

> <Gold.PLP.ligand.clash>
0.0000

> <Gold.PLP.ligand.torsion>
1.6246

> <Gold.PLP.Chemscore.Hbond>
3.5680

> <Gold.PLP.Chemscore.CHOScore>
0.0000

> <Gold.PLP.Chemscore.Metal>
0.0000

> <Gold.Chemscore.Hbonds>
donor molecule, donor type, donor heavy atom, donor atom, acceptor molecule, acceptor atom, score
      P1  H  6896  6909       L1     7  1.63
      P1  H  6931  6943       L1     9  0.91
      P1  H  6934  6947       L1     9  0.55

> <Gold.PLP.Chemscore.Internal.Correction>
1.1006

> <Gold.Rescore>
     Score         DG    S(hbond)    S(metal)    S(lipo)     H(rot)  DE(clash)    DE(int)     intcor
     15.18     -18.54       1.73        0.00      93.22       1.42       0.26       3.10       ----

> <Gold.Chemscore.Fitness>
15.1829

> <Gold.Chemscore.DG>
-18.5432

> <Gold.Chemscore.ZeroCoef>
-5.4800

> <Gold.Chemscore.Hbond>
1.7330

> <Gold.Chemscore.Metal>
0.0000

> <Gold.Chemscore.Lipo>
93.2171

> <Gold.Chemscore.Internal_Hbond>
0.0000

> <Gold.Chemscore.DEClash>
0.2583

> <Gold.Chemscore.DEInternal>
3.1021

> <Gold.Chemscore.Rot>
1.4185

> <Gold.Chemscore.Internal.Correction>
   9.000000E+99

> <Gold.Chemscore.Hbonds>
donor molecule, donor type, donor heavy atom, donor atom, acceptor molecule, acceptor atom, score
      P1  H  6896  6909       L1     7  0.40
      P1  H  6931  6943       L1     9  0.39
      P1  H  6934  6947       L1     9  0.55

> <Gold.Chemscore.Hbond.Weighted>
-5.7881

> <Gold.Chemscore.Metal.Weighted>
-0.0000

> <Gold.Chemscore.Lipo.Weighted>
-10.9064

> <Gold.Chemscore.Internal_Hbond.Weighted>
0.0000

> <Gold.Chemscore.DEClash.Weighted>
0.2583

> <Gold.Chemscore.DEInternal.Weighted>
3.1021

> <Gold.Chemscore.Rot.Weighted>
3.6313

> <Gold.Chemscore.Internal.Correction.Weighted>
   9.000000E+99

> <Gold.Protein.RotatedTorsions>
[ 6907 6896 6895 6894 ] final   55.48 input  -60.11 | X-H torsion
[ 7974 7965 7964 7962 ] final -112.25 input  175.53 | X-H torsion
[ 8008 7997 7996 7995 ] final   47.94 input   59.86 | X-H torsion
[ 10167 10162 10161 10158 ] final -135.05 input  -65.29 | X-H torsion
[ 10718 10713 10712 10709 ] final  145.61 input   66.30 | X-H torsion
[ 10763 10752 10751 10750 ] final    9.05 input  -60.55 | X-H torsion
[ 11005 11000 10999 10996 ] final  -20.96 input  -57.11 | X-H torsion

> <Gold.Protein.ActiveResidues>
 VAL166  LYS551  ARG553  GLY616  TRP617  ASP618  TYR619  PRO620  LYS621  CYS622 
 ASP623  PHE694  ASN695  SER759  ASP760  ASP761  ALA762  ILE779  LEU786  VAL792 
 PHE793  MET794  SER795  GLU796  ALA797  LYS798  CYS799  TRP800  GLU811  SER814 

> <Gold.Protein.RotatedAtoms>
  152.3543  134.6962  160.0226 H   0  0  0  0  0  0  0  0  0  0  0  0  # atno 6907 bound_to 6896
  151.7306  133.3312  159.3347 H   0  0  0  0  0  0  0  0  0  0  0  0  # atno 6908 bound_to 6896
  150.7561  134.6301  159.6226 H   0  0  0  0  0  0  0  0  0  0  0  0  # atno 6909 bound_to 6896
  145.1463  140.8805  143.3672 H   0  0  0  0  0  0  0  0  0  0  0  0  # atno 7974 bound_to 7965
  155.3775  140.3427  155.4245 H   0  0  0  0  0  0  0  0  0  0  0  0  # atno 8008 bound_to 7997
  156.1629  140.1606  156.8615 H   0  0  0  0  0  0  0  0  0  0  0  0  # atno 8009 bound_to 7997
  154.5157  140.0779  156.8058 H   0  0  0  0  0  0  0  0  0  0  0  0  # atno 8010 bound_to 7997
  139.8818  143.6830  152.2626 H   0  0  0  0  0  0  0  0  0  0  0  0  # atno 10167 bound_to 10162
  157.3432  131.0939  151.1064 H   0  0  0  0  0  0  0  0  0  0  0  0  # atno 10718 bound_to 10713
  153.2183  135.6878  153.8030 H   0  0  0  0  0  0  0  0  0  0  0  0  # atno 10763 bound_to 10752
  153.7238  135.3263  155.3273 H   0  0  0  0  0  0  0  0  0  0  0  0  # atno 10764 bound_to 10752
  154.8257  135.4619  154.1020 H   0  0  0  0  0  0  0  0  0  0  0  0  # atno 10765 bound_to 10752
  140.8515  133.7853  155.9972 H   0  0  0  0  0  0  0  0  0  0  0  0  # atno 11005 bound_to 11000
  145.0478  139.3206  143.5944 LP  0  0  0  0  0  0  0  0  0  0  0  0  # atno 17320 bound_to 7965
  146.3499  139.9875  142.8689 LP  0  0  0  0  0  0  0  0  0  0  0  0  # atno 17321 bound_to 7965
  139.7189  144.7606  151.0988 LP  0  0  0  0  0  0  0  0  0  0  0  0  # atno 17342 bound_to 10162
  140.7743  143.5233  150.9510 LP  0  0  0  0  0  0  0  0  0  0  0  0  # atno 17343 bound_to 10162
  157.2268  130.6507  149.5833 LP  0  0  0  0  0  0  0  0  0  0  0  0  # atno 17370 bound_to 10713
  155.9710  130.4611  150.6098 LP  0  0  0  0  0  0  0  0  0  0  0  0  # atno 17371 bound_to 10713
  140.8784  134.2641  157.5156 LP  0  0  0  0  0  0  0  0  0  0  0  0  # atno 17394 bound_to 11000
  139.8704  134.9603  156.4359 LP  0  0  0  0  0  0  0  0  0  0  0  0  # atno 17395 bound_to 11000

$$$$
