AV-unprocessed.smi:510|AV-procd|sdf|2763|dock5
  -GOLD-   2262023223D 1   1.00000     0.00000
 Structure written by MMmdl.
 29 30  0  0  0  0  0  0  0  0  2 V2000
  152.0100  144.4359  160.6305 C   0  0  0  0  0  0  0  0  0  0  0  0
  151.8341  144.4745  159.2254 O   0  0  0  0  0  0  0  0  0  0  0  0
  152.0137  143.2044  158.6222 C   0  0  0  0  0  0  0  0  0  0  0  0
  150.6386  142.6245  158.2703 C   0  0  0  0  0  0  0  0  0  0  0  0
  150.7352  141.6004  157.2358 N   0  0  0  0  0  0  0  0  0  0  0  0
  150.1318  141.5950  156.0212 C   0  0  0  0  0  0  0  0  0  0  0  0
  149.3011  142.6376  155.6361 N   0  0  0  0  0  0  0  0  0  0  0  0
  150.3963  140.5322  155.2614 N   0  0  0  0  0  0  0  0  0  0  0  0
  151.2403  139.7868  156.0736 C   0  0  0  0  0  0  0  0  0  0  0  0
  151.4522  140.4021  157.2678 C   0  0  0  0  0  0  0  0  0  0  0  0
  152.2917  139.8404  158.3462 C   0  0  0  0  0  0  0  0  0  0  0  0
  152.4333  140.4339  159.4134 O   0  0  0  0  0  0  0  0  0  0  0  0
  152.8427  138.6353  157.9944 N   0  5  0  0  0  0  0  0  0  0  0  0
  152.6616  137.9783  156.7953 C   0  0  0  0  0  0  0  0  0  0  0  0
  153.1994  136.8943  156.5676 O   0  0  0  0  0  0  0  0  0  0  0  0
  151.8656  138.5362  155.8267 N   0  0  0  0  0  0  0  0  0  0  0  0
  151.6223  137.9034  154.5269 C   0  0  0  0  0  0  0  0  0  0  0  0
  151.8617  145.4325  161.0461 H   0  0  0  0  0  0  0  0  0  0  0  0
  153.0167  144.1078  160.8923 H   0  0  0  0  0  0  0  0  0  0  0  0
  151.2896  143.7647  161.0997 H   0  0  0  0  0  0  0  0  0  0  0  0
  152.6259  143.2986  157.7239 H   0  0  0  0  0  0  0  0  0  0  0  0
  152.5366  142.5374  159.3095 H   0  0  0  0  0  0  0  0  0  0  0  0
  150.1757  142.1965  159.1598 H   0  0  0  0  0  0  0  0  0  0  0  0
  149.9604  143.4099  157.9383 H   0  0  0  0  0  0  0  0  0  0  0  0
  149.1258  143.4222  156.2469 H   0  0  0  0  0  0  0  0  0  0  0  0
  148.8470  142.6445  154.7345 H   0  0  0  0  0  0  0  0  0  0  0  0
  152.1421  136.9564  154.3805 H   0  0  0  0  0  0  0  0  0  0  0  0
  151.9373  138.5728  153.7258 H   0  0  0  0  0  0  0  0  0  0  0  0
  150.5560  137.7119  154.4032 H   0  0  0  0  0  0  0  0  0  0  0  0
  1  2  1  0  0  0  0
  1 18  1  0  0  0  0
  1 19  1  0  0  0  0
  1 20  1  0  0  0  0
  2  3  1  0  0  0  0
  3  4  1  0  0  0  0
  3 21  1  0  0  0  0
  3 22  1  0  0  0  0
  4  5  1  0  0  0  0
  4 23  1  0  0  0  0
  4 24  1  0  0  0  0
  5 10  1  0  0  0  0
  5  6  1  0  0  0  0
  6  7  1  0  0  0  0
  6  8  2  0  0  0  0
  7 25  1  0  0  0  0
  7 26  1  0  0  0  0
  8  9  1  0  0  0  0
  9 16  1  0  0  0  0
  9 10  2  0  0  0  0
 10 11  1  0  0  0  0
 11 12  2  0  0  0  0
 11 13  1  0  0  0  0
 13 14  1  0  0  0  0
 14 15  2  0  0  0  0
 14 16  1  0  0  0  0
 16 17  1  0  0  0  0
 17 27  1  0  0  0  0
 17 28  1  0  0  0  0
 17 29  1  0  0  0  0
M  CHG  1  13  -1
M  END
> <s_m_source_file>
AV-unprocessed.smi

> <i_m_source_file_index>
510

> <i_lp_mmshare_version>
43012

> <i_f3d_flags>
0

> <s_epik_input>
W0NIM11PW0NIMl1bQ0gyXW4oYyhuMSlbTkgyXSljKGMxMiljKD1PKVtuSF1jKD1PKW4yW0NIM10=

> <s_epik_cmdline>
J2VwaWtfcHl0aG9uJywgJy1waCcsICc3LjAnLCAnLXRuJywgJzgnLCAnLW1hJywgJzIwMCcsICctbWV0YWxfYmluZGluZycsICctaW1hZScsICc8aW5maWxlLm1hZT4nLCAnLW9tYWUnLCAnPG91dGZpbGUubWFlPic=

> <r_lp_tautomer_probability>
1

> <r_epik_Ionization_Penalty>
5.7178

> <r_epik_Ionization_Penalty_Charging>
1.59161e-08

> <r_epik_Ionization_Penalty_Neutral>
5.7178

> <r_epik_State_Penalty>
5.71748

> <r_epik_Charging_Adjusted_Penalty>
5.71748

> <i_epik_Tot_Q>
-1

> <i_epik_Tot_abs_Q>
1

> <r_epik_Metal_State_Penalty>
1.69653

> <b_epik_Metal_Only>
1

> <s_lp_Force_Field>
OPLS_2005

> <r_lp_Energy>
28.6626

> <b_lp_Chiralities_Consistent>
1

> <s_lp_Variant>
AV-unprocessed.smi:510-2

> <Gold.Version>
5.8.1

> <Gold.Id.Protein>
6NUR|6NUR_protein|mol2

> <Gold.PLP.Fitness>
36.7673

> <Gold.PLP.PLP>
-31.4382

> <Gold.PLP.part.hbond>
-2.9378

> <Gold.PLP.part.metal>
0.0000

> <Gold.PLP.part.buried>
-4.7696

> <Gold.PLP.part.nonpolar>
-24.6106

> <Gold.PLP.part.repulsive>
0.2976

> <Gold.PLP.ligand.clash>
0.0000

> <Gold.PLP.ligand.torsion>
0.4149

> <Gold.PLP.Chemscore.Hbond>
2.0520

> <Gold.PLP.Chemscore.CHOScore>
0.0000

> <Gold.PLP.Chemscore.Metal>
0.0000

> <Gold.Chemscore.Hbonds>
donor molecule, donor type, donor heavy atom, donor atom, acceptor molecule, acceptor atom, score
      L1  H     7    25       P1  8028  0.30
      P1  H  7989  7998       L1     8  0.61
      P1  H 10752 10765       L1    15  0.58

> <Gold.PLP.Chemscore.Internal.Correction>
0.0029

> <Gold.Rescore>
     Score         DG    S(hbond)    S(metal)    S(lipo)     H(rot)  DE(clash)    DE(int)     intcor
     12.87     -13.64       2.17        0.00      46.41       1.77       0.27       0.51       ----

> <Gold.Chemscore.Fitness>
12.8674

> <Gold.Chemscore.DG>
-13.6426

> <Gold.Chemscore.ZeroCoef>
-5.4800

> <Gold.Chemscore.Hbond>
2.1718

> <Gold.Chemscore.Metal>
0.0000

> <Gold.Chemscore.Lipo>
46.4140

> <Gold.Chemscore.Internal_Hbond>
0.0000

> <Gold.Chemscore.DEClash>
0.2655

> <Gold.Chemscore.DEInternal>
0.5097

> <Gold.Chemscore.Rot>
1.7663

> <Gold.Chemscore.Internal.Correction>
   9.000000E+99

> <Gold.Chemscore.Hbonds>
donor molecule, donor type, donor heavy atom, donor atom, acceptor molecule, acceptor atom, score
      L1  H     7    25       P1  8028  0.29
      P1  H  7989  7998       L1     8  0.22
      P1  H 10752 10765       L1    15  0.57

> <Gold.Chemscore.Hbond.Weighted>
-7.2539

> <Gold.Chemscore.Metal.Weighted>
-0.0000

> <Gold.Chemscore.Lipo.Weighted>
-5.4304

> <Gold.Chemscore.Internal_Hbond.Weighted>
0.0000

> <Gold.Chemscore.DEClash.Weighted>
0.2655

> <Gold.Chemscore.DEInternal.Weighted>
0.5097

> <Gold.Chemscore.Rot.Weighted>
4.5217

> <Gold.Chemscore.Internal.Correction.Weighted>
   9.000000E+99

> <Gold.Protein.RotatedTorsions>
[ 6907 6896 6895 6894 ] final -130.59 input  -60.11 | X-H torsion
[ 7974 7965 7964 7962 ] final   26.35 input  175.53 | X-H torsion
[ 8008 7997 7996 7995 ] final -148.27 input   59.86 | X-H torsion
[ 10167 10162 10161 10158 ] final -168.96 input  -65.29 | X-H torsion
[ 10718 10713 10712 10709 ] final  127.14 input   66.30 | X-H torsion
[ 10763 10752 10751 10750 ] final  -99.24 input  -60.55 | X-H torsion
[ 11005 11000 10999 10996 ] final   -0.78 input  -57.11 | X-H torsion

> <Gold.Protein.ActiveResidues>
 VAL166  LYS551  ARG553  GLY616  TRP617  ASP618  TYR619  PRO620  LYS621  CYS622 
 ASP623  PHE694  ASN695  SER759  ASP760  ASP761  ALA762  ILE779  LEU786  VAL792 
 PHE793  MET794  SER795  GLU796  ALA797  LYS798  CYS799  TRP800  GLU811  SER814 

> <Gold.Protein.RotatedAtoms>
  150.9414  133.6652  159.2789 H   0  0  0  0  0  0  0  0  0  0  0  0  # atno 6907 bound_to 6896
  151.4039  135.0974  159.9574 H   0  0  0  0  0  0  0  0  0  0  0  0  # atno 6908 bound_to 6896
  152.5071  133.8902  159.7445 H   0  0  0  0  0  0  0  0  0  0  0  0  # atno 6909 bound_to 6896
  146.1842  139.7340  142.8879 H   0  0  0  0  0  0  0  0  0  0  0  0  # atno 7974 bound_to 7965
  155.5889  140.0650  157.2764 H   0  0  0  0  0  0  0  0  0  0  0  0  # atno 8008 bound_to 7997
  154.4311  140.1839  156.1100 H   0  0  0  0  0  0  0  0  0  0  0  0  # atno 8009 bound_to 7997
  156.0248  140.3313  155.7080 H   0  0  0  0  0  0  0  0  0  0  0  0  # atno 8010 bound_to 7997
  139.5952  144.1127  152.1681 H   0  0  0  0  0  0  0  0  0  0  0  0  # atno 10167 bound_to 10162
  157.5358  131.1097  150.8937 H   0  0  0  0  0  0  0  0  0  0  0  0  # atno 10718 bound_to 10713
  154.7481  135.4979  153.9241 H   0  0  0  0  0  0  0  0  0  0  0  0  # atno 10763 bound_to 10752
  153.1114  135.6710  153.9502 H   0  0  0  0  0  0  0  0  0  0  0  0  # atno 10764 bound_to 10752
  153.9260  135.3083  155.3426 H   0  0  0  0  0  0  0  0  0  0  0  0  # atno 10765 bound_to 10752
  140.6401  133.9497  155.8321 H   0  0  0  0  0  0  0  0  0  0  0  0  # atno 11005 bound_to 11000
  145.3988  141.0382  143.3082 LP  0  0  0  0  0  0  0  0  0  0  0  0  # atno 17320 bound_to 7965
  144.8367  139.5538  143.6919 LP  0  0  0  0  0  0  0  0  0  0  0  0  # atno 17321 bound_to 7965
  140.0711  144.5778  150.7191 LP  0  0  0  0  0  0  0  0  0  0  0  0  # atno 17342 bound_to 10162
  140.7206  143.2585  151.4291 LP  0  0  0  0  0  0  0  0  0  0  0  0  # atno 17343 bound_to 10162
  156.9504  130.5418  149.5282 LP  0  0  0  0  0  0  0  0  0  0  0  0  # atno 17370 bound_to 10713
  156.0458  130.5534  150.8877 LP  0  0  0  0  0  0  0  0  0  0  0  0  # atno 17371 bound_to 10713
  141.0613  134.0342  157.3654 LP  0  0  0  0  0  0  0  0  0  0  0  0  # atno 17394 bound_to 11000
  139.9083  135.0185  156.7584 LP  0  0  0  0  0  0  0  0  0  0  0  0  # atno 17395 bound_to 11000

$$$$
