AV-unprocessed.smi:2228|AV-procd|sdf|9024|dock8
  -GOLD-   2272012233D 1   1.00000     0.00000
 Structure written by MMmdl.
 40 41  0  0  0  0  0  0  0  0  1 V2000
  148.5451  138.2227  156.6725 C   0  0  0  0  0  0  0  0  0  0  0  0
  148.6813  139.5009  156.0731 O   0  0  0  0  0  0  0  0  0  0  0  0
  149.0026  139.4538  154.6852 C   0  0  1  0  0  0  0  0  0  0  0  0
  147.8391  138.8058  153.9267 C   0  0  0  0  0  0  0  0  0  0  0  0
  146.8349  139.9404  153.7454 C   0  0  0  0  0  0  0  0  0  0  0  0
  147.6925  141.1853  153.5038 C   0  0  0  0  0  0  0  0  0  0  0  0
  149.0788  140.8866  154.1084 C   0  0  1  0  0  0  0  0  0  0  0  0
  149.4495  141.8888  155.1056 N   0  0  0  0  0  0  0  0  0  0  0  0
  150.3444  141.6977  156.0854 C   0  0  0  0  0  0  0  0  0  0  0  0
  150.9681  140.6466  156.2376 O   0  0  0  0  0  0  0  0  0  0  0  0
  150.4577  142.7907  156.8599 N   0  0  0  0  0  0  0  0  0  0  0  0
  151.2713  142.9709  158.0096 C   0  0  0  0  0  0  0  0  0  0  0  0
  151.1748  144.2426  158.6173 C   0  0  0  0  0  0  0  0  0  0  0  0
  151.9397  144.5231  159.7674 C   0  0  0  0  0  0  0  0  0  0  0  0
  151.8486  145.8790  160.4351 C   0  0  0  0  0  0  0  0  0  0  0  0
  152.7827  143.5187  160.2804 C   0  0  0  0  0  0  0  0  0  0  0  0
  152.8194  142.2778  159.6148 C   0  0  0  0  0  0  0  0  0  0  0  0
  153.6978  141.1508  160.1160 C   0  0  0  0  0  0  0  0  0  0  0  0
  152.0864  142.0109  158.5128 N   0  0  0  0  0  0  0  0  0  0  0  0
  148.2887  138.3407  157.7252 H   0  0  0  0  0  0  0  0  0  0  0  0
  149.4801  137.6637  156.6175 H   0  0  0  0  0  0  0  0  0  0  0  0
  147.7586  137.6342  156.1999 H   0  0  0  0  0  0  0  0  0  0  0  0
  149.9457  138.9280  154.5249 H   0  0  0  0  0  0  0  0  0  0  0  0
  148.1850  138.4695  152.9485 H   0  0  0  0  0  0  0  0  0  0  0  0
  147.4093  137.9436  154.4362 H   0  0  0  0  0  0  0  0  0  0  0  0
  146.1318  139.7522  152.9340 H   0  0  0  0  0  0  0  0  0  0  0  0
  146.2575  140.0653  154.6624 H   0  0  0  0  0  0  0  0  0  0  0  0
  147.7932  141.3632  152.4326 H   0  0  0  0  0  0  0  0  0  0  0  0
  147.2226  142.0719  153.9316 H   0  0  0  0  0  0  0  0  0  0  0  0
  149.8091  140.9050  153.2971 H   0  0  0  0  0  0  0  0  0  0  0  0
  148.9769  142.7791  155.0545 H   0  0  0  0  0  0  0  0  0  0  0  0
  149.8883  143.5831  156.6031 H   0  0  0  0  0  0  0  0  0  0  0  0
  150.5206  144.9987  158.2072 H   0  0  0  0  0  0  0  0  0  0  0  0
  152.5499  145.9601  161.2661 H   0  0  0  0  0  0  0  0  0  0  0  0
  150.8419  146.0420  160.8199 H   0  0  0  0  0  0  0  0  0  0  0  0
  152.0757  146.6696  159.7197 H   0  0  0  0  0  0  0  0  0  0  0  0
  153.3832  143.6936  161.1611 H   0  0  0  0  0  0  0  0  0  0  0  0
  154.3650  141.4923  160.9077 H   0  0  0  0  0  0  0  0  0  0  0  0
  154.3088  140.7529  159.3052 H   0  0  0  0  0  0  0  0  0  0  0  0
  153.0829  140.3422  160.5122 H   0  0  0  0  0  0  0  0  0  0  0  0
  1  2  1  0  0  0  0
  1 20  1  0  0  0  0
  1 21  1  0  0  0  0
  1 22  1  0  0  0  0
  2  3  1  0  0  0  0
  3  7  1  0  0  0  0
  3  4  1  0  0  0  0
  3 23  1  0  0  0  0
  4  5  1  0  0  0  0
  4 24  1  0  0  0  0
  4 25  1  0  0  0  0
  5  6  1  0  0  0  0
  5 26  1  0  0  0  0
  5 27  1  0  0  0  0
  6  7  1  0  0  0  0
  6 28  1  0  0  0  0
  6 29  1  0  0  0  0
  7  8  1  0  0  0  0
  7 30  1  0  0  0  0
  8  9  1  0  0  0  0
  8 31  1  0  0  0  0
  9 10  2  0  0  0  0
  9 11  1  0  0  0  0
 11 12  1  0  0  0  0
 11 32  1  0  0  0  0
 12 19  1  0  0  0  0
 12 13  2  0  0  0  0
 13 14  1  0  0  0  0
 13 33  1  0  0  0  0
 14 15  1  0  0  0  0
 14 16  2  0  0  0  0
 15 34  1  0  0  0  0
 15 35  1  0  0  0  0
 15 36  1  0  0  0  0
 16 17  1  0  0  0  0
 16 37  1  0  0  0  0
 17 18  1  0  0  0  0
 17 19  2  0  0  0  0
 18 38  1  0  0  0  0
 18 39  1  0  0  0  0
 18 40  1  0  0  0  0
M  END
> <s_m_source_file>
AV-unprocessed.smi

> <i_m_source_file_index>
2228

> <i_lp_mmshare_version>
43012

> <i_f3d_flags>
0

> <s_epik_input>
W0NIM11PW0NAQEhdMVtDSDJdW0NIMl1bQ0gyXVtDQEhdMVtOSF1DKD1PKVtOSF1jMltjSF1jKFtDSDNdKVtjSF1jKG4yKVtDSDNd

> <s_epik_cmdline>
J2VwaWtfcHl0aG9uJywgJy1waCcsICc3LjAnLCAnLXRuJywgJzgnLCAnLW1hJywgJzIwMCcsICctbWV0YWxfYmluZGluZycsICctaW1hZScsICc8aW5maWxlLm1hZT4nLCAnLW9tYWUnLCAnPG91dGZpbGUubWFlPic=

> <r_lp_tautomer_probability>
1

> <r_epik_Ionization_Penalty>
0.000275391

> <r_epik_Ionization_Penalty_Charging>
0

> <r_epik_Ionization_Penalty_Neutral>
0.000275391

> <r_epik_State_Penalty>
-0

> <r_epik_Charging_Adjusted_Penalty>
0

> <i_epik_Tot_Q>
0

> <i_epik_Tot_abs_Q>
0

> <r_epik_Metal_State_Penalty>
-0

> <b_epik_Metal_Only>
0

> <s_lp_Force_Field>
OPLS_2005

> <r_lp_Energy>
22.5757

> <b_lp_Chiralities_Consistent>
1

> <s_lp_Variant>
AV-unprocessed.smi:2228-2

> <Gold.Version>
5.8.1

> <Gold.Id.Protein>
6NUR|6NUR_protein|mol2

> <Gold.PLP.Fitness>
45.5009

> <Gold.PLP.PLP>
-40.1574

> <Gold.PLP.part.hbond>
-2.0000

> <Gold.PLP.part.metal>
0.0000

> <Gold.PLP.part.buried>
-4.5149

> <Gold.PLP.part.nonpolar>
-34.7029

> <Gold.PLP.part.repulsive>
0.2564

> <Gold.PLP.ligand.clash>
0.0000

> <Gold.PLP.ligand.torsion>
0.3217

> <Gold.PLP.Chemscore.Hbond>
1.9920

> <Gold.PLP.Chemscore.CHOScore>
0.0000

> <Gold.PLP.Chemscore.Metal>
0.0000

> <Gold.Chemscore.Hbonds>
donor molecule, donor type, donor heavy atom, donor atom, acceptor molecule, acceptor atom, score
      L1  H     8    31       P1  8028  0.98
      L1  H    11    32       P1  8028  1.00

> <Gold.PLP.Chemscore.Internal.Correction>
0.0109

> <Gold.Rescore>
     Score         DG    S(hbond)    S(metal)    S(lipo)     H(rot)  DE(clash)    DE(int)     intcor
     14.40     -20.72       1.95        0.00     101.10       1.21       0.34       5.98       ----

> <Gold.Chemscore.Fitness>
14.4002

> <Gold.Chemscore.DG>
-20.7213

> <Gold.Chemscore.ZeroCoef>
-5.4800

> <Gold.Chemscore.Hbond>
1.9505

> <Gold.Chemscore.Metal>
0.0000

> <Gold.Chemscore.Lipo>
101.1029

> <Gold.Chemscore.Internal_Hbond>
0.0000

> <Gold.Chemscore.DEClash>
0.3402

> <Gold.Chemscore.DEInternal>
5.9809

> <Gold.Chemscore.Rot>
1.2119

> <Gold.Chemscore.Internal.Correction>
   9.000000E+99

> <Gold.Chemscore.Hbonds>
donor molecule, donor type, donor heavy atom, donor atom, acceptor molecule, acceptor atom, score
      L1  H     8    31       P1  8028  0.87
      L1  H    11    32       P1  8028  1.00

> <Gold.Chemscore.Hbond.Weighted>
-6.5148

> <Gold.Chemscore.Metal.Weighted>
-0.0000

> <Gold.Chemscore.Lipo.Weighted>
-11.8290

> <Gold.Chemscore.Internal_Hbond.Weighted>
0.0000

> <Gold.Chemscore.DEClash.Weighted>
0.3402

> <Gold.Chemscore.DEInternal.Weighted>
5.9809

> <Gold.Chemscore.Rot.Weighted>
3.1026

> <Gold.Chemscore.Internal.Correction.Weighted>
   9.000000E+99

> <Gold.Protein.RotatedTorsions>
[ 6907 6896 6895 6894 ] final  168.10 input  -60.11 | X-H torsion
[ 7974 7965 7964 7962 ] final   45.86 input  175.53 | X-H torsion
[ 8008 7997 7996 7995 ] final   86.64 input   59.86 | X-H torsion
[ 10167 10162 10161 10158 ] final -157.06 input  -65.29 | X-H torsion
[ 10718 10713 10712 10709 ] final  -33.85 input   66.30 | X-H torsion
[ 10763 10752 10751 10750 ] final  -69.45 input  -60.55 | X-H torsion
[ 11005 11000 10999 10996 ] final -137.75 input  -57.11 | X-H torsion

> <Gold.Protein.ActiveResidues>
 VAL166  LYS551  ARG553  GLY616  TRP617  ASP618  TYR619  PRO620  LYS621  CYS622 
 ASP623  PHE694  ASN695  SER759  ASP760  ASP761  ALA762  ILE779  LEU786  VAL792 
 PHE793  MET794  SER795  GLU796  ALA797  LYS798  CYS799  TRP800  GLU811  SER814 

> <Gold.Protein.RotatedAtoms>
  151.8529  133.3443  159.3678 H   0  0  0  0  0  0  0  0  0  0  0  0  # atno 6907 bound_to 6896
  150.7201  134.5281  159.5696 H   0  0  0  0  0  0  0  0  0  0  0  0  # atno 6908 bound_to 6896
  152.2779  134.7862  160.0453 H   0  0  0  0  0  0  0  0  0  0  0  0  # atno 6909 bound_to 6896
  146.0442  139.4918  142.9759 H   0  0  0  0  0  0  0  0  0  0  0  0  # atno 7974 bound_to 7965
  155.9654  140.3390  155.6527 H   0  0  0  0  0  0  0  0  0  0  0  0  # atno 8008 bound_to 7997
  155.6744  140.0730  157.2526 H   0  0  0  0  0  0  0  0  0  0  0  0  # atno 8009 bound_to 7997
  154.4153  140.1685  156.1902 H   0  0  0  0  0  0  0  0  0  0  0  0  # atno 8010 bound_to 7997
  139.6801  143.9596  152.2332 H   0  0  0  0  0  0  0  0  0  0  0  0  # atno 10167 bound_to 10162
  156.3576  130.4318  149.7651 H   0  0  0  0  0  0  0  0  0  0  0  0  # atno 10718 bound_to 10713
  154.4036  135.6025  153.5911 H   0  0  0  0  0  0  0  0  0  0  0  0  # atno 10763 bound_to 10752
  152.9788  135.5912  154.4155 H   0  0  0  0  0  0  0  0  0  0  0  0  # atno 10764 bound_to 10752
  154.3957  135.2842  155.2106 H   0  0  0  0  0  0  0  0  0  0  0  0  # atno 10765 bound_to 10752
  140.8682  134.2084  157.4667 H   0  0  0  0  0  0  0  0  0  0  0  0  # atno 11005 bound_to 11000
  145.6834  141.0185  143.1594 LP  0  0  0  0  0  0  0  0  0  0  0  0  # atno 17320 bound_to 7965
  144.7089  139.8447  143.7421 LP  0  0  0  0  0  0  0  0  0  0  0  0  # atno 17321 bound_to 7965
  139.9384  144.6697  150.8291 LP  0  0  0  0  0  0  0  0  0  0  0  0  # atno 17342 bound_to 10162
  140.7649  143.3261  151.2513 LP  0  0  0  0  0  0  0  0  0  0  0  0  # atno 17343 bound_to 10162
  156.4827  130.8048  151.3062 LP  0  0  0  0  0  0  0  0  0  0  0  0  # atno 17370 bound_to 10713
  157.7469  131.0000  150.2912 LP  0  0  0  0  0  0  0  0  0  0  0  0  # atno 17371 bound_to 10713
  139.8710  134.9761  156.4910 LP  0  0  0  0  0  0  0  0  0  0  0  0  # atno 17394 bound_to 11000
  140.8604  133.8064  155.9259 LP  0  0  0  0  0  0  0  0  0  0  0  0  # atno 17395 bound_to 11000

$$$$
