AV-unprocessed.smi:271|AV-procd|sdf|2050|dock7
  -GOLD-   2262021283D 1   1.00000     0.00000
 Structure written by MMmdl.
 58 60  0  0  0  0  0  0  0  0  1 V2000
  150.5777  144.3775  159.8166 C   0  0  0  0  0  0  0  0  0  0  0  0
  151.3308  143.3567  158.9497 C   0  0  0  0  0  0  0  0  0  0  0  0
  152.3473  144.0704  158.0423 C   0  0  0  0  0  0  0  0  0  0  0  0
  150.3421  142.4873  158.1483 C   0  0  0  0  0  0  0  0  0  0  0  0
  150.9402  141.1453  157.6761 C   0  0  0  0  0  0  0  0  0  0  0  0
  150.6426  140.8292  156.2790 N   0  0  0  0  0  0  0  0  0  0  0  0
  149.2749  141.1275  155.8599 C   0  0  0  0  0  0  0  0  0  0  0  0
  149.1238  141.2808  154.3378 C   0  0  0  0  0  0  0  0  0  0  0  0
  147.8090  141.8175  153.9579 C   0  0  0  0  0  0  0  0  0  0  0  0
  146.7742  142.2394  153.6589 N   0  0  0  0  0  0  0  0  0  0  0  0
  151.0503  139.5963  155.9006 C   0  0  0  0  0  0  0  0  0  0  0  0
  151.9239  139.5242  154.8665 N   0  0  0  0  0  0  0  0  0  0  0  0
  152.3685  138.3345  154.4514 C   0  0  0  0  0  0  0  0  0  0  0  0
  152.0730  137.1218  154.9241 N   0  0  0  0  0  0  0  0  0  0  0  0
  151.1952  137.1919  155.9660 C   0  0  0  0  0  0  0  0  0  0  0  0
  150.6326  138.3799  156.5107 C   0  0  0  0  0  0  0  0  0  0  0  0
  149.7711  138.0624  157.5530 N   0  0  0  0  0  0  0  0  0  0  0  0
  149.8236  136.7606  157.6222 C   0  0  0  0  0  0  0  0  0  0  0  0
  150.6685  136.1550  156.7183 N   0  0  0  0  0  0  0  0  0  0  0  0
  150.9235  134.7279  156.5767 C   0  0  0  0  0  0  0  0  0  0  0  0
  149.7354  133.9190  155.9858 C   0  0  1  0  0  0  0  0  0  0  0  0
  149.4674  134.2752  154.5042 C   0  0  0  0  0  0  0  0  0  0  0  0
  149.1168  135.6367  154.3707 O   0  0  0  0  0  0  0  0  0  0  0  0
  149.9061  132.3887  156.1776 C   0  0  2  0  0  0  0  0  0  0  0  0
  151.3006  131.8561  155.8907 C   0  0  0  0  0  0  0  0  0  0  0  0
  151.0537  130.3659  155.6720 C   0  0  0  0  0  0  0  0  0  0  0  0
  149.7202  130.2557  155.1864 O   0  0  0  0  0  0  0  0  0  0  0  0
  149.0946  131.5331  155.1990 C   0  0  0  0  0  0  0  0  0  0  0  0
  149.9911  145.0620  159.2031 H   0  0  0  0  0  0  0  0  0  0  0  0
  151.2687  144.9744  160.4129 H   0  0  0  0  0  0  0  0  0  0  0  0
  149.8950  143.8815  160.5072 H   0  0  0  0  0  0  0  0  0  0  0  0
  151.8848  142.7043  159.6261 H   0  0  0  0  0  0  0  0  0  0  0  0
  151.8481  144.7136  157.3169 H   0  0  0  0  0  0  0  0  0  0  0  0
  152.9638  143.3611  157.4908 H   0  0  0  0  0  0  0  0  0  0  0  0
  153.0235  144.6941  158.6279 H   0  0  0  0  0  0  0  0  0  0  0  0
  149.4714  142.2732  158.7696 H   0  0  0  0  0  0  0  0  0  0  0  0
  149.9735  143.0632  157.2984 H   0  0  0  0  0  0  0  0  0  0  0  0
  152.0198  141.1344  157.8243 H   0  0  0  0  0  0  0  0  0  0  0  0
  150.5400  140.3440  158.2984 H   0  0  0  0  0  0  0  0  0  0  0  0
  148.6000  140.3520  156.2246 H   0  0  0  0  0  0  0  0  0  0  0  0
  148.9626  142.0558  156.3393 H   0  0  0  0  0  0  0  0  0  0  0  0
  149.8848  141.9555  153.9451 H   0  0  0  0  0  0  0  0  0  0  0  0
  149.2422  140.3233  153.8299 H   0  0  0  0  0  0  0  0  0  0  0  0
  153.0618  138.3573  153.6235 H   0  0  0  0  0  0  0  0  0  0  0  0
  149.2457  136.2062  158.3463 H   0  0  0  0  0  0  0  0  0  0  0  0
  151.8165  134.6007  155.9647 H   0  0  0  0  0  0  0  0  0  0  0  0
  151.1904  134.3326  157.5574 H   0  0  0  0  0  0  0  0  0  0  0  0
  148.8474  134.2106  156.5489 H   0  0  0  0  0  0  0  0  0  0  0  0
  150.3320  134.0549  153.8780 H   0  0  0  0  0  0  0  0  0  0  0  0
  148.6358  133.6959  154.1051 H   0  0  0  0  0  0  0  0  0  0  0  0
  149.3960  135.9376  153.5197 H   0  0  0  0  0  0  0  0  0  0  0  0
  149.6422  132.1090  157.1985 H   0  0  0  0  0  0  0  0  0  0  0  0
  151.6987  132.3042  154.9790 H   0  0  0  0  0  0  0  0  0  0  0  0
  152.0097  132.0403  156.6982 H   0  0  0  0  0  0  0  0  0  0  0  0
  151.7682  129.9279  154.9747 H   0  0  0  0  0  0  0  0  0  0  0  0
  151.1244  129.8232  156.6153 H   0  0  0  0  0  0  0  0  0  0  0  0
  148.0441  131.4470  155.4740 H   0  0  0  0  0  0  0  0  0  0  0  0
  149.1435  131.9494  154.1917 H   0  0  0  0  0  0  0  0  0  0  0  0
  1  2  1  0  0  0  0
  1 29  1  0  0  0  0
  1 30  1  0  0  0  0
  1 31  1  0  0  0  0
  2  3  1  0  0  0  0
  2  4  1  0  0  0  0
  2 32  1  0  0  0  0
  3 33  1  0  0  0  0
  3 34  1  0  0  0  0
  3 35  1  0  0  0  0
  4  5  1  0  0  0  0
  4 36  1  0  0  0  0
  4 37  1  0  0  0  0
  5  6  1  0  0  0  0
  5 38  1  0  0  0  0
  5 39  1  0  0  0  0
  6  7  1  0  0  0  0
  6 11  1  0  0  0  0
  7  8  1  0  0  0  0
  7 40  1  0  0  0  0
  7 41  1  0  0  0  0
  8  9  1  0  0  0  0
  8 42  1  0  0  0  0
  8 43  1  0  0  0  0
  9 10  3  0  0  0  0
 11 16  1  0  0  0  0
 11 12  2  0  0  0  0
 12 13  1  0  0  0  0
 13 14  2  0  0  0  0
 13 44  1  0  0  0  0
 14 15  1  0  0  0  0
 15 19  1  0  0  0  0
 15 16  2  0  0  0  0
 16 17  1  0  0  0  0
 17 18  2  0  0  0  0
 18 19  1  0  0  0  0
 18 45  1  0  0  0  0
 19 20  1  0  0  0  0
 20 21  1  0  0  0  0
 20 46  1  0  0  0  0
 20 47  1  0  0  0  0
 21 22  1  0  0  0  0
 21 24  1  0  0  0  0
 21 48  1  0  0  0  0
 22 23  1  0  0  0  0
 22 49  1  0  0  0  0
 22 50  1  0  0  0  0
 23 51  1  0  0  0  0
 24 28  1  0  0  0  0
 24 25  1  0  0  0  0
 24 52  1  0  0  0  0
 25 26  1  0  0  0  0
 25 53  1  0  0  0  0
 25 54  1  0  0  0  0
 26 27  1  0  0  0  0
 26 55  1  0  0  0  0
 26 56  1  0  0  0  0
 27 28  1  0  0  0  0
 28 57  1  0  0  0  0
 28 58  1  0  0  0  0
M  END
> <s_m_source_file>
AV-unprocessed.smi

> <i_m_source_file_index>
271

> <i_lp_mmshare_version>
43012

> <i_f3d_flags>
0

> <s_epik_input>
W0NIM11bQ0hdKFtDSDNdKVtDSDJdW0NIMl1OKFtDSDJdW0NIMl1DI04pYyhuW2NIXW4xKWMoYzEyKW5bY0hdbjJbQ0gyXVtDQEhdKFtDSDJdW09IXSlbQ0BASF0zW0NIMl1bQ0gyXU9bQ0gyXTM=

> <s_epik_cmdline>
J2VwaWtfcHl0aG9uJywgJy1waCcsICc3LjAnLCAnLXRuJywgJzgnLCAnLW1hJywgJzIwMCcsICctbWV0YWxfYmluZGluZycsICctaW1hZScsICc8aW5maWxlLm1hZT4nLCAnLW9tYWUnLCAnPG91dGZpbGUubWFlPic=

> <r_lp_tautomer_probability>
1

> <r_epik_Ionization_Penalty>
0.000825874

> <r_epik_Ionization_Penalty_Charging>
0

> <r_epik_Ionization_Penalty_Neutral>
0.000825874

> <r_epik_State_Penalty>
0.000396768

> <r_epik_Charging_Adjusted_Penalty>
0.000396768

> <i_epik_Tot_Q>
0

> <i_epik_Tot_abs_Q>
0

> <r_epik_Metal_State_Penalty>
-0

> <b_epik_Metal_Only>
0

> <s_lp_Force_Field>
OPLS_2005

> <r_lp_Energy>
35.3128

> <b_lp_Chiralities_Consistent>
1

> <s_lp_Variant>
AV-unprocessed.smi:271-2

> <Gold.Version>
5.8.1

> <Gold.Id.Protein>
6NUR|6NUR_protein|mol2

> <Gold.PLP.Fitness>
52.5678

> <Gold.PLP.PLP>
-46.5053

> <Gold.PLP.part.hbond>
-3.0000

> <Gold.PLP.part.metal>
0.0000

> <Gold.PLP.part.buried>
-8.6372

> <Gold.PLP.part.nonpolar>
-35.5374

> <Gold.PLP.part.repulsive>
0.3844

> <Gold.PLP.ligand.clash>
0.0000

> <Gold.PLP.ligand.torsion>
1.6048

> <Gold.PLP.Chemscore.Hbond>
2.8000

> <Gold.PLP.Chemscore.CHOScore>
0.0000

> <Gold.PLP.Chemscore.Metal>
0.0000

> <Gold.Chemscore.Hbonds>
donor molecule, donor type, donor heavy atom, donor atom, acceptor molecule, acceptor atom, score
      L1  H    23    51       P1  7948  0.96
      P1  H  7989  7998       L1    12  0.96
      P1  H 10752 10765       L1    14  0.86

> <Gold.PLP.Chemscore.Internal.Correction>
0.8722

> <Gold.Rescore>
     Score         DG    S(hbond)    S(metal)    S(lipo)     H(rot)  DE(clash)    DE(int)     intcor
     13.53     -15.97       2.78        0.00      92.67       3.77       0.01       2.43       ----

> <Gold.Chemscore.Fitness>
13.5252

> <Gold.Chemscore.DG>
-15.9690

> <Gold.Chemscore.ZeroCoef>
-5.4800

> <Gold.Chemscore.Hbond>
2.7824

> <Gold.Chemscore.Metal>
0.0000

> <Gold.Chemscore.Lipo>
92.6714

> <Gold.Chemscore.Internal_Hbond>
0.0000

> <Gold.Chemscore.DEClash>
0.0135

> <Gold.Chemscore.DEInternal>
2.4303

> <Gold.Chemscore.Rot>
3.7683

> <Gold.Chemscore.Internal.Correction>
   9.000000E+99

> <Gold.Chemscore.Hbonds>
donor molecule, donor type, donor heavy atom, donor atom, acceptor molecule, acceptor atom, score
      L1  H    23    51       P1  7948  0.51
      P1  H  7989  7998       L1    12  0.77
      P1  H 10752 10765       L1    14  0.83

> <Gold.Chemscore.Hbond.Weighted>
-9.2932

> <Gold.Chemscore.Metal.Weighted>
-0.0000

> <Gold.Chemscore.Lipo.Weighted>
-10.8426

> <Gold.Chemscore.Internal_Hbond.Weighted>
0.0000

> <Gold.Chemscore.DEClash.Weighted>
0.0135

> <Gold.Chemscore.DEInternal.Weighted>
2.4303

> <Gold.Chemscore.Rot.Weighted>
9.6468

> <Gold.Chemscore.Internal.Correction.Weighted>
   9.000000E+99

> <Gold.Protein.RotatedTorsions>
[ 6907 6896 6895 6894 ] final  -82.90 input  -60.11 | X-H torsion
[ 7974 7965 7964 7962 ] final   -9.44 input  175.53 | X-H torsion
[ 8008 7997 7996 7995 ] final  177.44 input   59.86 | X-H torsion
[ 10167 10162 10161 10158 ] final  132.39 input  -65.29 | X-H torsion
[ 10718 10713 10712 10709 ] final   -4.34 input   66.30 | X-H torsion
[ 10763 10752 10751 10750 ] final  165.15 input  -60.55 | X-H torsion
[ 11005 11000 10999 10996 ] final  -43.16 input  -57.11 | X-H torsion

> <Gold.Protein.ActiveResidues>
 VAL166  LYS551  ARG553  GLY616  TRP617  ASP618  TYR619  PRO620  LYS621  CYS622 
 ASP623  PHE694  ASN695  SER759  ASP760  ASP761  ALA762  ILE779  LEU786  VAL792 
 PHE793  MET794  SER795  GLU796  ALA797  LYS798  CYS799  TRP800  GLU811  SER814 

> <Gold.Protein.RotatedAtoms>
  150.6891  134.3595  159.4943 H   0  0  0  0  0  0  0  0  0  0  0  0  # atno 6907 bound_to 6896
  152.1425  134.9048  160.0562 H   0  0  0  0  0  0  0  0  0  0  0  0  # atno 6908 bound_to 6896
  152.0176  133.3851  159.4282 H   0  0  0  0  0  0  0  0  0  0  0  0  # atno 6909 bound_to 6896
  146.2251  140.2616  142.8352 H   0  0  0  0  0  0  0  0  0  0  0  0  # atno 7974 bound_to 7965
  156.0656  140.1358  156.9890 H   0  0  0  0  0  0  0  0  0  0  0  0  # atno 8008 bound_to 7997
  154.4504  140.0982  156.6653 H   0  0  0  0  0  0  0  0  0  0  0  0  # atno 8009 bound_to 7997
  155.5309  140.3458  155.4428 H   0  0  0  0  0  0  0  0  0  0  0  0  # atno 8010 bound_to 7997
  139.5342  144.6664  151.4845 H   0  0  0  0  0  0  0  0  0  0  0  0  # atno 10167 bound_to 10162
  156.7628  130.5275  149.5782 H   0  0  0  0  0  0  0  0  0  0  0  0  # atno 10718 bound_to 10713
  154.3196  135.2756  155.2526 H   0  0  0  0  0  0  0  0  0  0  0  0  # atno 10763 bound_to 10752
  154.4885  135.5840  153.6445 H   0  0  0  0  0  0  0  0  0  0  0  0  # atno 10764 bound_to 10752
  152.9878  135.6129  154.3380 H   0  0  0  0  0  0  0  0  0  0  0  0  # atno 10765 bound_to 10752
  141.0365  133.6798  156.2694 H   0  0  0  0  0  0  0  0  0  0  0  0  # atno 11005 bound_to 11000
  144.9335  140.8001  143.5674 LP  0  0  0  0  0  0  0  0  0  0  0  0  # atno 17320 bound_to 7965
  145.2561  139.2011  143.4916 LP  0  0  0  0  0  0  0  0  0  0  0  0  # atno 17321 bound_to 7965
  140.6538  143.8641  150.6813 LP  0  0  0  0  0  0  0  0  0  0  0  0  # atno 17342 bound_to 10162
  140.2014  143.3956  152.1788 LP  0  0  0  0  0  0  0  0  0  0  0  0  # atno 17343 bound_to 10162
  156.1328  130.6190  151.0358 LP  0  0  0  0  0  0  0  0  0  0  0  0  # atno 17370 bound_to 10713
  157.6727  131.0858  150.7573 LP  0  0  0  0  0  0  0  0  0  0  0  0  # atno 17371 bound_to 10713
  140.6313  134.5261  157.5560 LP  0  0  0  0  0  0  0  0  0  0  0  0  # atno 17394 bound_to 11000
  139.9244  134.8084  156.1112 LP  0  0  0  0  0  0  0  0  0  0  0  0  # atno 17395 bound_to 11000

$$$$
