AV-unprocessed.smi:3168|AV-procd|sdf|12100|dock6
  -GOLD-   2272017533D 1   1.00000     0.00000
 Structure written by MMmdl.
 33 34  0  0  0  0  0  0  0  0  1 V2000
  153.4837  141.9994  161.1545 C   0  0  0  0  0  0  0  0  0  0  0  0
  153.1532  142.1219  159.6527 C   0  0  1  0  0  0  0  0  0  0  0  0
  152.4686  140.8649  159.0969 C   0  0  0  0  0  0  0  0  0  0  0  0
  152.6367  139.7696  159.6344 O   0  0  0  0  0  0  0  0  0  0  0  0
  151.6759  141.0475  158.0291 N   0  0  0  0  0  0  0  0  0  0  0  0
  150.8497  140.0223  157.4017 C   0  0  0  0  0  0  0  0  0  0  0  0
  151.3670  139.6736  155.9962 C   0  0  2  0  0  0  0  0  0  0  0  0
  150.6858  138.4791  155.3299 C   0  0  0  0  0  0  0  0  0  0  0  0
  151.7198  138.0099  154.3209 C   0  0  0  0  0  0  0  0  0  0  0  0
  153.0326  138.6263  154.8167 C   0  0  0  0  0  0  0  0  0  0  0  0
  152.7199  139.2540  156.0538 O   0  0  0  0  0  0  0  0  0  0  0  0
  152.3467  143.2989  159.3474 N   0  0  0  0  0  0  0  0  0  0  0  0
  151.9763  144.3159  160.2044 C   0  0  0  0  0  0  0  0  0  0  0  0
  151.2734  145.2327  159.4768 C   0  0  0  0  0  0  0  0  0  0  0  0
  151.2772  144.6935  158.1609 C   0  0  0  0  0  0  0  0  0  0  0  0
  151.9284  143.5451  158.0835 N   0  0  0  0  0  0  0  0  0  0  0  0
  154.1241  141.1376  161.3453 H   0  0  0  0  0  0  0  0  0  0  0  0
  152.5883  141.8848  161.7671 H   0  0  0  0  0  0  0  0  0  0  0  0
  154.0142  142.8839  161.5077 H   0  0  0  0  0  0  0  0  0  0  0  0
  154.1021  142.2415  159.1268 H   0  0  0  0  0  0  0  0  0  0  0  0
  151.6041  141.9803  157.6500 H   0  0  0  0  0  0  0  0  0  0  0  0
  150.8838  139.1336  158.0319 H   0  0  0  0  0  0  0  0  0  0  0  0
  149.8025  140.3267  157.3605 H   0  0  0  0  0  0  0  0  0  0  0  0
  151.3025  140.5477  155.3451 H   0  0  0  0  0  0  0  0  0  0  0  0
  150.5069  137.6914  156.0630 H   0  0  0  0  0  0  0  0  0  0  0  0
  149.7296  138.7362  154.8725 H   0  0  0  0  0  0  0  0  0  0  0  0
  151.7673  136.9212  154.2807 H   0  0  0  0  0  0  0  0  0  0  0  0
  151.4841  138.3736  153.3200 H   0  0  0  0  0  0  0  0  0  0  0  0
  153.8182  137.8821  154.9502 H   0  0  0  0  0  0  0  0  0  0  0  0
  153.3929  139.3774  154.1125 H   0  0  0  0  0  0  0  0  0  0  0  0
  152.2430  144.3031  161.2509 H   0  0  0  0  0  0  0  0  0  0  0  0
  150.8299  146.1519  159.8293 H   0  0  0  0  0  0  0  0  0  0  0  0
  150.8344  145.1024  157.2646 H   0  0  0  0  0  0  0  0  0  0  0  0
  1  2  1  0  0  0  0
  1 17  1  0  0  0  0
  1 18  1  0  0  0  0
  1 19  1  0  0  0  0
  2  3  1  0  0  0  0
  2 12  1  0  0  0  0
  2 20  1  0  0  0  0
  3  4  2  0  0  0  0
  3  5  1  0  0  0  0
  5  6  1  0  0  0  0
  5 21  1  0  0  0  0
  6  7  1  0  0  0  0
  6 22  1  0  0  0  0
  6 23  1  0  0  0  0
  7 11  1  0  0  0  0
  7  8  1  0  0  0  0
  7 24  1  0  0  0  0
  8  9  1  0  0  0  0
  8 25  1  0  0  0  0
  8 26  1  0  0  0  0
  9 10  1  0  0  0  0
  9 27  1  0  0  0  0
  9 28  1  0  0  0  0
 10 11  1  0  0  0  0
 10 29  1  0  0  0  0
 10 30  1  0  0  0  0
 12 16  1  0  0  0  0
 12 13  1  0  0  0  0
 13 14  2  0  0  0  0
 13 31  1  0  0  0  0
 14 15  1  0  0  0  0
 14 32  1  0  0  0  0
 15 16  2  0  0  0  0
 15 33  1  0  0  0  0
M  END
> <s_m_source_file>
AV-unprocessed.smi

> <i_m_source_file_index>
3168

> <i_lp_mmshare_version>
43012

> <i_f3d_flags>
0

> <s_epik_input>
bjFbY0hdW2NIXVtjSF1uMVtDQEhdKFtDSDNdKUMoPU8pW05IXVtDSDJdW0NAQEhdMltDSDJdW0NIMl1bQ0gyXU8y

> <s_epik_cmdline>
J2VwaWtfcHl0aG9uJywgJy1waCcsICc3LjAnLCAnLXRuJywgJzgnLCAnLW1hJywgJzIwMCcsICctbWV0YWxfYmluZGluZycsICctaW1hZScsICc8aW5maWxlLm1hZT4nLCAnLW9tYWUnLCAnPG91dGZpbGUubWFlPic=

> <r_lp_tautomer_probability>
1

> <r_epik_Ionization_Penalty>
4.14877e-05

> <r_epik_Ionization_Penalty_Charging>
0

> <r_epik_Ionization_Penalty_Neutral>
4.14877e-05

> <r_epik_State_Penalty>
-0

> <r_epik_Charging_Adjusted_Penalty>
0

> <i_epik_Tot_Q>
0

> <i_epik_Tot_abs_Q>
0

> <r_epik_Metal_State_Penalty>
-0

> <b_epik_Metal_Only>
0

> <s_lp_Force_Field>
OPLS_2005

> <r_lp_Energy>
21.2446

> <b_lp_Chiralities_Consistent>
1

> <s_lp_Variant>
AV-unprocessed.smi:3168-2

> <Gold.Version>
5.8.1

> <Gold.Id.Protein>
6NUR|6NUR_protein|mol2

> <Gold.PLP.Fitness>
44.7829

> <Gold.PLP.PLP>
-40.4598

> <Gold.PLP.part.hbond>
-1.0000

> <Gold.PLP.part.metal>
0.0000

> <Gold.PLP.part.buried>
-6.3444

> <Gold.PLP.part.nonpolar>
-33.4822

> <Gold.PLP.part.repulsive>
0.1355

> <Gold.PLP.ligand.clash>
0.0000

> <Gold.PLP.ligand.torsion>
0.8936

> <Gold.PLP.Chemscore.Hbond>
1.0000

> <Gold.PLP.Chemscore.CHOScore>
1.0000

> <Gold.PLP.Chemscore.Metal>
0.0000

> <Gold.Chemscore.Hbonds>
donor molecule, donor type, donor heavy atom, donor atom, acceptor molecule, acceptor atom, score
      P1  H  7997  8009       L1    11  0.95
      L1  C    15    33       P1  8028  1.00

> <Gold.PLP.Chemscore.Internal.Correction>
0.1104

> <Gold.Rescore>
     Score         DG    S(hbond)    S(metal)    S(lipo)     H(rot)  DE(clash)    DE(int)     intcor
     12.52     -14.97       0.77        0.00      94.25       1.61       0.00       2.45       ----

> <Gold.Chemscore.Fitness>
12.5188

> <Gold.Chemscore.DG>
-14.9708

> <Gold.Chemscore.ZeroCoef>
-5.4800

> <Gold.Chemscore.Hbond>
0.7735

> <Gold.Chemscore.Metal>
0.0000

> <Gold.Chemscore.Lipo>
94.2506

> <Gold.Chemscore.Internal_Hbond>
0.0000

> <Gold.Chemscore.DEClash>
0.0030

> <Gold.Chemscore.DEInternal>
2.4489

> <Gold.Chemscore.Rot>
1.6094

> <Gold.Chemscore.Internal.Correction>
   9.000000E+99

> <Gold.Chemscore.Hbonds>
donor molecule, donor type, donor heavy atom, donor atom, acceptor molecule, acceptor atom, score
      P1  H  7997  8009       L1    11  0.22

> <Gold.Chemscore.Hbond.Weighted>
-2.5835

> <Gold.Chemscore.Metal.Weighted>
-0.0000

> <Gold.Chemscore.Lipo.Weighted>
-11.0273

> <Gold.Chemscore.Internal_Hbond.Weighted>
0.0000

> <Gold.Chemscore.DEClash.Weighted>
0.0030

> <Gold.Chemscore.DEInternal.Weighted>
2.4489

> <Gold.Chemscore.Rot.Weighted>
4.1201

> <Gold.Chemscore.Internal.Correction.Weighted>
   9.000000E+99

> <Gold.Protein.RotatedTorsions>
[ 6907 6896 6895 6894 ] final   89.10 input  -60.11 | X-H torsion
[ 7974 7965 7964 7962 ] final   23.35 input  175.53 | X-H torsion
[ 8008 7997 7996 7995 ] final -165.64 input   59.86 | X-H torsion
[ 10167 10162 10161 10158 ] final   99.39 input  -65.29 | X-H torsion
[ 10718 10713 10712 10709 ] final -111.24 input   66.30 | X-H torsion
[ 10763 10752 10751 10750 ] final  -81.45 input  -60.55 | X-H torsion
[ 11005 11000 10999 10996 ] final   -8.83 input  -57.11 | X-H torsion

> <Gold.Protein.ActiveResidues>
 VAL166  LYS551  ARG553  GLY616  TRP617  ASP618  TYR619  PRO620  LYS621  CYS622 
 ASP623  PHE694  ASN695  SER759  ASP760  ASP761  ALA762  ILE779  LEU786  VAL792 
 PHE793  MET794  SER795  GLU796  ALA797  LYS798  CYS799  TRP800  GLU811  SER814 

> <Gold.Protein.RotatedAtoms>
  152.5432  134.2019  159.8715 H   0  0  0  0  0  0  0  0  0  0  0  0  # atno 6907 bound_to 6896
  151.2007  133.4606  159.2604 H   0  0  0  0  0  0  0  0  0  0  0  0  # atno 6908 bound_to 6896
  151.0992  134.9974  159.8496 H   0  0  0  0  0  0  0  0  0  0  0  0  # atno 6909 bound_to 6896
  146.1988  139.7756  142.8777 H   0  0  0  0  0  0  0  0  0  0  0  0  # atno 7974 bound_to 7965
  155.8527  140.0965  157.1664 H   0  0  0  0  0  0  0  0  0  0  0  0  # atno 8008 bound_to 7997
  154.3986  140.1380  156.3925 H   0  0  0  0  0  0  0  0  0  0  0  0  # atno 8009 bound_to 7997
  155.7944  140.3455  155.5369 H   0  0  0  0  0  0  0  0  0  0  0  0  # atno 8010 bound_to 7997
  139.7621  144.6951  151.0277 H   0  0  0  0  0  0  0  0  0  0  0  0  # atno 10167 bound_to 10162
  156.0635  130.5857  150.8346 H   0  0  0  0  0  0  0  0  0  0  0  0  # atno 10718 bound_to 10713
  154.5637  135.5626  153.7031 H   0  0  0  0  0  0  0  0  0  0  0  0  # atno 10763 bound_to 10752
  153.0026  135.6280  154.2209 H   0  0  0  0  0  0  0  0  0  0  0  0  # atno 10764 bound_to 10752
  154.2147  135.2872  155.2926 H   0  0  0  0  0  0  0  0  0  0  0  0  # atno 10765 bound_to 10752
  140.7277  133.8775  155.8869 H   0  0  0  0  0  0  0  0  0  0  0  0  # atno 11005 bound_to 11000
  145.3554  141.0316  143.3315 LP  0  0  0  0  0  0  0  0  0  0  0  0  # atno 17320 bound_to 7965
  144.8637  139.5139  143.6800 LP  0  0  0  0  0  0  0  0  0  0  0  0  # atno 17321 bound_to 7965
  140.7808  143.4684  151.0180 LP  0  0  0  0  0  0  0  0  0  0  0  0  # atno 17342 bound_to 10162
  139.8370  143.7614  152.3180 LP  0  0  0  0  0  0  0  0  0  0  0  0  # atno 17343 bound_to 10162
  157.5661  131.0946  150.9487 LP  0  0  0  0  0  0  0  0  0  0  0  0  # atno 17370 bound_to 10713
  156.9713  130.5492  149.5291 LP  0  0  0  0  0  0  0  0  0  0  0  0  # atno 17371 bound_to 10713
  140.9948  134.1230  157.4374 LP  0  0  0  0  0  0  0  0  0  0  0  0  # atno 17394 bound_to 11000
  139.8833  135.0051  156.6293 LP  0  0  0  0  0  0  0  0  0  0  0  0  # atno 17395 bound_to 11000

$$$$
