AV-unprocessed.smi:1384|AV-procd|sdf|5626|dock6
  -GOLD-   22720 5243D 1   1.00000     0.00000
 Structure written by MMmdl.
 41 42  0  0  0  0  0  0  0  0  1 V2000
  147.5073  137.8634  152.5071 C   0  0  0  0  0  0  0  0  0  0  0  0
  148.3825  138.9201  153.1958 C   0  0  2  0  0  0  0  0  0  0  0  0
  149.0741  138.3513  154.4491 C   0  0  0  0  0  0  0  0  0  0  0  0
  149.9512  139.4076  155.1405 C   0  0  0  0  0  0  0  0  0  0  0  0
  149.1403  140.6703  155.4974 C   0  0  1  0  0  0  0  0  0  0  0  0
  150.0051  141.6934  156.0773 N   0  0  0  0  0  0  0  0  0  0  0  0
  150.7195  141.5618  157.2051 C   0  0  0  0  0  0  0  0  0  0  0  0
  150.7279  140.5329  157.8824 O   0  0  0  0  0  0  0  0  0  0  0  0
  151.5598  142.7830  157.6066 C   0  0  0  0  0  0  0  0  0  0  0  0
  152.1031  142.7055  158.9739 N   0  0  0  0  0  0  0  0  0  0  0  0
  151.7976  143.7709  159.8394 C   0  0  0  0  0  0  0  0  0  0  0  0
  152.2373  143.8003  161.1046 C   0  0  0  0  0  0  0  0  0  0  0  0
  153.0408  142.6978  161.5730 C   0  0  0  0  0  0  0  0  0  0  0  0
  153.3578  141.6624  160.7616 C   0  0  0  0  0  0  0  0  0  0  0  0
  154.1972  140.4823  161.2460 C   0  0  0  0  0  0  0  0  0  0  0  0
  153.5434  139.3334  161.0692 F   0  0  0  0  0  0  0  0  0  0  0  0
  155.3441  140.4176  160.5693 F   0  0  0  0  0  0  0  0  0  0  0  0
  154.4931  140.5847  162.5427 F   0  0  0  0  0  0  0  0  0  0  0  0
  152.8748  141.6444  159.3655 C   0  0  0  0  0  0  0  0  0  0  0  0
  153.1452  140.7295  158.5857 O   0  0  0  0  0  0  0  0  0  0  0  0
  148.4425  141.2373  154.2475 C   0  0  0  0  0  0  0  0  0  0  0  0
  147.5689  140.1773  153.5574 C   0  0  0  0  0  0  0  0  0  0  0  0
  146.7078  137.5199  153.1642 H   0  0  0  0  0  0  0  0  0  0  0  0
  148.0975  136.9935  152.2174 H   0  0  0  0  0  0  0  0  0  0  0  0
  147.0469  138.2640  151.6036 H   0  0  0  0  0  0  0  0  0  0  0  0
  149.1590  139.2144  152.4881 H   0  0  0  0  0  0  0  0  0  0  0  0
  148.3236  137.9875  155.1520 H   0  0  0  0  0  0  0  0  0  0  0  0
  149.6863  137.4900  154.1795 H   0  0  0  0  0  0  0  0  0  0  0  0
  150.3963  138.9776  156.0385 H   0  0  0  0  0  0  0  0  0  0  0  0
  150.7802  139.6745  154.4833 H   0  0  0  0  0  0  0  0  0  0  0  0
  148.3708  140.4035  156.2247 H   0  0  0  0  0  0  0  0  0  0  0  0
  150.0609  142.5725  155.5835 H   0  0  0  0  0  0  0  0  0  0  0  0
  152.3689  142.8908  156.8826 H   0  0  0  0  0  0  0  0  0  0  0  0
  150.9554  143.6848  157.4912 H   0  0  0  0  0  0  0  0  0  0  0  0
  151.1955  144.5580  159.4090 H   0  0  0  0  0  0  0  0  0  0  0  0
  151.9977  144.6281  161.7559 H   0  0  0  0  0  0  0  0  0  0  0  0
  153.3867  142.7142  162.5955 H   0  0  0  0  0  0  0  0  0  0  0  0
  147.8285  142.0967  154.5196 H   0  0  0  0  0  0  0  0  0  0  0  0
  149.1893  141.6027  153.5410 H   0  0  0  0  0  0  0  0  0  0  0  0
  147.1221  140.6033  152.6584 H   0  0  0  0  0  0  0  0  0  0  0  0
  146.7411  139.9059  154.2140 H   0  0  0  0  0  0  0  0  0  0  0  0
  1  2  1  0  0  0  0
  1 23  1  0  0  0  0
  1 24  1  0  0  0  0
  1 25  1  0  0  0  0
  2 22  1  0  0  0  0
  2  3  1  0  0  0  0
  2 26  1  0  0  0  0
  3  4  1  0  0  0  0
  3 27  1  0  0  0  0
  3 28  1  0  0  0  0
  4  5  1  0  0  0  0
  4 29  1  0  0  0  0
  4 30  1  0  0  0  0
  5  6  1  0  0  0  0
  5 21  1  0  0  0  0
  5 31  1  0  0  0  0
  6  7  1  0  0  0  0
  6 32  1  0  0  0  0
  7  8  2  0  0  0  0
  7  9  1  0  0  0  0
  9 10  1  0  0  0  0
  9 33  1  0  0  0  0
  9 34  1  0  0  0  0
 10 19  1  0  0  0  0
 10 11  1  0  0  0  0
 11 12  2  0  0  0  0
 11 35  1  0  0  0  0
 12 13  1  0  0  0  0
 12 36  1  0  0  0  0
 13 14  2  0  0  0  0
 13 37  1  0  0  0  0
 14 15  1  0  0  0  0
 14 19  1  0  0  0  0
 15 16  1  0  0  0  0
 15 17  1  0  0  0  0
 15 18  1  0  0  0  0
 19 20  2  0  0  0  0
 21 22  1  0  0  0  0
 21 38  1  0  0  0  0
 21 39  1  0  0  0  0
 22 40  1  0  0  0  0
 22 41  1  0  0  0  0
M  END
> <s_m_source_file>
AV-unprocessed.smi

> <i_m_source_file_index>
1384

> <i_lp_mmshare_version>
43012

> <i_f3d_flags>
0

> <s_epik_input>
W0NIM11bQ0BASF0xW0NIMl1bQ0gyXVtDQEhdKFtDSDJdW0NIMl0xKVtOSF1DKD1PKVtDSDJdbjJbY0hdW2NIXVtjSF1jKEMoRikoRilGKWMyPU8=

> <s_epik_cmdline>
J2VwaWtfcHl0aG9uJywgJy1waCcsICc3LjAnLCAnLXRuJywgJzgnLCAnLW1hJywgJzIwMCcsICctbWV0YWxfYmluZGluZycsICctaW1hZScsICc8aW5maWxlLm1hZT4nLCAnLW9tYWUnLCAnPG91dGZpbGUubWFlPic=

> <r_lp_tautomer_probability>
1

> <r_epik_Ionization_Penalty>
2.11165e-08

> <r_epik_Ionization_Penalty_Charging>
2.06965e-09

> <r_epik_Ionization_Penalty_Neutral>
1.90469e-08

> <r_epik_State_Penalty>
-0

> <r_epik_Charging_Adjusted_Penalty>
2.06965e-09

> <i_epik_Tot_Q>
0

> <i_epik_Tot_abs_Q>
0

> <r_epik_Metal_State_Penalty>
-0

> <b_epik_Metal_Only>
0

> <s_lp_Force_Field>
OPLS_2005

> <r_lp_Energy>
18.7612

> <b_lp_Chiralities_Consistent>
1

> <s_lp_Variant>
AV-unprocessed.smi:1384-1

> <Gold.Version>
5.8.1

> <Gold.Id.Protein>
6NUR|6NUR_protein|mol2

> <Gold.PLP.Fitness>
51.5921

> <Gold.PLP.PLP>
-47.7376

> <Gold.PLP.part.hbond>
-2.0000

> <Gold.PLP.part.metal>
0.0000

> <Gold.PLP.part.buried>
2.8525

> <Gold.PLP.part.nonpolar>
-48.0555

> <Gold.PLP.part.repulsive>
0.1329

> <Gold.PLP.ligand.clash>
0.3144

> <Gold.PLP.ligand.torsion>
0.2001

> <Gold.PLP.Chemscore.Hbond>
1.4040

> <Gold.PLP.Chemscore.CHOScore>
0.0000

> <Gold.PLP.Chemscore.Metal>
0.0000

> <Gold.Chemscore.Hbonds>
donor molecule, donor type, donor heavy atom, donor atom, acceptor molecule, acceptor atom, score
      P1  H  7997  8009       L1    20  0.29

> <Gold.PLP.Chemscore.Internal.Correction>
0.3572

> <Gold.Rescore>
     Score         DG    S(hbond)    S(metal)    S(lipo)     H(rot)  DE(clash)    DE(int)     intcor
     10.68     -18.85       1.76        0.00      97.50       1.52       0.13       8.04       ----

> <Gold.Chemscore.Fitness>
10.6771

> <Gold.Chemscore.DG>
-18.8472

> <Gold.Chemscore.ZeroCoef>
-5.4800

> <Gold.Chemscore.Hbond>
1.7550

> <Gold.Chemscore.Metal>
0.0000

> <Gold.Chemscore.Lipo>
97.4976

> <Gold.Chemscore.Internal_Hbond>
0.0000

> <Gold.Chemscore.DEClash>
0.1260

> <Gold.Chemscore.DEInternal>
8.0441

> <Gold.Chemscore.Rot>
1.5242

> <Gold.Chemscore.Internal.Correction>
   9.000000E+99

> <Gold.Chemscore.Hbonds>
donor molecule, donor type, donor heavy atom, donor atom, acceptor molecule, acceptor atom, score
      L1  H     6    32       P1  8028  0.04
      P1  H  7997  8009       L1    20  0.29

> <Gold.Chemscore.Hbond.Weighted>
-5.8619

> <Gold.Chemscore.Metal.Weighted>
-0.0000

> <Gold.Chemscore.Lipo.Weighted>
-11.4072

> <Gold.Chemscore.Internal_Hbond.Weighted>
0.0000

> <Gold.Chemscore.DEClash.Weighted>
0.1260

> <Gold.Chemscore.DEInternal.Weighted>
8.0441

> <Gold.Chemscore.Rot.Weighted>
3.9019

> <Gold.Chemscore.Internal.Correction.Weighted>
   9.000000E+99

> <Gold.Protein.RotatedTorsions>
[ 6907 6896 6895 6894 ] final -158.44 input  -60.11 | X-H torsion
[ 7974 7965 7964 7962 ] final  148.48 input  175.53 | X-H torsion
[ 8008 7997 7996 7995 ] final  164.50 input   59.86 | X-H torsion
[ 10167 10162 10161 10158 ] final -112.86 input  -65.29 | X-H torsion
[ 10718 10713 10712 10709 ] final  156.92 input   66.30 | X-H torsion
[ 10763 10752 10751 10750 ] final   60.22 input  -60.55 | X-H torsion
[ 11005 11000 10999 10996 ] final   59.80 input  -57.11 | X-H torsion

> <Gold.Protein.ActiveResidues>
 VAL166  LYS551  ARG553  GLY616  TRP617  ASP618  TYR619  PRO620  LYS621  CYS622 
 ASP623  PHE694  ASN695  SER759  ASP760  ASP761  ALA762  ILE779  LEU786  VAL792 
 PHE793  MET794  SER795  GLU796  ALA797  LYS798  CYS799  TRP800  GLU811  SER814 

> <Gold.Protein.RotatedAtoms>
  151.3182  133.4051  159.2652 H   0  0  0  0  0  0  0  0  0  0  0  0  # atno 6907 bound_to 6896
  151.0057  134.9358  159.7989 H   0  0  0  0  0  0  0  0  0  0  0  0  # atno 6908 bound_to 6896
  152.5287  134.3147  159.9179 H   0  0  0  0  0  0  0  0  0  0  0  0  # atno 6909 bound_to 6896
  144.8511  139.6159  143.5973 H   0  0  0  0  0  0  0  0  0  0  0  0  # atno 7974 bound_to 7965
  156.1875  140.1695  156.8157 H   0  0  0  0  0  0  0  0  0  0  0  0  # atno 8008 bound_to 7997
  154.5431  140.0732  156.8576 H   0  0  0  0  0  0  0  0  0  0  0  0  # atno 8009 bound_to 7997
  155.3175  140.3371  155.4244 H   0  0  0  0  0  0  0  0  0  0  0  0  # atno 8010 bound_to 7997
  140.1182  143.4467  152.1708 H   0  0  0  0  0  0  0  0  0  0  0  0  # atno 10167 bound_to 10162
  157.1984  131.0671  151.2039 H   0  0  0  0  0  0  0  0  0  0  0  0  # atno 10718 bound_to 10713
  152.9915  135.5544  154.5839 H   0  0  0  0  0  0  0  0  0  0  0  0  # atno 10763 bound_to 10752
  154.5214  135.2808  155.1261 H   0  0  0  0  0  0  0  0  0  0  0  0  # atno 10764 bound_to 10752
  154.2612  135.6380  153.5328 H   0  0  0  0  0  0  0  0  0  0  0  0  # atno 10765 bound_to 10752
  140.0277  134.6058  155.9549 H   0  0  0  0  0  0  0  0  0  0  0  0  # atno 11005 bound_to 11000
  146.2785  139.6815  142.9246 LP  0  0  0  0  0  0  0  0  0  0  0  0  # atno 17320 bound_to 7965
  145.4498  141.0427  143.2810 LP  0  0  0  0  0  0  0  0  0  0  0  0  # atno 17321 bound_to 7965
  139.5583  144.7388  151.4230 LP  0  0  0  0  0  0  0  0  0  0  0  0  # atno 17342 bound_to 10162
  140.6887  143.7912  150.7224 LP  0  0  0  0  0  0  0  0  0  0  0  0  # atno 17343 bound_to 10162
  157.3791  130.7222  149.6617 LP  0  0  0  0  0  0  0  0  0  0  0  0  # atno 17370 bound_to 10713
  155.9703  130.4177  150.4294 LP  0  0  0  0  0  0  0  0  0  0  0  0  # atno 17371 bound_to 10713
  141.1813  133.6547  156.5031 LP  0  0  0  0  0  0  0  0  0  0  0  0  # atno 17394 bound_to 11000
  140.4278  134.7129  157.4925 LP  0  0  0  0  0  0  0  0  0  0  0  0  # atno 17395 bound_to 11000

$$$$
