AV-unprocessed.smi:13|AV-procd|sdf|70|dock5
  -GOLD-   2262015193D 1   1.00000     0.00000
 Structure written by MMmdl.
 54 58  0  0  0  0  0  0  0  0  1 V2000
  147.3414  134.8232  162.5976 C   0  0  0  0  0  0  0  0  0  0  0  0
  147.1479  135.9044  161.5260 C   0  0  0  0  0  0  0  0  0  0  0  0
  146.1163  136.8886  162.0765 C   0  0  0  0  0  0  0  0  0  0  0  0
  148.4389  136.5280  160.9735 C   0  0  0  0  0  0  0  0  0  0  0  0
  148.3408  135.5841  159.8718 N   0  0  0  0  0  0  0  0  0  0  0  0
  148.7156  136.0904  158.5990 C   0  0  0  0  0  0  0  0  0  0  0  0
  149.6108  135.3518  157.8962 N   0  0  0  0  0  0  0  0  0  0  0  0
  150.0176  135.7302  156.6816 C   0  0  0  0  0  0  0  0  0  0  0  0
  149.6599  136.8064  155.9816 N   0  0  0  0  0  0  0  0  0  0  0  0
  148.7591  137.5609  156.6714 C   0  0  0  0  0  0  0  0  0  0  0  0
  148.2416  137.2812  157.9691 C   0  0  0  0  0  0  0  0  0  0  0  0
  147.3469  138.2801  158.3383 N   0  0  0  0  0  0  0  0  0  0  0  0
  147.3383  139.0992  157.3231 C   0  0  0  0  0  0  0  0  0  0  0  0
  148.1521  138.7393  156.2739 N   0  0  0  0  0  0  0  0  0  0  0  0
  148.3290  139.4594  155.0224 C   0  0  0  0  0  0  0  0  0  0  0  0
  149.7334  140.0891  154.8734 C   0  0  2  0  0  0  0  0  0  0  0  0
  149.8501  140.6481  153.5760 O   0  0  0  0  0  0  0  0  0  0  0  0
  150.8848  139.1093  155.0837 C   0  0  0  0  0  0  0  0  0  0  0  0
  151.9756  139.9910  155.6747 C   0  0  0  0  0  0  0  0  0  0  0  0
  151.2470  140.8417  156.5430 O   0  0  0  0  0  0  0  0  0  0  0  0
  150.0225  141.1956  155.9077 C   0  0  0  0  0  0  0  0  0  0  0  0
  146.9057  135.4328  160.0766 C   0  0  1  0  0  0  0  0  0  0  0  0
  146.4359  134.0129  159.7577 C   0  0  2  0  0  0  0  0  0  0  0  0
  147.4080  132.9198  160.1974 C   0  0  0  0  0  0  0  0  0  0  0  0
  147.0561  131.7585  159.2850 C   0  0  0  0  0  0  0  0  0  0  0  0
  146.3550  132.4235  158.0968 C   0  0  0  0  0  0  0  0  0  0  0  0
  146.4081  133.8215  158.3524 O   0  0  0  0  0  0  0  0  0  0  0  0
  147.6768  135.2523  163.5422 H   0  0  0  0  0  0  0  0  0  0  0  0
  148.0902  134.0890  162.2991 H   0  0  0  0  0  0  0  0  0  0  0  0
  146.4155  134.2812  162.7921 H   0  0  0  0  0  0  0  0  0  0  0  0
  145.9279  137.7020  161.3750 H   0  0  0  0  0  0  0  0  0  0  0  0
  146.4503  137.3403  163.0110 H   0  0  0  0  0  0  0  0  0  0  0  0
  145.1605  136.3993  162.2671 H   0  0  0  0  0  0  0  0  0  0  0  0
  148.3277  137.5735  160.6856 H   0  0  0  0  0  0  0  0  0  0  0  0
  149.3169  136.3729  161.6011 H   0  0  0  0  0  0  0  0  0  0  0  0
  150.7292  135.0749  156.2016 H   0  0  0  0  0  0  0  0  0  0  0  0
  146.7287  139.9912  157.3083 H   0  0  0  0  0  0  0  0  0  0  0  0
  148.1304  138.7721  154.1987 H   0  0  0  0  0  0  0  0  0  0  0  0
  147.5637  140.2342  154.9637 H   0  0  0  0  0  0  0  0  0  0  0  0
  149.5819  139.9974  152.9453 H   0  0  0  0  0  0  0  0  0  0  0  0
  150.6087  138.3559  155.8223 H   0  0  0  0  0  0  0  0  0  0  0  0
  151.1938  138.5878  154.1766 H   0  0  0  0  0  0  0  0  0  0  0  0
  152.7358  139.4225  156.2107 H   0  0  0  0  0  0  0  0  0  0  0  0
  152.4654  140.5842  154.9008 H   0  0  0  0  0  0  0  0  0  0  0  0
  150.1227  142.1777  155.4428 H   0  0  0  0  0  0  0  0  0  0  0  0
  149.2401  141.2726  156.6631 H   0  0  0  0  0  0  0  0  0  0  0  0
  146.3360  136.1871  159.5328 H   0  0  0  0  0  0  0  0  0  0  0  0
  145.4403  133.8153  160.1597 H   0  0  0  0  0  0  0  0  0  0  0  0
  148.4367  133.2337  160.0144 H   0  0  0  0  0  0  0  0  0  0  0  0
  147.3151  132.6708  161.2548 H   0  0  0  0  0  0  0  0  0  0  0  0
  147.9442  131.2020  158.9836 H   0  0  0  0  0  0  0  0  0  0  0  0
  146.3775  131.0655  159.7836 H   0  0  0  0  0  0  0  0  0  0  0  0
  146.8367  132.1908  157.1470 H   0  0  0  0  0  0  0  0  0  0  0  0
  145.3134  132.1044  158.0371 H   0  0  0  0  0  0  0  0  0  0  0  0
  1  2  1  0  0  0  0
  1 28  1  0  0  0  0
  1 29  1  0  0  0  0
  1 30  1  0  0  0  0
  2 22  1  0  0  0  0
  2  3  1  0  0  0  0
  2  4  1  0  0  0  0
  3 31  1  0  0  0  0
  3 32  1  0  0  0  0
  3 33  1  0  0  0  0
  4  5  1  0  0  0  0
  4 34  1  0  0  0  0
  4 35  1  0  0  0  0
  5  6  1  0  0  0  0
  5 22  1  0  0  0  0
  6 11  1  0  0  0  0
  6  7  2  0  0  0  0
  7  8  1  0  0  0  0
  8  9  2  0  0  0  0
  8 36  1  0  0  0  0
  9 10  1  0  0  0  0
 10 14  1  0  0  0  0
 10 11  2  0  0  0  0
 11 12  1  0  0  0  0
 12 13  2  0  0  0  0
 13 14  1  0  0  0  0
 13 37  1  0  0  0  0
 14 15  1  0  0  0  0
 15 16  1  0  0  0  0
 15 38  1  0  0  0  0
 15 39  1  0  0  0  0
 16 21  1  0  0  0  0
 16 17  1  0  0  0  0
 16 18  1  0  0  0  0
 17 40  1  0  0  0  0
 18 19  1  0  0  0  0
 18 41  1  0  0  0  0
 18 42  1  0  0  0  0
 19 20  1  0  0  0  0
 19 43  1  0  0  0  0
 19 44  1  0  0  0  0
 20 21  1  0  0  0  0
 21 45  1  0  0  0  0
 21 46  1  0  0  0  0
 22 23  1  0  0  0  0
 22 47  1  0  0  0  0
 23 27  1  0  0  0  0
 23 24  1  0  0  0  0
 23 48  1  0  0  0  0
 24 25  1  0  0  0  0
 24 49  1  0  0  0  0
 24 50  1  0  0  0  0
 25 26  1  0  0  0  0
 25 51  1  0  0  0  0
 25 52  1  0  0  0  0
 26 27  1  0  0  0  0
 26 53  1  0  0  0  0
 26 54  1  0  0  0  0
M  END
> <s_m_source_file>
AV-unprocessed.smi

> <i_m_source_file_index>
13

> <i_lp_mmshare_version>
43012

> <i_f3d_flags>
0

> <s_epik_input>
TzFbQ0gyXVtDSDJdW0NIMl1bQ0BIXTFbQ0BASF0yTihbQ0gyXUMyKFtDSDNdKVtDSDNdKWMobltjSF1uMyljKGMzNCluW2NIXW40W0NIMl1bQ0BAXTUoW09IXSlbQ0gyXVtDSDJdT1tDSDJdNQ==

> <s_epik_cmdline>
J2VwaWtfcHl0aG9uJywgJy1waCcsICc3LjAnLCAnLXRuJywgJzgnLCAnLW1hJywgJzIwMCcsICctbWV0YWxfYmluZGluZycsICctaW1hZScsICc8aW5maWxlLm1hZT4nLCAnLW9tYWUnLCAnPG91dGZpbGUubWFlPic=

> <r_lp_tautomer_probability>
1

> <r_epik_Ionization_Penalty>
0.00202764

> <r_epik_Ionization_Penalty_Charging>
0

> <r_epik_Ionization_Penalty_Neutral>
0.00202764

> <r_epik_State_Penalty>
0.00134017

> <r_epik_Charging_Adjusted_Penalty>
0.00134017

> <i_epik_Tot_Q>
0

> <i_epik_Tot_abs_Q>
0

> <r_epik_Metal_State_Penalty>
-0

> <b_epik_Metal_Only>
0

> <s_lp_Force_Field>
OPLS_2005

> <r_lp_Energy>
60.4811

> <b_lp_Chiralities_Consistent>
1

> <s_lp_Variant>
AV-unprocessed.smi:13-2

> <Gold.Version>
5.8.1

> <Gold.Id.Protein>
6NUR|6NUR_protein|mol2

> <Gold.PLP.Fitness>
39.8570

> <Gold.PLP.PLP>
-31.4396

> <Gold.PLP.part.hbond>
-4.3158

> <Gold.PLP.part.metal>
0.0000

> <Gold.PLP.part.buried>
-2.0765

> <Gold.PLP.part.nonpolar>
-24.4156

> <Gold.PLP.part.repulsive>
0.0686

> <Gold.PLP.ligand.clash>
0.0000

> <Gold.PLP.ligand.torsion>
0.3816

> <Gold.PLP.Chemscore.Hbond>
2.9084

> <Gold.PLP.Chemscore.CHOScore>
0.0000

> <Gold.PLP.Chemscore.Metal>
0.0000

> <Gold.Chemscore.Hbonds>
donor molecule, donor type, donor heavy atom, donor atom, acceptor molecule, acceptor atom, score
      L1  H    17    40       P1  7957  0.61
      P1  H  6896  6907       L1     7  0.73
      P1  H  7989  7998       L1    17  0.45
      P1  H  8011  8017       L1    17  0.68

> <Gold.PLP.Chemscore.Internal.Correction>
0.4555

> <Gold.Rescore>
     Score         DG    S(hbond)    S(metal)    S(lipo)     H(rot)  DE(clash)    DE(int)     intcor
     12.64     -14.60       1.99        0.00      71.51       2.30       0.16       1.79       ----

> <Gold.Chemscore.Fitness>
12.6440

> <Gold.Chemscore.DG>
-14.5965

> <Gold.Chemscore.ZeroCoef>
-5.4800

> <Gold.Chemscore.Hbond>
1.9870

> <Gold.Chemscore.Metal>
0.0000

> <Gold.Chemscore.Lipo>
71.5119

> <Gold.Chemscore.Internal_Hbond>
0.0000

> <Gold.Chemscore.DEClash>
0.1647

> <Gold.Chemscore.DEInternal>
1.7878

> <Gold.Chemscore.Rot>
2.2996

> <Gold.Chemscore.Internal.Correction>
   9.000000E+99

> <Gold.Chemscore.Hbonds>
donor molecule, donor type, donor heavy atom, donor atom, acceptor molecule, acceptor atom, score
      L1  H    17    40       P1  7957  0.60
      P1  H  6896  6907       L1     7  0.14
      P1  H  7989  7998       L1    17  0.11
      P1  H  8011  8017       L1    17  0.17

> <Gold.Chemscore.Hbond.Weighted>
-6.6366

> <Gold.Chemscore.Metal.Weighted>
-0.0000

> <Gold.Chemscore.Lipo.Weighted>
-8.3669

> <Gold.Chemscore.Internal_Hbond.Weighted>
0.0000

> <Gold.Chemscore.DEClash.Weighted>
0.1647

> <Gold.Chemscore.DEInternal.Weighted>
1.7878

> <Gold.Chemscore.Rot.Weighted>
5.8869

> <Gold.Chemscore.Internal.Correction.Weighted>
   9.000000E+99

> <Gold.Protein.RotatedTorsions>
[ 6907 6896 6895 6894 ] final  -69.01 input  -60.11 | X-H torsion
[ 7974 7965 7964 7962 ] final  -40.89 input  175.53 | X-H torsion
[ 8008 7997 7996 7995 ] final  167.94 input   59.86 | X-H torsion
[ 10167 10162 10161 10158 ] final   74.45 input  -65.29 | X-H torsion
[ 10718 10713 10712 10709 ] final -172.31 input   66.30 | X-H torsion
[ 10763 10752 10751 10750 ] final -143.36 input  -60.55 | X-H torsion
[ 11005 11000 10999 10996 ] final -115.99 input  -57.11 | X-H torsion

> <Gold.Protein.ActiveResidues>
 VAL166  LYS551  ARG553  GLY616  TRP617  ASP618  TYR619  PRO620  LYS621  CYS622 
 ASP623  PHE694  ASN695  SER759  ASP760  ASP761  ALA762  ILE779  LEU786  VAL792 
 PHE793  MET794  SER795  GLU796  ALA797  LYS798  CYS799  TRP800  GLU811  SER814 

> <Gold.Protein.RotatedAtoms>
  150.7327  134.5657  159.5864 H   0  0  0  0  0  0  0  0  0  0  0  0  # atno 6907 bound_to 6896
  152.3109  134.7495  160.0345 H   0  0  0  0  0  0  0  0  0  0  0  0  # atno 6908 bound_to 6896
  151.8044  133.3338  159.3573 H   0  0  0  0  0  0  0  0  0  0  0  0  # atno 6909 bound_to 6896
  146.0262  140.6788  142.9154 H   0  0  0  0  0  0  0  0  0  0  0  0  # atno 7974 bound_to 7965
  156.1590  140.1603  156.8643 H   0  0  0  0  0  0  0  0  0  0  0  0  # atno 8008 bound_to 7997
  154.5143  140.0793  156.8086 H   0  0  0  0  0  0  0  0  0  0  0  0  # atno 8009 bound_to 7997
  155.3745  140.3402  155.4246 H   0  0  0  0  0  0  0  0  0  0  0  0  # atno 8010 bound_to 7997
  140.0136  144.5595  150.7638 H   0  0  0  0  0  0  0  0  0  0  0  0  # atno 10167 bound_to 10162
  156.7536  130.9387  151.3115 H   0  0  0  0  0  0  0  0  0  0  0  0  # atno 10718 bound_to 10713
  154.8473  135.3470  154.6175 H   0  0  0  0  0  0  0  0  0  0  0  0  # atno 10763 bound_to 10752
  153.6784  135.6981  153.5130 H   0  0  0  0  0  0  0  0  0  0  0  0  # atno 10764 bound_to 10752
  153.2687  135.4299  155.0923 H   0  0  0  0  0  0  0  0  0  0  0  0  # atno 10765 bound_to 10752
  141.0451  133.9774  157.2930 H   0  0  0  0  0  0  0  0  0  0  0  0  # atno 11005 bound_to 11000
  144.7010  140.3654  143.7155 LP  0  0  0  0  0  0  0  0  0  0  0  0  # atno 17320 bound_to 7965
  145.7114  139.1685  143.2537 LP  0  0  0  0  0  0  0  0  0  0  0  0  # atno 17321 bound_to 7965
  140.7371  143.2762  151.3736 LP  0  0  0  0  0  0  0  0  0  0  0  0  # atno 17342 bound_to 10162
  139.6188  144.0949  152.2371 LP  0  0  0  0  0  0  0  0  0  0  0  0  # atno 17343 bound_to 10162
  157.6766  130.9100  150.0165 LP  0  0  0  0  0  0  0  0  0  0  0  0  # atno 17370 bound_to 10713
  156.1385  130.3642  149.9620 LP  0  0  0  0  0  0  0  0  0  0  0  0  # atno 17371 bound_to 10713
  139.9306  135.0200  156.8386 LP  0  0  0  0  0  0  0  0  0  0  0  0  # atno 17394 bound_to 11000
  140.6161  134.0037  155.7598 LP  0  0  0  0  0  0  0  0  0  0  0  0  # atno 17395 bound_to 11000

$$$$
