AV-unprocessed.smi:1320|AV-procd|sdf|5461|dock1
  -GOLD-   22720 5 33D 1   1.00000     0.00000
 Structure written by MMmdl.
 37 38  0  0  0  0  0  0  0  0  2 V2000
  153.1845  139.7259  157.2241 O   0  0  0  0  0  0  0  0  0  0  0  0
  152.0597  140.1650  157.4559 C   0  0  0  0  0  0  0  0  0  0  0  0
  150.9373  139.6410  156.9328 N   0  0  0  0  0  0  0  0  0  0  0  0
  150.8746  138.4869  156.0395 C   0  0  0  0  0  0  0  0  0  0  0  0
  150.8146  138.8813  154.5503 C   0  0  0  0  0  0  0  0  0  0  0  0
  149.4964  139.5087  154.1310 C   0  0  0  0  0  0  0  0  0  0  0  0
  149.1041  140.7893  154.5765 C   0  0  0  0  0  0  0  0  0  0  0  0
  147.8539  141.3053  154.1768 C   0  0  0  0  0  0  0  0  0  0  0  0
  147.0222  140.5306  153.3418 C   0  0  0  0  0  0  0  0  0  0  0  0
  147.4628  139.2576  152.9269 C   0  0  0  0  0  0  0  0  0  0  0  0
  148.6679  138.7989  153.3302 N   0  3  0  0  0  0  0  0  0  0  0  0
  151.8639  141.2263  158.2580 N   0  0  0  0  0  0  0  0  0  0  0  0
  152.8688  142.0156  158.9744 C   0  0  0  0  0  0  0  0  0  0  0  0
  153.5181  141.1803  160.0947 C   0  0  0  0  0  0  0  0  0  0  0  0
  153.5210  142.0701  161.3381 C   0  0  0  0  0  0  0  0  0  0  0  0
  152.2912  142.9553  161.1676 C   0  0  0  0  0  0  0  0  0  0  0  0
  152.2421  143.2438  159.6668 C   0  0  0  0  0  0  0  0  0  0  0  0
  150.0573  140.0644  157.1900 H   0  0  0  0  0  0  0  0  0  0  0  0
  151.7191  137.8187  156.2162 H   0  0  0  0  0  0  0  0  0  0  0  0
  149.9817  137.9172  156.2970 H   0  0  0  0  0  0  0  0  0  0  0  0
  151.6188  139.5842  154.3293 H   0  0  0  0  0  0  0  0  0  0  0  0
  151.0042  138.0040  153.9300 H   0  0  0  0  0  0  0  0  0  0  0  0
  149.7481  141.3662  155.2242 H   0  0  0  0  0  0  0  0  0  0  0  0
  147.5352  142.2819  154.5102 H   0  0  0  0  0  0  0  0  0  0  0  0
  146.0596  140.9069  153.0273 H   0  0  0  0  0  0  0  0  0  0  0  0
  146.8913  138.5960  152.2924 H   0  0  0  0  0  0  0  0  0  0  0  0
  150.9050  141.5104  158.3990 H   0  0  0  0  0  0  0  0  0  0  0  0
  153.6483  142.3430  158.2842 H   0  0  0  0  0  0  0  0  0  0  0  0
  152.9253  140.2879  160.3025 H   0  0  0  0  0  0  0  0  0  0  0  0
  154.5215  140.8448  159.8311 H   0  0  0  0  0  0  0  0  0  0  0  0
  153.5015  141.4958  162.2647 H   0  0  0  0  0  0  0  0  0  0  0  0
  154.4201  142.6878  161.3470 H   0  0  0  0  0  0  0  0  0  0  0  0
  151.3984  142.4041  161.4655 H   0  0  0  0  0  0  0  0  0  0  0  0
  152.3392  143.8635  161.7689 H   0  0  0  0  0  0  0  0  0  0  0  0
  152.8478  144.1247  159.4505 H   0  0  0  0  0  0  0  0  0  0  0  0
  151.2281  143.4644  159.3303 H   0  0  0  0  0  0  0  0  0  0  0  0
  148.9633  137.8718  153.0236 H   0  0  0  0  0  0  0  0  0  0  0  0
  1  2  2  0  0  0  0
  2  3  1  0  0  0  0
  2 12  1  0  0  0  0
  3  4  1  0  0  0  0
  3 18  1  0  0  0  0
  4  5  1  0  0  0  0
  4 19  1  0  0  0  0
  4 20  1  0  0  0  0
  5  6  1  0  0  0  0
  5 21  1  0  0  0  0
  5 22  1  0  0  0  0
  6 11  1  0  0  0  0
  6  7  2  0  0  0  0
  7  8  1  0  0  0  0
  7 23  1  0  0  0  0
  8  9  2  0  0  0  0
  8 24  1  0  0  0  0
  9 10  1  0  0  0  0
  9 25  1  0  0  0  0
 10 11  2  0  0  0  0
 10 26  1  0  0  0  0
 11 37  1  0  0  0  0
 12 13  1  0  0  0  0
 12 27  1  0  0  0  0
 13 17  1  0  0  0  0
 13 14  1  0  0  0  0
 13 28  1  0  0  0  0
 14 15  1  0  0  0  0
 14 29  1  0  0  0  0
 14 30  1  0  0  0  0
 15 16  1  0  0  0  0
 15 31  1  0  0  0  0
 15 32  1  0  0  0  0
 16 17  1  0  0  0  0
 16 33  1  0  0  0  0
 16 34  1  0  0  0  0
 17 35  1  0  0  0  0
 17 36  1  0  0  0  0
M  CHG  1  11   1
M  END
> <s_m_source_file>
AV-unprocessed.smi

> <i_m_source_file_index>
1320

> <i_lp_mmshare_version>
43012

> <i_f3d_flags>
0

> <s_epik_input>
W0NIMl0xW0NIMl1bQ0gyXVtDSDJdW0NIXTFbTkhdQyg9TylbTkhdW0NIMl1bQ0gyXWMyW2NIXVtjSF1bY0hdW2NIXW4y

> <s_epik_cmdline>
J2VwaWtfcHl0aG9uJywgJy1waCcsICc3LjAnLCAnLXRuJywgJzgnLCAnLW1hJywgJzIwMCcsICctbWV0YWxfYmluZGluZycsICctaW1hZScsICc8aW5maWxlLm1hZT4nLCAnLW9tYWUnLCAnPG91dGZpbGUubWFlPic=

> <r_epik_Ionization_Penalty>
1.56194

> <r_epik_Ionization_Penalty_Charging>
1.56188

> <r_epik_Ionization_Penalty_Neutral>
5.76468e-05

> <r_epik_State_Penalty>
1.65696

> <r_epik_Charging_Adjusted_Penalty>
3.21884

> <i_epik_Tot_Q>
1

> <i_epik_Tot_abs_Q>
1

> <r_epik_Metal_State_Penalty>
1.69837

> <b_epik_Metal_Only>
0

> <s_lp_Force_Field>
OPLS_2005

> <r_lp_Energy>
32.6171

> <b_lp_Chiralities_Consistent>
1

> <s_lp_Variant>
AV-unprocessed.smi:1320-2

> <Gold.Version>
5.8.1

> <Gold.Id.Protein>
6NUR|6NUR_protein|mol2

> <Gold.PLP.Fitness>
47.1147

> <Gold.PLP.PLP>
-38.7791

> <Gold.PLP.part.hbond>
-3.0000

> <Gold.PLP.part.metal>
0.0000

> <Gold.PLP.part.buried>
-1.3981

> <Gold.PLP.part.nonpolar>
-34.4398

> <Gold.PLP.part.repulsive>
0.1754

> <Gold.PLP.ligand.clash>
0.0000

> <Gold.PLP.ligand.torsion>
0.3385

> <Gold.PLP.Chemscore.Hbond>
3.0000

> <Gold.PLP.Chemscore.CHOScore>
0.0000

> <Gold.PLP.Chemscore.Metal>
0.0000

> <Gold.Chemscore.Hbonds>
donor molecule, donor type, donor heavy atom, donor atom, acceptor molecule, acceptor atom, score
      L1  H    11    37       P1  7948  2.00
      P1  H  7997  8008       L1     1  0.59

> <Gold.PLP.Chemscore.Internal.Correction>
0.0125

> <Gold.Rescore>
     Score         DG    S(hbond)    S(metal)    S(lipo)     H(rot)  DE(clash)    DE(int)     intcor
     19.43     -19.75       1.96        0.00     100.77       1.59       0.10       0.23       ----

> <Gold.Chemscore.Fitness>
19.4285

> <Gold.Chemscore.DG>
-19.7496

> <Gold.Chemscore.ZeroCoef>
-5.4800

> <Gold.Chemscore.Hbond>
1.9634

> <Gold.Chemscore.Metal>
0.0000

> <Gold.Chemscore.Lipo>
100.7721

> <Gold.Chemscore.Internal_Hbond>
0.0000

> <Gold.Chemscore.DEClash>
0.0955

> <Gold.Chemscore.DEInternal>
0.2257

> <Gold.Chemscore.Rot>
1.5932

> <Gold.Chemscore.Internal.Correction>
   9.000000E+99

> <Gold.Chemscore.Hbonds>
donor molecule, donor type, donor heavy atom, donor atom, acceptor molecule, acceptor atom, score
      L1  H    11    37       P1  7948  0.96
      P1  H  7997  8008       L1     1  0.58

> <Gold.Chemscore.Hbond.Weighted>
-6.5578

> <Gold.Chemscore.Metal.Weighted>
-0.0000

> <Gold.Chemscore.Lipo.Weighted>
-11.7903

> <Gold.Chemscore.Internal_Hbond.Weighted>
0.0000

> <Gold.Chemscore.DEClash.Weighted>
0.0955

> <Gold.Chemscore.DEInternal.Weighted>
0.2257

> <Gold.Chemscore.Rot.Weighted>
4.0785

> <Gold.Chemscore.Internal.Correction.Weighted>
   9.000000E+99

> <Gold.Protein.RotatedTorsions>
[ 6907 6896 6895 6894 ] final   75.30 input  -60.11 | X-H torsion
[ 7974 7965 7964 7962 ] final   29.57 input  175.53 | X-H torsion
[ 8008 7997 7996 7995 ] final  -70.90 input   59.86 | X-H torsion
[ 10167 10162 10161 10158 ] final  104.55 input  -65.29 | X-H torsion
[ 10718 10713 10712 10709 ] final -132.52 input   66.30 | X-H torsion
[ 10763 10752 10751 10750 ] final -159.97 input  -60.55 | X-H torsion
[ 11005 11000 10999 10996 ] final   96.44 input  -57.11 | X-H torsion

> <Gold.Protein.ActiveResidues>
 VAL166  LYS551  ARG553  GLY616  TRP617  ASP618  TYR619  PRO620  LYS621  CYS622 
 ASP623  PHE694  ASN695  SER759  ASP760  ASP761  ALA762  ILE779  LEU786  VAL792 
 PHE793  MET794  SER795  GLU796  ALA797  LYS798  CYS799  TRP800  GLU811  SER814 

> <Gold.Protein.RotatedAtoms>
  152.5019  134.4142  159.9458 H   0  0  0  0  0  0  0  0  0  0  0  0  # atno 6907 bound_to 6896
  151.4111  133.3721  159.2752 H   0  0  0  0  0  0  0  0  0  0  0  0  # atno 6908 bound_to 6896
  150.9291  134.8728  159.7598 H   0  0  0  0  0  0  0  0  0  0  0  0  # atno 6909 bound_to 6896
  146.1663  139.6904  142.8998 H   0  0  0  0  0  0  0  0  0  0  0  0  # atno 7974 bound_to 7965
  154.5047  140.0825  156.7870 H   0  0  0  0  0  0  0  0  0  0  0  0  # atno 8008 bound_to 7997
  155.3921  140.3433  155.4234 H   0  0  0  0  0  0  0  0  0  0  0  0  # atno 8009 bound_to 7997
  156.1500  140.1555  156.8772 H   0  0  0  0  0  0  0  0  0  0  0  0  # atno 8010 bound_to 7997
  139.7168  144.7066  151.0937 H   0  0  0  0  0  0  0  0  0  0  0  0  # atno 10167 bound_to 10162
  156.2354  130.7063  151.0902 H   0  0  0  0  0  0  0  0  0  0  0  0  # atno 10718 bound_to 10713
  154.7430  135.3073  154.8694 H   0  0  0  0  0  0  0  0  0  0  0  0  # atno 10763 bound_to 10752
  153.9503  135.6764  153.4748 H   0  0  0  0  0  0  0  0  0  0  0  0  # atno 10764 bound_to 10752
  153.1028  135.4903  154.8823 H   0  0  0  0  0  0  0  0  0  0  0  0  # atno 10765 bound_to 10752
  139.8781  134.8951  156.4159 H   0  0  0  0  0  0  0  0  0  0  0  0  # atno 11005 bound_to 11000
  145.4458  141.0425  143.2832 LP  0  0  0  0  0  0  0  0  0  0  0  0  # atno 17320 bound_to 7965
  144.8098  139.5984  143.7035 LP  0  0  0  0  0  0  0  0  0  0  0  0  # atno 17321 bound_to 7965
  140.7745  143.5219  150.9526 LP  0  0  0  0  0  0  0  0  0  0  0  0  # atno 17342 bound_to 10162
  139.8905  143.6959  152.3146 LP  0  0  0  0  0  0  0  0  0  0  0  0  # atno 17343 bound_to 10162
  157.7152  131.0713  150.6354 LP  0  0  0  0  0  0  0  0  0  0  0  0  # atno 17370 bound_to 10713
  156.6424  130.4462  149.5748 LP  0  0  0  0  0  0  0  0  0  0  0  0  # atno 17371 bound_to 10713
  140.9168  133.7673  155.9857 LP  0  0  0  0  0  0  0  0  0  0  0  0  # atno 17394 bound_to 11000
  140.8485  134.2982  157.5285 LP  0  0  0  0  0  0  0  0  0  0  0  0  # atno 17395 bound_to 11000

$$$$
