AV-unprocessed.smi:3116|AV-procd|sdf|11872|dock8
  -GOLD-   2272017253D 1   1.00000     0.00000
 Structure written by MMmdl.
 33 33  0  0  0  0  0  0  0  0  1 V2000
  148.5647  141.4606  154.6010 C   0  0  0  0  0  0  0  0  0  0  0  0
  149.3714  140.3328  155.2626 C   0  0  2  0  0  0  0  0  0  0  0  0
  150.5514  140.8994  155.9377 N   0  0  0  0  0  0  0  0  0  0  0  0
  150.2659  141.8738  156.9921 C   0  0  1  0  0  0  0  0  0  0  0  0
  149.0789  141.3504  157.8204 C   0  0  0  0  0  0  0  0  0  0  0  0
  151.5346  142.1326  157.8482 C   0  0  2  0  0  0  0  0  0  0  0  0
  151.9451  140.9208  158.7048 C   0  0  0  0  0  0  0  0  0  0  0  0
  151.4536  143.3510  158.6497 N   0  0  0  0  0  0  0  0  0  0  0  0
  151.1280  144.6337  158.2533 C   0  0  0  0  0  0  0  0  0  0  0  0
  151.2086  145.4372  159.3539 C   0  0  0  0  0  0  0  0  0  0  0  0
  151.6007  144.5477  160.3920 C   0  0  0  0  0  0  0  0  0  0  0  0
  151.7494  143.3036  159.9681 N   0  0  0  0  0  0  0  0  0  0  0  0
  149.7300  139.2522  154.2297 C   0  0  0  0  0  0  0  0  0  0  0  0
  148.7190  138.6604  153.5890 N   0  0  0  0  0  0  0  0  0  0  0  0
  150.9032  138.9455  154.0256 O   0  0  0  0  0  0  0  0  0  0  0  0
  147.6706  141.0739  154.1104 H   0  0  0  0  0  0  0  0  0  0  0  0
  149.1534  141.9908  153.8510 H   0  0  0  0  0  0  0  0  0  0  0  0
  148.2392  142.1923  155.3413 H   0  0  0  0  0  0  0  0  0  0  0  0
  148.7348  139.8829  156.0267 H   0  0  0  0  0  0  0  0  0  0  0  0
  151.1662  140.1785  156.2883 H   0  0  0  0  0  0  0  0  0  0  0  0
  149.9752  142.8318  156.5588 H   0  0  0  0  0  0  0  0  0  0  0  0
  148.8506  142.0283  158.6431 H   0  0  0  0  0  0  0  0  0  0  0  0
  149.2825  140.3680  158.2481 H   0  0  0  0  0  0  0  0  0  0  0  0
  148.1781  141.2633  157.2127 H   0  0  0  0  0  0  0  0  0  0  0  0
  152.3531  142.2793  157.1408 H   0  0  0  0  0  0  0  0  0  0  0  0
  152.0882  140.0353  158.0850 H   0  0  0  0  0  0  0  0  0  0  0  0
  151.1932  140.6789  159.4560 H   0  0  0  0  0  0  0  0  0  0  0  0
  152.8837  141.1121  159.2259 H   0  0  0  0  0  0  0  0  0  0  0  0
  150.8704  144.8669  157.2307 H   0  0  0  0  0  0  0  0  0  0  0  0
  151.0191  146.4988  159.4088 H   0  0  0  0  0  0  0  0  0  0  0  0
  151.7826  144.7678  161.4335 H   0  0  0  0  0  0  0  0  0  0  0  0
  148.9064  137.9442  152.9025 H   0  0  0  0  0  0  0  0  0  0  0  0
  147.7686  138.9321  153.7953 H   0  0  0  0  0  0  0  0  0  0  0  0
  1  2  1  0  0  0  0
  1 16  1  0  0  0  0
  1 17  1  0  0  0  0
  1 18  1  0  0  0  0
  2  3  1  0  0  0  0
  2 13  1  0  0  0  0
  2 19  1  0  0  0  0
  3  4  1  0  0  0  0
  3 20  1  0  0  0  0
  4  5  1  0  0  0  0
  4  6  1  0  0  0  0
  4 21  1  0  0  0  0
  5 22  1  0  0  0  0
  5 23  1  0  0  0  0
  5 24  1  0  0  0  0
  6  7  1  0  0  0  0
  6  8  1  0  0  0  0
  6 25  1  0  0  0  0
  7 26  1  0  0  0  0
  7 27  1  0  0  0  0
  7 28  1  0  0  0  0
  8 12  1  0  0  0  0
  8  9  1  0  0  0  0
  9 10  2  0  0  0  0
  9 29  1  0  0  0  0
 10 11  1  0  0  0  0
 10 30  1  0  0  0  0
 11 12  2  0  0  0  0
 11 31  1  0  0  0  0
 13 14  1  0  0  0  0
 13 15  2  0  0  0  0
 14 32  1  0  0  0  0
 14 33  1  0  0  0  0
M  END
> <s_m_source_file>
AV-unprocessed.smi

> <i_m_source_file_index>
3116

> <i_lp_mmshare_version>
43012

> <i_f3d_flags>
0

> <s_epik_input>
W05IMl1DKD1PKVtDQEhdKFtDSDNdKVtOSF1bQ0BIXShbQ0gzXSlbQ0BIXShbQ0gzXSluMVtjSF1bY0hdW2NIXW4x

> <s_epik_cmdline>
J2VwaWtfcHl0aG9uJywgJy1waCcsICc3LjAnLCAnLXRuJywgJzgnLCAnLW1hJywgJzIwMCcsICctbWV0YWxfYmluZGluZycsICctaW1hZScsICc8aW5maWxlLm1hZT4nLCAnLW9tYWUnLCAnPG91dGZpbGUubWFlPic=

> <r_lp_tautomer_probability>
1

> <r_epik_Ionization_Penalty>
0.865977

> <r_epik_Ionization_Penalty_Charging>
0

> <r_epik_Ionization_Penalty_Neutral>
0.865977

> <r_epik_State_Penalty>
0.901888

> <r_epik_Charging_Adjusted_Penalty>
0.901888

> <i_epik_Tot_Q>
0

> <i_epik_Tot_abs_Q>
0

> <r_epik_Metal_State_Penalty>
0.901181

> <b_epik_Metal_Only>
0

> <s_lp_Force_Field>
OPLS_2005

> <r_lp_Energy>
10.1697

> <b_lp_Chiralities_Consistent>
1

> <s_lp_Variant>
AV-unprocessed.smi:3116-11

> <Gold.Version>
5.8.1

> <Gold.Id.Protein>
6NUR|6NUR_protein|mol2

> <Gold.PLP.Fitness>
38.2552

> <Gold.PLP.PLP>
-29.9827

> <Gold.PLP.part.hbond>
-3.0000

> <Gold.PLP.part.metal>
0.0000

> <Gold.PLP.part.buried>
-3.7330

> <Gold.PLP.part.nonpolar>
-24.4022

> <Gold.PLP.part.repulsive>
0.3042

> <Gold.PLP.ligand.clash>
0.0000

> <Gold.PLP.ligand.torsion>
0.3791

> <Gold.PLP.Chemscore.Hbond>
1.9500

> <Gold.PLP.Chemscore.CHOScore>
1.0000

> <Gold.PLP.Chemscore.Metal>
0.0000

> <Gold.Chemscore.Hbonds>
donor molecule, donor type, donor heavy atom, donor atom, acceptor molecule, acceptor atom, score
      L1  H    14    32       P1  7948  1.00
      P1  H  7989  7998       L1    15  0.76
      L1  C     9    29       P1  8028  1.00

> <Gold.PLP.Chemscore.Internal.Correction>
0.1807

> <Gold.Rescore>
     Score         DG    S(hbond)    S(metal)    S(lipo)     H(rot)  DE(clash)    DE(int)     intcor
     12.46     -13.39       1.76        0.00      69.44       2.38       0.34       0.59       ----

> <Gold.Chemscore.Fitness>
12.4629

> <Gold.Chemscore.DG>
-13.3925

> <Gold.Chemscore.ZeroCoef>
-5.4800

> <Gold.Chemscore.Hbond>
1.7634

> <Gold.Chemscore.Metal>
0.0000

> <Gold.Chemscore.Lipo>
69.4402

> <Gold.Chemscore.Internal_Hbond>
0.0000

> <Gold.Chemscore.DEClash>
0.3428

> <Gold.Chemscore.DEInternal>
0.5868

> <Gold.Chemscore.Rot>
2.3836

> <Gold.Chemscore.Internal.Correction>
   9.000000E+99

> <Gold.Chemscore.Hbonds>
donor molecule, donor type, donor heavy atom, donor atom, acceptor molecule, acceptor atom, score
      L1  H    14    32       P1  7948  0.98
      P1  H  7989  7998       L1    15  0.17

> <Gold.Chemscore.Hbond.Weighted>
-5.8899

> <Gold.Chemscore.Metal.Weighted>
-0.0000

> <Gold.Chemscore.Lipo.Weighted>
-8.1245

> <Gold.Chemscore.Internal_Hbond.Weighted>
0.0000

> <Gold.Chemscore.DEClash.Weighted>
0.3428

> <Gold.Chemscore.DEInternal.Weighted>
0.5868

> <Gold.Chemscore.Rot.Weighted>
6.1020

> <Gold.Chemscore.Internal.Correction.Weighted>
   9.000000E+99

> <Gold.Protein.RotatedTorsions>
[ 6907 6896 6895 6894 ] final   58.47 input  -60.11 | X-H torsion
[ 7974 7965 7964 7962 ] final   15.82 input  175.53 | X-H torsion
[ 8008 7997 7996 7995 ] final -146.57 input   59.86 | X-H torsion
[ 10167 10162 10161 10158 ] final  -91.13 input  -65.29 | X-H torsion
[ 10718 10713 10712 10709 ] final -150.67 input   66.30 | X-H torsion
[ 10763 10752 10751 10750 ] final  -55.39 input  -60.55 | X-H torsion
[ 11005 11000 10999 10996 ] final   61.92 input  -57.11 | X-H torsion

> <Gold.Protein.ActiveResidues>
 VAL166  LYS551  ARG553  GLY616  TRP617  ASP618  TYR619  PRO620  LYS621  CYS622 
 ASP623  PHE694  ASN695  SER759  ASP760  ASP761  ALA762  ILE779  LEU786  VAL792 
 PHE793  MET794  SER795  GLU796  ALA797  LYS798  CYS799  TRP800  GLU811  SER814 

> <Gold.Protein.RotatedAtoms>
  152.3827  134.6565  160.0136 H   0  0  0  0  0  0  0  0  0  0  0  0  # atno 6907 bound_to 6896
  151.6824  133.3306  159.3230 H   0  0  0  0  0  0  0  0  0  0  0  0  # atno 6908 bound_to 6896
  150.7760  134.6705  159.6434 H   0  0  0  0  0  0  0  0  0  0  0  0  # atno 6909 bound_to 6896
  146.2267  139.8838  142.8566 H   0  0  0  0  0  0  0  0  0  0  0  0  # atno 7974 bound_to 7965
  155.5616  140.0626  157.2827 H   0  0  0  0  0  0  0  0  0  0  0  0  # atno 8008 bound_to 7997
  154.4389  140.1885  156.0833 H   0  0  0  0  0  0  0  0  0  0  0  0  # atno 8009 bound_to 7997
  156.0443  140.3292  155.7282 H   0  0  0  0  0  0  0  0  0  0  0  0  # atno 8010 bound_to 7997
  140.3479  143.2906  151.9759 H   0  0  0  0  0  0  0  0  0  0  0  0  # atno 10167 bound_to 10162
  156.4491  130.8159  151.2390 H   0  0  0  0  0  0  0  0  0  0  0  0  # atno 10718 bound_to 10713
  154.1900  135.6429  153.5057 H   0  0  0  0  0  0  0  0  0  0  0  0  # atno 10763 bound_to 10752
  153.0037  135.5426  154.6425 H   0  0  0  0  0  0  0  0  0  0  0  0  # atno 10764 bound_to 10752
  154.5811  135.2925  155.0704 H   0  0  0  0  0  0  0  0  0  0  0  0  # atno 10765 bound_to 10752
  140.0127  134.6271  155.9755 H   0  0  0  0  0  0  0  0  0  0  0  0  # atno 11005 bound_to 11000
  145.2485  141.0035  143.3894 LP  0  0  0  0  0  0  0  0  0  0  0  0  # atno 17320 bound_to 7965
  144.9393  139.4207  143.6456 LP  0  0  0  0  0  0  0  0  0  0  0  0  # atno 17321 bound_to 7965
  139.4830  144.6101  151.7450 LP  0  0  0  0  0  0  0  0  0  0  0  0  # atno 17342 bound_to 10162
  140.5246  144.0825  150.6033 LP  0  0  0  0  0  0  0  0  0  0  0  0  # atno 17343 bound_to 10162
  157.7503  131.0143  150.3461 LP  0  0  0  0  0  0  0  0  0  0  0  0  # atno 17370 bound_to 10713
  156.3835  130.3885  149.7083 LP  0  0  0  0  0  0  0  0  0  0  0  0  # atno 17371 bound_to 10713
  141.1722  133.6538  156.4694 LP  0  0  0  0  0  0  0  0  0  0  0  0  # atno 17394 bound_to 11000
  140.4525  134.6916  157.5046 LP  0  0  0  0  0  0  0  0  0  0  0  0  # atno 17395 bound_to 11000

$$$$
