AV-unprocessed.smi:1258|AV-procd|sdf|5288|dock3
  -GOLD-   22720 4403D 1   1.00000     0.00000
 Structure written by MMmdl.
 33 34  0  0  0  0  0  0  0  0  1 V2000
  153.4183  141.7139  160.8975 C   0  0  0  0  0  0  0  0  0  0  0  0
  152.4446  142.4686  159.9812 C   0  0  1  0  0  0  0  0  0  0  0  0
  153.0946  143.7331  159.3879 C   0  0  0  0  0  0  0  0  0  0  0  0
  152.1218  144.4881  158.4687 C   0  0  0  0  0  0  0  0  0  0  0  0
  151.5885  143.5765  157.3529 C   0  0  0  0  0  0  0  0  0  0  0  0
  150.9299  142.3110  157.9313 C   0  0  1  0  0  0  0  0  0  0  0  0
  150.4887  141.4488  156.8397 N   0  0  0  0  0  0  0  0  0  0  0  0
  151.2602  140.5672  156.1845 C   0  0  0  0  0  0  0  0  0  0  0  0
  152.4548  140.3965  156.4264 O   0  0  0  0  0  0  0  0  0  0  0  0
  150.5796  139.7494  155.0873 C   0  0  0  0  0  0  0  0  0  0  0  0
  150.7964  138.3296  155.2894 N   0  0  0  0  0  0  0  0  0  0  0  0
  151.2581  137.3872  154.4647 C   0  0  0  0  0  0  0  0  0  0  0  0
  151.3103  136.2036  155.0564 N   0  0  0  0  0  0  0  0  0  0  0  0
  150.8420  136.4683  156.3327 N   0  0  0  0  0  0  0  0  0  0  0  0
  150.5360  137.7285  156.4772 N   0  0  0  0  0  0  0  0  0  0  0  0
  151.9079  141.5594  158.8584 C   0  0  0  0  0  0  0  0  0  0  0  0
  154.2948  141.3702  160.3474 H   0  0  0  0  0  0  0  0  0  0  0  0
  152.9414  140.8407  161.3430 H   0  0  0  0  0  0  0  0  0  0  0  0
  153.7648  142.3509  161.7118 H   0  0  0  0  0  0  0  0  0  0  0  0
  151.5966  142.7820  160.5919 H   0  0  0  0  0  0  0  0  0  0  0  0
  153.4257  144.3942  160.1897 H   0  0  0  0  0  0  0  0  0  0  0  0
  153.9881  143.4601  158.8247 H   0  0  0  0  0  0  0  0  0  0  0  0
  151.2872  144.8729  159.0561 H   0  0  0  0  0  0  0  0  0  0  0  0
  152.6191  145.3555  158.0335 H   0  0  0  0  0  0  0  0  0  0  0  0
  150.8713  144.1258  156.7417 H   0  0  0  0  0  0  0  0  0  0  0  0
  152.4101  143.2981  156.6910 H   0  0  0  0  0  0  0  0  0  0  0  0
  150.0591  142.6193  158.5133 H   0  0  0  0  0  0  0  0  0  0  0  0
  149.5176  141.5187  156.5709 H   0  0  0  0  0  0  0  0  0  0  0  0
  149.5084  139.9571  155.0708 H   0  0  0  0  0  0  0  0  0  0  0  0
  150.9782  140.0286  154.1112 H   0  0  0  0  0  0  0  0  0  0  0  0
  151.5558  137.5682  153.4424 H   0  0  0  0  0  0  0  0  0  0  0  0
  152.7427  141.1710  158.2728 H   0  0  0  0  0  0  0  0  0  0  0  0
  151.4106  140.6932  159.2970 H   0  0  0  0  0  0  0  0  0  0  0  0
  1  2  1  0  0  0  0
  1 17  1  0  0  0  0
  1 18  1  0  0  0  0
  1 19  1  0  0  0  0
  2 16  1  0  0  0  0
  2  3  1  0  0  0  0
  2 20  1  0  0  0  0
  3  4  1  0  0  0  0
  3 21  1  0  0  0  0
  3 22  1  0  0  0  0
  4  5  1  0  0  0  0
  4 23  1  0  0  0  0
  4 24  1  0  0  0  0
  5  6  1  0  0  0  0
  5 25  1  0  0  0  0
  5 26  1  0  0  0  0
  6  7  1  0  0  0  0
  6 16  1  0  0  0  0
  6 27  1  0  0  0  0
  7  8  1  0  0  0  0
  7 28  1  0  0  0  0
  8  9  2  0  0  0  0
  8 10  1  0  0  0  0
 10 11  1  0  0  0  0
 10 29  1  0  0  0  0
 10 30  1  0  0  0  0
 11 15  1  0  0  0  0
 11 12  1  0  0  0  0
 12 13  2  0  0  0  0
 12 31  1  0  0  0  0
 13 14  1  0  0  0  0
 14 15  2  0  0  0  0
 16 32  1  0  0  0  0
 16 33  1  0  0  0  0
M  END
> <s_m_source_file>
AV-unprocessed.smi

> <i_m_source_file_index>
1258

> <i_lp_mmshare_version>
43012

> <i_f3d_flags>
0

> <s_epik_input>
W0NIM11bQ0BASF0xW0NIMl1bQ0gyXVtDSDJdW0NASF0oW0NIMl0xKVtOSF1DKD1PKVtDSDJdbjJbY0hdbm5uMg==

> <s_epik_cmdline>
J2VwaWtfcHl0aG9uJywgJy1waCcsICc3LjAnLCAnLXRuJywgJzgnLCAnLW1hJywgJzIwMCcsICctbWV0YWxfYmluZGluZycsICctaW1hZScsICc8aW5maWxlLm1hZT4nLCAnLW9tYWUnLCAnPG91dGZpbGUubWFlPic=

> <r_lp_tautomer_probability>
1

> <r_epik_Ionization_Penalty>
5.03816e-07

> <r_epik_Ionization_Penalty_Charging>
0

> <r_epik_Ionization_Penalty_Neutral>
5.03816e-07

> <r_epik_State_Penalty>
-0

> <r_epik_Charging_Adjusted_Penalty>
0

> <i_epik_Tot_Q>
0

> <i_epik_Tot_abs_Q>
0

> <r_epik_Metal_State_Penalty>
-0

> <b_epik_Metal_Only>
0

> <s_lp_Force_Field>
OPLS_2005

> <r_lp_Energy>
10.5543

> <b_lp_Chiralities_Consistent>
1

> <s_lp_Variant>
AV-unprocessed.smi:1258-2

> <Gold.Version>
5.8.1

> <Gold.Id.Protein>
6NUR|6NUR_protein|mol2

> <Gold.PLP.Fitness>
40.9640

> <Gold.PLP.PLP>
-33.1339

> <Gold.PLP.part.hbond>
-2.0000

> <Gold.PLP.part.metal>
0.0000

> <Gold.PLP.part.buried>
-0.1239

> <Gold.PLP.part.nonpolar>
-30.5632

> <Gold.PLP.part.repulsive>
0.1884

> <Gold.PLP.ligand.clash>
0.0000

> <Gold.PLP.ligand.torsion>
0.4321

> <Gold.PLP.Chemscore.Hbond>
1.9920

> <Gold.PLP.Chemscore.CHOScore>
0.9044

> <Gold.PLP.Chemscore.Metal>
0.0000

> <Gold.Chemscore.Hbonds>
donor molecule, donor type, donor heavy atom, donor atom, acceptor molecule, acceptor atom, score
      P1  H  7997  8010       L1     9  0.99
      P1  H 10752 10765       L1    13  1.00
      L1  C    12    31       P1  7949  0.90

> <Gold.PLP.Chemscore.Internal.Correction>
0.0050

> <Gold.Rescore>
     Score         DG    S(hbond)    S(metal)    S(lipo)     H(rot)  DE(clash)    DE(int)     intcor
     13.18     -16.08       1.74        0.00      82.89       1.92       1.07       1.83       ----

> <Gold.Chemscore.Fitness>
13.1783

> <Gold.Chemscore.DG>
-16.0762

> <Gold.Chemscore.ZeroCoef>
-5.4800

> <Gold.Chemscore.Hbond>
1.7380

> <Gold.Chemscore.Metal>
0.0000

> <Gold.Chemscore.Lipo>
82.8944

> <Gold.Chemscore.Internal_Hbond>
0.0000

> <Gold.Chemscore.DEClash>
1.0726

> <Gold.Chemscore.DEInternal>
1.8253

> <Gold.Chemscore.Rot>
1.9169

> <Gold.Chemscore.Internal.Correction>
   9.000000E+99

> <Gold.Chemscore.Hbonds>
donor molecule, donor type, donor heavy atom, donor atom, acceptor molecule, acceptor atom, score
      P1  H  7997  8010       L1     9  0.94
      P1  H 10752 10765       L1    13  0.63

> <Gold.Chemscore.Hbond.Weighted>
-5.8048

> <Gold.Chemscore.Metal.Weighted>
-0.0000

> <Gold.Chemscore.Lipo.Weighted>
-9.6986

> <Gold.Chemscore.Internal_Hbond.Weighted>
0.0000

> <Gold.Chemscore.DEClash.Weighted>
1.0726

> <Gold.Chemscore.DEInternal.Weighted>
1.8253

> <Gold.Chemscore.Rot.Weighted>
4.9073

> <Gold.Chemscore.Internal.Correction.Weighted>
   9.000000E+99

> <Gold.Protein.RotatedTorsions>
[ 6907 6896 6895 6894 ] final    4.80 input  -60.11 | X-H torsion
[ 7974 7965 7964 7962 ] final -135.28 input  175.53 | X-H torsion
[ 8008 7997 7996 7995 ] final   74.61 input   59.86 | X-H torsion
[ 10167 10162 10161 10158 ] final  127.60 input  -65.29 | X-H torsion
[ 10718 10713 10712 10709 ] final  -80.75 input   66.30 | X-H torsion
[ 10763 10752 10751 10750 ] final -162.81 input  -60.55 | X-H torsion
[ 11005 11000 10999 10996 ] final   26.16 input  -57.11 | X-H torsion

> <Gold.Protein.ActiveResidues>
 VAL166  LYS551  ARG553  GLY616  TRP617  ASP618  TYR619  PRO620  LYS621  CYS622 
 ASP623  PHE694  ASN695  SER759  ASP760  ASP761  ALA762  ILE779  LEU786  VAL792 
 PHE793  MET794  SER795  GLU796  ALA797  LYS798  CYS799  TRP800  GLU811  SER814 

> <Gold.Protein.RotatedAtoms>
  151.6472  135.1006  160.0153 H   0  0  0  0  0  0  0  0  0  0  0  0  # atno 6907 bound_to 6896
  152.4021  133.6829  159.6334 H   0  0  0  0  0  0  0  0  0  0  0  0  # atno 6908 bound_to 6896
  150.7920  133.8690  159.3294 H   0  0  0  0  0  0  0  0  0  0  0  0  # atno 6909 bound_to 6896
  144.9028  140.6793  143.5074 H   0  0  0  0  0  0  0  0  0  0  0  0  # atno 7974 bound_to 7965
  155.8008  140.3476  155.5401 H   0  0  0  0  0  0  0  0  0  0  0  0  # atno 8008 bound_to 7997
  155.8540  140.0961  157.1677 H   0  0  0  0  0  0  0  0  0  0  0  0  # atno 8009 bound_to 7997
  154.4009  140.1371  156.3866 H   0  0  0  0  0  0  0  0  0  0  0  0  # atno 8010 bound_to 7997
  139.5570  144.6855  151.4155 H   0  0  0  0  0  0  0  0  0  0  0  0  # atno 10167 bound_to 10162
  156.0064  130.4583  150.3847 H   0  0  0  0  0  0  0  0  0  0  0  0  # atno 10718 bound_to 10713
  154.7180  135.3020  154.9092 H   0  0  0  0  0  0  0  0  0  0  0  0  # atno 10763 bound_to 10752
  153.9973  135.6711  153.4761 H   0  0  0  0  0  0  0  0  0  0  0  0  # atno 10764 bound_to 10752
  153.0810  135.5009  154.8419 H   0  0  0  0  0  0  0  0  0  0  0  0  # atno 10765 bound_to 10752
  140.3401  134.2343  155.7691 H   0  0  0  0  0  0  0  0  0  0  0  0  # atno 11005 bound_to 11000
  145.3588  139.1687  143.4395 LP  0  0  0  0  0  0  0  0  0  0  0  0  # atno 17320 bound_to 7965
  146.3117  140.3648  142.8668 LP  0  0  0  0  0  0  0  0  0  0  0  0  # atno 17321 bound_to 7965
  140.6844  143.8008  150.7165 LP  0  0  0  0  0  0  0  0  0  0  0  0  # atno 17342 bound_to 10162
  140.1471  143.4390  152.2155 LP  0  0  0  0  0  0  0  0  0  0  0  0  # atno 17343 bound_to 10162
  157.1925  131.0419  151.2692 LP  0  0  0  0  0  0  0  0  0  0  0  0  # atno 17370 bound_to 10713
  157.4048  130.7353  149.6794 LP  0  0  0  0  0  0  0  0  0  0  0  0  # atno 17371 bound_to 10713
  141.2041  133.7896  157.0306 LP  0  0  0  0  0  0  0  0  0  0  0  0  # atno 17394 bound_to 11000
  140.0788  134.9660  157.1590 LP  0  0  0  0  0  0  0  0  0  0  0  0  # atno 17395 bound_to 11000

$$$$
