AV-unprocessed.smi:346|AV-procd|sdf|2393|dock4
  -GOLD-   2262022323D 1   1.00000     0.00000
 Structure written by MMmdl.
 34 35  0  0  0  0  0  0  0  0  2 V2000
  150.9384  137.3203  154.6710 C   0  0  0  0  0  0  0  0  0  0  0  0
  152.2083  137.3998  155.2937 O   0  0  0  0  0  0  0  0  0  0  0  0
  152.5274  138.7169  155.7119 C   0  0  0  0  0  0  0  0  0  0  0  0
  151.6073  139.1393  156.8659 C   0  0  0  0  0  0  0  0  0  0  0  0
  151.2085  140.5522  156.7745 N   0  0  0  0  0  0  0  0  0  0  0  0
  150.4779  141.2031  155.8266 C   0  0  0  0  0  0  0  0  0  0  0  0
  149.7826  140.5024  154.3690 S   0  0  0  0  0  0  0  0  0  0  0  0
  148.0865  141.1394  154.3320 C   0  0  0  0  0  0  0  0  0  0  0  0
  147.1122  140.1617  153.6814 C   0  0  0  0  0  0  0  0  0  0  0  0
  147.3493  139.8199  152.4124 N   0  0  0  0  0  0  0  0  0  0  0  0
  146.1555  139.7221  154.3151 O   0  0  0  0  0  0  0  0  0  0  0  0
  150.3708  142.5057  156.2048 N   0  3  0  0  0  0  0  0  0  0  0  0
  151.0418  142.6949  157.4143 C   0  0  0  0  0  0  0  0  0  0  0  0
  151.2132  143.8362  158.1916 C   0  0  0  0  0  0  0  0  0  0  0  0
  151.9496  143.6872  159.3855 C   0  0  0  0  0  0  0  0  0  0  0  0
  152.2007  145.0589  160.4007 Cl  0  0  0  0  0  0  0  0  0  0  0  0
  152.4832  142.4380  159.7646 C   0  0  0  0  0  0  0  0  0  0  0  0
  152.3069  141.2881  158.9675 C   0  0  0  0  0  0  0  0  0  0  0  0
  151.5789  141.4446  157.7882 C   0  0  0  0  0  0  0  0  0  0  0  0
  150.7426  136.2914  154.3694 H   0  0  0  0  0  0  0  0  0  0  0  0
  150.8967  137.9468  153.7790 H   0  0  0  0  0  0  0  0  0  0  0  0
  150.1448  137.6284  155.3529 H   0  0  0  0  0  0  0  0  0  0  0  0
  153.5683  138.7630  156.0357 H   0  0  0  0  0  0  0  0  0  0  0  0
  152.4156  139.4100  154.8765 H   0  0  0  0  0  0  0  0  0  0  0  0
  150.7148  138.5149  156.9049 H   0  0  0  0  0  0  0  0  0  0  0  0
  152.1195  138.9970  157.8172 H   0  0  0  0  0  0  0  0  0  0  0  0
  147.7667  141.3475  155.3536 H   0  0  0  0  0  0  0  0  0  0  0  0
  148.0656  142.0876  153.7946 H   0  0  0  0  0  0  0  0  0  0  0  0
  146.7316  139.1783  151.9366 H   0  0  0  0  0  0  0  0  0  0  0  0
  148.1472  140.2085  151.9306 H   0  0  0  0  0  0  0  0  0  0  0  0
  150.8031  144.7929  157.9026 H   0  0  0  0  0  0  0  0  0  0  0  0
  153.0393  142.3579  160.6876 H   0  0  0  0  0  0  0  0  0  0  0  0
  152.7162  140.3364  159.2724 H   0  0  0  0  0  0  0  0  0  0  0  0
  149.8735  143.2093  155.6739 H   0  0  0  0  0  0  0  0  0  0  0  0
  1  2  1  0  0  0  0
  1 20  1  0  0  0  0
  1 21  1  0  0  0  0
  1 22  1  0  0  0  0
  2  3  1  0  0  0  0
  3  4  1  0  0  0  0
  3 23  1  0  0  0  0
  3 24  1  0  0  0  0
  4  5  1  0  0  0  0
  4 25  1  0  0  0  0
  4 26  1  0  0  0  0
  5 19  1  0  0  0  0
  5  6  1  0  0  0  0
  6  7  1  0  0  0  0
  6 12  2  0  0  0  0
  7  8  1  0  0  0  0
  8  9  1  0  0  0  0
  8 27  1  0  0  0  0
  8 28  1  0  0  0  0
  9 10  1  0  0  0  0
  9 11  2  0  0  0  0
 10 29  1  0  0  0  0
 10 30  1  0  0  0  0
 12 13  1  0  0  0  0
 12 34  1  0  0  0  0
 13 19  2  0  0  0  0
 13 14  1  0  0  0  0
 14 15  2  0  0  0  0
 14 31  1  0  0  0  0
 15 16  1  0  0  0  0
 15 17  1  0  0  0  0
 17 18  2  0  0  0  0
 17 32  1  0  0  0  0
 18 19  1  0  0  0  0
 18 33  1  0  0  0  0
M  CHG  1  12   1
M  END
> <s_m_source_file>
AV-unprocessed.smi

> <i_m_source_file_index>
346

> <i_lp_mmshare_version>
43012

> <i_f3d_flags>
0

> <s_epik_input>
W2NIXTFjKENsKVtjSF1bY0hdYyhjMTIpbihbQ0gyXVtDSDJdT1tDSDNdKWMobjIpU1tDSDJdQyg9TylbTkgyXQ==

> <s_epik_cmdline>
J2VwaWtfcHl0aG9uJywgJy1waCcsICc3LjAnLCAnLXRuJywgJzgnLCAnLW1hJywgJzIwMCcsICctbWV0YWxfYmluZGluZycsICctaW1hZScsICc8aW5maWxlLm1hZT4nLCAnLW9tYWUnLCAnPG91dGZpbGUubWFlPic=

> <r_epik_Ionization_Penalty>
2.55352

> <r_epik_Ionization_Penalty_Charging>
2.55352

> <r_epik_Ionization_Penalty_Neutral>
3.318e-07

> <r_epik_State_Penalty>
2.72228

> <r_epik_Charging_Adjusted_Penalty>
5.2758

> <i_epik_Tot_Q>
1

> <i_epik_Tot_abs_Q>
1

> <r_epik_Metal_State_Penalty>
2.73053

> <b_epik_Metal_Only>
0

> <s_lp_Force_Field>
OPLS_2005

> <r_lp_Energy>
7.77785

> <b_lp_Chiralities_Consistent>
1

> <s_lp_Variant>
AV-unprocessed.smi:346-2

> <Gold.Version>
5.8.1

> <Gold.Id.Protein>
6NUR|6NUR_protein|mol2

> <Gold.PLP.Fitness>
51.3548

> <Gold.PLP.PLP>
-41.4023

> <Gold.PLP.part.hbond>
-3.0000

> <Gold.PLP.part.metal>
0.0000

> <Gold.PLP.part.buried>
-4.5389

> <Gold.PLP.part.nonpolar>
-35.5067

> <Gold.PLP.part.repulsive>
0.3436

> <Gold.PLP.ligand.clash>
0.0000

> <Gold.PLP.ligand.torsion>
0.6540

> <Gold.PLP.Chemscore.Hbond>
3.7357

> <Gold.PLP.Chemscore.CHOScore>
0.0000

> <Gold.PLP.Chemscore.Metal>
0.0000

> <Gold.Chemscore.Hbonds>
donor molecule, donor type, donor heavy atom, donor atom, acceptor molecule, acceptor atom, score
      L1  H    10    30       P1  7957  1.00
      L1  H    12    34       P1  8028  1.98
      P1  H 10752 10765       L1     2  0.75

> <Gold.PLP.Chemscore.Internal.Correction>
0.0535

> <Gold.Rescore>
     Score         DG    S(hbond)    S(metal)    S(lipo)     H(rot)  DE(clash)    DE(int)     intcor
     18.26     -19.14       2.77        0.00      97.81       2.75       0.27       0.60       ----

> <Gold.Chemscore.Fitness>
18.2614

> <Gold.Chemscore.DG>
-19.1378

> <Gold.Chemscore.ZeroCoef>
-5.4800

> <Gold.Chemscore.Hbond>
2.7734

> <Gold.Chemscore.Metal>
0.0000

> <Gold.Chemscore.Lipo>
97.8144

> <Gold.Chemscore.Internal_Hbond>
0.0000

> <Gold.Chemscore.DEClash>
0.2715

> <Gold.Chemscore.DEInternal>
0.6049

> <Gold.Chemscore.Rot>
2.7537

> <Gold.Chemscore.Internal.Correction>
   9.000000E+99

> <Gold.Chemscore.Hbonds>
donor molecule, donor type, donor heavy atom, donor atom, acceptor molecule, acceptor atom, score
      L1  H    10    30       P1  7957  0.96
      L1  H    12    34       P1  8028  0.93
      P1  H 10752 10765       L1     2  0.18

> <Gold.Chemscore.Hbond.Weighted>
-9.2631

> <Gold.Chemscore.Metal.Weighted>
-0.0000

> <Gold.Chemscore.Lipo.Weighted>
-11.4443

> <Gold.Chemscore.Internal_Hbond.Weighted>
0.0000

> <Gold.Chemscore.DEClash.Weighted>
0.2715

> <Gold.Chemscore.DEInternal.Weighted>
0.6049

> <Gold.Chemscore.Rot.Weighted>
7.0496

> <Gold.Chemscore.Internal.Correction.Weighted>
   9.000000E+99

> <Gold.Protein.RotatedTorsions>
[ 6907 6896 6895 6894 ] final  118.74 input  -60.11 | X-H torsion
[ 7974 7965 7964 7962 ] final -126.18 input  175.53 | X-H torsion
[ 8008 7997 7996 7995 ] final  -49.49 input   59.86 | X-H torsion
[ 10167 10162 10161 10158 ] final -158.92 input  -65.29 | X-H torsion
[ 10718 10713 10712 10709 ] final   25.61 input   66.30 | X-H torsion
[ 10763 10752 10751 10750 ] final -171.86 input  -60.55 | X-H torsion
[ 11005 11000 10999 10996 ] final   50.13 input  -57.11 | X-H torsion

> <Gold.Protein.ActiveResidues>
 VAL166  LYS551  ARG553  GLY616  TRP617  ASP618  TYR619  PRO620  LYS621  CYS622 
 ASP623  PHE694  ASN695  SER759  ASP760  ASP761  ALA762  ILE779  LEU786  VAL792 
 PHE793  MET794  SER795  GLU796  ALA797  LYS798  CYS799  TRP800  GLU811  SER814 

> <Gold.Protein.RotatedAtoms>
  152.4521  133.7651  159.6767 H   0  0  0  0  0  0  0  0  0  0  0  0  # atno 6907 bound_to 6896
  150.8437  133.7886  159.3057 H   0  0  0  0  0  0  0  0  0  0  0  0  # atno 6908 bound_to 6896
  151.5503  135.1070  160.0000 H   0  0  0  0  0  0  0  0  0  0  0  0  # atno 6909 bound_to 6896
  144.9899  140.7722  143.4560 H   0  0  0  0  0  0  0  0  0  0  0  0  # atno 7974 bound_to 7965
  154.4045  140.1295  156.4512 H   0  0  0  0  0  0  0  0  0  0  0  0  # atno 8008 bound_to 7997
  155.7365  140.3490  155.5064 H   0  0  0  0  0  0  0  0  0  0  0  0  # atno 8009 bound_to 7997
  155.9079  140.1030  157.1291 H   0  0  0  0  0  0  0  0  0  0  0  0  # atno 8010 bound_to 7997
  139.6655  143.9837  152.2252 H   0  0  0  0  0  0  0  0  0  0  0  0  # atno 10167 bound_to 10162
  157.1956  130.6866  149.6167 H   0  0  0  0  0  0  0  0  0  0  0  0  # atno 10718 bound_to 10713
  154.6258  135.2880  155.0273 H   0  0  0  0  0  0  0  0  0  0  0  0  # atno 10763 bound_to 10752
  154.1452  135.6512  153.4955 H   0  0  0  0  0  0  0  0  0  0  0  0  # atno 10764 bound_to 10752
  153.0257  135.5342  154.7066 H   0  0  0  0  0  0  0  0  0  0  0  0  # atno 10765 bound_to 10752
  140.1044  134.5038  155.8733 H   0  0  0  0  0  0  0  0  0  0  0  0  # atno 11005 bound_to 11000
  145.2300  139.2119  143.5048 LP  0  0  0  0  0  0  0  0  0  0  0  0  # atno 17320 bound_to 7965
  146.3429  140.2175  142.8591 LP  0  0  0  0  0  0  0  0  0  0  0  0  # atno 17321 bound_to 7965
  139.9588  144.6572  150.8100 LP  0  0  0  0  0  0  0  0  0  0  0  0  # atno 17342 bound_to 10162
  140.7597  143.3135  151.2787 LP  0  0  0  0  0  0  0  0  0  0  0  0  # atno 17343 bound_to 10162
  155.9706  130.4600  150.6056 LP  0  0  0  0  0  0  0  0  0  0  0  0  # atno 17370 bound_to 10713
  157.3817  131.0782  151.1471 LP  0  0  0  0  0  0  0  0  0  0  0  0  # atno 17371 bound_to 10713
  141.2114  133.6706  156.6582 LP  0  0  0  0  0  0  0  0  0  0  0  0  # atno 17394 bound_to 11000
  140.3176  134.8034  157.4226 LP  0  0  0  0  0  0  0  0  0  0  0  0  # atno 17395 bound_to 11000

$$$$
