AV-unprocessed.smi:1696|AV-procd|sdf|6799|dock3
  -GOLD-   22720 7563D 1   1.00000     0.00000
 Structure written by MMmdl.
 39 40  0  0  0  0  0  0  0  0  2 V2000
  149.0153  138.6671  154.6986 C   0  0  0  0  0  0  0  0  0  0  0  0
  149.0524  139.8815  153.7562 C   0  0  0  0  0  0  0  0  0  0  0  0
  147.7261  140.6861  153.6762 C   0  0  2  0  0  0  0  0  0  0  0  0
  147.3309  141.3216  155.0357 C   0  0  0  0  0  0  0  0  0  0  0  0
  148.4735  141.9226  155.7204 N   0  0  0  0  0  0  0  0  0  0  0  0
  149.2217  141.3277  156.6613 C   0  0  0  0  0  0  0  0  0  0  0  0
  149.0137  140.1872  157.0752 O   0  0  0  0  0  0  0  0  0  0  0  0
  150.2142  142.1347  157.0751 N   0  0  0  0  0  0  0  0  0  0  0  0
  151.2246  141.8610  158.0342 C   0  0  0  0  0  0  0  0  0  0  0  0
  151.3228  140.7172  158.7216 N   0  0  0  0  0  0  0  0  0  0  0  0
  152.4140  140.7221  159.5943 C   0  0  0  0  0  0  0  0  0  0  0  0
  153.1411  141.8859  159.5575 C   0  0  0  0  0  0  0  0  0  0  0  0
  152.4801  143.0292  158.4193 S   0  0  0  0  0  0  0  0  0  0  0  0
  146.6124  139.8622  153.1187 N   0  3  0  0  0  0  0  0  0  0  0  0
  146.8862  139.2220  151.8071 C   0  0  0  0  0  0  0  0  0  0  0  0
  146.1621  137.8679  151.7992 C   0  0  0  0  0  0  0  0  0  0  0  0
  145.3305  137.8561  153.0771 C   0  0  0  0  0  0  0  0  0  0  0  0
  146.0971  138.7936  154.0023 C   0  0  0  0  0  0  0  0  0  0  0  0
  149.9755  138.1512  154.6952 H   0  0  0  0  0  0  0  0  0  0  0  0
  148.2558  137.9461  154.3969 H   0  0  0  0  0  0  0  0  0  0  0  0
  148.8083  138.9586  155.7275 H   0  0  0  0  0  0  0  0  0  0  0  0
  149.8635  140.5391  154.0693 H   0  0  0  0  0  0  0  0  0  0  0  0
  149.3472  139.5468  152.7617 H   0  0  0  0  0  0  0  0  0  0  0  0
  147.8942  141.5043  152.9736 H   0  0  0  0  0  0  0  0  0  0  0  0
  146.6099  142.1254  154.8913 H   0  0  0  0  0  0  0  0  0  0  0  0
  146.8287  140.5853  155.6647 H   0  0  0  0  0  0  0  0  0  0  0  0
  148.7185  142.8640  155.4499 H   0  0  0  0  0  0  0  0  0  0  0  0
  150.2606  143.0478  156.6476 H   0  0  0  0  0  0  0  0  0  0  0  0
  152.6002  139.8523  160.2068 H   0  0  0  0  0  0  0  0  0  0  0  0
  154.0219  142.1384  160.1289 H   0  0  0  0  0  0  0  0  0  0  0  0
  146.5338  139.8695  151.0034 H   0  0  0  0  0  0  0  0  0  0  0  0
  147.9549  139.0594  151.6601 H   0  0  0  0  0  0  0  0  0  0  0  0
  145.5485  137.7277  150.9089 H   0  0  0  0  0  0  0  0  0  0  0  0
  146.8935  137.0594  151.8266 H   0  0  0  0  0  0  0  0  0  0  0  0
  144.3387  138.2643  152.8773 H   0  0  0  0  0  0  0  0  0  0  0  0
  145.2055  136.8565  153.4943 H   0  0  0  0  0  0  0  0  0  0  0  0
  146.9309  138.2600  154.4616 H   0  0  0  0  0  0  0  0  0  0  0  0
  145.4614  139.1842  154.7972 H   0  0  0  0  0  0  0  0  0  0  0  0
  145.8341  140.4874  152.9642 H   0  0  0  0  0  0  0  0  0  0  0  0
  1  2  1  0  0  0  0
  1 19  1  0  0  0  0
  1 20  1  0  0  0  0
  1 21  1  0  0  0  0
  2  3  1  0  0  0  0
  2 22  1  0  0  0  0
  2 23  1  0  0  0  0
  3  4  1  0  0  0  0
  3 14  1  0  0  0  0
  3 24  1  0  0  0  0
  4  5  1  0  0  0  0
  4 25  1  0  0  0  0
  4 26  1  0  0  0  0
  5  6  1  0  0  0  0
  5 27  1  0  0  0  0
  6  7  2  0  0  0  0
  6  8  1  0  0  0  0
  8  9  1  0  0  0  0
  8 28  1  0  0  0  0
  9 13  1  0  0  0  0
  9 10  2  0  0  0  0
 10 11  1  0  0  0  0
 11 12  2  0  0  0  0
 11 29  1  0  0  0  0
 12 13  1  0  0  0  0
 12 30  1  0  0  0  0
 14 18  1  0  0  0  0
 14 15  1  0  0  0  0
 14 39  1  0  0  0  0
 15 16  1  0  0  0  0
 15 31  1  0  0  0  0
 15 32  1  0  0  0  0
 16 17  1  0  0  0  0
 16 33  1  0  0  0  0
 16 34  1  0  0  0  0
 17 18  1  0  0  0  0
 17 35  1  0  0  0  0
 17 36  1  0  0  0  0
 18 37  1  0  0  0  0
 18 38  1  0  0  0  0
M  CHG  1  14   1
M  END
> <s_m_source_file>
AV-unprocessed.smi

> <i_m_source_file_index>
1696

> <i_lp_mmshare_version>
43012

> <i_f3d_flags>
0

> <s_epik_input>
W0NIMl0xW0NIMl1bQ0gyXVtDSDJdTjFbQ0BIXShbQ0gyXVtDSDNdKVtDSDJdW05IXUMoPU8pW05IXWMybltjSF1bY0hdczI=

> <s_epik_cmdline>
J2VwaWtfcHl0aG9uJywgJy1waCcsICc3LjAnLCAnLXRuJywgJzgnLCAnLW1hJywgJzIwMCcsICctbWV0YWxfYmluZGluZycsICctaW1hZScsICc8aW5maWxlLm1hZT4nLCAnLW9tYWUnLCAnPG91dGZpbGUubWFlPic=

> <r_lp_tautomer_probability>
1

> <r_epik_Ionization_Penalty>
0.0013883

> <r_epik_Ionization_Penalty_Charging>
0.00115997

> <r_epik_Ionization_Penalty_Neutral>
0.000228323

> <r_epik_State_Penalty>
-0

> <r_epik_Charging_Adjusted_Penalty>
0.00115997

> <i_epik_Tot_Q>
1

> <i_epik_Tot_abs_Q>
1

> <r_epik_Metal_State_Penalty>
0.0131845

> <b_epik_Metal_Only>
0

> <s_lp_Force_Field>
OPLS_2005

> <r_lp_Energy>
31.4712

> <b_lp_Chiralities_Consistent>
1

> <s_lp_Variant>
AV-unprocessed.smi:1696-1

> <Gold.Version>
5.8.1

> <Gold.Id.Protein>
6NUR|6NUR_protein|mol2

> <Gold.PLP.Fitness>
42.7010

> <Gold.PLP.PLP>
-31.2078

> <Gold.PLP.part.hbond>
-2.9829

> <Gold.PLP.part.metal>
0.0000

> <Gold.PLP.part.buried>
3.2243

> <Gold.PLP.part.nonpolar>
-32.7809

> <Gold.PLP.part.repulsive>
0.1200

> <Gold.PLP.ligand.clash>
0.0000

> <Gold.PLP.ligand.torsion>
0.3239

> <Gold.PLP.Chemscore.Hbond>
4.0000

> <Gold.PLP.Chemscore.CHOScore>
0.0000

> <Gold.PLP.Chemscore.Metal>
0.0000

> <Gold.Chemscore.Hbonds>
donor molecule, donor type, donor heavy atom, donor atom, acceptor molecule, acceptor atom, score
      L1  H     5    27       P1  8028  1.00
      L1  H     8    28       P1  8028  0.11
      L1  H    14    39       P1 10175  0.96

> <Gold.PLP.Chemscore.Internal.Correction>
0.1410

> <Gold.Rescore>
     Score         DG    S(hbond)    S(metal)    S(lipo)     H(rot)  DE(clash)    DE(int)     intcor
     15.83     -19.50       2.82        0.00      78.03       1.77       1.47       2.20       ----

> <Gold.Chemscore.Fitness>
15.8348

> <Gold.Chemscore.DG>
-19.4997

> <Gold.Chemscore.ZeroCoef>
-5.4800

> <Gold.Chemscore.Hbond>
2.8212

> <Gold.Chemscore.Metal>
0.0000

> <Gold.Chemscore.Lipo>
78.0278

> <Gold.Chemscore.Internal_Hbond>
0.0000

> <Gold.Chemscore.DEClash>
1.4688

> <Gold.Chemscore.DEInternal>
2.1961

> <Gold.Chemscore.Rot>
1.7705

> <Gold.Chemscore.Internal.Correction>
   9.000000E+99

> <Gold.Chemscore.Hbonds>
donor molecule, donor type, donor heavy atom, donor atom, acceptor molecule, acceptor atom, score
      L1  H     5    27       P1  8028  0.98
      L1  H     8    28       P1  8028  0.13
      L1  H    14    39       P1 10175  0.40

> <Gold.Chemscore.Hbond.Weighted>
-9.4229

> <Gold.Chemscore.Metal.Weighted>
-0.0000

> <Gold.Chemscore.Lipo.Weighted>
-9.1293

> <Gold.Chemscore.Internal_Hbond.Weighted>
0.0000

> <Gold.Chemscore.DEClash.Weighted>
1.4688

> <Gold.Chemscore.DEInternal.Weighted>
2.1961

> <Gold.Chemscore.Rot.Weighted>
4.5324

> <Gold.Chemscore.Internal.Correction.Weighted>
   9.000000E+99

> <Gold.Protein.RotatedTorsions>
[ 6907 6896 6895 6894 ] final  -29.80 input  -60.11 | X-H torsion
[ 7974 7965 7964 7962 ] final -176.27 input  175.53 | X-H torsion
[ 8008 7997 7996 7995 ] final   -6.67 input   59.86 | X-H torsion
[ 10167 10162 10161 10158 ] final  113.51 input  -65.29 | X-H torsion
[ 10718 10713 10712 10709 ] final -148.64 input   66.30 | X-H torsion
[ 10763 10752 10751 10750 ] final  167.48 input  -60.55 | X-H torsion
[ 11005 11000 10999 10996 ] final  -61.65 input  -57.11 | X-H torsion

> <Gold.Protein.ActiveResidues>
 VAL166  LYS551  ARG553  GLY616  TRP617  ASP618  TYR619  PRO620  LYS621  CYS622 
 ASP623  PHE694  ASN695  SER759  ASP760  ASP761  ALA762  ILE779  LEU786  VAL792 
 PHE793  MET794  SER795  GLU796  ALA797  LYS798  CYS799  TRP800  GLU811  SER814 

> <Gold.Protein.RotatedAtoms>
  151.1142  135.0044  159.8508 H   0  0  0  0  0  0  0  0  0  0  0  0  # atno 6907 bound_to 6896
  152.5445  134.1799  159.8641 H   0  0  0  0  0  0  0  0  0  0  0  0  # atno 6908 bound_to 6896
  151.1852  133.4656  159.2627 H   0  0  0  0  0  0  0  0  0  0  0  0  # atno 6909 bound_to 6896
  144.7127  140.1196  143.6406 H   0  0  0  0  0  0  0  0  0  0  0  0  # atno 7974 bound_to 7965
  154.5914  140.2427  155.7915 H   0  0  0  0  0  0  0  0  0  0  0  0  # atno 8008 bound_to 7997
  156.2250  140.2985  155.9998 H   0  0  0  0  0  0  0  0  0  0  0  0  # atno 8009 bound_to 7997
  155.2367  140.0405  157.2960 H   0  0  0  0  0  0  0  0  0  0  0  0  # atno 8010 bound_to 7997
  139.6456  144.7126  151.2149 H   0  0  0  0  0  0  0  0  0  0  0  0  # atno 10167 bound_to 10162
  156.4229  130.8037  151.2261 H   0  0  0  0  0  0  0  0  0  0  0  0  # atno 10718 bound_to 10713
  154.3544  135.2753  155.2354 H   0  0  0  0  0  0  0  0  0  0  0  0  # atno 10763 bound_to 10752
  154.4569  135.5917  153.6233 H   0  0  0  0  0  0  0  0  0  0  0  0  # atno 10764 bound_to 10752
  152.9847  135.6055  154.3758 H   0  0  0  0  0  0  0  0  0  0  0  0  # atno 10765 bound_to 10752
  141.1332  133.6632  156.5408 H   0  0  0  0  0  0  0  0  0  0  0  0  # atno 11005 bound_to 11000
  145.9383  139.2652  143.1284 LP  0  0  0  0  0  0  0  0  0  0  0  0  # atno 17320 bound_to 7965
  145.9451  140.8951  143.0288 LP  0  0  0  0  0  0  0  0  0  0  0  0  # atno 17321 bound_to 7965
  140.7513  143.6237  150.8489 LP  0  0  0  0  0  0  0  0  0  0  0  0  # atno 17342 bound_to 10162
  139.9879  143.5879  152.2920 LP  0  0  0  0  0  0  0  0  0  0  0  0  # atno 17343 bound_to 10162
  157.7508  131.0222  150.3784 LP  0  0  0  0  0  0  0  0  0  0  0  0  # atno 17370 bound_to 10713
  156.4105  130.3933  149.6895 LP  0  0  0  0  0  0  0  0  0  0  0  0  # atno 17371 bound_to 10713
  140.4141  134.7246  157.4853 LP  0  0  0  0  0  0  0  0  0  0  0  0  # atno 17394 bound_to 11000
  140.0406  134.6273  155.8986 LP  0  0  0  0  0  0  0  0  0  0  0  0  # atno 17395 bound_to 11000

$$$$
