AV-unprocessed.smi:2852|AV-procd|sdf|10972|dock10
  -GOLD-   2272015423D 1   1.00000     0.00000
 Structure written by MMmdl.
 28 29  0  0  0  0  0  0  0  0  1 V2000
  150.2609  135.2158  155.5450 C   0  0  0  0  0  0  0  0  0  0  0  0
  150.7878  136.4935  155.0912 N   0  0  0  0  0  0  0  0  0  0  0  0
  151.8470  137.1105  155.6358 C   0  0  0  0  0  0  0  0  0  0  0  0
  152.4933  136.6437  156.5738 O   0  0  0  0  0  0  0  0  0  0  0  0
  152.2407  138.4593  155.0307 C   0  0  0  0  0  0  0  0  0  0  0  0
  151.8556  139.5790  155.9441 C   0  0  0  0  0  0  0  0  0  0  0  0
  150.9042  140.4446  155.6135 N   0  0  0  0  0  0  0  0  0  0  0  0
  150.8585  141.3126  156.7142 O   0  0  0  0  0  0  0  0  0  0  0  0
  151.7922  140.8587  157.5843 C   0  0  0  0  0  0  0  0  0  0  0  0
  151.9760  141.5884  158.8338 C   0  0  0  0  0  0  0  0  0  0  0  0
  151.8505  142.9193  158.9812 C   0  0  0  0  0  0  0  0  0  0  0  0
  152.0048  143.7918  160.2035 C   0  0  0  0  0  0  0  0  0  0  0  0
  151.6713  144.9443  159.2372 C   0  0  0  0  0  0  0  0  0  0  0  0
  151.5110  144.0273  158.0102 C   0  0  0  0  0  0  0  0  0  0  0  0
  152.4399  139.7753  157.1589 N   0  0  0  0  0  0  0  0  0  0  0  0
  149.4152  134.9208  154.9241 H   0  0  0  0  0  0  0  0  0  0  0  0
  149.9174  135.2845  156.5779 H   0  0  0  0  0  0  0  0  0  0  0  0
  151.0202  134.4354  155.4810 H   0  0  0  0  0  0  0  0  0  0  0  0
  150.3114  136.9437  154.3227 H   0  0  0  0  0  0  0  0  0  0  0  0
  153.3164  138.4813  154.8502 H   0  0  0  0  0  0  0  0  0  0  0  0
  151.7549  138.5907  154.0628 H   0  0  0  0  0  0  0  0  0  0  0  0
  152.2303  140.9951  159.7000 H   0  0  0  0  0  0  0  0  0  0  0  0
  151.2586  143.6829  160.9911 H   0  0  0  0  0  0  0  0  0  0  0  0
  153.0042  143.8836  160.6294 H   0  0  0  0  0  0  0  0  0  0  0  0
  150.7492  145.4646  159.5002 H   0  0  0  0  0  0  0  0  0  0  0  0
  152.4906  145.6566  159.1291 H   0  0  0  0  0  0  0  0  0  0  0  0
  152.2393  144.2479  157.2293 H   0  0  0  0  0  0  0  0  0  0  0  0
  150.4976  144.0452  157.6083 H   0  0  0  0  0  0  0  0  0  0  0  0
  1  2  1  0  0  0  0
  1 16  1  0  0  0  0
  1 17  1  0  0  0  0
  1 18  1  0  0  0  0
  2  3  1  0  0  0  0
  2 19  1  0  0  0  0
  3  4  2  0  0  0  0
  3  5  1  0  0  0  0
  5  6  1  0  0  0  0
  5 20  1  0  0  0  0
  5 21  1  0  0  0  0
  6 15  1  0  0  0  0
  6  7  2  0  0  0  0
  7  8  1  0  0  0  0
  8  9  1  0  0  0  0
  9 10  1  0  0  0  0
  9 15  2  0  0  0  0
 10 11  2  0  0  0  0
 10 22  1  0  0  0  0
 11 14  1  0  0  0  0
 11 12  1  0  0  0  0
 12 13  1  0  0  0  0
 12 23  1  0  0  0  0
 12 24  1  0  0  0  0
 13 14  1  0  0  0  0
 13 25  1  0  0  0  0
 13 26  1  0  0  0  0
 14 27  1  0  0  0  0
 14 28  1  0  0  0  0
M  END
> <s_m_source_file>
AV-unprocessed.smi

> <i_m_source_file_index>
2852

> <i_lp_mmshare_version>
43012

> <i_f3d_flags>
0

> <s_epik_input>
W0NIM11bTkhdQyg9TylbQ0gyXWMxbm9jKG4xKVtDSF09QzJbQ0gyXVtDSDJdW0NIMl0y

> <s_epik_cmdline>
J2VwaWtfcHl0aG9uJywgJy1waCcsICc3LjAnLCAnLXRuJywgJzgnLCAnLW1hJywgJzIwMCcsICctbWV0YWxfYmluZGluZycsICctaW1hZScsICc8aW5maWxlLm1hZT4nLCAnLW9tYWUnLCAnPG91dGZpbGUubWFlPic=

> <r_lp_tautomer_probability>
1

> <r_epik_Ionization_Penalty>
1.02917e-07

> <r_epik_Ionization_Penalty_Charging>
0

> <r_epik_Ionization_Penalty_Neutral>
1.02917e-07

> <r_epik_State_Penalty>
-0

> <r_epik_Charging_Adjusted_Penalty>
0

> <i_epik_Tot_Q>
0

> <i_epik_Tot_abs_Q>
0

> <r_epik_Metal_State_Penalty>
-0

> <b_epik_Metal_Only>
0

> <s_lp_Force_Field>
OPLS_2005

> <r_lp_Energy>
12.6474

> <b_lp_Chiralities_Consistent>
1

> <s_lp_Variant>
AV-unprocessed.smi:2852-1

> <Gold.Version>
5.8.1

> <Gold.Id.Protein>
6NUR|6NUR_protein|mol2

> <Gold.PLP.Fitness>
41.3672

> <Gold.PLP.PLP>
-34.8167

> <Gold.PLP.part.hbond>
-3.5964

> <Gold.PLP.part.metal>
0.0000

> <Gold.PLP.part.buried>
-2.9675

> <Gold.PLP.part.nonpolar>
-27.0669

> <Gold.PLP.part.repulsive>
0.1843

> <Gold.PLP.ligand.clash>
0.0000

> <Gold.PLP.ligand.torsion>
0.4594

> <Gold.PLP.Chemscore.Hbond>
2.4896

> <Gold.PLP.Chemscore.CHOScore>
0.0000

> <Gold.PLP.Chemscore.Metal>
0.0000

> <Gold.Chemscore.Hbonds>
donor molecule, donor type, donor heavy atom, donor atom, acceptor molecule, acceptor atom, score
      P1  H  7989  7998       L1     7  0.32
      P1  H  7997  8010       L1    15  0.94

> <Gold.PLP.Chemscore.Internal.Correction>
0.0006

> <Gold.Rescore>
     Score         DG    S(hbond)    S(metal)    S(lipo)     H(rot)  DE(clash)    DE(int)     intcor
     14.27     -16.01       1.79        0.00      68.49       1.35       0.04       1.70       ----

> <Gold.Chemscore.Fitness>
14.2718

> <Gold.Chemscore.DG>
-16.0123

> <Gold.Chemscore.ZeroCoef>
-5.4800

> <Gold.Chemscore.Hbond>
1.7903

> <Gold.Chemscore.Metal>
0.0000

> <Gold.Chemscore.Lipo>
68.4941

> <Gold.Chemscore.Internal_Hbond>
0.0000

> <Gold.Chemscore.DEClash>
0.0408

> <Gold.Chemscore.DEInternal>
1.6997

> <Gold.Chemscore.Rot>
1.3519

> <Gold.Chemscore.Internal.Correction>
   9.000000E+99

> <Gold.Chemscore.Hbonds>
donor molecule, donor type, donor heavy atom, donor atom, acceptor molecule, acceptor atom, score
      P1  H  7989  7998       L1     7  0.05
      P1  H  7997  8010       L1    15  0.18

> <Gold.Chemscore.Hbond.Weighted>
-5.9795

> <Gold.Chemscore.Metal.Weighted>
-0.0000

> <Gold.Chemscore.Lipo.Weighted>
-8.0138

> <Gold.Chemscore.Internal_Hbond.Weighted>
0.0000

> <Gold.Chemscore.DEClash.Weighted>
0.0408

> <Gold.Chemscore.DEInternal.Weighted>
1.6997

> <Gold.Chemscore.Rot.Weighted>
3.4610

> <Gold.Chemscore.Internal.Correction.Weighted>
   9.000000E+99

> <Gold.Protein.RotatedTorsions>
[ 6907 6896 6895 6894 ] final  -19.78 input  -60.11 | X-H torsion
[ 7974 7965 7964 7962 ] final  -85.43 input  175.53 | X-H torsion
[ 8008 7997 7996 7995 ] final   66.02 input   59.86 | X-H torsion
[ 10167 10162 10161 10158 ] final -175.24 input  -65.29 | X-H torsion
[ 10718 10713 10712 10709 ] final  -22.88 input   66.30 | X-H torsion
[ 10763 10752 10751 10750 ] final   90.62 input  -60.55 | X-H torsion
[ 11005 11000 10999 10996 ] final   52.21 input  -57.11 | X-H torsion

> <Gold.Protein.ActiveResidues>
 VAL166  LYS551  ARG553  GLY616  TRP617  ASP618  TYR619  PRO620  LYS621  CYS622 
 ASP623  PHE694  ASN695  SER759  ASP760  ASP761  ALA762  ILE779  LEU786  VAL792 
 PHE793  MET794  SER795  GLU796  ALA797  LYS798  CYS799  TRP800  GLU811  SER814 

> <Gold.Protein.RotatedAtoms>
  151.2581  135.0644  159.9087 H   0  0  0  0  0  0  0  0  0  0  0  0  # atno 6907 bound_to 6896
  152.5370  134.0261  159.8014 H   0  0  0  0  0  0  0  0  0  0  0  0  # atno 6908 bound_to 6896
  151.0479  133.5599  159.2676 H   0  0  0  0  0  0  0  0  0  0  0  0  # atno 6909 bound_to 6896
  145.4933  140.9551  143.1800 H   0  0  0  0  0  0  0  0  0  0  0  0  # atno 7974 bound_to 7965
  155.6708  140.3497  155.4818 H   0  0  0  0  0  0  0  0  0  0  0  0  # atno 8008 bound_to 7997
  155.9689  140.1152  157.0852 H   0  0  0  0  0  0  0  0  0  0  0  0  # atno 8009 bound_to 7997
  154.4161  140.1161  156.5266 H   0  0  0  0  0  0  0  0  0  0  0  0  # atno 8010 bound_to 7997
  139.5591  144.1915  152.1209 H   0  0  0  0  0  0  0  0  0  0  0  0  # atno 10167 bound_to 10162
  156.4985  130.4582  149.6714 H   0  0  0  0  0  0  0  0  0  0  0  0  # atno 10718 bound_to 10713
  153.1995  135.4427  155.0249 H   0  0  0  0  0  0  0  0  0  0  0  0  # atno 10763 bound_to 10752
  154.8138  135.3306  154.7234 H   0  0  0  0  0  0  0  0  0  0  0  0  # atno 10764 bound_to 10752
  153.7680  135.6986  153.4967 H   0  0  0  0  0  0  0  0  0  0  0  0  # atno 10765 bound_to 10752
  140.0868  134.5264  155.8891 H   0  0  0  0  0  0  0  0  0  0  0  0  # atno 11005 bound_to 11000
  144.7821  139.6503  143.7150 LP  0  0  0  0  0  0  0  0  0  0  0  0  # atno 17320 bound_to 7965
  146.2271  139.5743  142.9580 LP  0  0  0  0  0  0  0  0  0  0  0  0  # atno 17321 bound_to 7965
  140.1425  144.5189  150.6736 LP  0  0  0  0  0  0  0  0  0  0  0  0  # atno 17342 bound_to 10162
  140.6868  143.2354  151.5238 LP  0  0  0  0  0  0  0  0  0  0  0  0  # atno 17343 bound_to 10162
  156.3356  130.7355  151.2291 LP  0  0  0  0  0  0  0  0  0  0  0  0  # atno 17370 bound_to 10713
  157.7465  131.0418  150.4663 LP  0  0  0  0  0  0  0  0  0  0  0  0  # atno 17371 bound_to 10713
  141.2065  133.6656  156.6246 LP  0  0  0  0  0  0  0  0  0  0  0  0  # atno 17394 bound_to 11000
  140.3409  134.7850  157.4397 LP  0  0  0  0  0  0  0  0  0  0  0  0  # atno 17395 bound_to 11000

$$$$
