AV-unprocessed.smi:342|AV-procd|sdf|2384|dock3
  -GOLD-   2262022313D 1   1.00000     0.00000
 Structure written by MMmdl.
 41 43  0  0  0  0  0  0  0  0  1 V2000
  148.7488  139.7760  156.6263 O   0  0  0  0  0  0  0  0  0  0  0  0
  148.8924  141.0699  156.0788 C   0  0  2  0  0  0  0  0  0  0  0  0
  147.8657  141.2344  154.9368 C   0  0  0  0  0  0  0  0  0  0  0  0
  146.9911  142.4029  155.0412 N   0  0  0  0  0  0  0  0  0  0  0  0
  146.2640  142.6754  153.8016 C   0  0  0  0  0  0  0  0  0  0  0  0
  145.3206  143.8831  153.9421 C   0  0  0  0  0  0  0  0  0  0  0  0
  144.4194  143.6658  155.0224 O   0  0  0  0  0  0  0  0  0  0  0  0
  145.0896  143.4434  156.2583 C   0  0  0  0  0  0  0  0  0  0  0  0
  146.0265  142.2311  156.1227 C   0  0  0  0  0  0  0  0  0  0  0  0
  150.3569  141.2252  155.6197 C   0  0  0  0  0  0  0  0  0  0  0  0
  151.3156  140.9464  156.6824 N   0  0  0  0  0  0  0  0  0  0  0  0
  152.1026  139.8506  156.8515 C   0  0  0  0  0  0  0  0  0  0  0  0
  152.0802  138.6841  155.9021 C   0  0  0  0  0  0  0  0  0  0  0  0
  150.8447  138.1978  155.7736 F   0  0  0  0  0  0  0  0  0  0  0  0
  152.4986  139.0559  154.6923 F   0  0  0  0  0  0  0  0  0  0  0  0
  152.8588  137.6964  156.3430 F   0  0  0  0  0  0  0  0  0  0  0  0
  152.8936  139.8725  157.9269 N   0  0  0  0  0  0  0  0  0  0  0  0
  152.5850  141.0829  158.5132 C   0  0  0  0  0  0  0  0  0  0  0  0
  153.0880  141.6883  159.6870 C   0  0  0  0  0  0  0  0  0  0  0  0
  152.6104  142.9490  160.1006 C   0  0  0  0  0  0  0  0  0  0  0  0
  151.6222  143.6185  159.3504 C   0  0  0  0  0  0  0  0  0  0  0  0
  151.1080  143.0321  158.1781 C   0  0  0  0  0  0  0  0  0  0  0  0
  151.5932  141.7763  157.7650 C   0  0  0  0  0  0  0  0  0  0  0  0
  149.5523  139.5515  157.0709 H   0  0  0  0  0  0  0  0  0  0  0  0
  148.7043  141.7889  156.8734 H   0  0  0  0  0  0  0  0  0  0  0  0
  148.3837  141.2770  153.9780 H   0  0  0  0  0  0  0  0  0  0  0  0
  147.2574  140.3294  154.9010 H   0  0  0  0  0  0  0  0  0  0  0  0
  146.9566  142.8750  152.9855 H   0  0  0  0  0  0  0  0  0  0  0  0
  145.6842  141.7977  153.5113 H   0  0  0  0  0  0  0  0  0  0  0  0
  145.8891  144.7987  154.1123 H   0  0  0  0  0  0  0  0  0  0  0  0
  144.7492  144.0265  153.0251 H   0  0  0  0  0  0  0  0  0  0  0  0
  145.6496  144.3352  156.5438 H   0  0  0  0  0  0  0  0  0  0  0  0
  144.3497  143.2657  157.0387 H   0  0  0  0  0  0  0  0  0  0  0  0
  145.4300  141.3341  155.9482 H   0  0  0  0  0  0  0  0  0  0  0  0
  146.5515  142.0771  157.0661 H   0  0  0  0  0  0  0  0  0  0  0  0
  150.5634  140.5407  154.7958 H   0  0  0  0  0  0  0  0  0  0  0  0
  150.5212  142.2275  155.2271 H   0  0  0  0  0  0  0  0  0  0  0  0
  153.8419  141.1812  160.2707 H   0  0  0  0  0  0  0  0  0  0  0  0
  153.0019  143.4031  160.9991 H   0  0  0  0  0  0  0  0  0  0  0  0
  151.2588  144.5823  159.6759 H   0  0  0  0  0  0  0  0  0  0  0  0
  150.3489  143.5433  157.6052 H   0  0  0  0  0  0  0  0  0  0  0  0
  1  2  1  0  0  0  0
  1 24  1  0  0  0  0
  2  3  1  0  0  0  0
  2 10  1  0  0  0  0
  2 25  1  0  0  0  0
  3  4  1  0  0  0  0
  3 26  1  0  0  0  0
  3 27  1  0  0  0  0
  4  9  1  0  0  0  0
  4  5  1  0  0  0  0
  5  6  1  0  0  0  0
  5 28  1  0  0  0  0
  5 29  1  0  0  0  0
  6  7  1  0  0  0  0
  6 30  1  0  0  0  0
  6 31  1  0  0  0  0
  7  8  1  0  0  0  0
  8  9  1  0  0  0  0
  8 32  1  0  0  0  0
  8 33  1  0  0  0  0
  9 34  1  0  0  0  0
  9 35  1  0  0  0  0
 10 11  1  0  0  0  0
 10 36  1  0  0  0  0
 10 37  1  0  0  0  0
 11 23  1  0  0  0  0
 11 12  1  0  0  0  0
 12 13  1  0  0  0  0
 12 17  2  0  0  0  0
 13 14  1  0  0  0  0
 13 15  1  0  0  0  0
 13 16  1  0  0  0  0
 17 18  1  0  0  0  0
 18 23  2  0  0  0  0
 18 19  1  0  0  0  0
 19 20  2  0  0  0  0
 19 38  1  0  0  0  0
 20 21  1  0  0  0  0
 20 39  1  0  0  0  0
 21 22  2  0  0  0  0
 21 40  1  0  0  0  0
 22 23  1  0  0  0  0
 22 41  1  0  0  0  0
M  END
> <s_m_source_file>
AV-unprocessed.smi

> <i_m_source_file_index>
342

> <i_lp_mmshare_version>
43012

> <i_f3d_flags>
0

> <s_epik_input>
W2NIXTFbY0hdW2NIXVtjSF1jKGMxMiluKGMobjIpQyhGKShGKUYpW0NIMl1bQ0BIXShbT0hdKVtDSDJdTjNbQ0gyXVtDSDJdT1tDSDJdW0NIMl0z

> <s_epik_cmdline>
J2VwaWtfcHl0aG9uJywgJy1waCcsICc3LjAnLCAnLXRuJywgJzgnLCAnLW1hJywgJzIwMCcsICctbWV0YWxfYmluZGluZycsICctaW1hZScsICc8aW5maWxlLm1hZT4nLCAnLW9tYWUnLCAnPG91dGZpbGUubWFlPic=

> <r_epik_Ionization_Penalty>
0.263195

> <r_epik_Ionization_Penalty_Charging>
0

> <r_epik_Ionization_Penalty_Neutral>
0.263195

> <r_epik_State_Penalty>
0.254683

> <r_epik_Charging_Adjusted_Penalty>
0.254683

> <i_epik_Tot_Q>
0

> <i_epik_Tot_abs_Q>
0

> <r_epik_Metal_State_Penalty>
0.254691

> <b_epik_Metal_Only>
0

> <s_lp_Force_Field>
OPLS_2005

> <r_lp_Energy>
34.5918

> <b_lp_Chiralities_Consistent>
1

> <s_lp_Variant>
AV-unprocessed.smi:342-1

> <Gold.Version>
5.8.1

> <Gold.Id.Protein>
6NUR|6NUR_protein|mol2

> <Gold.PLP.Fitness>
44.3651

> <Gold.PLP.PLP>
-43.3469

> <Gold.PLP.part.hbond>
-1.0000

> <Gold.PLP.part.metal>
0.0000

> <Gold.PLP.part.buried>
-6.2144

> <Gold.PLP.part.nonpolar>
-36.6065

> <Gold.PLP.part.repulsive>
0.8422

> <Gold.PLP.ligand.clash>
0.0000

> <Gold.PLP.ligand.torsion>
1.0469

> <Gold.PLP.Chemscore.Hbond>
0.9920

> <Gold.PLP.Chemscore.CHOScore>
0.0000

> <Gold.PLP.Chemscore.Metal>
0.0000

> <Gold.Chemscore.Hbonds>
donor molecule, donor type, donor heavy atom, donor atom, acceptor molecule, acceptor atom, score
      P1  H  7997  8009       L1    17  1.00

> <Gold.PLP.Chemscore.Internal.Correction>
0.1360

> <Gold.Rescore>
     Score         DG    S(hbond)    S(metal)    S(lipo)     H(rot)  DE(clash)    DE(int)     intcor
     10.77     -13.08       0.40        0.00     102.57       2.24       0.18       2.13       ----

> <Gold.Chemscore.Fitness>
10.7690

> <Gold.Chemscore.DG>
-13.0770

> <Gold.Chemscore.ZeroCoef>
-5.4800

> <Gold.Chemscore.Hbond>
0.4001

> <Gold.Chemscore.Metal>
0.0000

> <Gold.Chemscore.Lipo>
102.5698

> <Gold.Chemscore.Internal_Hbond>
0.0000

> <Gold.Chemscore.DEClash>
0.1804

> <Gold.Chemscore.DEInternal>
2.1276

> <Gold.Chemscore.Rot>
2.2421

> <Gold.Chemscore.Internal.Correction>
   9.000000E+99

> <Gold.Chemscore.Hbonds>
donor molecule, donor type, donor heavy atom, donor atom, acceptor molecule, acceptor atom, score
      P1  H  7997  8009       L1    17  0.16

> <Gold.Chemscore.Hbond.Weighted>
-1.3362

> <Gold.Chemscore.Metal.Weighted>
-0.0000

> <Gold.Chemscore.Lipo.Weighted>
-12.0007

> <Gold.Chemscore.Internal_Hbond.Weighted>
0.0000

> <Gold.Chemscore.DEClash.Weighted>
0.1804

> <Gold.Chemscore.DEInternal.Weighted>
2.1276

> <Gold.Chemscore.Rot.Weighted>
5.7399

> <Gold.Chemscore.Internal.Correction.Weighted>
   9.000000E+99

> <Gold.Protein.RotatedTorsions>
[ 6907 6896 6895 6894 ] final   21.51 input  -60.11 | X-H torsion
[ 7974 7965 7964 7962 ] final   98.37 input  175.53 | X-H torsion
[ 8008 7997 7996 7995 ] final  150.68 input   59.86 | X-H torsion
[ 10167 10162 10161 10158 ] final   50.08 input  -65.29 | X-H torsion
[ 10718 10713 10712 10709 ] final   -1.91 input   66.30 | X-H torsion
[ 10763 10752 10751 10750 ] final -151.23 input  -60.55 | X-H torsion
[ 11005 11000 10999 10996 ] final   65.44 input  -57.11 | X-H torsion

> <Gold.Protein.ActiveResidues>
 VAL166  LYS551  ARG553  GLY616  TRP617  ASP618  TYR619  PRO620  LYS621  CYS622 
 ASP623  PHE694  ASN695  SER759  ASP760  ASP761  ALA762  ILE779  LEU786  VAL792 
 PHE793  MET794  SER795  GLU796  ALA797  LYS798  CYS799  TRP800  GLU811  SER814 

> <Gold.Protein.RotatedAtoms>
  151.9129  135.0331  160.0515 H   0  0  0  0  0  0  0  0  0  0  0  0  # atno 6907 bound_to 6896
  152.2264  133.5019  159.5199 H   0  0  0  0  0  0  0  0  0  0  0  0  # atno 6908 bound_to 6896
  150.7013  134.1191  159.4071 H   0  0  0  0  0  0  0  0  0  0  0  0  # atno 6909 bound_to 6896
  145.4131  139.2331  143.3237 H   0  0  0  0  0  0  0  0  0  0  0  0  # atno 7974 bound_to 7965
  156.2705  140.2068  156.6056 H   0  0  0  0  0  0  0  0  0  0  0  0  # atno 8008 bound_to 7997
  154.6872  140.0534  157.0350 H   0  0  0  0  0  0  0  0  0  0  0  0  # atno 8009 bound_to 7997
  155.0917  140.3197  155.4575 H   0  0  0  0  0  0  0  0  0  0  0  0  # atno 8010 bound_to 7997
  140.2762  144.3209  150.6276 H   0  0  0  0  0  0  0  0  0  0  0  0  # atno 10167 bound_to 10162
  156.7986  130.5385  149.5725 H   0  0  0  0  0  0  0  0  0  0  0  0  # atno 10718 bound_to 10713
  154.8070  135.3265  154.7405 H   0  0  0  0  0  0  0  0  0  0  0  0  # atno 10763 bound_to 10752
  153.8061  135.6899  153.4852 H   0  0  0  0  0  0  0  0  0  0  0  0  # atno 10764 bound_to 10752
  153.1822  135.4582  154.9988 H   0  0  0  0  0  0  0  0  0  0  0  0  # atno 10765 bound_to 10752
  139.9894  134.6615  156.0117 H   0  0  0  0  0  0  0  0  0  0  0  0  # atno 11005 bound_to 11000
  146.2695  140.4845  142.8820 LP  0  0  0  0  0  0  0  0  0  0  0  0  # atno 17320 bound_to 7965
  144.8296  140.6685  143.6300 LP  0  0  0  0  0  0  0  0  0  0  0  0  # atno 17321 bound_to 7965
  140.5849  143.2170  151.7360 LP  0  0  0  0  0  0  0  0  0  0  0  0  # atno 17342 bound_to 10162
  139.4975  144.4025  152.0166 LP  0  0  0  0  0  0  0  0  0  0  0  0  # atno 17343 bound_to 10162
  156.1115  130.6044  151.0055 LP  0  0  0  0  0  0  0  0  0  0  0  0  # atno 17370 bound_to 10713
  157.6565  131.0888  150.7935 LP  0  0  0  0  0  0  0  0  0  0  0  0  # atno 17371 bound_to 10713
  141.1553  133.6543  156.4141 LP  0  0  0  0  0  0  0  0  0  0  0  0  # atno 17394 bound_to 11000
  140.4938  134.6550  157.5221 LP  0  0  0  0  0  0  0  0  0  0  0  0  # atno 17395 bound_to 11000

$$$$
