AV-unprocessed.smi:3151|AV-procd|sdf|12016|dock1
  -GOLD-   2272017423D 1   1.00000     0.00000
 Structure written by MMmdl.
 35 36  0  0  0  0  0  0  0  0  1 V2000
  153.9140  139.7600  158.7637 O   0  0  0  0  0  0  0  0  0  0  0  0
  153.0341  140.5661  159.0671 C   0  0  0  0  0  0  0  0  0  0  0  0
  153.2593  141.5661  160.2062 C   0  0  0  0  0  0  0  0  0  0  0  0
  152.3629  142.8185  160.1093 C   0  0  0  0  0  0  0  0  0  0  0  0
  152.6321  143.7092  158.8903 C   0  0  0  0  0  0  0  0  0  0  0  0
  152.0608  145.0836  159.2595 C   0  0  0  0  0  0  0  0  0  0  0  0
  151.9552  145.1119  160.7918 C   0  0  0  0  0  0  0  0  0  0  0  0
  152.5352  143.7827  161.2849 C   0  0  0  0  0  0  0  0  0  0  0  0
  151.8503  140.6326  158.4389 N   0  0  0  0  0  0  0  0  0  0  0  0
  151.4396  139.7697  157.3376 C   0  0  0  0  0  0  0  0  0  0  0  0
  151.4359  140.5249  155.9984 C   0  0  0  0  0  0  0  0  0  0  0  0
  150.1664  140.3839  155.3151 N   0  0  0  0  0  0  0  0  0  0  0  0
  149.2826  141.3975  154.9688 C   0  0  0  0  0  0  0  0  0  0  0  0
  148.2162  140.7916  154.3437 C   0  0  0  0  0  0  0  0  0  0  0  0
  148.4211  139.4144  154.2959 N   0  0  0  0  0  0  0  0  0  0  0  0
  149.5959  139.2484  154.8898 C   0  0  0  0  0  0  0  0  0  0  0  0
  153.0650  141.0502  161.1470 H   0  0  0  0  0  0  0  0  0  0  0  0
  154.3088  141.8645  160.2298 H   0  0  0  0  0  0  0  0  0  0  0  0
  151.3155  142.5120  160.0843 H   0  0  0  0  0  0  0  0  0  0  0  0
  153.7071  143.7968  158.7258 H   0  0  0  0  0  0  0  0  0  0  0  0
  152.1913  143.3115  157.9755 H   0  0  0  0  0  0  0  0  0  0  0  0
  152.6942  145.8869  158.8818 H   0  0  0  0  0  0  0  0  0  0  0  0
  151.0721  145.2141  158.8180 H   0  0  0  0  0  0  0  0  0  0  0  0
  152.4805  145.9639  161.2243 H   0  0  0  0  0  0  0  0  0  0  0  0
  150.9077  145.1920  161.0848 H   0  0  0  0  0  0  0  0  0  0  0  0
  152.0467  143.4270  162.1927 H   0  0  0  0  0  0  0  0  0  0  0  0
  153.5951  143.9112  161.5090 H   0  0  0  0  0  0  0  0  0  0  0  0
  151.1848  141.3252  158.7501 H   0  0  0  0  0  0  0  0  0  0  0  0
  152.0930  138.8968  157.2843 H   0  0  0  0  0  0  0  0  0  0  0  0
  150.4392  139.3948  157.5558 H   0  0  0  0  0  0  0  0  0  0  0  0
  151.6296  141.5865  156.1570 H   0  0  0  0  0  0  0  0  0  0  0  0
  152.2233  140.1529  155.3411 H   0  0  0  0  0  0  0  0  0  0  0  0
  149.4794  142.4362  155.1901 H   0  0  0  0  0  0  0  0  0  0  0  0
  147.3239  141.2369  153.9288 H   0  0  0  0  0  0  0  0  0  0  0  0
  150.0516  138.2777  155.0205 H   0  0  0  0  0  0  0  0  0  0  0  0
  1  2  2  0  0  0  0
  2  3  1  0  0  0  0
  2  9  1  0  0  0  0
  3  4  1  0  0  0  0
  3 17  1  0  0  0  0
  3 18  1  0  0  0  0
  4  8  1  0  0  0  0
  4  5  1  0  0  0  0
  4 19  1  0  0  0  0
  5  6  1  0  0  0  0
  5 20  1  0  0  0  0
  5 21  1  0  0  0  0
  6  7  1  0  0  0  0
  6 22  1  0  0  0  0
  6 23  1  0  0  0  0
  7  8  1  0  0  0  0
  7 24  1  0  0  0  0
  7 25  1  0  0  0  0
  8 26  1  0  0  0  0
  8 27  1  0  0  0  0
  9 10  1  0  0  0  0
  9 28  1  0  0  0  0
 10 11  1  0  0  0  0
 10 29  1  0  0  0  0
 10 30  1  0  0  0  0
 11 12  1  0  0  0  0
 11 31  1  0  0  0  0
 11 32  1  0  0  0  0
 12 16  1  0  0  0  0
 12 13  1  0  0  0  0
 13 14  2  0  0  0  0
 13 33  1  0  0  0  0
 14 15  1  0  0  0  0
 14 34  1  0  0  0  0
 15 16  2  0  0  0  0
 16 35  1  0  0  0  0
M  END
> <s_m_source_file>
AV-unprocessed.smi

> <i_m_source_file_index>
3151

> <i_lp_mmshare_version>
43012

> <i_f3d_flags>
0

> <s_epik_input>
W0NIMl0xW0NIMl1bQ0gyXVtDSDJdW0NIXTFbQ0gyXUMoPU8pW05IXVtDSDJdW0NIMl1uMltjSF1bY0hdbltjSF0y

> <s_epik_cmdline>
J2VwaWtfcHl0aG9uJywgJy1waCcsICc3LjAnLCAnLXRuJywgJzgnLCAnLW1hJywgJzIwMCcsICctbWV0YWxfYmluZGluZycsICctaW1hZScsICc8aW5maWxlLm1hZT4nLCAnLW9tYWUnLCAnPG91dGZpbGUubWFlPic=

> <r_lp_tautomer_probability>
1

> <r_epik_Ionization_Penalty>
0.596413

> <r_epik_Ionization_Penalty_Charging>
0.596413

> <r_epik_Ionization_Penalty_Neutral>
2.16921e-08

> <r_epik_State_Penalty>
0.610423

> <r_epik_Charging_Adjusted_Penalty>
1.20684

> <i_epik_Tot_Q>
0

> <i_epik_Tot_abs_Q>
0

> <r_epik_Metal_State_Penalty>
0.300145

> <b_epik_Metal_Only>
0

> <s_lp_Force_Field>
OPLS_2005

> <r_lp_Energy>
20.9474

> <b_lp_Chiralities_Consistent>
1

> <s_lp_Variant>
AV-unprocessed.smi:3151-2

> <Gold.Version>
5.8.1

> <Gold.Id.Protein>
6NUR|6NUR_protein|mol2

> <Gold.PLP.Fitness>
46.1985

> <Gold.PLP.PLP>
-41.6454

> <Gold.PLP.part.hbond>
-1.0000

> <Gold.PLP.part.metal>
0.0000

> <Gold.PLP.part.buried>
-1.4811

> <Gold.PLP.part.nonpolar>
-38.1571

> <Gold.PLP.part.repulsive>
0.2672

> <Gold.PLP.ligand.clash>
0.0000

> <Gold.PLP.ligand.torsion>
0.7668

> <Gold.PLP.Chemscore.Hbond>
1.0000

> <Gold.PLP.Chemscore.CHOScore>
1.0000

> <Gold.PLP.Chemscore.Metal>
0.0000

> <Gold.Chemscore.Hbonds>
donor molecule, donor type, donor heavy atom, donor atom, acceptor molecule, acceptor atom, score
      P1  H  7997  8008       L1     1  1.00
      L1  C    13    33       P1  8028  1.00

> <Gold.PLP.Chemscore.Internal.Correction>
0.0868

> <Gold.Rescore>
     Score         DG    S(hbond)    S(metal)    S(lipo)     H(rot)  DE(clash)    DE(int)     intcor
     14.49     -15.31       0.96        0.00     100.15       1.99       0.01       0.81       ----

> <Gold.Chemscore.Fitness>
14.4938

> <Gold.Chemscore.DG>
-15.3132

> <Gold.Chemscore.ZeroCoef>
-5.4800

> <Gold.Chemscore.Hbond>
0.9628

> <Gold.Chemscore.Metal>
0.0000

> <Gold.Chemscore.Lipo>
100.1452

> <Gold.Chemscore.Internal_Hbond>
0.0000

> <Gold.Chemscore.DEClash>
0.0106

> <Gold.Chemscore.DEInternal>
0.8088

> <Gold.Chemscore.Rot>
1.9920

> <Gold.Chemscore.Internal.Correction>
   9.000000E+99

> <Gold.Chemscore.Hbonds>
donor molecule, donor type, donor heavy atom, donor atom, acceptor molecule, acceptor atom, score
      P1  H  7997  8008       L1     1  0.97

> <Gold.Chemscore.Hbond.Weighted>
-3.2158

> <Gold.Chemscore.Metal.Weighted>
-0.0000

> <Gold.Chemscore.Lipo.Weighted>
-11.7170

> <Gold.Chemscore.Internal_Hbond.Weighted>
0.0000

> <Gold.Chemscore.DEClash.Weighted>
0.0106

> <Gold.Chemscore.DEInternal.Weighted>
0.8088

> <Gold.Chemscore.Rot.Weighted>
5.0996

> <Gold.Chemscore.Internal.Correction.Weighted>
   9.000000E+99

> <Gold.Protein.RotatedTorsions>
[ 6907 6896 6895 6894 ] final   51.39 input  -60.11 | X-H torsion
[ 7974 7965 7964 7962 ] final   -1.92 input  175.53 | X-H torsion
[ 8008 7997 7996 7995 ] final -110.74 input   59.86 | X-H torsion
[ 10167 10162 10161 10158 ] final   67.68 input  -65.29 | X-H torsion
[ 10718 10713 10712 10709 ] final -126.68 input   66.30 | X-H torsion
[ 10763 10752 10751 10750 ] final  -56.90 input  -60.55 | X-H torsion
[ 11005 11000 10999 10996 ] final -146.95 input  -57.11 | X-H torsion

> <Gold.Protein.ActiveResidues>
 VAL166  LYS551  ARG553  GLY616  TRP617  ASP618  TYR619  PRO620  LYS621  CYS622 
 ASP623  PHE694  ASN695  SER759  ASP760  ASP761  ALA762  ILE779  LEU786  VAL792 
 PHE793  MET794  SER795  GLU796  ALA797  LYS798  CYS799  TRP800  GLU811  SER814 

> <Gold.Protein.RotatedAtoms>
  152.3121  134.7485  160.0333 H   0  0  0  0  0  0  0  0  0  0  0  0  # atno 6907 bound_to 6896
  151.7962  133.3359  159.3521 H   0  0  0  0  0  0  0  0  0  0  0  0  # atno 6908 bound_to 6896
  150.7325  134.5727  159.5943 H   0  0  0  0  0  0  0  0  0  0  0  0  # atno 6909 bound_to 6896
  146.2411  140.1492  142.8334 H   0  0  0  0  0  0  0  0  0  0  0  0  # atno 7974 bound_to 7965
  154.9791  140.0396  157.2269 H   0  0  0  0  0  0  0  0  0  0  0  0  # atno 8008 bound_to 7997
  154.7731  140.2805  155.6100 H   0  0  0  0  0  0  0  0  0  0  0  0  # atno 8009 bound_to 7997
  156.2924  140.2606  156.2538 H   0  0  0  0  0  0  0  0  0  0  0  0  # atno 8010 bound_to 7997
  140.0869  144.5022  150.7124 H   0  0  0  0  0  0  0  0  0  0  0  0  # atno 10167 bound_to 10162
  156.1787  130.6717  151.0277 H   0  0  0  0  0  0  0  0  0  0  0  0  # atno 10718 bound_to 10713
  154.2140  135.6389  153.5124 H   0  0  0  0  0  0  0  0  0  0  0  0  # atno 10763 bound_to 10752
  152.9983  135.5481  154.6185 H   0  0  0  0  0  0  0  0  0  0  0  0  # atno 10764 bound_to 10752
  154.5628  135.2910  155.0876 H   0  0  0  0  0  0  0  0  0  0  0  0  # atno 10765 bound_to 10752
  140.7767  134.3127  157.5058 H   0  0  0  0  0  0  0  0  0  0  0  0  # atno 11005 bound_to 11000
  145.0181  140.8771  143.5183 LP  0  0  0  0  0  0  0  0  0  0  0  0  # atno 17320 bound_to 7965
  145.1537  139.2499  143.5428 LP  0  0  0  0  0  0  0  0  0  0  0  0  # atno 17321 bound_to 7965
  140.7049  143.2461  151.4756 LP  0  0  0  0  0  0  0  0  0  0  0  0  # atno 17342 bound_to 10162
  139.5747  144.1846  152.1886 LP  0  0  0  0  0  0  0  0  0  0  0  0  # atno 17343 bound_to 10162
  157.6854  131.0826  150.7258 LP  0  0  0  0  0  0  0  0  0  0  0  0  # atno 17370 bound_to 10713
  156.7315  130.4711  149.5498 LP  0  0  0  0  0  0  0  0  0  0  0  0  # atno 17371 bound_to 10713
  139.8748  134.9293  156.3474 LP  0  0  0  0  0  0  0  0  0  0  0  0  # atno 17394 bound_to 11000
  140.9522  133.7443  156.0288 LP  0  0  0  0  0  0  0  0  0  0  0  0  # atno 17395 bound_to 11000

$$$$
