AV-unprocessed.smi:866|AV-procd|sdf|3992|dock2
  -GOLD-   22720 1473D 1   1.00000     0.00000
 Structure written by MMmdl.
 34 34  0  0  0  0  0  0  0  0  2 V2000
  152.7878  142.9576  162.3785 C   0  0  0  0  0  0  0  0  0  0  0  0
  152.3301  143.4952  161.0532 C   0  0  0  0  0  0  0  0  0  0  0  0
  151.7953  144.7840  160.7693 C   0  0  0  0  0  0  0  0  0  0  0  0
  151.4869  144.9426  159.4925 N   0  0  0  0  0  0  0  0  0  0  0  0
  151.8101  143.7648  158.9187 N   0  0  0  0  0  0  0  0  0  0  0  0
  151.6010  143.5776  157.4960 C   0  0  0  0  0  0  0  0  0  0  0  0
  150.8197  142.2893  157.2011 C   0  0  0  0  0  0  0  0  0  0  0  0
  150.1932  142.3472  155.8646 N   0  3  0  0  0  0  0  0  0  0  0  0
  149.3579  141.1760  155.5045 C   0  0  2  0  0  0  0  0  0  0  0  0
  150.2245  139.9186  155.3187 C   0  0  0  0  0  0  0  0  0  0  0  0
  148.5357  141.4626  154.2261 C   0  0  0  0  0  0  0  0  0  0  0  0
  147.4717  140.4072  153.8913 C   0  0  0  0  0  0  0  0  0  0  0  0
  147.6104  139.7679  152.7278 N   0  0  0  0  0  0  0  0  0  0  0  0
  146.5419  140.1680  154.6599 O   0  0  0  0  0  0  0  0  0  0  0  0
  152.3250  142.8740  159.8364 C   0  0  0  0  0  0  0  0  0  0  0  0
  152.7113  143.7053  163.1681 H   0  0  0  0  0  0  0  0  0  0  0  0
  153.8279  142.6334  162.3436 H   0  0  0  0  0  0  0  0  0  0  0  0
  152.1926  142.0993  162.6910 H   0  0  0  0  0  0  0  0  0  0  0  0
  151.6226  145.6044  161.4504 H   0  0  0  0  0  0  0  0  0  0  0  0
  151.0684  144.4470  157.1073 H   0  0  0  0  0  0  0  0  0  0  0  0
  152.5735  143.5541  157.0028 H   0  0  0  0  0  0  0  0  0  0  0  0
  151.4905  141.4321  157.2604 H   0  0  0  0  0  0  0  0  0  0  0  0
  150.0424  142.1450  157.9529 H   0  0  0  0  0  0  0  0  0  0  0  0
  149.5903  143.1579  155.8576 H   0  0  0  0  0  0  0  0  0  0  0  0
  148.6588  140.9881  156.3214 H   0  0  0  0  0  0  0  0  0  0  0  0
  149.6120  139.0616  155.0365 H   0  0  0  0  0  0  0  0  0  0  0  0
  150.7480  139.6466  156.2351 H   0  0  0  0  0  0  0  0  0  0  0  0
  150.9713  140.0624  154.5370 H   0  0  0  0  0  0  0  0  0  0  0  0
  148.0493  142.4357  154.3109 H   0  0  0  0  0  0  0  0  0  0  0  0
  149.2083  141.5298  153.3698 H   0  0  0  0  0  0  0  0  0  0  0  0
  146.9366  139.0692  152.4487 H   0  0  0  0  0  0  0  0  0  0  0  0
  148.3876  139.9920  152.1227 H   0  0  0  0  0  0  0  0  0  0  0  0
  152.6406  141.8810  159.5523 H   0  0  0  0  0  0  0  0  0  0  0  0
  150.9080  142.4729  155.1625 H   0  0  0  0  0  0  0  0  0  0  0  0
  1  2  1  0  0  0  0
  1 16  1  0  0  0  0
  1 17  1  0  0  0  0
  1 18  1  0  0  0  0
  2 15  2  0  0  0  0
  2  3  1  0  0  0  0
  3  4  2  0  0  0  0
  3 19  1  0  0  0  0
  4  5  1  0  0  0  0
  5  6  1  0  0  0  0
  5 15  1  0  0  0  0
  6  7  1  0  0  0  0
  6 20  1  0  0  0  0
  6 21  1  0  0  0  0
  7  8  1  0  0  0  0
  7 22  1  0  0  0  0
  7 23  1  0  0  0  0
  8  9  1  0  0  0  0
  8 24  1  0  0  0  0
  8 34  1  0  0  0  0
  9 10  1  0  0  0  0
  9 11  1  0  0  0  0
  9 25  1  0  0  0  0
 10 26  1  0  0  0  0
 10 27  1  0  0  0  0
 10 28  1  0  0  0  0
 11 12  1  0  0  0  0
 11 29  1  0  0  0  0
 11 30  1  0  0  0  0
 12 13  1  0  0  0  0
 12 14  2  0  0  0  0
 13 31  1  0  0  0  0
 13 32  1  0  0  0  0
 15 33  1  0  0  0  0
M  CHG  1   8   1
M  END
> <s_m_source_file>
AV-unprocessed.smi

> <i_m_source_file_index>
866

> <i_lp_mmshare_version>
43012

> <i_f3d_flags>
0

> <s_epik_input>
W0NIM11jMVtjSF1ubihbY0hdMSlbQ0gyXVtDSDJdW05IXVtDQEhdKFtDSDNdKVtDSDJdQyg9TylbTkgyXQ==

> <s_epik_cmdline>
J2VwaWtfcHl0aG9uJywgJy1waCcsICc3LjAnLCAnLXRuJywgJzgnLCAnLW1hJywgJzIwMCcsICctbWV0YWxfYmluZGluZycsICctaW1hZScsICc8aW5maWxlLm1hZT4nLCAnLW9tYWUnLCAnPG91dGZpbGUubWFlPic=

> <r_lp_tautomer_probability>
1

> <r_epik_Ionization_Penalty>
0.0061413

> <r_epik_Ionization_Penalty_Charging>
0.00613574

> <r_epik_Ionization_Penalty_Neutral>
5.56035e-06

> <r_epik_State_Penalty>
0.00452343

> <r_epik_Charging_Adjusted_Penalty>
0.0106592

> <i_epik_Tot_Q>
1

> <i_epik_Tot_abs_Q>
1

> <r_epik_Metal_State_Penalty>
-0

> <b_epik_Metal_Only>
0

> <s_lp_Force_Field>
OPLS_2005

> <r_lp_Energy>
1.4749

> <b_lp_Chiralities_Consistent>
1

> <s_lp_Variant>
AV-unprocessed.smi:866-1

> <Gold.Version>
5.8.1

> <Gold.Id.Protein>
6NUR|6NUR_protein|mol2

> <Gold.PLP.Fitness>
47.7540

> <Gold.PLP.PLP>
-39.1821

> <Gold.PLP.part.hbond>
-2.0000

> <Gold.PLP.part.metal>
0.0000

> <Gold.PLP.part.buried>
-4.1620

> <Gold.PLP.part.nonpolar>
-33.3836

> <Gold.PLP.part.repulsive>
0.4426

> <Gold.PLP.ligand.clash>
0.0000

> <Gold.PLP.ligand.torsion>
0.2590

> <Gold.PLP.Chemscore.Hbond>
3.0000

> <Gold.PLP.Chemscore.CHOScore>
0.0000

> <Gold.PLP.Chemscore.Metal>
0.0000

> <Gold.Chemscore.Hbonds>
donor molecule, donor type, donor heavy atom, donor atom, acceptor molecule, acceptor atom, score
      L1  H     8    24       P1  8028  2.00
      L1  H    13    32       P1  7957  1.00

> <Gold.PLP.Chemscore.Internal.Correction>
0.0899

> <Gold.Rescore>
     Score         DG    S(hbond)    S(metal)    S(lipo)     H(rot)  DE(clash)    DE(int)     intcor
     15.21     -15.64       2.00        0.00      90.52       2.77       0.09       0.35       ----

> <Gold.Chemscore.Fitness>
15.2056

> <Gold.Chemscore.DG>
-15.6438

> <Gold.Chemscore.ZeroCoef>
-5.4800

> <Gold.Chemscore.Hbond>
1.9983

> <Gold.Chemscore.Metal>
0.0000

> <Gold.Chemscore.Lipo>
90.5201

> <Gold.Chemscore.Internal_Hbond>
0.0000

> <Gold.Chemscore.DEClash>
0.0891

> <Gold.Chemscore.DEInternal>
0.3492

> <Gold.Chemscore.Rot>
2.7740

> <Gold.Chemscore.Internal.Correction>
   9.000000E+99

> <Gold.Chemscore.Hbonds>
donor molecule, donor type, donor heavy atom, donor atom, acceptor molecule, acceptor atom, score
      L1  H     8    24       P1  8028  1.00
      L1  H    13    32       P1  7957  0.94

> <Gold.Chemscore.Hbond.Weighted>
-6.6744

> <Gold.Chemscore.Metal.Weighted>
-0.0000

> <Gold.Chemscore.Lipo.Weighted>
-10.5908

> <Gold.Chemscore.Internal_Hbond.Weighted>
0.0000

> <Gold.Chemscore.DEClash.Weighted>
0.0891

> <Gold.Chemscore.DEInternal.Weighted>
0.3492

> <Gold.Chemscore.Rot.Weighted>
7.1014

> <Gold.Chemscore.Internal.Correction.Weighted>
   9.000000E+99

> <Gold.Protein.RotatedTorsions>
[ 6907 6896 6895 6894 ] final  170.71 input  -60.11 | X-H torsion
[ 7974 7965 7964 7962 ] final -115.77 input  175.53 | X-H torsion
[ 8008 7997 7996 7995 ] final   65.13 input   59.86 | X-H torsion
[ 10167 10162 10161 10158 ] final  -31.81 input  -65.29 | X-H torsion
[ 10718 10713 10712 10709 ] final  147.59 input   66.30 | X-H torsion
[ 10763 10752 10751 10750 ] final -101.68 input  -60.55 | X-H torsion
[ 11005 11000 10999 10996 ] final   -4.40 input  -57.11 | X-H torsion

> <Gold.Protein.ActiveResidues>
 VAL166  LYS551  ARG553  GLY616  TRP617  ASP618  TYR619  PRO620  LYS621  CYS622 
 ASP623  PHE694  ASN695  SER759  ASP760  ASP761  ALA762  ILE779  LEU786  VAL792 
 PHE793  MET794  SER795  GLU796  ALA797  LYS798  CYS799  TRP800  GLU811  SER814 

> <Gold.Protein.RotatedAtoms>
  151.8118  133.3383  159.3557 H   0  0  0  0  0  0  0  0  0  0  0  0  # atno 6907 bound_to 6896
  150.7323  134.5657  159.5874 H   0  0  0  0  0  0  0  0  0  0  0  0  # atno 6908 bound_to 6896
  152.3069  134.7545  160.0396 H   0  0  0  0  0  0  0  0  0  0  0  0  # atno 6909 bound_to 6896
  145.1045  140.8573  143.3906 H   0  0  0  0  0  0  0  0  0  0  0  0  # atno 7974 bound_to 7965
  155.6569  140.3497  155.4768 H   0  0  0  0  0  0  0  0  0  0  0  0  # atno 8008 bound_to 7997
  155.9801  140.1173  157.0757 H   0  0  0  0  0  0  0  0  0  0  0  0  # atno 8009 bound_to 7997
  154.4189  140.1140  156.5410 H   0  0  0  0  0  0  0  0  0  0  0  0  # atno 8010 bound_to 7997
  140.7231  143.3742  151.1721 H   0  0  0  0  0  0  0  0  0  0  0  0  # atno 10167 bound_to 10162
  157.3191  131.0901  151.1255 H   0  0  0  0  0  0  0  0  0  0  0  0  # atno 10718 bound_to 10713
  154.7676  135.4889  153.9586 H   0  0  0  0  0  0  0  0  0  0  0  0  # atno 10763 bound_to 10752
  153.1328  135.6756  153.9159 H   0  0  0  0  0  0  0  0  0  0  0  0  # atno 10764 bound_to 10752
  153.8857  135.3127  155.3425 H   0  0  0  0  0  0  0  0  0  0  0  0  # atno 10765 bound_to 10752
  140.6799  133.9163  155.8548 H   0  0  0  0  0  0  0  0  0  0  0  0  # atno 11005 bound_to 11000
  145.0917  139.2885  143.5731 LP  0  0  0  0  0  0  0  0  0  0  0  0  # atno 17320 bound_to 7965
  146.3528  140.0456  142.8639 LP  0  0  0  0  0  0  0  0  0  0  0  0  # atno 17321 bound_to 7965
  139.7319  143.9059  152.3022 LP  0  0  0  0  0  0  0  0  0  0  0  0  # atno 17342 bound_to 10162
  139.8851  144.6996  150.8833 LP  0  0  0  0  0  0  0  0  0  0  0  0  # atno 17343 bound_to 10162
  157.2547  130.6631  149.5947 LP  0  0  0  0  0  0  0  0  0  0  0  0  # atno 17370 bound_to 10713
  155.9684  130.4527  150.5785 LP  0  0  0  0  0  0  0  0  0  0  0  0  # atno 17371 bound_to 10713
  141.0326  134.0735  157.3997 LP  0  0  0  0  0  0  0  0  0  0  0  0  # atno 17394 bound_to 11000
  139.8955  135.0141  156.7004 LP  0  0  0  0  0  0  0  0  0  0  0  0  # atno 17395 bound_to 11000

$$$$
