AV-unprocessed.smi:2450|AV-procd|sdf|9668|dock5
  -GOLD-   2272013303D 1   1.00000     0.00000
 Structure written by MMmdl.
 42 43  0  0  0  0  0  0  0  0  2 V2000
  141.2357  141.1509  155.3679 C   0  0  0  0  0  0  0  0  0  0  0  0
  140.0851  140.4377  154.6427 C   0  0  0  0  0  0  0  0  0  0  0  0
  140.2669  138.9115  154.5407 C   0  0  1  0  0  0  0  0  0  0  0  0
  139.0612  138.2452  153.8580 C   0  0  0  0  0  0  0  0  0  0  0  0
  141.4961  138.5978  153.8147 N   0  0  0  0  0  0  0  0  0  0  0  0
  142.0516  137.3815  153.7161 C   0  0  0  0  0  0  0  0  0  0  0  0
  141.5622  136.3674  154.2124 O   0  0  0  0  0  0  0  0  0  0  0  0
  143.1865  137.4250  152.9981 N   0  0  0  0  0  0  0  0  0  0  0  0
  144.0705  136.3595  152.6599 C   0  0  0  0  0  0  0  0  0  0  0  0
  143.6284  135.0309  152.4305 C   0  0  0  0  0  0  0  0  0  0  0  0
  144.5652  134.0268  152.1158 C   0  0  0  0  0  0  0  0  0  0  0  0
  145.9300  134.3604  152.0454 C   0  0  0  0  0  0  0  0  0  0  0  0
  146.3214  135.6290  152.2855 N   0  3  0  0  0  0  0  0  0  0  0  0
  145.4612  136.6315  152.5914 C   0  0  0  0  0  0  0  0  0  0  0  0
  145.9734  137.9197  152.8236 N   0  0  0  0  0  0  0  0  0  0  0  0
  146.9203  138.0345  153.9203 C   0  0  0  0  0  0  0  0  0  0  0  0
  147.6077  139.3884  153.7245 C   0  0  0  0  0  0  0  0  0  0  0  0
  147.3989  139.7272  152.2432 C   0  0  0  0  0  0  0  0  0  0  0  0
  146.6079  138.5457  151.6763 C   0  0  0  0  0  0  0  0  0  0  0  0
  141.0341  142.2187  155.4551 H   0  0  0  0  0  0  0  0  0  0  0  0
  142.1798  141.0381  154.8346 H   0  0  0  0  0  0  0  0  0  0  0  0
  141.3699  140.7556  156.3751 H   0  0  0  0  0  0  0  0  0  0  0  0
  139.1562  140.6514  155.1729 H   0  0  0  0  0  0  0  0  0  0  0  0
  139.9682  140.8643  153.6456 H   0  0  0  0  0  0  0  0  0  0  0  0
  140.3453  138.5168  155.5556 H   0  0  0  0  0  0  0  0  0  0  0  0
  138.1381  138.4614  154.3966 H   0  0  0  0  0  0  0  0  0  0  0  0
  139.1722  137.1609  153.8254 H   0  0  0  0  0  0  0  0  0  0  0  0
  138.9387  138.5986  152.8337 H   0  0  0  0  0  0  0  0  0  0  0  0
  141.9646  139.3723  153.3678 H   0  0  0  0  0  0  0  0  0  0  0  0
  143.4127  138.3191  152.5873 H   0  0  0  0  0  0  0  0  0  0  0  0
  142.5879  134.7549  152.5038 H   0  0  0  0  0  0  0  0  0  0  0  0
  144.2392  133.0126  151.9359 H   0  0  0  0  0  0  0  0  0  0  0  0
  146.7152  133.6553  151.8127 H   0  0  0  0  0  0  0  0  0  0  0  0
  146.4131  137.9778  154.8839 H   0  0  0  0  0  0  0  0  0  0  0  0
  147.6574  137.2314  153.8800 H   0  0  0  0  0  0  0  0  0  0  0  0
  147.1358  140.1480  154.3490 H   0  0  0  0  0  0  0  0  0  0  0  0
  148.6628  139.3442  153.9962 H   0  0  0  0  0  0  0  0  0  0  0  0
  146.8221  140.6484  152.1512 H   0  0  0  0  0  0  0  0  0  0  0  0
  148.3405  139.8710  151.7125 H   0  0  0  0  0  0  0  0  0  0  0  0
  147.2822  137.8442  151.1826 H   0  0  0  0  0  0  0  0  0  0  0  0
  145.8670  138.8718  150.9457 H   0  0  0  0  0  0  0  0  0  0  0  0
  147.3173  135.8441  152.2341 H   0  0  0  0  0  0  0  0  0  0  0  0
  1  2  1  0  0  0  0
  1 20  1  0  0  0  0
  1 21  1  0  0  0  0
  1 22  1  0  0  0  0
  2  3  1  0  0  0  0
  2 23  1  0  0  0  0
  2 24  1  0  0  0  0
  3  4  1  0  0  0  0
  3  5  1  0  0  0  0
  3 25  1  0  0  0  0
  4 26  1  0  0  0  0
  4 27  1  0  0  0  0
  4 28  1  0  0  0  0
  5  6  1  0  0  0  0
  5 29  1  0  0  0  0
  6  7  2  0  0  0  0
  6  8  1  0  0  0  0
  8  9  1  0  0  0  0
  8 30  1  0  0  0  0
  9 14  1  0  0  0  0
  9 10  2  0  0  0  0
 10 11  1  0  0  0  0
 10 31  1  0  0  0  0
 11 12  2  0  0  0  0
 11 32  1  0  0  0  0
 12 13  1  0  0  0  0
 12 33  1  0  0  0  0
 13 14  2  0  0  0  0
 13 42  1  0  0  0  0
 14 15  1  0  0  0  0
 15 19  1  0  0  0  0
 15 16  1  0  0  0  0
 16 17  1  0  0  0  0
 16 34  1  0  0  0  0
 16 35  1  0  0  0  0
 17 18  1  0  0  0  0
 17 36  1  0  0  0  0
 17 37  1  0  0  0  0
 18 19  1  0  0  0  0
 18 38  1  0  0  0  0
 18 39  1  0  0  0  0
 19 40  1  0  0  0  0
 19 41  1  0  0  0  0
M  CHG  1  13   1
M  END
> <s_m_source_file>
AV-unprocessed.smi

> <i_m_source_file_index>
2450

> <i_lp_mmshare_version>
43012

> <i_f3d_flags>
0

> <s_epik_input>
W0NIM11bQ0gyXVtDQEhdKFtDSDNdKVtOSF1DKD1PKVtOSF1jMVtjSF1bY0hdW2NIXW5jMU4yW0NIMl1bQ0gyXVtDSDJdW0NIMl0y

> <s_epik_cmdline>
J2VwaWtfcHl0aG9uJywgJy1waCcsICc3LjAnLCAnLXRuJywgJzgnLCAnLW1hJywgJzIwMCcsICctbWV0YWxfYmluZGluZycsICctaW1hZScsICc8aW5maWxlLm1hZT4nLCAnLW9tYWUnLCAnPG91dGZpbGUubWFlPic=

> <r_lp_tautomer_probability>
0.999994

> <r_epik_Ionization_Penalty>
1.08838

> <r_epik_Ionization_Penalty_Charging>
1.08836

> <r_epik_Ionization_Penalty_Neutral>
2.1796e-05

> <r_epik_State_Penalty>
1.14442

> <r_epik_Charging_Adjusted_Penalty>
2.23278

> <i_epik_Tot_Q>
1

> <i_epik_Tot_abs_Q>
1

> <r_epik_Metal_State_Penalty>
1.23344

> <b_epik_Metal_Only>
0

> <s_lp_Force_Field>
OPLS_2005

> <r_lp_Energy>
41.1125

> <b_lp_Chiralities_Consistent>
1

> <s_lp_Variant>
AV-unprocessed.smi:2450-4

> <Gold.Version>
5.8.1

> <Gold.Id.Protein>
6NUR|6NUR_protein|mol2

> <Gold.PLP.Fitness>
41.9494

> <Gold.PLP.PLP>
-30.5613

> <Gold.PLP.part.hbond>
-4.9249

> <Gold.PLP.part.metal>
0.0000

> <Gold.PLP.part.buried>
0.9733

> <Gold.PLP.part.nonpolar>
-28.1151

> <Gold.PLP.part.repulsive>
0.4831

> <Gold.PLP.ligand.clash>
0.0000

> <Gold.PLP.ligand.torsion>
0.3283

> <Gold.PLP.Chemscore.Hbond>
4.0000

> <Gold.PLP.Chemscore.CHOScore>
0.0000

> <Gold.PLP.Chemscore.Metal>
0.0000

> <Gold.Chemscore.Hbonds>
donor molecule, donor type, donor heavy atom, donor atom, acceptor molecule, acceptor atom, score
      L1  H     5    29       P1 10175  0.71
      L1  H     8    30       P1 10175  0.76
      L1  H    13    42       P1  7948  2.00

> <Gold.PLP.Chemscore.Internal.Correction>
0.0447

> <Gold.Rescore>
     Score         DG    S(hbond)    S(metal)    S(lipo)     H(rot)  DE(clash)    DE(int)     intcor
     15.32     -19.27       2.74        0.00      69.06       1.34       1.82       2.14       ----

> <Gold.Chemscore.Fitness>
15.3178

> <Gold.Chemscore.DG>
-19.2731

> <Gold.Chemscore.ZeroCoef>
-5.4800

> <Gold.Chemscore.Hbond>
2.7370

> <Gold.Chemscore.Metal>
0.0000

> <Gold.Chemscore.Lipo>
69.0589

> <Gold.Chemscore.Internal_Hbond>
0.0000

> <Gold.Chemscore.DEClash>
1.8203

> <Gold.Chemscore.DEInternal>
2.1350

> <Gold.Chemscore.Rot>
1.3393

> <Gold.Chemscore.Internal.Correction>
   9.000000E+99

> <Gold.Chemscore.Hbonds>
donor molecule, donor type, donor heavy atom, donor atom, acceptor molecule, acceptor atom, score
      L1  H     5    29       P1 10175  0.68
      L1  H     8    30       P1 10175  0.74
      L1  H    13    42       P1  7948  1.00

> <Gold.Chemscore.Hbond.Weighted>
-9.1417

> <Gold.Chemscore.Metal.Weighted>
-0.0000

> <Gold.Chemscore.Lipo.Weighted>
-8.0799

> <Gold.Chemscore.Internal_Hbond.Weighted>
0.0000

> <Gold.Chemscore.DEClash.Weighted>
1.8203

> <Gold.Chemscore.DEInternal.Weighted>
2.1350

> <Gold.Chemscore.Rot.Weighted>
3.4285

> <Gold.Chemscore.Internal.Correction.Weighted>
   9.000000E+99

> <Gold.Protein.RotatedTorsions>
[ 6907 6896 6895 6894 ] final  -34.54 input  -60.11 | X-H torsion
[ 7974 7965 7964 7962 ] final   -1.63 input  175.53 | X-H torsion
[ 8008 7997 7996 7995 ] final  -68.87 input   59.86 | X-H torsion
[ 10167 10162 10161 10158 ] final   56.09 input  -65.29 | X-H torsion
[ 10718 10713 10712 10709 ] final  -46.23 input   66.30 | X-H torsion
[ 10763 10752 10751 10750 ] final   53.91 input  -60.55 | X-H torsion
[ 11005 11000 10999 10996 ] final   28.21 input  -57.11 | X-H torsion

> <Gold.Protein.ActiveResidues>
 VAL166  LYS551  ARG553  GLY616  TRP617  ASP618  TYR619  PRO620  LYS621  CYS622 
 ASP623  PHE694  ASN695  SER759  ASP760  ASP761  ALA762  ILE779  LEU786  VAL792 
 PHE793  MET794  SER795  GLU796  ALA797  LYS798  CYS799  TRP800  GLU811  SER814 

> <Gold.Protein.RotatedAtoms>
  151.0512  134.9674  159.8212 H   0  0  0  0  0  0  0  0  0  0  0  0  # atno 6907 bound_to 6896
  152.5381  134.2534  159.8917 H   0  0  0  0  0  0  0  0  0  0  0  0  # atno 6908 bound_to 6896
  151.2550  133.4288  159.2647 H   0  0  0  0  0  0  0  0  0  0  0  0  # atno 6909 bound_to 6896
  146.2414  140.1450  142.8335 H   0  0  0  0  0  0  0  0  0  0  0  0  # atno 7974 bound_to 7965
  154.4898  140.0864  156.7569 H   0  0  0  0  0  0  0  0  0  0  0  0  # atno 8008 bound_to 7997
  155.4258  140.3447  155.4257 H   0  0  0  0  0  0  0  0  0  0  0  0  # atno 8009 bound_to 7997
  156.1314  140.1502  156.9048 H   0  0  0  0  0  0  0  0  0  0  0  0  # atno 8010 bound_to 7997
  140.2125  144.3874  150.6483 H   0  0  0  0  0  0  0  0  0  0  0  0  # atno 10167 bound_to 10162
  156.2204  130.4166  149.9000 H   0  0  0  0  0  0  0  0  0  0  0  0  # atno 10718 bound_to 10713
  152.9799  135.5763  154.4818 H   0  0  0  0  0  0  0  0  0  0  0  0  # atno 10763 bound_to 10752
  154.4366  135.2775  155.1878 H   0  0  0  0  0  0  0  0  0  0  0  0  # atno 10764 bound_to 10752
  154.3564  135.6198  153.5722 H   0  0  0  0  0  0  0  0  0  0  0  0  # atno 10765 bound_to 10752
  140.3180  134.2575  155.7722 H   0  0  0  0  0  0  0  0  0  0  0  0  # atno 11005 bound_to 11000
  145.0215  140.8797  143.5164 LP  0  0  0  0  0  0  0  0  0  0  0  0  # atno 17320 bound_to 7965
  145.1499  139.2521  143.5446 LP  0  0  0  0  0  0  0  0  0  0  0  0  # atno 17321 bound_to 7965
  140.6313  143.2188  151.6489 LP  0  0  0  0  0  0  0  0  0  0  0  0  # atno 17342 bound_to 10162
  139.5174  144.3315  152.0822 LP  0  0  0  0  0  0  0  0  0  0  0  0  # atno 17343 bound_to 10162
  156.6648  130.8797  151.3553 LP  0  0  0  0  0  0  0  0  0  0  0  0  # atno 17370 bound_to 10713
  157.7084  130.9412  150.1008 LP  0  0  0  0  0  0  0  0  0  0  0  0  # atno 17371 bound_to 10713
  141.2093  133.7753  157.0005 LP  0  0  0  0  0  0  0  0  0  0  0  0  # atno 17394 bound_to 11000
  140.0966  134.9560  157.1859 LP  0  0  0  0  0  0  0  0  0  0  0  0  # atno 17395 bound_to 11000

$$$$
