AV-unprocessed.smi:108|AV-procd|sdf|1030|dock4
  -GOLD-   2262018 33D 1   1.00000     0.00000
 Structure written by MMmdl.
 59 62  0  0  0  0  0  0  0  0  1 V2000
  151.4040  139.5599  155.0349 O   0  0  0  0  0  0  0  0  0  0  0  0
  151.4300  140.1479  156.1183 C   0  0  0  0  0  0  0  0  0  0  0  0
  151.0087  141.6322  156.1794 C   0  0  0  0  0  0  0  0  0  0  0  0
  149.5424  141.8294  156.1885 N   0  0  0  0  0  0  0  0  0  0  0  0
  148.8355  141.7055  154.9675 C   0  0  0  0  0  0  0  0  0  0  0  0
  149.4195  141.4525  153.9125 O   0  0  0  0  0  0  0  0  0  0  0  0
  147.3932  141.8946  155.0564 C   0  0  0  0  0  0  0  0  0  0  0  0
  146.6330  141.7385  153.9593 F   0  0  0  0  0  0  0  0  0  0  0  0
  146.8039  142.2073  156.2285 C   0  0  0  0  0  0  0  0  0  0  0  0
  147.5125  142.3891  157.4051 N   0  0  0  0  0  0  0  0  0  0  0  0
  146.8345  142.6795  158.7364 C   0  0  1  0  0  0  0  0  0  0  0  0
  145.9263  143.9165  158.7264 C   0  0  0  0  0  0  0  0  0  0  0  0
  144.5360  143.3297  158.4967 C   0  0  0  0  0  0  0  0  0  0  0  0
  144.7590  141.8159  158.4113 C   0  0  0  0  0  0  0  0  0  0  0  0
  146.0085  141.6052  159.0545 O   0  0  0  0  0  0  0  0  0  0  0  0
  148.9069  142.1582  157.4101 C   0  0  0  0  0  0  0  0  0  0  0  0
  149.5573  142.2509  158.4538 O   0  0  0  0  0  0  0  0  0  0  0  0
  151.8298  139.5316  157.2586 N   0  0  0  0  0  0  0  0  0  0  0  0
  151.8157  140.2437  158.5478 C   0  0  0  0  0  0  0  0  0  0  0  0
  152.7915  141.4397  158.5850 C   0  0  0  0  0  0  0  0  0  0  0  0
  152.8205  142.1582  159.9236 C   0  0  0  0  0  0  0  0  0  0  0  0
  153.4287  141.5507  161.0432 C   0  0  0  0  0  0  0  0  0  0  0  0
  153.4721  142.2261  162.2780 C   0  0  0  0  0  0  0  0  0  0  0  0
  152.9058  143.5098  162.3988 C   0  0  0  0  0  0  0  0  0  0  0  0
  152.2965  144.1181  161.2842 C   0  0  0  0  0  0  0  0  0  0  0  0
  152.2535  143.4436  160.0485 C   0  0  0  0  0  0  0  0  0  0  0  0
  152.3042  138.1376  157.3101 C   0  0  0  0  0  0  0  0  0  0  0  0
  151.2144  137.0801  157.1676 C   0  0  0  0  0  0  0  0  0  0  0  0
  151.1912  136.1790  156.0780 C   0  0  0  0  0  0  0  0  0  0  0  0
  150.1698  135.2150  155.9749 C   0  0  0  0  0  0  0  0  0  0  0  0
  149.1680  135.1397  156.9610 C   0  0  0  0  0  0  0  0  0  0  0  0
  149.1901  136.0280  158.0529 C   0  0  0  0  0  0  0  0  0  0  0  0
  150.2107  136.9932  158.1556 C   0  0  0  0  0  0  0  0  0  0  0  0
  151.4581  142.1003  157.0553 H   0  0  0  0  0  0  0  0  0  0  0  0
  151.4541  142.1594  155.3349 H   0  0  0  0  0  0  0  0  0  0  0  0
  145.7297  142.3045  156.2239 H   0  0  0  0  0  0  0  0  0  0  0  0
  147.6459  142.7899  159.4576 H   0  0  0  0  0  0  0  0  0  0  0  0
  145.9697  144.3782  159.7138 H   0  0  0  0  0  0  0  0  0  0  0  0
  146.2398  144.6661  158.0002 H   0  0  0  0  0  0  0  0  0  0  0  0
  143.8853  143.5740  159.3368 H   0  0  0  0  0  0  0  0  0  0  0  0
  144.0681  143.7161  157.5910 H   0  0  0  0  0  0  0  0  0  0  0  0
  143.9633  141.2485  158.8944 H   0  0  0  0  0  0  0  0  0  0  0  0
  144.8207  141.4886  157.3728 H   0  0  0  0  0  0  0  0  0  0  0  0
  150.8082  140.5996  158.7667 H   0  0  0  0  0  0  0  0  0  0  0  0
  152.0483  139.5519  159.3592 H   0  0  0  0  0  0  0  0  0  0  0  0
  153.7987  141.0967  158.3457 H   0  0  0  0  0  0  0  0  0  0  0  0
  152.5307  142.1571  157.8060 H   0  0  0  0  0  0  0  0  0  0  0  0
  153.8717  140.5690  160.9553 H   0  0  0  0  0  0  0  0  0  0  0  0
  153.9411  141.7600  163.1318 H   0  0  0  0  0  0  0  0  0  0  0  0
  152.9395  144.0278  163.3460 H   0  0  0  0  0  0  0  0  0  0  0  0
  151.8632  145.1031  161.3765 H   0  0  0  0  0  0  0  0  0  0  0  0
  151.7898  143.9169  159.1954 H   0  0  0  0  0  0  0  0  0  0  0  0
  153.0379  137.9563  156.5242 H   0  0  0  0  0  0  0  0  0  0  0  0
  152.8585  137.9677  158.2335 H   0  0  0  0  0  0  0  0  0  0  0  0
  151.9519  136.2173  155.3125 H   0  0  0  0  0  0  0  0  0  0  0  0
  150.1556  134.5326  155.1378 H   0  0  0  0  0  0  0  0  0  0  0  0
  148.3851  134.4000  156.8813 H   0  0  0  0  0  0  0  0  0  0  0  0
  148.4238  135.9694  158.8120 H   0  0  0  0  0  0  0  0  0  0  0  0
  150.2183  137.6707  158.9969 H   0  0  0  0  0  0  0  0  0  0  0  0
  1  2  2  0  0  0  0
  2  3  1  0  0  0  0
  2 18  1  0  0  0  0
  3  4  1  0  0  0  0
  3 34  1  0  0  0  0
  3 35  1  0  0  0  0
  4 16  1  0  0  0  0
  4  5  1  0  0  0  0
  5  6  2  0  0  0  0
  5  7  1  0  0  0  0
  7  8  1  0  0  0  0
  7  9  2  0  0  0  0
  9 10  1  0  0  0  0
  9 36  1  0  0  0  0
 10 11  1  0  0  0  0
 10 16  1  0  0  0  0
 11 15  1  0  0  0  0
 11 12  1  0  0  0  0
 11 37  1  0  0  0  0
 12 13  1  0  0  0  0
 12 38  1  0  0  0  0
 12 39  1  0  0  0  0
 13 14  1  0  0  0  0
 13 40  1  0  0  0  0
 13 41  1  0  0  0  0
 14 15  1  0  0  0  0
 14 42  1  0  0  0  0
 14 43  1  0  0  0  0
 16 17  2  0  0  0  0
 18 19  1  0  0  0  0
 18 27  1  0  0  0  0
 19 20  1  0  0  0  0
 19 44  1  0  0  0  0
 19 45  1  0  0  0  0
 20 21  1  0  0  0  0
 20 46  1  0  0  0  0
 20 47  1  0  0  0  0
 21 26  1  0  0  0  0
 21 22  2  0  0  0  0
 22 23  1  0  0  0  0
 22 48  1  0  0  0  0
 23 24  2  0  0  0  0
 23 49  1  0  0  0  0
 24 25  1  0  0  0  0
 24 50  1  0  0  0  0
 25 26  2  0  0  0  0
 25 51  1  0  0  0  0
 26 52  1  0  0  0  0
 27 28  1  0  0  0  0
 27 53  1  0  0  0  0
 27 54  1  0  0  0  0
 28 33  1  0  0  0  0
 28 29  2  0  0  0  0
 29 30  1  0  0  0  0
 29 55  1  0  0  0  0
 30 31  2  0  0  0  0
 30 56  1  0  0  0  0
 31 32  1  0  0  0  0
 31 57  1  0  0  0  0
 32 33  2  0  0  0  0
 32 58  1  0  0  0  0
 33 59  1  0  0  0  0
M  END
> <s_m_source_file>
AV-unprocessed.smi

> <i_m_source_file_index>
108

> <i_lp_mmshare_version>
43012

> <i_f3d_flags>
0

> <s_epik_input>
W2NIXTFbY0hdW2NIXVtjSF1bY0hdYzFbQ0gyXVtDSDJdTihbQ0gyXWMyW2NIXVtjSF1bY0hdW2NIXVtjSF0yKUMoPU8pW0NIMl1uM2MoPU8pYyhGKVtjSF1uKGMzPU8pW0NAQEhdNFtDSDJdW0NIMl1bQ0gyXU80

> <s_epik_cmdline>
J2VwaWtfcHl0aG9uJywgJy1waCcsICc3LjAnLCAnLXRuJywgJzgnLCAnLW1hJywgJzIwMCcsICctbWV0YWxfYmluZGluZycsICctaW1hZScsICc8aW5maWxlLm1hZT4nLCAnLW9tYWUnLCAnPG91dGZpbGUubWFlPic=

> <r_lp_tautomer_probability>
1

> <r_epik_Ionization_Penalty>
5.46209e-09

> <r_epik_Ionization_Penalty_Charging>
4.22697e-09

> <r_epik_Ionization_Penalty_Neutral>
1.23512e-09

> <r_epik_State_Penalty>
-0

> <r_epik_Charging_Adjusted_Penalty>
4.22697e-09

> <i_epik_Tot_Q>
0

> <i_epik_Tot_abs_Q>
0

> <r_epik_Metal_State_Penalty>
-0

> <b_epik_Metal_Only>
0

> <s_epik_Chemistry_Notes>
This compound contains an acetal/aminal-like group ( X-CH(R)-Y where X, Y are N, S, or O) that may be acid/base labile, releasing an aldehyde.

> <s_lp_Force_Field>
OPLS_2005

> <r_lp_Energy>
38.0932

> <b_lp_Chiralities_Consistent>
1

> <s_lp_Variant>
AV-unprocessed.smi:108-2

> <Gold.Version>
5.8.1

> <Gold.Id.Protein>
6NUR|6NUR_protein|mol2

> <Gold.PLP.Fitness>
62.5214

> <Gold.PLP.PLP>
-56.3694

> <Gold.PLP.part.hbond>
-4.0000

> <Gold.PLP.part.metal>
0.0000

> <Gold.PLP.part.buried>
-3.9721

> <Gold.PLP.part.nonpolar>
-46.2847

> <Gold.PLP.part.repulsive>
0.8646

> <Gold.PLP.ligand.clash>
0.0000

> <Gold.PLP.ligand.torsion>
0.9084

> <Gold.PLP.Chemscore.Hbond>
2.5753

> <Gold.PLP.Chemscore.CHOScore>
0.0000

> <Gold.PLP.Chemscore.Metal>
0.0000

> <Gold.Chemscore.Hbonds>
donor molecule, donor type, donor heavy atom, donor atom, acceptor molecule, acceptor atom, score
      P1  H  6934  6946       L1    15  0.86
      P1  H  7989  7998       L1     1  1.00
      P1  H  8011  8017       L1     6  0.74

> <Gold.PLP.Chemscore.Internal.Correction>
0.2430

> <Gold.Rescore>
     Score         DG    S(hbond)    S(metal)    S(lipo)     H(rot)  DE(clash)    DE(int)     intcor
     17.29     -21.74       2.14        0.00     127.66       2.28       1.41       3.04       ----

> <Gold.Chemscore.Fitness>
17.2882

> <Gold.Chemscore.DG>
-21.7354

> <Gold.Chemscore.ZeroCoef>
-5.4800

> <Gold.Chemscore.Hbond>
2.1390

> <Gold.Chemscore.Metal>
0.0000

> <Gold.Chemscore.Lipo>
127.6633

> <Gold.Chemscore.Internal_Hbond>
0.0000

> <Gold.Chemscore.DEClash>
1.4091

> <Gold.Chemscore.DEInternal>
3.0381

> <Gold.Chemscore.Rot>
2.2756

> <Gold.Chemscore.Internal.Correction>
   9.000000E+99

> <Gold.Chemscore.Hbonds>
donor molecule, donor type, donor heavy atom, donor atom, acceptor molecule, acceptor atom, score
      P1  H  6934  6946       L1    15  0.32
      P1  H  7989  7998       L1     1  0.73
      P1  H  8011  8017       L1     6  0.72

> <Gold.Chemscore.Hbond.Weighted>
-7.1443

> <Gold.Chemscore.Metal.Weighted>
-0.0000

> <Gold.Chemscore.Lipo.Weighted>
-14.9366

> <Gold.Chemscore.Internal_Hbond.Weighted>
0.0000

> <Gold.Chemscore.DEClash.Weighted>
1.4091

> <Gold.Chemscore.DEInternal.Weighted>
3.0381

> <Gold.Chemscore.Rot.Weighted>
5.8255

> <Gold.Chemscore.Internal.Correction.Weighted>
   9.000000E+99

> <Gold.Protein.RotatedTorsions>
[ 6907 6896 6895 6894 ] final -120.58 input  -60.11 | X-H torsion
[ 7974 7965 7964 7962 ] final   -0.80 input  175.53 | X-H torsion
[ 8008 7997 7996 7995 ] final   39.00 input   59.86 | X-H torsion
[ 10167 10162 10161 10158 ] final   21.71 input  -65.29 | X-H torsion
[ 10718 10713 10712 10709 ] final  -45.69 input   66.30 | X-H torsion
[ 10763 10752 10751 10750 ] final  176.51 input  -60.55 | X-H torsion
[ 11005 11000 10999 10996 ] final   18.10 input  -57.11 | X-H torsion

> <Gold.Protein.ActiveResidues>
 VAL166  LYS551  ARG553  GLY616  TRP617  ASP618  TYR619  PRO620  LYS621  CYS622 
 ASP623  PHE694  ASN695  SER759  ASP760  ASP761  ALA762  ILE779  LEU786  VAL792 
 PHE793  MET794  SER795  GLU796  ALA797  LYS798  CYS799  TRP800  GLU811  SER814 

> <Gold.Protein.RotatedAtoms>
  150.8406  133.7942  159.3062 H   0  0  0  0  0  0  0  0  0  0  0  0  # atno 6907 bound_to 6896
  151.5644  135.1063  159.9990 H   0  0  0  0  0  0  0  0  0  0  0  0  # atno 6908 bound_to 6896
  152.4470  133.7514  159.6752 H   0  0  0  0  0  0  0  0  0  0  0  0  # atno 6909 bound_to 6896
  146.2424  140.1324  142.8337 H   0  0  0  0  0  0  0  0  0  0  0  0  # atno 7974 bound_to 7965
  155.2294  140.3337  155.4305 H   0  0  0  0  0  0  0  0  0  0  0  0  # atno 8008 bound_to 7997
  156.2301  140.1847  156.7310 H   0  0  0  0  0  0  0  0  0  0  0  0  # atno 8009 bound_to 7997
  154.5964  140.0630  156.9294 H   0  0  0  0  0  0  0  0  0  0  0  0  # atno 8010 bound_to 7997
  140.5406  143.9684  150.6517 H   0  0  0  0  0  0  0  0  0  0  0  0  # atno 10167 bound_to 10162
  156.2258  130.4169  149.8935 H   0  0  0  0  0  0  0  0  0  0  0  0  # atno 10718 bound_to 10713
  154.4821  135.2775  155.1562 H   0  0  0  0  0  0  0  0  0  0  0  0  # atno 10763 bound_to 10752
  154.3268  135.6198  153.5536 H   0  0  0  0  0  0  0  0  0  0  0  0  # atno 10764 bound_to 10752
  152.9876  135.5756  154.5224 H   0  0  0  0  0  0  0  0  0  0  0  0  # atno 10765 bound_to 10752
  140.4286  134.1443  155.7678 H   0  0  0  0  0  0  0  0  0  0  0  0  # atno 11005 bound_to 11000
  145.0315  140.8874  143.5107 LP  0  0  0  0  0  0  0  0  0  0  0  0  # atno 17320 bound_to 7965
  145.1389  139.2584  143.5500 LP  0  0  0  0  0  0  0  0  0  0  0  0  # atno 17321 bound_to 7965
  140.3084  143.3214  152.0903 LP  0  0  0  0  0  0  0  0  0  0  0  0  # atno 17342 bound_to 10162
  139.4987  144.6652  151.6372 LP  0  0  0  0  0  0  0  0  0  0  0  0  # atno 17343 bound_to 10162
  156.6566  130.8765  151.3540 LP  0  0  0  0  0  0  0  0  0  0  0  0  # atno 17370 bound_to 10713
  157.7110  130.9440  150.1089 LP  0  0  0  0  0  0  0  0  0  0  0  0  # atno 17371 bound_to 10713
  141.1755  133.8523  157.1435 LP  0  0  0  0  0  0  0  0  0  0  0  0  # atno 17394 bound_to 11000
  140.0150  134.9971  157.0474 LP  0  0  0  0  0  0  0  0  0  0  0  0  # atno 17395 bound_to 11000

$$$$
