AV-unprocessed.smi:1399|AV-procd|sdf|5683|dock5
  -GOLD-   22720 5303D 1   1.00000     0.00000
 Structure written by MMmdl.
 38 39  0  0  0  0  0  0  0  0  2 V2000
  144.3420  133.0607  148.4143 N   0  0  0  0  0  0  0  0  0  0  0  0
  144.3848  132.4446  149.5977 C   0  0  0  0  0  0  0  0  0  0  0  0
  143.4863  131.6973  149.9804 O   0  0  0  0  0  0  0  0  0  0  0  0
  145.6059  132.7247  150.4795 C   0  0  0  0  0  0  0  0  0  0  0  0
  145.2803  133.5278  151.6866 N   0  3  2  0  0  0  0  0  0  0  0  0
  145.0067  134.9510  151.3623 C   0  0  0  0  0  0  0  0  0  0  0  0
  144.5217  135.7210  152.6040 C   0  0  0  0  0  0  0  0  0  0  0  0
  145.5088  135.6068  153.7787 C   0  0  2  0  0  0  0  0  0  0  0  0
  146.7250  136.3744  153.5073 N   0  0  0  0  0  0  0  0  0  0  0  0
  147.1313  137.4682  154.1687 C   0  0  0  0  0  0  0  0  0  0  0  0
  146.5156  137.9678  155.1096 O   0  0  0  0  0  0  0  0  0  0  0  0
  148.2870  137.9343  153.6687 N   0  0  0  0  0  0  0  0  0  0  0  0
  149.0100  139.0749  154.0988 C   0  0  0  0  0  0  0  0  0  0  0  0
  150.3972  139.2026  154.4040 C   0  0  0  0  0  0  0  0  0  0  0  0
  150.6935  140.4396  154.7770 N   0  0  0  0  0  0  0  0  0  0  0  0
  149.5150  141.0993  154.7146 N   0  0  0  0  0  0  0  0  0  0  0  0
  148.4650  140.3067  154.3072 C   0  0  0  0  0  0  0  0  0  0  0  0
  145.8445  134.1287  154.0436 C   0  0  0  0  0  0  0  0  0  0  0  0
  146.2967  133.4000  152.7655 C   0  0  0  0  0  0  0  0  0  0  0  0
  149.4448  142.0789  154.9508 H   0  0  0  0  0  0  0  0  0  0  0  0
  143.5529  132.9109  147.8014 H   0  0  0  0  0  0  0  0  0  0  0  0
  145.0899  133.6783  148.1331 H   0  0  0  0  0  0  0  0  0  0  0  0
  146.0921  131.7919  150.7703 H   0  0  0  0  0  0  0  0  0  0  0  0
  146.3182  133.2689  149.8580 H   0  0  0  0  0  0  0  0  0  0  0  0
  145.9075  135.4127  150.9546 H   0  0  0  0  0  0  0  0  0  0  0  0
  144.2427  135.0121  150.5866 H   0  0  0  0  0  0  0  0  0  0  0  0
  144.3509  136.7690  152.3539 H   0  0  0  0  0  0  0  0  0  0  0  0
  143.5537  135.3230  152.9121 H   0  0  0  0  0  0  0  0  0  0  0  0
  145.0167  136.0032  154.6681 H   0  0  0  0  0  0  0  0  0  0  0  0
  147.3056  136.0477  152.7493 H   0  0  0  0  0  0  0  0  0  0  0  0
  148.6914  137.4225  152.8984 H   0  0  0  0  0  0  0  0  0  0  0  0
  151.1853  138.4652  154.3731 H   0  0  0  0  0  0  0  0  0  0  0  0
  147.4561  140.6787  154.2054 H   0  0  0  0  0  0  0  0  0  0  0  0
  146.6122  134.0474  154.8143 H   0  0  0  0  0  0  0  0  0  0  0  0
  144.9615  133.6278  154.4428 H   0  0  0  0  0  0  0  0  0  0  0  0
  146.4674  132.3490  152.9996 H   0  0  0  0  0  0  0  0  0  0  0  0
  147.2503  133.8006  152.4184 H   0  0  0  0  0  0  0  0  0  0  0  0
  144.4166  133.1480  152.0486 H   0  0  0  0  0  0  0  0  0  0  0  0
  1  2  1  0  0  0  0
  1 21  1  0  0  0  0
  1 22  1  0  0  0  0
  2  3  2  0  0  0  0
  2  4  1  0  0  0  0
  4  5  1  0  0  0  0
  4 23  1  0  0  0  0
  4 24  1  0  0  0  0
  5 19  1  0  0  0  0
  5  6  1  0  0  0  0
  5 38  1  0  0  0  0
  6  7  1  0  0  0  0
  6 25  1  0  0  0  0
  6 26  1  0  0  0  0
  7  8  1  0  0  0  0
  7 27  1  0  0  0  0
  7 28  1  0  0  0  0
  8  9  1  0  0  0  0
  8 18  1  0  0  0  0
  8 29  1  0  0  0  0
  9 10  1  0  0  0  0
  9 30  1  0  0  0  0
 10 11  2  0  0  0  0
 10 12  1  0  0  0  0
 12 13  1  0  0  0  0
 12 31  1  0  0  0  0
 13 17  2  0  0  0  0
 13 14  1  0  0  0  0
 14 15  2  0  0  0  0
 14 32  1  0  0  0  0
 15 16  1  0  0  0  0
 16 20  1  0  0  0  0
 16 17  1  0  0  0  0
 17 33  1  0  0  0  0
 18 19  1  0  0  0  0
 18 34  1  0  0  0  0
 18 35  1  0  0  0  0
 19 36  1  0  0  0  0
 19 37  1  0  0  0  0
M  CHG  1   5   1
M  END
> <s_m_source_file>
AV-unprocessed.smi

> <i_m_source_file_index>
1399

> <i_lp_mmshare_version>
43012

> <i_f3d_flags>
0

> <s_epik_input>
W05IMl1DKD1PKVtDSDJdTjFbQ0gyXVtDSDJdW0NIXShbQ0gyXVtDSDJdMSlbTkhdQyg9TylbTkhdYzJbY0hdbltuSF1bY0hdMg==

> <s_epik_cmdline>
J2VwaWtfcHl0aG9uJywgJy1waCcsICc3LjAnLCAnLXRuJywgJzgnLCAnLW1hJywgJzIwMCcsICctbWV0YWxfYmluZGluZycsICctaW1hZScsICc8aW5maWxlLm1hZT4nLCAnLW9tYWUnLCAnPG91dGZpbGUubWFlPic=

> <r_lp_tautomer_probability>
0.5

> <r_epik_Ionization_Penalty>
0.838927

> <r_epik_Ionization_Penalty_Charging>
0.838844

> <r_epik_Ionization_Penalty_Neutral>
8.28742e-05

> <r_epik_State_Penalty>
0.8734

> <r_epik_Charging_Adjusted_Penalty>
1.71224

> <i_epik_Tot_Q>
1

> <i_epik_Tot_abs_Q>
1

> <r_epik_Metal_State_Penalty>
0.890702

> <b_epik_Metal_Only>
0

> <s_lp_Force_Field>
OPLS_2005

> <r_lp_Energy>
14.6422

> <b_lp_Chiralities_Consistent>
1

> <s_lp_Variant>
AV-unprocessed.smi:1399-3

> <Gold.Version>
5.8.1

> <Gold.Id.Protein>
6NUR|6NUR_protein|mol2

> <Gold.PLP.Fitness>
39.6165

> <Gold.PLP.PLP>
-26.1018

> <Gold.PLP.part.hbond>
-5.0000

> <Gold.PLP.part.metal>
0.0000

> <Gold.PLP.part.buried>
-5.1502

> <Gold.PLP.part.nonpolar>
-17.3728

> <Gold.PLP.part.repulsive>
1.9076

> <Gold.PLP.ligand.clash>
0.0000

> <Gold.PLP.ligand.torsion>
0.6730

> <Gold.PLP.Chemscore.Hbond>
4.9440

> <Gold.PLP.Chemscore.CHOScore>
0.0000

> <Gold.PLP.Chemscore.Metal>
0.0000

> <Gold.Chemscore.Hbonds>
donor molecule, donor type, donor heavy atom, donor atom, acceptor molecule, acceptor atom, score
      L1  H     1    22       P1  7921  1.00
      L1  H     9    30       P1  7948  0.93
      L1  H    12    31       P1  7948  1.00
      P1  H  7989  7998       L1    15  0.95
      P1  H 10785 10796       L1     3  0.99

> <Gold.PLP.Chemscore.Internal.Correction>
0.0286

> <Gold.Rescore>
     Score         DG    S(hbond)    S(metal)    S(lipo)     H(rot)  DE(clash)    DE(int)     intcor
     17.31     -18.36       3.91        0.00      44.13       2.09       0.27       0.79       ----

> <Gold.Chemscore.Fitness>
17.3065

> <Gold.Chemscore.DG>
-18.3631

> <Gold.Chemscore.ZeroCoef>
-5.4800

> <Gold.Chemscore.Hbond>
3.9105

> <Gold.Chemscore.Metal>
0.0000

> <Gold.Chemscore.Lipo>
44.1341

> <Gold.Chemscore.Internal_Hbond>
0.0000

> <Gold.Chemscore.DEClash>
0.2696

> <Gold.Chemscore.DEInternal>
0.7870

> <Gold.Chemscore.Rot>
2.0865

> <Gold.Chemscore.Internal.Correction>
   9.000000E+99

> <Gold.Chemscore.Hbonds>
donor molecule, donor type, donor heavy atom, donor atom, acceptor molecule, acceptor atom, score
      L1  H     1    22       P1  7921  0.77
      L1  H     9    30       P1  7948  0.91
      L1  H    12    31       P1  7948  0.98
      P1  H  7989  7998       L1    15  0.15
      P1  H 10785 10796       L1     3  0.77

> <Gold.Chemscore.Hbond.Weighted>
-13.0609

> <Gold.Chemscore.Metal.Weighted>
-0.0000

> <Gold.Chemscore.Lipo.Weighted>
-5.1637

> <Gold.Chemscore.Internal_Hbond.Weighted>
0.0000

> <Gold.Chemscore.DEClash.Weighted>
0.2696

> <Gold.Chemscore.DEInternal.Weighted>
0.7870

> <Gold.Chemscore.Rot.Weighted>
5.3415

> <Gold.Chemscore.Internal.Correction.Weighted>
   9.000000E+99

> <Gold.Protein.RotatedTorsions>
[ 6907 6896 6895 6894 ] final   72.50 input  -60.11 | X-H torsion
[ 7974 7965 7964 7962 ] final   18.56 input  175.53 | X-H torsion
[ 8008 7997 7996 7995 ] final  -29.36 input   59.86 | X-H torsion
[ 10167 10162 10161 10158 ] final  -45.77 input  -65.29 | X-H torsion
[ 10718 10713 10712 10709 ] final   45.02 input   66.30 | X-H torsion
[ 10763 10752 10751 10750 ] final  -82.35 input  -60.55 | X-H torsion
[ 11005 11000 10999 10996 ] final   23.98 input  -57.11 | X-H torsion

> <Gold.Protein.ActiveResidues>
 VAL166  LYS551  ARG553  GLY616  TRP617  ASP618  TYR619  PRO620  LYS621  CYS622 
 ASP623  PHE694  ASN695  SER759  ASP760  ASP761  ALA762  ILE779  LEU786  VAL792 
 PHE793  MET794  SER795  GLU796  ALA797  LYS798  CYS799  TRP800  GLU811  SER814 

> <Gold.Protein.RotatedAtoms>
  152.4871  134.4561  159.9590 H   0  0  0  0  0  0  0  0  0  0  0  0  # atno 6907 bound_to 6896
  151.4556  133.3600  159.2809 H   0  0  0  0  0  0  0  0  0  0  0  0  # atno 6908 bound_to 6896
  150.8992  134.8427  159.7408 H   0  0  0  0  0  0  0  0  0  0  0  0  # atno 6909 bound_to 6896
  146.2180  139.8439  142.8635 H   0  0  0  0  0  0  0  0  0  0  0  0  # atno 7974 bound_to 7965
  154.4293  140.1820  156.1236 H   0  0  0  0  0  0  0  0  0  0  0  0  # atno 8008 bound_to 7997
  156.0123  140.3349  155.6928 H   0  0  0  0  0  0  0  0  0  0  0  0  # atno 8009 bound_to 7997
  155.6093  140.0648  157.2701 H   0  0  0  0  0  0  0  0  0  0  0  0  # atno 8010 bound_to 7997
  140.6844  143.2863  151.3687 H   0  0  0  0  0  0  0  0  0  0  0  0  # atno 10167 bound_to 10162
  157.4331  130.8036  149.7622 H   0  0  0  0  0  0  0  0  0  0  0  0  # atno 10718 bound_to 10713
  154.5747  135.5594  153.7128 H   0  0  0  0  0  0  0  0  0  0  0  0  # atno 10763 bound_to 10752
  153.0060  135.6305  154.2065 H   0  0  0  0  0  0  0  0  0  0  0  0  # atno 10764 bound_to 10752
  154.2005  135.2878  155.2972 H   0  0  0  0  0  0  0  0  0  0  0  0  # atno 10765 bound_to 10752
  140.3637  134.2097  155.7670 H   0  0  0  0  0  0  0  0  0  0  0  0  # atno 11005 bound_to 11000
  145.2870  141.0156  143.3685 LP  0  0  0  0  0  0  0  0  0  0  0  0  # atno 17320 bound_to 7965
  144.9106  139.4533  143.6589 LP  0  0  0  0  0  0  0  0  0  0  0  0  # atno 17321 bound_to 7965
  139.6191  144.0942  152.2374 LP  0  0  0  0  0  0  0  0  0  0  0  0  # atno 17342 bound_to 10162
  140.0381  144.6029  150.7433 LP  0  0  0  0  0  0  0  0  0  0  0  0  # atno 17343 bound_to 10162
  155.9920  130.3933  150.2959 LP  0  0  0  0  0  0  0  0  0  0  0  0  # atno 17370 bound_to 10713
  157.1117  131.0223  151.3045 LP  0  0  0  0  0  0  0  0  0  0  0  0  # atno 17371 bound_to 10713
  141.1976  133.8055  157.0620 LP  0  0  0  0  0  0  0  0  0  0  0  0  # atno 17394 bound_to 11000
  140.0606  134.9757  157.1298 LP  0  0  0  0  0  0  0  0  0  0  0  0  # atno 17395 bound_to 11000

$$$$
