AV-unprocessed.smi:2319|AV-procd|sdf|9277|dock8
  -GOLD-   2272012503D 1   1.00000     0.00000
 Structure written by MMmdl.
 46 47  0  0  0  0  0  0  0  0  1 V2000
  152.0863  138.1056  154.4099 C   0  0  0  0  0  0  0  0  0  0  0  0
  150.7104  137.6716  154.9263 C   0  0  0  0  0  0  0  0  0  0  0  0
  150.7037  136.2856  155.4813 C   0  0  0  0  0  0  0  0  0  0  0  0
  151.5309  136.0328  156.5293 O   0  0  0  0  0  0  0  0  0  0  0  0
  151.4015  134.6842  156.8949 N   0  0  0  0  0  0  0  0  0  0  0  0
  150.5135  134.1490  156.0698 C   0  0  0  0  0  0  0  0  0  0  0  0
  150.2127  132.6799  156.1757 C   0  0  0  0  0  0  0  0  0  0  0  0
  150.0243  135.1443  155.1735 C   0  0  0  0  0  0  0  0  0  0  0  0
  149.0945  135.0247  154.1108 N   0  0  0  0  0  0  0  0  0  0  0  0
  148.1215  134.1092  153.9914 C   0  0  0  0  0  0  0  0  0  0  0  0
  147.8857  133.2211  154.8098 O   0  0  0  0  0  0  0  0  0  0  0  0
  147.4106  134.2979  152.8719 N   0  0  0  0  0  0  0  0  0  0  0  0
  146.2587  133.4973  152.4622 C   0  0  2  0  0  0  0  0  0  0  0  0
  146.6195  132.5266  151.3552 C   0  0  0  0  0  0  0  0  0  0  0  0
  145.2711  132.2543  150.6764 C   0  0  0  0  0  0  0  0  0  0  0  0
  145.4059  132.0987  149.1539 C   0  0  0  0  0  0  0  0  0  0  0  0
  144.5524  131.0422  151.2929 C   0  0  0  0  0  0  0  0  0  0  0  0
  144.4688  133.4037  150.9449 O   0  0  0  0  0  0  0  0  0  0  0  0
  145.1200  134.3206  151.8227 C   0  0  0  0  0  0  0  0  0  0  0  0
  144.0883  134.7962  152.8574 C   0  0  0  0  0  0  0  0  0  0  0  0
  145.5995  135.5008  150.9511 C   0  0  0  0  0  0  0  0  0  0  0  0
  152.0504  139.1201  154.0127 H   0  0  0  0  0  0  0  0  0  0  0  0
  152.4316  137.4468  153.6125 H   0  0  0  0  0  0  0  0  0  0  0  0
  152.8305  138.0862  155.2069 H   0  0  0  0  0  0  0  0  0  0  0  0
  150.3776  138.3679  155.6966 H   0  0  0  0  0  0  0  0  0  0  0  0
  149.9822  137.7448  154.1180 H   0  0  0  0  0  0  0  0  0  0  0  0
  149.9995  132.2489  155.1976 H   0  0  0  0  0  0  0  0  0  0  0  0
  149.3502  132.5024  156.8181 H   0  0  0  0  0  0  0  0  0  0  0  0
  151.0550  132.1290  156.5954 H   0  0  0  0  0  0  0  0  0  0  0  0
  149.1029  135.7693  153.4292 H   0  0  0  0  0  0  0  0  0  0  0  0
  147.6742  135.0585  152.2627 H   0  0  0  0  0  0  0  0  0  0  0  0
  145.8764  132.9198  153.3065 H   0  0  0  0  0  0  0  0  0  0  0  0
  147.3080  133.0005  150.6535 H   0  0  0  0  0  0  0  0  0  0  0  0
  147.1044  131.6226  151.7260 H   0  0  0  0  0  0  0  0  0  0  0  0
  146.0293  131.2413  148.8988 H   0  0  0  0  0  0  0  0  0  0  0  0
  145.8564  132.9839  148.7038 H   0  0  0  0  0  0  0  0  0  0  0  0
  144.4318  131.9538  148.6858 H   0  0  0  0  0  0  0  0  0  0  0  0
  145.1202  130.1248  151.1353 H   0  0  0  0  0  0  0  0  0  0  0  0
  143.5667  130.9020  150.8481 H   0  0  0  0  0  0  0  0  0  0  0  0
  144.4117  131.1646  152.3670 H   0  0  0  0  0  0  0  0  0  0  0  0
  144.5267  135.5093  153.5557 H   0  0  0  0  0  0  0  0  0  0  0  0
  143.6954  133.9607  153.4376 H   0  0  0  0  0  0  0  0  0  0  0  0
  143.2425  135.2854  152.3736 H   0  0  0  0  0  0  0  0  0  0  0  0
  146.0744  136.2768  151.5518 H   0  0  0  0  0  0  0  0  0  0  0  0
  144.7615  135.9631  150.4286 H   0  0  0  0  0  0  0  0  0  0  0  0
  146.3155  135.1794  150.1947 H   0  0  0  0  0  0  0  0  0  0  0  0
  1  2  1  0  0  0  0
  1 22  1  0  0  0  0
  1 23  1  0  0  0  0
  1 24  1  0  0  0  0
  2  3  1  0  0  0  0
  2 25  1  0  0  0  0
  2 26  1  0  0  0  0
  3  8  2  0  0  0  0
  3  4  1  0  0  0  0
  4  5  1  0  0  0  0
  5  6  2  0  0  0  0
  6  7  1  0  0  0  0
  6  8  1  0  0  0  0
  7 27  1  0  0  0  0
  7 28  1  0  0  0  0
  7 29  1  0  0  0  0
  8  9  1  0  0  0  0
  9 10  1  0  0  0  0
  9 30  1  0  0  0  0
 10 11  2  0  0  0  0
 10 12  1  0  0  0  0
 12 13  1  0  0  0  0
 12 31  1  0  0  0  0
 13 19  1  0  0  0  0
 13 14  1  0  0  0  0
 13 32  1  0  0  0  0
 14 15  1  0  0  0  0
 14 33  1  0  0  0  0
 14 34  1  0  0  0  0
 15 16  1  0  0  0  0
 15 17  1  0  0  0  0
 15 18  1  0  0  0  0
 16 35  1  0  0  0  0
 16 36  1  0  0  0  0
 16 37  1  0  0  0  0
 17 38  1  0  0  0  0
 17 39  1  0  0  0  0
 17 40  1  0  0  0  0
 18 19  1  0  0  0  0
 19 20  1  0  0  0  0
 19 21  1  0  0  0  0
 20 41  1  0  0  0  0
 20 42  1  0  0  0  0
 20 43  1  0  0  0  0
 21 44  1  0  0  0  0
 21 45  1  0  0  0  0
 21 46  1  0  0  0  0
M  END
> <s_m_source_file>
AV-unprocessed.smi

> <i_m_source_file_index>
2319

> <i_lp_mmshare_version>
43012

> <i_f3d_flags>
0

> <s_epik_input>
W0NIM11bQ0gyXWMxb25jKFtDSDNdKWMxW05IXUMoPU8pW05IXVtDQEBIXShDKE8yKShbQ0gzXSlbQ0gzXSlbQ0gyXUMyKFtDSDNdKVtDSDNd

> <s_epik_cmdline>
J2VwaWtfcHl0aG9uJywgJy1waCcsICc3LjAnLCAnLXRuJywgJzgnLCAnLW1hJywgJzIwMCcsICctbWV0YWxfYmluZGluZycsICctaW1hZScsICc8aW5maWxlLm1hZT4nLCAnLW9tYWUnLCAnPG91dGZpbGUubWFlPic=

> <r_lp_tautomer_probability>
1

> <r_epik_Ionization_Penalty>
3.17207e-05

> <r_epik_Ionization_Penalty_Charging>
0

> <r_epik_Ionization_Penalty_Neutral>
3.17207e-05

> <r_epik_State_Penalty>
-0

> <r_epik_Charging_Adjusted_Penalty>
0

> <i_epik_Tot_Q>
0

> <i_epik_Tot_abs_Q>
0

> <r_epik_Metal_State_Penalty>
-0

> <b_epik_Metal_Only>
0

> <s_lp_Force_Field>
OPLS_2005

> <r_lp_Energy>
19.5027

> <b_lp_Chiralities_Consistent>
1

> <s_lp_Variant>
AV-unprocessed.smi:2319-1

> <Gold.Version>
5.8.1

> <Gold.Id.Protein>
6NUR|6NUR_protein|mol2

> <Gold.PLP.Fitness>
39.5469

> <Gold.PLP.PLP>
-34.0732

> <Gold.PLP.part.hbond>
-3.1075

> <Gold.PLP.part.metal>
0.0000

> <Gold.PLP.part.buried>
-2.5102

> <Gold.PLP.part.nonpolar>
-28.5225

> <Gold.PLP.part.repulsive>
0.1805

> <Gold.PLP.ligand.clash>
0.0000

> <Gold.PLP.ligand.torsion>
0.3742

> <Gold.PLP.Chemscore.Hbond>
1.9806

> <Gold.PLP.Chemscore.CHOScore>
0.0000

> <Gold.PLP.Chemscore.Metal>
0.0000

> <Gold.Chemscore.Hbonds>
donor molecule, donor type, donor heavy atom, donor atom, acceptor molecule, acceptor atom, score
      L1  H     9    30       P1  7948  0.96
      L1  H    12    31       P1  7948  0.91
      P1  H 10752 10763       L1     4  0.10

> <Gold.PLP.Chemscore.Internal.Correction>
0.2804

> <Gold.Rescore>
     Score         DG    S(hbond)    S(metal)    S(lipo)     H(rot)  DE(clash)    DE(int)     intcor
     17.94     -20.70       2.51        0.00      83.84       1.16       0.27       2.49       ----

> <Gold.Chemscore.Fitness>
17.9356

> <Gold.Chemscore.DG>
-20.7007

> <Gold.Chemscore.ZeroCoef>
-5.4800

> <Gold.Chemscore.Hbond>
2.5085

> <Gold.Chemscore.Metal>
0.0000

> <Gold.Chemscore.Lipo>
83.8406

> <Gold.Chemscore.Internal_Hbond>
0.0000

> <Gold.Chemscore.DEClash>
0.2740

> <Gold.Chemscore.DEInternal>
2.4911

> <Gold.Chemscore.Rot>
1.1590

> <Gold.Chemscore.Internal.Correction>
   9.000000E+99

> <Gold.Chemscore.Hbonds>
donor molecule, donor type, donor heavy atom, donor atom, acceptor molecule, acceptor atom, score
      L1  H     9    30       P1  7948  0.72
      L1  H    12    31       P1  7948  0.83

> <Gold.Chemscore.Hbond.Weighted>
-8.3784

> <Gold.Chemscore.Metal.Weighted>
-0.0000

> <Gold.Chemscore.Lipo.Weighted>
-9.8093

> <Gold.Chemscore.Internal_Hbond.Weighted>
0.0000

> <Gold.Chemscore.DEClash.Weighted>
0.2740

> <Gold.Chemscore.DEInternal.Weighted>
2.4911

> <Gold.Chemscore.Rot.Weighted>
2.9671

> <Gold.Chemscore.Internal.Correction.Weighted>
   9.000000E+99

> <Gold.Protein.RotatedTorsions>
[ 6907 6896 6895 6894 ] final   29.33 input  -60.11 | X-H torsion
[ 7974 7965 7964 7962 ] final   30.57 input  175.53 | X-H torsion
[ 8008 7997 7996 7995 ] final  100.31 input   59.86 | X-H torsion
[ 10167 10162 10161 10158 ] final  120.77 input  -65.29 | X-H torsion
[ 10718 10713 10712 10709 ] final  -38.31 input   66.30 | X-H torsion
[ 10763 10752 10751 10750 ] final   93.89 input  -60.55 | X-H torsion
[ 11005 11000 10999 10996 ] final   23.87 input  -57.11 | X-H torsion

> <Gold.Protein.ActiveResidues>
 VAL166  LYS551  ARG553  GLY616  TRP617  ASP618  TYR619  PRO620  LYS621  CYS622 
 ASP623  PHE694  ASN695  SER759  ASP760  ASP761  ALA762  ILE779  LEU786  VAL792 
 PHE793  MET794  SER795  GLU796  ALA797  LYS798  CYS799  TRP800  GLU811  SER814 

> <Gold.Protein.RotatedAtoms>
  152.0299  134.9773  160.0572 H   0  0  0  0  0  0  0  0  0  0  0  0  # atno 6907 bound_to 6896
  152.1254  133.4372  159.4703 H   0  0  0  0  0  0  0  0  0  0  0  0  # atno 6908 bound_to 6896
  150.6852  134.2403  159.4513 H   0  0  0  0  0  0  0  0  0  0  0  0  # atno 6909 bound_to 6896
  146.1604  139.6771  142.9038 H   0  0  0  0  0  0  0  0  0  0  0  0  # atno 7974 bound_to 7965
  156.1191  140.3215  155.8182 H   0  0  0  0  0  0  0  0  0  0  0  0  # atno 8008 bound_to 7997
  155.4536  140.0534  157.3015 H   0  0  0  0  0  0  0  0  0  0  0  0  # atno 8009 bound_to 7997
  154.4814  140.2054  155.9768 H   0  0  0  0  0  0  0  0  0  0  0  0  # atno 8010 bound_to 7997
  139.5961  144.7042  151.3173 H   0  0  0  0  0  0  0  0  0  0  0  0  # atno 10167 bound_to 10162
  156.3052  130.4245  149.8104 H   0  0  0  0  0  0  0  0  0  0  0  0  # atno 10718 bound_to 10713
  153.2354  135.4309  155.0641 H   0  0  0  0  0  0  0  0  0  0  0  0  # atno 10763 bound_to 10752
  154.8316  135.3390  154.6726 H   0  0  0  0  0  0  0  0  0  0  0  0  # atno 10764 bound_to 10752
  153.7151  135.7020  153.5083 H   0  0  0  0  0  0  0  0  0  0  0  0  # atno 10765 bound_to 10752
  140.3649  134.2086  155.7670 H   0  0  0  0  0  0  0  0  0  0  0  0  # atno 11005 bound_to 11000
  145.4603  141.0432  143.2755 LP  0  0  0  0  0  0  0  0  0  0  0  0  # atno 17320 bound_to 7965
  144.8019  139.6125  143.7068 LP  0  0  0  0  0  0  0  0  0  0  0  0  # atno 17321 bound_to 7965
  140.7213  143.7128  150.7756 LP  0  0  0  0  0  0  0  0  0  0  0  0  # atno 17342 bound_to 10162
  140.0695  143.5075  152.2587 LP  0  0  0  0  0  0  0  0  0  0  0  0  # atno 17343 bound_to 10162
  156.5468  130.8324  151.3287 LP  0  0  0  0  0  0  0  0  0  0  0  0  # atno 17370 bound_to 10713
  157.7378  130.9801  150.2213 LP  0  0  0  0  0  0  0  0  0  0  0  0  # atno 17371 bound_to 10713
  141.1973  133.8063  157.0635 LP  0  0  0  0  0  0  0  0  0  0  0  0  # atno 17394 bound_to 11000
  140.0598  134.9761  157.1284 LP  0  0  0  0  0  0  0  0  0  0  0  0  # atno 17395 bound_to 11000

$$$$
