AV-unprocessed.smi:1976|AV-procd|sdf|7990|dock7
  -GOLD-   2272010173D 1   1.00000     0.00000
 Structure written by MMmdl.
 45 47  0  0  0  0  0  0  0  0  2 V2000
  153.0989  139.2139  156.3606 O   0  0  0  0  0  0  0  0  0  0  0  0
  152.1738  139.4749  157.1304 C   0  0  0  0  0  0  0  0  0  0  0  0
  152.3557  139.3498  158.6495 C   0  0  0  0  0  0  0  0  0  0  0  0
  152.6727  140.6319  159.3002 N   0  0  0  0  0  0  0  0  0  0  0  0
  152.0655  141.7884  158.7725 C   0  0  0  0  0  0  0  0  0  0  0  0
  152.2816  143.0214  159.2696 C   0  0  0  0  0  0  0  0  0  0  0  0
  151.5628  144.2431  158.7185 C   0  0  0  0  0  0  0  0  0  0  0  0
  151.9220  145.3473  159.3732 F   0  0  0  0  0  0  0  0  0  0  0  0
  151.8680  144.4057  157.4319 F   0  0  0  0  0  0  0  0  0  0  0  0
  150.2399  144.1091  158.8173 F   0  0  0  0  0  0  0  0  0  0  0  0
  153.1625  143.1087  160.4177 C   0  0  0  0  0  0  0  0  0  0  0  0
  153.7404  142.0109  160.9434 C   0  0  0  0  0  0  0  0  0  0  0  0
  153.5076  140.6786  160.3813 C   0  0  0  0  0  0  0  0  0  0  0  0
  154.0285  139.6673  160.8528 O   0  0  0  0  0  0  0  0  0  0  0  0
  150.9595  139.8587  156.7107 N   0  0  0  0  0  0  0  0  0  0  0  0
  150.5847  140.0402  155.3128 C   0  0  1  0  0  0  0  0  0  0  0  0
  150.7568  138.7762  154.4486 C   0  0  0  0  0  0  0  0  0  0  0  0
  149.5573  138.7779  153.4800 C   0  0  0  0  0  0  0  0  0  0  0  0
  148.8399  140.0388  153.7494 N   0  3  1  0  0  0  0  0  0  0  0  0
  147.4025  140.0861  153.4035 C   0  0  0  0  0  0  0  0  0  0  0  0
  146.8588  141.5018  153.6835 C   0  0  0  0  0  0  0  0  0  0  0  0
  147.1633  141.9590  155.1254 C   0  0  0  0  0  0  0  0  0  0  0  0
  148.6600  141.7985  155.4562 C   0  0  0  0  0  0  0  0  0  0  0  0
  149.0975  140.3545  155.1622 C   0  0  2  0  0  0  0  0  0  0  0  0
  151.4558  138.9190  159.0930 H   0  0  0  0  0  0  0  0  0  0  0  0
  153.1435  138.6189  158.8372 H   0  0  0  0  0  0  0  0  0  0  0  0
  151.4005  141.6071  157.9406 H   0  0  0  0  0  0  0  0  0  0  0  0
  153.3657  144.0715  160.8629 H   0  0  0  0  0  0  0  0  0  0  0  0
  154.3923  142.1140  161.7984 H   0  0  0  0  0  0  0  0  0  0  0  0
  150.2536  140.0495  157.4071 H   0  0  0  0  0  0  0  0  0  0  0  0
  151.1642  140.8562  154.8755 H   0  0  0  0  0  0  0  0  0  0  0  0
  151.7089  138.7916  153.9172 H   0  0  0  0  0  0  0  0  0  0  0  0
  150.7368  137.8714  155.0582 H   0  0  0  0  0  0  0  0  0  0  0  0
  149.8653  138.7247  152.4354 H   0  0  0  0  0  0  0  0  0  0  0  0
  148.9092  137.9247  153.6868 H   0  0  0  0  0  0  0  0  0  0  0  0
  147.2701  139.8329  152.3510 H   0  0  0  0  0  0  0  0  0  0  0  0
  146.8550  139.3435  153.9862 H   0  0  0  0  0  0  0  0  0  0  0  0
  147.3093  142.2055  152.9820 H   0  0  0  0  0  0  0  0  0  0  0  0
  145.7841  141.5318  153.5006 H   0  0  0  0  0  0  0  0  0  0  0  0
  146.8574  142.9965  155.2633 H   0  0  0  0  0  0  0  0  0  0  0  0
  146.5724  141.3668  155.8253 H   0  0  0  0  0  0  0  0  0  0  0  0
  149.2485  142.4992  154.8623 H   0  0  0  0  0  0  0  0  0  0  0  0
  148.8420  142.0444  156.5030 H   0  0  0  0  0  0  0  0  0  0  0  0
  148.5198  139.6653  155.7832 H   0  0  0  0  0  0  0  0  0  0  0  0
  149.3042  140.7540  153.2081 H   0  0  0  0  0  0  0  0  0  0  0  0
  1  2  2  0  0  0  0
  2  3  1  0  0  0  0
  2 15  1  0  0  0  0
  3  4  1  0  0  0  0
  3 25  1  0  0  0  0
  3 26  1  0  0  0  0
  4 13  1  0  0  0  0
  4  5  1  0  0  0  0
  5  6  2  0  0  0  0
  5 27  1  0  0  0  0
  6  7  1  0  0  0  0
  6 11  1  0  0  0  0
  7  8  1  0  0  0  0
  7  9  1  0  0  0  0
  7 10  1  0  0  0  0
 11 12  2  0  0  0  0
 11 28  1  0  0  0  0
 12 13  1  0  0  0  0
 12 29  1  0  0  0  0
 13 14  2  0  0  0  0
 15 16  1  0  0  0  0
 15 30  1  0  0  0  0
 16 24  1  0  0  0  0
 16 17  1  0  0  0  0
 16 31  1  0  0  0  0
 17 18  1  0  0  0  0
 17 32  1  0  0  0  0
 17 33  1  0  0  0  0
 18 19  1  0  0  0  0
 18 34  1  0  0  0  0
 18 35  1  0  0  0  0
 19 24  1  0  0  0  0
 19 20  1  0  0  0  0
 19 45  1  0  0  0  0
 20 21  1  0  0  0  0
 20 36  1  0  0  0  0
 20 37  1  0  0  0  0
 21 22  1  0  0  0  0
 21 38  1  0  0  0  0
 21 39  1  0  0  0  0
 22 23  1  0  0  0  0
 22 40  1  0  0  0  0
 22 41  1  0  0  0  0
 23 24  1  0  0  0  0
 23 42  1  0  0  0  0
 23 43  1  0  0  0  0
 24 44  1  0  0  0  0
M  CHG  1  19   1
M  END
> <s_m_source_file>
AV-unprocessed.smi

> <i_m_source_file_index>
1976

> <i_lp_mmshare_version>
43012

> <i_f3d_flags>
0

> <s_epik_input>
W0NIMl0xW0NIMl1bQ0gyXVtDSDJdW0NASF0oTjEyKVtDQEBIXShbQ0gyXVtDSDJdMilbTkhdQyg9TylbQ0gyXW4zW2NIXWMoQyhGKShGKUYpW2NIXVtjSF1jMz1P

> <s_epik_cmdline>
J2VwaWtfcHl0aG9uJywgJy1waCcsICc3LjAnLCAnLXRuJywgJzgnLCAnLW1hJywgJzIwMCcsICctbWV0YWxfYmluZGluZycsICctaW1hZScsICc8aW5maWxlLm1hZT4nLCAnLW9tYWUnLCAnPG91dGZpbGUubWFlPic=

> <r_lp_tautomer_probability>
1

> <r_epik_Ionization_Penalty>
0.00171506

> <r_epik_Ionization_Penalty_Charging>
0.00171498

> <r_epik_Ionization_Penalty_Neutral>
7.81737e-08

> <r_epik_State_Penalty>
0.00115937

> <r_epik_Charging_Adjusted_Penalty>
0.00287436

> <i_epik_Tot_Q>
1

> <i_epik_Tot_abs_Q>
1

> <r_epik_Metal_State_Penalty>
-0

> <b_epik_Metal_Only>
0

> <s_lp_Force_Field>
OPLS_2005

> <r_lp_Energy>
46.2407

> <b_lp_Chiralities_Consistent>
1

> <s_lp_Variant>
AV-unprocessed.smi:1976-8

> <Gold.Version>
5.8.1

> <Gold.Id.Protein>
6NUR|6NUR_protein|mol2

> <Gold.PLP.Fitness>
53.3456

> <Gold.PLP.PLP>
-51.3807

> <Gold.PLP.part.hbond>
-1.9729

> <Gold.PLP.part.metal>
0.0000

> <Gold.PLP.part.buried>
1.0253

> <Gold.PLP.part.nonpolar>
-50.1467

> <Gold.PLP.part.repulsive>
0.1951

> <Gold.PLP.ligand.clash>
0.0000

> <Gold.PLP.ligand.torsion>
0.7172

> <Gold.PLP.Chemscore.Hbond>
1.1186

> <Gold.PLP.Chemscore.CHOScore>
0.0000

> <Gold.PLP.Chemscore.Metal>
0.0000

> <Gold.Chemscore.Hbonds>
donor molecule, donor type, donor heavy atom, donor atom, acceptor molecule, acceptor atom, score
      L1  H    19    45       P1  7957  0.13
      P1  H  7997  8010       L1     1  0.99

> <Gold.PLP.Chemscore.Internal.Correction>
0.0436

> <Gold.Rescore>
     Score         DG    S(hbond)    S(metal)    S(lipo)     H(rot)  DE(clash)    DE(int)     intcor
     15.85     -18.83       1.29        0.00     111.86       1.58       1.29       1.69       ----

> <Gold.Chemscore.Fitness>
15.8525

> <Gold.Chemscore.DG>
-18.8285

> <Gold.Chemscore.ZeroCoef>
-5.4800

> <Gold.Chemscore.Hbond>
1.2914

> <Gold.Chemscore.Metal>
0.0000

> <Gold.Chemscore.Lipo>
111.8603

> <Gold.Chemscore.Internal_Hbond>
0.0000

> <Gold.Chemscore.DEClash>
1.2865

> <Gold.Chemscore.DEInternal>
1.6896

> <Gold.Chemscore.Rot>
1.5830

> <Gold.Chemscore.Internal.Correction>
   9.000000E+99

> <Gold.Chemscore.Hbonds>
donor molecule, donor type, donor heavy atom, donor atom, acceptor molecule, acceptor atom, score
      L1  H    19    45       P1  7957  0.12
      P1  H  7997  8010       L1     1  0.90

> <Gold.Chemscore.Hbond.Weighted>
-4.3133

> <Gold.Chemscore.Metal.Weighted>
-0.0000

> <Gold.Chemscore.Lipo.Weighted>
-13.0877

> <Gold.Chemscore.Internal_Hbond.Weighted>
0.0000

> <Gold.Chemscore.DEClash.Weighted>
1.2865

> <Gold.Chemscore.DEInternal.Weighted>
1.6896

> <Gold.Chemscore.Rot.Weighted>
4.0524

> <Gold.Chemscore.Internal.Correction.Weighted>
   9.000000E+99

> <Gold.Protein.RotatedTorsions>
[ 6907 6896 6895 6894 ] final  173.84 input  -60.11 | X-H torsion
[ 7974 7965 7964 7962 ] final  -10.05 input  175.53 | X-H torsion
[ 8008 7997 7996 7995 ] final   76.92 input   59.86 | X-H torsion
[ 10167 10162 10161 10158 ] final  147.80 input  -65.29 | X-H torsion
[ 10718 10713 10712 10709 ] final  -45.87 input   66.30 | X-H torsion
[ 10763 10752 10751 10750 ] final  -56.93 input  -60.55 | X-H torsion
[ 11005 11000 10999 10996 ] final  -50.00 input  -57.11 | X-H torsion

> <Gold.Protein.ActiveResidues>
 VAL166  LYS551  ARG553  GLY616  TRP617  ASP618  TYR619  PRO620  LYS621  CYS622 
 ASP623  PHE694  ASN695  SER759  ASP760  ASP761  ALA762  ILE779  LEU786  VAL792 
 PHE793  MET794  SER795  GLU796  ALA797  LYS798  CYS799  TRP800  GLU811  SER814 

> <Gold.Protein.RotatedAtoms>
  151.7619  133.3334  159.3419 H   0  0  0  0  0  0  0  0  0  0  0  0  # atno 6907 bound_to 6896
  150.7494  134.6098  159.6089 H   0  0  0  0  0  0  0  0  0  0  0  0  # atno 6908 bound_to 6896
  152.3399  134.7150  160.0318 H   0  0  0  0  0  0  0  0  0  0  0  0  # atno 6909 bound_to 6896
  146.2233  140.2707  142.8356 H   0  0  0  0  0  0  0  0  0  0  0  0  # atno 7974 bound_to 7965
  155.8342  140.3465  155.5591 H   0  0  0  0  0  0  0  0  0  0  0  0  # atno 8008 bound_to 7997
  155.8210  140.0913  157.1869 H   0  0  0  0  0  0  0  0  0  0  0  0  # atno 8009 bound_to 7997
  154.4004  140.1430  156.3487 H   0  0  0  0  0  0  0  0  0  0  0  0  # atno 8010 bound_to 7997
  139.4884  144.5728  151.7022 H   0  0  0  0  0  0  0  0  0  0  0  0  # atno 10167 bound_to 10162
  156.2239  130.4168  149.8958 H   0  0  0  0  0  0  0  0  0  0  0  0  # atno 10718 bound_to 10713
  154.2143  135.6389  153.5125 H   0  0  0  0  0  0  0  0  0  0  0  0  # atno 10763 bound_to 10752
  152.9983  135.5481  154.6181 H   0  0  0  0  0  0  0  0  0  0  0  0  # atno 10764 bound_to 10752
  154.5626  135.2910  155.0878 H   0  0  0  0  0  0  0  0  0  0  0  0  # atno 10765 bound_to 10752
  141.0791  133.6658  156.3667 H   0  0  0  0  0  0  0  0  0  0  0  0  # atno 11005 bound_to 11000
  144.9270  140.7932  143.5713 LP  0  0  0  0  0  0  0  0  0  0  0  0  # atno 17320 bound_to 7965
  145.2648  139.1978  143.4873 LP  0  0  0  0  0  0  0  0  0  0  0  0  # atno 17321 bound_to 7965
  140.5318  144.0718  150.6056 LP  0  0  0  0  0  0  0  0  0  0  0  0  # atno 17342 bound_to 10162
  140.3710  143.2854  152.0277 LP  0  0  0  0  0  0  0  0  0  0  0  0  # atno 17343 bound_to 10162
  156.6595  130.8776  151.3545 LP  0  0  0  0  0  0  0  0  0  0  0  0  # atno 17370 bound_to 10713
  157.7101  130.9430  150.1060 LP  0  0  0  0  0  0  0  0  0  0  0  0  # atno 17371 bound_to 10713
  140.5508  134.6030  157.5407 LP  0  0  0  0  0  0  0  0  0  0  0  0  # atno 17394 bound_to 11000
  139.9604  134.7462  156.0249 LP  0  0  0  0  0  0  0  0  0  0  0  0  # atno 17395 bound_to 11000

$$$$
