AV-unprocessed.smi:2204|AV-procd|sdf|8940|dock7
  -GOLD-   2272012153D 1   1.00000     0.00000
 Structure written by MMmdl.
 39 40  0  0  0  0  0  0  0  0  1 V2000
  152.0932  144.7329  157.9921 C   0  0  0  0  0  0  0  0  0  0  0  0
  152.4340  143.8109  159.1253 C   0  0  0  0  0  0  0  0  0  0  0  0
  152.5709  144.1254  160.5060 C   0  0  0  0  0  0  0  0  0  0  0  0
  152.8936  142.9347  161.0934 C   0  0  0  0  0  0  0  0  0  0  0  0
  153.1757  142.6108  162.5237 C   0  0  0  0  0  0  0  0  0  0  0  0
  152.9335  141.9878  160.0851 N   0  0  0  0  0  0  0  0  0  0  0  0
  153.2588  140.5712  160.1687 C   0  0  0  0  0  0  0  0  0  0  0  0
  153.3270  139.9440  158.7751 C   0  0  0  0  0  0  0  0  0  0  0  0
  154.3155  139.2933  158.4381 O   0  0  0  0  0  0  0  0  0  0  0  0
  152.2751  140.1687  157.9731 N   0  0  0  0  0  0  0  0  0  0  0  0
  152.1804  139.8048  156.5631 C   0  0  1  0  0  0  0  0  0  0  0  0
  152.6833  138.3680  156.3552 C   0  0  0  0  0  0  0  0  0  0  0  0
  150.7253  139.9849  156.0903 C   0  0  1  0  0  0  0  0  0  0  0  0
  150.1045  141.3438  156.4305 C   0  0  0  0  0  0  0  0  0  0  0  0
  149.0634  141.5541  155.3412 C   0  0  0  0  0  0  0  0  0  0  0  0
  149.3607  140.4535  154.3198 C   0  0  0  0  0  0  0  0  0  0  0  0
  150.6455  139.9638  154.6739 O   0  0  0  0  0  0  0  0  0  0  0  0
  152.6481  142.5289  158.8802 N   0  0  0  0  0  0  0  0  0  0  0  0
  152.1978  145.7765  158.2894 H   0  0  0  0  0  0  0  0  0  0  0  0
  151.0649  144.5827  157.6625 H   0  0  0  0  0  0  0  0  0  0  0  0
  152.7472  144.5659  157.1356 H   0  0  0  0  0  0  0  0  0  0  0  0
  152.4545  145.0829  160.9917 H   0  0  0  0  0  0  0  0  0  0  0  0
  153.0789  143.4976  163.1500 H   0  0  0  0  0  0  0  0  0  0  0  0
  154.1888  142.2261  162.6431 H   0  0  0  0  0  0  0  0  0  0  0  0
  152.4799  141.8594  162.8971 H   0  0  0  0  0  0  0  0  0  0  0  0
  154.2125  140.4538  160.6844 H   0  0  0  0  0  0  0  0  0  0  0  0
  152.5058  140.0572  160.7684 H   0  0  0  0  0  0  0  0  0  0  0  0
  151.5096  140.7089  158.3509 H   0  0  0  0  0  0  0  0  0  0  0  0
  152.8086  140.4800  155.9789 H   0  0  0  0  0  0  0  0  0  0  0  0
  152.6341  138.0839  155.3038 H   0  0  0  0  0  0  0  0  0  0  0  0
  152.0868  137.6519  156.9215 H   0  0  0  0  0  0  0  0  0  0  0  0
  153.7211  138.2638  156.6734 H   0  0  0  0  0  0  0  0  0  0  0  0
  150.0958  139.1867  156.4893 H   0  0  0  0  0  0  0  0  0  0  0  0
  149.6775  141.3684  157.4339 H   0  0  0  0  0  0  0  0  0  0  0  0
  150.8573  142.1312  156.3701 H   0  0  0  0  0  0  0  0  0  0  0  0
  148.0474  141.4637  155.7268 H   0  0  0  0  0  0  0  0  0  0  0  0
  149.1681  142.5458  154.8996 H   0  0  0  0  0  0  0  0  0  0  0  0
  148.6341  139.6442  154.4055 H   0  0  0  0  0  0  0  0  0  0  0  0
  149.3445  140.8179  153.2925 H   0  0  0  0  0  0  0  0  0  0  0  0
  1  2  1  0  0  0  0
  1 19  1  0  0  0  0
  1 20  1  0  0  0  0
  1 21  1  0  0  0  0
  2 18  2  0  0  0  0
  2  3  1  0  0  0  0
  3  4  2  0  0  0  0
  3 22  1  0  0  0  0
  4  5  1  0  0  0  0
  4  6  1  0  0  0  0
  5 23  1  0  0  0  0
  5 24  1  0  0  0  0
  5 25  1  0  0  0  0
  6  7  1  0  0  0  0
  6 18  1  0  0  0  0
  7  8  1  0  0  0  0
  7 26  1  0  0  0  0
  7 27  1  0  0  0  0
  8  9  2  0  0  0  0
  8 10  1  0  0  0  0
 10 11  1  0  0  0  0
 10 28  1  0  0  0  0
 11 12  1  0  0  0  0
 11 13  1  0  0  0  0
 11 29  1  0  0  0  0
 12 30  1  0  0  0  0
 12 31  1  0  0  0  0
 12 32  1  0  0  0  0
 13 17  1  0  0  0  0
 13 14  1  0  0  0  0
 13 33  1  0  0  0  0
 14 15  1  0  0  0  0
 14 34  1  0  0  0  0
 14 35  1  0  0  0  0
 15 16  1  0  0  0  0
 15 36  1  0  0  0  0
 15 37  1  0  0  0  0
 16 17  1  0  0  0  0
 16 38  1  0  0  0  0
 16 39  1  0  0  0  0
M  END
> <s_m_source_file>
AV-unprocessed.smi

> <i_m_source_file_index>
2204

> <i_lp_mmshare_version>
43012

> <i_f3d_flags>
0

> <s_epik_input>
W0NIM11jMVtjSF1jKFtDSDNdKW4objEpW0NIMl1DKD1PKVtOSF1bQ0BIXShbQ0gzXSlbQ0BASF0yW0NIMl1bQ0gyXVtDSDJdTzI=

> <s_epik_cmdline>
J2VwaWtfcHl0aG9uJywgJy1waCcsICc3LjAnLCAnLXRuJywgJzgnLCAnLW1hJywgJzIwMCcsICctbWV0YWxfYmluZGluZycsICctaW1hZScsICc8aW5maWxlLm1hZT4nLCAnLW9tYWUnLCAnPG91dGZpbGUubWFlPic=

> <r_lp_tautomer_probability>
1

> <r_epik_Ionization_Penalty>
0.000433354

> <r_epik_Ionization_Penalty_Charging>
0

> <r_epik_Ionization_Penalty_Neutral>
0.000433354

> <r_epik_State_Penalty>
-0

> <r_epik_Charging_Adjusted_Penalty>
0

> <i_epik_Tot_Q>
0

> <i_epik_Tot_abs_Q>
0

> <r_epik_Metal_State_Penalty>
-0

> <b_epik_Metal_Only>
0

> <s_lp_Force_Field>
OPLS_2005

> <r_lp_Energy>
15.4652

> <b_lp_Chiralities_Consistent>
1

> <s_lp_Variant>
AV-unprocessed.smi:2204-4

> <Gold.Version>
5.8.1

> <Gold.Id.Protein>
6NUR|6NUR_protein|mol2

> <Gold.PLP.Fitness>
47.8199

> <Gold.PLP.PLP>
-42.5329

> <Gold.PLP.part.hbond>
-1.9596

> <Gold.PLP.part.metal>
0.0000

> <Gold.PLP.part.buried>
-2.7196

> <Gold.PLP.part.nonpolar>
-36.4866

> <Gold.PLP.part.repulsive>
0.1599

> <Gold.PLP.ligand.clash>
0.0000

> <Gold.PLP.ligand.torsion>
0.3740

> <Gold.PLP.Chemscore.Hbond>
2.0000

> <Gold.PLP.Chemscore.CHOScore>
0.0000

> <Gold.PLP.Chemscore.Metal>
0.0000

> <Gold.Chemscore.Hbonds>
donor molecule, donor type, donor heavy atom, donor atom, acceptor molecule, acceptor atom, score
      P1  H  7989  7998       L1    17  0.95
      P1  H  7997  8008       L1     9  0.98

> <Gold.PLP.Chemscore.Internal.Correction>
0.0350

> <Gold.Rescore>
     Score         DG    S(hbond)    S(metal)    S(lipo)     H(rot)  DE(clash)    DE(int)     intcor
     16.18     -19.70       1.68        0.00     106.30       1.50       0.11       3.41       ----

> <Gold.Chemscore.Fitness>
16.1786

> <Gold.Chemscore.DG>
-19.7019

> <Gold.Chemscore.ZeroCoef>
-5.4800

> <Gold.Chemscore.Hbond>
1.6845

> <Gold.Chemscore.Metal>
0.0000

> <Gold.Chemscore.Lipo>
106.2982

> <Gold.Chemscore.Internal_Hbond>
0.0000

> <Gold.Chemscore.DEClash>
0.1132

> <Gold.Chemscore.DEInternal>
3.4101

> <Gold.Chemscore.Rot>
1.5005

> <Gold.Chemscore.Internal.Correction>
   9.000000E+99

> <Gold.Chemscore.Hbonds>
donor molecule, donor type, donor heavy atom, donor atom, acceptor molecule, acceptor atom, score
      P1  H  7989  7998       L1    17  0.22
      P1  H  7997  8008       L1     9  0.36

> <Gold.Chemscore.Hbond.Weighted>
-5.6262

> <Gold.Chemscore.Metal.Weighted>
-0.0000

> <Gold.Chemscore.Lipo.Weighted>
-12.4369

> <Gold.Chemscore.Internal_Hbond.Weighted>
0.0000

> <Gold.Chemscore.DEClash.Weighted>
0.1132

> <Gold.Chemscore.DEInternal.Weighted>
3.4101

> <Gold.Chemscore.Rot.Weighted>
3.8412

> <Gold.Chemscore.Internal.Correction.Weighted>
   9.000000E+99

> <Gold.Protein.RotatedTorsions>
[ 6907 6896 6895 6894 ] final -107.94 input  -60.11 | X-H torsion
[ 7974 7965 7964 7962 ] final -127.43 input  175.53 | X-H torsion
[ 8008 7997 7996 7995 ] final  -97.70 input   59.86 | X-H torsion
[ 10167 10162 10161 10158 ] final   24.43 input  -65.29 | X-H torsion
[ 10718 10713 10712 10709 ] final  130.09 input   66.30 | X-H torsion
[ 10763 10752 10751 10750 ] final  163.34 input  -60.55 | X-H torsion
[ 11005 11000 10999 10996 ] final  -39.22 input  -57.11 | X-H torsion

> <Gold.Protein.ActiveResidues>
 VAL166  LYS551  ARG553  GLY616  TRP617  ASP618  TYR619  PRO620  LYS621  CYS622 
 ASP623  PHE694  ASN695  SER759  ASP760  ASP761  ALA762  ILE779  LEU786  VAL792 
 PHE793  MET794  SER795  GLU796  ALA797  LYS798  CYS799  TRP800  GLU811  SER814 

> <Gold.Protein.RotatedAtoms>
  150.7473  133.9751  159.3557 H   0  0  0  0  0  0  0  0  0  0  0  0  # atno 6907 bound_to 6896
  151.7687  135.0790  160.0366 H   0  0  0  0  0  0  0  0  0  0  0  0  # atno 6908 bound_to 6896
  152.3353  133.5968  159.5874 H   0  0  0  0  0  0  0  0  0  0  0  0  # atno 6909 bound_to 6896
  144.9771  140.7604  143.4635 H   0  0  0  0  0  0  0  0  0  0  0  0  # atno 7974 bound_to 7965
  154.7912  140.0461  157.1202 H   0  0  0  0  0  0  0  0  0  0  0  0  # atno 8008 bound_to 7997
  154.9588  140.3075  155.5020 H   0  0  0  0  0  0  0  0  0  0  0  0  # atno 8009 bound_to 7997
  156.2950  140.2274  156.4672 H   0  0  0  0  0  0  0  0  0  0  0  0  # atno 8010 bound_to 7997
  140.5189  144.0036  150.6407 H   0  0  0  0  0  0  0  0  0  0  0  0  # atno 10167 bound_to 10162
  157.5094  131.1096  150.9314 H   0  0  0  0  0  0  0  0  0  0  0  0  # atno 10718 bound_to 10713
  154.2921  135.2761  155.2650 H   0  0  0  0  0  0  0  0  0  0  0  0  # atno 10763 bound_to 10752
  154.5124  135.5779  153.6619 H   0  0  0  0  0  0  0  0  0  0  0  0  # atno 10764 bound_to 10752
  152.9912  135.6184  154.3087 H   0  0  0  0  0  0  0  0  0  0  0  0  # atno 10765 bound_to 10752
  141.0086  133.6919  156.2158 H   0  0  0  0  0  0  0  0  0  0  0  0  # atno 11005 bound_to 11000
  145.2474  139.2046  143.4960 LP  0  0  0  0  0  0  0  0  0  0  0  0  # atno 17320 bound_to 7965
  146.3398  140.2381  142.8595 LP  0  0  0  0  0  0  0  0  0  0  0  0  # atno 17321 bound_to 7965
  140.3379  143.3037  152.0619 LP  0  0  0  0  0  0  0  0  0  0  0  0  # atno 17342 bound_to 10162
  139.4917  144.6463  151.6771 LP  0  0  0  0  0  0  0  0  0  0  0  0  # atno 17343 bound_to 10162
  156.9959  130.5581  149.5307 LP  0  0  0  0  0  0  0  0  0  0  0  0  # atno 17370 bound_to 10713
  156.0279  130.5372  150.8457 LP  0  0  0  0  0  0  0  0  0  0  0  0  # atno 17371 bound_to 10713
  140.6771  134.4806  157.5588 LP  0  0  0  0  0  0  0  0  0  0  0  0  # atno 17394 bound_to 11000
  139.9077  134.8413  156.1644 LP  0  0  0  0  0  0  0  0  0  0  0  0  # atno 17395 bound_to 11000

$$$$
