AV-unprocessed.smi:3088|AV-procd|sdf|11769|dock2
  -GOLD-   2272017153D 1   1.00000     0.00000
 Structure written by MMmdl.
 30 31  0  0  0  0  0  0  0  0  3 V2000
  146.6564  140.2819  152.5141 N   0  3  0  0  0  0  0  0  0  0  0  0
  147.3162  140.3858  153.8271 C   0  0  0  0  0  0  0  0  0  0  0  0
  148.2605  141.5952  153.8874 C   0  0  0  0  0  0  0  0  0  0  0  0
  149.3385  141.4273  154.9167 C   0  0  0  0  0  0  0  0  0  0  0  0
  150.1220  140.3036  155.0186 C   0  0  0  0  0  0  0  0  0  0  0  0
  151.2821  140.4155  156.3091 S   0  0  0  0  0  0  0  0  0  0  0  0
  150.6845  141.9972  156.7148 C   0  0  0  0  0  0  0  0  0  0  0  0
  151.1365  142.7988  157.6946 N   0  0  0  0  0  0  0  0  0  0  0  0
  151.6157  144.1343  157.3798 C   0  0  0  0  0  0  0  0  0  0  0  0
  152.2831  144.6187  158.6659 C   0  0  0  0  0  0  0  0  0  0  0  0
  152.8445  143.3310  159.2684 C   0  0  0  0  0  0  0  0  0  0  0  0
  151.8353  142.2546  158.8524 C   0  0  0  0  0  0  0  0  0  0  0  0
  149.6905  142.3609  155.8886 N   0  3  0  0  0  0  0  0  0  0  0  0
  147.0819  140.9335  151.8699 H   0  0  0  0  0  0  0  0  0  0  0  0
  145.6745  140.4985  152.6092 H   0  0  0  0  0  0  0  0  0  0  0  0
  146.5489  140.4650  154.5980 H   0  0  0  0  0  0  0  0  0  0  0  0
  147.8674  139.4633  154.0134 H   0  0  0  0  0  0  0  0  0  0  0  0
  148.7138  141.7506  152.9075 H   0  0  0  0  0  0  0  0  0  0  0  0
  147.6821  142.4970  154.0940 H   0  0  0  0  0  0  0  0  0  0  0  0
  150.0882  139.4123  154.4090 H   0  0  0  0  0  0  0  0  0  0  0  0
  152.3436  144.0825  156.5686 H   0  0  0  0  0  0  0  0  0  0  0  0
  150.8025  144.7937  157.0745 H   0  0  0  0  0  0  0  0  0  0  0  0
  153.0460  145.3772  158.4886 H   0  0  0  0  0  0  0  0  0  0  0  0
  151.5339  145.0429  159.3360 H   0  0  0  0  0  0  0  0  0  0  0  0
  153.8154  143.1142  158.8207 H   0  0  0  0  0  0  0  0  0  0  0  0
  152.9807  143.3894  160.3487 H   0  0  0  0  0  0  0  0  0  0  0  0
  151.1098  142.0799  159.6473 H   0  0  0  0  0  0  0  0  0  0  0  0
  152.3385  141.3114  158.6360 H   0  0  0  0  0  0  0  0  0  0  0  0
  146.7599  139.3430  152.1567 H   0  0  0  0  0  0  0  0  0  0  0  0
  149.2260  143.2563  155.9730 H   0  0  0  0  0  0  0  0  0  0  0  0
  1  2  1  0  0  0  0
  1 14  1  0  0  0  0
  1 15  1  0  0  0  0
  1 29  1  0  0  0  0
  2  3  1  0  0  0  0
  2 16  1  0  0  0  0
  2 17  1  0  0  0  0
  3  4  1  0  0  0  0
  3 18  1  0  0  0  0
  3 19  1  0  0  0  0
  4 13  1  0  0  0  0
  4  5  2  0  0  0  0
  5  6  1  0  0  0  0
  5 20  1  0  0  0  0
  6  7  1  0  0  0  0
  7  8  1  0  0  0  0
  7 13  2  0  0  0  0
  8 12  1  0  0  0  0
  8  9  1  0  0  0  0
  9 10  1  0  0  0  0
  9 21  1  0  0  0  0
  9 22  1  0  0  0  0
 10 11  1  0  0  0  0
 10 23  1  0  0  0  0
 10 24  1  0  0  0  0
 11 12  1  0  0  0  0
 11 25  1  0  0  0  0
 11 26  1  0  0  0  0
 12 27  1  0  0  0  0
 12 28  1  0  0  0  0
 13 30  1  0  0  0  0
M  CHG  1   1   1
M  CHG  1  13   1
M  END
> <s_m_source_file>
AV-unprocessed.smi

> <i_m_source_file_index>
3088

> <i_lp_mmshare_version>
43012

> <i_f3d_flags>
0

> <s_epik_input>
W05IMl1bQ0gyXVtDSDJdYzFbY0hdc2MobjEpTjJbQ0gyXVtDSDJdW0NIMl1bQ0gyXTI=

> <s_epik_cmdline>
J2VwaWtfcHl0aG9uJywgJy1waCcsICc3LjAnLCAnLXRuJywgJzgnLCAnLW1hJywgJzIwMCcsICctbWV0YWxfYmluZGluZycsICctaW1hZScsICc8aW5maWxlLm1hZT4nLCAnLW9tYWUnLCAnPG91dGZpbGUubWFlPic=

> <r_lp_tautomer_probability>
1

> <r_epik_Ionization_Penalty>
2.98301

> <r_epik_Ionization_Penalty_Charging>
2.98301

> <r_epik_Ionization_Penalty_Neutral>
1.48168e-07

> <r_epik_State_Penalty>
2.62742

> <r_epik_Charging_Adjusted_Penalty>
5.61042

> <i_epik_Tot_Q>
2

> <i_epik_Tot_abs_Q>
2

> <r_epik_Metal_State_Penalty>
6.71243

> <b_epik_Metal_Only>
0

> <s_lp_Force_Field>
OPLS_2005

> <r_lp_Energy>
37.3398

> <b_lp_Chiralities_Consistent>
1

> <s_lp_Variant>
AV-unprocessed.smi:3088-2

> <Gold.Version>
5.8.1

> <Gold.Id.Protein>
6NUR|6NUR_protein|mol2

> <Gold.PLP.Fitness>
46.0786

> <Gold.PLP.PLP>
-35.5771

> <Gold.PLP.part.hbond>
-2.4934

> <Gold.PLP.part.metal>
0.0000

> <Gold.PLP.part.buried>
-1.9302

> <Gold.PLP.part.nonpolar>
-32.4178

> <Gold.PLP.part.repulsive>
0.1775

> <Gold.PLP.ligand.clash>
0.0000

> <Gold.PLP.ligand.torsion>
0.8761

> <Gold.PLP.Chemscore.Hbond>
4.0000

> <Gold.PLP.Chemscore.CHOScore>
0.0000

> <Gold.PLP.Chemscore.Metal>
0.0000

> <Gold.Chemscore.Hbonds>
donor molecule, donor type, donor heavy atom, donor atom, acceptor molecule, acceptor atom, score
      L1  H     1    15       P1 10175  2.00
      L1  H    13    30       P1  8028  2.00

> <Gold.PLP.Chemscore.Internal.Correction>
0.2537

> <Gold.Rescore>
     Score         DG    S(hbond)    S(metal)    S(lipo)     H(rot)  DE(clash)    DE(int)     intcor
     17.64     -18.46       1.94        0.00      84.75       1.34       0.08       0.75       ----

> <Gold.Chemscore.Fitness>
17.6399

> <Gold.Chemscore.DG>
-18.4623

> <Gold.Chemscore.ZeroCoef>
-5.4800

> <Gold.Chemscore.Hbond>
1.9426

> <Gold.Chemscore.Metal>
0.0000

> <Gold.Chemscore.Lipo>
84.7451

> <Gold.Chemscore.Internal_Hbond>
0.0000

> <Gold.Chemscore.DEClash>
0.0757

> <Gold.Chemscore.DEInternal>
0.7468

> <Gold.Chemscore.Rot>
1.3363

> <Gold.Chemscore.Internal.Correction>
   9.000000E+99

> <Gold.Chemscore.Hbonds>
donor molecule, donor type, donor heavy atom, donor atom, acceptor molecule, acceptor atom, score
      L1  H     1    15       P1 10175  0.59
      L1  H    13    30       P1  8028  0.93

> <Gold.Chemscore.Hbond.Weighted>
-6.4881

> <Gold.Chemscore.Metal.Weighted>
-0.0000

> <Gold.Chemscore.Lipo.Weighted>
-9.9152

> <Gold.Chemscore.Internal_Hbond.Weighted>
0.0000

> <Gold.Chemscore.DEClash.Weighted>
0.0757

> <Gold.Chemscore.DEInternal.Weighted>
0.7468

> <Gold.Chemscore.Rot.Weighted>
3.4210

> <Gold.Chemscore.Internal.Correction.Weighted>
   9.000000E+99

> <Gold.Protein.RotatedTorsions>
[ 6907 6896 6895 6894 ] final  111.57 input  -60.11 | X-H torsion
[ 7974 7965 7964 7962 ] final  142.20 input  175.53 | X-H torsion
[ 8008 7997 7996 7995 ] final  130.45 input   59.86 | X-H torsion
[ 10167 10162 10161 10158 ] final -152.83 input  -65.29 | X-H torsion
[ 10718 10713 10712 10709 ] final -107.93 input   66.30 | X-H torsion
[ 10763 10752 10751 10750 ] final  -41.04 input  -60.55 | X-H torsion
[ 11005 11000 10999 10996 ] final  -50.28 input  -57.11 | X-H torsion

> <Gold.Protein.ActiveResidues>
 VAL166  LYS551  ARG553  GLY616  TRP617  ASP618  TYR619  PRO620  LYS621  CYS622 
 ASP623  PHE694  ASN695  SER759  ASP760  ASP761  ALA762  ILE779  LEU786  VAL792 
 PHE793  MET794  SER795  GLU796  ALA797  LYS798  CYS799  TRP800  GLU811  SER814 

> <Gold.Protein.RotatedAtoms>
  152.4962  133.8639  159.7263 H   0  0  0  0  0  0  0  0  0  0  0  0  # atno 6907 bound_to 6896
  150.9143  133.6950  159.2854 H   0  0  0  0  0  0  0  0  0  0  0  0  # atno 6908 bound_to 6896
  151.4348  135.1018  159.9705 H   0  0  0  0  0  0  0  0  0  0  0  0  # atno 6909 bound_to 6896
  144.9028  139.5399  143.5745 H   0  0  0  0  0  0  0  0  0  0  0  0  # atno 7974 bound_to 7965
  156.2954  140.2596  156.2763 H   0  0  0  0  0  0  0  0  0  0  0  0  # atno 8008 bound_to 7997
  154.9645  140.0392  157.2224 H   0  0  0  0  0  0  0  0  0  0  0  0  # atno 8009 bound_to 7997
  154.7915  140.2812  155.5992 H   0  0  0  0  0  0  0  0  0  0  0  0  # atno 8010 bound_to 7997
  139.7148  143.9050  152.2482 H   0  0  0  0  0  0  0  0  0  0  0  0  # atno 10167 bound_to 10162
  156.0460  130.5687  150.7890 H   0  0  0  0  0  0  0  0  0  0  0  0  # atno 10718 bound_to 10713
  153.9559  135.6745  153.4744 H   0  0  0  0  0  0  0  0  0  0  0  0  # atno 10763 bound_to 10752
  153.0861  135.4898  154.8597 H   0  0  0  0  0  0  0  0  0  0  0  0  # atno 10764 bound_to 10752
  154.7299  135.3136  154.8868 H   0  0  0  0  0  0  0  0  0  0  0  0  # atno 10765 bound_to 10752
  141.0807  133.6654  156.3709 H   0  0  0  0  0  0  0  0  0  0  0  0  # atno 11005 bound_to 11000
  146.3117  139.7772  142.9014 LP  0  0  0  0  0  0  0  0  0  0  0  0  # atno 17320 bound_to 7965
  145.3587  141.0321  143.3297 LP  0  0  0  0  0  0  0  0  0  0  0  0  # atno 17321 bound_to 7965
  139.8929  144.6955  150.8750 LP  0  0  0  0  0  0  0  0  0  0  0  0  # atno 17342 bound_to 10162
  140.7741  143.3572  151.1898 LP  0  0  0  0  0  0  0  0  0  0  0  0  # atno 17343 bound_to 10162
  157.5336  131.0938  150.9922 LP  0  0  0  0  0  0  0  0  0  0  0  0  # atno 17370 bound_to 10713
  157.0222  130.5678  149.5333 LP  0  0  0  0  0  0  0  0  0  0  0  0  # atno 17371 bound_to 10713
  140.5474  134.6061  157.5398 LP  0  0  0  0  0  0  0  0  0  0  0  0  # atno 17394 bound_to 11000
  139.9621  134.7435  156.0215 LP  0  0  0  0  0  0  0  0  0  0  0  0  # atno 17395 bound_to 11000

$$$$
