AV-unprocessed.smi:1305|AV-procd|sdf|5433|dock10
  -GOLD-   22720 4593D 1   1.00000     0.00000
 Structure written by MMmdl.
 32 33  0  0  0  0  0  0  0  0  1 V2000
  151.4933  145.3389  159.9166 C   0  0  0  0  0  0  0  0  0  0  0  0
  152.2949  144.8332  158.7125 C   0  0  0  0  0  0  0  0  0  0  0  0
  152.3746  143.3027  158.6602 C   0  0  0  0  0  0  0  0  0  0  0  0
  151.1011  142.6109  157.5641 S   0  0  0  0  0  0  0  0  0  0  0  0
  151.1225  140.9182  158.0821 C   0  0  0  0  0  0  0  0  0  0  0  0
  151.9253  140.4270  159.0315 N   0  0  0  0  0  0  0  0  0  0  0  0
  151.6362  139.0843  159.1091 N   0  0  0  0  0  0  0  0  0  0  0  0
  150.6687  138.8791  158.2137 C   0  0  0  0  0  0  0  0  0  0  0  0
  150.0737  137.5343  157.9368 C   0  0  0  0  0  0  0  0  0  0  0  0
  148.5816  137.3068  158.0362 C   0  0  0  0  0  0  0  0  0  0  0  0
  149.5032  136.6808  159.0491 C   0  0  0  0  0  0  0  0  0  0  0  0
  150.3140  139.9872  157.5299 N   0  0  0  0  0  0  0  0  0  0  0  0
  149.3245  140.1335  156.4675 C   0  0  0  0  0  0  0  0  0  0  0  0
  149.9615  140.0871  155.0756 C   0  0  0  0  0  0  0  0  0  0  0  0
  149.1511  140.2029  154.0201 N   0  0  0  0  0  0  0  0  0  0  0  0
  151.1778  139.9606  154.9547 O   0  0  0  0  0  0  0  0  0  0  0  0
  151.4563  146.4283  159.9290 H   0  0  0  0  0  0  0  0  0  0  0  0
  151.9421  145.0106  160.8543 H   0  0  0  0  0  0  0  0  0  0  0  0
  150.4674  144.9713  159.8888 H   0  0  0  0  0  0  0  0  0  0  0  0
  151.8393  145.2073  157.7951 H   0  0  0  0  0  0  0  0  0  0  0  0
  153.3019  145.2500  158.7503 H   0  0  0  0  0  0  0  0  0  0  0  0
  153.3580  142.9944  158.3039 H   0  0  0  0  0  0  0  0  0  0  0  0
  152.2438  142.8894  159.6609 H   0  0  0  0  0  0  0  0  0  0  0  0
  150.6159  137.0303  157.1391 H   0  0  0  0  0  0  0  0  0  0  0  0
  147.9619  138.1350  158.3736 H   0  0  0  0  0  0  0  0  0  0  0  0
  148.1249  136.6537  157.2954 H   0  0  0  0  0  0  0  0  0  0  0  0
  149.6614  135.6063  158.9880 H   0  0  0  0  0  0  0  0  0  0  0  0
  149.4913  137.0934  160.0559 H   0  0  0  0  0  0  0  0  0  0  0  0
  148.5730  139.3487  156.5554 H   0  0  0  0  0  0  0  0  0  0  0  0
  148.7972  141.0787  156.6014 H   0  0  0  0  0  0  0  0  0  0  0  0
  149.5322  140.1774  153.0852 H   0  0  0  0  0  0  0  0  0  0  0  0
  148.1577  140.3160  154.1615 H   0  0  0  0  0  0  0  0  0  0  0  0
  1  2  1  0  0  0  0
  1 17  1  0  0  0  0
  1 18  1  0  0  0  0
  1 19  1  0  0  0  0
  2  3  1  0  0  0  0
  2 20  1  0  0  0  0
  2 21  1  0  0  0  0
  3  4  1  0  0  0  0
  3 22  1  0  0  0  0
  3 23  1  0  0  0  0
  4  5  1  0  0  0  0
  5 12  1  0  0  0  0
  5  6  2  0  0  0  0
  6  7  1  0  0  0  0
  7  8  2  0  0  0  0
  8  9  1  0  0  0  0
  8 12  1  0  0  0  0
  9 11  1  0  0  0  0
  9 10  1  0  0  0  0
  9 24  1  0  0  0  0
 10 11  1  0  0  0  0
 10 25  1  0  0  0  0
 10 26  1  0  0  0  0
 11 27  1  0  0  0  0
 11 28  1  0  0  0  0
 12 13  1  0  0  0  0
 13 14  1  0  0  0  0
 13 29  1  0  0  0  0
 13 30  1  0  0  0  0
 14 15  1  0  0  0  0
 14 16  2  0  0  0  0
 15 31  1  0  0  0  0
 15 32  1  0  0  0  0
M  END
> <s_m_source_file>
AV-unprocessed.smi

> <i_m_source_file_index>
1305

> <i_lp_mmshare_version>
43012

> <i_f3d_flags>
0

> <s_epik_input>
W0NIM11bQ0gyXVtDSDJdU2Mxbm5jKFtDSF0yW0NIMl1bQ0gyXTIpbjFbQ0gyXUMoPU8pW05IMl0=

> <s_epik_cmdline>
J2VwaWtfcHl0aG9uJywgJy1waCcsICc3LjAnLCAnLXRuJywgJzgnLCAnLW1hJywgJzIwMCcsICctbWV0YWxfYmluZGluZycsICctaW1hZScsICc8aW5maWxlLm1hZT4nLCAnLW9tYWUnLCAnPG91dGZpbGUubWFlPic=

> <r_lp_tautomer_probability>
1

> <r_epik_Ionization_Penalty>
4.21319e-06

> <r_epik_Ionization_Penalty_Charging>
0

> <r_epik_Ionization_Penalty_Neutral>
4.21319e-06

> <r_epik_State_Penalty>
-0

> <r_epik_Charging_Adjusted_Penalty>
0

> <i_epik_Tot_Q>
0

> <i_epik_Tot_abs_Q>
0

> <r_epik_Metal_State_Penalty>
-0

> <b_epik_Metal_Only>
0

> <s_lp_Force_Field>
OPLS_2005

> <r_lp_Energy>
5.08374

> <b_lp_Chiralities_Consistent>
1

> <s_lp_Variant>
AV-unprocessed.smi:1305-1

> <Gold.Version>
5.8.1

> <Gold.Id.Protein>
6NUR|6NUR_protein|mol2

> <Gold.PLP.Fitness>
35.3596

> <Gold.PLP.PLP>
-30.6284

> <Gold.PLP.part.hbond>
-2.0000

> <Gold.PLP.part.metal>
0.0000

> <Gold.PLP.part.buried>
-5.3141

> <Gold.PLP.part.nonpolar>
-23.0809

> <Gold.PLP.part.repulsive>
0.2365

> <Gold.PLP.ligand.clash>
0.0000

> <Gold.PLP.ligand.torsion>
0.7085

> <Gold.PLP.Chemscore.Hbond>
2.0000

> <Gold.PLP.Chemscore.CHOScore>
0.0000

> <Gold.PLP.Chemscore.Metal>
0.0000

> <Gold.Chemscore.Hbonds>
donor molecule, donor type, donor heavy atom, donor atom, acceptor molecule, acceptor atom, score
      L1  H    15    31       P1  7957  1.00
      P1  H  7989  7998       L1    16  1.00

> <Gold.PLP.Chemscore.Internal.Correction>
0.1483

> <Gold.Rescore>
     Score         DG    S(hbond)    S(metal)    S(lipo)     H(rot)  DE(clash)    DE(int)     intcor
     11.89     -12.70       1.96        0.00      61.86       2.57       0.12       0.68       ----

> <Gold.Chemscore.Fitness>
11.8934

> <Gold.Chemscore.DG>
-12.6990

> <Gold.Chemscore.ZeroCoef>
-5.4800

> <Gold.Chemscore.Hbond>
1.9637

> <Gold.Chemscore.Metal>
0.0000

> <Gold.Chemscore.Lipo>
61.8562

> <Gold.Chemscore.Internal_Hbond>
0.0000

> <Gold.Chemscore.DEClash>
0.1229

> <Gold.Chemscore.DEInternal>
0.6827

> <Gold.Chemscore.Rot>
2.5691

> <Gold.Chemscore.Internal.Correction>
   9.000000E+99

> <Gold.Chemscore.Hbonds>
donor molecule, donor type, donor heavy atom, donor atom, acceptor molecule, acceptor atom, score
      L1  H    15    31       P1  7957  0.99
      P1  H  7989  7998       L1    16  0.60

> <Gold.Chemscore.Hbond.Weighted>
-6.5588

> <Gold.Chemscore.Metal.Weighted>
-0.0000

> <Gold.Chemscore.Lipo.Weighted>
-7.2372

> <Gold.Chemscore.Internal_Hbond.Weighted>
0.0000

> <Gold.Chemscore.DEClash.Weighted>
0.1229

> <Gold.Chemscore.DEInternal.Weighted>
0.6827

> <Gold.Chemscore.Rot.Weighted>
6.5770

> <Gold.Chemscore.Internal.Correction.Weighted>
   9.000000E+99

> <Gold.Protein.RotatedTorsions>
[ 6907 6896 6895 6894 ] final  109.03 input  -60.11 | X-H torsion
[ 7974 7965 7964 7962 ] final   28.41 input  175.53 | X-H torsion
[ 8008 7997 7996 7995 ] final -122.90 input   59.86 | X-H torsion
[ 10167 10162 10161 10158 ] final -174.38 input  -65.29 | X-H torsion
[ 10718 10713 10712 10709 ] final -177.91 input   66.30 | X-H torsion
[ 10763 10752 10751 10750 ] final   -4.41 input  -60.55 | X-H torsion
[ 11005 11000 10999 10996 ] final  174.49 input  -57.11 | X-H torsion

> <Gold.Protein.ActiveResidues>
 VAL166  LYS551  ARG553  GLY616  TRP617  ASP618  TYR619  PRO620  LYS621  CYS622 
 ASP623  PHE694  ASN695  SER759  ASP760  ASP761  ALA762  ILE779  LEU786  VAL792 
 PHE793  MET794  SER795  GLU796  ALA797  LYS798  CYS799  TRP800  GLU811  SER814 

> <Gold.Protein.RotatedAtoms>
  152.5086  133.9003  159.7437 H   0  0  0  0  0  0  0  0  0  0  0  0  # atno 6907 bound_to 6896
  150.9421  133.6636  159.2795 H   0  0  0  0  0  0  0  0  0  0  0  0  # atno 6908 bound_to 6896
  151.3944  135.0966  159.9589 H   0  0  0  0  0  0  0  0  0  0  0  0  # atno 6909 bound_to 6896
  146.1730  139.7059  142.8954 H   0  0  0  0  0  0  0  0  0  0  0  0  # atno 7974 bound_to 7965
  155.1718  140.0408  157.2864 H   0  0  0  0  0  0  0  0  0  0  0  0  # atno 8008 bound_to 7997
  154.6264  140.2513  155.7459 H   0  0  0  0  0  0  0  0  0  0  0  0  # atno 8009 bound_to 7997
  156.2461  140.2884  156.0596 H   0  0  0  0  0  0  0  0  0  0  0  0  # atno 8010 bound_to 7997
  139.5637  144.1807  152.1279 H   0  0  0  0  0  0  0  0  0  0  0  0  # atno 10167 bound_to 10162
  156.8365  130.9671  151.3103 H   0  0  0  0  0  0  0  0  0  0  0  0  # atno 10718 bound_to 10713
  153.3845  135.6999  153.6540 H   0  0  0  0  0  0  0  0  0  0  0  0  # atno 10763 bound_to 10752
  153.5138  135.3626  155.2600 H   0  0  0  0  0  0  0  0  0  0  0  0  # atno 10764 bound_to 10752
  154.8696  135.4141  154.3150 H   0  0  0  0  0  0  0  0  0  0  0  0  # atno 10765 bound_to 10752
  140.3519  134.7188  157.4273 H   0  0  0  0  0  0  0  0  0  0  0  0  # atno 11005 bound_to 11000
  145.4288  141.0413  143.2922 LP  0  0  0  0  0  0  0  0  0  0  0  0  # atno 17320 bound_to 7965
  144.8192  139.5821  143.6994 LP  0  0  0  0  0  0  0  0  0  0  0  0  # atno 17321 bound_to 7965
  140.1326  144.5274  150.6793 LP  0  0  0  0  0  0  0  0  0  0  0  0  # atno 17342 bound_to 10162
  140.6919  143.2381  151.5108 LP  0  0  0  0  0  0  0  0  0  0  0  0  # atno 17343 bound_to 10162
  157.6379  130.8781  149.9393 LP  0  0  0  0  0  0  0  0  0  0  0  0  # atno 17370 bound_to 10713
  156.0905  130.3664  150.0405 LP  0  0  0  0  0  0  0  0  0  0  0  0  # atno 17371 bound_to 10713
  140.0696  134.5881  155.8656 LP  0  0  0  0  0  0  0  0  0  0  0  0  # atno 17394 bound_to 11000
  141.2009  133.6615  156.5925 LP  0  0  0  0  0  0  0  0  0  0  0  0  # atno 17395 bound_to 11000

$$$$
