AV-unprocessed.smi:1831|AV-procd|sdf|7458|dock5
  -GOLD-   22720 9153D 1   1.00000     0.00000
 Structure written by MMmdl.
 41 42  0  0  0  0  0  0  0  0  2 V2000
  153.8127  141.8796  160.6818 C   0  0  0  0  0  0  0  0  0  0  0  0
  152.9599  142.3981  159.5752 C   0  0  0  0  0  0  0  0  0  0  0  0
  152.9112  143.6953  159.2498 N   0  0  0  0  0  0  0  0  0  0  0  0
  152.0485  143.9400  158.1907 N   0  0  0  0  0  0  0  0  0  0  0  0
  151.4692  142.8158  157.7477 C   0  0  0  0  0  0  0  0  0  0  0  0
  150.5425  142.7768  156.6722 N   0  0  0  0  0  0  0  0  0  0  0  0
  150.1805  141.7197  155.9239 C   0  0  0  0  0  0  0  0  0  0  0  0
  150.6065  140.5724  156.0574 O   0  0  0  0  0  0  0  0  0  0  0  0
  149.2771  142.0661  154.9965 N   0  0  0  0  0  0  0  0  0  0  0  0
  148.6682  141.1374  154.0514 C   0  0  0  0  0  0  0  0  0  0  0  0
  147.1638  141.4110  153.8899 C   0  0  2  0  0  0  0  0  0  0  0  0
  146.7918  142.8881  153.9946 C   0  0  0  0  0  0  0  0  0  0  0  0
  145.3252  142.8926  154.4447 C   0  0  0  0  0  0  0  0  0  0  0  0
  145.0021  141.5175  154.9032 N   0  3  2  0  0  0  0  0  0  0  0  0
  144.1503  141.4389  156.1238 C   0  0  0  0  0  0  0  0  0  0  0  0
  143.8076  139.9815  156.4875 C   0  0  0  0  0  0  0  0  0  0  0  0
  142.8483  142.2419  155.9439 C   0  0  0  0  0  0  0  0  0  0  0  0
  146.2823  140.7787  154.9675 C   0  0  0  0  0  0  0  0  0  0  0  0
  151.9321  141.3534  158.6011 S   0  0  0  0  0  0  0  0  0  0  0  0
  154.7812  142.3805  160.6795 H   0  0  0  0  0  0  0  0  0  0  0  0
  153.9751  140.8080  160.5652 H   0  0  0  0  0  0  0  0  0  0  0  0
  153.3268  142.0584  161.6409 H   0  0  0  0  0  0  0  0  0  0  0  0
  150.0980  143.6559  156.4535 H   0  0  0  0  0  0  0  0  0  0  0  0
  148.9742  143.0284  154.9583 H   0  0  0  0  0  0  0  0  0  0  0  0
  149.1631  141.2089  153.0810 H   0  0  0  0  0  0  0  0  0  0  0  0
  148.8263  140.1206  154.4131 H   0  0  0  0  0  0  0  0  0  0  0  0
  146.8346  141.0455  152.9153 H   0  0  0  0  0  0  0  0  0  0  0  0
  147.4040  143.3756  154.7548 H   0  0  0  0  0  0  0  0  0  0  0  0
  146.9436  143.4238  153.0569 H   0  0  0  0  0  0  0  0  0  0  0  0
  145.1862  143.6316  155.2354 H   0  0  0  0  0  0  0  0  0  0  0  0
  144.6602  143.1573  153.6221 H   0  0  0  0  0  0  0  0  0  0  0  0
  144.7086  141.8711  156.9558 H   0  0  0  0  0  0  0  0  0  0  0  0
  143.1459  139.9411  157.3532 H   0  0  0  0  0  0  0  0  0  0  0  0
  144.6951  139.4030  156.7445 H   0  0  0  0  0  0  0  0  0  0  0  0
  143.3026  139.4750  155.6641 H   0  0  0  0  0  0  0  0  0  0  0  0
  142.2158  142.1638  156.8289 H   0  0  0  0  0  0  0  0  0  0  0  0
  142.2714  141.8746  155.0943 H   0  0  0  0  0  0  0  0  0  0  0  0
  143.0369  143.3033  155.7833 H   0  0  0  0  0  0  0  0  0  0  0  0
  146.1395  139.7100  154.8048 H   0  0  0  0  0  0  0  0  0  0  0  0
  146.7362  140.9159  155.9508 H   0  0  0  0  0  0  0  0  0  0  0  0
  144.4786  141.0916  154.1516 H   0  0  0  0  0  0  0  0  0  0  0  0
  1  2  1  0  0  0  0
  1 20  1  0  0  0  0
  1 21  1  0  0  0  0
  1 22  1  0  0  0  0
  2 19  1  0  0  0  0
  2  3  2  0  0  0  0
  3  4  1  0  0  0  0
  4  5  2  0  0  0  0
  5  6  1  0  0  0  0
  5 19  1  0  0  0  0
  6  7  1  0  0  0  0
  6 23  1  0  0  0  0
  7  8  2  0  0  0  0
  7  9  1  0  0  0  0
  9 10  1  0  0  0  0
  9 24  1  0  0  0  0
 10 11  1  0  0  0  0
 10 25  1  0  0  0  0
 10 26  1  0  0  0  0
 11 18  1  0  0  0  0
 11 12  1  0  0  0  0
 11 27  1  0  0  0  0
 12 13  1  0  0  0  0
 12 28  1  0  0  0  0
 12 29  1  0  0  0  0
 13 14  1  0  0  0  0
 13 30  1  0  0  0  0
 13 31  1  0  0  0  0
 14 15  1  0  0  0  0
 14 18  1  0  0  0  0
 14 41  1  0  0  0  0
 15 16  1  0  0  0  0
 15 17  1  0  0  0  0
 15 32  1  0  0  0  0
 16 33  1  0  0  0  0
 16 34  1  0  0  0  0
 16 35  1  0  0  0  0
 17 36  1  0  0  0  0
 17 37  1  0  0  0  0
 17 38  1  0  0  0  0
 18 39  1  0  0  0  0
 18 40  1  0  0  0  0
M  CHG  1  14   1
M  END
> <s_m_source_file>
AV-unprocessed.smi

> <i_m_source_file_index>
1831

> <i_lp_mmshare_version>
43012

> <i_f3d_flags>
0

> <s_epik_input>
W0NIM11jMW5uYyhzMSlbTkhdQyg9TylbTkhdW0NIMl1bQ0BASF0yW0NIMl1bQ0gyXU4oW0NIMl0yKVtDSF0oW0NIM10pW0NIM10=

> <s_epik_cmdline>
J2VwaWtfcHl0aG9uJywgJy1waCcsICc3LjAnLCAnLXRuJywgJzgnLCAnLW1hJywgJzIwMCcsICctbWV0YWxfYmluZGluZycsICctaW1hZScsICc8aW5maWxlLm1hZT4nLCAnLW9tYWUnLCAnPG91dGZpbGUubWFlPic=

> <r_lp_tautomer_probability>
1

> <r_epik_Ionization_Penalty>
0.00080807

> <r_epik_Ionization_Penalty_Charging>
0.000218981

> <r_epik_Ionization_Penalty_Neutral>
0.00058909

> <r_epik_State_Penalty>
-0

> <r_epik_Charging_Adjusted_Penalty>
0.000218981

> <i_epik_Tot_Q>
1

> <i_epik_Tot_abs_Q>
1

> <r_epik_Metal_State_Penalty>
0.236062

> <b_epik_Metal_Only>
0

> <s_lp_Force_Field>
OPLS_2005

> <r_lp_Energy>
30.7631

> <b_lp_Chiralities_Consistent>
1

> <s_lp_Variant>
AV-unprocessed.smi:1831-3

> <Gold.Version>
5.8.1

> <Gold.Id.Protein>
6NUR|6NUR_protein|mol2

> <Gold.PLP.Fitness>
46.6882

> <Gold.PLP.PLP>
-35.6191

> <Gold.PLP.part.hbond>
-3.0000

> <Gold.PLP.part.metal>
0.0000

> <Gold.PLP.part.buried>
-6.4007

> <Gold.PLP.part.nonpolar>
-26.1943

> <Gold.PLP.part.repulsive>
0.3545

> <Gold.PLP.ligand.clash>
0.0000

> <Gold.PLP.ligand.torsion>
0.4836

> <Gold.PLP.Chemscore.Hbond>
4.0000

> <Gold.PLP.Chemscore.CHOScore>
0.0000

> <Gold.PLP.Chemscore.Metal>
0.0000

> <Gold.Chemscore.Hbonds>
donor molecule, donor type, donor heavy atom, donor atom, acceptor molecule, acceptor atom, score
      L1  H     6    23       P1  8028  1.00
      L1  H     9    24       P1  8028  1.00
      L1  H    14    41       P1 10175  2.00

> <Gold.PLP.Chemscore.Internal.Correction>
0.0363

> <Gold.Rescore>
     Score         DG    S(hbond)    S(metal)    S(lipo)     H(rot)  DE(clash)    DE(int)     intcor
     18.08     -18.75       2.92        0.00      63.83       1.54       0.01       0.66       ----

> <Gold.Chemscore.Fitness>
18.0822

> <Gold.Chemscore.DG>
-18.7539

> <Gold.Chemscore.ZeroCoef>
-5.4800

> <Gold.Chemscore.Hbond>
2.9184

> <Gold.Chemscore.Metal>
0.0000

> <Gold.Chemscore.Lipo>
63.8257

> <Gold.Chemscore.Internal_Hbond>
0.0000

> <Gold.Chemscore.DEClash>
0.0126

> <Gold.Chemscore.DEInternal>
0.6591

> <Gold.Chemscore.Rot>
1.5396

> <Gold.Chemscore.Internal.Correction>
   9.000000E+99

> <Gold.Chemscore.Hbonds>
donor molecule, donor type, donor heavy atom, donor atom, acceptor molecule, acceptor atom, score
      L1  H     6    23       P1  8028  0.99
      L1  H     9    24       P1  8028  0.97
      L1  H    14    41       P1 10175  0.82

> <Gold.Chemscore.Hbond.Weighted>
-9.7476

> <Gold.Chemscore.Metal.Weighted>
-0.0000

> <Gold.Chemscore.Lipo.Weighted>
-7.4676

> <Gold.Chemscore.Internal_Hbond.Weighted>
0.0000

> <Gold.Chemscore.DEClash.Weighted>
0.0126

> <Gold.Chemscore.DEInternal.Weighted>
0.6591

> <Gold.Chemscore.Rot.Weighted>
3.9413

> <Gold.Chemscore.Internal.Correction.Weighted>
   9.000000E+99

> <Gold.Protein.RotatedTorsions>
[ 6907 6896 6895 6894 ] final  154.42 input  -60.11 | X-H torsion
[ 7974 7965 7964 7962 ] final  -26.34 input  175.53 | X-H torsion
[ 8008 7997 7996 7995 ] final  -34.36 input   59.86 | X-H torsion
[ 10167 10162 10161 10158 ] final    1.51 input  -65.29 | X-H torsion
[ 10718 10713 10712 10709 ] final -137.43 input   66.30 | X-H torsion
[ 10763 10752 10751 10750 ] final   69.21 input  -60.55 | X-H torsion
[ 11005 11000 10999 10996 ] final  -20.00 input  -57.11 | X-H torsion

> <Gold.Protein.ActiveResidues>
 VAL166  LYS551  ARG553  GLY616  TRP617  ASP618  TYR619  PRO620  LYS621  CYS622 
 ASP623  PHE694  ASN695  SER759  ASP760  ASP761  ALA762  ILE779  LEU786  VAL792 
 PHE793  MET794  SER795  GLU796  ALA797  LYS798  CYS799  TRP800  GLU811  SER814 

> <Gold.Protein.RotatedAtoms>
  152.0587  133.4052  159.4408 H   0  0  0  0  0  0  0  0  0  0  0  0  # atno 6907 bound_to 6896
  150.6867  134.3225  159.4802 H   0  0  0  0  0  0  0  0  0  0  0  0  # atno 6908 bound_to 6896
  152.1044  134.9319  160.0619 H   0  0  0  0  0  0  0  0  0  0  0  0  # atno 6909 bound_to 6896
  146.1432  140.5007  142.8643 H   0  0  0  0  0  0  0  0  0  0  0  0  # atno 7974 bound_to 7965
  154.4123  140.1686  156.2037 H   0  0  0  0  0  0  0  0  0  0  0  0  # atno 8008 bound_to 7997
  155.9503  140.3401  155.6378 H   0  0  0  0  0  0  0  0  0  0  0  0  # atno 8009 bound_to 7997
  155.6878  140.0730  157.2450 H   0  0  0  0  0  0  0  0  0  0  0  0  # atno 8010 bound_to 7997
  140.6679  143.7129  150.7863 H   0  0  0  0  0  0  0  0  0  0  0  0  # atno 10167 bound_to 10162
  156.2880  130.7358  151.1376 H   0  0  0  0  0  0  0  0  0  0  0  0  # atno 10718 bound_to 10713
  153.0275  135.5219  154.7253 H   0  0  0  0  0  0  0  0  0  0  0  0  # atno 10763 bound_to 10752
  154.6297  135.2899  155.0233 H   0  0  0  0  0  0  0  0  0  0  0  0  # atno 10764 bound_to 10752
  154.1190  135.6610  153.4952 H   0  0  0  0  0  0  0  0  0  0  0  0  # atno 10765 bound_to 10752
  140.8421  133.7918  155.9872 H   0  0  0  0  0  0  0  0  0  0  0  0  # atno 11005 bound_to 11000
  144.7816  140.5851  143.6602 LP  0  0  0  0  0  0  0  0  0  0  0  0  # atno 17320 bound_to 7965
  145.4999  139.1484  143.3663 LP  0  0  0  0  0  0  0  0  0  0  0  0  # atno 17321 bound_to 7965
  140.0809  143.4969  152.2530 LP  0  0  0  0  0  0  0  0  0  0  0  0  # atno 17342 bound_to 10162
  139.5935  144.7559  151.3343 LP  0  0  0  0  0  0  0  0  0  0  0  0  # atno 17343 bound_to 10162
  157.7334  131.0591  150.5578 LP  0  0  0  0  0  0  0  0  0  0  0  0  # atno 17370 bound_to 10713
  156.5691  130.4275  149.6027 LP  0  0  0  0  0  0  0  0  0  0  0  0  # atno 17371 bound_to 10713
  140.8883  134.2526  157.5108 LP  0  0  0  0  0  0  0  0  0  0  0  0  # atno 17394 bound_to 11000
  139.8703  134.9649  156.4511 LP  0  0  0  0  0  0  0  0  0  0  0  0  # atno 17395 bound_to 11000

$$$$
