AV-unprocessed.smi:102|AV-procd|sdf|970|dock4
  -GOLD-   2262017523D 1   1.00000     0.00000
 Structure written by MMmdl.
 43 44  0  0  0  0  0  0  0  0  2 V2000
  153.8810  135.1835  157.9507 C   0  0  0  0  0  0  0  0  0  0  0  0
  152.6951  136.0849  157.6340 C   0  0  0  0  0  0  0  0  0  0  0  0
  152.2956  136.2383  156.4794 O   0  0  0  0  0  0  0  0  0  0  0  0
  152.1762  136.6539  158.7372 O   0  0  0  0  0  0  0  0  0  0  0  0
  151.0626  137.5313  158.6386 C   0  0  0  0  0  0  0  0  0  0  0  0
  149.8293  136.7970  158.0893 C   0  0  1  0  0  0  0  0  0  0  0  0
  149.3355  135.8739  159.0457 O   0  0  0  0  0  0  0  0  0  0  0  0
  148.0127  135.5765  158.7344 C   0  0  1  0  0  0  0  0  0  0  0  0
  147.2804  135.2125  160.0070 N   0  0  0  0  0  0  0  0  0  0  0  0
  146.6885  133.9690  160.1526 C   0  0  0  0  0  0  0  0  0  0  0  0
  146.0519  133.6291  161.2919 C   0  0  0  0  0  0  0  0  0  0  0  0
  145.4875  132.4145  161.4066 F   0  0  0  0  0  0  0  0  0  0  0  0
  145.9866  134.5847  162.3966 C   0  0  0  0  0  0  0  0  0  0  0  0
  145.3958  134.2729  163.4294 O   0  0  0  0  0  0  0  0  0  0  0  0
  146.5955  135.7950  162.2306 N   0  5  0  0  0  0  0  0  0  0  0  0
  147.2480  136.1406  161.0822 C   0  0  0  0  0  0  0  0  0  0  0  0
  147.8234  137.2187  160.9312 O   0  0  0  0  0  0  0  0  0  0  0  0
  147.4202  136.8094  158.0205 C   0  0  1  0  0  0  0  0  0  0  0  0
  146.4106  137.4514  158.7937 O   0  0  0  0  0  0  0  0  0  0  0  0
  145.9189  138.6415  158.4149 C   0  0  0  0  0  0  0  0  0  0  0  0
  144.8933  139.1822  159.4015 C   0  0  0  0  0  0  0  0  0  0  0  0
  146.2303  139.2669  157.4011 O   0  0  0  0  0  0  0  0  0  0  0  0
  148.6316  137.7209  157.8548 C   0  0  2  0  0  0  0  0  0  0  0  0
  148.6360  138.2539  156.5365 O   0  0  0  0  0  0  0  0  0  0  0  0
  149.5925  139.1151  156.1512 C   0  0  0  0  0  0  0  0  0  0  0  0
  149.4915  139.4699  154.6740 C   0  0  0  0  0  0  0  0  0  0  0  0
  150.4725  139.5926  156.8673 O   0  0  0  0  0  0  0  0  0  0  0  0
  153.5534  134.3126  158.5184 H   0  0  0  0  0  0  0  0  0  0  0  0
  154.6219  135.7238  158.5402 H   0  0  0  0  0  0  0  0  0  0  0  0
  154.3562  134.8386  157.0321 H   0  0  0  0  0  0  0  0  0  0  0  0
  150.8416  138.0183  159.5898 H   0  0  0  0  0  0  0  0  0  0  0  0
  151.3458  138.3231  157.9455 H   0  0  0  0  0  0  0  0  0  0  0  0
  150.0713  136.2588  157.1708 H   0  0  0  0  0  0  0  0  0  0  0  0
  148.0111  134.6834  158.1072 H   0  0  0  0  0  0  0  0  0  0  0  0
  146.7379  133.2486  159.3495 H   0  0  0  0  0  0  0  0  0  0  0  0
  147.0311  136.4701  157.0588 H   0  0  0  0  0  0  0  0  0  0  0  0
  144.0234  138.5261  159.4381 H   0  0  0  0  0  0  0  0  0  0  0  0
  144.5639  140.1785  159.1061 H   0  0  0  0  0  0  0  0  0  0  0  0
  145.3243  139.2426  160.4009 H   0  0  0  0  0  0  0  0  0  0  0  0
  148.6042  138.4939  158.6251 H   0  0  0  0  0  0  0  0  0  0  0  0
  148.7074  140.2109  154.5177 H   0  0  0  0  0  0  0  0  0  0  0  0
  149.2558  138.5845  154.0830 H   0  0  0  0  0  0  0  0  0  0  0  0
  150.4346  139.8823  154.3152 H   0  0  0  0  0  0  0  0  0  0  0  0
  1  2  1  0  0  0  0
  1 28  1  0  0  0  0
  1 29  1  0  0  0  0
  1 30  1  0  0  0  0
  2  3  2  0  0  0  0
  2  4  1  0  0  0  0
  4  5  1  0  0  0  0
  5  6  1  0  0  0  0
  5 31  1  0  0  0  0
  5 32  1  0  0  0  0
  6 23  1  0  0  0  0
  6  7  1  0  0  0  0
  6 33  1  0  0  0  0
  7  8  1  0  0  0  0
  8  9  1  0  0  0  0
  8 18  1  0  0  0  0
  8 34  1  0  0  0  0
  9 16  1  0  0  0  0
  9 10  1  0  0  0  0
 10 11  2  0  0  0  0
 10 35  1  0  0  0  0
 11 12  1  0  0  0  0
 11 13  1  0  0  0  0
 13 14  2  0  0  0  0
 13 15  1  0  0  0  0
 15 16  1  0  0  0  0
 16 17  2  0  0  0  0
 18 19  1  0  0  0  0
 18 23  1  0  0  0  0
 18 36  1  0  0  0  0
 19 20  1  0  0  0  0
 20 21  1  0  0  0  0
 20 22  2  0  0  0  0
 21 37  1  0  0  0  0
 21 38  1  0  0  0  0
 21 39  1  0  0  0  0
 23 24  1  0  0  0  0
 23 40  1  0  0  0  0
 24 25  1  0  0  0  0
 25 26  1  0  0  0  0
 25 27  2  0  0  0  0
 26 41  1  0  0  0  0
 26 42  1  0  0  0  0
 26 43  1  0  0  0  0
M  CHG  1  15  -1
M  END
> <s_m_source_file>
AV-unprocessed.smi

> <i_m_source_file_index>
102

> <i_lp_mmshare_version>
43012

> <i_f3d_flags>
0

> <s_epik_input>
W0NIM11DKD1PKU9bQ0gyXVtDQEBIXTFPW0NASF0oW0NAQEhdKE9DKD1PKVtDSDNdKVtDQEhdMU9DKD1PKVtDSDNdKW4yW2NIXWMoRiljKD1PKVtuSF1jMj1P

> <s_epik_cmdline>
J2VwaWtfcHl0aG9uJywgJy1waCcsICc3LjAnLCAnLXRuJywgJzgnLCAnLW1hJywgJzIwMCcsICctbWV0YWxfYmluZGluZycsICctaW1hZScsICc8aW5maWxlLm1hZT4nLCAnLW9tYWUnLCAnPG91dGZpbGUubWFlPic=

> <r_epik_Ionization_Penalty>
1.40304

> <r_epik_Ionization_Penalty_Charging>
1.43915e-08

> <r_epik_Ionization_Penalty_Neutral>
1.40304

> <r_epik_State_Penalty>
1.48536

> <r_epik_Charging_Adjusted_Penalty>
1.48536

> <i_epik_Tot_Q>
-1

> <i_epik_Tot_abs_Q>
1

> <r_epik_Metal_State_Penalty>
0.00663881

> <b_epik_Metal_Only>
0

> <s_epik_Chemistry_Notes>
This compound has an ester and may undergo hydrolysis at high or low pH. This compound contains an acetal/aminal-like group ( X-CH(R)-Y where X, Y are N, S, or O) that may be acid/base labile, releasing an aldehyde.

> <s_lp_Force_Field>
OPLS_2005

> <r_lp_Energy>
20.3433

> <b_lp_Chiralities_Consistent>
1

> <s_lp_Variant>
AV-unprocessed.smi:102-26

> <Gold.Version>
5.8.1

> <Gold.Id.Protein>
6NUR|6NUR_protein|mol2

> <Gold.PLP.Fitness>
39.4922

> <Gold.PLP.PLP>
-28.6515

> <Gold.PLP.part.hbond>
-5.1408

> <Gold.PLP.part.metal>
0.0000

> <Gold.PLP.part.buried>
-5.3997

> <Gold.PLP.part.nonpolar>
-18.9395

> <Gold.PLP.part.repulsive>
0.0546

> <Gold.PLP.ligand.clash>
0.0000

> <Gold.PLP.ligand.torsion>
0.1091

> <Gold.PLP.Chemscore.Hbond>
3.6320

> <Gold.PLP.Chemscore.CHOScore>
0.0000

> <Gold.PLP.Chemscore.Metal>
0.0000

> <Gold.Chemscore.Hbonds>
donor molecule, donor type, donor heavy atom, donor atom, acceptor molecule, acceptor atom, score
      P1  H  6896  6908       L1     7  1.00
      P1  H  6931  6943       L1    17  0.88
      P1  H  6934  6947       L1    17  0.83
      P1  H 10752 10763       L1     3  1.00

> <Gold.PLP.Chemscore.Internal.Correction>
0.1630

> <Gold.Rescore>
     Score         DG    S(hbond)    S(metal)    S(lipo)     H(rot)  DE(clash)    DE(int)     intcor
      1.38     -10.26       3.46        0.00      29.36       4.00       0.18       8.69       ----

> <Gold.Chemscore.Fitness>
1.3811

> <Gold.Chemscore.DG>
-10.2551

> <Gold.Chemscore.ZeroCoef>
-5.4800

> <Gold.Chemscore.Hbond>
3.4635

> <Gold.Chemscore.Metal>
0.0000

> <Gold.Chemscore.Lipo>
29.3551

> <Gold.Chemscore.Internal_Hbond>
0.0000

> <Gold.Chemscore.DEClash>
0.1831

> <Gold.Chemscore.DEInternal>
8.6909

> <Gold.Chemscore.Rot>
3.9951

> <Gold.Chemscore.Internal.Correction>
   9.000000E+99

> <Gold.Chemscore.Hbonds>
donor molecule, donor type, donor heavy atom, donor atom, acceptor molecule, acceptor atom, score
      P1  H  6896  6908       L1     7  0.74
      P1  H  6931  6943       L1    17  0.86
      P1  H  6934  6947       L1    17  0.81
      P1  H 10752 10763       L1     3  0.73

> <Gold.Chemscore.Hbond.Weighted>
-11.5680

> <Gold.Chemscore.Metal.Weighted>
-0.0000

> <Gold.Chemscore.Lipo.Weighted>
-3.4345

> <Gold.Chemscore.Internal_Hbond.Weighted>
0.0000

> <Gold.Chemscore.DEClash.Weighted>
0.1831

> <Gold.Chemscore.DEInternal.Weighted>
8.6909

> <Gold.Chemscore.Rot.Weighted>
10.2274

> <Gold.Chemscore.Internal.Correction.Weighted>
   9.000000E+99

> <Gold.Protein.RotatedTorsions>
[ 6907 6896 6895 6894 ] final -178.94 input  -60.11 | X-H torsion
[ 7974 7965 7964 7962 ] final  -70.29 input  175.53 | X-H torsion
[ 8008 7997 7996 7995 ] final  133.03 input   59.86 | X-H torsion
[ 10167 10162 10161 10158 ] final -135.99 input  -65.29 | X-H torsion
[ 10718 10713 10712 10709 ] final -115.34 input   66.30 | X-H torsion
[ 10763 10752 10751 10750 ] final  113.65 input  -60.55 | X-H torsion
[ 11005 11000 10999 10996 ] final  173.49 input  -57.11 | X-H torsion

> <Gold.Protein.ActiveResidues>
 VAL166  LYS551  ARG553  GLY616  TRP617  ASP618  TYR619  PRO620  LYS621  CYS622 
 ASP623  PHE694  ASN695  SER759  ASP760  ASP761  ALA762  ILE779  LEU786  VAL792 
 PHE793  MET794  SER795  GLU796  ALA797  LYS798  CYS799  TRP800  GLU811  SER814 

> <Gold.Protein.RotatedAtoms>
  151.6453  133.3323  159.3139 H   0  0  0  0  0  0  0  0  0  0  0  0  # atno 6907 bound_to 6896
  150.7987  134.7069  159.6591 H   0  0  0  0  0  0  0  0  0  0  0  0  # atno 6908 bound_to 6896
  152.4077  134.6183  160.0095 H   0  0  0  0  0  0  0  0  0  0  0  0  # atno 6909 bound_to 6896
  145.6929  140.9146  143.0772 H   0  0  0  0  0  0  0  0  0  0  0  0  # atno 7974 bound_to 7965
  156.2988  140.2531  156.3186 H   0  0  0  0  0  0  0  0  0  0  0  0  # atno 8008 bound_to 7997
  154.9257  140.0399  157.2040 H   0  0  0  0  0  0  0  0  0  0  0  0  # atno 8009 bound_to 7997
  154.8267  140.2869  155.5754 H   0  0  0  0  0  0  0  0  0  0  0  0  # atno 8010 bound_to 7997
  139.8723  143.6942  152.2638 H   0  0  0  0  0  0  0  0  0  0  0  0  # atno 10167 bound_to 10162
  156.0889  130.6075  150.8893 H   0  0  0  0  0  0  0  0  0  0  0  0  # atno 10718 bound_to 10713
  153.4956  135.3649  155.2514 H   0  0  0  0  0  0  0  0  0  0  0  0  # atno 10763 bound_to 10752
  154.8750  135.3987  154.3538 H   0  0  0  0  0  0  0  0  0  0  0  0  # atno 10764 bound_to 10752
  153.4165  135.7079  153.6389 H   0  0  0  0  0  0  0  0  0  0  0  0  # atno 10765 bound_to 10752
  140.3410  134.7276  157.4202 H   0  0  0  0  0  0  0  0  0  0  0  0  # atno 11005 bound_to 11000
  144.6991  139.8845  143.7449 LP  0  0  0  0  0  0  0  0  0  0  0  0  # atno 17320 bound_to 7965
  146.0866  139.3855  143.0431 LP  0  0  0  0  0  0  0  0  0  0  0  0  # atno 17321 bound_to 7965
  139.7272  144.7590  151.0859 LP  0  0  0  0  0  0  0  0  0  0  0  0  # atno 17342 bound_to 10162
  140.7758  143.5133  150.9626 LP  0  0  0  0  0  0  0  0  0  0  0  0  # atno 17343 bound_to 10162
  157.6032  131.0940  150.8924 LP  0  0  0  0  0  0  0  0  0  0  0  0  # atno 17370 bound_to 10713
  156.9077  130.5269  149.5281 LP  0  0  0  0  0  0  0  0  0  0  0  0  # atno 17371 bound_to 10713
  140.0781  134.5769  155.8570 LP  0  0  0  0  0  0  0  0  0  0  0  0  # atno 17394 bound_to 11000
  141.2038  133.6635  156.6085 LP  0  0  0  0  0  0  0  0  0  0  0  0  # atno 17395 bound_to 11000

$$$$
