AV-unprocessed.smi:2935|AV-procd|sdf|11256|dock4
  -GOLD-   2272016153D 1   1.00000     0.00000
 Structure written by MMmdl.
 36 37  0  0  0  0  0  0  0  0  1 V2000
  152.6987  143.9199  157.6830 C   0  0  0  0  0  0  0  0  0  0  0  0
  151.4991  143.4433  158.5296 C   0  0  0  0  0  0  0  0  0  0  0  0
  150.8990  142.1810  157.8693 C   0  0  0  0  0  0  0  0  0  0  0  0
  150.8731  141.1246  158.5030 O   0  0  0  0  0  0  0  0  0  0  0  0
  150.4055  142.3172  156.6230 N   0  0  0  0  0  0  0  0  0  0  0  0
  149.8139  141.3201  155.8066 C   0  0  0  0  0  0  0  0  0  0  0  0
  148.7191  141.6357  154.9558 C   0  0  0  0  0  0  0  0  0  0  0  0
  148.4381  140.4441  154.3499 C   0  0  0  0  0  0  0  0  0  0  0  0
  149.3315  139.5098  154.8363 N   0  0  0  0  0  0  0  0  0  0  0  0
  149.4329  138.1005  154.5021 C   0  0  0  0  0  0  0  0  0  0  0  0
  149.2294  137.2215  155.7374 C   0  0  0  0  0  0  0  0  0  0  0  0
  149.6017  135.9422  155.6439 N   0  0  0  0  0  0  0  0  0  0  0  0
  148.7390  137.6909  156.7617 O   0  0  0  0  0  0  0  0  0  0  0  0
  150.1834  140.0489  155.7357 N   0  0  0  0  0  0  0  0  0  0  0  0
  151.9038  143.2293  160.0050 C   0  0  0  0  0  0  0  0  0  0  0  0
  151.8581  144.6130  160.6564 C   0  0  0  0  0  0  0  0  0  0  0  0
  150.8245  145.4184  159.8627 C   0  0  0  0  0  0  0  0  0  0  0  0
  150.4428  144.5644  158.6453 C   0  0  0  0  0  0  0  0  0  0  0  0
  153.1323  144.8384  158.0792 H   0  0  0  0  0  0  0  0  0  0  0  0
  152.4060  144.1211  156.6516 H   0  0  0  0  0  0  0  0  0  0  0  0
  153.4906  143.1701  157.6593 H   0  0  0  0  0  0  0  0  0  0  0  0
  150.4648  143.2387  156.2152 H   0  0  0  0  0  0  0  0  0  0  0  0
  148.2182  142.5817  154.8131 H   0  0  0  0  0  0  0  0  0  0  0  0
  147.6839  140.1835  153.6219 H   0  0  0  0  0  0  0  0  0  0  0  0
  148.6801  137.8654  153.7486 H   0  0  0  0  0  0  0  0  0  0  0  0
  150.4079  137.8983  154.0554 H   0  0  0  0  0  0  0  0  0  0  0  0
  149.4769  135.3238  156.4325 H   0  0  0  0  0  0  0  0  0  0  0  0
  149.9980  135.5960  154.7822 H   0  0  0  0  0  0  0  0  0  0  0  0
  151.1837  142.5867  160.5151 H   0  0  0  0  0  0  0  0  0  0  0  0
  152.8855  142.7659  160.1119 H   0  0  0  0  0  0  0  0  0  0  0  0
  151.6112  144.5558  161.7169 H   0  0  0  0  0  0  0  0  0  0  0  0
  152.8347  145.0916  160.5756 H   0  0  0  0  0  0  0  0  0  0  0  0
  149.9449  145.6419  160.4672 H   0  0  0  0  0  0  0  0  0  0  0  0
  151.2525  146.3710  159.5483 H   0  0  0  0  0  0  0  0  0  0  0  0
  150.3746  145.1677  157.7389 H   0  0  0  0  0  0  0  0  0  0  0  0
  149.4506  144.1425  158.8169 H   0  0  0  0  0  0  0  0  0  0  0  0
  1  2  1  0  0  0  0
  1 19  1  0  0  0  0
  1 20  1  0  0  0  0
  1 21  1  0  0  0  0
  2 18  1  0  0  0  0
  2  3  1  0  0  0  0
  2 15  1  0  0  0  0
  3  4  2  0  0  0  0
  3  5  1  0  0  0  0
  5  6  1  0  0  0  0
  5 22  1  0  0  0  0
  6 14  2  0  0  0  0
  6  7  1  0  0  0  0
  7  8  2  0  0  0  0
  7 23  1  0  0  0  0
  8  9  1  0  0  0  0
  8 24  1  0  0  0  0
  9 10  1  0  0  0  0
  9 14  1  0  0  0  0
 10 11  1  0  0  0  0
 10 25  1  0  0  0  0
 10 26  1  0  0  0  0
 11 12  1  0  0  0  0
 11 13  2  0  0  0  0
 12 27  1  0  0  0  0
 12 28  1  0  0  0  0
 15 16  1  0  0  0  0
 15 29  1  0  0  0  0
 15 30  1  0  0  0  0
 16 17  1  0  0  0  0
 16 31  1  0  0  0  0
 16 32  1  0  0  0  0
 17 18  1  0  0  0  0
 17 33  1  0  0  0  0
 17 34  1  0  0  0  0
 18 35  1  0  0  0  0
 18 36  1  0  0  0  0
M  END
> <s_m_source_file>
AV-unprocessed.smi

> <i_m_source_file_index>
2935

> <i_lp_mmshare_version>
43012

> <i_f3d_flags>
0

> <s_epik_input>
W0NIMl0xW0NIMl1bQ0gyXVtDSDJdQzEoW0NIM10pQyg9TylbTkhdYzJbY0hdW2NIXW4objIpW0NIMl1DKD1PKVtOSDJd

> <s_epik_cmdline>
J2VwaWtfcHl0aG9uJywgJy1waCcsICc3LjAnLCAnLXRuJywgJzgnLCAnLW1hJywgJzIwMCcsICctbWV0YWxfYmluZGluZycsICctaW1hZScsICc8aW5maWxlLm1hZT4nLCAnLW9tYWUnLCAnPG91dGZpbGUubWFlPic=

> <r_lp_tautomer_probability>
1

> <r_epik_Ionization_Penalty>
1.6611e-05

> <r_epik_Ionization_Penalty_Charging>
0

> <r_epik_Ionization_Penalty_Neutral>
1.6611e-05

> <r_epik_State_Penalty>
-0

> <r_epik_Charging_Adjusted_Penalty>
0

> <i_epik_Tot_Q>
0

> <i_epik_Tot_abs_Q>
0

> <r_epik_Metal_State_Penalty>
-0

> <b_epik_Metal_Only>
0

> <s_lp_Force_Field>
OPLS_2005

> <r_lp_Energy>
27.108

> <b_lp_Chiralities_Consistent>
1

> <s_lp_Variant>
AV-unprocessed.smi:2935-1

> <Gold.Version>
5.8.1

> <Gold.Id.Protein>
6NUR|6NUR_protein|mol2

> <Gold.PLP.Fitness>
43.8321

> <Gold.PLP.PLP>
-37.8996

> <Gold.PLP.part.hbond>
-3.3312

> <Gold.PLP.part.metal>
0.0000

> <Gold.PLP.part.buried>
-2.9168

> <Gold.PLP.part.nonpolar>
-32.3898

> <Gold.PLP.part.repulsive>
0.6312

> <Gold.PLP.ligand.clash>
0.0000

> <Gold.PLP.ligand.torsion>
0.4924

> <Gold.PLP.Chemscore.Hbond>
2.2894

> <Gold.PLP.Chemscore.CHOScore>
0.0000

> <Gold.PLP.Chemscore.Metal>
0.0000

> <Gold.Chemscore.Hbonds>
donor molecule, donor type, donor heavy atom, donor atom, acceptor molecule, acceptor atom, score
      L1  H     5    22       P1  8028  0.32

> <Gold.PLP.Chemscore.Internal.Correction>
0.0491

> <Gold.Rescore>
     Score         DG    S(hbond)    S(metal)    S(lipo)     H(rot)  DE(clash)    DE(int)     intcor
     13.39     -16.86       1.82        0.00      87.10       1.91       1.16       2.31       ----

> <Gold.Chemscore.Fitness>
13.3898

> <Gold.Chemscore.DG>
-16.8568

> <Gold.Chemscore.ZeroCoef>
-5.4800

> <Gold.Chemscore.Hbond>
1.8199

> <Gold.Chemscore.Metal>
0.0000

> <Gold.Chemscore.Lipo>
87.0952

> <Gold.Chemscore.Internal_Hbond>
0.0000

> <Gold.Chemscore.DEClash>
1.1617

> <Gold.Chemscore.DEInternal>
2.3054

> <Gold.Chemscore.Rot>
1.9108

> <Gold.Chemscore.Internal.Correction>
   9.000000E+99

> <Gold.Chemscore.Hbonds>
donor molecule, donor type, donor heavy atom, donor atom, acceptor molecule, acceptor atom, score
      L1  H     5    22       P1  8028  0.32

> <Gold.Chemscore.Hbond.Weighted>
-6.0783

> <Gold.Chemscore.Metal.Weighted>
-0.0000

> <Gold.Chemscore.Lipo.Weighted>
-10.1901

> <Gold.Chemscore.Internal_Hbond.Weighted>
0.0000

> <Gold.Chemscore.DEClash.Weighted>
1.1617

> <Gold.Chemscore.DEInternal.Weighted>
2.3054

> <Gold.Chemscore.Rot.Weighted>
4.8916

> <Gold.Chemscore.Internal.Correction.Weighted>
   9.000000E+99

> <Gold.Protein.RotatedTorsions>
[ 6907 6896 6895 6894 ] final -134.24 input  -60.11 | X-H torsion
[ 7974 7965 7964 7962 ] final   28.63 input  175.53 | X-H torsion
[ 8008 7997 7996 7995 ] final   98.81 input   59.86 | X-H torsion
[ 10167 10162 10161 10158 ] final -167.21 input  -65.29 | X-H torsion
[ 10718 10713 10712 10709 ] final   99.50 input   66.30 | X-H torsion
[ 10763 10752 10751 10750 ] final  170.62 input  -60.55 | X-H torsion
[ 11005 11000 10999 10996 ] final  104.20 input  -57.11 | X-H torsion

> <Gold.Protein.ActiveResidues>
 VAL166  LYS551  ARG553  GLY616  TRP617  ASP618  TYR619  PRO620  LYS621  CYS622 
 ASP623  PHE694  ASN695  SER759  ASP760  ASP761  ALA762  ILE779  LEU786  VAL792 
 PHE793  MET794  SER795  GLU796  ALA797  LYS798  CYS799  TRP800  GLU811  SER814 

> <Gold.Protein.RotatedAtoms>
  150.9836  133.6221  159.2718 H   0  0  0  0  0  0  0  0  0  0  0  0  # atno 6907 bound_to 6896
  151.3467  135.0874  159.9399 H   0  0  0  0  0  0  0  0  0  0  0  0  # atno 6908 bound_to 6896
  152.5223  133.9436  159.7693 H   0  0  0  0  0  0  0  0  0  0  0  0  # atno 6909 bound_to 6896
  146.1718  139.7030  142.8962 H   0  0  0  0  0  0  0  0  0  0  0  0  # atno 7974 bound_to 7965
  156.1042  140.3238  155.7984 H   0  0  0  0  0  0  0  0  0  0  0  0  # atno 8008 bound_to 7997
  155.4784  140.0552  157.2987 H   0  0  0  0  0  0  0  0  0  0  0  0  # atno 8009 bound_to 7997
  154.4717  140.2014  155.9994 H   0  0  0  0  0  0  0  0  0  0  0  0  # atno 8010 bound_to 7997
  139.6064  144.0904  152.1797 H   0  0  0  0  0  0  0  0  0  0  0  0  # atno 10167 bound_to 10162
  157.6874  131.0671  150.4958 H   0  0  0  0  0  0  0  0  0  0  0  0  # atno 10718 bound_to 10713
  154.4003  135.2755  155.2101 H   0  0  0  0  0  0  0  0  0  0  0  0  # atno 10763 bound_to 10752
  154.4130  135.6018  153.5967 H   0  0  0  0  0  0  0  0  0  0  0  0  # atno 10764 bound_to 10752
  152.9831  135.5954  154.4269 H   0  0  0  0  0  0  0  0  0  0  0  0  # atno 10765 bound_to 10752
  139.8790  134.9292  156.5326 H   0  0  0  0  0  0  0  0  0  0  0  0  # atno 11005 bound_to 11000
  145.4320  141.0416  143.2905 LP  0  0  0  0  0  0  0  0  0  0  0  0  # atno 17320 bound_to 7965
  144.8174  139.5851  143.7002 LP  0  0  0  0  0  0  0  0  0  0  0  0  # atno 17321 bound_to 7965
  140.0512  144.5931  150.7335 LP  0  0  0  0  0  0  0  0  0  0  0  0  # atno 17342 bound_to 10162
  140.7288  143.2665  151.4026 LP  0  0  0  0  0  0  0  0  0  0  0  0  # atno 17343 bound_to 10162
  156.5282  130.4178  149.6215 LP  0  0  0  0  0  0  0  0  0  0  0  0  # atno 17370 bound_to 10713
  156.3093  130.7220  151.2109 LP  0  0  0  0  0  0  0  0  0  0  0  0  # atno 17371 bound_to 10713
  140.8369  133.8235  155.9038 LP  0  0  0  0  0  0  0  0  0  0  0  0  # atno 17394 bound_to 11000
  140.9274  134.2064  157.4886 LP  0  0  0  0  0  0  0  0  0  0  0  0  # atno 17395 bound_to 11000

$$$$
