AV-unprocessed.smi:2855|AV-procd|sdf|10981|dock7
  -GOLD-   2272015433D 1   1.00000     0.00000
 Structure written by MMmdl.
 47 48  0  0  0  0  0  0  0  0  1 V2000
  154.5727  139.6899  161.6112 C   0  0  0  0  0  0  0  0  0  0  0  0
  154.0637  140.8590  160.7559 C   0  0  2  0  0  0  0  0  0  0  0  0
  153.5834  142.0298  161.6302 C   0  0  0  0  0  0  0  0  0  0  0  0
  153.0774  143.2020  160.7754 C   0  0  0  0  0  0  0  0  0  0  0  0
  151.9444  142.7696  159.8148 C   0  0  1  0  0  0  0  0  0  0  0  0
  151.3383  143.9538  159.0019 C   0  0  0  0  0  0  0  0  0  0  0  0
  152.3094  144.5819  157.9854 C   0  0  0  0  0  0  0  0  0  0  0  0
  150.7251  145.0359  159.9071 C   0  0  0  0  0  0  0  0  0  0  0  0
  152.4243  141.5796  158.9376 C   0  0  2  0  0  0  0  0  0  0  0  0
  151.3423  141.0905  158.0848 N   0  0  0  0  0  0  0  0  0  0  0  0
  151.4871  140.3441  156.9789 C   0  0  0  0  0  0  0  0  0  0  0  0
  152.5733  139.9230  156.5793 O   0  0  0  0  0  0  0  0  0  0  0  0
  150.1996  140.0177  156.2110 C   0  0  0  0  0  0  0  0  0  0  0  0
  150.1462  138.6139  155.7782 N   0  0  0  0  0  0  0  0  0  0  0  0
  149.4385  137.6769  156.5177 C   0  0  0  0  0  0  0  0  0  0  0  0
  149.3587  136.3677  156.1811 C   0  0  0  0  0  0  0  0  0  0  0  0
  150.0353  135.8688  154.9884 C   0  0  0  0  0  0  0  0  0  0  0  0
  150.0207  134.7028  154.6001 O   0  0  0  0  0  0  0  0  0  0  0  0
  150.7388  136.8412  154.2727 N   0  0  0  0  0  0  0  0  0  0  0  0
  150.8264  138.1916  154.6145 C   0  0  0  0  0  0  0  0  0  0  0  0
  151.4782  138.9657  153.9142 O   0  0  0  0  0  0  0  0  0  0  0  0
  152.9393  140.4140  159.8043 C   0  0  0  0  0  0  0  0  0  0  0  0
  151.2252  136.5422  153.4401 H   0  0  0  0  0  0  0  0  0  0  0  0
  153.7825  139.2898  162.2469 H   0  0  0  0  0  0  0  0  0  0  0  0
  155.3927  140.0045  162.2572 H   0  0  0  0  0  0  0  0  0  0  0  0
  154.9405  138.8767  160.9848 H   0  0  0  0  0  0  0  0  0  0  0  0
  154.8997  141.2110  160.1495 H   0  0  0  0  0  0  0  0  0  0  0  0
  152.7862  141.6936  162.2947 H   0  0  0  0  0  0  0  0  0  0  0  0
  154.3954  142.3725  162.2725 H   0  0  0  0  0  0  0  0  0  0  0  0
  152.7361  143.9935  161.4413 H   0  0  0  0  0  0  0  0  0  0  0  0
  153.9132  143.6137  160.2093 H   0  0  0  0  0  0  0  0  0  0  0  0
  151.1360  142.3851  160.4394 H   0  0  0  0  0  0  0  0  0  0  0  0
  150.5001  143.5615  158.4260 H   0  0  0  0  0  0  0  0  0  0  0  0
  153.1625  145.0501  158.4758 H   0  0  0  0  0  0  0  0  0  0  0  0
  151.8083  145.3531  157.3998 H   0  0  0  0  0  0  0  0  0  0  0  0
  152.6900  143.8451  157.2793 H   0  0  0  0  0  0  0  0  0  0  0  0
  151.4865  145.5817  160.4637 H   0  0  0  0  0  0  0  0  0  0  0  0
  150.0285  144.6030  160.6256 H   0  0  0  0  0  0  0  0  0  0  0  0
  150.1710  145.7662  159.3168 H   0  0  0  0  0  0  0  0  0  0  0  0
  153.2610  141.9194  158.3258 H   0  0  0  0  0  0  0  0  0  0  0  0
  150.4075  141.3775  158.3359 H   0  0  0  0  0  0  0  0  0  0  0  0
  149.3520  140.2535  156.8557 H   0  0  0  0  0  0  0  0  0  0  0  0
  150.0970  140.6759  155.3454 H   0  0  0  0  0  0  0  0  0  0  0  0
  148.9249  137.9996  157.4121 H   0  0  0  0  0  0  0  0  0  0  0  0
  148.7921  135.6855  156.7982 H   0  0  0  0  0  0  0  0  0  0  0  0
  153.3022  139.6121  159.1596 H   0  0  0  0  0  0  0  0  0  0  0  0
  152.1157  139.9936  160.3838 H   0  0  0  0  0  0  0  0  0  0  0  0
  1  2  1  0  0  0  0
  1 24  1  0  0  0  0
  1 25  1  0  0  0  0
  1 26  1  0  0  0  0
  2 22  1  0  0  0  0
  2  3  1  0  0  0  0
  2 27  1  0  0  0  0
  3  4  1  0  0  0  0
  3 28  1  0  0  0  0
  3 29  1  0  0  0  0
  4  5  1  0  0  0  0
  4 30  1  0  0  0  0
  4 31  1  0  0  0  0
  5  6  1  0  0  0  0
  5  9  1  0  0  0  0
  5 32  1  0  0  0  0
  6  7  1  0  0  0  0
  6  8  1  0  0  0  0
  6 33  1  0  0  0  0
  7 34  1  0  0  0  0
  7 35  1  0  0  0  0
  7 36  1  0  0  0  0
  8 37  1  0  0  0  0
  8 38  1  0  0  0  0
  8 39  1  0  0  0  0
  9 10  1  0  0  0  0
  9 22  1  0  0  0  0
  9 40  1  0  0  0  0
 10 11  1  0  0  0  0
 10 41  1  0  0  0  0
 11 12  2  0  0  0  0
 11 13  1  0  0  0  0
 13 14  1  0  0  0  0
 13 42  1  0  0  0  0
 13 43  1  0  0  0  0
 14 20  1  0  0  0  0
 14 15  1  0  0  0  0
 15 16  2  0  0  0  0
 15 44  1  0  0  0  0
 16 17  1  0  0  0  0
 16 45  1  0  0  0  0
 17 18  2  0  0  0  0
 17 19  1  0  0  0  0
 19 23  1  0  0  0  0
 19 20  1  0  0  0  0
 20 21  2  0  0  0  0
 22 46  1  0  0  0  0
 22 47  1  0  0  0  0
M  END
> <s_m_source_file>
AV-unprocessed.smi

> <i_m_source_file_index>
2855

> <i_lp_mmshare_version>
43012

> <i_f3d_flags>
0

> <s_epik_input>
W0NIM11bQ0BASF0xW0NIMl1bQ0gyXVtDQEBIXShbQ0hdKFtDSDNdKVtDSDNdKVtDQEhdKFtDSDJdMSlbTkhdQyg9TylbQ0gyXW4yW2NIXVtjSF1jKD1PKVtuSF1jMj1P

> <s_epik_cmdline>
J2VwaWtfcHl0aG9uJywgJy1waCcsICc3LjAnLCAnLXRuJywgJzgnLCAnLW1hJywgJzIwMCcsICctbWV0YWxfYmluZGluZycsICctaW1hZScsICc8aW5maWxlLm1hZT4nLCAnLW9tYWUnLCAnPG91dGZpbGUubWFlPic=

> <r_lp_tautomer_probability>
0.999537

> <r_epik_Ionization_Penalty>
0.00306256

> <r_epik_Ionization_Penalty_Charging>
0.00306254

> <r_epik_Ionization_Penalty_Neutral>
2.0223e-08

> <r_epik_State_Penalty>
0.0021533

> <r_epik_Charging_Adjusted_Penalty>
0.00521583

> <i_epik_Tot_Q>
0

> <i_epik_Tot_abs_Q>
0

> <r_epik_Metal_State_Penalty>
0.362116

> <b_epik_Metal_Only>
0

> <s_lp_Force_Field>
OPLS_2005

> <r_lp_Energy>
14.402

> <b_lp_Chiralities_Consistent>
1

> <s_lp_Variant>
AV-unprocessed.smi:2855-5

> <Gold.Version>
5.8.1

> <Gold.Id.Protein>
6NUR|6NUR_protein|mol2

> <Gold.PLP.Fitness>
47.1110

> <Gold.PLP.PLP>
-39.8012

> <Gold.PLP.part.hbond>
-4.0000

> <Gold.PLP.part.metal>
0.0000

> <Gold.PLP.part.buried>
-2.6809

> <Gold.PLP.part.nonpolar>
-33.4299

> <Gold.PLP.part.repulsive>
0.5437

> <Gold.PLP.ligand.clash>
0.0000

> <Gold.PLP.ligand.torsion>
0.7906

> <Gold.PLP.Chemscore.Hbond>
2.9440

> <Gold.PLP.Chemscore.CHOScore>
0.0000

> <Gold.PLP.Chemscore.Metal>
0.0000

> <Gold.Chemscore.Hbonds>
donor molecule, donor type, donor heavy atom, donor atom, acceptor molecule, acceptor atom, score
      L1  H    19    23       P1  7949  0.99
      P1  H  7989  7998       L1    21  0.91
      P1  H  7997  8010       L1    12  1.00

> <Gold.PLP.Chemscore.Internal.Correction>
0.0589

> <Gold.Rescore>
     Score         DG    S(hbond)    S(metal)    S(lipo)     H(rot)  DE(clash)    DE(int)     intcor
     19.12     -21.64       2.47        0.00     108.22       1.85       1.72       0.79       ----

> <Gold.Chemscore.Fitness>
19.1240

> <Gold.Chemscore.DG>
-21.6374

> <Gold.Chemscore.ZeroCoef>
-5.4800

> <Gold.Chemscore.Hbond>
2.4675

> <Gold.Chemscore.Metal>
0.0000

> <Gold.Chemscore.Lipo>
108.2205

> <Gold.Chemscore.Internal_Hbond>
0.0000

> <Gold.Chemscore.DEClash>
1.7231

> <Gold.Chemscore.DEInternal>
0.7902

> <Gold.Chemscore.Rot>
1.8539

> <Gold.Chemscore.Internal.Correction>
   9.000000E+99

> <Gold.Chemscore.Hbonds>
donor molecule, donor type, donor heavy atom, donor atom, acceptor molecule, acceptor atom, score
      L1  H    19    23       P1  7949  0.48
      P1  H  7989  7998       L1    21  0.88
      P1  H  7997  8010       L1    12  0.97

> <Gold.Chemscore.Hbond.Weighted>
-8.2416

> <Gold.Chemscore.Metal.Weighted>
-0.0000

> <Gold.Chemscore.Lipo.Weighted>
-12.6618

> <Gold.Chemscore.Internal_Hbond.Weighted>
0.0000

> <Gold.Chemscore.DEClash.Weighted>
1.7231

> <Gold.Chemscore.DEInternal.Weighted>
0.7902

> <Gold.Chemscore.Rot.Weighted>
4.7460

> <Gold.Chemscore.Internal.Correction.Weighted>
   9.000000E+99

> <Gold.Protein.RotatedTorsions>
[ 6907 6896 6895 6894 ] final  -97.63 input  -60.11 | X-H torsion
[ 7974 7965 7964 7962 ] final -162.96 input  175.53 | X-H torsion
[ 8008 7997 7996 7995 ] final   57.40 input   59.86 | X-H torsion
[ 10167 10162 10161 10158 ] final -166.39 input  -65.29 | X-H torsion
[ 10718 10713 10712 10709 ] final  167.72 input   66.30 | X-H torsion
[ 10763 10752 10751 10750 ] final  -64.71 input  -60.55 | X-H torsion
[ 11005 11000 10999 10996 ] final -138.47 input  -57.11 | X-H torsion

> <Gold.Protein.ActiveResidues>
 VAL166  LYS551  ARG553  GLY616  TRP617  ASP618  TYR619  PRO620  LYS621  CYS622 
 ASP623  PHE694  ASN695  SER759  ASP760  ASP761  ALA762  ILE779  LEU786  VAL792 
 PHE793  MET794  SER795  GLU796  ALA797  LYS798  CYS799  TRP800  GLU811  SER814 

> <Gold.Protein.RotatedAtoms>
  150.7022  134.1319  159.4072 H   0  0  0  0  0  0  0  0  0  0  0  0  # atno 6907 bound_to 6896
  151.9304  135.0256  160.0538 H   0  0  0  0  0  0  0  0  0  0  0  0  # atno 6908 bound_to 6896
  152.2180  133.4926  159.5183 H   0  0  0  0  0  0  0  0  0  0  0  0  # atno 6909 bound_to 6896
  144.7341  140.3176  143.6176 H   0  0  0  0  0  0  0  0  0  0  0  0  # atno 7974 bound_to 7965
  155.5331  140.3482  155.4430 H   0  0  0  0  0  0  0  0  0  0  0  0  # atno 8008 bound_to 7997
  156.0704  140.1362  156.9861 H   0  0  0  0  0  0  0  0  0  0  0  0  # atno 8009 bound_to 7997
  154.4525  140.0967  156.6636 H   0  0  0  0  0  0  0  0  0  0  0  0  # atno 8010 bound_to 7997
  139.6118  144.0799  152.1849 H   0  0  0  0  0  0  0  0  0  0  0  0  # atno 10167 bound_to 10162
  157.0475  131.0304  151.2692 H   0  0  0  0  0  0  0  0  0  0  0  0  # atno 10718 bound_to 10713
  154.3341  135.6170  153.5565 H   0  0  0  0  0  0  0  0  0  0  0  0  # atno 10763 bound_to 10752
  152.9809  135.5754  154.4928 H   0  0  0  0  0  0  0  0  0  0  0  0  # atno 10764 bound_to 10752
  154.4620  135.2856  155.1683 H   0  0  0  0  0  0  0  0  0  0  0  0  # atno 10765 bound_to 10752
  140.8613  134.2165  157.4705 H   0  0  0  0  0  0  0  0  0  0  0  0  # atno 11005 bound_to 11000
  145.7601  139.1822  143.2272 LP  0  0  0  0  0  0  0  0  0  0  0  0  # atno 17320 bound_to 7965
  146.0993  140.7563  142.9557 LP  0  0  0  0  0  0  0  0  0  0  0  0  # atno 17321 bound_to 7965
  140.0420  144.6000  150.7404 LP  0  0  0  0  0  0  0  0  0  0  0  0  # atno 17342 bound_to 10162
  140.7324  143.2705  151.3903 LP  0  0  0  0  0  0  0  0  0  0  0  0  # atno 17343 bound_to 10162
  157.5056  130.7907  149.7650 LP  0  0  0  0  0  0  0  0  0  0  0  0  # atno 17370 bound_to 10713
  156.0018  130.3876  150.2577 LP  0  0  0  0  0  0  0  0  0  0  0  0  # atno 17371 bound_to 10713
  139.8707  134.9731  156.4796 LP  0  0  0  0  0  0  0  0  0  0  0  0  # atno 17394 bound_to 11000
  140.8679  133.8010  155.9334 LP  0  0  0  0  0  0  0  0  0  0  0  0  # atno 17395 bound_to 11000

$$$$
