AV-unprocessed.smi:2202|AV-procd|sdf|8934|dock10
  -GOLD-   2272012153D 1   1.00000     0.00000
 Structure written by MMmdl.
 43 45  0  0  0  0  0  0  0  0  2 V2000
  150.8976  136.0194  156.2109 O   0  0  0  0  0  0  0  0  0  0  0  0
  150.6541  136.4376  155.0777 C   0  0  0  0  0  0  0  0  0  0  0  0
  151.3982  137.6512  154.5024 C   0  0  0  0  0  0  0  0  0  0  0  0
  151.4647  138.7887  155.4287 N   0  0  0  0  0  0  0  0  0  0  0  0
  152.1134  138.7692  156.6099 C   0  0  0  0  0  0  0  0  0  0  0  0
  152.8045  137.8583  157.0645 O   0  0  0  0  0  0  0  0  0  0  0  0
  151.8012  140.0522  157.3654 C   0  0  1  0  0  0  0  0  0  0  0  0
  152.8247  140.7555  158.2650 C   0  0  0  0  0  0  0  0  0  0  0  0
  152.2604  142.1296  158.6417 C   0  0  0  0  0  0  0  0  0  0  0  0
  151.2217  142.7185  157.9995 C   0  0  0  0  0  0  0  0  0  0  0  0
  150.5094  142.1024  156.7907 C   0  0  0  0  0  0  0  0  0  0  0  0
  151.3971  140.9809  156.2377 C   0  0  2  0  0  0  0  0  0  0  0  0
  150.9170  139.9955  155.1831 C   0  0  0  0  0  0  0  0  0  0  0  0
  150.2011  140.3072  154.2320 O   0  0  0  0  0  0  0  0  0  0  0  0
  149.7353  135.8803  154.2746 N   0  0  0  0  0  0  0  0  0  0  0  0
  148.9195  134.7220  154.6194 C   0  0  0  0  0  0  0  0  0  0  0  0
  149.1992  133.5341  153.6832 C   0  0  0  0  0  0  0  0  0  0  0  0
  147.9399  133.0294  153.0068 C   0  0  0  0  0  0  0  0  0  0  0  0
  147.5201  131.6850  153.1035 C   0  0  0  0  0  0  0  0  0  0  0  0
  146.3405  131.2829  152.4424 C   0  0  0  0  0  0  0  0  0  0  0  0
  145.6079  132.2316  151.6990 C   0  0  0  0  0  0  0  0  0  0  0  0
  146.0743  133.5604  151.6346 C   0  0  0  0  0  0  0  0  0  0  0  0
  147.2086  133.9069  152.2818 N   0  3  0  0  0  0  0  0  0  0  0  0
  152.4088  137.3489  154.2214 H   0  0  0  0  0  0  0  0  0  0  0  0
  150.9081  137.9498  153.5739 H   0  0  0  0  0  0  0  0  0  0  0  0
  150.9257  139.8215  157.9774 H   0  0  0  0  0  0  0  0  0  0  0  0
  152.9941  140.1730  159.1709 H   0  0  0  0  0  0  0  0  0  0  0  0
  153.7863  140.8768  157.7651 H   0  0  0  0  0  0  0  0  0  0  0  0
  152.7313  142.6354  159.4718 H   0  0  0  0  0  0  0  0  0  0  0  0
  150.8604  143.6791  158.3361 H   0  0  0  0  0  0  0  0  0  0  0  0
  149.5292  141.7309  157.0912 H   0  0  0  0  0  0  0  0  0  0  0  0
  150.3543  142.8695  156.0316 H   0  0  0  0  0  0  0  0  0  0  0  0
  152.2900  141.4457  155.8124 H   0  0  0  0  0  0  0  0  0  0  0  0
  149.5927  136.2873  153.3613 H   0  0  0  0  0  0  0  0  0  0  0  0
  149.0948  134.4423  155.6600 H   0  0  0  0  0  0  0  0  0  0  0  0
  147.8705  135.0112  154.5486 H   0  0  0  0  0  0  0  0  0  0  0  0
  149.9250  133.8223  152.9211 H   0  0  0  0  0  0  0  0  0  0  0  0
  149.6487  132.7094  154.2384 H   0  0  0  0  0  0  0  0  0  0  0  0
  148.0934  130.9697  153.6754 H   0  0  0  0  0  0  0  0  0  0  0  0
  146.0019  130.2589  152.5043 H   0  0  0  0  0  0  0  0  0  0  0  0
  144.7022  131.9439  151.1852 H   0  0  0  0  0  0  0  0  0  0  0  0
  145.5788  134.3505  151.0894 H   0  0  0  0  0  0  0  0  0  0  0  0
  147.5281  134.8743  152.2220 H   0  0  0  0  0  0  0  0  0  0  0  0
  1  2  2  0  0  0  0
  2  3  1  0  0  0  0
  2 15  1  0  0  0  0
  3  4  1  0  0  0  0
  3 24  1  0  0  0  0
  3 25  1  0  0  0  0
  4 13  1  0  0  0  0
  4  5  1  0  0  0  0
  5  6  2  0  0  0  0
  5  7  1  0  0  0  0
  7 12  1  0  0  0  0
  7  8  1  0  0  0  0
  7 26  1  0  0  0  0
  8  9  1  0  0  0  0
  8 27  1  0  0  0  0
  8 28  1  0  0  0  0
  9 10  2  0  0  0  0
  9 29  1  0  0  0  0
 10 11  1  0  0  0  0
 10 30  1  0  0  0  0
 11 12  1  0  0  0  0
 11 31  1  0  0  0  0
 11 32  1  0  0  0  0
 12 13  1  0  0  0  0
 12 33  1  0  0  0  0
 13 14  2  0  0  0  0
 15 16  1  0  0  0  0
 15 34  1  0  0  0  0
 16 17  1  0  0  0  0
 16 35  1  0  0  0  0
 16 36  1  0  0  0  0
 17 18  1  0  0  0  0
 17 37  1  0  0  0  0
 17 38  1  0  0  0  0
 18 23  1  0  0  0  0
 18 19  2  0  0  0  0
 19 20  1  0  0  0  0
 19 39  1  0  0  0  0
 20 21  2  0  0  0  0
 20 40  1  0  0  0  0
 21 22  1  0  0  0  0
 21 41  1  0  0  0  0
 22 23  2  0  0  0  0
 22 42  1  0  0  0  0
 23 43  1  0  0  0  0
M  CHG  1  23   1
M  END
> <s_m_source_file>
AV-unprocessed.smi

> <i_m_source_file_index>
2202

> <i_lp_mmshare_version>
43012

> <i_f3d_flags>
0

> <s_epik_input>
W0NIMl0xW0NIXT1bQ0hdW0NIMl1bQ0BIXShbQ0BIXTEyKUMoPU8pTihDMj1PKVtDSDJdQyg9TylbTkhdW0NIMl1bQ0gyXWMzW2NIXVtjSF1bY0hdW2NIXW4z

> <s_epik_cmdline>
J2VwaWtfcHl0aG9uJywgJy1waCcsICc3LjAnLCAnLXRuJywgJzgnLCAnLW1hJywgJzIwMCcsICctbWV0YWxfYmluZGluZycsICctaW1hZScsICc8aW5maWxlLm1hZT4nLCAnLW9tYWUnLCAnPG91dGZpbGUubWFlPic=

> <r_lp_tautomer_probability>
1

> <r_epik_Ionization_Penalty>
1.90039

> <r_epik_Ionization_Penalty_Charging>
1.90039

> <r_epik_Ionization_Penalty_Neutral>
1.50224e-07

> <r_epik_State_Penalty>
2.02162

> <r_epik_Charging_Adjusted_Penalty>
3.922

> <i_epik_Tot_Q>
1

> <i_epik_Tot_abs_Q>
1

> <r_epik_Metal_State_Penalty>
2.04542

> <b_epik_Metal_Only>
0

> <s_lp_Force_Field>
OPLS_2005

> <r_lp_Energy>
26.7025

> <b_lp_Chiralities_Consistent>
1

> <s_lp_Variant>
AV-unprocessed.smi:2202-6

> <Gold.Version>
5.8.1

> <Gold.Id.Protein>
6NUR|6NUR_protein|mol2

> <Gold.PLP.Fitness>
51.7527

> <Gold.PLP.PLP>
-40.9310

> <Gold.PLP.part.hbond>
-3.2374

> <Gold.PLP.part.metal>
0.0000

> <Gold.PLP.part.buried>
-4.2325

> <Gold.PLP.part.nonpolar>
-34.4317

> <Gold.PLP.part.repulsive>
0.1925

> <Gold.PLP.ligand.clash>
0.0000

> <Gold.PLP.ligand.torsion>
0.5404

> <Gold.PLP.Chemscore.Hbond>
3.9500

> <Gold.PLP.Chemscore.CHOScore>
0.0000

> <Gold.PLP.Chemscore.Metal>
0.0000

> <Gold.Chemscore.Hbonds>
donor molecule, donor type, donor heavy atom, donor atom, acceptor molecule, acceptor atom, score
      L1  H    15    34       P1  7948  1.00
      L1  H    23    43       P1  7948  1.98
      P1  H  7989  7998       L1    14  0.33

> <Gold.PLP.Chemscore.Internal.Correction>
0.0525

> <Gold.Rescore>
     Score         DG    S(hbond)    S(metal)    S(lipo)     H(rot)  DE(clash)    DE(int)     intcor
     15.96     -18.85       2.58        0.00      83.51       1.96       0.00       2.90       ----

> <Gold.Chemscore.Fitness>
15.9565

> <Gold.Chemscore.DG>
-18.8527

> <Gold.Chemscore.ZeroCoef>
-5.4800

> <Gold.Chemscore.Hbond>
2.5827

> <Gold.Chemscore.Metal>
0.0000

> <Gold.Chemscore.Lipo>
83.5091

> <Gold.Chemscore.Internal_Hbond>
0.0000

> <Gold.Chemscore.DEClash>
0.0000

> <Gold.Chemscore.DEInternal>
2.8962

> <Gold.Chemscore.Rot>
1.9625

> <Gold.Chemscore.Internal.Correction>
   9.000000E+99

> <Gold.Chemscore.Hbonds>
donor molecule, donor type, donor heavy atom, donor atom, acceptor molecule, acceptor atom, score
      L1  H    15    34       P1  7948  0.37
      L1  H    23    43       P1  7948  0.84
      P1  H  7989  7998       L1    14  0.01

> <Gold.Chemscore.Hbond.Weighted>
-8.6261

> <Gold.Chemscore.Metal.Weighted>
-0.0000

> <Gold.Chemscore.Lipo.Weighted>
-9.7706

> <Gold.Chemscore.Internal_Hbond.Weighted>
0.0000

> <Gold.Chemscore.DEClash.Weighted>
0.0000

> <Gold.Chemscore.DEInternal.Weighted>
2.8962

> <Gold.Chemscore.Rot.Weighted>
5.0240

> <Gold.Chemscore.Internal.Correction.Weighted>
   9.000000E+99

> <Gold.Protein.RotatedTorsions>
[ 6907 6896 6895 6894 ] final   66.92 input  -60.11 | X-H torsion
[ 7974 7965 7964 7962 ] final   30.52 input  175.53 | X-H torsion
[ 8008 7997 7996 7995 ] final  158.80 input   59.86 | X-H torsion
[ 10167 10162 10161 10158 ] final   20.37 input  -65.29 | X-H torsion
[ 10718 10713 10712 10709 ] final  169.67 input   66.30 | X-H torsion
[ 10763 10752 10751 10750 ] final  -37.51 input  -60.55 | X-H torsion
[ 11005 11000 10999 10996 ] final -130.71 input  -57.11 | X-H torsion

> <Gold.Protein.ActiveResidues>
 VAL166  LYS551  ARG553  GLY616  TRP617  ASP618  TYR619  PRO620  LYS621  CYS622 
 ASP623  PHE694  ASN695  SER759  ASP760  ASP761  ALA762  ILE779  LEU786  VAL792 
 PHE793  MET794  SER795  GLU796  ALA797  LYS798  CYS799  TRP800  GLU811  SER814 

> <Gold.Protein.RotatedAtoms>
  152.4515  134.5382  159.9831 H   0  0  0  0  0  0  0  0  0  0  0  0  # atno 6907 bound_to 6896
  151.5454  133.3420  159.2951 H   0  0  0  0  0  0  0  0  0  0  0  0  # atno 6908 bound_to 6896
  150.8446  134.7782  159.7023 H   0  0  0  0  0  0  0  0  0  0  0  0  # atno 6909 bound_to 6896
  146.1607  139.6778  142.9036 H   0  0  0  0  0  0  0  0  0  0  0  0  # atno 7974 bound_to 7965
  156.2279  140.1848  156.7316 H   0  0  0  0  0  0  0  0  0  0  0  0  # atno 8008 bound_to 7997
  154.5973  140.0641  156.9348 H   0  0  0  0  0  0  0  0  0  0  0  0  # atno 8009 bound_to 7997
  155.2234  140.3309  155.4315 H   0  0  0  0  0  0  0  0  0  0  0  0  # atno 8010 bound_to 7997
  140.5509  143.9511  150.6577 H   0  0  0  0  0  0  0  0  0  0  0  0  # atno 10167 bound_to 10162
  157.0193  131.0227  151.2779 H   0  0  0  0  0  0  0  0  0  0  0  0  # atno 10718 bound_to 10713
  153.8975  135.6806  153.4757 H   0  0  0  0  0  0  0  0  0  0  0  0  # atno 10763 bound_to 10752
  153.1147  135.4767  154.9093 H   0  0  0  0  0  0  0  0  0  0  0  0  # atno 10764 bound_to 10752
  154.7592  135.3206  154.8366 H   0  0  0  0  0  0  0  0  0  0  0  0  # atno 10765 bound_to 10752
  140.9322  134.1304  157.4225 H   0  0  0  0  0  0  0  0  0  0  0  0  # atno 11005 bound_to 11000
  145.4596  141.0432  143.2759 LP  0  0  0  0  0  0  0  0  0  0  0  0  # atno 17320 bound_to 7965
  144.8023  139.6118  143.7066 LP  0  0  0  0  0  0  0  0  0  0  0  0  # atno 17321 bound_to 7965
  140.2936  143.3307  152.1039 LP  0  0  0  0  0  0  0  0  0  0  0  0  # atno 17342 bound_to 10162
  139.5027  144.6740  151.6174 LP  0  0  0  0  0  0  0  0  0  0  0  0  # atno 17343 bound_to 10162
  157.5261  130.8029  149.7864 LP  0  0  0  0  0  0  0  0  0  0  0  0  # atno 17370 bound_to 10713
  156.0108  130.3834  150.2272 LP  0  0  0  0  0  0  0  0  0  0  0  0  # atno 17371 bound_to 10713
  139.8799  135.0009  156.6036 LP  0  0  0  0  0  0  0  0  0  0  0  0  # atno 17394 bound_to 11000
  140.7847  133.8631  155.8596 LP  0  0  0  0  0  0  0  0  0  0  0  0  # atno 17395 bound_to 11000

$$$$
