AV-unprocessed.smi:3129|AV-procd|sdf|11925|dock2
  -GOLD-   2272017313D 1   1.00000     0.00000
 Structure written by MMmdl.
 39 39  0  0  0  0  0  0  0  0  1 V2000
  146.4195  143.8946  161.1620 C   0  0  0  0  0  0  0  0  0  0  0  0
  146.8343  145.3766  161.1489 C   0  0  0  0  0  0  0  0  0  0  0  0
  146.2173  146.0947  159.9397 C   0  0  0  0  0  0  0  0  0  0  0  0
  148.3651  145.5737  161.1719 C   0  0  0  0  0  0  0  0  0  0  0  0
  149.0471  144.7708  160.1607 N   0  0  0  0  0  0  0  0  0  0  0  0
  150.2863  144.9904  159.6939 C   0  0  0  0  0  0  0  0  0  0  0  0
  151.0023  145.9156  160.0796 O   0  0  0  0  0  0  0  0  0  0  0  0
  150.8012  144.0118  158.6257 C   0  0  1  0  0  0  0  0  0  0  0  0
  152.2119  144.4199  158.1745 C   0  0  0  0  0  0  0  0  0  0  0  0
  150.8055  142.6054  159.0674 N   0  0  0  0  0  0  0  0  0  0  0  0
  151.3481  141.6728  158.0860 C   0  0  0  0  0  0  0  0  0  0  0  0
  150.5151  141.7514  156.7987 C   0  0  0  0  0  0  0  0  0  0  0  0
  150.8253  140.6610  155.8947 N   0  0  0  0  0  0  0  0  0  0  0  0
  151.8195  139.7119  156.0063 C   0  0  0  0  0  0  0  0  0  0  0  0
  151.7201  138.8901  154.9203 C   0  0  0  0  0  0  0  0  0  0  0  0
  150.6200  139.4240  154.1923 C   0  0  0  0  0  0  0  0  0  0  0  0
  150.0855  140.4831  154.7789 N   0  0  0  0  0  0  0  0  0  0  0  0
  146.8413  143.3585  160.3113 H   0  0  0  0  0  0  0  0  0  0  0  0
  145.3352  143.7901  161.1160 H   0  0  0  0  0  0  0  0  0  0  0  0
  146.7501  143.3921  162.0708 H   0  0  0  0  0  0  0  0  0  0  0  0
  146.4227  145.8413  162.0459 H   0  0  0  0  0  0  0  0  0  0  0  0
  146.5939  145.6849  159.0018 H   0  0  0  0  0  0  0  0  0  0  0  0
  146.4482  147.1601  159.9547 H   0  0  0  0  0  0  0  0  0  0  0  0
  145.1315  145.9956  159.9341 H   0  0  0  0  0  0  0  0  0  0  0  0
  148.6149  146.6310  161.0669 H   0  0  0  0  0  0  0  0  0  0  0  0
  148.7573  145.2686  162.1425 H   0  0  0  0  0  0  0  0  0  0  0  0
  148.5359  143.9854  159.7847 H   0  0  0  0  0  0  0  0  0  0  0  0
  150.1462  144.0826  157.7554 H   0  0  0  0  0  0  0  0  0  0  0  0
  152.2330  145.4522  157.8221 H   0  0  0  0  0  0  0  0  0  0  0  0
  152.5571  143.7892  157.3549 H   0  0  0  0  0  0  0  0  0  0  0  0
  152.9346  144.3316  158.9868 H   0  0  0  0  0  0  0  0  0  0  0  0
  149.8841  142.3046  159.3523 H   0  0  0  0  0  0  0  0  0  0  0  0
  152.3878  141.9118  157.8594 H   0  0  0  0  0  0  0  0  0  0  0  0
  151.3231  140.6592  158.4882 H   0  0  0  0  0  0  0  0  0  0  0  0
  149.4483  141.7229  157.0273 H   0  0  0  0  0  0  0  0  0  0  0  0
  150.7031  142.6926  156.2801 H   0  0  0  0  0  0  0  0  0  0  0  0
  152.5062  139.6999  156.8401 H   0  0  0  0  0  0  0  0  0  0  0  0
  152.3387  138.0376  154.6823 H   0  0  0  0  0  0  0  0  0  0  0  0
  150.1962  139.0754  153.2619 H   0  0  0  0  0  0  0  0  0  0  0  0
  1  2  1  0  0  0  0
  1 18  1  0  0  0  0
  1 19  1  0  0  0  0
  1 20  1  0  0  0  0
  2  3  1  0  0  0  0
  2  4  1  0  0  0  0
  2 21  1  0  0  0  0
  3 22  1  0  0  0  0
  3 23  1  0  0  0  0
  3 24  1  0  0  0  0
  4  5  1  0  0  0  0
  4 25  1  0  0  0  0
  4 26  1  0  0  0  0
  5  6  1  0  0  0  0
  5 27  1  0  0  0  0
  6  7  2  0  0  0  0
  6  8  1  0  0  0  0
  8  9  1  0  0  0  0
  8 10  1  0  0  0  0
  8 28  1  0  0  0  0
  9 29  1  0  0  0  0
  9 30  1  0  0  0  0
  9 31  1  0  0  0  0
 10 11  1  0  0  0  0
 10 32  1  0  0  0  0
 11 12  1  0  0  0  0
 11 33  1  0  0  0  0
 11 34  1  0  0  0  0
 12 13  1  0  0  0  0
 12 35  1  0  0  0  0
 12 36  1  0  0  0  0
 13 17  1  0  0  0  0
 13 14  1  0  0  0  0
 14 15  2  0  0  0  0
 14 37  1  0  0  0  0
 15 16  1  0  0  0  0
 15 38  1  0  0  0  0
 16 17  2  0  0  0  0
 16 39  1  0  0  0  0
M  END
> <s_m_source_file>
AV-unprocessed.smi

> <i_m_source_file_index>
3129

> <i_lp_mmshare_version>
43012

> <i_f3d_flags>
0

> <s_epik_input>
W0NIM11bQ0hdKFtDSDNdKVtDSDJdW05IXUMoPU8pW0NASF0oW0NIM10pW05IXVtDSDJdW0NIMl1uMVtjSF1bY0hdW2NIXW4x

> <s_epik_cmdline>
J2VwaWtfcHl0aG9uJywgJy1waCcsICc3LjAnLCAnLXRuJywgJzgnLCAnLW1hJywgJzIwMCcsICctbWV0YWxfYmluZGluZycsICctaW1hZScsICc8aW5maWxlLm1hZT4nLCAnLW9tYWUnLCAnPG91dGZpbGUubWFlPic=

> <r_lp_tautomer_probability>
1

> <r_epik_Ionization_Penalty>
0.724007

> <r_epik_Ionization_Penalty_Charging>
0

> <r_epik_Ionization_Penalty_Neutral>
0.724007

> <r_epik_State_Penalty>
0.74758

> <r_epik_Charging_Adjusted_Penalty>
0.74758

> <i_epik_Tot_Q>
0

> <i_epik_Tot_abs_Q>
0

> <r_epik_Metal_State_Penalty>
0.746851

> <b_epik_Metal_Only>
0

> <s_lp_Force_Field>
OPLS_2005

> <r_lp_Energy>
5.77618

> <b_lp_Chiralities_Consistent>
1

> <s_lp_Variant>
AV-unprocessed.smi:3129-4

> <Gold.Version>
5.8.1

> <Gold.Id.Protein>
6NUR|6NUR_protein|mol2

> <Gold.PLP.Fitness>
42.8407

> <Gold.PLP.PLP>
-40.2594

> <Gold.PLP.part.hbond>
-2.8914

> <Gold.PLP.part.metal>
0.0000

> <Gold.PLP.part.buried>
-4.1234

> <Gold.PLP.part.nonpolar>
-34.4366

> <Gold.PLP.part.repulsive>
0.5061

> <Gold.PLP.ligand.clash>
0.0000

> <Gold.PLP.ligand.torsion>
0.3157

> <Gold.PLP.Chemscore.Hbond>
0.0000

> <Gold.PLP.Chemscore.CHOScore>
0.9989

> <Gold.PLP.Chemscore.Metal>
0.0000

> <Gold.Chemscore.Hbonds>
donor molecule, donor type, donor heavy atom, donor atom, acceptor molecule, acceptor atom, score
      L1  C    16    39       P1  7957  1.00

> <Gold.PLP.Chemscore.Internal.Correction>
0.2161

> <Gold.Rescore>
     Score         DG    S(hbond)    S(metal)    S(lipo)     H(rot)  DE(clash)    DE(int)     intcor
      9.17      -9.59       0.00        0.00      81.80       2.13       0.05       0.37       ----

> <Gold.Chemscore.Fitness>
9.1671

> <Gold.Chemscore.DG>
-9.5865

> <Gold.Chemscore.ZeroCoef>
-5.4800

> <Gold.Chemscore.Hbond>
0.0000

> <Gold.Chemscore.Metal>
0.0000

> <Gold.Chemscore.Lipo>
81.8009

> <Gold.Chemscore.Internal_Hbond>
0.0000

> <Gold.Chemscore.DEClash>
0.0522

> <Gold.Chemscore.DEInternal>
0.3672

> <Gold.Chemscore.Rot>
2.1345

> <Gold.Chemscore.Internal.Correction>
   9.000000E+99

> <Gold.Chemscore.Hbond.Weighted>
-0.0000

> <Gold.Chemscore.Metal.Weighted>
-0.0000

> <Gold.Chemscore.Lipo.Weighted>
-9.5707

> <Gold.Chemscore.Internal_Hbond.Weighted>
0.0000

> <Gold.Chemscore.DEClash.Weighted>
0.0522

> <Gold.Chemscore.DEInternal.Weighted>
0.3672

> <Gold.Chemscore.Rot.Weighted>
5.4642

> <Gold.Chemscore.Internal.Correction.Weighted>
   9.000000E+99

> <Gold.Protein.RotatedTorsions>
[ 6907 6896 6895 6894 ] final -158.55 input  -60.11 | X-H torsion
[ 7974 7965 7964 7962 ] final  -10.05 input  175.53 | X-H torsion
[ 8008 7997 7996 7995 ] final -135.44 input   59.86 | X-H torsion
[ 10167 10162 10161 10158 ] final -124.18 input  -65.29 | X-H torsion
[ 10718 10713 10712 10709 ] final   -9.93 input   66.30 | X-H torsion
[ 10763 10752 10751 10750 ] final -176.98 input  -60.55 | X-H torsion
[ 11005 11000 10999 10996 ] final   23.75 input  -57.11 | X-H torsion

> <Gold.Protein.ActiveResidues>
 VAL166  LYS551  ARG553  GLY616  TRP617  ASP618  TYR619  PRO620  LYS621  CYS622 
 ASP623  PHE694  ASN695  SER759  ASP760  ASP761  ALA762  ILE779  LEU786  VAL792 
 PHE793  MET794  SER795  GLU796  ALA797  LYS798  CYS799  TRP800  GLU811  SER814 

> <Gold.Protein.RotatedAtoms>
  151.3199  133.4044  159.2653 H   0  0  0  0  0  0  0  0  0  0  0  0  # atno 6907 bound_to 6896
  151.0043  134.9347  159.7982 H   0  0  0  0  0  0  0  0  0  0  0  0  # atno 6908 bound_to 6896
  152.5283  134.3164  159.9185 H   0  0  0  0  0  0  0  0  0  0  0  0  # atno 6909 bound_to 6896
  146.2233  140.2707  142.8356 H   0  0  0  0  0  0  0  0  0  0  0  0  # atno 7974 bound_to 7965
  155.3787  140.0492  157.3044 H   0  0  0  0  0  0  0  0  0  0  0  0  # atno 8008 bound_to 7997
  154.5093  140.2186  155.9150 H   0  0  0  0  0  0  0  0  0  0  0  0  # atno 8009 bound_to 7997
  156.1564  140.3125  155.8738 H   0  0  0  0  0  0  0  0  0  0  0  0  # atno 8010 bound_to 7997
  139.9955  143.5595  152.2324 H   0  0  0  0  0  0  0  0  0  0  0  0  # atno 10167 bound_to 10162
  156.6809  130.5036  149.5971 H   0  0  0  0  0  0  0  0  0  0  0  0  # atno 10718 bound_to 10713
  154.5657  135.2823  155.0876 H   0  0  0  0  0  0  0  0  0  0  0  0  # atno 10763 bound_to 10752
  154.2268  135.6381  153.5166 H   0  0  0  0  0  0  0  0  0  0  0  0  # atno 10764 bound_to 10752
  153.0042  135.5527  154.6265 H   0  0  0  0  0  0  0  0  0  0  0  0  # atno 10765 bound_to 10752
  140.3662  134.2072  155.7669 H   0  0  0  0  0  0  0  0  0  0  0  0  # atno 11005 bound_to 11000
  144.9270  140.7932  143.5713 LP  0  0  0  0  0  0  0  0  0  0  0  0  # atno 17320 bound_to 7965
  145.2648  139.1978  143.4873 LP  0  0  0  0  0  0  0  0  0  0  0  0  # atno 17321 bound_to 7965
  139.6309  144.7644  151.2539 LP  0  0  0  0  0  0  0  0  0  0  0  0  # atno 17342 bound_to 10162
  140.7438  143.6482  150.8273 LP  0  0  0  0  0  0  0  0  0  0  0  0  # atno 17343 bound_to 10162
  156.1868  130.6534  151.1016 LP  0  0  0  0  0  0  0  0  0  0  0  0  # atno 17370 bound_to 10713
  157.7044  131.0762  150.6716 LP  0  0  0  0  0  0  0  0  0  0  0  0  # atno 17371 bound_to 10713
  141.1969  133.8072  157.0652 LP  0  0  0  0  0  0  0  0  0  0  0  0  # atno 17394 bound_to 11000
  140.0588  134.9766  157.1267 LP  0  0  0  0  0  0  0  0  0  0  0  0  # atno 17395 bound_to 11000

$$$$
