AV-unprocessed.smi:1550|AV-procd|sdf|6224|dock5
  -GOLD-   22720 6403D 1   1.00000     0.00000
 Structure written by MMmdl.
 43 44  0  0  0  0  0  0  0  0  1 V2000
  151.1882  137.9054  155.2168 C   0  0  0  0  0  0  0  0  0  0  0  0
  152.6448  137.7543  155.6800 C   0  0  2  0  0  0  0  0  0  0  0  0
  152.6940  136.6540  156.5841 O   0  0  0  0  0  0  0  0  0  0  0  0
  152.1864  135.4237  156.0793 C   0  0  0  0  0  0  0  0  0  0  0  0
  153.1665  134.2986  156.4334 C   0  0  2  0  0  0  0  0  0  0  0  0
  152.9220  133.0257  155.5986 C   0  0  0  0  0  0  0  0  0  0  0  0
  153.8596  131.8992  156.0466 C   0  0  0  0  0  0  0  0  0  0  0  0
  153.7356  131.6955  157.5603 C   0  0  0  0  0  0  0  0  0  0  0  0
  153.9373  133.0290  158.2974 C   0  0  0  0  0  0  0  0  0  0  0  0
  153.0075  133.9958  157.8178 O   0  0  0  0  0  0  0  0  0  0  0  0
  153.1516  139.0322  156.3691 C   0  0  0  0  0  0  0  0  0  0  0  0
  154.1312  139.6175  155.9087 O   0  0  0  0  0  0  0  0  0  0  0  0
  152.4347  139.4315  157.4387 N   0  0  0  0  0  0  0  0  0  0  0  0
  152.6029  140.5484  158.2757 C   0  0  0  0  0  0  0  0  0  0  0  0
  151.7398  141.5938  158.3753 C   0  0  0  0  0  0  0  0  0  0  0  0
  151.9848  142.7149  159.2676 C   0  0  0  0  0  0  0  0  0  0  0  0
  151.0402  143.9058  159.3277 C   0  0  0  0  0  0  0  0  0  0  0  0
  151.2637  144.6480  160.4131 F   0  0  0  0  0  0  0  0  0  0  0  0
  151.1809  144.6827  158.2535 F   0  0  0  0  0  0  0  0  0  0  0  0
  149.7784  143.4801  159.3688 F   0  0  0  0  0  0  0  0  0  0  0  0
  153.1288  142.6803  159.9754 C   0  0  0  0  0  0  0  0  0  0  0  0
  154.0192  141.6089  159.8820 N   0  0  0  0  0  0  0  0  0  0  0  0
  153.8370  140.5369  159.0791 C   0  0  0  0  0  0  0  0  0  0  0  0
  154.6722  139.6336  159.0517 O   0  0  0  0  0  0  0  0  0  0  0  0
  154.8503  141.6513  160.4538 H   0  0  0  0  0  0  0  0  0  0  0  0
  151.0766  138.7401  154.5239 H   0  0  0  0  0  0  0  0  0  0  0  0
  150.5137  138.0738  156.0573 H   0  0  0  0  0  0  0  0  0  0  0  0
  150.8519  137.0047  154.7025 H   0  0  0  0  0  0  0  0  0  0  0  0
  153.2600  137.5315  154.8058 H   0  0  0  0  0  0  0  0  0  0  0  0
  151.2164  135.2231  156.5366 H   0  0  0  0  0  0  0  0  0  0  0  0
  152.0354  135.4577  154.9998 H   0  0  0  0  0  0  0  0  0  0  0  0
  154.1840  134.6590  156.2712 H   0  0  0  0  0  0  0  0  0  0  0  0
  151.8860  132.7039  155.7121 H   0  0  0  0  0  0  0  0  0  0  0  0
  153.0697  133.2323  154.5381 H   0  0  0  0  0  0  0  0  0  0  0  0
  153.6250  130.9753  155.5173 H   0  0  0  0  0  0  0  0  0  0  0  0
  154.8890  132.1554  155.7927 H   0  0  0  0  0  0  0  0  0  0  0  0
  152.7489  131.2951  157.7967 H   0  0  0  0  0  0  0  0  0  0  0  0
  154.4629  130.9595  157.9035 H   0  0  0  0  0  0  0  0  0  0  0  0
  153.7819  132.8918  159.3675 H   0  0  0  0  0  0  0  0  0  0  0  0
  154.9574  133.3944  158.1691 H   0  0  0  0  0  0  0  0  0  0  0  0
  151.6320  138.8621  157.6657 H   0  0  0  0  0  0  0  0  0  0  0  0
  150.8373  141.6332  157.7890 H   0  0  0  0  0  0  0  0  0  0  0  0
  153.4489  143.4575  160.6537 H   0  0  0  0  0  0  0  0  0  0  0  0
  1  2  1  0  0  0  0
  1 26  1  0  0  0  0
  1 27  1  0  0  0  0
  1 28  1  0  0  0  0
  2  3  1  0  0  0  0
  2 11  1  0  0  0  0
  2 29  1  0  0  0  0
  3  4  1  0  0  0  0
  4  5  1  0  0  0  0
  4 30  1  0  0  0  0
  4 31  1  0  0  0  0
  5 10  1  0  0  0  0
  5  6  1  0  0  0  0
  5 32  1  0  0  0  0
  6  7  1  0  0  0  0
  6 33  1  0  0  0  0
  6 34  1  0  0  0  0
  7  8  1  0  0  0  0
  7 35  1  0  0  0  0
  7 36  1  0  0  0  0
  8  9  1  0  0  0  0
  8 37  1  0  0  0  0
  8 38  1  0  0  0  0
  9 10  1  0  0  0  0
  9 39  1  0  0  0  0
  9 40  1  0  0  0  0
 11 12  2  0  0  0  0
 11 13  1  0  0  0  0
 13 14  1  0  0  0  0
 13 41  1  0  0  0  0
 14 23  1  0  0  0  0
 14 15  2  0  0  0  0
 15 16  1  0  0  0  0
 15 42  1  0  0  0  0
 16 17  1  0  0  0  0
 16 21  2  0  0  0  0
 17 18  1  0  0  0  0
 17 19  1  0  0  0  0
 17 20  1  0  0  0  0
 21 22  1  0  0  0  0
 21 43  1  0  0  0  0
 22 25  1  0  0  0  0
 22 23  1  0  0  0  0
 23 24  2  0  0  0  0
M  END
> <s_m_source_file>
AV-unprocessed.smi

> <i_m_source_file_index>
1550

> <i_lp_mmshare_version>
43012

> <i_f3d_flags>
0

> <s_epik_input>
TzFbQ0gyXVtDSDJdW0NIMl1bQ0gyXVtDQEhdMVtDSDJdT1tDQEBIXShbQ0gzXSlDKD1PKVtOSF1jMltjSF1jKEMoRikoRilGKVtjSF1bbkhdYzI9Tw==

> <s_epik_cmdline>
J2VwaWtfcHl0aG9uJywgJy1waCcsICc3LjAnLCAnLXRuJywgJzgnLCAnLW1hJywgJzIwMCcsICctbWV0YWxfYmluZGluZycsICctaW1hZScsICc8aW5maWxlLm1hZT4nLCAnLW9tYWUnLCAnPG91dGZpbGUubWFlPic=

> <r_lp_tautomer_probability>
0.999

> <r_epik_Ionization_Penalty>
0.00891333

> <r_epik_Ionization_Penalty_Charging>
0.00891323

> <r_epik_Ionization_Penalty_Neutral>
1.00146e-07

> <r_epik_State_Penalty>
0.00674197

> <r_epik_Charging_Adjusted_Penalty>
0.0156552

> <i_epik_Tot_Q>
0

> <i_epik_Tot_abs_Q>
0

> <r_epik_Metal_State_Penalty>
0.321024

> <b_epik_Metal_Only>
0

> <s_lp_Force_Field>
OPLS_2005

> <r_lp_Energy>
25.3727

> <b_lp_Chiralities_Consistent>
1

> <s_lp_Variant>
AV-unprocessed.smi:1550-1

> <Gold.Version>
5.8.1

> <Gold.Id.Protein>
6NUR|6NUR_protein|mol2

> <Gold.PLP.Fitness>
46.3331

> <Gold.PLP.PLP>
-45.2341

> <Gold.PLP.part.hbond>
-3.0000

> <Gold.PLP.part.metal>
0.0000

> <Gold.PLP.part.buried>
-4.0955

> <Gold.PLP.part.nonpolar>
-38.0114

> <Gold.PLP.part.repulsive>
0.2115

> <Gold.PLP.ligand.clash>
0.1342

> <Gold.PLP.ligand.torsion>
1.7527

> <Gold.PLP.Chemscore.Hbond>
1.5295

> <Gold.PLP.Chemscore.CHOScore>
0.0000

> <Gold.PLP.Chemscore.Metal>
0.0000

> <Gold.Chemscore.Hbonds>
donor molecule, donor type, donor heavy atom, donor atom, acceptor molecule, acceptor atom, score
      P1  H  6896  6909       L1    10  0.01
      P1  H  7997  8009       L1    24  0.65

> <Gold.PLP.Chemscore.Internal.Correction>
0.1502

> <Gold.Rescore>
     Score         DG    S(hbond)    S(metal)    S(lipo)     H(rot)  DE(clash)    DE(int)     intcor
     10.96     -12.68       0.43        0.00      89.99       1.86       0.30       1.41       ----

> <Gold.Chemscore.Fitness>
10.9586

> <Gold.Chemscore.DG>
-12.6756

> <Gold.Chemscore.ZeroCoef>
-5.4800

> <Gold.Chemscore.Hbond>
0.4255

> <Gold.Chemscore.Metal>
0.0000

> <Gold.Chemscore.Lipo>
89.9882

> <Gold.Chemscore.Internal_Hbond>
0.0000

> <Gold.Chemscore.DEClash>
0.3037

> <Gold.Chemscore.DEInternal>
1.4133

> <Gold.Chemscore.Rot>
1.8571

> <Gold.Chemscore.Internal.Correction>
   9.000000E+99

> <Gold.Chemscore.Hbonds>
donor molecule, donor type, donor heavy atom, donor atom, acceptor molecule, acceptor atom, score
      P1  H  7997  8009       L1    24  0.06

> <Gold.Chemscore.Hbond.Weighted>
-1.4211

> <Gold.Chemscore.Metal.Weighted>
-0.0000

> <Gold.Chemscore.Lipo.Weighted>
-10.5286

> <Gold.Chemscore.Internal_Hbond.Weighted>
0.0000

> <Gold.Chemscore.DEClash.Weighted>
0.3037

> <Gold.Chemscore.DEInternal.Weighted>
1.4133

> <Gold.Chemscore.Rot.Weighted>
4.7541

> <Gold.Chemscore.Internal.Correction.Weighted>
   9.000000E+99

> <Gold.Protein.RotatedTorsions>
[ 6907 6896 6895 6894 ] final -160.84 input  -60.11 | X-H torsion
[ 7974 7965 7964 7962 ] final   46.51 input  175.53 | X-H torsion
[ 8008 7997 7996 7995 ] final  116.90 input   59.86 | X-H torsion
[ 10167 10162 10161 10158 ] final  149.01 input  -65.29 | X-H torsion
[ 10718 10713 10712 10709 ] final  103.79 input   66.30 | X-H torsion
[ 10763 10752 10751 10750 ] final  -50.51 input  -60.55 | X-H torsion
[ 11005 11000 10999 10996 ] final  -70.76 input  -57.11 | X-H torsion

> <Gold.Protein.ActiveResidues>
 VAL166  LYS551  ARG553  GLY616  TRP617  ASP618  TYR619  PRO620  LYS621  CYS622 
 ASP623  PHE694  ASN695  SER759  ASP760  ASP761  ALA762  ILE779  LEU786  VAL792 
 PHE793  MET794  SER795  GLU796  ALA797  LYS798  CYS799  TRP800  GLU811  SER814 

> <Gold.Protein.RotatedAtoms>
  151.3553  133.3910  159.2683 H   0  0  0  0  0  0  0  0  0  0  0  0  # atno 6907 bound_to 6896
  150.9769  134.9132  159.7831 H   0  0  0  0  0  0  0  0  0  0  0  0  # atno 6908 bound_to 6896
  152.5204  134.3516  159.9305 H   0  0  0  0  0  0  0  0  0  0  0  0  # atno 6909 bound_to 6896
  146.0383  139.4848  142.9794 H   0  0  0  0  0  0  0  0  0  0  0  0  # atno 7974 bound_to 7965
  156.2465  140.2907  156.0595 H   0  0  0  0  0  0  0  0  0  0  0  0  # atno 8008 bound_to 7997
  155.1791  140.0404  157.2896 H   0  0  0  0  0  0  0  0  0  0  0  0  # atno 8009 bound_to 7997
  154.6272  140.2490  155.7484 H   0  0  0  0  0  0  0  0  0  0  0  0  # atno 8010 bound_to 7997
  139.4867  144.5635  151.7187 H   0  0  0  0  0  0  0  0  0  0  0  0  # atno 10167 bound_to 10162
  157.6761  131.0788  150.5609 H   0  0  0  0  0  0  0  0  0  0  0  0  # atno 10718 bound_to 10713
  154.1116  135.6548  153.4886 H   0  0  0  0  0  0  0  0  0  0  0  0  # atno 10763 bound_to 10752
  153.0255  135.5249  154.7187 H   0  0  0  0  0  0  0  0  0  0  0  0  # atno 10764 bound_to 10752
  154.6368  135.2983  155.0121 H   0  0  0  0  0  0  0  0  0  0  0  0  # atno 10765 bound_to 10752
  141.1580  133.6799  156.6802 H   0  0  0  0  0  0  0  0  0  0  0  0  # atno 11005 bound_to 11000
  145.6927  141.0159  143.1547 LP  0  0  0  0  0  0  0  0  0  0  0  0  # atno 17320 bound_to 7965
  144.7062  139.8551  143.7429 LP  0  0  0  0  0  0  0  0  0  0  0  0  # atno 17321 bound_to 7965
  140.5209  144.0880  150.6022 LP  0  0  0  0  0  0  0  0  0  0  0  0  # atno 17342 bound_to 10162
  140.3838  143.2788  152.0140 LP  0  0  0  0  0  0  0  0  0  0  0  0  # atno 17343 bound_to 10162
  156.5912  130.4330  149.5936 LP  0  0  0  0  0  0  0  0  0  0  0  0  # atno 17370 bound_to 10713
  156.2582  130.6947  151.1707 LP  0  0  0  0  0  0  0  0  0  0  0  0  # atno 17371 bound_to 10713
  140.3108  134.8087  157.4175 LP  0  0  0  0  0  0  0  0  0  0  0  0  # atno 17394 bound_to 11000
  140.1180  134.5257  155.8208 LP  0  0  0  0  0  0  0  0  0  0  0  0  # atno 17395 bound_to 11000

$$$$
