AV-unprocessed.smi:559|AV-procd|sdf|2924|dock10
  -GOLD-   2262023413D 1   1.00000     0.00000
 Structure written by MMmdl.
 41 42  0  0  0  0  0  0  0  0  1 V2000
  152.9835  140.4737  158.2902 C   0  0  0  0  0  0  0  0  0  0  0  0
  152.9084  141.5374  159.3479 C   0  0  0  0  0  0  0  0  0  0  0  0
  153.4057  141.2941  160.5489 N   0  0  0  0  0  0  0  0  0  0  0  0
  153.1726  142.4198  161.2529 N   0  0  0  0  0  0  0  0  0  0  0  0
  153.5873  142.4911  162.6403 C   0  0  0  0  0  0  0  0  0  0  0  0
  152.5297  143.3776  160.4938 C   0  0  0  0  0  0  0  0  0  0  0  0
  152.1512  144.7117  161.0512 C   0  0  0  0  0  0  0  0  0  0  0  0
  152.3334  142.8385  159.2499 C   0  0  0  0  0  0  0  0  0  0  0  0
  151.6482  143.4520  158.0527 C   0  0  0  0  0  0  0  0  0  0  0  0
  150.4573  142.5823  157.6485 C   0  0  0  0  0  0  0  0  0  0  0  0
  149.7151  142.1156  158.5121 O   0  0  0  0  0  0  0  0  0  0  0  0
  150.3121  142.3433  156.3353 N   0  0  0  0  0  0  0  0  0  0  0  0
  149.3734  141.3952  155.7456 C   0  0  0  0  0  0  0  0  0  0  0  0
  150.0806  140.0801  155.3642 C   0  0  2  0  0  0  0  0  0  0  0  0
  150.5761  139.2964  156.5947 C   0  0  0  0  0  0  0  0  0  0  0  0
  151.4764  138.1527  156.1161 C   0  0  0  0  0  0  0  0  0  0  0  0
  152.3428  138.7924  154.6347 S   0  0  0  0  0  0  0  0  0  0  0  0
  153.6961  139.2311  155.0079 O   0  0  0  0  0  0  0  0  0  0  0  0
  152.1295  137.8629  153.5152 O   0  0  0  0  0  0  0  0  0  0  0  0
  151.2793  140.2674  154.4165 C   0  0  0  0  0  0  0  0  0  0  0  0
  151.9929  140.0772  158.0677 H   0  0  0  0  0  0  0  0  0  0  0  0
  153.6143  139.6393  158.5988 H   0  0  0  0  0  0  0  0  0  0  0  0
  153.3974  140.8733  157.3644 H   0  0  0  0  0  0  0  0  0  0  0  0
  154.2456  143.3478  162.7838 H   0  0  0  0  0  0  0  0  0  0  0  0
  154.1205  141.5850  162.9308 H   0  0  0  0  0  0  0  0  0  0  0  0
  152.7102  142.6036  163.2774 H   0  0  0  0  0  0  0  0  0  0  0  0
  151.6876  145.3409  160.2917 H   0  0  0  0  0  0  0  0  0  0  0  0
  153.0275  145.2376  161.4301 H   0  0  0  0  0  0  0  0  0  0  0  0
  151.4411  144.6003  161.8709 H   0  0  0  0  0  0  0  0  0  0  0  0
  151.2997  144.4619  158.2722 H   0  0  0  0  0  0  0  0  0  0  0  0
  152.3227  143.5420  157.2011 H   0  0  0  0  0  0  0  0  0  0  0  0
  150.9688  142.7806  155.7051 H   0  0  0  0  0  0  0  0  0  0  0  0
  148.5357  141.1993  156.4168 H   0  0  0  0  0  0  0  0  0  0  0  0
  148.9479  141.8557  154.8538 H   0  0  0  0  0  0  0  0  0  0  0  0
  149.3598  139.4429  154.8493 H   0  0  0  0  0  0  0  0  0  0  0  0
  151.1604  139.9614  157.2322 H   0  0  0  0  0  0  0  0  0  0  0  0
  149.7477  138.9236  157.1975 H   0  0  0  0  0  0  0  0  0  0  0  0
  152.1977  137.8314  156.8678 H   0  0  0  0  0  0  0  0  0  0  0  0
  150.8802  137.2922  155.8124 H   0  0  0  0  0  0  0  0  0  0  0  0
  150.9841  140.3623  153.3716 H   0  0  0  0  0  0  0  0  0  0  0  0
  151.8658  141.1441  154.6925 H   0  0  0  0  0  0  0  0  0  0  0  0
  1  2  1  0  0  0  0
  1 21  1  0  0  0  0
  1 22  1  0  0  0  0
  1 23  1  0  0  0  0
  2  8  1  0  0  0  0
  2  3  2  0  0  0  0
  3  4  1  0  0  0  0
  4  5  1  0  0  0  0
  4  6  1  0  0  0  0
  5 24  1  0  0  0  0
  5 25  1  0  0  0  0
  5 26  1  0  0  0  0
  6  7  1  0  0  0  0
  6  8  2  0  0  0  0
  7 27  1  0  0  0  0
  7 28  1  0  0  0  0
  7 29  1  0  0  0  0
  8  9  1  0  0  0  0
  9 10  1  0  0  0  0
  9 30  1  0  0  0  0
  9 31  1  0  0  0  0
 10 11  2  0  0  0  0
 10 12  1  0  0  0  0
 12 13  1  0  0  0  0
 12 32  1  0  0  0  0
 13 14  1  0  0  0  0
 13 33  1  0  0  0  0
 13 34  1  0  0  0  0
 14 20  1  0  0  0  0
 14 15  1  0  0  0  0
 14 35  1  0  0  0  0
 15 16  1  0  0  0  0
 15 36  1  0  0  0  0
 15 37  1  0  0  0  0
 16 17  1  0  0  0  0
 16 38  1  0  0  0  0
 16 39  1  0  0  0  0
 17 18  2  0  0  0  0
 17 19  2  0  0  0  0
 17 20  1  0  0  0  0
 20 40  1  0  0  0  0
 20 41  1  0  0  0  0
M  END
> <s_m_source_file>
AV-unprocessed.smi

> <i_m_source_file_index>
559

> <i_lp_mmshare_version>
43012

> <i_f3d_flags>
0

> <s_epik_input>
W0NIM11jMW5uKFtDSDNdKWMoW0NIM10pYzFbQ0gyXUMoPU8pW05IXVtDSDJdW0NAQEhdKFtDSDJdMilbQ0gyXVtDSDJdUzIoPU8pPU8=

> <s_epik_cmdline>
J2VwaWtfcHl0aG9uJywgJy1waCcsICc3LjAnLCAnLXRuJywgJzgnLCAnLW1hJywgJzIwMCcsICctbWV0YWxfYmluZGluZycsICctaW1hZScsICc8aW5maWxlLm1hZT4nLCAnLW9tYWUnLCAnPG91dGZpbGUubWFlPic=

> <r_lp_tautomer_probability>
1

> <r_epik_Ionization_Penalty>
0.00301269

> <r_epik_Ionization_Penalty_Charging>
0

> <r_epik_Ionization_Penalty_Neutral>
0.00301269

> <r_epik_State_Penalty>
0.00211587

> <r_epik_Charging_Adjusted_Penalty>
0.00211587

> <i_epik_Tot_Q>
0

> <i_epik_Tot_abs_Q>
0

> <r_epik_Metal_State_Penalty>
-0

> <b_epik_Metal_Only>
0

> <s_lp_Force_Field>
OPLS_2005

> <r_lp_Energy>
-3.01738

> <b_lp_Chiralities_Consistent>
1

> <s_lp_Variant>
AV-unprocessed.smi:559-1

> <Gold.Version>
5.8.1

> <Gold.Id.Protein>
6NUR|6NUR_protein|mol2

> <Gold.PLP.Fitness>
44.7514

> <Gold.PLP.PLP>
-40.1550

> <Gold.PLP.part.hbond>
-3.1021

> <Gold.PLP.part.metal>
0.0000

> <Gold.PLP.part.buried>
-2.8519

> <Gold.PLP.part.nonpolar>
-33.7374

> <Gold.PLP.part.repulsive>
0.6154

> <Gold.PLP.ligand.clash>
0.0000

> <Gold.PLP.ligand.torsion>
0.3729

> <Gold.PLP.Chemscore.Hbond>
1.7760

> <Gold.PLP.Chemscore.CHOScore>
0.0000

> <Gold.PLP.Chemscore.Metal>
0.0000

> <Gold.Chemscore.Hbonds>
donor molecule, donor type, donor heavy atom, donor atom, acceptor molecule, acceptor atom, score
      P1  H  7997  8009       L1    18  0.97
      P1  H 10752 10764       L1    19  0.14

> <Gold.PLP.Chemscore.Internal.Correction>
0.0142

> <Gold.Rescore>
     Score         DG    S(hbond)    S(metal)    S(lipo)     H(rot)  DE(clash)    DE(int)     intcor
     16.97     -18.77       1.76        0.00      99.25       1.64       1.45       0.35       ----

> <Gold.Chemscore.Fitness>
16.9651

> <Gold.Chemscore.DG>
-18.7661

> <Gold.Chemscore.ZeroCoef>
-5.4800

> <Gold.Chemscore.Hbond>
1.7579

> <Gold.Chemscore.Metal>
0.0000

> <Gold.Chemscore.Lipo>
99.2497

> <Gold.Chemscore.Internal_Hbond>
0.0000

> <Gold.Chemscore.DEClash>
1.4486

> <Gold.Chemscore.DEInternal>
0.3524

> <Gold.Chemscore.Rot>
1.6396

> <Gold.Chemscore.Internal.Correction>
   9.000000E+99

> <Gold.Chemscore.Hbonds>
donor molecule, donor type, donor heavy atom, donor atom, acceptor molecule, acceptor atom, score
      P1  H  7997  8009       L1    18  0.86
      P1  H 10752 10764       L1    19  0.13

> <Gold.Chemscore.Hbond.Weighted>
-5.8713

> <Gold.Chemscore.Metal.Weighted>
-0.0000

> <Gold.Chemscore.Lipo.Weighted>
-11.6122

> <Gold.Chemscore.Internal_Hbond.Weighted>
0.0000

> <Gold.Chemscore.DEClash.Weighted>
1.4486

> <Gold.Chemscore.DEInternal.Weighted>
0.3524

> <Gold.Chemscore.Rot.Weighted>
4.1974

> <Gold.Chemscore.Internal.Correction.Weighted>
   9.000000E+99

> <Gold.Protein.RotatedTorsions>
[ 6907 6896 6895 6894 ] final   90.24 input  -60.11 | X-H torsion
[ 7974 7965 7964 7962 ] final -170.17 input  175.53 | X-H torsion
[ 8008 7997 7996 7995 ] final -142.46 input   59.86 | X-H torsion
[ 10167 10162 10161 10158 ] final  120.74 input  -65.29 | X-H torsion
[ 10718 10713 10712 10709 ] final -100.95 input   66.30 | X-H torsion
[ 10763 10752 10751 10750 ] final -100.73 input  -60.55 | X-H torsion
[ 11005 11000 10999 10996 ] final   60.76 input  -57.11 | X-H torsion

> <Gold.Protein.ActiveResidues>
 VAL166  LYS551  ARG553  GLY616  TRP617  ASP618  TYR619  PRO620  LYS621  CYS622 
 ASP623  PHE694  ASN695  SER759  ASP760  ASP761  ALA762  ILE779  LEU786  VAL792 
 PHE793  MET794  SER795  GLU796  ALA797  LYS798  CYS799  TRP800  GLU811  SER814 

> <Gold.Protein.RotatedAtoms>
  152.5443  134.1843  159.8647 H   0  0  0  0  0  0  0  0  0  0  0  0  # atno 6907 bound_to 6896
  151.1843  133.4699  159.2602 H   0  0  0  0  0  0  0  0  0  0  0  0  # atno 6908 bound_to 6896
  151.1147  135.0058  159.8566 H   0  0  0  0  0  0  0  0  0  0  0  0  # atno 6909 bound_to 6896
  144.7174  140.2112  143.6327 H   0  0  0  0  0  0  0  0  0  0  0  0  # atno 7974 bound_to 7965
  155.4945  140.0570  157.2948 H   0  0  0  0  0  0  0  0  0  0  0  0  # atno 8008 bound_to 7997
  154.4610  140.1996  156.0195 H   0  0  0  0  0  0  0  0  0  0  0  0  # atno 8009 bound_to 7997
  156.0890  140.3236  155.7795 H   0  0  0  0  0  0  0  0  0  0  0  0  # atno 8010 bound_to 7997
  139.5963  144.7042  151.3168 H   0  0  0  0  0  0  0  0  0  0  0  0  # atno 10167 bound_to 10162
  156.0179  130.5351  150.6892 H   0  0  0  0  0  0  0  0  0  0  0  0  # atno 10718 bound_to 10713
  154.7602  135.4924  153.9450 H   0  0  0  0  0  0  0  0  0  0  0  0  # atno 10763 bound_to 10752
  153.1242  135.6738  153.9292 H   0  0  0  0  0  0  0  0  0  0  0  0  # atno 10764 bound_to 10752
  153.9015  135.3109  155.3427 H   0  0  0  0  0  0  0  0  0  0  0  0  # atno 10765 bound_to 10752
  140.0209  134.6155  155.9641 H   0  0  0  0  0  0  0  0  0  0  0  0  # atno 11005 bound_to 11000
  145.8589  139.2212  143.1728 LP  0  0  0  0  0  0  0  0  0  0  0  0  # atno 17320 bound_to 7965
  146.0192  140.8364  142.9932 LP  0  0  0  0  0  0  0  0  0  0  0  0  # atno 17321 bound_to 7965
  140.7214  143.7124  150.7759 LP  0  0  0  0  0  0  0  0  0  0  0  0  # atno 17342 bound_to 10162
  140.0691  143.5079  152.2589 LP  0  0  0  0  0  0  0  0  0  0  0  0  # atno 17343 bound_to 10162
  157.4578  131.0880  151.0778 LP  0  0  0  0  0  0  0  0  0  0  0  0  # atno 17370 bound_to 10713
  157.1275  130.6088  149.5521 LP  0  0  0  0  0  0  0  0  0  0  0  0  # atno 17371 bound_to 10713
  141.1773  133.6542  156.4878 LP  0  0  0  0  0  0  0  0  0  0  0  0  # atno 17394 bound_to 11000
  140.4389  134.7033  157.4981 LP  0  0  0  0  0  0  0  0  0  0  0  0  # atno 17395 bound_to 11000

$$$$
