AV-unprocessed.smi:2667|AV-procd|sdf|10334|dock1
  -GOLD-   2272014353D 1   1.00000     0.00000
 Structure written by MMmdl.
 44 46  0  0  0  0  0  0  0  0  1 V2000
  150.9091  134.0573  156.2554 C   0  0  0  0  0  0  0  0  0  0  0  0
  150.0388  133.9658  154.9919 C   0  0  0  0  0  0  0  0  0  0  0  0
  148.9645  135.0601  154.8933 C   0  0  0  0  0  0  0  0  0  0  0  0
  147.7756  134.7452  154.8219 O   0  0  0  0  0  0  0  0  0  0  0  0
  149.4277  136.4782  154.8904 C   0  0  0  0  0  0  0  0  0  0  0  0
  148.5210  137.5624  154.8359 C   0  0  0  0  0  0  0  0  0  0  0  0
  148.9930  138.8887  154.8293 C   0  0  0  0  0  0  0  0  0  0  0  0
  150.3730  139.1676  154.8774 C   0  0  0  0  0  0  0  0  0  0  0  0
  150.7461  140.4941  154.8614 O   0  0  0  0  0  0  0  0  0  0  0  0
  149.7997  141.4675  155.2850 C   0  0  0  0  0  0  0  0  0  0  0  0
  150.0051  141.7848  156.7758 C   0  0  2  0  0  0  0  0  0  0  0  0
  148.8673  142.4774  157.2565 O   0  0  0  0  0  0  0  0  0  0  0  0
  151.3606  142.4708  157.0947 C   0  0  0  0  0  0  0  0  0  0  0  0
  151.4191  143.1109  158.3987 N   0  0  0  0  0  0  0  0  0  0  0  0
  150.8250  144.2638  158.7635 C   0  0  0  0  0  0  0  0  0  0  0  0
  151.0179  144.6813  160.0111 N   0  0  0  0  0  0  0  0  0  0  0  0
  151.8276  143.6793  160.5183 C   0  0  0  0  0  0  0  0  0  0  0  0
  152.3951  143.5216  161.8031 C   0  0  0  0  0  0  0  0  0  0  0  0
  153.1990  142.4004  162.0967 C   0  0  0  0  0  0  0  0  0  0  0  0
  153.4442  141.4196  161.1137 C   0  0  0  0  0  0  0  0  0  0  0  0
  152.8881  141.5545  159.8276 C   0  0  0  0  0  0  0  0  0  0  0  0
  152.0922  142.6776  159.5361 C   0  0  0  0  0  0  0  0  0  0  0  0
  151.2827  138.0838  154.9362 C   0  0  0  0  0  0  0  0  0  0  0  0
  150.8124  136.7563  154.9419 C   0  0  0  0  0  0  0  0  0  0  0  0
  151.6484  133.2564  156.2700 H   0  0  0  0  0  0  0  0  0  0  0  0
  150.3080  133.9657  157.1609 H   0  0  0  0  0  0  0  0  0  0  0  0
  151.4488  135.0037  156.3003 H   0  0  0  0  0  0  0  0  0  0  0  0
  150.6785  134.0265  154.1110 H   0  0  0  0  0  0  0  0  0  0  0  0
  149.5473  132.9930  154.9647 H   0  0  0  0  0  0  0  0  0  0  0  0
  147.4539  137.4028  154.7972 H   0  0  0  0  0  0  0  0  0  0  0  0
  148.2837  139.7022  154.7874 H   0  0  0  0  0  0  0  0  0  0  0  0
  149.8845  142.3777  154.6886 H   0  0  0  0  0  0  0  0  0  0  0  0
  148.7920  141.0723  155.1475 H   0  0  0  0  0  0  0  0  0  0  0  0
  149.9940  140.8318  157.3062 H   0  0  0  0  0  0  0  0  0  0  0  0
  148.7090  143.2215  156.6962 H   0  0  0  0  0  0  0  0  0  0  0  0
  152.1604  141.7303  157.0516 H   0  0  0  0  0  0  0  0  0  0  0  0
  151.6132  143.2126  156.3362 H   0  0  0  0  0  0  0  0  0  0  0  0
  150.2217  144.8320  158.0705 H   0  0  0  0  0  0  0  0  0  0  0  0
  152.2118  144.2655  162.5643 H   0  0  0  0  0  0  0  0  0  0  0  0
  153.6284  142.2914  163.0816 H   0  0  0  0  0  0  0  0  0  0  0  0
  154.0592  140.5630  161.3475 H   0  0  0  0  0  0  0  0  0  0  0  0
  153.0698  140.8033  159.0747 H   0  0  0  0  0  0  0  0  0  0  0  0
  152.3494  138.2427  154.9761 H   0  0  0  0  0  0  0  0  0  0  0  0
  151.5329  135.9520  154.9857 H   0  0  0  0  0  0  0  0  0  0  0  0
  1  2  1  0  0  0  0
  1 25  1  0  0  0  0
  1 26  1  0  0  0  0
  1 27  1  0  0  0  0
  2  3  1  0  0  0  0
  2 28  1  0  0  0  0
  2 29  1  0  0  0  0
  3  4  2  0  0  0  0
  3  5  1  0  0  0  0
  5 24  1  0  0  0  0
  5  6  2  0  0  0  0
  6  7  1  0  0  0  0
  6 30  1  0  0  0  0
  7  8  2  0  0  0  0
  7 31  1  0  0  0  0
  8  9  1  0  0  0  0
  8 23  1  0  0  0  0
  9 10  1  0  0  0  0
 10 11  1  0  0  0  0
 10 32  1  0  0  0  0
 10 33  1  0  0  0  0
 11 12  1  0  0  0  0
 11 13  1  0  0  0  0
 11 34  1  0  0  0  0
 12 35  1  0  0  0  0
 13 14  1  0  0  0  0
 13 36  1  0  0  0  0
 13 37  1  0  0  0  0
 14 22  1  0  0  0  0
 14 15  1  0  0  0  0
 15 16  2  0  0  0  0
 15 38  1  0  0  0  0
 16 17  1  0  0  0  0
 17 22  2  0  0  0  0
 17 18  1  0  0  0  0
 18 19  2  0  0  0  0
 18 39  1  0  0  0  0
 19 20  1  0  0  0  0
 19 40  1  0  0  0  0
 20 21  2  0  0  0  0
 20 41  1  0  0  0  0
 21 22  1  0  0  0  0
 21 42  1  0  0  0  0
 23 24  2  0  0  0  0
 23 43  1  0  0  0  0
 24 44  1  0  0  0  0
M  END
> <s_m_source_file>
AV-unprocessed.smi

> <i_m_source_file_index>
2667

> <i_lp_mmshare_version>
43012

> <i_f3d_flags>
0

> <s_epik_input>
W0NIM11bQ0gyXUMoPU8pYzFbY0hdW2NIXWMoW2NIXVtjSF0xKU9bQ0gyXVtDQEhdKFtPSF0pW0NIMl1uKFtjSF1uMiljKGMyMylbY0hdW2NIXVtjSF1bY0hdMw==

> <s_epik_cmdline>
J2VwaWtfcHl0aG9uJywgJy1waCcsICc3LjAnLCAnLXRuJywgJzgnLCAnLW1hJywgJzIwMCcsICctbWV0YWxfYmluZGluZycsICctaW1hZScsICc8aW5maWxlLm1hZT4nLCAnLW9tYWUnLCAnPG91dGZpbGUubWFlPic=

> <r_lp_tautomer_probability>
0.9999

> <r_epik_Ionization_Penalty>
0.0583018

> <r_epik_Ionization_Penalty_Charging>
0

> <r_epik_Ionization_Penalty_Neutral>
0.0583018

> <r_epik_State_Penalty>
0.0504087

> <r_epik_Charging_Adjusted_Penalty>
0.0504087

> <i_epik_Tot_Q>
0

> <i_epik_Tot_abs_Q>
0

> <r_epik_Metal_State_Penalty>
5.26129e-05

> <b_epik_Metal_Only>
0

> <s_lp_Force_Field>
OPLS_2005

> <r_lp_Energy>
26.5089

> <b_lp_Chiralities_Consistent>
1

> <s_lp_Variant>
AV-unprocessed.smi:2667-1

> <Gold.Version>
5.8.1

> <Gold.Id.Protein>
6NUR|6NUR_protein|mol2

> <Gold.PLP.Fitness>
57.6166

> <Gold.PLP.PLP>
-50.4998

> <Gold.PLP.part.hbond>
-2.0000

> <Gold.PLP.part.metal>
0.0000

> <Gold.PLP.part.buried>
-7.1166

> <Gold.PLP.part.nonpolar>
-42.4113

> <Gold.PLP.part.repulsive>
0.2909

> <Gold.PLP.ligand.clash>
0.3562

> <Gold.PLP.ligand.torsion>
0.9685

> <Gold.PLP.Chemscore.Hbond>
2.0000

> <Gold.PLP.Chemscore.CHOScore>
1.0504

> <Gold.PLP.Chemscore.Metal>
0.0000

> <Gold.Chemscore.Hbonds>
donor molecule, donor type, donor heavy atom, donor atom, acceptor molecule, acceptor atom, score
      L1  H    12    35       P1  8028  1.00
      P1  H  7989  7998       L1     9  1.00
      L1  C    15    38       P1  8028  0.32
      L1  C    15    38       P1  8029  0.42

> <Gold.PLP.Chemscore.Internal.Correction>
0.2589

> <Gold.Rescore>
     Score         DG    S(hbond)    S(metal)    S(lipo)     H(rot)  DE(clash)    DE(int)     intcor
     18.76     -19.80       1.77        0.00     126.30       2.49       0.31       0.73       ----

> <Gold.Chemscore.Fitness>
18.7557

> <Gold.Chemscore.DG>
-19.8031

> <Gold.Chemscore.ZeroCoef>
-5.4800

> <Gold.Chemscore.Hbond>
1.7749

> <Gold.Chemscore.Metal>
0.0000

> <Gold.Chemscore.Lipo>
126.3046

> <Gold.Chemscore.Internal_Hbond>
0.0000

> <Gold.Chemscore.DEClash>
0.3128

> <Gold.Chemscore.DEInternal>
0.7345

> <Gold.Chemscore.Rot>
2.4932

> <Gold.Chemscore.Internal.Correction>
   9.000000E+99

> <Gold.Chemscore.Hbonds>
donor molecule, donor type, donor heavy atom, donor atom, acceptor molecule, acceptor atom, score
      L1  H    12    35       P1  8028  0.78
      P1  H  7989  7998       L1     9  0.73

> <Gold.Chemscore.Hbond.Weighted>
-5.9281

> <Gold.Chemscore.Metal.Weighted>
-0.0000

> <Gold.Chemscore.Lipo.Weighted>
-14.7776

> <Gold.Chemscore.Internal_Hbond.Weighted>
0.0000

> <Gold.Chemscore.DEClash.Weighted>
0.3128

> <Gold.Chemscore.DEInternal.Weighted>
0.7345

> <Gold.Chemscore.Rot.Weighted>
6.3826

> <Gold.Chemscore.Internal.Correction.Weighted>
   9.000000E+99

> <Gold.Protein.RotatedTorsions>
[ 6907 6896 6895 6894 ] final   26.09 input  -60.11 | X-H torsion
[ 7974 7965 7964 7962 ] final   72.01 input  175.53 | X-H torsion
[ 8008 7997 7996 7995 ] final  -55.50 input   59.86 | X-H torsion
[ 10167 10162 10161 10158 ] final   13.85 input  -65.29 | X-H torsion
[ 10718 10713 10712 10709 ] final   22.09 input   66.30 | X-H torsion
[ 10763 10752 10751 10750 ] final   85.46 input  -60.55 | X-H torsion
[ 11005 11000 10999 10996 ] final   43.28 input  -57.11 | X-H torsion

> <Gold.Protein.ActiveResidues>
 VAL166  LYS551  ARG553  GLY616  TRP617  ASP618  TYR619  PRO620  LYS621  CYS622 
 ASP623  PHE694  ASN695  SER759  ASP760  ASP761  ALA762  ILE779  LEU786  VAL792 
 PHE793  MET794  SER795  GLU796  ALA797  LYS798  CYS799  TRP800  GLU811  SER814 

> <Gold.Protein.RotatedAtoms>
  151.9823  135.0022  160.0557 H   0  0  0  0  0  0  0  0  0  0  0  0  # atno 6907 bound_to 6896
  152.1685  133.4623  159.4905 H   0  0  0  0  0  0  0  0  0  0  0  0  # atno 6908 bound_to 6896
  150.6898  134.1901  159.4325 H   0  0  0  0  0  0  0  0  0  0  0  0  # atno 6909 bound_to 6896
  145.7587  139.2791  143.1389 H   0  0  0  0  0  0  0  0  0  0  0  0  # atno 7974 bound_to 7965
  154.4197  140.1151  156.5487 H   0  0  0  0  0  0  0  0  0  0  0  0  # atno 8008 bound_to 7997
  155.6433  140.3496  155.4703 H   0  0  0  0  0  0  0  0  0  0  0  0  # atno 8009 bound_to 7997
  155.9853  140.1168  157.0678 H   0  0  0  0  0  0  0  0  0  0  0  0  # atno 8010 bound_to 7997
  140.5975  143.8672  150.6932 H   0  0  0  0  0  0  0  0  0  0  0  0  # atno 10167 bound_to 10162
  157.1476  130.6660  149.6001 H   0  0  0  0  0  0  0  0  0  0  0  0  # atno 10718 bound_to 10713
  153.1477  135.4616  154.9591 H   0  0  0  0  0  0  0  0  0  0  0  0  # atno 10763 bound_to 10752
  154.7800  135.3185  154.8013 H   0  0  0  0  0  0  0  0  0  0  0  0  # atno 10764 bound_to 10752
  153.8524  135.6920  153.4845 H   0  0  0  0  0  0  0  0  0  0  0  0  # atno 10765 bound_to 10752
  140.1660  134.4282  155.8287 H   0  0  0  0  0  0  0  0  0  0  0  0  # atno 11005 bound_to 11000
  146.0286  140.8280  142.9887 LP  0  0  0  0  0  0  0  0  0  0  0  0  # atno 17320 bound_to 7965
  144.6835  140.2735  143.7302 LP  0  0  0  0  0  0  0  0  0  0  0  0  # atno 17321 bound_to 7965
  140.2210  143.3809  152.1643 LP  0  0  0  0  0  0  0  0  0  0  0  0  # atno 17342 bound_to 10162
  139.5268  144.7112  151.5200 LP  0  0  0  0  0  0  0  0  0  0  0  0  # atno 17343 bound_to 10162
  155.9776  130.4756  150.6607 LP  0  0  0  0  0  0  0  0  0  0  0  0  # atno 17370 bound_to 10713
  157.4250  131.0842  151.1094 LP  0  0  0  0  0  0  0  0  0  0  0  0  # atno 17371 bound_to 10713
  141.2213  133.6934  156.7679 LP  0  0  0  0  0  0  0  0  0  0  0  0  # atno 17394 bound_to 11000
  140.2433  134.8596  157.3595 LP  0  0  0  0  0  0  0  0  0  0  0  0  # atno 17395 bound_to 11000

$$$$
