AV-unprocessed.smi:1643|AV-procd|sdf|6572|dock3
  -GOLD-   22720 7253D 1   1.00000     0.00000
 Structure written by MMmdl.
 54 56  0  0  0  0  0  0  0  0  2 V2000
  151.0677  141.0030  157.8113 C   0  0  0  0  0  0  0  0  0  0  0  0
  151.9696  140.0481  157.0246 C   0  0  0  0  0  0  0  0  0  0  0  0
  152.9398  139.5601  157.6044 O   0  0  0  0  0  0  0  0  0  0  0  0
  151.6696  139.7641  155.7330 N   0  0  0  0  0  0  0  0  0  0  0  0
  150.5626  140.4399  155.0401 C   0  0  0  0  0  0  0  0  0  0  0  0
  149.2945  139.5605  154.9616 C   0  0  0  0  0  0  0  0  0  0  0  0
  149.4929  138.0607  155.2779 C   0  0  0  0  0  0  0  0  0  0  0  0
  150.3786  137.3227  154.3302 N   0  3  2  0  0  0  0  0  0  0  0  0
  150.7389  135.9627  154.8168 C   0  0  0  0  0  0  0  0  0  0  0  0
  149.5483  134.9815  154.8467 C   0  0  2  0  0  0  0  0  0  0  0  0
  149.0146  134.9986  156.1553 O   0  0  0  0  0  0  0  0  0  0  0  0
  149.9487  133.5383  154.4770 C   0  0  0  0  0  0  0  0  0  0  0  0
  148.9047  132.8434  153.7453 N   0  0  0  0  0  0  0  0  0  0  0  0
  147.8293  133.3942  153.1501 C   0  0  0  0  0  0  0  0  0  0  0  0
  146.9875  132.5719  152.5316 N   0  0  0  0  0  0  0  0  0  0  0  0
  147.5872  131.3431  152.7485 C   0  0  0  0  0  0  0  0  0  0  0  0
  147.1931  130.0474  152.3494 C   0  0  0  0  0  0  0  0  0  0  0  0
  147.9693  128.9169  152.6900 C   0  0  0  0  0  0  0  0  0  0  0  0
  147.5072  127.5413  152.2417 C   0  0  0  0  0  0  0  0  0  0  0  0
  149.1617  129.0737  153.4414 C   0  0  0  0  0  0  0  0  0  0  0  0
  150.0115  127.8733  153.8189 C   0  0  0  0  0  0  0  0  0  0  0  0
  149.5701  130.3613  153.8478 C   0  0  0  0  0  0  0  0  0  0  0  0
  148.7889  131.4784  153.5034 C   0  0  0  0  0  0  0  0  0  0  0  0
  151.5671  138.0726  153.8282 C   0  0  0  0  0  0  0  0  0  0  0  0
  152.4108  138.7801  154.9214 C   0  0  0  0  0  0  0  0  0  0  0  0
  150.0189  140.7206  157.7160 H   0  0  0  0  0  0  0  0  0  0  0  0
  151.1932  142.0278  157.4614 H   0  0  0  0  0  0  0  0  0  0  0  0
  151.3201  140.9805  158.8721 H   0  0  0  0  0  0  0  0  0  0  0  0
  150.3128  141.3964  155.5022 H   0  0  0  0  0  0  0  0  0  0  0  0
  150.8909  140.7216  154.0394 H   0  0  0  0  0  0  0  0  0  0  0  0
  148.5693  139.9521  155.6759 H   0  0  0  0  0  0  0  0  0  0  0  0
  148.8293  139.6776  153.9821 H   0  0  0  0  0  0  0  0  0  0  0  0
  149.8599  137.9425  156.2986 H   0  0  0  0  0  0  0  0  0  0  0  0
  148.5113  137.5880  155.2633 H   0  0  0  0  0  0  0  0  0  0  0  0
  151.5112  135.5354  154.1755 H   0  0  0  0  0  0  0  0  0  0  0  0
  151.1829  136.0485  155.8102 H   0  0  0  0  0  0  0  0  0  0  0  0
  148.7555  135.3256  154.1832 H   0  0  0  0  0  0  0  0  0  0  0  0
  148.1172  135.2937  156.1116 H   0  0  0  0  0  0  0  0  0  0  0  0
  150.8474  133.5391  153.8594 H   0  0  0  0  0  0  0  0  0  0  0  0
  150.1892  132.9645  155.3730 H   0  0  0  0  0  0  0  0  0  0  0  0
  147.6529  134.4598  153.1745 H   0  0  0  0  0  0  0  0  0  0  0  0
  146.2844  129.9285  151.7778 H   0  0  0  0  0  0  0  0  0  0  0  0
  148.2575  127.0752  151.6027 H   0  0  0  0  0  0  0  0  0  0  0  0
  146.5757  127.5983  151.6777 H   0  0  0  0  0  0  0  0  0  0  0  0
  147.3365  126.8961  153.1039 H   0  0  0  0  0  0  0  0  0  0  0  0
  150.8790  128.1700  154.4090 H   0  0  0  0  0  0  0  0  0  0  0  0
  150.3730  127.3649  152.9248 H   0  0  0  0  0  0  0  0  0  0  0  0
  149.4317  127.1647  154.4107 H   0  0  0  0  0  0  0  0  0  0  0  0
  150.4750  130.4939  154.4222 H   0  0  0  0  0  0  0  0  0  0  0  0
  152.2135  137.3978  153.2660 H   0  0  0  0  0  0  0  0  0  0  0  0
  151.2285  138.7847  153.0765 H   0  0  0  0  0  0  0  0  0  0  0  0
  153.2514  139.2932  154.4527 H   0  0  0  0  0  0  0  0  0  0  0  0
  152.8416  137.9988  155.5472 H   0  0  0  0  0  0  0  0  0  0  0  0
  149.8206  137.1662  153.5030 H   0  0  0  0  0  0  0  0  0  0  0  0
  1  2  1  0  0  0  0
  1 26  1  0  0  0  0
  1 27  1  0  0  0  0
  1 28  1  0  0  0  0
  2  3  2  0  0  0  0
  2  4  1  0  0  0  0
  4 25  1  0  0  0  0
  4  5  1  0  0  0  0
  5  6  1  0  0  0  0
  5 29  1  0  0  0  0
  5 30  1  0  0  0  0
  6  7  1  0  0  0  0
  6 31  1  0  0  0  0
  6 32  1  0  0  0  0
  7  8  1  0  0  0  0
  7 33  1  0  0  0  0
  7 34  1  0  0  0  0
  8  9  1  0  0  0  0
  8 24  1  0  0  0  0
  8 54  1  0  0  0  0
  9 10  1  0  0  0  0
  9 35  1  0  0  0  0
  9 36  1  0  0  0  0
 10 11  1  0  0  0  0
 10 12  1  0  0  0  0
 10 37  1  0  0  0  0
 11 38  1  0  0  0  0
 12 13  1  0  0  0  0
 12 39  1  0  0  0  0
 12 40  1  0  0  0  0
 13 23  1  0  0  0  0
 13 14  1  0  0  0  0
 14 15  2  0  0  0  0
 14 41  1  0  0  0  0
 15 16  1  0  0  0  0
 16 23  2  0  0  0  0
 16 17  1  0  0  0  0
 17 18  2  0  0  0  0
 17 42  1  0  0  0  0
 18 19  1  0  0  0  0
 18 20  1  0  0  0  0
 19 43  1  0  0  0  0
 19 44  1  0  0  0  0
 19 45  1  0  0  0  0
 20 21  1  0  0  0  0
 20 22  2  0  0  0  0
 21 46  1  0  0  0  0
 21 47  1  0  0  0  0
 21 48  1  0  0  0  0
 22 23  1  0  0  0  0
 22 49  1  0  0  0  0
 24 25  1  0  0  0  0
 24 50  1  0  0  0  0
 24 51  1  0  0  0  0
 25 52  1  0  0  0  0
 25 53  1  0  0  0  0
M  CHG  1   8   1
M  END
> <s_m_source_file>
AV-unprocessed.smi

> <i_m_source_file_index>
1643

> <i_lp_mmshare_version>
43012

> <i_f3d_flags>
0

> <s_epik_input>
W0NIM11DKD1PKU4xW0NIMl1bQ0gyXVtDSDJdTihbQ0gyXVtDSDJdMSlbQ0gyXVtDQEhdKFtPSF0pW0NIMl1uKFtjSF1uMiljKGMyMylbY0hdYyhbQ0gzXSljKFtjSF0zKVtDSDNd

> <s_epik_cmdline>
J2VwaWtfcHl0aG9uJywgJy1waCcsICc3LjAnLCAnLXRuJywgJzgnLCAnLW1hJywgJzIwMCcsICctbWV0YWxfYmluZGluZycsICctaW1hZScsICc8aW5maWxlLm1hZT4nLCAnLW9tYWUnLCAnPG91dGZpbGUubWFlPic=

> <r_epik_Ionization_Penalty>
0.189467

> <r_epik_Ionization_Penalty_Charging>
0.101761

> <r_epik_Ionization_Penalty_Neutral>
0.0877056

> <r_epik_State_Penalty>
0.170758

> <r_epik_Charging_Adjusted_Penalty>
0.272519

> <i_epik_Tot_Q>
1

> <i_epik_Tot_abs_Q>
1

> <r_epik_Metal_State_Penalty>
0.0948013

> <b_epik_Metal_Only>
0

> <s_lp_Force_Field>
OPLS_2005

> <r_lp_Energy>
49.989

> <b_lp_Chiralities_Consistent>
1

> <s_lp_Variant>
AV-unprocessed.smi:1643-1

> <Gold.Version>
5.8.1

> <Gold.Id.Protein>
6NUR|6NUR_protein|mol2

> <Gold.PLP.Fitness>
50.4917

> <Gold.PLP.PLP>
-41.0534

> <Gold.PLP.part.hbond>
-2.3505

> <Gold.PLP.part.metal>
0.0000

> <Gold.PLP.part.buried>
1.5312

> <Gold.PLP.part.nonpolar>
-40.0057

> <Gold.PLP.part.repulsive>
0.1830

> <Gold.PLP.ligand.clash>
0.0000

> <Gold.PLP.ligand.torsion>
1.2707

> <Gold.PLP.Chemscore.Hbond>
3.0000

> <Gold.PLP.Chemscore.CHOScore>
0.9591

> <Gold.PLP.Chemscore.Metal>
0.0000

> <Gold.Chemscore.Hbonds>
donor molecule, donor type, donor heavy atom, donor atom, acceptor molecule, acceptor atom, score
      L1  H     8    54       P1  7948  1.95
      P1  H  7997  8010       L1     3  1.00
      L1  C    14    41       P1  7948  0.90

> <Gold.PLP.Chemscore.Internal.Correction>
0.1023

> <Gold.Rescore>
     Score         DG    S(hbond)    S(metal)    S(lipo)     H(rot)  DE(clash)    DE(int)     intcor
     15.18     -17.81       1.85        0.00      98.90       2.12       1.47       1.16       ----

> <Gold.Chemscore.Fitness>
15.1798

> <Gold.Chemscore.DG>
-17.8052

> <Gold.Chemscore.ZeroCoef>
-5.4800

> <Gold.Chemscore.Hbond>
1.8491

> <Gold.Chemscore.Metal>
0.0000

> <Gold.Chemscore.Lipo>
98.8956

> <Gold.Chemscore.Internal_Hbond>
0.0000

> <Gold.Chemscore.DEClash>
1.4654

> <Gold.Chemscore.DEInternal>
1.1599

> <Gold.Chemscore.Rot>
2.1178

> <Gold.Chemscore.Internal.Correction>
   9.000000E+99

> <Gold.Chemscore.Hbonds>
donor molecule, donor type, donor heavy atom, donor atom, acceptor molecule, acceptor atom, score
      L1  H     8    54       P1  7948  0.50
      P1  H  7997  8010       L1     3  0.38

> <Gold.Chemscore.Hbond.Weighted>
-6.1759

> <Gold.Chemscore.Metal.Weighted>
-0.0000

> <Gold.Chemscore.Lipo.Weighted>
-11.5708

> <Gold.Chemscore.Internal_Hbond.Weighted>
0.0000

> <Gold.Chemscore.DEClash.Weighted>
1.4654

> <Gold.Chemscore.DEInternal.Weighted>
1.1599

> <Gold.Chemscore.Rot.Weighted>
5.4215

> <Gold.Chemscore.Internal.Correction.Weighted>
   9.000000E+99

> <Gold.Protein.RotatedTorsions>
[ 6907 6896 6895 6894 ] final  -35.06 input  -60.11 | X-H torsion
[ 7974 7965 7964 7962 ] final   -3.33 input  175.53 | X-H torsion
[ 8008 7997 7996 7995 ] final   65.99 input   59.86 | X-H torsion
[ 10167 10162 10161 10158 ] final  -85.21 input  -65.29 | X-H torsion
[ 10718 10713 10712 10709 ] final  -95.77 input   66.30 | X-H torsion
[ 10763 10752 10751 10750 ] final   30.08 input  -60.55 | X-H torsion
[ 11005 11000 10999 10996 ] final   36.39 input  -57.11 | X-H torsion

> <Gold.Protein.ActiveResidues>
 VAL166  LYS551  ARG553  GLY616  TRP617  ASP618  TYR619  PRO620  LYS621  CYS622 
 ASP623  PHE694  ASN695  SER759  ASP760  ASP761  ALA762  ILE779  LEU786  VAL792 
 PHE793  MET794  SER795  GLU796  ALA797  LYS798  CYS799  TRP800  GLU811  SER814 

> <Gold.Protein.RotatedAtoms>
  151.0447  134.9631  159.8179 H   0  0  0  0  0  0  0  0  0  0  0  0  # atno 6907 bound_to 6896
  152.5370  134.2614  159.8946 H   0  0  0  0  0  0  0  0  0  0  0  0  # atno 6908 bound_to 6896
  151.2627  133.4251  159.2651 H   0  0  0  0  0  0  0  0  0  0  0  0  # atno 6909 bound_to 6896
  146.2391  140.1705  142.8332 H   0  0  0  0  0  0  0  0  0  0  0  0  # atno 7974 bound_to 7965
  155.6703  140.3497  155.4816 H   0  0  0  0  0  0  0  0  0  0  0  0  # atno 8008 bound_to 7997
  155.9693  140.1152  157.0849 H   0  0  0  0  0  0  0  0  0  0  0  0  # atno 8009 bound_to 7997
  154.4162  140.1160  156.5271 H   0  0  0  0  0  0  0  0  0  0  0  0  # atno 8010 bound_to 7997
  140.4059  143.2643  151.9082 H   0  0  0  0  0  0  0  0  0  0  0  0  # atno 10167 bound_to 10162
  156.0049  130.5123  150.6126 H   0  0  0  0  0  0  0  0  0  0  0  0  # atno 10718 bound_to 10713
  153.0392  135.6473  154.0989 H   0  0  0  0  0  0  0  0  0  0  0  0  # atno 10763 bound_to 10752
  154.0698  135.2881  155.3311 H   0  0  0  0  0  0  0  0  0  0  0  0  # atno 10764 bound_to 10752
  154.6601  135.5394  153.8072 H   0  0  0  0  0  0  0  0  0  0  0  0  # atno 10765 bound_to 10752
  140.2331  134.3504  155.7956 H   0  0  0  0  0  0  0  0  0  0  0  0  # atno 11005 bound_to 11000
  145.0016  140.8636  143.5278 LP  0  0  0  0  0  0  0  0  0  0  0  0  # atno 17320 bound_to 7965
  145.1725  139.2396  143.5335 LP  0  0  0  0  0  0  0  0  0  0  0  0  # atno 17321 bound_to 7965
  139.4783  144.5586  151.8274 LP  0  0  0  0  0  0  0  0  0  0  0  0  # atno 17342 bound_to 10162
  140.4690  144.1614  150.5915 LP  0  0  0  0  0  0  0  0  0  0  0  0  # atno 17343 bound_to 10162
  157.3956  131.0802  151.1355 LP  0  0  0  0  0  0  0  0  0  0  0  0  # atno 17370 bound_to 10713
  157.2033  130.6404  149.5746 LP  0  0  0  0  0  0  0  0  0  0  0  0  # atno 17371 bound_to 10713
  141.2216  133.7256  156.8764 LP  0  0  0  0  0  0  0  0  0  0  0  0  # atno 17394 bound_to 11000
  140.1730  134.9087  157.2856 LP  0  0  0  0  0  0  0  0  0  0  0  0  # atno 17395 bound_to 11000

$$$$
