AV-unprocessed.smi:500|AV-procd|sdf|2740|dock6
  -GOLD-   2262023203D 1   1.00000     0.00000
 Structure written by MMmdl.
 45 47  0  0  0  0  0  0  0  0  3 V2000
  148.4993  138.5180  154.8301 C   0  0  0  0  0  0  0  0  0  0  0  0
  149.8852  138.4805  155.4780 C   0  0  0  0  0  0  0  0  0  0  0  0
  150.4311  139.7911  155.4637 O   0  0  0  0  0  0  0  0  0  0  0  0
  151.2037  140.1161  156.6108 C   0  0  0  0  0  0  0  0  0  0  0  0
  150.4766  141.1154  157.5268 C   0  0  0  0  0  0  0  0  0  0  0  0
  151.2786  141.4373  158.7229 N   0  0  0  0  0  0  0  0  0  0  0  0
  151.9936  140.6444  159.5853 C   0  0  0  0  0  0  0  0  0  0  0  0
  152.1653  139.1461  159.5616 C   0  0  2  0  0  0  0  0  0  0  0  0
  150.8000  138.4581  159.6930 C   0  0  0  0  0  0  0  0  0  0  0  0
  153.0447  138.6757  160.6338 N   0  5  0  0  0  0  0  0  0  0  0  0
  152.8724  137.5000  161.3029 C   0  0  0  0  0  0  0  0  0  0  0  0
  152.3197  136.4582  160.9331 O   0  0  0  0  0  0  0  0  0  0  0  0
  153.4648  137.5324  162.6610 C   0  0  0  0  0  0  0  0  0  0  0  0
  153.2587  136.7025  163.7313 C   0  0  0  0  0  0  0  0  0  0  0  0
  154.0795  137.1829  164.7892 C   0  0  0  0  0  0  0  0  0  0  0  0
  154.7324  138.2735  164.2920 C   0  0  0  0  0  0  0  0  0  0  0  0
  154.3714  138.5003  163.0003 O   0  0  0  0  0  0  0  0  0  0  0  0
  152.5422  141.4729  160.5205 N   0  3  0  0  0  0  0  0  0  0  0  0
  152.2038  142.7969  160.2496 C   0  0  0  0  0  0  0  0  0  0  0  0
  152.5382  143.9750  160.9092 C   0  0  0  0  0  0  0  0  0  0  0  0
  152.0287  145.1715  160.3638 C   0  0  0  0  0  0  0  0  0  0  0  0
  151.2227  145.1652  159.2069 C   0  0  0  0  0  0  0  0  0  0  0  0
  150.8906  143.9632  158.5478 C   0  0  0  0  0  0  0  0  0  0  0  0
  151.3963  142.7834  159.0951 C   0  0  0  0  0  0  0  0  0  0  0  0
  148.0461  137.5265  154.8221 H   0  0  0  0  0  0  0  0  0  0  0  0
  148.5586  138.8674  153.7991 H   0  0  0  0  0  0  0  0  0  0  0  0
  147.8314  139.1871  155.3732 H   0  0  0  0  0  0  0  0  0  0  0  0
  149.8027  138.1163  156.5030 H   0  0  0  0  0  0  0  0  0  0  0  0
  150.5243  137.7875  154.9312 H   0  0  0  0  0  0  0  0  0  0  0  0
  151.3713  139.1897  157.1614 H   0  0  0  0  0  0  0  0  0  0  0  0
  152.1894  140.4846  156.3225 H   0  0  0  0  0  0  0  0  0  0  0  0
  150.2374  142.0438  157.0094 H   0  0  0  0  0  0  0  0  0  0  0  0
  149.5209  140.7031  157.8505 H   0  0  0  0  0  0  0  0  0  0  0  0
  152.5702  138.8781  158.5848 H   0  0  0  0  0  0  0  0  0  0  0  0
  150.1320  138.7627  158.8869 H   0  0  0  0  0  0  0  0  0  0  0  0
  150.3153  138.7071  160.6380 H   0  0  0  0  0  0  0  0  0  0  0  0
  150.8982  137.3731  159.6441 H   0  0  0  0  0  0  0  0  0  0  0  0
  152.5947  135.8508  163.7497 H   0  0  0  0  0  0  0  0  0  0  0  0
  154.1791  136.7813  165.7867 H   0  0  0  0  0  0  0  0  0  0  0  0
  155.4512  138.9691  164.6991 H   0  0  0  0  0  0  0  0  0  0  0  0
  153.1589  143.9795  161.7930 H   0  0  0  0  0  0  0  0  0  0  0  0
  152.2629  146.1120  160.8409 H   0  0  0  0  0  0  0  0  0  0  0  0
  150.8520  146.1015  158.8160 H   0  0  0  0  0  0  0  0  0  0  0  0
  150.2763  143.9716  157.6597 H   0  0  0  0  0  0  0  0  0  0  0  0
  153.1264  141.1384  161.2762 H   0  0  0  0  0  0  0  0  0  0  0  0
  1  2  1  0  0  0  0
  1 25  1  0  0  0  0
  1 26  1  0  0  0  0
  1 27  1  0  0  0  0
  2  3  1  0  0  0  0
  2 28  1  0  0  0  0
  2 29  1  0  0  0  0
  3  4  1  0  0  0  0
  4  5  1  0  0  0  0
  4 30  1  0  0  0  0
  4 31  1  0  0  0  0
  5  6  1  0  0  0  0
  5 32  1  0  0  0  0
  5 33  1  0  0  0  0
  6 24  1  0  0  0  0
  6  7  1  0  0  0  0
  7  8  1  0  0  0  0
  7 18  2  0  0  0  0
  8  9  1  0  0  0  0
  8 10  1  0  0  0  0
  8 34  1  0  0  0  0
  9 35  1  0  0  0  0
  9 36  1  0  0  0  0
  9 37  1  0  0  0  0
 10 11  1  0  0  0  0
 11 12  2  0  0  0  0
 11 13  1  0  0  0  0
 13 17  1  0  0  0  0
 13 14  2  0  0  0  0
 14 15  1  0  0  0  0
 14 38  1  0  0  0  0
 15 16  2  0  0  0  0
 15 39  1  0  0  0  0
 16 17  1  0  0  0  0
 16 40  1  0  0  0  0
 18 19  1  0  0  0  0
 18 45  1  0  0  0  0
 19 24  2  0  0  0  0
 19 20  1  0  0  0  0
 20 21  2  0  0  0  0
 20 41  1  0  0  0  0
 21 22  1  0  0  0  0
 21 42  1  0  0  0  0
 22 23  2  0  0  0  0
 22 43  1  0  0  0  0
 23 24  1  0  0  0  0
 23 44  1  0  0  0  0
M  CHG  1  10  -1
M  CHG  1  18   1
M  END
> <s_m_source_file>
AV-unprocessed.smi

> <i_m_source_file_index>
500

> <i_lp_mmshare_version>
43012

> <i_f3d_flags>
0

> <s_epik_input>
W0NIM11bQ0gyXU9bQ0gyXVtDSDJdbihjKGMxMilbY0hdW2NIXVtjSF1bY0hdMiljKG4xKVtDQEhdKFtDSDNdKVtOSF1DKD1PKWMzW2NIXVtjSF1bY0hdbzM=

> <s_epik_cmdline>
J2VwaWtfcHl0aG9uJywgJy1waCcsICc3LjAnLCAnLXRuJywgJzgnLCAnLW1hJywgJzIwMCcsICctbWV0YWxfYmluZGluZycsICctaW1hZScsICc8aW5maWxlLm1hZT4nLCAnLW9tYWUnLCAnPG91dGZpbGUubWFlPic=

> <r_epik_Ionization_Penalty>
6.22753

> <r_epik_Ionization_Penalty_Charging>
6.22753

> <r_epik_Ionization_Penalty_Neutral>
2.56065e-12

> <r_epik_State_Penalty>
7.17947

> <r_epik_Charging_Adjusted_Penalty>
13.407

> <i_epik_Tot_Q>
0

> <i_epik_Tot_abs_Q>
2

> <r_epik_Metal_State_Penalty>
3.2092

> <b_epik_Metal_Only>
1

> <s_lp_Force_Field>
OPLS_2005

> <r_lp_Energy>
11.6209

> <b_lp_Chiralities_Consistent>
1

> <s_lp_Variant>
AV-unprocessed.smi:500-7

> <Gold.Version>
5.8.1

> <Gold.Id.Protein>
6NUR|6NUR_protein|mol2

> <Gold.PLP.Fitness>
56.9001

> <Gold.PLP.PLP>
-53.3631

> <Gold.PLP.part.hbond>
-2.0000

> <Gold.PLP.part.metal>
0.0000

> <Gold.PLP.part.buried>
-8.6786

> <Gold.PLP.part.nonpolar>
-41.9638

> <Gold.PLP.part.repulsive>
0.1503

> <Gold.PLP.ligand.clash>
0.0000

> <Gold.PLP.ligand.torsion>
1.3649

> <Gold.PLP.Chemscore.Hbond>
2.0000

> <Gold.PLP.Chemscore.CHOScore>
0.0000

> <Gold.PLP.Chemscore.Metal>
0.0000

> <Gold.Chemscore.Hbonds>
donor molecule, donor type, donor heavy atom, donor atom, acceptor molecule, acceptor atom, score
      P1  H  6896  6908       L1    12  0.72

> <Gold.PLP.Chemscore.Internal.Correction>
0.2668

> <Gold.Rescore>
     Score         DG    S(hbond)    S(metal)    S(lipo)     H(rot)  DE(clash)    DE(int)     intcor
     18.47     -22.73       1.97        0.00     132.71       1.90       0.20       4.05       ----

> <Gold.Chemscore.Fitness>
18.4745

> <Gold.Chemscore.DG>
-22.7279

> <Gold.Chemscore.ZeroCoef>
-5.4800

> <Gold.Chemscore.Hbond>
1.9711

> <Gold.Chemscore.Metal>
0.0000

> <Gold.Chemscore.Lipo>
132.7058

> <Gold.Chemscore.Internal_Hbond>
0.0000

> <Gold.Chemscore.DEClash>
0.2010

> <Gold.Chemscore.DEInternal>
4.0524

> <Gold.Chemscore.Rot>
1.8993

> <Gold.Chemscore.Internal.Correction>
   9.000000E+99

> <Gold.Chemscore.Hbonds>
donor molecule, donor type, donor heavy atom, donor atom, acceptor molecule, acceptor atom, score
      P1  H  6896  6908       L1    12  0.72

> <Gold.Chemscore.Hbond.Weighted>
-6.5836

> <Gold.Chemscore.Metal.Weighted>
-0.0000

> <Gold.Chemscore.Lipo.Weighted>
-15.5266

> <Gold.Chemscore.Internal_Hbond.Weighted>
0.0000

> <Gold.Chemscore.DEClash.Weighted>
0.2010

> <Gold.Chemscore.DEInternal.Weighted>
4.0524

> <Gold.Chemscore.Rot.Weighted>
4.8622

> <Gold.Chemscore.Internal.Correction.Weighted>
   9.000000E+99

> <Gold.Protein.RotatedTorsions>
[ 6907 6896 6895 6894 ] final  -76.67 input  -60.11 | X-H torsion
[ 7974 7965 7964 7962 ] final -104.58 input  175.53 | X-H torsion
[ 8008 7997 7996 7995 ] final  115.76 input   59.86 | X-H torsion
[ 10167 10162 10161 10158 ] final  173.62 input  -65.29 | X-H torsion
[ 10718 10713 10712 10709 ] final   97.17 input   66.30 | X-H torsion
[ 10763 10752 10751 10750 ] final -113.98 input  -60.55 | X-H torsion
[ 11005 11000 10999 10996 ] final   68.08 input  -57.11 | X-H torsion

> <Gold.Protein.ActiveResidues>
 VAL166  LYS551  ARG553  GLY616  TRP617  ASP618  TYR619  PRO620  LYS621  CYS622 
 ASP623  PHE694  ASN695  SER759  ASP760  ASP761  ALA762  ILE779  LEU786  VAL792 
 PHE793  MET794  SER795  GLU796  ALA797  LYS798  CYS799  TRP800  GLU811  SER814 

> <Gold.Protein.RotatedAtoms>
  150.7020  134.4537  159.5348 H   0  0  0  0  0  0  0  0  0  0  0  0  # atno 6907 bound_to 6896
  152.2225  134.8396  160.0493 H   0  0  0  0  0  0  0  0  0  0  0  0  # atno 6908 bound_to 6896
  151.9242  133.3558  159.3944 H   0  0  0  0  0  0  0  0  0  0  0  0  # atno 6909 bound_to 6896
  145.2413  140.9206  143.3148 H   0  0  0  0  0  0  0  0  0  0  0  0  # atno 7974 bound_to 7965
  156.2400  140.2932  156.0418 H   0  0  0  0  0  0  0  0  0  0  0  0  # atno 8008 bound_to 7997
  155.1979  140.0408  157.2929 H   0  0  0  0  0  0  0  0  0  0  0  0  # atno 8009 bound_to 7997
  154.6150  140.2461  155.7627 H   0  0  0  0  0  0  0  0  0  0  0  0  # atno 8010 bound_to 7997
  139.5114  144.3240  152.0175 H   0  0  0  0  0  0  0  0  0  0  0  0  # atno 10167 bound_to 10162
  157.6916  131.0601  150.4603 H   0  0  0  0  0  0  0  0  0  0  0  0  # atno 10718 bound_to 10713
  154.8420  135.4434  154.1433 H   0  0  0  0  0  0  0  0  0  0  0  0  # atno 10763 bound_to 10752
  153.2613  135.6936  153.7582 H   0  0  0  0  0  0  0  0  0  0  0  0  # atno 10764 bound_to 10752
  153.6857  135.3395  155.3165 H   0  0  0  0  0  0  0  0  0  0  0  0  # atno 10765 bound_to 10752
  139.9732  134.6865  156.0405 H   0  0  0  0  0  0  0  0  0  0  0  0  # atno 11005 bound_to 11000
  144.9586  139.4004  143.6367 LP  0  0  0  0  0  0  0  0  0  0  0  0  # atno 17320 bound_to 7965
  146.3327  139.8629  142.8853 LP  0  0  0  0  0  0  0  0  0  0  0  0  # atno 17321 bound_to 7965
  140.2681  144.3994  150.6161 LP  0  0  0  0  0  0  0  0  0  0  0  0  # atno 17342 bound_to 10162
  140.6108  143.2169  151.6889 LP  0  0  0  0  0  0  0  0  0  0  0  0  # atno 17343 bound_to 10162
  156.4948  130.4103  149.6386 LP  0  0  0  0  0  0  0  0  0  0  0  0  # atno 17370 bound_to 10713
  156.3383  130.7368  151.2309 LP  0  0  0  0  0  0  0  0  0  0  0  0  # atno 17371 bound_to 10713
  141.1411  133.6564  156.3732 LP  0  0  0  0  0  0  0  0  0  0  0  0  # atno 17394 bound_to 11000
  140.5249  134.6269  157.5330 LP  0  0  0  0  0  0  0  0  0  0  0  0  # atno 17395 bound_to 11000

$$$$
