AV-unprocessed.smi:2175|AV-procd|sdf|8843|dock1
  -GOLD-   2272012 33D 1   1.00000     0.00000
 Structure written by MMmdl.
 34 35  0  0  0  0  0  0  0  0  1 V2000
  146.4770  137.6916  152.4944 C   0  0  0  0  0  0  0  0  0  0  0  0
  147.1661  138.8712  153.1470 C   0  0  0  0  0  0  0  0  0  0  0  0
  146.5503  139.9339  153.5493 N   0  0  0  0  0  0  0  0  0  0  0  0
  147.2973  140.9628  154.1400 C   0  0  0  0  0  0  0  0  0  0  0  0
  146.5024  142.1774  154.5879 C   0  0  0  0  0  0  0  0  0  0  0  0
  148.6499  140.8655  154.2980 C   0  0  0  0  0  0  0  0  0  0  0  0
  149.4900  141.9699  154.9376 C   0  0  0  0  0  0  0  0  0  0  0  0
  150.0066  141.6770  156.3485 C   0  0  0  0  0  0  0  0  0  0  0  0
  150.4148  140.5520  156.6378 O   0  0  0  0  0  0  0  0  0  0  0  0
  149.9852  142.6996  157.2165 N   0  0  0  0  0  0  0  0  0  0  0  0
  150.4272  142.6287  158.6030 C   0  0  0  0  0  0  0  0  0  0  0  0
  151.6594  143.4535  158.9223 C   0  0  0  0  0  0  0  0  0  0  0  0
  151.5362  144.8521  159.4798 C   0  0  0  0  0  0  0  0  0  0  0  0
  152.0269  144.6434  158.0671 C   0  0  0  0  0  0  0  0  0  0  0  0
  149.3429  139.6480  153.8339 C   0  0  0  0  0  0  0  0  0  0  0  0
  150.5551  139.4582  153.9218 O   0  0  0  0  0  0  0  0  0  0  0  0
  148.5442  138.7092  153.2786 N   0  0  0  0  0  0  0  0  0  0  0  0
  148.9710  137.8574  152.9447 H   0  0  0  0  0  0  0  0  0  0  0  0
  145.9684  138.0110  151.5845 H   0  0  0  0  0  0  0  0  0  0  0  0
  145.7346  137.2693  153.1719 H   0  0  0  0  0  0  0  0  0  0  0  0
  147.1855  136.9049  152.2313 H   0  0  0  0  0  0  0  0  0  0  0  0
  146.5707  142.3018  155.6686 H   0  0  0  0  0  0  0  0  0  0  0  0
  145.4474  142.0778  154.3293 H   0  0  0  0  0  0  0  0  0  0  0  0
  146.8779  143.0814  154.1086 H   0  0  0  0  0  0  0  0  0  0  0  0
  150.3379  142.1791  154.2845 H   0  0  0  0  0  0  0  0  0  0  0  0
  148.9311  142.9057  154.9705 H   0  0  0  0  0  0  0  0  0  0  0  0
  149.6332  143.5895  156.8942 H   0  0  0  0  0  0  0  0  0  0  0  0
  149.6163  142.9423  159.2624 H   0  0  0  0  0  0  0  0  0  0  0  0
  150.6245  141.5831  158.8415 H   0  0  0  0  0  0  0  0  0  0  0  0
  152.5002  142.8647  159.2846 H   0  0  0  0  0  0  0  0  0  0  0  0
  150.5360  145.2610  159.6089 H   0  0  0  0  0  0  0  0  0  0  0  0
  152.2655  145.1590  160.2266 H   0  0  0  0  0  0  0  0  0  0  0  0
  153.0834  144.8150  157.8719 H   0  0  0  0  0  0  0  0  0  0  0  0
  151.3528  144.9135  157.2566 H   0  0  0  0  0  0  0  0  0  0  0  0
  1  2  1  0  0  0  0
  1 19  1  0  0  0  0
  1 20  1  0  0  0  0
  1 21  1  0  0  0  0
  2 17  1  0  0  0  0
  2  3  2  0  0  0  0
  3  4  1  0  0  0  0
  4  5  1  0  0  0  0
  4  6  2  0  0  0  0
  5 22  1  0  0  0  0
  5 23  1  0  0  0  0
  5 24  1  0  0  0  0
  6  7  1  0  0  0  0
  6 15  1  0  0  0  0
  7  8  1  0  0  0  0
  7 25  1  0  0  0  0
  7 26  1  0  0  0  0
  8  9  2  0  0  0  0
  8 10  1  0  0  0  0
 10 11  1  0  0  0  0
 10 27  1  0  0  0  0
 11 12  1  0  0  0  0
 11 28  1  0  0  0  0
 11 29  1  0  0  0  0
 12 14  1  0  0  0  0
 12 13  1  0  0  0  0
 12 30  1  0  0  0  0
 13 14  1  0  0  0  0
 13 31  1  0  0  0  0
 13 32  1  0  0  0  0
 14 33  1  0  0  0  0
 14 34  1  0  0  0  0
 15 16  2  0  0  0  0
 15 17  1  0  0  0  0
 17 18  1  0  0  0  0
M  END
> <s_m_source_file>
AV-unprocessed.smi

> <i_m_source_file_index>
2175

> <i_lp_mmshare_version>
43012

> <i_f3d_flags>
0

> <s_epik_input>
W0NIM11jMW5jKFtDSDNdKWMoYyg9TylbbkhdMSlbQ0gyXUMoPU8pW05IXVtDSDJdW0NIXTJbQ0gyXVtDSDJdMg==

> <s_epik_cmdline>
J2VwaWtfcHl0aG9uJywgJy1waCcsICc3LjAnLCAnLXRuJywgJzgnLCAnLW1hJywgJzIwMCcsICctbWV0YWxfYmluZGluZycsICctaW1hZScsICc8aW5maWxlLm1hZT4nLCAnLW9tYWUnLCAnPG91dGZpbGUubWFlPic=

> <r_lp_tautomer_probability>
0.839158

> <r_epik_Ionization_Penalty>
0.000395354

> <r_epik_Ionization_Penalty_Charging>
0.00036358

> <r_epik_Ionization_Penalty_Neutral>
3.17744e-05

> <r_epik_State_Penalty>
0.047122

> <r_epik_Charging_Adjusted_Penalty>
0.0474856

> <i_epik_Tot_Q>
0

> <i_epik_Tot_abs_Q>
0

> <r_epik_Metal_State_Penalty>
0.225273

> <b_epik_Metal_Only>
0

> <s_lp_Force_Field>
OPLS_2005

> <r_lp_Energy>
14.3429

> <b_lp_Chiralities_Consistent>
1

> <s_lp_Variant>
AV-unprocessed.smi:2175-1

> <Gold.Version>
5.8.1

> <Gold.Id.Protein>
6NUR|6NUR_protein|mol2

> <Gold.PLP.Fitness>
42.7867

> <Gold.PLP.PLP>
-35.1414

> <Gold.PLP.part.hbond>
-4.0000

> <Gold.PLP.part.metal>
0.0000

> <Gold.PLP.part.buried>
2.1808

> <Gold.PLP.part.nonpolar>
-33.3687

> <Gold.PLP.part.repulsive>
0.4435

> <Gold.PLP.ligand.clash>
0.0000

> <Gold.PLP.ligand.torsion>
0.9382

> <Gold.PLP.Chemscore.Hbond>
2.9920

> <Gold.PLP.Chemscore.CHOScore>
0.0000

> <Gold.PLP.Chemscore.Metal>
0.0000

> <Gold.Chemscore.Hbonds>
donor molecule, donor type, donor heavy atom, donor atom, acceptor molecule, acceptor atom, score
      L1  H    10    27       P1  8028  1.00
      L1  H    17    18       P1  7948  1.00
      P1  H  7989  7998       L1    16  1.00

> <Gold.PLP.Chemscore.Internal.Correction>
0.5457

> <Gold.Rescore>
     Score         DG    S(hbond)    S(metal)    S(lipo)     H(rot)  DE(clash)    DE(int)     intcor
     16.89     -18.12       2.47        0.00      75.73       1.75       0.33       0.91       ----

> <Gold.Chemscore.Fitness>
16.8864

> <Gold.Chemscore.DG>
-18.1235

> <Gold.Chemscore.ZeroCoef>
-5.4800

> <Gold.Chemscore.Hbond>
2.4738

> <Gold.Chemscore.Metal>
0.0000

> <Gold.Chemscore.Lipo>
75.7282

> <Gold.Chemscore.Internal_Hbond>
0.0000

> <Gold.Chemscore.DEClash>
0.3252

> <Gold.Chemscore.DEInternal>
0.9118

> <Gold.Chemscore.Rot>
1.7497

> <Gold.Chemscore.Internal.Correction>
   9.000000E+99

> <Gold.Chemscore.Hbonds>
donor molecule, donor type, donor heavy atom, donor atom, acceptor molecule, acceptor atom, score
      L1  H    10    27       P1  8028  0.96
      L1  H    17    18       P1  7948  0.96
      P1  H  7989  7998       L1    16  0.91

> <Gold.Chemscore.Hbond.Weighted>
-8.2624

> <Gold.Chemscore.Metal.Weighted>
-0.0000

> <Gold.Chemscore.Lipo.Weighted>
-8.8602

> <Gold.Chemscore.Internal_Hbond.Weighted>
0.0000

> <Gold.Chemscore.DEClash.Weighted>
0.3252

> <Gold.Chemscore.DEInternal.Weighted>
0.9118

> <Gold.Chemscore.Rot.Weighted>
4.4791

> <Gold.Chemscore.Internal.Correction.Weighted>
   9.000000E+99

> <Gold.Protein.RotatedTorsions>
[ 6907 6896 6895 6894 ] final  -94.52 input  -60.11 | X-H torsion
[ 7974 7965 7964 7962 ] final  -61.05 input  175.53 | X-H torsion
[ 8008 7997 7996 7995 ] final -169.51 input   59.86 | X-H torsion
[ 10167 10162 10161 10158 ] final  172.68 input  -65.29 | X-H torsion
[ 10718 10713 10712 10709 ] final   78.02 input   66.30 | X-H torsion
[ 10763 10752 10751 10750 ] final  -88.74 input  -60.55 | X-H torsion
[ 11005 11000 10999 10996 ] final -131.33 input  -57.11 | X-H torsion

> <Gold.Protein.ActiveResidues>
 VAL166  LYS551  ARG553  GLY616  TRP617  ASP618  TYR619  PRO620  LYS621  CYS622 
 ASP623  PHE694  ASN695  SER759  ASP760  ASP761  ALA762  ILE779  LEU786  VAL792 
 PHE793  MET794  SER795  GLU796  ALA797  LYS798  CYS799  TRP800  GLU811  SER814 

> <Gold.Protein.RotatedAtoms>
  150.6944  134.1799  159.4244 H   0  0  0  0  0  0  0  0  0  0  0  0  # atno 6907 bound_to 6896
  151.9774  135.0044  160.0565 H   0  0  0  0  0  0  0  0  0  0  0  0  # atno 6908 bound_to 6896
  152.1786  133.4657  159.4983 H   0  0  0  0  0  0  0  0  0  0  0  0  # atno 6909 bound_to 6896
  145.8081  140.8615  143.0196 H   0  0  0  0  0  0  0  0  0  0  0  0  # atno 7974 bound_to 7965
  155.9059  140.1049  157.1315 H   0  0  0  0  0  0  0  0  0  0  0  0  # atno 8008 bound_to 7997
  154.4032  140.1283  156.4560 H   0  0  0  0  0  0  0  0  0  0  0  0  # atno 8009 bound_to 7997
  155.7367  140.3467  155.5087 H   0  0  0  0  0  0  0  0  0  0  0  0  # atno 8010 bound_to 7997
  139.5084  144.3347  152.0077 H   0  0  0  0  0  0  0  0  0  0  0  0  # atno 10167 bound_to 10162
  157.6730  130.9849  150.1725 H   0  0  0  0  0  0  0  0  0  0  0  0  # atno 10718 bound_to 10713
  154.6478  135.5366  153.7865 H   0  0  0  0  0  0  0  0  0  0  0  0  # atno 10763 bound_to 10752
  153.0369  135.6475  154.1063 H   0  0  0  0  0  0  0  0  0  0  0  0  # atno 10764 bound_to 10752
  154.0983  135.2935  155.3237 H   0  0  0  0  0  0  0  0  0  0  0  0  # atno 10765 bound_to 10752
  140.9268  134.1372  157.4268 H   0  0  0  0  0  0  0  0  0  0  0  0  # atno 11005 bound_to 11000
  144.6760  140.0356  143.7482 LP  0  0  0  0  0  0  0  0  0  0  0  0  # atno 17320 bound_to 7965
  145.9806  139.2938  143.1044 LP  0  0  0  0  0  0  0  0  0  0  0  0  # atno 17321 bound_to 7965
  140.2786  144.3885  150.6127 LP  0  0  0  0  0  0  0  0  0  0  0  0  # atno 17342 bound_to 10162
  140.6035  143.2167  151.7026 LP  0  0  0  0  0  0  0  0  0  0  0  0  # atno 17343 bound_to 10162
  156.2476  130.3697  149.8268 LP  0  0  0  0  0  0  0  0  0  0  0  0  # atno 17370 bound_to 10713
  156.6050  130.8562  151.3441 LP  0  0  0  0  0  0  0  0  0  0  0  0  # atno 17371 bound_to 10713
  139.8787  134.9991  156.5937 LP  0  0  0  0  0  0  0  0  0  0  0  0  # atno 17394 bound_to 11000
  140.7915  133.8578  155.8650 LP  0  0  0  0  0  0  0  0  0  0  0  0  # atno 17395 bound_to 11000

$$$$
