AV-unprocessed.smi:573|AV-procd|sdf|2973|dock1
  -GOLD-   2262023483D 1   1.00000     0.00000
 Structure written by MMmdl.
 44 46  0  0  0  0  0  0  0  0  1 V2000
  153.3827  136.4997  157.4486 C   0  0  0  0  0  0  0  0  0  0  0  0
  153.4146  137.1578  158.8337 C   0  0  2  0  0  0  0  0  0  0  0  0
  153.6599  136.1418  159.7841 O   0  0  0  0  0  0  0  0  0  0  0  0
  152.0790  137.8422  159.1723 C   0  0  0  0  0  0  0  0  0  0  0  0
  151.7971  138.9643  158.2946 N   0  0  0  0  0  0  0  0  0  0  0  0
  151.8865  140.3389  158.4812 C   0  0  0  0  0  0  0  0  0  0  0  0
  152.2886  140.9101  159.6152 N   0  0  0  0  0  0  0  0  0  0  0  0
  152.2144  142.2559  159.3080 C   0  0  0  0  0  0  0  0  0  0  0  0
  152.5103  143.3935  160.0926 C   0  0  0  0  0  0  0  0  0  0  0  0
  152.3607  144.6893  159.5568 C   0  0  0  0  0  0  0  0  0  0  0  0
  151.9154  144.8669  158.2308 C   0  0  0  0  0  0  0  0  0  0  0  0
  151.6129  143.7475  157.4317 C   0  0  0  0  0  0  0  0  0  0  0  0
  151.7608  142.4557  157.9716 C   0  0  0  0  0  0  0  0  0  0  0  0
  151.5531  141.1741  157.4690 N   0  0  0  0  0  0  0  0  0  0  0  0
  151.0840  140.8314  156.1337 C   0  0  0  0  0  0  0  0  0  0  0  0
  149.7707  141.5493  155.7812 C   0  0  1  0  0  0  0  0  0  0  0  0
  149.2712  141.1778  154.3718 C   0  0  0  0  0  0  0  0  0  0  0  0
  147.9239  141.8494  154.0812 C   0  0  0  0  0  0  0  0  0  0  0  0
  146.9339  141.5316  155.2072 C   0  0  0  0  0  0  0  0  0  0  0  0
  147.5466  141.8830  156.5721 C   0  0  0  0  0  0  0  0  0  0  0  0
  148.7790  141.1907  156.7423 O   0  0  0  0  0  0  0  0  0  0  0  0
  153.2050  137.2409  156.6689 H   0  0  0  0  0  0  0  0  0  0  0  0
  152.5929  135.7507  157.3813 H   0  0  0  0  0  0  0  0  0  0  0  0
  154.3299  136.0079  157.2243 H   0  0  0  0  0  0  0  0  0  0  0  0
  154.2332  137.8781  158.8604 H   0  0  0  0  0  0  0  0  0  0  0  0
  154.4615  136.3486  160.2401 H   0  0  0  0  0  0  0  0  0  0  0  0
  151.2625  137.1287  159.0559 H   0  0  0  0  0  0  0  0  0  0  0  0
  152.0592  138.1719  160.2116 H   0  0  0  0  0  0  0  0  0  0  0  0
  151.4692  138.6872  157.3810 H   0  0  0  0  0  0  0  0  0  0  0  0
  152.8539  143.2683  161.1086 H   0  0  0  0  0  0  0  0  0  0  0  0
  152.5901  145.5514  160.1659 H   0  0  0  0  0  0  0  0  0  0  0  0
  151.8065  145.8630  157.8272 H   0  0  0  0  0  0  0  0  0  0  0  0
  151.2742  143.8799  156.4148 H   0  0  0  0  0  0  0  0  0  0  0  0
  151.8613  141.0736  155.4083 H   0  0  0  0  0  0  0  0  0  0  0  0
  150.9461  139.7509  156.0833 H   0  0  0  0  0  0  0  0  0  0  0  0
  149.9374  142.6270  155.8327 H   0  0  0  0  0  0  0  0  0  0  0  0
  150.0038  141.4720  153.6199 H   0  0  0  0  0  0  0  0  0  0  0  0
  149.1613  140.0953  154.2947 H   0  0  0  0  0  0  0  0  0  0  0  0
  148.0602  142.9290  154.0054 H   0  0  0  0  0  0  0  0  0  0  0  0
  147.5298  141.5136  153.1217 H   0  0  0  0  0  0  0  0  0  0  0  0
  146.0031  142.0794  155.0578 H   0  0  0  0  0  0  0  0  0  0  0  0
  146.6808  140.4710  155.1846 H   0  0  0  0  0  0  0  0  0  0  0  0
  147.7056  142.9584  156.6638 H   0  0  0  0  0  0  0  0  0  0  0  0
  146.8671  141.5929  157.3735 H   0  0  0  0  0  0  0  0  0  0  0  0
  1  2  1  0  0  0  0
  1 22  1  0  0  0  0
  1 23  1  0  0  0  0
  1 24  1  0  0  0  0
  2  3  1  0  0  0  0
  2  4  1  0  0  0  0
  2 25  1  0  0  0  0
  3 26  1  0  0  0  0
  4  5  1  0  0  0  0
  4 27  1  0  0  0  0
  4 28  1  0  0  0  0
  5  6  1  0  0  0  0
  5 29  1  0  0  0  0
  6 14  1  0  0  0  0
  6  7  2  0  0  0  0
  7  8  1  0  0  0  0
  8 13  2  0  0  0  0
  8  9  1  0  0  0  0
  9 10  2  0  0  0  0
  9 30  1  0  0  0  0
 10 11  1  0  0  0  0
 10 31  1  0  0  0  0
 11 12  2  0  0  0  0
 11 32  1  0  0  0  0
 12 13  1  0  0  0  0
 12 33  1  0  0  0  0
 13 14  1  0  0  0  0
 14 15  1  0  0  0  0
 15 16  1  0  0  0  0
 15 34  1  0  0  0  0
 15 35  1  0  0  0  0
 16 21  1  0  0  0  0
 16 17  1  0  0  0  0
 16 36  1  0  0  0  0
 17 18  1  0  0  0  0
 17 37  1  0  0  0  0
 17 38  1  0  0  0  0
 18 19  1  0  0  0  0
 18 39  1  0  0  0  0
 18 40  1  0  0  0  0
 19 20  1  0  0  0  0
 19 41  1  0  0  0  0
 19 42  1  0  0  0  0
 20 21  1  0  0  0  0
 20 43  1  0  0  0  0
 20 44  1  0  0  0  0
M  END
> <s_m_source_file>
AV-unprocessed.smi

> <i_m_source_file_index>
573

> <i_lp_mmshare_version>
43012

> <i_f3d_flags>
0

> <s_epik_input>
W0NIM11bQ0BIXShbT0hdKVtDSDJdW05IXWMobjEpbihjKGMxMilbY0hdW2NIXVtjSF1bY0hdMilbQ0gyXVtDQEBIXTNbQ0gyXVtDSDJdW0NIMl1bQ0gyXU8z

> <s_epik_cmdline>
J2VwaWtfcHl0aG9uJywgJy1waCcsICc3LjAnLCAnLXRuJywgJzgnLCAnLW1hJywgJzIwMCcsICctbWV0YWxfYmluZGluZycsICctaW1hZScsICc8aW5maWxlLm1hZT4nLCAnLW9tYWUnLCAnPG91dGZpbGUubWFlPic=

> <r_epik_Ionization_Penalty>
1.30635

> <r_epik_Ionization_Penalty_Charging>
0

> <r_epik_Ionization_Penalty_Neutral>
1.30635

> <r_epik_State_Penalty>
1.38073

> <r_epik_Charging_Adjusted_Penalty>
1.38073

> <i_epik_Tot_Q>
0

> <i_epik_Tot_abs_Q>
0

> <r_epik_Metal_State_Penalty>
0.00547412

> <b_epik_Metal_Only>
0

> <s_lp_Force_Field>
OPLS_2005

> <r_lp_Energy>
9.89465

> <b_lp_Chiralities_Consistent>
1

> <s_lp_Variant>
AV-unprocessed.smi:573-7

> <Gold.Version>
5.8.1

> <Gold.Id.Protein>
6NUR|6NUR_protein|mol2

> <Gold.PLP.Fitness>
46.0930

> <Gold.PLP.PLP>
-43.4013

> <Gold.PLP.part.hbond>
-1.0000

> <Gold.PLP.part.metal>
0.0000

> <Gold.PLP.part.buried>
-5.1515

> <Gold.PLP.part.nonpolar>
-36.3926

> <Gold.PLP.part.repulsive>
0.1455

> <Gold.PLP.ligand.clash>
0.0000

> <Gold.PLP.ligand.torsion>
0.1653

> <Gold.PLP.Chemscore.Hbond>
1.0000

> <Gold.PLP.Chemscore.CHOScore>
0.0000

> <Gold.PLP.Chemscore.Metal>
0.0000

> <Gold.Chemscore.Hbonds>
donor molecule, donor type, donor heavy atom, donor atom, acceptor molecule, acceptor atom, score
      P1  H  6896  6908       L1     3  1.00

> <Gold.PLP.Chemscore.Internal.Correction>
0.0223

> <Gold.Rescore>
     Score         DG    S(hbond)    S(metal)    S(lipo)     H(rot)  DE(clash)    DE(int)     intcor
     17.62     -17.75       0.99        0.00     120.91       2.02       0.03       0.10       ----

> <Gold.Chemscore.Fitness>
17.6222

> <Gold.Chemscore.DG>
-17.7538

> <Gold.Chemscore.ZeroCoef>
-5.4800

> <Gold.Chemscore.Hbond>
0.9894

> <Gold.Chemscore.Metal>
0.0000

> <Gold.Chemscore.Lipo>
120.9096

> <Gold.Chemscore.Internal_Hbond>
0.0000

> <Gold.Chemscore.DEClash>
0.0310

> <Gold.Chemscore.DEInternal>
0.1007

> <Gold.Chemscore.Rot>
2.0224

> <Gold.Chemscore.Internal.Correction>
   9.000000E+99

> <Gold.Chemscore.Hbonds>
donor molecule, donor type, donor heavy atom, donor atom, acceptor molecule, acceptor atom, score
      P1  H  6896  6908       L1     3  0.94

> <Gold.Chemscore.Hbond.Weighted>
-3.3047

> <Gold.Chemscore.Metal.Weighted>
-0.0000

> <Gold.Chemscore.Lipo.Weighted>
-14.1464

> <Gold.Chemscore.Internal_Hbond.Weighted>
0.0000

> <Gold.Chemscore.DEClash.Weighted>
0.0310

> <Gold.Chemscore.DEInternal.Weighted>
0.1007

> <Gold.Chemscore.Rot.Weighted>
5.1773

> <Gold.Chemscore.Internal.Correction.Weighted>
   9.000000E+99

> <Gold.Protein.RotatedTorsions>
[ 6907 6896 6895 6894 ] final  -53.38 input  -60.11 | X-H torsion
[ 7974 7965 7964 7962 ] final  145.37 input  175.53 | X-H torsion
[ 8008 7997 7996 7995 ] final   -3.04 input   59.86 | X-H torsion
[ 10167 10162 10161 10158 ] final  114.52 input  -65.29 | X-H torsion
[ 10718 10713 10712 10709 ] final  -20.57 input   66.30 | X-H torsion
[ 10763 10752 10751 10750 ] final  -55.43 input  -60.55 | X-H torsion
[ 11005 11000 10999 10996 ] final -147.20 input  -57.11 | X-H torsion

> <Gold.Protein.ActiveResidues>
 VAL166  LYS551  ARG553  GLY616  TRP617  ASP618  TYR619  PRO620  LYS621  CYS622 
 ASP623  PHE694  ASN695  SER759  ASP760  ASP761  ALA762  ILE779  LEU786  VAL792 
 PHE793  MET794  SER795  GLU796  ALA797  LYS798  CYS799  TRP800  GLU811  SER814 

> <Gold.Protein.RotatedAtoms>
  150.8432  134.7731  159.6948 H   0  0  0  0  0  0  0  0  0  0  0  0  # atno 6907 bound_to 6896
  152.4515  134.5381  159.9840 H   0  0  0  0  0  0  0  0  0  0  0  0  # atno 6908 bound_to 6896
  151.5516  133.3379  159.2990 H   0  0  0  0  0  0  0  0  0  0  0  0  # atno 6909 bound_to 6896
  144.8758  139.5774  143.5865 H   0  0  0  0  0  0  0  0  0  0  0  0  # atno 7974 bound_to 7965
  154.6291  140.2519  155.7455 H   0  0  0  0  0  0  0  0  0  0  0  0  # atno 8008 bound_to 7997
  156.2470  140.2910  156.0555 H   0  0  0  0  0  0  0  0  0  0  0  0  # atno 8009 bound_to 7997
  155.1773  140.0388  157.2865 H   0  0  0  0  0  0  0  0  0  0  0  0  # atno 8010 bound_to 7997
  139.6383  144.7122  151.2290 H   0  0  0  0  0  0  0  0  0  0  0  0  # atno 10167 bound_to 10162
  156.5301  130.4653  149.6551 H   0  0  0  0  0  0  0  0  0  0  0  0  # atno 10718 bound_to 10713
  154.1907  135.6428  153.5059 H   0  0  0  0  0  0  0  0  0  0  0  0  # atno 10763 bound_to 10752
  153.0036  135.5428  154.6418 H   0  0  0  0  0  0  0  0  0  0  0  0  # atno 10764 bound_to 10752
  154.5806  135.2925  155.0709 H   0  0  0  0  0  0  0  0  0  0  0  0  # atno 10765 bound_to 10752
  140.7741  134.3154  157.5066 H   0  0  0  0  0  0  0  0  0  0  0  0  # atno 11005 bound_to 11000
  146.2962  139.7284  142.9125 LP  0  0  0  0  0  0  0  0  0  0  0  0  # atno 17320 bound_to 7965
  145.4045  141.0389  143.3052 LP  0  0  0  0  0  0  0  0  0  0  0  0  # atno 17321 bound_to 7965
  140.7477  143.6357  150.8381 LP  0  0  0  0  0  0  0  0  0  0  0  0  # atno 17342 bound_to 10162
  139.9991  143.5763  152.2882 LP  0  0  0  0  0  0  0  0  0  0  0  0  # atno 17343 bound_to 10162
  156.3068  130.7207  151.2091 LP  0  0  0  0  0  0  0  0  0  0  0  0  # atno 17370 bound_to 10713
  157.7423  131.0492  150.5034 LP  0  0  0  0  0  0  0  0  0  0  0  0  # atno 17371 bound_to 10713
  139.8751  134.9279  156.3437 LP  0  0  0  0  0  0  0  0  0  0  0  0  # atno 17394 bound_to 11000
  140.9545  133.7429  156.0317 LP  0  0  0  0  0  0  0  0  0  0  0  0  # atno 17395 bound_to 11000

$$$$
