AV-unprocessed.smi:2822|AV-procd|sdf|10861|dock5
  -GOLD-   2272015303D 1   1.00000     0.00000
 Structure written by MMmdl.
 41 43  0  0  0  0  0  0  0  0  3 V2000
  150.3223  138.6459  154.1057 Cl  0  0  0  0  0  0  0  0  0  0  0  0
  149.1553  139.9205  154.0514 C   0  0  0  0  0  0  0  0  0  0  0  0
  149.4657  141.1643  154.6391 C   0  0  0  0  0  0  0  0  0  0  0  0
  148.5671  142.1709  154.6042 N   0  3  0  0  0  0  0  0  0  0  0  0
  147.3555  142.0461  154.0228 C   0  0  0  0  0  0  0  0  0  0  0  0
  146.9874  140.8270  153.4176 C   0  0  0  0  0  0  0  0  0  0  0  0
  147.8967  139.7397  153.4263 C   0  0  0  0  0  0  0  0  0  0  0  0
  147.5910  138.5001  152.8433 N   0  0  0  0  0  0  0  0  0  0  0  0
  146.3724  138.3041  152.0729 C   0  0  0  0  0  0  0  0  0  0  0  0
  145.3143  137.5256  152.8807 C   0  0  1  0  0  0  0  0  0  0  0  0
  144.5283  136.5084  152.0309 C   0  0  0  0  0  0  0  0  0  0  0  0
  145.3611  135.3339  151.6793 N   0  3  2  0  0  0  0  0  0  0  0  0
  144.6255  134.3592  150.8337 C   0  0  0  0  0  0  0  0  0  0  0  0
  145.5332  133.1936  150.4108 C   0  0  0  0  0  0  0  0  0  0  0  0
  146.1384  132.5035  151.6391 C   0  0  0  0  0  0  0  0  0  0  0  0
  146.8728  133.5327  152.5080 C   0  0  0  0  0  0  0  0  0  0  0  0
  145.9506  134.7072  152.8932 C   0  0  1  0  0  0  0  0  0  0  0  0
  146.7166  135.7635  153.7111 C   0  0  0  0  0  0  0  0  0  0  0  0
  145.8698  136.8655  154.0183 O   0  0  0  0  0  0  0  0  0  0  0  0
  150.4011  141.3820  155.1336 H   0  0  0  0  0  0  0  0  0  0  0  0
  146.7198  142.9189  154.0600 H   0  0  0  0  0  0  0  0  0  0  0  0
  146.0121  140.7458  152.9614 H   0  0  0  0  0  0  0  0  0  0  0  0
  148.3047  137.7851  152.8056 H   0  0  0  0  0  0  0  0  0  0  0  0
  145.9696  139.2834  151.8114 H   0  0  0  0  0  0  0  0  0  0  0  0
  146.6040  137.7996  151.1350 H   0  0  0  0  0  0  0  0  0  0  0  0
  144.5976  138.2531  153.2641 H   0  0  0  0  0  0  0  0  0  0  0  0
  143.6542  136.1684  152.5886 H   0  0  0  0  0  0  0  0  0  0  0  0
  144.1552  136.9857  151.1236 H   0  0  0  0  0  0  0  0  0  0  0  0
  143.7607  133.9799  151.3806 H   0  0  0  0  0  0  0  0  0  0  0  0
  144.2424  134.8632  149.9456 H   0  0  0  0  0  0  0  0  0  0  0  0
  144.9653  132.4734  149.8210 H   0  0  0  0  0  0  0  0  0  0  0  0
  146.3309  133.5627  149.7647 H   0  0  0  0  0  0  0  0  0  0  0  0
  145.3497  132.0241  152.2201 H   0  0  0  0  0  0  0  0  0  0  0  0
  146.8236  131.7138  151.3291 H   0  0  0  0  0  0  0  0  0  0  0  0
  147.2551  133.0474  153.4071 H   0  0  0  0  0  0  0  0  0  0  0  0
  147.7428  133.9070  151.9663 H   0  0  0  0  0  0  0  0  0  0  0  0
  145.1326  134.3230  153.5058 H   0  0  0  0  0  0  0  0  0  0  0  0
  147.0633  135.3284  154.6487 H   0  0  0  0  0  0  0  0  0  0  0  0
  147.6084  136.1019  153.1830 H   0  0  0  0  0  0  0  0  0  0  0  0
  146.1322  135.6760  151.1242 H   0  0  0  0  0  0  0  0  0  0  0  0
  148.8136  143.0621  155.0360 H   0  0  0  0  0  0  0  0  0  0  0  0
  1  2  1  0  0  0  0
  2  7  1  0  0  0  0
  2  3  2  0  0  0  0
  3  4  1  0  0  0  0
  3 20  1  0  0  0  0
  4  5  2  0  0  0  0
  4 41  1  0  0  0  0
  5  6  1  0  0  0  0
  5 21  1  0  0  0  0
  6  7  2  0  0  0  0
  6 22  1  0  0  0  0
  7  8  1  0  0  0  0
  8  9  1  0  0  0  0
  8 23  1  0  0  0  0
  9 10  1  0  0  0  0
  9 24  1  0  0  0  0
  9 25  1  0  0  0  0
 10 19  1  0  0  0  0
 10 11  1  0  0  0  0
 10 26  1  0  0  0  0
 11 12  1  0  0  0  0
 11 27  1  0  0  0  0
 11 28  1  0  0  0  0
 12 17  1  0  0  0  0
 12 13  1  0  0  0  0
 12 40  1  0  0  0  0
 13 14  1  0  0  0  0
 13 29  1  0  0  0  0
 13 30  1  0  0  0  0
 14 15  1  0  0  0  0
 14 31  1  0  0  0  0
 14 32  1  0  0  0  0
 15 16  1  0  0  0  0
 15 33  1  0  0  0  0
 15 34  1  0  0  0  0
 16 17  1  0  0  0  0
 16 35  1  0  0  0  0
 16 36  1  0  0  0  0
 17 18  1  0  0  0  0
 17 37  1  0  0  0  0
 18 19  1  0  0  0  0
 18 38  1  0  0  0  0
 18 39  1  0  0  0  0
M  CHG  1   4   1
M  CHG  1  12   1
M  END
> <s_m_source_file>
AV-unprocessed.smi

> <i_m_source_file_index>
2822

> <i_lp_mmshare_version>
43012

> <i_f3d_flags>
0

> <s_epik_input>
Q2xjMVtjSF1uW2NIXVtjSF1jMVtOSF1bQ0gyXVtDQEhdKFtDSDJdMilPW0NIMl1bQ0BASF0oTjIzKVtDSDJdW0NIMl1bQ0gyXVtDSDJdMw==

> <s_epik_cmdline>
J2VwaWtfcHl0aG9uJywgJy1waCcsICc3LjAnLCAnLXRuJywgJzgnLCAnLW1hJywgJzIwMCcsICctbWV0YWxfYmluZGluZycsICctaW1hZScsICc8aW5maWxlLm1hZT4nLCAnLW9tYWUnLCAnPG91dGZpbGUubWFlPic=

> <r_lp_tautomer_probability>
1

> <r_epik_Ionization_Penalty>
0.254999

> <r_epik_Ionization_Penalty_Charging>
0.254956

> <r_epik_Ionization_Penalty_Neutral>
4.33524e-05

> <r_epik_State_Penalty>
0.230978

> <r_epik_Charging_Adjusted_Penalty>
0.485934

> <i_epik_Tot_Q>
2

> <i_epik_Tot_abs_Q>
2

> <r_epik_Metal_State_Penalty>
3.47007

> <b_epik_Metal_Only>
0

> <s_lp_Force_Field>
OPLS_2005

> <r_lp_Energy>
41.9056

> <b_lp_Chiralities_Consistent>
1

> <s_lp_Variant>
AV-unprocessed.smi:2822-2

> <Gold.Version>
5.8.1

> <Gold.Id.Protein>
6NUR|6NUR_protein|mol2

> <Gold.PLP.Fitness>
40.2621

> <Gold.PLP.PLP>
-33.0186

> <Gold.PLP.part.hbond>
-2.7823

> <Gold.PLP.part.metal>
0.0000

> <Gold.PLP.part.buried>
0.6061

> <Gold.PLP.part.nonpolar>
-31.9267

> <Gold.PLP.part.repulsive>
0.3416

> <Gold.PLP.ligand.clash>
0.0000

> <Gold.PLP.ligand.torsion>
0.7022

> <Gold.PLP.Chemscore.Hbond>
2.8800

> <Gold.PLP.Chemscore.CHOScore>
0.0000

> <Gold.PLP.Chemscore.Metal>
0.0000

> <Gold.Chemscore.Hbonds>
donor molecule, donor type, donor heavy atom, donor atom, acceptor molecule, acceptor atom, score
      L1  H     4    41       P1  8028  2.00
      L1  H     8    23       P1  7948  0.91

> <Gold.PLP.Chemscore.Internal.Correction>
0.0079

> <Gold.Rescore>
     Score         DG    S(hbond)    S(metal)    S(lipo)     H(rot)  DE(clash)    DE(int)     intcor
     16.88     -19.18       1.86        0.00      90.27       1.20       0.59       1.71       ----

> <Gold.Chemscore.Fitness>
16.8841

> <Gold.Chemscore.DG>
-19.1840

> <Gold.Chemscore.ZeroCoef>
-5.4800

> <Gold.Chemscore.Hbond>
1.8576

> <Gold.Chemscore.Metal>
0.0000

> <Gold.Chemscore.Lipo>
90.2722

> <Gold.Chemscore.Internal_Hbond>
0.0000

> <Gold.Chemscore.DEClash>
0.5876

> <Gold.Chemscore.DEInternal>
1.7122

> <Gold.Chemscore.Rot>
1.1962

> <Gold.Chemscore.Internal.Correction>
   9.000000E+99

> <Gold.Chemscore.Hbonds>
donor molecule, donor type, donor heavy atom, donor atom, acceptor molecule, acceptor atom, score
      L1  H     4    41       P1  8028  1.00
      L1  H     8    23       P1  7948  0.89

> <Gold.Chemscore.Hbond.Weighted>
-6.2045

> <Gold.Chemscore.Metal.Weighted>
-0.0000

> <Gold.Chemscore.Lipo.Weighted>
-10.5618

> <Gold.Chemscore.Internal_Hbond.Weighted>
0.0000

> <Gold.Chemscore.DEClash.Weighted>
0.5876

> <Gold.Chemscore.DEInternal.Weighted>
1.7122

> <Gold.Chemscore.Rot.Weighted>
3.0623

> <Gold.Chemscore.Internal.Correction.Weighted>
   9.000000E+99

> <Gold.Protein.RotatedTorsions>
[ 6907 6896 6895 6894 ] final   25.13 input  -60.11 | X-H torsion
[ 7974 7965 7964 7962 ] final  -54.55 input  175.53 | X-H torsion
[ 8008 7997 7996 7995 ] final -132.46 input   59.86 | X-H torsion
[ 10167 10162 10161 10158 ] final   -8.81 input  -65.29 | X-H torsion
[ 10718 10713 10712 10709 ] final  102.96 input   66.30 | X-H torsion
[ 10763 10752 10751 10750 ] final  142.12 input  -60.55 | X-H torsion
[ 11005 11000 10999 10996 ] final   34.52 input  -57.11 | X-H torsion

> <Gold.Protein.ActiveResidues>
 VAL166  LYS551  ARG553  GLY616  TRP617  ASP618  TYR619  PRO620  LYS621  CYS622 
 ASP623  PHE694  ASN695  SER759  ASP760  ASP761  ALA762  ILE779  LEU786  VAL792 
 PHE793  MET794  SER795  GLU796  ALA797  LYS798  CYS799  TRP800  GLU811  SER814 

> <Gold.Protein.RotatedAtoms>
  151.9679  135.0091  160.0550 H   0  0  0  0  0  0  0  0  0  0  0  0  # atno 6907 bound_to 6896
  152.1810  133.4702  159.4966 H   0  0  0  0  0  0  0  0  0  0  0  0  # atno 6908 bound_to 6896
  150.6917  134.1751  159.4270 H   0  0  0  0  0  0  0  0  0  0  0  0  # atno 6909 bound_to 6896
  145.8843  140.8120  142.9824 H   0  0  0  0  0  0  0  0  0  0  0  0  # atno 7974 bound_to 7965
  155.3293  140.0466  157.3042 H   0  0  0  0  0  0  0  0  0  0  0  0  # atno 8008 bound_to 7997
  154.5337  140.2265  155.8726 H   0  0  0  0  0  0  0  0  0  0  0  0  # atno 8009 bound_to 7997
  156.1814  140.3073  155.9161 H   0  0  0  0  0  0  0  0  0  0  0  0  # atno 8010 bound_to 7997
  140.7069  143.5928  150.8877 H   0  0  0  0  0  0  0  0  0  0  0  0  # atno 10167 bound_to 10162
  157.6787  131.0767  150.5484 H   0  0  0  0  0  0  0  0  0  0  0  0  # atno 10718 bound_to 10713
  153.9506  135.2970  155.3439 H   0  0  0  0  0  0  0  0  0  0  0  0  # atno 10763 bound_to 10752
  154.7428  135.5017  153.9155 H   0  0  0  0  0  0  0  0  0  0  0  0  # atno 10764 bound_to 10752
  153.0996  135.6730  153.9806 H   0  0  0  0  0  0  0  0  0  0  0  0  # atno 10765 bound_to 10752
  140.2520  134.3292  155.7887 H   0  0  0  0  0  0  0  0  0  0  0  0  # atno 11005 bound_to 11000
  144.6728  140.1432  143.7435 LP  0  0  0  0  0  0  0  0  0  0  0  0  # atno 17320 bound_to 7965
  145.8986  139.2417  143.1507 LP  0  0  0  0  0  0  0  0  0  0  0  0  # atno 17321 bound_to 7965
  139.9653  143.6118  152.2990 LP  0  0  0  0  0  0  0  0  0  0  0  0  # atno 17342 bound_to 10162
  139.6685  144.7661  151.1828 LP  0  0  0  0  0  0  0  0  0  0  0  0  # atno 17343 bound_to 10162
  156.5789  130.4299  149.5986 LP  0  0  0  0  0  0  0  0  0  0  0  0  # atno 17370 bound_to 10713
  156.2678  130.6999  151.1788 LP  0  0  0  0  0  0  0  0  0  0  0  0  # atno 17371 bound_to 10713
  141.2200  133.7359  156.9051 LP  0  0  0  0  0  0  0  0  0  0  0  0  # atno 17394 bound_to 11000
  140.1549  134.9205  157.2640 LP  0  0  0  0  0  0  0  0  0  0  0  0  # atno 17395 bound_to 11000

$$$$
