AV-unprocessed.smi:1824|AV-procd|sdf|7408|dock6
  -GOLD-   22720 9 83D 1   1.00000     0.00000
 Structure written by MMmdl.
 45 47  0  0  0  0  0  0  0  0  2 V2000
  148.7536  135.7169  159.1640 C   0  0  0  0  0  0  0  0  0  0  0  0
  149.1179  135.5184  157.6890 C   0  0  1  0  0  0  0  0  0  0  0  0
  150.0595  136.6210  157.1675 C   0  0  0  0  0  0  0  0  0  0  0  0
  150.4653  136.3832  155.7836 N   0  0  0  0  0  0  0  0  0  0  0  0
  151.3762  137.4096  155.2739 C   0  0  0  0  0  0  0  0  0  0  0  0
  150.8446  138.8556  155.3301 C   0  0  2  0  0  0  0  0  0  0  0  0
  150.5121  139.2582  154.0163 O   0  0  0  0  0  0  0  0  0  0  0  0
  151.8949  139.8201  155.9148 C   0  0  0  0  0  0  0  0  0  0  0  0
  151.2976  141.0234  156.5126 N   0  0  0  0  0  0  0  0  0  0  0  0
  150.3365  141.8508  156.0195 C   0  0  0  0  0  0  0  0  0  0  0  0
  150.1185  142.8263  156.9443 N   0  3  0  0  0  0  0  0  0  0  0  0
  150.9533  142.6206  158.0448 C   0  0  0  0  0  0  0  0  0  0  0  0
  151.0974  143.3411  159.2260 C   0  0  0  0  0  0  0  0  0  0  0  0
  152.0491  142.8622  160.1498 C   0  0  0  0  0  0  0  0  0  0  0  0
  152.2299  143.5264  161.3158 F   0  0  0  0  0  0  0  0  0  0  0  0
  152.8155  141.7078  159.8824 C   0  0  0  0  0  0  0  0  0  0  0  0
  153.7204  141.2832  160.7957 F   0  0  0  0  0  0  0  0  0  0  0  0
  152.6593  140.9851  158.6814 C   0  0  0  0  0  0  0  0  0  0  0  0
  151.7151  141.4644  157.7741 C   0  0  0  0  0  0  0  0  0  0  0  0
  151.0732  135.0602  155.6947 C   0  0  0  0  0  0  0  0  0  0  0  0
  150.1329  133.9545  156.2102 C   0  0  1  0  0  0  0  0  0  0  0  0
  150.7964  132.5736  156.1903 C   0  0  0  0  0  0  0  0  0  0  0  0
  149.7589  134.2534  157.5522 O   0  0  0  0  0  0  0  0  0  0  0  0
  148.2461  136.6694  159.3173 H   0  0  0  0  0  0  0  0  0  0  0  0
  149.6424  135.7044  159.7954 H   0  0  0  0  0  0  0  0  0  0  0  0
  148.0875  134.9263  159.5098 H   0  0  0  0  0  0  0  0  0  0  0  0
  148.1997  135.5143  157.0993 H   0  0  0  0  0  0  0  0  0  0  0  0
  149.5498  137.5793  157.2559 H   0  0  0  0  0  0  0  0  0  0  0  0
  150.9424  136.6757  157.8064 H   0  0  0  0  0  0  0  0  0  0  0  0
  152.3176  137.3518  155.8223 H   0  0  0  0  0  0  0  0  0  0  0  0
  151.6268  137.1849  154.2360 H   0  0  0  0  0  0  0  0  0  0  0  0
  149.9476  138.9153  155.9451 H   0  0  0  0  0  0  0  0  0  0  0  0
  149.9458  138.6009  153.6401 H   0  0  0  0  0  0  0  0  0  0  0  0
  152.4565  139.3187  156.7042 H   0  0  0  0  0  0  0  0  0  0  0  0
  152.6267  140.1152  155.1622 H   0  0  0  0  0  0  0  0  0  0  0  0
  149.8367  141.7513  155.0667 H   0  0  0  0  0  0  0  0  0  0  0  0
  150.5145  144.2260  159.4341 H   0  0  0  0  0  0  0  0  0  0  0  0
  153.2562  140.1070  158.4850 H   0  0  0  0  0  0  0  0  0  0  0  0
  151.3418  134.8475  154.6590 H   0  0  0  0  0  0  0  0  0  0  0  0
  152.0023  135.0425  156.2669 H   0  0  0  0  0  0  0  0  0  0  0  0
  149.2344  133.9212  155.5913 H   0  0  0  0  0  0  0  0  0  0  0  0
  151.0954  132.2962  155.1793 H   0  0  0  0  0  0  0  0  0  0  0  0
  150.1122  131.8078  156.5559 H   0  0  0  0  0  0  0  0  0  0  0  0
  151.6862  132.5540  156.8204 H   0  0  0  0  0  0  0  0  0  0  0  0
  149.4492  143.5767  156.8291 H   0  0  0  0  0  0  0  0  0  0  0  0
  1  2  1  0  0  0  0
  1 24  1  0  0  0  0
  1 25  1  0  0  0  0
  1 26  1  0  0  0  0
  2 23  1  0  0  0  0
  2  3  1  0  0  0  0
  2 27  1  0  0  0  0
  3  4  1  0  0  0  0
  3 28  1  0  0  0  0
  3 29  1  0  0  0  0
  4  5  1  0  0  0  0
  4 20  1  0  0  0  0
  5  6  1  0  0  0  0
  5 30  1  0  0  0  0
  5 31  1  0  0  0  0
  6  7  1  0  0  0  0
  6  8  1  0  0  0  0
  6 32  1  0  0  0  0
  7 33  1  0  0  0  0
  8  9  1  0  0  0  0
  8 34  1  0  0  0  0
  8 35  1  0  0  0  0
  9 19  1  0  0  0  0
  9 10  1  0  0  0  0
 10 11  2  0  0  0  0
 10 36  1  0  0  0  0
 11 12  1  0  0  0  0
 11 45  1  0  0  0  0
 12 19  2  0  0  0  0
 12 13  1  0  0  0  0
 13 14  2  0  0  0  0
 13 37  1  0  0  0  0
 14 15  1  0  0  0  0
 14 16  1  0  0  0  0
 16 17  1  0  0  0  0
 16 18  2  0  0  0  0
 18 19  1  0  0  0  0
 18 38  1  0  0  0  0
 20 21  1  0  0  0  0
 20 39  1  0  0  0  0
 20 40  1  0  0  0  0
 21 22  1  0  0  0  0
 21 23  1  0  0  0  0
 21 41  1  0  0  0  0
 22 42  1  0  0  0  0
 22 43  1  0  0  0  0
 22 44  1  0  0  0  0
M  CHG  1  11   1
M  END
> <s_m_source_file>
AV-unprocessed.smi

> <i_m_source_file_index>
1824

> <i_lp_mmshare_version>
43012

> <i_f3d_flags>
0

> <s_epik_input>
W0NIM11bQ0BASF0xW0NIMl1OKFtDSDJdW0NASF0oTzEpW0NIM10pW0NIMl1bQ0BIXShbT0hdKVtDSDJdbihbY0hdbjIpYyhjMjMpW2NIXWMoRiljKEYpW2NIXTM=

> <s_epik_cmdline>
J2VwaWtfcHl0aG9uJywgJy1waCcsICc3LjAnLCAnLXRuJywgJzgnLCAnLW1hJywgJzIwMCcsICctbWV0YWxfYmluZGluZycsICctaW1hZScsICc8aW5maWxlLm1hZT4nLCAnLW9tYWUnLCAnPG91dGZpbGUubWFlPic=

> <r_epik_Ionization_Penalty>
2.58709

> <r_epik_Ionization_Penalty_Charging>
2.37273

> <r_epik_Ionization_Penalty_Neutral>
0.214359

> <r_epik_State_Penalty>
2.71799

> <r_epik_Charging_Adjusted_Penalty>
5.09071

> <i_epik_Tot_Q>
1

> <i_epik_Tot_abs_Q>
1

> <r_epik_Metal_State_Penalty>
6.80217

> <b_epik_Metal_Only>
0

> <s_lp_Force_Field>
OPLS_2005

> <r_lp_Energy>
32.0118

> <b_lp_Chiralities_Consistent>
1

> <s_lp_Variant>
AV-unprocessed.smi:1824-16

> <Gold.Version>
5.8.1

> <Gold.Id.Protein>
6NUR|6NUR_protein|mol2

> <Gold.PLP.Fitness>
53.3955

> <Gold.PLP.PLP>
-43.9775

> <Gold.PLP.part.hbond>
-3.6256

> <Gold.PLP.part.metal>
0.0000

> <Gold.PLP.part.buried>
-4.5851

> <Gold.PLP.part.nonpolar>
-35.6945

> <Gold.PLP.part.repulsive>
0.1008

> <Gold.PLP.ligand.clash>
0.0000

> <Gold.PLP.ligand.torsion>
1.0861

> <Gold.PLP.Chemscore.Hbond>
3.8553

> <Gold.PLP.Chemscore.CHOScore>
0.0000

> <Gold.PLP.Chemscore.Metal>
0.0000

> <Gold.Chemscore.Hbonds>
donor molecule, donor type, donor heavy atom, donor atom, acceptor molecule, acceptor atom, score
      L1  H    11    45       P1  8028  1.70
      P1  H  6896  6907       L1    23  0.84
      P1  H  7989  7998       L1     7  1.00

> <Gold.PLP.Chemscore.Internal.Correction>
0.0246

> <Gold.Rescore>
     Score         DG    S(hbond)    S(metal)    S(lipo)     H(rot)  DE(clash)    DE(int)     intcor
     17.64     -18.86       2.53        0.00      92.76       2.32       0.14       1.08       ----

> <Gold.Chemscore.Fitness>
17.6382

> <Gold.Chemscore.DG>
-18.8550

> <Gold.Chemscore.ZeroCoef>
-5.4800

> <Gold.Chemscore.Hbond>
2.5341

> <Gold.Chemscore.Metal>
0.0000

> <Gold.Chemscore.Lipo>
92.7577

> <Gold.Chemscore.Internal_Hbond>
0.0000

> <Gold.Chemscore.DEClash>
0.1370

> <Gold.Chemscore.DEInternal>
1.0799

> <Gold.Chemscore.Rot>
2.3210

> <Gold.Chemscore.Internal.Correction>
   9.000000E+99

> <Gold.Chemscore.Hbonds>
donor molecule, donor type, donor heavy atom, donor atom, acceptor molecule, acceptor atom, score
      L1  H    11    45       P1  8028  0.81
      P1  H  6896  6907       L1    23  0.62
      P1  H  7989  7998       L1     7  0.69

> <Gold.Chemscore.Hbond.Weighted>
-8.4640

> <Gold.Chemscore.Metal.Weighted>
-0.0000

> <Gold.Chemscore.Lipo.Weighted>
-10.8526

> <Gold.Chemscore.Internal_Hbond.Weighted>
0.0000

> <Gold.Chemscore.DEClash.Weighted>
0.1370

> <Gold.Chemscore.DEInternal.Weighted>
1.0799

> <Gold.Chemscore.Rot.Weighted>
5.9416

> <Gold.Chemscore.Internal.Correction.Weighted>
   9.000000E+99

> <Gold.Protein.RotatedTorsions>
[ 6907 6896 6895 6894 ] final -122.93 input  -60.11 | X-H torsion
[ 7974 7965 7964 7962 ] final  -87.14 input  175.53 | X-H torsion
[ 8008 7997 7996 7995 ] final  103.34 input   59.86 | X-H torsion
[ 10167 10162 10161 10158 ] final    2.81 input  -65.29 | X-H torsion
[ 10718 10713 10712 10709 ] final   35.54 input   66.30 | X-H torsion
[ 10763 10752 10751 10750 ] final  -50.34 input  -60.55 | X-H torsion
[ 11005 11000 10999 10996 ] final   84.24 input  -57.11 | X-H torsion

> <Gold.Protein.ActiveResidues>
 VAL166  LYS551  ARG553  GLY616  TRP617  ASP618  TYR619  PRO620  LYS621  CYS622 
 ASP623  PHE694  ASN695  SER759  ASP760  ASP761  ALA762  ILE779  LEU786  VAL792 
 PHE793  MET794  SER795  GLU796  ALA797  LYS798  CYS799  TRP800  GLU811  SER814 

> <Gold.Protein.RotatedAtoms>
  150.8622  133.7627  159.2988 H   0  0  0  0  0  0  0  0  0  0  0  0  # atno 6907 bound_to 6896
  151.5265  135.1066  159.9901 H   0  0  0  0  0  0  0  0  0  0  0  0  # atno 6908 bound_to 6896
  152.4635  133.7828  159.6915 H   0  0  0  0  0  0  0  0  0  0  0  0  # atno 6909 bound_to 6896
  145.4705  140.9559  143.1919 H   0  0  0  0  0  0  0  0  0  0  0  0  # atno 7974 bound_to 7965
  156.1475  140.3166  155.8593 H   0  0  0  0  0  0  0  0  0  0  0  0  # atno 8008 bound_to 7997
  155.4036  140.0501  157.3052 H   0  0  0  0  0  0  0  0  0  0  0  0  # atno 8009 bound_to 7997
  154.5029  140.2136  155.9322 H   0  0  0  0  0  0  0  0  0  0  0  0  # atno 8010 bound_to 7997
  140.6617  143.7286  150.7751 H   0  0  0  0  0  0  0  0  0  0  0  0  # atno 10167 bound_to 10162
  157.3240  130.7463  149.6803 H   0  0  0  0  0  0  0  0  0  0  0  0  # atno 10718 bound_to 10713
  154.1088  135.6552  153.4881 H   0  0  0  0  0  0  0  0  0  0  0  0  # atno 10763 bound_to 10752
  153.0263  135.5242  154.7213 H   0  0  0  0  0  0  0  0  0  0  0  0  # atno 10764 bound_to 10752
  154.6387  135.2985  155.0100 H   0  0  0  0  0  0  0  0  0  0  0  0  # atno 10765 bound_to 10752
  139.9006  134.8202  156.2418 H   0  0  0  0  0  0  0  0  0  0  0  0  # atno 11005 bound_to 11000
  144.7948  139.6256  143.7097 LP  0  0  0  0  0  0  0  0  0  0  0  0  # atno 17320 bound_to 7965
  146.2399  139.5980  142.9498 LP  0  0  0  0  0  0  0  0  0  0  0  0  # atno 17321 bound_to 7965
  140.0956  143.4836  152.2454 LP  0  0  0  0  0  0  0  0  0  0  0  0  # atno 17342 bound_to 10162
  139.5853  144.7528  151.3536 LP  0  0  0  0  0  0  0  0  0  0  0  0  # atno 17343 bound_to 10162
  155.9688  130.4215  150.4471 LP  0  0  0  0  0  0  0  0  0  0  0  0  # atno 17370 bound_to 10713
  157.2491  131.0542  151.2390 LP  0  0  0  0  0  0  0  0  0  0  0  0  # atno 17371 bound_to 10713
  141.0280  133.7004  156.1381 LP  0  0  0  0  0  0  0  0  0  0  0  0  # atno 17394 bound_to 11000
  140.7138  134.4433  157.5580 LP  0  0  0  0  0  0  0  0  0  0  0  0  # atno 17395 bound_to 11000

$$$$
