AV-unprocessed.smi:376|AV-procd|sdf|2455|dock5
  -GOLD-   2262022393D 1   1.00000     0.00000
 Structure written by MMmdl.
 32 33  0  0  0  0  0  0  0  0  1 V2000
  146.3838  142.9502  154.0869 C   0  0  0  0  0  0  0  0  0  0  0  0
  146.7120  141.8125  153.7888 C   0  0  0  0  0  0  0  0  0  0  0  0
  147.0943  140.4345  153.4361 C   0  0  0  0  0  0  0  0  0  0  0  0
  148.5361  140.2193  153.4860 N   0  0  0  0  0  0  0  0  0  0  0  0
  149.2482  139.9754  154.5974 C   0  0  0  0  0  0  0  0  0  0  0  0
  148.7438  139.9055  155.7194 O   0  0  0  0  0  0  0  0  0  0  0  0
  150.7584  139.7791  154.3921 C   0  0  0  0  0  0  0  0  0  0  0  0
  151.4971  139.5061  155.6447 N   0  0  0  0  0  0  0  0  0  0  0  0
  152.2067  138.2836  155.7632 C   0  0  0  0  0  0  0  0  0  0  0  0
  152.2329  137.4720  154.8365 O   0  0  0  0  0  0  0  0  0  0  0  0
  152.8727  138.0648  157.0452 C   0  0  0  0  0  0  0  0  0  0  0  0
  153.5694  136.8331  157.2154 C   0  0  0  0  0  0  0  0  0  0  0  0
  154.1316  135.8278  157.3286 N   0  0  0  0  0  0  0  0  0  0  0  0
  152.8200  138.9925  158.0231 C   0  0  0  0  0  0  0  0  0  0  0  0
  152.1576  140.1912  157.8728 N   0  0  0  0  0  0  0  0  0  0  0  0
  151.9826  141.0928  158.9765 C   0  0  0  0  0  0  0  0  0  0  0  0
  152.3465  142.5580  158.8343 C   0  0  0  0  0  0  0  0  0  0  0  0
  153.2069  141.6451  159.6732 C   0  0  0  0  0  0  0  0  0  0  0  0
  151.4301  140.4567  156.6921 C   0  0  0  0  0  0  0  0  0  0  0  0
  150.7482  141.4784  156.5784 O   0  0  0  0  0  0  0  0  0  0  0  0
  146.0981  143.9436  154.3509 H   0  0  0  0  0  0  0  0  0  0  0  0
  146.6137  139.7621  154.1465 H   0  0  0  0  0  0  0  0  0  0  0  0
  146.6911  140.2000  152.4497 H   0  0  0  0  0  0  0  0  0  0  0  0
  149.0311  140.2578  152.6065 H   0  0  0  0  0  0  0  0  0  0  0  0
  150.9065  138.9763  153.6682 H   0  0  0  0  0  0  0  0  0  0  0  0
  151.1576  140.6623  153.8906 H   0  0  0  0  0  0  0  0  0  0  0  0
  153.3200  138.7926  158.9600 H   0  0  0  0  0  0  0  0  0  0  0  0
  151.1299  140.8784  159.6183 H   0  0  0  0  0  0  0  0  0  0  0  0
  152.7604  142.8973  157.8866 H   0  0  0  0  0  0  0  0  0  0  0  0
  151.7228  143.2814  159.3553 H   0  0  0  0  0  0  0  0  0  0  0  0
  153.1589  141.7623  160.7539 H   0  0  0  0  0  0  0  0  0  0  0  0
  154.1855  141.3815  159.2767 H   0  0  0  0  0  0  0  0  0  0  0  0
  1  2  3  0  0  0  0
  1 21  1  0  0  0  0
  2  3  1  0  0  0  0
  3  4  1  0  0  0  0
  3 22  1  0  0  0  0
  3 23  1  0  0  0  0
  4  5  1  0  0  0  0
  4 24  1  0  0  0  0
  5  6  2  0  0  0  0
  5  7  1  0  0  0  0
  7  8  1  0  0  0  0
  7 25  1  0  0  0  0
  7 26  1  0  0  0  0
  8 19  1  0  0  0  0
  8  9  1  0  0  0  0
  9 10  2  0  0  0  0
  9 11  1  0  0  0  0
 11 12  1  0  0  0  0
 11 14  2  0  0  0  0
 12 13  3  0  0  0  0
 14 15  1  0  0  0  0
 14 27  1  0  0  0  0
 15 16  1  0  0  0  0
 15 19  1  0  0  0  0
 16 18  1  0  0  0  0
 16 17  1  0  0  0  0
 16 28  1  0  0  0  0
 17 18  1  0  0  0  0
 17 29  1  0  0  0  0
 17 30  1  0  0  0  0
 18 31  1  0  0  0  0
 18 32  1  0  0  0  0
 19 20  2  0  0  0  0
M  END
> <s_m_source_file>
AV-unprocessed.smi

> <i_m_source_file_index>
376

> <i_lp_mmshare_version>
43012

> <i_f3d_flags>
0

> <s_epik_input>
W0NIXSNDW0NIMl1bTkhdQyg9TylbQ0gyXW4xYyg9TyljKEMjTilbY0hdbihjMT1PKVtDSF0yW0NIMl1bQ0gyXTI=

> <s_epik_cmdline>
J2VwaWtfcHl0aG9uJywgJy1waCcsICc3LjAnLCAnLXRuJywgJzgnLCAnLW1hJywgJzIwMCcsICctbWV0YWxfYmluZGluZycsICctaW1hZScsICc8aW5maWxlLm1hZT4nLCAnLW9tYWUnLCAnPG91dGZpbGUubWFlPic=

> <r_lp_tautomer_probability>
1

> <r_epik_Ionization_Penalty>
1.51832e-07

> <r_epik_Ionization_Penalty_Charging>
6.72035e-11

> <r_epik_Ionization_Penalty_Neutral>
1.51764e-07

> <r_epik_State_Penalty>
-0

> <r_epik_Charging_Adjusted_Penalty>
6.72035e-11

> <i_epik_Tot_Q>
0

> <i_epik_Tot_abs_Q>
0

> <r_epik_Metal_State_Penalty>
-0

> <b_epik_Metal_Only>
0

> <s_lp_Force_Field>
OPLS_2005

> <r_lp_Energy>
28.1194

> <b_lp_Chiralities_Consistent>
1

> <s_lp_Variant>
AV-unprocessed.smi:376-1

> <Gold.Version>
5.8.1

> <Gold.Id.Protein>
6NUR|6NUR_protein|mol2

> <Gold.PLP.Fitness>
43.3415

> <Gold.PLP.PLP>
-35.5347

> <Gold.PLP.part.hbond>
-3.0000

> <Gold.PLP.part.metal>
0.0000

> <Gold.PLP.part.buried>
-2.2450

> <Gold.PLP.part.nonpolar>
-31.2863

> <Gold.PLP.part.repulsive>
0.3034

> <Gold.PLP.ligand.clash>
0.0000

> <Gold.PLP.ligand.torsion>
0.2553

> <Gold.PLP.Chemscore.Hbond>
2.6978

> <Gold.PLP.Chemscore.CHOScore>
0.0000

> <Gold.PLP.Chemscore.Metal>
0.0000

> <Gold.Chemscore.Hbonds>
donor molecule, donor type, donor heavy atom, donor atom, acceptor molecule, acceptor atom, score
      L1  H     4    24       P1  7957  1.00
      P1  H 10752 10763       L1    13  0.90
      P1  H 10752 10765       L1    10  0.70

> <Gold.PLP.Chemscore.Internal.Correction>
0.2239

> <Gold.Rescore>
     Score         DG    S(hbond)    S(metal)    S(lipo)     H(rot)  DE(clash)    DE(int)     intcor
      9.43     -14.51       2.13        0.00      58.41       1.92       0.36       4.72       ----

> <Gold.Chemscore.Fitness>
9.4286

> <Gold.Chemscore.DG>
-14.5083

> <Gold.Chemscore.ZeroCoef>
-5.4800

> <Gold.Chemscore.Hbond>
2.1288

> <Gold.Chemscore.Metal>
0.0000

> <Gold.Chemscore.Lipo>
58.4103

> <Gold.Chemscore.Internal_Hbond>
0.0000

> <Gold.Chemscore.DEClash>
0.3611

> <Gold.Chemscore.DEInternal>
4.7186

> <Gold.Chemscore.Rot>
1.9202

> <Gold.Chemscore.Internal.Correction>
   9.000000E+99

> <Gold.Chemscore.Hbonds>
donor molecule, donor type, donor heavy atom, donor atom, acceptor molecule, acceptor atom, score
      L1  H     4    24       P1  7957  0.97
      P1  H 10752 10763       L1    13  0.19
      P1  H 10752 10765       L1    10  0.67

> <Gold.Chemscore.Hbond.Weighted>
-7.1101

> <Gold.Chemscore.Metal.Weighted>
-0.0000

> <Gold.Chemscore.Lipo.Weighted>
-6.8340

> <Gold.Chemscore.Internal_Hbond.Weighted>
0.0000

> <Gold.Chemscore.DEClash.Weighted>
0.3611

> <Gold.Chemscore.DEInternal.Weighted>
4.7186

> <Gold.Chemscore.Rot.Weighted>
4.9158

> <Gold.Chemscore.Internal.Correction.Weighted>
   9.000000E+99

> <Gold.Protein.RotatedTorsions>
[ 6907 6896 6895 6894 ] final  120.67 input  -60.11 | X-H torsion
[ 7974 7965 7964 7962 ] final  -19.50 input  175.53 | X-H torsion
[ 8008 7997 7996 7995 ] final -118.34 input   59.86 | X-H torsion
[ 10167 10162 10161 10158 ] final -106.88 input  -65.29 | X-H torsion
[ 10718 10713 10712 10709 ] final   38.44 input   66.30 | X-H torsion
[ 10763 10752 10751 10750 ] final  160.22 input  -60.55 | X-H torsion
[ 11005 11000 10999 10996 ] final  -69.17 input  -57.11 | X-H torsion

> <Gold.Protein.ActiveResidues>
 VAL166  LYS551  ARG553  GLY616  TRP617  ASP618  TYR619  PRO620  LYS621  CYS622 
 ASP623  PHE694  ASN695  SER759  ASP760  ASP761  ALA762  ILE779  LEU786  VAL792 
 PHE793  MET794  SER795  GLU796  ALA797  LYS798  CYS799  TRP800  GLU811  SER814 

> <Gold.Protein.RotatedAtoms>
  152.4380  133.7396  159.6633 H   0  0  0  0  0  0  0  0  0  0  0  0  # atno 6907 bound_to 6896
  150.8267  133.8150  159.3122 H   0  0  0  0  0  0  0  0  0  0  0  0  # atno 6908 bound_to 6896
  151.5816  135.1060  160.0070 H   0  0  0  0  0  0  0  0  0  0  0  0  # atno 6909 bound_to 6896
  146.1838  140.4071  142.8484 H   0  0  0  0  0  0  0  0  0  0  0  0  # atno 7974 bound_to 7965
  155.0982  140.0395  157.2689 H   0  0  0  0  0  0  0  0  0  0  0  0  # atno 8008 bound_to 7997
  154.6779  140.2626  155.6914 H   0  0  0  0  0  0  0  0  0  0  0  0  # atno 8009 bound_to 7997
  156.2683  140.2784  156.1312 H   0  0  0  0  0  0  0  0  0  0  0  0  # atno 8010 bound_to 7997
  140.1830  143.3952  152.1267 H   0  0  0  0  0  0  0  0  0  0  0  0  # atno 10167 bound_to 10162
  157.3588  130.7638  149.7032 H   0  0  0  0  0  0  0  0  0  0  0  0  # atno 10718 bound_to 10713
  154.2440  135.2774  155.2842 H   0  0  0  0  0  0  0  0  0  0  0  0  # atno 10763 bound_to 10752
  154.5521  135.5672  153.6934 H   0  0  0  0  0  0  0  0  0  0  0  0  # atno 10764 bound_to 10752
  152.9994  135.6277  154.2585 H   0  0  0  0  0  0  0  0  0  0  0  0  # atno 10765 bound_to 10752
  141.1548  133.6758  156.6559 H   0  0  0  0  0  0  0  0  0  0  0  0  # atno 11005 bound_to 11000
  144.8360  140.6783  143.6260 LP  0  0  0  0  0  0  0  0  0  0  0  0  # atno 17320 bound_to 7965
  145.4000  139.1599  143.4183 LP  0  0  0  0  0  0  0  0  0  0  0  0  # atno 17321 bound_to 7965
  139.5288  144.7135  151.5131 LP  0  0  0  0  0  0  0  0  0  0  0  0  # atno 17342 bound_to 10162
  140.6507  143.8702  150.6783 LP  0  0  0  0  0  0  0  0  0  0  0  0  # atno 17343 bound_to 10162
  155.9734  130.4119  150.4007 LP  0  0  0  0  0  0  0  0  0  0  0  0  # atno 17370 bound_to 10713
  157.2081  131.0454  151.2614 LP  0  0  0  0  0  0  0  0  0  0  0  0  # atno 17371 bound_to 10713
  140.3284  134.7949  157.4307 LP  0  0  0  0  0  0  0  0  0  0  0  0  # atno 17394 bound_to 11000
  140.1037  134.5438  155.8329 LP  0  0  0  0  0  0  0  0  0  0  0  0  # atno 17395 bound_to 11000

$$$$
