AV-unprocessed.smi:912|AV-procd|sdf|4141|dock2
  -GOLD-   22720 2 43D 1   1.00000     0.00000
 Structure written by MMmdl.
 26 26  0  0  0  0  0  0  0  0  1 V2000
  146.1126  137.5889  152.0116 C   0  0  0  0  0  0  0  0  0  0  0  0
  146.1908  136.2163  151.5178 N   0  0  0  0  0  0  0  0  0  0  0  0
  145.4560  135.1571  152.2316 C   0  0  2  0  0  0  0  0  0  0  0  0
  144.1285  135.8100  152.6961 C   0  0  0  0  0  0  0  0  0  0  0  0
  146.2698  134.6185  153.4405 C   0  0  0  0  0  0  0  0  0  0  0  0
  147.5096  135.0925  153.6094 N   0  0  0  0  0  0  0  0  0  0  0  0
  145.7901  133.7933  154.2168 O   0  0  0  0  0  0  0  0  0  0  0  0
  145.1334  133.9649  151.3069 C   0  0  0  0  0  0  0  0  0  0  0  0
  143.8046  133.5666  151.0129 C   0  0  0  0  0  0  0  0  0  0  0  0
  143.5927  132.4663  150.1584 C   0  0  0  0  0  0  0  0  0  0  0  0
  144.5924  131.7608  149.5913 N   0  0  0  0  0  0  0  0  0  0  0  0
  145.8579  132.1376  149.8652 C   0  0  0  0  0  0  0  0  0  0  0  0
  146.1782  133.2201  150.7076 C   0  0  0  0  0  0  0  0  0  0  0  0
  146.5622  138.2582  151.2785 H   0  0  0  0  0  0  0  0  0  0  0  0
  146.6625  137.7171  152.9443 H   0  0  0  0  0  0  0  0  0  0  0  0
  145.0835  137.9127  152.1649 H   0  0  0  0  0  0  0  0  0  0  0  0
  147.1453  135.9351  151.3460 H   0  0  0  0  0  0  0  0  0  0  0  0
  143.4959  135.1108  153.2435 H   0  0  0  0  0  0  0  0  0  0  0  0
  143.5481  136.1653  151.8436 H   0  0  0  0  0  0  0  0  0  0  0  0
  144.2896  136.6632  153.3553 H   0  0  0  0  0  0  0  0  0  0  0  0
  148.0688  134.7711  154.3862 H   0  0  0  0  0  0  0  0  0  0  0  0
  147.8787  135.7736  152.9618 H   0  0  0  0  0  0  0  0  0  0  0  0
  142.9464  134.0768  151.4229 H   0  0  0  0  0  0  0  0  0  0  0  0
  142.5889  132.1452  149.9226 H   0  0  0  0  0  0  0  0  0  0  0  0
  146.6411  131.5606  149.3964 H   0  0  0  0  0  0  0  0  0  0  0  0
  147.2137  133.4734  150.8810 H   0  0  0  0  0  0  0  0  0  0  0  0
  1  2  1  0  0  0  0
  1 14  1  0  0  0  0
  1 15  1  0  0  0  0
  1 16  1  0  0  0  0
  2  3  1  0  0  0  0
  2 17  1  0  0  0  0
  3  4  1  0  0  0  0
  3  5  1  0  0  0  0
  3  8  1  0  0  0  0
  4 18  1  0  0  0  0
  4 19  1  0  0  0  0
  4 20  1  0  0  0  0
  5  6  1  0  0  0  0
  5  7  2  0  0  0  0
  6 21  1  0  0  0  0
  6 22  1  0  0  0  0
  8 13  1  0  0  0  0
  8  9  2  0  0  0  0
  9 10  1  0  0  0  0
  9 23  1  0  0  0  0
 10 11  2  0  0  0  0
 10 24  1  0  0  0  0
 11 12  1  0  0  0  0
 12 13  2  0  0  0  0
 12 25  1  0  0  0  0
 13 26  1  0  0  0  0
M  END
> <s_m_source_file>
AV-unprocessed.smi

> <i_m_source_file_index>
912

> <i_lp_mmshare_version>
43012

> <i_f3d_flags>
0

> <s_epik_input>
W0NIM11bTkhdW0NAQF0oW0NIM10pKEMoPU8pW05IMl0pYzFbY0hdW2NIXW5bY0hdW2NIXTE=

> <s_epik_cmdline>
J2VwaWtfcHl0aG9uJywgJy1waCcsICc3LjAnLCAnLXRuJywgJzgnLCAnLW1hJywgJzIwMCcsICctbWV0YWxfYmluZGluZycsICctaW1hZScsICc8aW5maWxlLm1hZT4nLCAnLW9tYWUnLCAnPG91dGZpbGUubWFlPic=

> <r_epik_Ionization_Penalty>
0.458428

> <r_epik_Ionization_Penalty_Charging>
0

> <r_epik_Ionization_Penalty_Neutral>
0.458428

> <r_epik_State_Penalty>
0.443707

> <r_epik_Charging_Adjusted_Penalty>
0.443707

> <i_epik_Tot_Q>
0

> <i_epik_Tot_abs_Q>
0

> <r_epik_Metal_State_Penalty>
0.312856

> <b_epik_Metal_Only>
0

> <s_lp_Force_Field>
OPLS_2005

> <r_lp_Energy>
10.5143

> <b_lp_Chiralities_Consistent>
1

> <s_lp_Variant>
AV-unprocessed.smi:912-2

> <Gold.Version>
5.8.1

> <Gold.Id.Protein>
6NUR|6NUR_protein|mol2

> <Gold.PLP.Fitness>
34.4189

> <Gold.PLP.PLP>
-22.5529

> <Gold.PLP.part.hbond>
-3.0000

> <Gold.PLP.part.metal>
0.0000

> <Gold.PLP.part.buried>
-2.5871

> <Gold.PLP.part.nonpolar>
-18.6186

> <Gold.PLP.part.repulsive>
0.2380

> <Gold.PLP.ligand.clash>
0.0000

> <Gold.PLP.ligand.torsion>
0.4244

> <Gold.PLP.Chemscore.Hbond>
2.0628

> <Gold.PLP.Chemscore.CHOScore>
2.1666

> <Gold.PLP.Chemscore.Metal>
0.0000

> <Gold.Chemscore.Hbonds>
donor molecule, donor type, donor heavy atom, donor atom, acceptor molecule, acceptor atom, score
      L1  H     2    17       P1  7948  0.91
      L1  H     6    22       P1  7948  1.00
      P1  H 10785 10796       L1    11  0.12
      L1  C    10    24       P1 10186  0.21
      L1  C    10    24       P1 10952  0.97
      L1  C    12    25       P1 10747  0.90

> <Gold.PLP.Chemscore.Internal.Correction>
0.0269

> <Gold.Rescore>
     Score         DG    S(hbond)    S(metal)    S(lipo)     H(rot)  DE(clash)    DE(int)     intcor
     13.39     -13.94       1.92        0.00      56.30       1.77       0.01       0.54       ----

> <Gold.Chemscore.Fitness>
13.3914

> <Gold.Chemscore.DG>
-13.9446

> <Gold.Chemscore.ZeroCoef>
-5.4800

> <Gold.Chemscore.Hbond>
1.9198

> <Gold.Chemscore.Metal>
0.0000

> <Gold.Chemscore.Lipo>
56.2962

> <Gold.Chemscore.Internal_Hbond>
0.0000

> <Gold.Chemscore.DEClash>
0.0089

> <Gold.Chemscore.DEInternal>
0.5443

> <Gold.Chemscore.Rot>
1.7712

> <Gold.Chemscore.Internal.Correction>
   9.000000E+99

> <Gold.Chemscore.Hbonds>
donor molecule, donor type, donor heavy atom, donor atom, acceptor molecule, acceptor atom, score
      L1  H     2    17       P1  7948  0.89
      L1  H     6    22       P1  7948  0.93
      P1  H 10785 10796       L1    11  0.02

> <Gold.Chemscore.Hbond.Weighted>
-6.4123

> <Gold.Chemscore.Metal.Weighted>
-0.0000

> <Gold.Chemscore.Lipo.Weighted>
-6.5867

> <Gold.Chemscore.Internal_Hbond.Weighted>
0.0000

> <Gold.Chemscore.DEClash.Weighted>
0.0089

> <Gold.Chemscore.DEInternal.Weighted>
0.5443

> <Gold.Chemscore.Rot.Weighted>
4.5343

> <Gold.Chemscore.Internal.Correction.Weighted>
   9.000000E+99

> <Gold.Protein.RotatedTorsions>
[ 6907 6896 6895 6894 ] final  -24.63 input  -60.11 | X-H torsion
[ 7974 7965 7964 7962 ] final   57.18 input  175.53 | X-H torsion
[ 8008 7997 7996 7995 ] final  109.19 input   59.86 | X-H torsion
[ 10167 10162 10161 10158 ] final -129.42 input  -65.29 | X-H torsion
[ 10718 10713 10712 10709 ] final -154.82 input   66.30 | X-H torsion
[ 10763 10752 10751 10750 ] final  -79.63 input  -60.55 | X-H torsion
[ 11005 11000 10999 10996 ] final -160.17 input  -57.11 | X-H torsion

> <Gold.Protein.ActiveResidues>
 VAL166  LYS551  ARG553  GLY616  TRP617  ASP618  TYR619  PRO620  LYS621  CYS622 
 ASP623  PHE694  ASN695  SER759  ASP760  ASP761  ALA762  ILE779  LEU786  VAL792 
 PHE793  MET794  SER795  GLU796  ALA797  LYS798  CYS799  TRP800  GLU811  SER814 

> <Gold.Protein.RotatedAtoms>
  151.1868  135.0385  159.8815 H   0  0  0  0  0  0  0  0  0  0  0  0  # atno 6907 bound_to 6896
  152.5442  134.1001  159.8324 H   0  0  0  0  0  0  0  0  0  0  0  0  # atno 6908 bound_to 6896
  151.1125  133.5116  159.2637 H   0  0  0  0  0  0  0  0  0  0  0  0  # atno 6909 bound_to 6896
  145.9318  139.3814  143.0416 H   0  0  0  0  0  0  0  0  0  0  0  0  # atno 7974 bound_to 7965
  156.1960  140.3062  155.9428 H   0  0  0  0  0  0  0  0  0  0  0  0  # atno 8008 bound_to 7997
  155.3064  140.0449  157.3049 H   0  0  0  0  0  0  0  0  0  0  0  0  # atno 8009 bound_to 7997
  154.5510  140.2291  155.8494 H   0  0  0  0  0  0  0  0  0  0  0  0  # atno 8010 bound_to 7997
  139.9399  143.6175  152.2506 H   0  0  0  0  0  0  0  0  0  0  0  0  # atno 10167 bound_to 10162
  156.5045  130.8406  151.2622 H   0  0  0  0  0  0  0  0  0  0  0  0  # atno 10718 bound_to 10713
  154.5410  135.5689  153.6840 H   0  0  0  0  0  0  0  0  0  0  0  0  # atno 10763 bound_to 10752
  152.9963  135.6228  154.2501 H   0  0  0  0  0  0  0  0  0  0  0  0  # atno 10764 bound_to 10752
  154.2432  135.2861  155.2825 H   0  0  0  0  0  0  0  0  0  0  0  0  # atno 10765 bound_to 10752
  140.6345  134.4616  157.5231 H   0  0  0  0  0  0  0  0  0  0  0  0  # atno 11005 bound_to 11000
  145.8416  140.9577  143.0796 LP  0  0  0  0  0  0  0  0  0  0  0  0  # atno 17320 bound_to 7965
  144.6766  140.0291  143.7483 LP  0  0  0  0  0  0  0  0  0  0  0  0  # atno 17321 bound_to 7965
  139.6713  144.7660  151.1779 LP  0  0  0  0  0  0  0  0  0  0  0  0  # atno 17342 bound_to 10162
  140.7614  143.5861  150.8844 LP  0  0  0  0  0  0  0  0  0  0  0  0  # atno 17343 bound_to 10162
  157.7458  130.9970  150.2801 LP  0  0  0  0  0  0  0  0  0  0  0  0  # atno 17370 bound_to 10713
  156.3300  130.3799  149.7499 LP  0  0  0  0  0  0  0  0  0  0  0  0  # atno 17371 bound_to 10713
  139.9103  134.8359  156.1552 LP  0  0  0  0  0  0  0  0  0  0  0  0  # atno 17394 bound_to 11000
  141.0651  133.6823  156.2029 LP  0  0  0  0  0  0  0  0  0  0  0  0  # atno 17395 bound_to 11000

$$$$
