AV-unprocessed.smi:2561|AV-procd|sdf|10040|dock2
  -GOLD-   2272014 83D 1   1.00000     0.00000
 Structure written by MMmdl.
 32 33  0  0  0  0  0  0  0  0  1 V2000
  146.7545  138.8517  151.9708 C   0  0  0  0  0  0  0  0  0  0  0  0
  147.9333  138.8370  152.8237 N   0  0  0  0  0  0  0  0  0  0  0  0
  148.2633  139.8226  153.6684 C   0  0  0  0  0  0  0  0  0  0  0  0
  147.5971  140.8488  153.8036 O   0  0  0  0  0  0  0  0  0  0  0  0
  149.4074  139.5449  154.3170 N   0  0  0  0  0  0  0  0  0  0  0  0
  150.0897  140.3317  155.2840 C   0  0  0  0  0  0  0  0  0  0  0  0
  151.0877  139.8352  156.1559 C   0  0  0  0  0  0  0  0  0  0  0  0
  151.7025  140.7213  157.0612 C   0  0  0  0  0  0  0  0  0  0  0  0
  151.3113  142.0760  157.0627 C   0  0  0  0  0  0  0  0  0  0  0  0
  151.9247  142.9555  157.9678 N   0  0  0  0  0  0  0  0  0  0  0  0
  151.5575  144.3552  157.8279 C   0  0  0  0  0  0  0  0  0  0  0  0
  152.0222  145.0291  159.1212 C   0  0  0  0  0  0  0  0  0  0  0  0
  152.1215  143.8906  160.1439 C   0  0  0  0  0  0  0  0  0  0  0  0
  151.7238  142.6306  159.3702 C   0  0  0  0  0  0  0  0  0  0  0  0
  150.3659  142.5598  156.2218 N   0  0  0  0  0  0  0  0  0  0  0  0
  149.7800  141.7054  155.3569 C   0  0  0  0  0  0  0  0  0  0  0  0
  146.7121  137.9373  151.3791 H   0  0  0  0  0  0  0  0  0  0  0  0
  146.7806  139.7004  151.2860 H   0  0  0  0  0  0  0  0  0  0  0  0
  145.8441  138.9143  152.5682 H   0  0  0  0  0  0  0  0  0  0  0  0
  148.5348  138.0281  152.7655 H   0  0  0  0  0  0  0  0  0  0  0  0
  149.8787  138.6960  154.0405 H   0  0  0  0  0  0  0  0  0  0  0  0
  151.4028  138.8037  156.1400 H   0  0  0  0  0  0  0  0  0  0  0  0
  152.4655  140.3655  157.7383 H   0  0  0  0  0  0  0  0  0  0  0  0
  152.0299  144.7995  156.9512 H   0  0  0  0  0  0  0  0  0  0  0  0
  150.4773  144.4619  157.7196 H   0  0  0  0  0  0  0  0  0  0  0  0
  153.0023  145.4855  158.9787 H   0  0  0  0  0  0  0  0  0  0  0  0
  151.3329  145.8130  159.4361 H   0  0  0  0  0  0  0  0  0  0  0  0
  153.1464  143.8061  160.5069 H   0  0  0  0  0  0  0  0  0  0  0  0
  151.4757  144.0510  161.0077 H   0  0  0  0  0  0  0  0  0  0  0  0
  150.6768  142.3893  159.5602 H   0  0  0  0  0  0  0  0  0  0  0  0
  152.3269  141.7716  159.6654 H   0  0  0  0  0  0  0  0  0  0  0  0
  149.0337  142.1344  154.7041 H   0  0  0  0  0  0  0  0  0  0  0  0
  1  2  1  0  0  0  0
  1 17  1  0  0  0  0
  1 18  1  0  0  0  0
  1 19  1  0  0  0  0
  2  3  1  0  0  0  0
  2 20  1  0  0  0  0
  3  4  2  0  0  0  0
  3  5  1  0  0  0  0
  5  6  1  0  0  0  0
  5 21  1  0  0  0  0
  6 16  1  0  0  0  0
  6  7  2  0  0  0  0
  7  8  1  0  0  0  0
  7 22  1  0  0  0  0
  8  9  2  0  0  0  0
  8 23  1  0  0  0  0
  9 10  1  0  0  0  0
  9 15  1  0  0  0  0
 10 14  1  0  0  0  0
 10 11  1  0  0  0  0
 11 12  1  0  0  0  0
 11 24  1  0  0  0  0
 11 25  1  0  0  0  0
 12 13  1  0  0  0  0
 12 26  1  0  0  0  0
 12 27  1  0  0  0  0
 13 14  1  0  0  0  0
 13 28  1  0  0  0  0
 13 29  1  0  0  0  0
 14 30  1  0  0  0  0
 14 31  1  0  0  0  0
 15 16  2  0  0  0  0
 16 32  1  0  0  0  0
M  END
> <s_m_source_file>
AV-unprocessed.smi

> <i_m_source_file_index>
2561

> <i_lp_mmshare_version>
43012

> <i_f3d_flags>
0

> <s_epik_input>
W0NIM11bTkhdQyg9TylbTkhdYzFbY0hdW2NIXWMobltjSF0xKU4yW0NIMl1bQ0gyXVtDSDJdW0NIMl0y

> <s_epik_cmdline>
J2VwaWtfcHl0aG9uJywgJy1waCcsICc3LjAnLCAnLXRuJywgJzgnLCAnLW1hJywgJzIwMCcsICctbWV0YWxfYmluZGluZycsICctaW1hZScsICc8aW5maWxlLm1hZT4nLCAnLW9tYWUnLCAnPG91dGZpbGUubWFlPic=

> <r_lp_tautomer_probability>
1

> <r_epik_Ionization_Penalty>
0.281536

> <r_epik_Ionization_Penalty_Charging>
0

> <r_epik_Ionization_Penalty_Neutral>
0.281536

> <r_epik_State_Penalty>
0.27354

> <r_epik_Charging_Adjusted_Penalty>
0.27354

> <i_epik_Tot_Q>
0

> <i_epik_Tot_abs_Q>
0

> <r_epik_Metal_State_Penalty>
0.184484

> <b_epik_Metal_Only>
0

> <s_lp_Force_Field>
OPLS_2005

> <r_lp_Energy>
32.7589

> <b_lp_Chiralities_Consistent>
1

> <s_lp_Variant>
AV-unprocessed.smi:2561-1

> <Gold.Version>
5.8.1

> <Gold.Id.Protein>
6NUR|6NUR_protein|mol2

> <Gold.PLP.Fitness>
35.1926

> <Gold.PLP.PLP>
-31.9146

> <Gold.PLP.part.hbond>
-2.3777

> <Gold.PLP.part.metal>
0.0000

> <Gold.PLP.part.buried>
-0.8377

> <Gold.PLP.part.nonpolar>
-31.1945

> <Gold.PLP.part.repulsive>
3.1124

> <Gold.PLP.ligand.clash>
0.0000

> <Gold.PLP.ligand.torsion>
0.1004

> <Gold.PLP.Chemscore.Hbond>
0.9600

> <Gold.PLP.Chemscore.CHOScore>
0.1945

> <Gold.PLP.Chemscore.Metal>
0.0000

> <Gold.Chemscore.Hbonds>
donor molecule, donor type, donor heavy atom, donor atom, acceptor molecule, acceptor atom, score
      L1  H     2    20       P1  7948  0.95
      L1  C    16    32       P1  8028  0.21

> <Gold.PLP.Chemscore.Internal.Correction>
0.0152

> <Gold.Rescore>
     Score         DG    S(hbond)    S(metal)    S(lipo)     H(rot)  DE(clash)    DE(int)     intcor
     13.50     -15.61       0.95        0.00      81.30       1.00       0.66       1.45       ----

> <Gold.Chemscore.Fitness>
13.5001

> <Gold.Chemscore.DG>
-15.6065

> <Gold.Chemscore.ZeroCoef>
-5.4800

> <Gold.Chemscore.Hbond>
0.9505

> <Gold.Chemscore.Metal>
0.0000

> <Gold.Chemscore.Lipo>
81.2988

> <Gold.Chemscore.Internal_Hbond>
0.0000

> <Gold.Chemscore.DEClash>
0.6580

> <Gold.Chemscore.DEInternal>
1.4483

> <Gold.Chemscore.Rot>
1.0000

> <Gold.Chemscore.Internal.Correction>
   9.000000E+99

> <Gold.Chemscore.Hbonds>
donor molecule, donor type, donor heavy atom, donor atom, acceptor molecule, acceptor atom, score
      L1  H     2    20       P1  7948  0.86

> <Gold.Chemscore.Hbond.Weighted>
-3.1745

> <Gold.Chemscore.Metal.Weighted>
-0.0000

> <Gold.Chemscore.Lipo.Weighted>
-9.5120

> <Gold.Chemscore.Internal_Hbond.Weighted>
0.0000

> <Gold.Chemscore.DEClash.Weighted>
0.6580

> <Gold.Chemscore.DEInternal.Weighted>
1.4483

> <Gold.Chemscore.Rot.Weighted>
2.5600

> <Gold.Chemscore.Internal.Correction.Weighted>
   9.000000E+99

> <Gold.Protein.RotatedTorsions>
[ 6907 6896 6895 6894 ] final   13.85 input  -60.11 | X-H torsion
[ 7974 7965 7964 7962 ] final  152.89 input  175.53 | X-H torsion
[ 8008 7997 7996 7995 ] final -119.80 input   59.86 | X-H torsion
[ 10167 10162 10161 10158 ] final  157.68 input  -65.29 | X-H torsion
[ 10718 10713 10712 10709 ] final  -41.90 input   66.30 | X-H torsion
[ 10763 10752 10751 10750 ] final  -29.69 input  -60.55 | X-H torsion
[ 11005 11000 10999 10996 ] final  123.68 input  -57.11 | X-H torsion

> <Gold.Protein.ActiveResidues>
 VAL166  LYS551  ARG553  GLY616  TRP617  ASP618  TYR619  PRO620  LYS621  CYS622 
 ASP623  PHE694  ASN695  SER759  ASP760  ASP761  ALA762  ILE779  LEU786  VAL792 
 PHE793  MET794  SER795  GLU796  ALA797  LYS798  CYS799  TRP800  GLU811  SER814 

> <Gold.Protein.RotatedAtoms>
  151.7929  135.0731  160.0389 H   0  0  0  0  0  0  0  0  0  0  0  0  # atno 6907 bound_to 6896
  152.3144  133.5782  159.5710 H   0  0  0  0  0  0  0  0  0  0  0  0  # atno 6908 bound_to 6896
  150.7336  134.0021  159.3683 H   0  0  0  0  0  0  0  0  0  0  0  0  # atno 6909 bound_to 6896
  144.8192  139.6728  143.6108 H   0  0  0  0  0  0  0  0  0  0  0  0  # atno 7974 bound_to 7965
  155.1215  140.0398  157.2751 H   0  0  0  0  0  0  0  0  0  0  0  0  # atno 8008 bound_to 7997
  154.6610  140.2591  155.7083 H   0  0  0  0  0  0  0  0  0  0  0  0  # atno 8009 bound_to 7997
  156.2619  140.2817  156.1082 H   0  0  0  0  0  0  0  0  0  0  0  0  # atno 8010 bound_to 7997
  139.4824  144.4895  151.8329 H   0  0  0  0  0  0  0  0  0  0  0  0  # atno 10167 bound_to 10162
  156.2654  130.4201  149.8496 H   0  0  0  0  0  0  0  0  0  0  0  0  # atno 10718 bound_to 10713
  153.7688  135.6914  153.4910 H   0  0  0  0  0  0  0  0  0  0  0  0  # atno 10763 bound_to 10752
  153.1889  135.4478  155.0122 H   0  0  0  0  0  0  0  0  0  0  0  0  # atno 10764 bound_to 10752
  154.8126  135.3384  154.7198 H   0  0  0  0  0  0  0  0  0  0  0  0  # atno 10765 bound_to 10752
  139.9324  134.9641  156.8296 H   0  0  0  0  0  0  0  0  0  0  0  0  # atno 11005 bound_to 11000
  146.2496  139.6172  142.9436 LP  0  0  0  0  0  0  0  0  0  0  0  0  # atno 17320 bound_to 7965
  145.5145  141.0434  143.2469 LP  0  0  0  0  0  0  0  0  0  0  0  0  # atno 17321 bound_to 7965
  140.4378  144.2028  150.5890 LP  0  0  0  0  0  0  0  0  0  0  0  0  # atno 17342 bound_to 10162
  140.4714  143.2411  151.9083 LP  0  0  0  0  0  0  0  0  0  0  0  0  # atno 17343 bound_to 10162
  156.5997  130.8541  151.3428 LP  0  0  0  0  0  0  0  0  0  0  0  0  # atno 17370 bound_to 10713
  157.7265  130.9630  150.1660 LP  0  0  0  0  0  0  0  0  0  0  0  0  # atno 17371 bound_to 10713
  140.6167  134.0032  155.7600 LP  0  0  0  0  0  0  0  0  0  0  0  0  # atno 17394 bound_to 11000
  141.0920  133.9902  157.3222 LP  0  0  0  0  0  0  0  0  0  0  0  0  # atno 17395 bound_to 11000

$$$$
