AV-unprocessed.smi:3303|AV-procd|sdf|12694|dock6
  -GOLD-   2272019 23D 1   1.00000     0.00000
 Structure written by MMmdl.
 44 45  0  0  0  0  0  0  0  0  2 V2000
  147.2509  141.8064  154.1542 C   0  0  0  0  0  0  0  0  0  0  0  0
  148.1381  140.6415  154.6272 C   0  0  1  0  0  0  0  0  0  0  0  0
  148.0111  139.4551  153.6436 C   0  0  0  0  0  0  0  0  0  0  0  0
  148.8686  138.3024  154.0213 N   0  3  2  0  0  0  0  0  0  0  0  0
  148.3389  137.5440  155.1833 C   0  0  0  0  0  0  0  0  0  0  0  0
  150.3030  138.6980  154.1119 C   0  0  2  0  0  0  0  0  0  0  0  0
  151.2386  137.5067  154.3811 C   0  0  0  0  0  0  0  0  0  0  0  0
  150.5018  139.8421  155.1246 C   0  0  0  0  0  0  0  0  0  0  0  0
  149.6207  141.0594  154.7847 C   0  0  2  0  0  0  0  0  0  0  0  0
  149.7577  142.0111  155.8809 N   0  0  0  0  0  0  0  0  0  0  0  0
  149.4026  141.4066  157.1560 C   0  0  0  0  0  0  0  0  0  0  0  0
  150.6794  141.0733  157.9396 C   0  0  0  0  0  0  0  0  0  0  0  0
  151.2791  142.2967  158.6065 C   0  0  0  0  0  0  0  0  0  0  0  0
  151.6288  143.4330  157.8463 C   0  0  0  0  0  0  0  0  0  0  0  0
  152.1843  144.5418  158.5138 C   0  0  0  0  0  0  0  0  0  0  0  0
  152.3691  144.4719  159.9082 C   0  0  0  0  0  0  0  0  0  0  0  0
  151.9878  143.2908  160.5757 C   0  0  0  0  0  0  0  0  0  0  0  0
  151.4544  142.2219  159.9453 N   0  0  0  0  0  0  0  0  0  0  0  0
  147.5960  142.2056  153.2000 H   0  0  0  0  0  0  0  0  0  0  0  0
  147.2449  142.6239  154.8751 H   0  0  0  0  0  0  0  0  0  0  0  0
  146.2171  141.4845  154.0253 H   0  0  0  0  0  0  0  0  0  0  0  0
  147.7623  140.3186  155.5994 H   0  0  0  0  0  0  0  0  0  0  0  0
  146.9727  139.1295  153.5689 H   0  0  0  0  0  0  0  0  0  0  0  0
  148.2975  139.7789  152.6419 H   0  0  0  0  0  0  0  0  0  0  0  0
  148.4207  138.1063  156.1130 H   0  0  0  0  0  0  0  0  0  0  0  0
  148.8629  136.5973  155.3109 H   0  0  0  0  0  0  0  0  0  0  0  0
  147.2868  137.3021  155.0313 H   0  0  0  0  0  0  0  0  0  0  0  0
  150.5735  139.0830  153.1272 H   0  0  0  0  0  0  0  0  0  0  0  0
  152.2820  137.8080  154.2842 H   0  0  0  0  0  0  0  0  0  0  0  0
  151.0648  136.6983  153.6702 H   0  0  0  0  0  0  0  0  0  0  0  0
  151.1133  137.1066  155.3874 H   0  0  0  0  0  0  0  0  0  0  0  0
  150.2850  139.4864  156.1329 H   0  0  0  0  0  0  0  0  0  0  0  0
  151.5500  140.1443  155.1314 H   0  0  0  0  0  0  0  0  0  0  0  0
  149.9742  141.4896  153.8455 H   0  0  0  0  0  0  0  0  0  0  0  0
  149.1590  142.8081  155.7165 H   0  0  0  0  0  0  0  0  0  0  0  0
  148.7822  142.0987  157.7271 H   0  0  0  0  0  0  0  0  0  0  0  0
  148.8176  140.5013  156.9890 H   0  0  0  0  0  0  0  0  0  0  0  0
  150.4652  140.3206  158.6998 H   0  0  0  0  0  0  0  0  0  0  0  0
  151.4254  140.6347  157.2750 H   0  0  0  0  0  0  0  0  0  0  0  0
  151.4763  143.4565  156.7773 H   0  0  0  0  0  0  0  0  0  0  0  0
  152.4635  145.4297  157.9662 H   0  0  0  0  0  0  0  0  0  0  0  0
  152.7928  145.3025  160.4527 H   0  0  0  0  0  0  0  0  0  0  0  0
  152.1151  143.2025  161.6445 H   0  0  0  0  0  0  0  0  0  0  0  0
  148.8106  137.6589  153.2448 H   0  0  0  0  0  0  0  0  0  0  0  0
  1  2  1  0  0  0  0
  1 19  1  0  0  0  0
  1 20  1  0  0  0  0
  1 21  1  0  0  0  0
  2  9  1  0  0  0  0
  2  3  1  0  0  0  0
  2 22  1  0  0  0  0
  3  4  1  0  0  0  0
  3 23  1  0  0  0  0
  3 24  1  0  0  0  0
  4  5  1  0  0  0  0
  4  6  1  0  0  0  0
  4 44  1  0  0  0  0
  5 25  1  0  0  0  0
  5 26  1  0  0  0  0
  5 27  1  0  0  0  0
  6  7  1  0  0  0  0
  6  8  1  0  0  0  0
  6 28  1  0  0  0  0
  7 29  1  0  0  0  0
  7 30  1  0  0  0  0
  7 31  1  0  0  0  0
  8  9  1  0  0  0  0
  8 32  1  0  0  0  0
  8 33  1  0  0  0  0
  9 10  1  0  0  0  0
  9 34  1  0  0  0  0
 10 11  1  0  0  0  0
 10 35  1  0  0  0  0
 11 12  1  0  0  0  0
 11 36  1  0  0  0  0
 11 37  1  0  0  0  0
 12 13  1  0  0  0  0
 12 38  1  0  0  0  0
 12 39  1  0  0  0  0
 13 18  1  0  0  0  0
 13 14  2  0  0  0  0
 14 15  1  0  0  0  0
 14 40  1  0  0  0  0
 15 16  2  0  0  0  0
 15 41  1  0  0  0  0
 16 17  1  0  0  0  0
 16 42  1  0  0  0  0
 17 18  2  0  0  0  0
 17 43  1  0  0  0  0
M  CHG  1   4   1
M  END
> <s_m_source_file>
AV-unprocessed.smi

> <i_m_source_file_index>
3303

> <i_lp_mmshare_version>
43012

> <i_f3d_flags>
0

> <s_epik_input>
W0NIM11bQ0BASF0xW0NIMl1OKFtDSDNdKVtDQEBIXShbQ0gzXSlbQ0gyXVtDQEhdMVtOSF1bQ0gyXVtDSDJdYzJbY0hdW2NIXVtjSF1bY0hdbjI=

> <s_epik_cmdline>
J2VwaWtfcHl0aG9uJywgJy1waCcsICc3LjAnLCAnLXRuJywgJzgnLCAnLW1hJywgJzIwMCcsICctbWV0YWxfYmluZGluZycsICctaW1hZScsICc8aW5maWxlLm1hZT4nLCAnLW9tYWUnLCAnPG91dGZpbGUubWFlPic=

> <r_epik_Ionization_Penalty>
2.31085

> <r_epik_Ionization_Penalty_Charging>
0.000313057

> <r_epik_Ionization_Penalty_Neutral>
2.31054

> <r_epik_State_Penalty>
2.4087

> <r_epik_Charging_Adjusted_Penalty>
2.40902

> <i_epik_Tot_Q>
1

> <i_epik_Tot_abs_Q>
1

> <r_epik_Metal_State_Penalty>
2.30979

> <b_epik_Metal_Only>
0

> <s_lp_Force_Field>
OPLS_2005

> <r_lp_Energy>
26.2858

> <b_lp_Chiralities_Consistent>
1

> <s_lp_Variant>
AV-unprocessed.smi:3303-38

> <Gold.Version>
5.8.1

> <Gold.Id.Protein>
6NUR|6NUR_protein|mol2

> <Gold.PLP.Fitness>
50.4132

> <Gold.PLP.PLP>
-42.3409

> <Gold.PLP.part.hbond>
-2.6752

> <Gold.PLP.part.metal>
0.0000

> <Gold.PLP.part.buried>
-2.8748

> <Gold.PLP.part.nonpolar>
-36.6304

> <Gold.PLP.part.repulsive>
0.0224

> <Gold.PLP.ligand.clash>
0.0000

> <Gold.PLP.ligand.torsion>
0.4064

> <Gold.PLP.Chemscore.Hbond>
2.9600

> <Gold.PLP.Chemscore.CHOScore>
0.0000

> <Gold.PLP.Chemscore.Metal>
0.0000

> <Gold.Chemscore.Hbonds>
donor molecule, donor type, donor heavy atom, donor atom, acceptor molecule, acceptor atom, score
      L1  H     4    44       P1  7948  2.00
      L1  H    10    35       P1  8028  1.00

> <Gold.PLP.Chemscore.Internal.Correction>
0.0051

> <Gold.Rescore>
     Score         DG    S(hbond)    S(metal)    S(lipo)     H(rot)  DE(clash)    DE(int)     intcor
     21.46     -22.14       1.81        0.00     119.79       1.33       0.16       0.51       ----

> <Gold.Chemscore.Fitness>
21.4633

> <Gold.Chemscore.DG>
-22.1353

> <Gold.Chemscore.ZeroCoef>
-5.4800

> <Gold.Chemscore.Hbond>
1.8078

> <Gold.Chemscore.Metal>
0.0000

> <Gold.Chemscore.Lipo>
119.7851

> <Gold.Chemscore.Internal_Hbond>
0.0000

> <Gold.Chemscore.DEClash>
0.1570

> <Gold.Chemscore.DEInternal>
0.5149

> <Gold.Chemscore.Rot>
1.3272

> <Gold.Chemscore.Internal.Correction>
   9.000000E+99

> <Gold.Chemscore.Hbonds>
donor molecule, donor type, donor heavy atom, donor atom, acceptor molecule, acceptor atom, score
      L1  H     4    44       P1  7948  0.98
      L1  H    10    35       P1  8028  0.95

> <Gold.Chemscore.Hbond.Weighted>
-6.0381

> <Gold.Chemscore.Metal.Weighted>
-0.0000

> <Gold.Chemscore.Lipo.Weighted>
-14.0149

> <Gold.Chemscore.Internal_Hbond.Weighted>
0.0000

> <Gold.Chemscore.DEClash.Weighted>
0.1570

> <Gold.Chemscore.DEInternal.Weighted>
0.5149

> <Gold.Chemscore.Rot.Weighted>
3.3976

> <Gold.Chemscore.Internal.Correction.Weighted>
   9.000000E+99

> <Gold.Protein.RotatedTorsions>
[ 6907 6896 6895 6894 ] final   41.27 input  -60.11 | X-H torsion
[ 7974 7965 7964 7962 ] final  163.96 input  175.53 | X-H torsion
[ 8008 7997 7996 7995 ] final   39.13 input   59.86 | X-H torsion
[ 10167 10162 10161 10158 ] final   77.78 input  -65.29 | X-H torsion
[ 10718 10713 10712 10709 ] final  119.89 input   66.30 | X-H torsion
[ 10763 10752 10751 10750 ] final   46.37 input  -60.55 | X-H torsion
[ 11005 11000 10999 10996 ] final  139.83 input  -57.11 | X-H torsion

> <Gold.Protein.ActiveResidues>
 VAL166  LYS551  ARG553  GLY616  TRP617  ASP618  TYR619  PRO620  LYS621  CYS622 
 ASP623  PHE694  ASN695  SER759  ASP760  ASP761  ALA762  ILE779  LEU786  VAL792 
 PHE793  MET794  SER795  GLU796  ALA797  LYS798  CYS799  TRP800  GLU811  SER814 

> <Gold.Protein.RotatedAtoms>
  152.1931  134.8654  160.0515 H   0  0  0  0  0  0  0  0  0  0  0  0  # atno 6907 bound_to 6896
  151.9536  133.3668  159.4017 H   0  0  0  0  0  0  0  0  0  0  0  0  # atno 6908 bound_to 6896
  150.6939  134.4238  159.5261 H   0  0  0  0  0  0  0  0  0  0  0  0  # atno 6909 bound_to 6896
  144.7566  139.8258  143.6347 H   0  0  0  0  0  0  0  0  0  0  0  0  # atno 7974 bound_to 7965
  155.2316  140.3338  155.4303 H   0  0  0  0  0  0  0  0  0  0  0  0  # atno 8008 bound_to 7997
  156.2292  140.1843  156.7330 H   0  0  0  0  0  0  0  0  0  0  0  0  # atno 8009 bound_to 7997
  154.5950  140.0632  156.9276 H   0  0  0  0  0  0  0  0  0  0  0  0  # atno 8010 bound_to 7997
  139.9779  144.5847  150.7927 H   0  0  0  0  0  0  0  0  0  0  0  0  # atno 10167 bound_to 10162
  157.5930  131.1062  150.7959 H   0  0  0  0  0  0  0  0  0  0  0  0  # atno 10718 bound_to 10713
  152.9812  135.6010  154.3589 H   0  0  0  0  0  0  0  0  0  0  0  0  # atno 10763 bound_to 10752
  154.3272  135.2769  155.2492 H   0  0  0  0  0  0  0  0  0  0  0  0  # atno 10764 bound_to 10752
  154.4632  135.5960  153.6326 H   0  0  0  0  0  0  0  0  0  0  0  0  # atno 10765 bound_to 10752
  140.0283  134.9364  157.0612 H   0  0  0  0  0  0  0  0  0  0  0  0  # atno 11005 bound_to 11000
  146.1583  139.4688  143.0004 LP  0  0  0  0  0  0  0  0  0  0  0  0  # atno 17320 bound_to 7965
  145.6758  141.0204  143.1633 LP  0  0  0  0  0  0  0  0  0  0  0  0  # atno 17321 bound_to 7965
  140.7499  143.2947  151.3237 LP  0  0  0  0  0  0  0  0  0  0  0  0  # atno 17342 bound_to 10162
  139.6432  144.0501  152.2570 LP  0  0  0  0  0  0  0  0  0  0  0  0  # atno 17343 bound_to 10162
  156.8376  130.5037  149.5324 LP  0  0  0  0  0  0  0  0  0  0  0  0  # atno 17370 bound_to 10713
  156.0987  130.5952  150.9858 LP  0  0  0  0  0  0  0  0  0  0  0  0  # atno 17371 bound_to 10713
  140.4269  134.1821  155.7166 LP  0  0  0  0  0  0  0  0  0  0  0  0  # atno 17394 bound_to 11000
  141.1816  133.8402  157.1238 LP  0  0  0  0  0  0  0  0  0  0  0  0  # atno 17395 bound_to 11000

$$$$
