AV-unprocessed.smi:2779|AV-procd|sdf|10711|dock4
  -GOLD-   2272015143D 1   1.00000     0.00000
 Structure written by MMmdl.
 38 39  0  0  0  0  0  0  0  0  1 V2000
  153.1001  139.5759  154.7196 O   0  0  0  0  0  0  0  0  0  0  0  0
  152.6559  138.4500  154.9430 C   0  0  0  0  0  0  0  0  0  0  0  0
  151.8336  137.7094  153.9896 C   0  0  0  0  0  0  0  0  0  0  0  0
  151.3736  136.4694  154.2618 C   0  0  0  0  0  0  0  0  0  0  0  0
  151.6992  135.8484  155.5352 C   0  0  0  0  0  0  0  0  0  0  0  0
  151.2383  134.4671  155.9308 C   0  0  0  0  0  0  0  0  0  0  0  0
  150.6244  133.8570  154.9164 F   0  0  0  0  0  0  0  0  0  0  0  0
  152.2822  133.7251  156.3018 F   0  0  0  0  0  0  0  0  0  0  0  0
  150.3886  134.5436  156.9555 F   0  0  0  0  0  0  0  0  0  0  0  0
  152.4234  136.5018  156.3858 N   0  0  0  0  0  0  0  0  0  0  0  0
  152.8933  137.7729  156.1044 N   0  0  0  0  0  0  0  0  0  0  0  0
  153.7098  138.3573  157.1751 C   0  0  0  0  0  0  0  0  0  0  0  0
  152.8902  138.5966  158.4616 C   0  0  2  0  0  0  0  0  0  0  0  0
  151.8344  139.5030  158.2122 O   0  0  0  0  0  0  0  0  0  0  0  0
  153.7307  139.1600  159.6195 C   0  0  0  0  0  0  0  0  0  0  0  0
  154.4590  140.2996  159.1891 O   0  0  0  0  0  0  0  0  0  0  0  0
  154.5531  141.3021  160.1883 C   0  0  0  0  0  0  0  0  0  0  0  0
  153.3489  142.2250  160.1883 C   0  0  0  0  0  0  0  0  0  0  0  0
  152.5993  142.4213  161.3683 C   0  0  0  0  0  0  0  0  0  0  0  0
  151.4966  143.2976  161.3697 C   0  0  0  0  0  0  0  0  0  0  0  0
  151.1419  143.9863  160.1937 C   0  0  0  0  0  0  0  0  0  0  0  0
  151.8926  143.8009  159.0167 C   0  0  0  0  0  0  0  0  0  0  0  0
  152.9957  142.9247  159.0149 C   0  0  0  0  0  0  0  0  0  0  0  0
  152.4417  137.6625  158.8016 H   0  0  0  0  0  0  0  0  0  0  0  0
  151.5894  138.1666  153.0420 H   0  0  0  0  0  0  0  0  0  0  0  0
  150.7685  135.9401  153.5410 H   0  0  0  0  0  0  0  0  0  0  0  0
  154.5419  137.6843  157.3908 H   0  0  0  0  0  0  0  0  0  0  0  0
  154.1788  139.2861  156.8435 H   0  0  0  0  0  0  0  0  0  0  0  0
  151.1062  139.2744  158.7695 H   0  0  0  0  0  0  0  0  0  0  0  0
  153.0948  139.4025  160.4731 H   0  0  0  0  0  0  0  0  0  0  0  0
  154.4363  138.3974  159.9529 H   0  0  0  0  0  0  0  0  0  0  0  0
  154.6257  140.8407  161.1742 H   0  0  0  0  0  0  0  0  0  0  0  0
  155.4610  141.8874  160.0335 H   0  0  0  0  0  0  0  0  0  0  0  0
  152.8681  141.9025  162.2769 H   0  0  0  0  0  0  0  0  0  0  0  0
  150.9249  143.4439  162.2743 H   0  0  0  0  0  0  0  0  0  0  0  0
  150.2969  144.6592  160.1955 H   0  0  0  0  0  0  0  0  0  0  0  0
  151.6242  144.3329  158.1159 H   0  0  0  0  0  0  0  0  0  0  0  0
  153.5697  142.7923  158.1094 H   0  0  0  0  0  0  0  0  0  0  0  0
  1  2  2  0  0  0  0
  2 11  1  0  0  0  0
  2  3  1  0  0  0  0
  3  4  2  0  0  0  0
  3 25  1  0  0  0  0
  4  5  1  0  0  0  0
  4 26  1  0  0  0  0
  5  6  1  0  0  0  0
  5 10  2  0  0  0  0
  6  7  1  0  0  0  0
  6  8  1  0  0  0  0
  6  9  1  0  0  0  0
 10 11  1  0  0  0  0
 11 12  1  0  0  0  0
 12 13  1  0  0  0  0
 12 27  1  0  0  0  0
 12 28  1  0  0  0  0
 13 24  1  0  0  0  0
 13 14  1  0  0  0  0
 13 15  1  0  0  0  0
 14 29  1  0  0  0  0
 15 16  1  0  0  0  0
 15 30  1  0  0  0  0
 15 31  1  0  0  0  0
 16 17  1  0  0  0  0
 17 18  1  0  0  0  0
 17 32  1  0  0  0  0
 17 33  1  0  0  0  0
 18 23  1  0  0  0  0
 18 19  2  0  0  0  0
 19 20  1  0  0  0  0
 19 34  1  0  0  0  0
 20 21  2  0  0  0  0
 20 35  1  0  0  0  0
 21 22  1  0  0  0  0
 21 36  1  0  0  0  0
 22 23  2  0  0  0  0
 22 37  1  0  0  0  0
 23 38  1  0  0  0  0
M  END
> <s_m_source_file>
AV-unprocessed.smi

> <i_m_source_file_index>
2779

> <i_lp_mmshare_version>
43012

> <i_f3d_flags>
0

> <s_epik_input>
Tz1jMVtjSF1bY0hdYyhDKEYpKEYpRilubjFbQ0gyXVtDQEhdKFtPSF0pW0NIMl1PW0NIMl1jMltjSF1bY0hdW2NIXVtjSF1bY0hdMg==

> <s_epik_cmdline>
J2VwaWtfcHl0aG9uJywgJy1waCcsICc3LjAnLCAnLXRuJywgJzgnLCAnLW1hJywgJzIwMCcsICctbWV0YWxfYmluZGluZycsICctaW1hZScsICc8aW5maWxlLm1hZT4nLCAnLW9tYWUnLCAnPG91dGZpbGUubWFlPic=

> <r_lp_tautomer_probability>
1

> <r_epik_Ionization_Penalty>
6.7226e-08

> <r_epik_Ionization_Penalty_Charging>
6.11342e-09

> <r_epik_Ionization_Penalty_Neutral>
6.11126e-08

> <r_epik_State_Penalty>
-0

> <r_epik_Charging_Adjusted_Penalty>
6.11342e-09

> <i_epik_Tot_Q>
0

> <i_epik_Tot_abs_Q>
0

> <r_epik_Metal_State_Penalty>
-0

> <b_epik_Metal_Only>
0

> <s_lp_Force_Field>
OPLS_2005

> <r_lp_Energy>
33.7736

> <b_lp_Chiralities_Consistent>
1

> <s_lp_Variant>
AV-unprocessed.smi:2779-1

> <Gold.Version>
5.8.1

> <Gold.Id.Protein>
6NUR|6NUR_protein|mol2

> <Gold.PLP.Fitness>
52.3808

> <Gold.PLP.PLP>
-46.4056

> <Gold.PLP.part.hbond>
-3.0000

> <Gold.PLP.part.metal>
0.0000

> <Gold.PLP.part.buried>
-0.9252

> <Gold.PLP.part.nonpolar>
-40.3618

> <Gold.PLP.part.repulsive>
0.0313

> <Gold.PLP.ligand.clash>
0.0000

> <Gold.PLP.ligand.torsion>
0.6118

> <Gold.PLP.Chemscore.Hbond>
2.3363

> <Gold.PLP.Chemscore.CHOScore>
0.0000

> <Gold.PLP.Chemscore.Metal>
0.0000

> <Gold.Chemscore.Hbonds>
donor molecule, donor type, donor heavy atom, donor atom, acceptor molecule, acceptor atom, score
      P1  H  7989  7998       L1     1  0.15
      P1  H  7997  8008       L1     1  1.00
      P1  H  7997  8010       L1    16  0.80

> <Gold.PLP.Chemscore.Internal.Correction>
0.1898

> <Gold.Rescore>
     Score         DG    S(hbond)    S(metal)    S(lipo)     H(rot)  DE(clash)    DE(int)     intcor
     17.77     -18.52       1.85        0.00     119.81       2.80       0.22       0.53       ----

> <Gold.Chemscore.Fitness>
17.7708

> <Gold.Chemscore.DG>
-18.5174

> <Gold.Chemscore.ZeroCoef>
-5.4800

> <Gold.Chemscore.Hbond>
1.8542

> <Gold.Chemscore.Metal>
0.0000

> <Gold.Chemscore.Lipo>
119.8105

> <Gold.Chemscore.Internal_Hbond>
0.0000

> <Gold.Chemscore.DEClash>
0.2208

> <Gold.Chemscore.DEInternal>
0.5258

> <Gold.Chemscore.Rot>
2.8022

> <Gold.Chemscore.Internal.Correction>
   9.000000E+99

> <Gold.Chemscore.Hbonds>
donor molecule, donor type, donor heavy atom, donor atom, acceptor molecule, acceptor atom, score
      P1  H  7989  7998       L1     1  0.13
      P1  H  7997  8008       L1     1  0.97
      P1  H  7997  8010       L1    16  0.63

> <Gold.Chemscore.Hbond.Weighted>
-6.1931

> <Gold.Chemscore.Metal.Weighted>
-0.0000

> <Gold.Chemscore.Lipo.Weighted>
-14.0178

> <Gold.Chemscore.Internal_Hbond.Weighted>
0.0000

> <Gold.Chemscore.DEClash.Weighted>
0.2208

> <Gold.Chemscore.DEInternal.Weighted>
0.5258

> <Gold.Chemscore.Rot.Weighted>
7.1736

> <Gold.Chemscore.Internal.Correction.Weighted>
   9.000000E+99

> <Gold.Protein.RotatedTorsions>
[ 6907 6896 6895 6894 ] final -104.40 input  -60.11 | X-H torsion
[ 7974 7965 7964 7962 ] final  154.69 input  175.53 | X-H torsion
[ 8008 7997 7996 7995 ] final   -8.23 input   59.86 | X-H torsion
[ 10167 10162 10161 10158 ] final  -69.98 input  -65.29 | X-H torsion
[ 10718 10713 10712 10709 ] final   14.54 input   66.30 | X-H torsion
[ 10763 10752 10751 10750 ] final -175.03 input  -60.55 | X-H torsion
[ 11005 11000 10999 10996 ] final  128.44 input  -57.11 | X-H torsion

> <Gold.Protein.ActiveResidues>
 VAL166  LYS551  ARG553  GLY616  TRP617  ASP618  TYR619  PRO620  LYS621  CYS622 
 ASP623  PHE694  ASN695  SER759  ASP760  ASP761  ALA762  ILE779  LEU786  VAL792 
 PHE793  MET794  SER795  GLU796  ALA797  LYS798  CYS799  TRP800  GLU811  SER814 

> <Gold.Protein.RotatedAtoms>
  150.7285  134.0284  159.3724 H   0  0  0  0  0  0  0  0  0  0  0  0  # atno 6907 bound_to 6896
  151.8252  135.0637  160.0439 H   0  0  0  0  0  0  0  0  0  0  0  0  # atno 6908 bound_to 6896
  152.2974  133.5585  159.5633 H   0  0  0  0  0  0  0  0  0  0  0  0  # atno 6909 bound_to 6896
  144.8073  139.6967  143.6157 H   0  0  0  0  0  0  0  0  0  0  0  0  # atno 7974 bound_to 7965
  154.5761  140.2386  155.8121 H   0  0  0  0  0  0  0  0  0  0  0  0  # atno 8008 bound_to 7997
  156.2144  140.3016  155.9763 H   0  0  0  0  0  0  0  0  0  0  0  0  # atno 8009 bound_to 7997
  155.2625  140.0415  157.2989 H   0  0  0  0  0  0  0  0  0  0  0  0  # atno 8010 bound_to 7997
  140.5388  143.2316  151.7127 H   0  0  0  0  0  0  0  0  0  0  0  0  # atno 10167 bound_to 10162
  157.0406  130.6229  149.5750 H   0  0  0  0  0  0  0  0  0  0  0  0  # atno 10718 bound_to 10713
  154.5892  135.2843  155.0653 H   0  0  0  0  0  0  0  0  0  0  0  0  # atno 10763 bound_to 10752
  154.1960  135.6432  153.5077 H   0  0  0  0  0  0  0  0  0  0  0  0  # atno 10764 bound_to 10752
  153.0115  135.5457  154.6572 H   0  0  0  0  0  0  0  0  0  0  0  0  # atno 10765 bound_to 10752
  139.9561  134.9612  156.9002 H   0  0  0  0  0  0  0  0  0  0  0  0  # atno 11005 bound_to 11000
  146.2366  139.5917  142.9520 LP  0  0  0  0  0  0  0  0  0  0  0  0  # atno 17320 bound_to 7965
  145.5409  141.0421  143.2331 LP  0  0  0  0  0  0  0  0  0  0  0  0  # atno 17321 bound_to 7965
  139.4981  144.4001  152.0190 LP  0  0  0  0  0  0  0  0  0  0  0  0  # atno 17342 bound_to 10162
  140.3108  144.3540  150.6034 LP  0  0  0  0  0  0  0  0  0  0  0  0  # atno 17343 bound_to 10162
  156.0039  130.5123  150.7762 LP  0  0  0  0  0  0  0  0  0  0  0  0  # atno 17370 bound_to 10713
  157.5107  131.0925  151.0201 LP  0  0  0  0  0  0  0  0  0  0  0  0  # atno 17371 bound_to 10713
  140.5607  134.0538  155.7398 LP  0  0  0  0  0  0  0  0  0  0  0  0  # atno 17394 bound_to 11000
  141.1232  133.9426  157.2688 LP  0  0  0  0  0  0  0  0  0  0  0  0  # atno 17395 bound_to 11000

$$$$
