AV-unprocessed.smi:3198|AV-procd|sdf|12230|dock4
  -GOLD-   2272018 63D 1   1.00000     0.00000
 Structure written by MMmdl.
 37 38  0  0  0  0  0  0  0  0  1 V2000
  152.1077  145.2650  159.3145 C   0  0  0  0  0  0  0  0  0  0  0  0
  152.1871  143.7533  159.2887 C   0  0  0  0  0  0  0  0  0  0  0  0
  153.0471  143.0566  160.1622 C   0  0  0  0  0  0  0  0  0  0  0  0
  153.0732  141.6510  160.0916 C   0  0  0  0  0  0  0  0  0  0  0  0
  152.2427  141.0016  159.1578 C   0  0  0  0  0  0  0  0  0  0  0  0
  151.4128  141.7825  158.3263 C   0  0  0  0  0  0  0  0  0  0  0  0
  150.5881  141.1294  157.3987 N   0  0  0  0  0  0  0  0  0  0  0  0
  150.9815  140.9822  156.0022 C   0  0  0  0  0  0  0  0  0  0  0  0
  149.9932  140.1207  155.2030 C   0  0  0  0  0  0  0  0  0  0  0  0
  150.6848  139.4910  154.1377 O   0  0  0  0  0  0  0  0  0  0  0  0
  151.7151  138.6259  154.5876 C   0  0  0  0  0  0  0  0  0  0  0  0
  151.1188  137.5207  155.4702 C   0  0  1  0  0  0  0  0  0  0  0  0
  149.7982  136.9183  154.9679 C   0  0  0  0  0  0  0  0  0  0  0  0
  149.9955  135.4166  155.1181 C   0  0  0  0  0  0  0  0  0  0  0  0
  151.2543  135.2982  155.9714 C   0  0  0  0  0  0  0  0  0  0  0  0
  152.0179  136.4258  155.5789 O   0  0  0  0  0  0  0  0  0  0  0  0
  151.3894  143.1355  158.3906 N   0  0  0  0  0  0  0  0  0  0  0  0
  152.8575  145.6895  159.9825 H   0  0  0  0  0  0  0  0  0  0  0  0
  151.1239  145.5855  159.6582 H   0  0  0  0  0  0  0  0  0  0  0  0
  152.2727  145.6718  158.3163 H   0  0  0  0  0  0  0  0  0  0  0  0
  153.6713  143.5827  160.8694 H   0  0  0  0  0  0  0  0  0  0  0  0
  153.7183  141.0803  160.7430 H   0  0  0  0  0  0  0  0  0  0  0  0
  152.2441  139.9237  159.0856 H   0  0  0  0  0  0  0  0  0  0  0  0
  149.6225  140.9593  157.6397 H   0  0  0  0  0  0  0  0  0  0  0  0
  151.0775  141.9671  155.5439 H   0  0  0  0  0  0  0  0  0  0  0  0
  151.9745  140.5340  155.9667 H   0  0  0  0  0  0  0  0  0  0  0  0
  149.5116  139.3806  155.8441 H   0  0  0  0  0  0  0  0  0  0  0  0
  149.2061  140.7558  154.7944 H   0  0  0  0  0  0  0  0  0  0  0  0
  152.2314  138.1798  153.7362 H   0  0  0  0  0  0  0  0  0  0  0  0
  152.4524  139.1943  155.1566 H   0  0  0  0  0  0  0  0  0  0  0  0
  150.9661  137.9128  156.4771 H   0  0  0  0  0  0  0  0  0  0  0  0
  148.9617  137.2750  155.5696 H   0  0  0  0  0  0  0  0  0  0  0  0
  149.5878  137.1728  153.9286 H   0  0  0  0  0  0  0  0  0  0  0  0
  149.1369  134.9161  155.5661 H   0  0  0  0  0  0  0  0  0  0  0  0
  150.1727  134.9705  154.1386 H   0  0  0  0  0  0  0  0  0  0  0  0
  151.0149  135.3696  157.0338 H   0  0  0  0  0  0  0  0  0  0  0  0
  151.7938  134.3666  155.8001 H   0  0  0  0  0  0  0  0  0  0  0  0
  1  2  1  0  0  0  0
  1 18  1  0  0  0  0
  1 19  1  0  0  0  0
  1 20  1  0  0  0  0
  2 17  1  0  0  0  0
  2  3  2  0  0  0  0
  3  4  1  0  0  0  0
  3 21  1  0  0  0  0
  4  5  2  0  0  0  0
  4 22  1  0  0  0  0
  5  6  1  0  0  0  0
  5 23  1  0  0  0  0
  6  7  1  0  0  0  0
  6 17  2  0  0  0  0
  7  8  1  0  0  0  0
  7 24  1  0  0  0  0
  8  9  1  0  0  0  0
  8 25  1  0  0  0  0
  8 26  1  0  0  0  0
  9 10  1  0  0  0  0
  9 27  1  0  0  0  0
  9 28  1  0  0  0  0
 10 11  1  0  0  0  0
 11 12  1  0  0  0  0
 11 29  1  0  0  0  0
 11 30  1  0  0  0  0
 12 16  1  0  0  0  0
 12 13  1  0  0  0  0
 12 31  1  0  0  0  0
 13 14  1  0  0  0  0
 13 32  1  0  0  0  0
 13 33  1  0  0  0  0
 14 15  1  0  0  0  0
 14 34  1  0  0  0  0
 14 35  1  0  0  0  0
 15 16  1  0  0  0  0
 15 36  1  0  0  0  0
 15 37  1  0  0  0  0
M  END
> <s_m_source_file>
AV-unprocessed.smi

> <i_m_source_file_index>
3198

> <i_lp_mmshare_version>
43012

> <i_f3d_flags>
0

> <s_epik_input>
W0NIM11jMVtjSF1bY0hdW2NIXWMobjEpW05IXVtDSDJdW0NIMl1PW0NIMl1bQ0BASF0yW0NIMl1bQ0gyXVtDSDJdTzI=

> <s_epik_cmdline>
J2VwaWtfcHl0aG9uJywgJy1waCcsICc3LjAnLCAnLXRuJywgJzgnLCAnLW1hJywgJzIwMCcsICctbWV0YWxfYmluZGluZycsICctaW1hZScsICc8aW5maWxlLm1hZT4nLCAnLW9tYWUnLCAnPG91dGZpbGUubWFlPic=

> <r_lp_tautomer_probability>
1

> <r_epik_Ionization_Penalty>
1.29225

> <r_epik_Ionization_Penalty_Charging>
0

> <r_epik_Ionization_Penalty_Neutral>
1.29225

> <r_epik_State_Penalty>
1.3654

> <r_epik_Charging_Adjusted_Penalty>
1.3654

> <i_epik_Tot_Q>
0

> <i_epik_Tot_abs_Q>
0

> <r_epik_Metal_State_Penalty>
0.00531989

> <b_epik_Metal_Only>
0

> <s_lp_Force_Field>
OPLS_2005

> <r_lp_Energy>
18.8909

> <b_lp_Chiralities_Consistent>
1

> <s_lp_Variant>
AV-unprocessed.smi:3198-4

> <Gold.Version>
5.8.1

> <Gold.Id.Protein>
6NUR|6NUR_protein|mol2

> <Gold.PLP.Fitness>
40.9491

> <Gold.PLP.PLP>
-37.1687

> <Gold.PLP.part.hbond>
-2.0000

> <Gold.PLP.part.metal>
0.0000

> <Gold.PLP.part.buried>
-4.7670

> <Gold.PLP.part.nonpolar>
-30.3535

> <Gold.PLP.part.repulsive>
0.3363

> <Gold.PLP.ligand.clash>
0.0000

> <Gold.PLP.ligand.torsion>
1.0815

> <Gold.PLP.Chemscore.Hbond>
1.9500

> <Gold.PLP.Chemscore.CHOScore>
0.0000

> <Gold.PLP.Chemscore.Metal>
0.0000

> <Gold.Chemscore.Hbonds>
donor molecule, donor type, donor heavy atom, donor atom, acceptor molecule, acceptor atom, score
      P1  H  7989  7998       L1    10  1.00
      P1  H 10752 10764       L1    16  0.60

> <Gold.PLP.Chemscore.Internal.Correction>
0.0934

> <Gold.Rescore>
     Score         DG    S(hbond)    S(metal)    S(lipo)     H(rot)  DE(clash)    DE(int)     intcor
     14.69     -15.82       0.96        0.00      96.49       1.63       0.02       1.11       ----

> <Gold.Chemscore.Fitness>
14.6898

> <Gold.Chemscore.DG>
-15.8158

> <Gold.Chemscore.ZeroCoef>
-5.4800

> <Gold.Chemscore.Hbond>
0.9645

> <Gold.Chemscore.Metal>
0.0000

> <Gold.Chemscore.Lipo>
96.4950

> <Gold.Chemscore.Internal_Hbond>
0.0000

> <Gold.Chemscore.DEClash>
0.0181

> <Gold.Chemscore.DEInternal>
1.1078

> <Gold.Chemscore.Rot>
1.6311

> <Gold.Chemscore.Internal.Correction>
   9.000000E+99

> <Gold.Chemscore.Hbonds>
donor molecule, donor type, donor heavy atom, donor atom, acceptor molecule, acceptor atom, score
      P1  H  7989  7998       L1    10  0.10
      P1  H 10752 10764       L1    16  0.04

> <Gold.Chemscore.Hbond.Weighted>
-3.2215

> <Gold.Chemscore.Metal.Weighted>
-0.0000

> <Gold.Chemscore.Lipo.Weighted>
-11.2899

> <Gold.Chemscore.Internal_Hbond.Weighted>
0.0000

> <Gold.Chemscore.DEClash.Weighted>
0.0181

> <Gold.Chemscore.DEInternal.Weighted>
1.1078

> <Gold.Chemscore.Rot.Weighted>
4.1757

> <Gold.Chemscore.Internal.Correction.Weighted>
   9.000000E+99

> <Gold.Protein.RotatedTorsions>
[ 6907 6896 6895 6894 ] final  -29.23 input  -60.11 | X-H torsion
[ 7974 7965 7964 7962 ] final   91.17 input  175.53 | X-H torsion
[ 8008 7997 7996 7995 ] final   86.66 input   59.86 | X-H torsion
[ 10167 10162 10161 10158 ] final    6.98 input  -65.29 | X-H torsion
[ 10718 10713 10712 10709 ] final -165.68 input   66.30 | X-H torsion
[ 10763 10752 10751 10750 ] final  -50.84 input  -60.55 | X-H torsion
[ 11005 11000 10999 10996 ] final  134.18 input  -57.11 | X-H torsion

> <Gold.Protein.ActiveResidues>
 VAL166  LYS551  ARG553  GLY616  TRP617  ASP618  TYR619  PRO620  LYS621  CYS622 
 ASP623  PHE694  ASN695  SER759  ASP760  ASP761  ALA762  ILE779  LEU786  VAL792 
 PHE793  MET794  SER795  GLU796  ALA797  LYS798  CYS799  TRP800  GLU811  SER814 

> <Gold.Protein.RotatedAtoms>
  151.1220  135.0084  159.8542 H   0  0  0  0  0  0  0  0  0  0  0  0  # atno 6907 bound_to 6896
  152.5448  134.1711  159.8607 H   0  0  0  0  0  0  0  0  0  0  0  0  # atno 6908 bound_to 6896
  151.1770  133.4703  159.2627 H   0  0  0  0  0  0  0  0  0  0  0  0  # atno 6909 bound_to 6896
  145.5093  139.2276  143.2734 H   0  0  0  0  0  0  0  0  0  0  0  0  # atno 7974 bound_to 7965
  155.9656  140.3390  155.6529 H   0  0  0  0  0  0  0  0  0  0  0  0  # atno 8008 bound_to 7997
  155.6742  140.0730  157.2527 H   0  0  0  0  0  0  0  0  0  0  0  0  # atno 8009 bound_to 7997
  154.4153  140.1686  156.1899 H   0  0  0  0  0  0  0  0  0  0  0  0  # atno 8010 bound_to 7997
  140.6398  143.7802  150.7411 H   0  0  0  0  0  0  0  0  0  0  0  0  # atno 10167 bound_to 10162
  156.6570  130.9030  151.3023 H   0  0  0  0  0  0  0  0  0  0  0  0  # atno 10718 bound_to 10713
  154.1169  135.6540  153.4895 H   0  0  0  0  0  0  0  0  0  0  0  0  # atno 10763 bound_to 10752
  153.0238  135.5261  154.7136 H   0  0  0  0  0  0  0  0  0  0  0  0  # atno 10764 bound_to 10752
  154.6332  135.2979  155.0162 H   0  0  0  0  0  0  0  0  0  0  0  0  # atno 10765 bound_to 10752
  139.9898  134.9519  156.9830 H   0  0  0  0  0  0  0  0  0  0  0  0  # atno 11005 bound_to 11000
  146.2177  140.5898  142.9031 LP  0  0  0  0  0  0  0  0  0  0  0  0  # atno 17320 bound_to 7965
  144.7736  140.5692  143.6653 LP  0  0  0  0  0  0  0  0  0  0  0  0  # atno 17321 bound_to 7965
  140.1431  143.4424  152.2181 LP  0  0  0  0  0  0  0  0  0  0  0  0  # atno 17342 bound_to 10162
  139.5607  144.7403  151.4164 LP  0  0  0  0  0  0  0  0  0  0  0  0  # atno 17343 bound_to 10162
  157.7122  130.9454  150.1129 LP  0  0  0  0  0  0  0  0  0  0  0  0  # atno 17370 bound_to 10713
  156.2040  130.3662  149.8752 LP  0  0  0  0  0  0  0  0  0  0  0  0  # atno 17371 bound_to 10713
  140.4930  134.1174  155.7236 LP  0  0  0  0  0  0  0  0  0  0  0  0  # atno 17394 bound_to 11000
  141.1556  133.8888  157.1985 LP  0  0  0  0  0  0  0  0  0  0  0  0  # atno 17395 bound_to 11000

$$$$
