AV-unprocessed.smi:36|AV-procd|sdf|298|dock6
  -GOLD-   2262016103D 1   1.00000     0.00000
 Structure written by MMmdl.
 63 66  0  0  0  0  0  0  0  0  2 V2000
  146.0685  129.8924  160.0802 C   0  0  0  0  0  0  0  0  0  0  0  0
  146.6237  131.1656  159.4206 C   0  0  0  0  0  0  0  0  0  0  0  0
  145.4653  132.0326  158.9001 C   0  0  0  0  0  0  0  0  0  0  0  0
  147.4511  131.9664  160.4403 C   0  0  0  0  0  0  0  0  0  0  0  0
  147.7482  130.6837  157.9533 Si  0  0  0  0  0  0  0  0  0  0  0  0
  149.2091  129.6167  158.5376 C   0  0  0  0  0  0  0  0  0  0  0  0
  146.7722  129.7617  156.6093 C   0  0  0  0  0  0  0  0  0  0  0  0
  148.3552  132.1111  157.2791 O   0  0  0  0  0  0  0  0  0  0  0  0
  148.5919  132.2906  155.8986 C   0  0  0  0  0  0  0  0  0  0  0  0
  148.9151  133.7699  155.6463 C   0  0  1  0  0  0  0  0  0  0  0  0
  150.0537  134.1868  156.3986 O   0  0  0  0  0  0  0  0  0  0  0  0
  150.7812  135.1450  155.6896 C   0  0  2  0  0  0  0  0  0  0  0  0
  150.8947  136.3813  156.5219 N   0  0  0  0  0  0  0  0  0  0  0  0
  149.8881  137.1185  157.0316 C   0  0  0  0  0  0  0  0  0  0  0  0
  150.2139  138.1860  157.7573 N   0  0  0  0  0  0  0  0  0  0  0  0
  151.5996  138.1445  157.7102 C   0  0  0  0  0  0  0  0  0  0  0  0
  152.6022  138.9766  158.2808 C   0  0  0  0  0  0  0  0  0  0  0  0
  152.3148  140.0474  159.0372 N   0  5  0  0  0  0  0  0  0  0  0  0
  153.3202  140.8143  159.5305 C   0  0  0  0  0  0  0  0  0  0  0  0
  154.5084  140.5119  159.6603 O   0  0  0  0  0  0  0  0  0  0  0  0
  152.8857  142.2117  159.8835 C   0  0  0  0  0  0  0  0  0  0  0  0
  152.3975  142.4860  161.1818 C   0  0  0  0  0  0  0  0  0  0  0  0
  151.9618  143.7807  161.5250 C   0  0  0  0  0  0  0  0  0  0  0  0
  152.0001  144.8137  160.5699 C   0  0  0  0  0  0  0  0  0  0  0  0
  152.4714  144.5501  159.2702 C   0  0  0  0  0  0  0  0  0  0  0  0
  152.9080  143.2556  158.9263 C   0  0  0  0  0  0  0  0  0  0  0  0
  153.8937  138.6518  158.0169 N   0  0  0  0  0  0  0  0  0  0  0  0
  154.1824  137.5815  157.2675 C   0  0  0  0  0  0  0  0  0  0  0  0
  153.3492  136.7111  156.6899 N   0  0  0  0  0  0  0  0  0  0  0  0
  152.0459  137.0332  156.9365 C   0  0  0  0  0  0  0  0  0  0  0  0
  150.0342  135.4267  154.3828 C   0  0  0  0  0  0  0  0  0  0  0  0
  149.2435  134.1480  154.1961 C   0  0  1  0  0  0  0  0  0  0  0  0
  150.0241  133.1600  153.5490 O   0  0  0  0  0  0  0  0  0  0  0  0
  145.4249  130.1338  160.9268 H   0  0  0  0  0  0  0  0  0  0  0  0
  146.8710  129.2535  160.4498 H   0  0  0  0  0  0  0  0  0  0  0  0
  145.4779  129.3057  159.3761 H   0  0  0  0  0  0  0  0  0  0  0  0
  144.8552  131.4900  158.1776 H   0  0  0  0  0  0  0  0  0  0  0  0
  145.8355  132.9329  158.4083 H   0  0  0  0  0  0  0  0  0  0  0  0
  144.8095  132.3473  159.7126 H   0  0  0  0  0  0  0  0  0  0  0  0
  146.8409  132.2816  161.2873 H   0  0  0  0  0  0  0  0  0  0  0  0
  147.8760  132.8636  159.9885 H   0  0  0  0  0  0  0  0  0  0  0  0
  148.2778  131.3751  160.8343 H   0  0  0  0  0  0  0  0  0  0  0  0
  148.8678  128.6978  159.0138 H   0  0  0  0  0  0  0  0  0  0  0  0
  149.8289  130.1478  159.2597 H   0  0  0  0  0  0  0  0  0  0  0  0
  149.8541  129.3284  157.7081 H   0  0  0  0  0  0  0  0  0  0  0  0
  146.3405  128.8365  156.9902 H   0  0  0  0  0  0  0  0  0  0  0  0
  147.4081  129.4986  155.7643 H   0  0  0  0  0  0  0  0  0  0  0  0
  145.9540  130.3677  156.2219 H   0  0  0  0  0  0  0  0  0  0  0  0
  149.4021  131.6468  155.5554 H   0  0  0  0  0  0  0  0  0  0  0  0
  147.6908  132.0013  155.3574 H   0  0  0  0  0  0  0  0  0  0  0  0
  148.0670  134.3772  155.9652 H   0  0  0  0  0  0  0  0  0  0  0  0
  151.8045  134.7993  155.5376 H   0  0  0  0  0  0  0  0  0  0  0  0
  148.8545  136.8530  156.8662 H   0  0  0  0  0  0  0  0  0  0  0  0
  152.3597  141.7037  161.9260 H   0  0  0  0  0  0  0  0  0  0  0  0
  151.5965  143.9800  162.5216 H   0  0  0  0  0  0  0  0  0  0  0  0
  151.6648  145.8060  160.8329 H   0  0  0  0  0  0  0  0  0  0  0  0
  152.4952  145.3402  158.5343 H   0  0  0  0  0  0  0  0  0  0  0  0
  153.2566  143.0720  157.9200 H   0  0  0  0  0  0  0  0  0  0  0  0
  155.2342  137.3937  157.1103 H   0  0  0  0  0  0  0  0  0  0  0  0
  149.3533  136.2688  154.5144 H   0  0  0  0  0  0  0  0  0  0  0  0
  150.7231  135.6566  153.5691 H   0  0  0  0  0  0  0  0  0  0  0  0
  148.3405  134.3129  153.6076 H   0  0  0  0  0  0  0  0  0  0  0  0
  150.7881  132.9892  154.0784 H   0  0  0  0  0  0  0  0  0  0  0  0
  1  2  1  0  0  0  0
  1 34  1  0  0  0  0
  1 35  1  0  0  0  0
  1 36  1  0  0  0  0
  2  3  1  0  0  0  0
  2  4  1  0  0  0  0
  2  5  1  0  0  0  0
  3 37  1  0  0  0  0
  3 38  1  0  0  0  0
  3 39  1  0  0  0  0
  4 40  1  0  0  0  0
  4 41  1  0  0  0  0
  4 42  1  0  0  0  0
  5  6  1  0  0  0  0
  5  7  1  0  0  0  0
  5  8  1  0  0  0  0
  6 43  1  0  0  0  0
  6 44  1  0  0  0  0
  6 45  1  0  0  0  0
  7 46  1  0  0  0  0
  7 47  1  0  0  0  0
  7 48  1  0  0  0  0
  8  9  1  0  0  0  0
  9 10  1  0  0  0  0
  9 49  1  0  0  0  0
  9 50  1  0  0  0  0
 10 32  1  0  0  0  0
 10 11  1  0  0  0  0
 10 51  1  0  0  0  0
 11 12  1  0  0  0  0
 12 13  1  0  0  0  0
 12 31  1  0  0  0  0
 12 52  1  0  0  0  0
 13 30  1  0  0  0  0
 13 14  1  0  0  0  0
 14 15  2  0  0  0  0
 14 53  1  0  0  0  0
 15 16  1  0  0  0  0
 16 30  2  0  0  0  0
 16 17  1  0  0  0  0
 17 18  1  0  0  0  0
 17 27  2  0  0  0  0
 18 19  1  0  0  0  0
 19 20  2  0  0  0  0
 19 21  1  0  0  0  0
 21 26  1  0  0  0  0
 21 22  2  0  0  0  0
 22 23  1  0  0  0  0
 22 54  1  0  0  0  0
 23 24  2  0  0  0  0
 23 55  1  0  0  0  0
 24 25  1  0  0  0  0
 24 56  1  0  0  0  0
 25 26  2  0  0  0  0
 25 57  1  0  0  0  0
 26 58  1  0  0  0  0
 27 28  1  0  0  0  0
 28 29  2  0  0  0  0
 28 59  1  0  0  0  0
 29 30  1  0  0  0  0
 31 32  1  0  0  0  0
 31 60  1  0  0  0  0
 31 61  1  0  0  0  0
 32 33  1  0  0  0  0
 32 62  1  0  0  0  0
 33 63  1  0  0  0  0
M  CHG  1  18  -1
M  END
> <s_m_source_file>
AV-unprocessed.smi

> <i_m_source_file_index>
36

> <i_lp_mmshare_version>
43012

> <i_f3d_flags>
0

> <s_epik_input>
W0NIM11DKFtDSDNdKShbQ0gzXSlbU2ldKFtDSDNdKShbQ0gzXSlPW0NIMl1bQ0BASF0xT1tDQEhdKFtDSDJdW0NASF0xW09IXSluKFtjSF1uMiljKGMyMyluW2NIXW5jM1tOSF1DKD1PKWM0W2NIXVtjSF1bY0hdW2NIXVtjSF00

> <s_epik_cmdline>
J2VwaWtfcHl0aG9uJywgJy1waCcsICc3LjAnLCAnLXRuJywgJzgnLCAnLW1hJywgJzIwMCcsICctbWV0YWxfYmluZGluZycsICctaW1hZScsICc8aW5maWxlLm1hZT4nLCAnLW9tYWUnLCAnPG91dGZpbGUubWFlPic=

> <r_lp_tautomer_probability>
1

> <r_epik_Ionization_Penalty>
4.75685

> <r_epik_Ionization_Penalty_Charging>
3.55822

> <r_epik_Ionization_Penalty_Neutral>
1.19863

> <r_epik_State_Penalty>
3.564

> <r_epik_Charging_Adjusted_Penalty>
7.12222

> <i_epik_Tot_Q>
-1

> <i_epik_Tot_abs_Q>
1

> <r_epik_Metal_State_Penalty>
0.523258

> <b_epik_Metal_Only>
1

> <s_epik_Chemistry_Notes>
This compound contains an acetal/aminal-like group ( X-CH(R)-Y where X, Y are N, S, or O) that may be acid/base labile, releasing an aldehyde.

> <s_lp_Force_Field>
OPLS_2005

> <r_lp_Energy>
38.0647

> <b_lp_Chiralities_Consistent>
1

> <s_lp_Variant>
AV-unprocessed.smi:36-20

> <Gold.Version>
5.8.1

> <Gold.Id.Protein>
6NUR|6NUR_protein|mol2

> <Gold.PLP.Fitness>
51.6168

> <Gold.PLP.PLP>
-47.6415

> <Gold.PLP.part.hbond>
-3.8297

> <Gold.PLP.part.metal>
0.0000

> <Gold.PLP.part.buried>
-6.1404

> <Gold.PLP.part.nonpolar>
-38.1574

> <Gold.PLP.part.repulsive>
0.0000

> <Gold.PLP.ligand.clash>
0.0000

> <Gold.PLP.ligand.torsion>
2.3392

> <Gold.PLP.Chemscore.Hbond>
2.8320

> <Gold.PLP.Chemscore.CHOScore>
0.0000

> <Gold.PLP.Chemscore.Metal>
0.0000

> <Gold.Chemscore.Hbonds>
donor molecule, donor type, donor heavy atom, donor atom, acceptor molecule, acceptor atom, score
      P1  H  7997  8010       L1    27  1.00
      P1  H 10752 10763       L1    29  0.91

> <Gold.PLP.Chemscore.Internal.Correction>
0.1578

> <Gold.Rescore>
     Score         DG    S(hbond)    S(metal)    S(lipo)     H(rot)  DE(clash)    DE(int)     intcor
     16.25     -20.23       2.47        0.00     113.84       2.67       0.08       3.89       ----

> <Gold.Chemscore.Fitness>
16.2473

> <Gold.Chemscore.DG>
-20.2261

> <Gold.Chemscore.ZeroCoef>
-5.4800

> <Gold.Chemscore.Hbond>
2.4737

> <Gold.Chemscore.Metal>
0.0000

> <Gold.Chemscore.Lipo>
113.8429

> <Gold.Chemscore.Internal_Hbond>
0.0000

> <Gold.Chemscore.DEClash>
0.0843

> <Gold.Chemscore.DEInternal>
3.8946

> <Gold.Chemscore.Rot>
2.6702

> <Gold.Chemscore.Internal.Correction>
   9.000000E+99

> <Gold.Chemscore.Hbonds>
donor molecule, donor type, donor heavy atom, donor atom, acceptor molecule, acceptor atom, score
      P1  H  7997  8010       L1    27  0.26
      P1  H 10752 10763       L1    29  0.83

> <Gold.Chemscore.Hbond.Weighted>
-8.2623

> <Gold.Chemscore.Metal.Weighted>
-0.0000

> <Gold.Chemscore.Lipo.Weighted>
-13.3196

> <Gold.Chemscore.Internal_Hbond.Weighted>
0.0000

> <Gold.Chemscore.DEClash.Weighted>
0.0843

> <Gold.Chemscore.DEInternal.Weighted>
3.8946

> <Gold.Chemscore.Rot.Weighted>
6.8358

> <Gold.Chemscore.Internal.Correction.Weighted>
   9.000000E+99

> <Gold.Protein.RotatedTorsions>
[ 6907 6896 6895 6894 ] final    8.96 input  -60.11 | X-H torsion
[ 7974 7965 7964 7962 ] final -135.30 input  175.53 | X-H torsion
[ 8008 7997 7996 7995 ] final   28.72 input   59.86 | X-H torsion
[ 10167 10162 10161 10158 ] final -159.21 input  -65.29 | X-H torsion
[ 10718 10713 10712 10709 ] final -140.27 input   66.30 | X-H torsion
[ 10763 10752 10751 10750 ] final  123.56 input  -60.55 | X-H torsion
[ 11005 11000 10999 10996 ] final -149.22 input  -57.11 | X-H torsion

> <Gold.Protein.ActiveResidues>
 VAL166  LYS551  ARG553  GLY616  TRP617  ASP618  TYR619  PRO620  LYS621  CYS622 
 ASP623  PHE694  ASN695  SER759  ASP760  ASP761  ALA762  ILE779  LEU786  VAL792 
 PHE793  MET794  SER795  GLU796  ALA797  LYS798  CYS799  TRP800  GLU811  SER814 

> <Gold.Protein.RotatedAtoms>
  151.7145  135.0906  160.0273 H   0  0  0  0  0  0  0  0  0  0  0  0  # atno 6907 bound_to 6896
  152.3641  133.6329  159.6045 H   0  0  0  0  0  0  0  0  0  0  0  0  # atno 6908 bound_to 6896
  150.7625  133.9293  159.3463 H   0  0  0  0  0  0  0  0  0  0  0  0  # atno 6909 bound_to 6896
  144.9026  140.6791  143.5075 H   0  0  0  0  0  0  0  0  0  0  0  0  # atno 7974 bound_to 7965
  155.0631  140.3192  155.4654 H   0  0  0  0  0  0  0  0  0  0  0  0  # atno 8008 bound_to 7997
  156.2808  140.2125  156.5703 H   0  0  0  0  0  0  0  0  0  0  0  0  # atno 8009 bound_to 7997
  154.7116  140.0497  157.0542 H   0  0  0  0  0  0  0  0  0  0  0  0  # atno 8010 bound_to 7997
  139.6633  143.9874  152.2239 H   0  0  0  0  0  0  0  0  0  0  0  0  # atno 10167 bound_to 10162
  156.3204  130.7531  151.1627 H   0  0  0  0  0  0  0  0  0  0  0  0  # atno 10718 bound_to 10713
  153.6475  135.3368  155.3090 H   0  0  0  0  0  0  0  0  0  0  0  0  # atno 10763 bound_to 10752
  154.8545  135.4333  154.1939 H   0  0  0  0  0  0  0  0  0  0  0  0  # atno 10764 bound_to 10752
  153.2873  135.7014  153.7401 H   0  0  0  0  0  0  0  0  0  0  0  0  # atno 10765 bound_to 10752
  140.7530  134.3384  157.5121 H   0  0  0  0  0  0  0  0  0  0  0  0  # atno 11005 bound_to 11000
  145.3590  139.1686  143.4393 LP  0  0  0  0  0  0  0  0  0  0  0  0  # atno 17320 bound_to 7965
  146.3116  140.3650  142.8668 LP  0  0  0  0  0  0  0  0  0  0  0  0  # atno 17321 bound_to 7965
  139.9619  144.6552  150.8071 LP  0  0  0  0  0  0  0  0  0  0  0  0  # atno 17342 bound_to 10162
  140.7589  143.3117  151.2830 LP  0  0  0  0  0  0  0  0  0  0  0  0  # atno 17343 bound_to 10162
  157.7410  131.0509  150.5124 LP  0  0  0  0  0  0  0  0  0  0  0  0  # atno 17370 bound_to 10713
  156.5275  130.4177  149.6218 LP  0  0  0  0  0  0  0  0  0  0  0  0  # atno 17371 bound_to 10713
  139.8784  134.9154  156.3130 LP  0  0  0  0  0  0  0  0  0  0  0  0  # atno 17394 bound_to 11000
  140.9733  133.7313  156.0566 LP  0  0  0  0  0  0  0  0  0  0  0  0  # atno 17395 bound_to 11000

$$$$
