AV-unprocessed.smi:837|AV-procd|sdf|3905|dock10
  -GOLD-   22720 1363D 1   1.00000     0.00000
 Structure written by MMmdl.
 49 51  0  0  0  0  0  0  0  0  3 V2000
  149.5515  140.5522  154.4835 C   0  0  0  0  0  0  0  0  0  0  0  0
  150.3918  141.0963  155.6597 C   0  0  1  0  0  0  0  0  0  0  0  0
  149.4601  141.6663  156.7523 C   0  0  0  0  0  0  0  0  0  0  0  0
  150.2496  142.2927  157.9105 C   0  0  0  0  0  0  0  0  0  0  0  0
  151.2257  141.2833  158.5268 C   0  0  0  0  0  0  0  0  0  0  0  0
  152.1719  140.7083  157.4590 C   0  0  0  0  0  0  0  0  0  0  0  0
  151.4319  140.0831  156.2456 C   0  0  2  0  0  0  0  0  0  0  0  0
  152.4174  139.7320  155.2371 N   0  5  0  0  0  0  0  0  0  0  0  0
  152.3973  138.3933  155.0452 C   0  0  0  0  0  0  0  0  0  0  0  0
  153.1147  137.7516  154.2778 O   0  0  0  0  0  0  0  0  0  0  0  0
  151.4773  137.8045  155.8323 N   0  0  0  0  0  0  0  0  0  0  0  0
  151.2424  136.3575  155.9047 C   0  0  0  0  0  0  0  0  0  0  0  0
  149.8191  136.0162  155.4560 C   0  0  0  0  0  0  0  0  0  0  0  0
  149.0502  136.9074  155.0967 O   0  0  0  0  0  0  0  0  0  0  0  0
  149.4824  134.7190  155.5000 N   0  0  0  0  0  0  0  0  0  0  0  0
  148.1586  134.1739  155.2157 C   0  0  0  0  0  0  0  0  0  0  0  0
  147.4143  134.9212  154.0858 C   0  0  0  0  0  0  0  0  0  0  0  0
  146.8750  134.0215  152.9828 C   0  0  0  0  0  0  0  0  0  0  0  0
  145.5318  134.1346  152.5581 C   0  0  0  0  0  0  0  0  0  0  0  0
  145.0510  133.2813  151.5441 C   0  0  0  0  0  0  0  0  0  0  0  0
  145.9192  132.3229  150.9847 C   0  0  0  0  0  0  0  0  0  0  0  0
  147.1972  132.2425  151.4146 N   0  3  0  0  0  0  0  0  0  0  0  0
  147.6995  133.0493  152.3752 C   0  0  0  0  0  0  0  0  0  0  0  0
  150.8498  138.7124  156.5877 C   0  0  0  0  0  0  0  0  0  0  0  0
  149.9671  138.5038  157.4207 O   0  0  0  0  0  0  0  0  0  0  0  0
  148.9065  139.7286  154.7907 H   0  0  0  0  0  0  0  0  0  0  0  0
  150.1819  140.1964  153.6684 H   0  0  0  0  0  0  0  0  0  0  0  0
  148.9090  141.3315  154.0735 H   0  0  0  0  0  0  0  0  0  0  0  0
  150.9592  141.9407  155.2640 H   0  0  0  0  0  0  0  0  0  0  0  0
  148.8045  142.4224  156.3193 H   0  0  0  0  0  0  0  0  0  0  0  0
  148.8044  140.8848  157.1366 H   0  0  0  0  0  0  0  0  0  0  0  0
  150.8015  143.1611  157.5491 H   0  0  0  0  0  0  0  0  0  0  0  0
  149.5623  142.6580  158.6741 H   0  0  0  0  0  0  0  0  0  0  0  0
  151.8083  141.7665  159.3114 H   0  0  0  0  0  0  0  0  0  0  0  0
  150.6703  140.4816  159.0135 H   0  0  0  0  0  0  0  0  0  0  0  0
  152.8281  141.5083  157.1116 H   0  0  0  0  0  0  0  0  0  0  0  0
  152.8252  139.9711  157.9282 H   0  0  0  0  0  0  0  0  0  0  0  0
  151.9508  135.8211  155.2712 H   0  0  0  0  0  0  0  0  0  0  0  0
  151.4190  135.9940  156.9187 H   0  0  0  0  0  0  0  0  0  0  0  0
  150.1878  134.0641  155.8060 H   0  0  0  0  0  0  0  0  0  0  0  0
  148.2271  133.1085  154.9920 H   0  0  0  0  0  0  0  0  0  0  0  0
  147.5827  134.2570  156.1376 H   0  0  0  0  0  0  0  0  0  0  0  0
  146.5847  135.4826  154.5170 H   0  0  0  0  0  0  0  0  0  0  0  0
  148.0756  135.6645  153.6398 H   0  0  0  0  0  0  0  0  0  0  0  0
  144.8698  134.8598  153.0087 H   0  0  0  0  0  0  0  0  0  0  0  0
  144.0242  133.3455  151.2150 H   0  0  0  0  0  0  0  0  0  0  0  0
  145.6293  131.6182  150.2192 H   0  0  0  0  0  0  0  0  0  0  0  0
  148.7342  132.8830  152.6365 H   0  0  0  0  0  0  0  0  0  0  0  0
  147.8064  131.5371  151.0003 H   0  0  0  0  0  0  0  0  0  0  0  0
  1  2  1  0  0  0  0
  1 26  1  0  0  0  0
  1 27  1  0  0  0  0
  1 28  1  0  0  0  0
  2  7  1  0  0  0  0
  2  3  1  0  0  0  0
  2 29  1  0  0  0  0
  3  4  1  0  0  0  0
  3 30  1  0  0  0  0
  3 31  1  0  0  0  0
  4  5  1  0  0  0  0
  4 32  1  0  0  0  0
  4 33  1  0  0  0  0
  5  6  1  0  0  0  0
  5 34  1  0  0  0  0
  5 35  1  0  0  0  0
  6  7  1  0  0  0  0
  6 36  1  0  0  0  0
  6 37  1  0  0  0  0
  7 24  1  0  0  0  0
  7  8  1  0  0  0  0
  8  9  1  0  0  0  0
  9 10  2  0  0  0  0
  9 11  1  0  0  0  0
 11 12  1  0  0  0  0
 11 24  1  0  0  0  0
 12 13  1  0  0  0  0
 12 38  1  0  0  0  0
 12 39  1  0  0  0  0
 13 14  2  0  0  0  0
 13 15  1  0  0  0  0
 15 16  1  0  0  0  0
 15 40  1  0  0  0  0
 16 17  1  0  0  0  0
 16 41  1  0  0  0  0
 16 42  1  0  0  0  0
 17 18  1  0  0  0  0
 17 43  1  0  0  0  0
 17 44  1  0  0  0  0
 18 23  1  0  0  0  0
 18 19  2  0  0  0  0
 19 20  1  0  0  0  0
 19 45  1  0  0  0  0
 20 21  2  0  0  0  0
 20 46  1  0  0  0  0
 21 22  1  0  0  0  0
 21 47  1  0  0  0  0
 22 23  2  0  0  0  0
 22 49  1  0  0  0  0
 23 48  1  0  0  0  0
 24 25  2  0  0  0  0
M  CHG  1   8  -1
M  CHG  1  22   1
M  END
> <s_m_source_file>
AV-unprocessed.smi

> <i_m_source_file_index>
837

> <i_lp_mmshare_version>
43012

> <i_f3d_flags>
0

> <s_epik_input>
W0NIMl0xW0NIMl1bQ0gyXVtDSDJdW0NAQEhdKFtDSDNdKVtDQEBdMTJbTkhdQyg9TylOKEMyPU8pW0NIMl1DKD1PKVtOSF1bQ0gyXVtDSDJdYzNbY0hdW2NIXVtjSF1uW2NIXTM=

> <s_epik_cmdline>
J2VwaWtfcHl0aG9uJywgJy1waCcsICc3LjAnLCAnLXRuJywgJzgnLCAnLW1hJywgJzIwMCcsICctbWV0YWxfYmluZGluZycsICctaW1hZScsICc8aW5maWxlLm1hZT4nLCAnLW9tYWUnLCAnPG91dGZpbGUubWFlPic=

> <r_lp_tautomer_probability>
1

> <r_epik_Ionization_Penalty>
8.27169

> <r_epik_Ionization_Penalty_Charging>
8.27169

> <r_epik_Ionization_Penalty_Neutral>
1.56557e-07

> <r_epik_State_Penalty>
8.42098

> <r_epik_Charging_Adjusted_Penalty>
16.6927

> <i_epik_Tot_Q>
0

> <i_epik_Tot_abs_Q>
2

> <r_epik_Metal_State_Penalty>
4.38565

> <b_epik_Metal_Only>
1

> <s_lp_Force_Field>
OPLS_2005

> <r_lp_Energy>
12.2851

> <b_lp_Chiralities_Consistent>
1

> <s_lp_Variant>
AV-unprocessed.smi:837-14

> <Gold.Version>
5.8.1

> <Gold.Id.Protein>
6NUR|6NUR_protein|mol2

> <Gold.PLP.Fitness>
43.1503

> <Gold.PLP.PLP>
-35.1924

> <Gold.PLP.part.hbond>
-3.4998

> <Gold.PLP.part.metal>
0.0000

> <Gold.PLP.part.buried>
-1.5797

> <Gold.PLP.part.nonpolar>
-27.8658

> <Gold.PLP.part.repulsive>
0.2620

> <Gold.PLP.ligand.clash>
0.0000

> <Gold.PLP.ligand.torsion>
0.6460

> <Gold.PLP.Chemscore.Hbond>
3.0743

> <Gold.PLP.Chemscore.CHOScore>
0.0000

> <Gold.PLP.Chemscore.Metal>
0.0000

> <Gold.Chemscore.Hbonds>
donor molecule, donor type, donor heavy atom, donor atom, acceptor molecule, acceptor atom, score
      L1  H    22    49       P1 10747  1.00
      P1  H  7989  7998       L1     8  0.40
      P1  H  7997  8008       L1     8  1.30
      P1  H 10752 10765       L1    10  0.32

> <Gold.PLP.Chemscore.Internal.Correction>
0.0270

> <Gold.Rescore>
     Score         DG    S(hbond)    S(metal)    S(lipo)     H(rot)  DE(clash)    DE(int)     intcor
     11.06     -15.49       1.56        0.00      83.07       1.92       0.28       4.16       ----

> <Gold.Chemscore.Fitness>
11.0583

> <Gold.Chemscore.DG>
-15.4949

> <Gold.Chemscore.ZeroCoef>
-5.4800

> <Gold.Chemscore.Hbond>
1.5581

> <Gold.Chemscore.Metal>
0.0000

> <Gold.Chemscore.Lipo>
83.0745

> <Gold.Chemscore.Internal_Hbond>
0.0000

> <Gold.Chemscore.DEClash>
0.2801

> <Gold.Chemscore.DEInternal>
4.1565

> <Gold.Chemscore.Rot>
1.9175

> <Gold.Chemscore.Internal.Correction>
   9.000000E+99

> <Gold.Chemscore.Hbonds>
donor molecule, donor type, donor heavy atom, donor atom, acceptor molecule, acceptor atom, score
      L1  H    22    49       P1 10747  0.93
      P1  H  7989  7998       L1     8  0.10
      P1  H  7997  8008       L1     8  0.23
      P1  H 10752 10765       L1    10  0.30

> <Gold.Chemscore.Hbond.Weighted>
-5.2039

> <Gold.Chemscore.Metal.Weighted>
-0.0000

> <Gold.Chemscore.Lipo.Weighted>
-9.7197

> <Gold.Chemscore.Internal_Hbond.Weighted>
0.0000

> <Gold.Chemscore.DEClash.Weighted>
0.2801

> <Gold.Chemscore.DEInternal.Weighted>
4.1565

> <Gold.Chemscore.Rot.Weighted>
4.9087

> <Gold.Chemscore.Internal.Correction.Weighted>
   9.000000E+99

> <Gold.Protein.RotatedTorsions>
[ 6907 6896 6895 6894 ] final  -40.03 input  -60.11 | X-H torsion
[ 7974 7965 7964 7962 ] final -120.60 input  175.53 | X-H torsion
[ 8008 7997 7996 7995 ] final  -26.78 input   59.86 | X-H torsion
[ 10167 10162 10161 10158 ] final  114.78 input  -65.29 | X-H torsion
[ 10718 10713 10712 10709 ] final  -19.87 input   66.30 | X-H torsion
[ 10763 10752 10751 10750 ] final  141.55 input  -60.55 | X-H torsion
[ 11005 11000 10999 10996 ] final   23.82 input  -57.11 | X-H torsion

> <Gold.Protein.ActiveResidues>
 VAL166  LYS551  ARG553  GLY616  TRP617  ASP618  TYR619  PRO620  LYS621  CYS622 
 ASP623  PHE694  ASN695  SER759  ASP760  ASP761  ALA762  ILE779  LEU786  VAL792 
 PHE793  MET794  SER795  GLU796  ALA797  LYS798  CYS799  TRP800  GLU811  SER814 

> <Gold.Protein.RotatedAtoms>
  150.9832  134.9183  159.7856 H   0  0  0  0  0  0  0  0  0  0  0  0  # atno 6907 bound_to 6896
  152.5228  134.3381  159.9217 H   0  0  0  0  0  0  0  0  0  0  0  0  # atno 6908 bound_to 6896
  151.3388  133.3929  159.2704 H   0  0  0  0  0  0  0  0  0  0  0  0  # atno 6909 bound_to 6896
  145.0496  140.8208  143.4217 H   0  0  0  0  0  0  0  0  0  0  0  0  # atno 7974 bound_to 7965
  154.4409  140.1890  156.0828 H   0  0  0  0  0  0  0  0  0  0  0  0  # atno 8008 bound_to 7997
  156.0425  140.3318  155.7234 H   0  0  0  0  0  0  0  0  0  0  0  0  # atno 8009 bound_to 7997
  155.5678  140.0609  157.2804 H   0  0  0  0  0  0  0  0  0  0  0  0  # atno 8010 bound_to 7997
  139.6364  144.7120  151.2326 H   0  0  0  0  0  0  0  0  0  0  0  0  # atno 10167 bound_to 10162
  156.5397  130.4675  149.6505 H   0  0  0  0  0  0  0  0  0  0  0  0  # atno 10718 bound_to 10713
  153.9410  135.2980  155.3442 H   0  0  0  0  0  0  0  0  0  0  0  0  # atno 10763 bound_to 10752
  154.7477  135.4995  153.9236 H   0  0  0  0  0  0  0  0  0  0  0  0  # atno 10764 bound_to 10752
  153.1042  135.6742  153.9723 H   0  0  0  0  0  0  0  0  0  0  0  0  # atno 10765 bound_to 10752
  140.3654  134.2080  155.7669 H   0  0  0  0  0  0  0  0  0  0  0  0  # atno 11005 bound_to 11000
  145.1544  139.2495  143.5424 LP  0  0  0  0  0  0  0  0  0  0  0  0  # atno 17320 bound_to 7965
  146.3517  140.1255  142.8599 LP  0  0  0  0  0  0  0  0  0  0  0  0  # atno 17321 bound_to 7965
  140.7467  143.6388  150.8354 LP  0  0  0  0  0  0  0  0  0  0  0  0  # atno 17342 bound_to 10162
  140.0020  143.5734  152.2872 LP  0  0  0  0  0  0  0  0  0  0  0  0  # atno 17343 bound_to 10162
  156.2983  130.7162  151.2028 LP  0  0  0  0  0  0  0  0  0  0  0  0  # atno 17370 bound_to 10713
  157.7407  131.0513  150.5146 LP  0  0  0  0  0  0  0  0  0  0  0  0  # atno 17371 bound_to 10713
  141.1971  133.8067  157.0642 LP  0  0  0  0  0  0  0  0  0  0  0  0  # atno 17394 bound_to 11000
  140.0593  134.9763  157.1277 LP  0  0  0  0  0  0  0  0  0  0  0  0  # atno 17395 bound_to 11000

$$$$
