AV-unprocessed.smi:3321|AV-procd|sdf|12772|dock1
  -GOLD-   2272019113D 1   1.00000     0.00000
 Structure written by MMmdl.
 40 41  0  0  0  0  0  0  0  0  1 V2000
  150.1706  139.4326  158.3805 C   0  0  0  0  0  0  0  0  0  0  0  0
  150.7604  140.6109  157.5896 C   0  0  1  0  0  0  0  0  0  0  0  0
  152.2027  140.7160  157.8774 N   0  0  0  0  0  0  0  0  0  0  0  0
  152.5104  140.9292  159.2890 C   0  0  0  0  0  0  0  0  0  0  0  0
  153.3374  142.2141  159.4634 C   0  0  0  0  0  0  0  0  0  0  0  0
  152.5651  143.4140  159.1932 N   0  0  0  0  0  0  0  0  0  0  0  0
  152.3144  144.4782  160.0338 C   0  0  0  0  0  0  0  0  0  0  0  0
  151.5389  145.3662  159.3449 C   0  0  0  0  0  0  0  0  0  0  0  0
  151.3678  144.7494  158.0740 C   0  0  0  0  0  0  0  0  0  0  0  0
  151.9844  143.5818  157.9855 N   0  0  0  0  0  0  0  0  0  0  0  0
  150.4427  140.4485  156.0842 C   0  0  0  0  0  0  0  0  0  0  0  0
  151.3887  140.3998  155.2952 O   0  0  0  0  0  0  0  0  0  0  0  0
  149.1554  140.3611  155.6626 N   0  0  0  0  0  0  0  0  0  0  0  0
  148.7931  140.3495  154.2386 C   0  0  0  0  0  0  0  0  0  0  0  0
  148.1080  141.6863  153.8966 C   0  0  0  0  0  0  0  0  0  0  0  0
  146.8911  141.9366  154.8089 C   0  0  0  0  0  0  0  0  0  0  0  0
  147.2404  141.7377  156.2969 C   0  0  0  0  0  0  0  0  0  0  0  0
  147.9553  140.3916  156.5101 C   0  0  0  0  0  0  0  0  0  0  0  0
  149.0963  139.3370  158.2190 H   0  0  0  0  0  0  0  0  0  0  0  0
  150.3266  139.5648  159.4517 H   0  0  0  0  0  0  0  0  0  0  0  0
  150.6336  138.4876  158.0930 H   0  0  0  0  0  0  0  0  0  0  0  0
  150.3128  141.5317  157.9607 H   0  0  0  0  0  0  0  0  0  0  0  0
  152.6430  141.4294  157.3139 H   0  0  0  0  0  0  0  0  0  0  0  0
  151.5910  141.0203  159.8675 H   0  0  0  0  0  0  0  0  0  0  0  0
  153.0569  140.0738  159.6889 H   0  0  0  0  0  0  0  0  0  0  0  0
  153.7437  142.2761  160.4738 H   0  0  0  0  0  0  0  0  0  0  0  0
  154.1924  142.1988  158.7860 H   0  0  0  0  0  0  0  0  0  0  0  0
  152.7012  144.5116  161.0415 H   0  0  0  0  0  0  0  0  0  0  0  0
  151.1518  146.3112  159.6958 H   0  0  0  0  0  0  0  0  0  0  0  0
  150.8173  145.1130  157.2189 H   0  0  0  0  0  0  0  0  0  0  0  0
  149.6491  140.1953  153.5807 H   0  0  0  0  0  0  0  0  0  0  0  0
  148.1162  139.5174  154.0402 H   0  0  0  0  0  0  0  0  0  0  0  0
  148.8244  142.5005  154.0137 H   0  0  0  0  0  0  0  0  0  0  0  0
  147.7990  141.6940  152.8510 H   0  0  0  0  0  0  0  0  0  0  0  0
  146.4952  142.9390  154.6443 H   0  0  0  0  0  0  0  0  0  0  0  0
  146.0950  141.2428  154.5356 H   0  0  0  0  0  0  0  0  0  0  0  0
  147.8841  142.5504  156.6364 H   0  0  0  0  0  0  0  0  0  0  0  0
  146.3350  141.7838  156.9024 H   0  0  0  0  0  0  0  0  0  0  0  0
  147.2934  139.5749  156.2186 H   0  0  0  0  0  0  0  0  0  0  0  0
  148.1507  140.2232  157.5670 H   0  0  0  0  0  0  0  0  0  0  0  0
  1  2  1  0  0  0  0
  1 19  1  0  0  0  0
  1 20  1  0  0  0  0
  1 21  1  0  0  0  0
  2  3  1  0  0  0  0
  2 11  1  0  0  0  0
  2 22  1  0  0  0  0
  3  4  1  0  0  0  0
  3 23  1  0  0  0  0
  4  5  1  0  0  0  0
  4 24  1  0  0  0  0
  4 25  1  0  0  0  0
  5  6  1  0  0  0  0
  5 26  1  0  0  0  0
  5 27  1  0  0  0  0
  6 10  1  0  0  0  0
  6  7  1  0  0  0  0
  7  8  2  0  0  0  0
  7 28  1  0  0  0  0
  8  9  1  0  0  0  0
  8 29  1  0  0  0  0
  9 10  2  0  0  0  0
  9 30  1  0  0  0  0
 11 12  2  0  0  0  0
 11 13  1  0  0  0  0
 13 18  1  0  0  0  0
 13 14  1  0  0  0  0
 14 15  1  0  0  0  0
 14 31  1  0  0  0  0
 14 32  1  0  0  0  0
 15 16  1  0  0  0  0
 15 33  1  0  0  0  0
 15 34  1  0  0  0  0
 16 17  1  0  0  0  0
 16 35  1  0  0  0  0
 16 36  1  0  0  0  0
 17 18  1  0  0  0  0
 17 37  1  0  0  0  0
 17 38  1  0  0  0  0
 18 39  1  0  0  0  0
 18 40  1  0  0  0  0
M  END
> <s_m_source_file>
AV-unprocessed.smi

> <i_m_source_file_index>
3321

> <i_lp_mmshare_version>
43012

> <i_f3d_flags>
0

> <s_epik_input>
W0NIMl0xW0NIMl1bQ0gyXVtDSDJdW0NIMl1OMUMoPU8pW0NASF0oW0NIM10pW05IXVtDSDJdW0NIMl1uMltjSF1bY0hdW2NIXW4y

> <s_epik_cmdline>
J2VwaWtfcHl0aG9uJywgJy1waCcsICc3LjAnLCAnLXRuJywgJzgnLCAnLW1hJywgJzIwMCcsICctbWV0YWxfYmluZGluZycsICctaW1hZScsICc8aW5maWxlLm1hZT4nLCAnLW9tYWUnLCAnPG91dGZpbGUubWFlPic=

> <r_lp_tautomer_probability>
1

> <r_epik_Ionization_Penalty>
0.736446

> <r_epik_Ionization_Penalty_Charging>
0

> <r_epik_Ionization_Penalty_Neutral>
0.736446

> <r_epik_State_Penalty>
0.761204

> <r_epik_Charging_Adjusted_Penalty>
0.761204

> <i_epik_Tot_Q>
0

> <i_epik_Tot_abs_Q>
0

> <r_epik_Metal_State_Penalty>
0.760551

> <b_epik_Metal_Only>
0

> <s_lp_Force_Field>
OPLS_2005

> <r_lp_Energy>
28.7251

> <b_lp_Chiralities_Consistent>
1

> <s_lp_Variant>
AV-unprocessed.smi:3321-4

> <Gold.Version>
5.8.1

> <Gold.Id.Protein>
6NUR|6NUR_protein|mol2

> <Gold.PLP.Fitness>
43.6568

> <Gold.PLP.PLP>
-38.5634

> <Gold.PLP.part.hbond>
-1.0000

> <Gold.PLP.part.metal>
0.0000

> <Gold.PLP.part.buried>
-4.7970

> <Gold.PLP.part.nonpolar>
-32.3986

> <Gold.PLP.part.repulsive>
0.0841

> <Gold.PLP.ligand.clash>
0.0000

> <Gold.PLP.ligand.torsion>
0.4131

> <Gold.PLP.Chemscore.Hbond>
0.9120

> <Gold.PLP.Chemscore.CHOScore>
1.0000

> <Gold.PLP.Chemscore.Metal>
0.0000

> <Gold.Chemscore.Hbonds>
donor molecule, donor type, donor heavy atom, donor atom, acceptor molecule, acceptor atom, score
      P1  H  7989  7998       L1    12  0.93
      L1  C     9    30       P1  8028  1.00

> <Gold.PLP.Chemscore.Internal.Correction>
0.1837

> <Gold.Rescore>
     Score         DG    S(hbond)    S(metal)    S(lipo)     H(rot)  DE(clash)    DE(int)     intcor
     12.99     -14.75       0.96        0.00      89.61       1.73       0.05       1.72       ----

> <Gold.Chemscore.Fitness>
12.9854

> <Gold.Chemscore.DG>
-14.7540

> <Gold.Chemscore.ZeroCoef>
-5.4800

> <Gold.Chemscore.Hbond>
0.9619

> <Gold.Chemscore.Metal>
0.0000

> <Gold.Chemscore.Lipo>
89.6069

> <Gold.Chemscore.Internal_Hbond>
0.0000

> <Gold.Chemscore.DEClash>
0.0460

> <Gold.Chemscore.DEInternal>
1.7226

> <Gold.Chemscore.Rot>
1.7277

> <Gold.Chemscore.Internal.Correction>
   9.000000E+99

> <Gold.Chemscore.Hbonds>
donor molecule, donor type, donor heavy atom, donor atom, acceptor molecule, acceptor atom, score
      P1  H  7989  7998       L1    12  0.90

> <Gold.Chemscore.Hbond.Weighted>
-3.2128

> <Gold.Chemscore.Metal.Weighted>
-0.0000

> <Gold.Chemscore.Lipo.Weighted>
-10.4840

> <Gold.Chemscore.Internal_Hbond.Weighted>
0.0000

> <Gold.Chemscore.DEClash.Weighted>
0.0460

> <Gold.Chemscore.DEInternal.Weighted>
1.7226

> <Gold.Chemscore.Rot.Weighted>
4.4228

> <Gold.Chemscore.Internal.Correction.Weighted>
   9.000000E+99

> <Gold.Protein.RotatedTorsions>
[ 6907 6896 6895 6894 ] final  -62.61 input  -60.11 | X-H torsion
[ 7974 7965 7964 7962 ] final  -81.17 input  175.53 | X-H torsion
[ 8008 7997 7996 7995 ] final -158.81 input   59.86 | X-H torsion
[ 10167 10162 10161 10158 ] final  -24.11 input  -65.29 | X-H torsion
[ 10718 10713 10712 10709 ] final  -60.57 input   66.30 | X-H torsion
[ 10763 10752 10751 10750 ] final   68.68 input  -60.55 | X-H torsion
[ 11005 11000 10999 10996 ] final  -52.80 input  -57.11 | X-H torsion

> <Gold.Protein.ActiveResidues>
 VAL166  LYS551  ARG553  GLY616  TRP617  ASP618  TYR619  PRO620  LYS621  CYS622 
 ASP623  PHE694  ASN695  SER759  ASP760  ASP761  ALA762  ILE779  LEU786  VAL792 
 PHE793  MET794  SER795  GLU796  ALA797  LYS798  CYS799  TRP800  GLU811  SER814 

> <Gold.Protein.RotatedAtoms>
  150.7704  134.6548  159.6307 H   0  0  0  0  0  0  0  0  0  0  0  0  # atno 6907 bound_to 6896
  152.3754  134.6668  160.0170 H   0  0  0  0  0  0  0  0  0  0  0  0  # atno 6908 bound_to 6896
  151.7014  133.3275  159.3304 H   0  0  0  0  0  0  0  0  0  0  0  0  # atno 6909 bound_to 6896
  145.5502  140.9497  143.1503 H   0  0  0  0  0  0  0  0  0  0  0  0  # atno 7974 bound_to 7965
  155.7531  140.0829  157.2191 H   0  0  0  0  0  0  0  0  0  0  0  0  # atno 8008 bound_to 7997
  154.4010  140.1556  156.2803 H   0  0  0  0  0  0  0  0  0  0  0  0  # atno 8009 bound_to 7997
  155.8911  140.3415  155.5959 H   0  0  0  0  0  0  0  0  0  0  0  0  # atno 8010 bound_to 7997
  140.7288  143.4382  151.0697 H   0  0  0  0  0  0  0  0  0  0  0  0  # atno 10167 bound_to 10162
  156.0981  130.4190  150.0872 H   0  0  0  0  0  0  0  0  0  0  0  0  # atno 10718 bound_to 10713
  153.0247  135.5238  154.7171 H   0  0  0  0  0  0  0  0  0  0  0  0  # atno 10763 bound_to 10752
  154.6237  135.2892  155.0299 H   0  0  0  0  0  0  0  0  0  0  0  0  # atno 10764 bound_to 10752
  154.1276  135.6598  153.4968 H   0  0  0  0  0  0  0  0  0  0  0  0  # atno 10765 bound_to 10752
  141.0943  133.6627  156.4078 H   0  0  0  0  0  0  0  0  0  0  0  0  # atno 11005 bound_to 11000
  144.7533  139.7138  143.7264 LP  0  0  0  0  0  0  0  0  0  0  0  0  # atno 17320 bound_to 7965
  146.1921  139.5168  142.9798 LP  0  0  0  0  0  0  0  0  0  0  0  0  # atno 17321 bound_to 7965
  139.8046  143.8035  152.3166 LP  0  0  0  0  0  0  0  0  0  0  0  0  # atno 17342 bound_to 10162
  139.8064  144.7353  150.9756 LP  0  0  0  0  0  0  0  0  0  0  0  0  # atno 17343 bound_to 10162
  156.8866  130.9574  151.3593 LP  0  0  0  0  0  0  0  0  0  0  0  0  # atno 17370 bound_to 10713
  157.6146  130.8609  149.9008 LP  0  0  0  0  0  0  0  0  0  0  0  0  # atno 17371 bound_to 10713
  140.5177  134.6334  157.5307 LP  0  0  0  0  0  0  0  0  0  0  0  0  # atno 17394 bound_to 11000
  139.9776  134.7190  155.9920 LP  0  0  0  0  0  0  0  0  0  0  0  0  # atno 17395 bound_to 11000

$$$$
