AV-unprocessed.smi:1579|AV-procd|sdf|6357|dock8
  -GOLD-   22720 6583D 1   1.00000     0.00000
 Structure written by MMmdl.
 47 48  0  0  0  0  0  0  0  0  2 V2000
  148.3393  131.4945  159.3163 C   0  0  0  0  0  0  0  0  0  0  0  0
  148.4470  132.9776  159.0833 C   0  0  0  0  0  0  0  0  0  0  0  0
  148.9662  133.3530  157.9604 N   0  0  0  0  0  0  0  0  0  0  0  0
  149.1077  134.6894  157.6454 N   0  0  0  0  0  0  0  0  0  0  0  0
  149.7097  134.9309  156.3287 C   0  0  0  0  0  0  0  0  0  0  0  0
  148.6465  135.2327  155.2494 C   0  0  1  0  0  0  0  0  0  0  0  0
  149.1300  136.2812  154.4326 O   0  0  0  0  0  0  0  0  0  0  0  0
  148.4051  134.0113  154.3387 C   0  0  0  0  0  0  0  0  0  0  0  0
  147.5984  134.3430  153.1359 N   0  3  2  0  0  0  0  0  0  0  0  0
  146.3301  135.0519  153.4545 C   0  0  0  0  0  0  0  0  0  0  0  0
  145.5991  135.4871  152.1718 C   0  0  0  0  0  0  0  0  0  0  0  0
  145.3316  134.3044  151.2234 C   0  0  2  0  0  0  0  0  0  0  0  0
  144.2030  133.3845  151.7216 C   0  0  0  0  0  0  0  0  0  0  0  0
  146.6476  133.5481  150.9670 C   0  0  0  0  0  0  0  0  0  0  0  0
  147.3593  133.1563  152.2748 C   0  0  0  0  0  0  0  0  0  0  0  0
  148.7363  135.7225  158.4546 C   0  0  0  0  0  0  0  0  0  0  0  0
  148.8941  136.9021  158.1350 O   0  0  0  0  0  0  0  0  0  0  0  0
  148.1486  135.2910  159.7247 C   0  0  0  0  0  0  0  0  0  0  0  0
  147.7418  136.3415  160.6012 C   0  0  0  0  0  0  0  0  0  0  0  0
  147.3933  137.1857  161.3123 N   0  0  0  0  0  0  0  0  0  0  0  0
  148.0027  133.9810  160.0456 C   0  0  0  0  0  0  0  0  0  0  0  0
  147.4003  133.4803  161.3513 C   0  0  0  0  0  0  0  0  0  0  0  0
  147.3061  131.2063  159.5108 H   0  0  0  0  0  0  0  0  0  0  0  0
  148.9424  131.1932  160.1732 H   0  0  0  0  0  0  0  0  0  0  0  0
  148.6832  130.9208  158.4544 H   0  0  0  0  0  0  0  0  0  0  0  0
  150.4497  135.7329  156.3752 H   0  0  0  0  0  0  0  0  0  0  0  0
  150.2817  134.0448  156.0469 H   0  0  0  0  0  0  0  0  0  0  0  0
  147.7147  135.5464  155.7181 H   0  0  0  0  0  0  0  0  0  0  0  0
  148.8006  136.1551  153.5552 H   0  0  0  0  0  0  0  0  0  0  0  0
  149.3739  133.6087  154.0382 H   0  0  0  0  0  0  0  0  0  0  0  0
  147.9054  133.2135  154.8906 H   0  0  0  0  0  0  0  0  0  0  0  0
  145.6900  134.4061  154.0571 H   0  0  0  0  0  0  0  0  0  0  0  0
  146.5301  135.9365  154.0576 H   0  0  0  0  0  0  0  0  0  0  0  0
  144.6640  135.9882  152.4246 H   0  0  0  0  0  0  0  0  0  0  0  0
  146.2080  136.2294  151.6537 H   0  0  0  0  0  0  0  0  0  0  0  0
  144.9956  134.7152  150.2702 H   0  0  0  0  0  0  0  0  0  0  0  0
  144.4414  132.9184  152.6773 H   0  0  0  0  0  0  0  0  0  0  0  0
  144.0072  132.5853  151.0064 H   0  0  0  0  0  0  0  0  0  0  0  0
  143.2744  133.9411  151.8501 H   0  0  0  0  0  0  0  0  0  0  0  0
  146.4623  132.6608  150.3606 H   0  0  0  0  0  0  0  0  0  0  0  0
  147.3139  134.1810  150.3788 H   0  0  0  0  0  0  0  0  0  0  0  0
  148.3116  132.6844  152.0294 H   0  0  0  0  0  0  0  0  0  0  0  0
  146.7751  132.4163  152.8237 H   0  0  0  0  0  0  0  0  0  0  0  0
  147.1461  134.2953  162.0282 H   0  0  0  0  0  0  0  0  0  0  0  0
  148.1017  132.8297  161.8741 H   0  0  0  0  0  0  0  0  0  0  0  0
  146.4869  132.9169  161.1580 H   0  0  0  0  0  0  0  0  0  0  0  0
  148.1629  134.9766  152.5876 H   0  0  0  0  0  0  0  0  0  0  0  0
  1  2  1  0  0  0  0
  1 23  1  0  0  0  0
  1 24  1  0  0  0  0
  1 25  1  0  0  0  0
  2 21  1  0  0  0  0
  2  3  2  0  0  0  0
  3  4  1  0  0  0  0
  4  5  1  0  0  0  0
  4 16  1  0  0  0  0
  5  6  1  0  0  0  0
  5 26  1  0  0  0  0
  5 27  1  0  0  0  0
  6  7  1  0  0  0  0
  6  8  1  0  0  0  0
  6 28  1  0  0  0  0
  7 29  1  0  0  0  0
  8  9  1  0  0  0  0
  8 30  1  0  0  0  0
  8 31  1  0  0  0  0
  9 15  1  0  0  0  0
  9 10  1  0  0  0  0
  9 47  1  0  0  0  0
 10 11  1  0  0  0  0
 10 32  1  0  0  0  0
 10 33  1  0  0  0  0
 11 12  1  0  0  0  0
 11 34  1  0  0  0  0
 11 35  1  0  0  0  0
 12 13  1  0  0  0  0
 12 14  1  0  0  0  0
 12 36  1  0  0  0  0
 13 37  1  0  0  0  0
 13 38  1  0  0  0  0
 13 39  1  0  0  0  0
 14 15  1  0  0  0  0
 14 40  1  0  0  0  0
 14 41  1  0  0  0  0
 15 42  1  0  0  0  0
 15 43  1  0  0  0  0
 16 17  2  0  0  0  0
 16 18  1  0  0  0  0
 18 19  1  0  0  0  0
 18 21  2  0  0  0  0
 19 20  3  0  0  0  0
 21 22  1  0  0  0  0
 22 44  1  0  0  0  0
 22 45  1  0  0  0  0
 22 46  1  0  0  0  0
M  CHG  1   9   1
M  END
> <s_m_source_file>
AV-unprocessed.smi

> <i_m_source_file_index>
1579

> <i_lp_mmshare_version>
43012

> <i_f3d_flags>
0

> <s_epik_input>
TiNDYyhjMVtDSDNdKWMoPU8pbihuYzFbQ0gzXSlbQ0gyXVtDQEhdKFtPSF0pW0NIMl1OMltDSDJdW0NIMl1bQ0hdKFtDSDNdKVtDSDJdW0NIMl0y

> <s_epik_cmdline>
J2VwaWtfcHl0aG9uJywgJy1waCcsICc3LjAnLCAnLXRuJywgJzgnLCAnLW1hJywgJzIwMCcsICctbWV0YWxfYmluZGluZycsICctaW1hZScsICc8aW5maWxlLm1hZT4nLCAnLW9tYWUnLCAnPG91dGZpbGUubWFlPic=

> <r_epik_Ionization_Penalty>
0.00136816

> <r_epik_Ionization_Penalty_Charging>
0.00136813

> <r_epik_Ionization_Penalty_Neutral>
3.19884e-08

> <r_epik_State_Penalty>
0.000910892

> <r_epik_Charging_Adjusted_Penalty>
0.00227902

> <i_epik_Tot_Q>
1

> <i_epik_Tot_abs_Q>
1

> <r_epik_Metal_State_Penalty>
-0

> <b_epik_Metal_Only>
0

> <s_lp_Force_Field>
OPLS_2005

> <r_lp_Energy>
39.3397

> <b_lp_Chiralities_Consistent>
1

> <s_lp_Variant>
AV-unprocessed.smi:1579-4

> <Gold.Version>
5.8.1

> <Gold.Id.Protein>
6NUR|6NUR_protein|mol2

> <Gold.PLP.Fitness>
42.1424

> <Gold.PLP.PLP>
-29.4615

> <Gold.PLP.part.hbond>
-4.1630

> <Gold.PLP.part.metal>
0.0000

> <Gold.PLP.part.buried>
-4.2390

> <Gold.PLP.part.nonpolar>
-21.5435

> <Gold.PLP.part.repulsive>
0.0000

> <Gold.PLP.ligand.clash>
0.0000

> <Gold.PLP.ligand.torsion>
0.9733

> <Gold.PLP.Chemscore.Hbond>
4.8684

> <Gold.PLP.Chemscore.CHOScore>
0.0000

> <Gold.PLP.Chemscore.Metal>
0.0000

> <Gold.Chemscore.Hbonds>
donor molecule, donor type, donor heavy atom, donor atom, acceptor molecule, acceptor atom, score
      L1  H     7    29       P1  7948  1.00
      L1  H     9    47       P1  7948  2.00
      P1  H  6896  6907       L1     3  0.01
      P1  H  6931  6943       L1    20  0.87
      P1  H  6934  6947       L1    20  0.98

> <Gold.PLP.Chemscore.Internal.Correction>
0.0225

> <Gold.Rescore>
     Score         DG    S(hbond)    S(metal)    S(lipo)     H(rot)  DE(clash)    DE(int)     intcor
     18.35     -19.34       3.62        0.00      62.66       2.17       0.00       0.99       ----

> <Gold.Chemscore.Fitness>
18.3461

> <Gold.Chemscore.DG>
-19.3382

> <Gold.Chemscore.ZeroCoef>
-5.4800

> <Gold.Chemscore.Hbond>
3.6187

> <Gold.Chemscore.Metal>
0.0000

> <Gold.Chemscore.Lipo>
62.6572

> <Gold.Chemscore.Internal_Hbond>
0.0000

> <Gold.Chemscore.DEClash>
0.0048

> <Gold.Chemscore.DEInternal>
0.9873

> <Gold.Chemscore.Rot>
2.1715

> <Gold.Chemscore.Internal.Correction>
   9.000000E+99

> <Gold.Chemscore.Hbonds>
donor molecule, donor type, donor heavy atom, donor atom, acceptor molecule, acceptor atom, score
      L1  H     7    29       P1  7948  0.95
      L1  H     9    47       P1  7948  0.78
      P1  H  6931  6943       L1    20  0.57
      P1  H  6934  6947       L1    20  0.92

> <Gold.Chemscore.Hbond.Weighted>
-12.0864

> <Gold.Chemscore.Metal.Weighted>
-0.0000

> <Gold.Chemscore.Lipo.Weighted>
-7.3309

> <Gold.Chemscore.Internal_Hbond.Weighted>
0.0000

> <Gold.Chemscore.DEClash.Weighted>
0.0048

> <Gold.Chemscore.DEInternal.Weighted>
0.9873

> <Gold.Chemscore.Rot.Weighted>
5.5591

> <Gold.Chemscore.Internal.Correction.Weighted>
   9.000000E+99

> <Gold.Protein.RotatedTorsions>
[ 6907 6896 6895 6894 ] final -127.33 input  -60.11 | X-H torsion
[ 7974 7965 7964 7962 ] final -156.43 input  175.53 | X-H torsion
[ 8008 7997 7996 7995 ] final   86.55 input   59.86 | X-H torsion
[ 10167 10162 10161 10158 ] final -142.56 input  -65.29 | X-H torsion
[ 10718 10713 10712 10709 ] final  170.12 input   66.30 | X-H torsion
[ 10763 10752 10751 10750 ] final -177.70 input  -60.55 | X-H torsion
[ 11005 11000 10999 10996 ] final  -43.36 input  -57.11 | X-H torsion

> <Gold.Protein.ActiveResidues>
 VAL166  LYS551  ARG553  GLY616  TRP617  ASP618  TYR619  PRO620  LYS621  CYS622 
 ASP623  PHE694  ASN695  SER759  ASP760  ASP761  ALA762  ILE779  LEU786  VAL792 
 PHE793  MET794  SER795  GLU796  ALA797  LYS798  CYS799  TRP800  GLU811  SER814 

> <Gold.Protein.RotatedAtoms>
  150.9062  133.7055  159.2866 H   0  0  0  0  0  0  0  0  0  0  0  0  # atno 6907 bound_to 6896
  151.4557  135.1032  159.9720 H   0  0  0  0  0  0  0  0  0  0  0  0  # atno 6908 bound_to 6896
  152.4905  133.8437  159.7221 H   0  0  0  0  0  0  0  0  0  0  0  0  # atno 6909 bound_to 6896
  144.7593  140.4110  143.5988 H   0  0  0  0  0  0  0  0  0  0  0  0  # atno 7974 bound_to 7965
  155.9642  140.3391  155.6517 H   0  0  0  0  0  0  0  0  0  0  0  0  # atno 8008 bound_to 7997
  155.6759  140.0732  157.2521 H   0  0  0  0  0  0  0  0  0  0  0  0  # atno 8009 bound_to 7997
  154.4150  140.1683  156.1917 H   0  0  0  0  0  0  0  0  0  0  0  0  # atno 8010 bound_to 7997
  139.8077  143.7746  152.2662 H   0  0  0  0  0  0  0  0  0  0  0  0  # atno 10167 bound_to 10162
  157.0127  131.0209  151.2798 H   0  0  0  0  0  0  0  0  0  0  0  0  # atno 10718 bound_to 10713
  154.5568  135.2817  155.0957 H   0  0  0  0  0  0  0  0  0  0  0  0  # atno 10763 bound_to 10752
  154.2381  135.6362  153.5201 H   0  0  0  0  0  0  0  0  0  0  0  0  # atno 10764 bound_to 10752
  153.0018  135.5553  154.6150 H   0  0  0  0  0  0  0  0  0  0  0  0  # atno 10765 bound_to 10752
  141.0378  133.6792  156.2722 H   0  0  0  0  0  0  0  0  0  0  0  0  # atno 11005 bound_to 11000
  145.6672  139.1592  143.2775 LP  0  0  0  0  0  0  0  0  0  0  0  0  # atno 17320 bound_to 7965
  146.1639  140.6747  142.9264 LP  0  0  0  0  0  0  0  0  0  0  0  0  # atno 17321 bound_to 7965
  139.7885  144.7419  150.9988 LP  0  0  0  0  0  0  0  0  0  0  0  0  # atno 17342 bound_to 10162
  140.7819  143.4467  151.0473 LP  0  0  0  0  0  0  0  0  0  0  0  0  # atno 17343 bound_to 10162
  157.5308  130.8057  149.7915 LP  0  0  0  0  0  0  0  0  0  0  0  0  # atno 17370 bound_to 10713
  156.0130  130.3825  150.2201 LP  0  0  0  0  0  0  0  0  0  0  0  0  # atno 17371 bound_to 10713
  140.6289  134.5284  157.5557 LP  0  0  0  0  0  0  0  0  0  0  0  0  # atno 17394 bound_to 11000
  139.9253  134.8067  156.1086 LP  0  0  0  0  0  0  0  0  0  0  0  0  # atno 17395 bound_to 11000

$$$$
