AV-unprocessed.smi:3031|AV-procd|sdf|11552|dock8
  -GOLD-   2272016513D 1   1.00000     0.00000
 Structure written by MMmdl.
 48 49  0  0  0  0  0  0  0  0  3 V2000
  150.5707  143.0507  158.0897 C   0  0  0  0  0  0  0  0  0  0  0  0
  150.5699  141.7963  157.2641 C   0  0  0  0  0  0  0  0  0  0  0  0
  151.0315  140.5045  157.6425 C   0  0  0  0  0  0  0  0  0  0  0  0
  150.8887  139.6070  156.6815 N   0  0  0  0  0  0  0  0  0  0  0  0
  150.3439  140.2926  155.6527 N   0  0  0  0  0  0  0  0  0  0  0  0
  150.0202  139.6127  154.4080 C   0  0  0  0  0  0  0  0  0  0  0  0
  148.5042  139.5310  154.0942 C   0  0  1  0  0  0  0  0  0  0  0  0
  147.8848  140.9355  154.0985 C   0  0  0  0  0  0  0  0  0  0  0  0
  148.2144  138.8896  152.7882 N   0  3  0  0  0  0  0  0  0  0  0  0
  146.7956  138.8628  152.3693 C   0  0  0  0  0  0  0  0  0  0  0  0
  145.9891  137.8059  153.1449 C   0  0  1  0  0  0  0  0  0  0  0  0
  144.9221  138.4564  153.8055 O   0  0  0  0  0  0  0  0  0  0  0  0
  145.3755  136.7362  152.2162 C   0  0  0  0  0  0  0  0  0  0  0  0
  146.2429  135.5420  152.0450 N   0  3  0  0  0  0  0  0  0  0  0  0
  146.4592  134.7768  153.2981 C   0  0  0  0  0  0  0  0  0  0  0  0
  147.3895  133.5777  153.0438 C   0  0  0  0  0  0  0  0  0  0  0  0
  146.8431  132.7564  152.0196 O   0  0  0  0  0  0  0  0  0  0  0  0
  146.7187  133.4549  150.7876 C   0  0  0  0  0  0  0  0  0  0  0  0
  145.7622  134.6457  150.9665 C   0  0  0  0  0  0  0  0  0  0  0  0
  150.1226  141.6126  155.9863 C   0  0  0  0  0  0  0  0  0  0  0  0
  150.2194  142.8637  159.1047 H   0  0  0  0  0  0  0  0  0  0  0  0
  149.9239  143.8183  157.6641 H   0  0  0  0  0  0  0  0  0  0  0  0
  151.5700  143.4792  158.1683 H   0  0  0  0  0  0  0  0  0  0  0  0
  151.4617  140.1939  158.5832 H   0  0  0  0  0  0  0  0  0  0  0  0
  150.5317  140.1562  153.6123 H   0  0  0  0  0  0  0  0  0  0  0  0
  150.4587  138.6139  154.4258 H   0  0  0  0  0  0  0  0  0  0  0  0
  147.9934  138.9647  154.8739 H   0  0  0  0  0  0  0  0  0  0  0  0
  148.0254  141.4249  155.0629 H   0  0  0  0  0  0  0  0  0  0  0  0
  146.8120  140.8942  153.9080 H   0  0  0  0  0  0  0  0  0  0  0  0
  148.3347  141.5715  153.3350 H   0  0  0  0  0  0  0  0  0  0  0  0
  148.7194  139.4140  152.0881 H   0  0  0  0  0  0  0  0  0  0  0  0
  146.3481  139.8451  152.5162 H   0  0  0  0  0  0  0  0  0  0  0  0
  146.7504  138.6425  151.3023 H   0  0  0  0  0  0  0  0  0  0  0  0
  146.6156  137.3394  153.9053 H   0  0  0  0  0  0  0  0  0  0  0  0
  144.5402  139.0921  153.2185 H   0  0  0  0  0  0  0  0  0  0  0  0
  144.3983  136.4194  152.5853 H   0  0  0  0  0  0  0  0  0  0  0  0
  145.1974  137.1918  151.2404 H   0  0  0  0  0  0  0  0  0  0  0  0
  146.8974  135.4151  154.0648 H   0  0  0  0  0  0  0  0  0  0  0  0
  145.5005  134.4258  153.6835 H   0  0  0  0  0  0  0  0  0  0  0  0
  148.3898  133.9117  152.7639 H   0  0  0  0  0  0  0  0  0  0  0  0
  147.4948  132.9845  153.9525 H   0  0  0  0  0  0  0  0  0  0  0  0
  147.6986  133.7899  150.4437 H   0  0  0  0  0  0  0  0  0  0  0  0
  146.3318  132.7725  150.0308 H   0  0  0  0  0  0  0  0  0  0  0  0
  144.7595  134.2880  151.2065 H   0  0  0  0  0  0  0  0  0  0  0  0
  145.6905  135.1990  150.0292 H   0  0  0  0  0  0  0  0  0  0  0  0
  149.6758  142.3086  155.2911 H   0  0  0  0  0  0  0  0  0  0  0  0
  148.5741  137.9453  152.7913 H   0  0  0  0  0  0  0  0  0  0  0  0
  147.1466  135.8776  151.7436 H   0  0  0  0  0  0  0  0  0  0  0  0
  1  2  1  0  0  0  0
  1 21  1  0  0  0  0
  1 22  1  0  0  0  0
  1 23  1  0  0  0  0
  2 20  2  0  0  0  0
  2  3  1  0  0  0  0
  3  4  2  0  0  0  0
  3 24  1  0  0  0  0
  4  5  1  0  0  0  0
  5  6  1  0  0  0  0
  5 20  1  0  0  0  0
  6  7  1  0  0  0  0
  6 25  1  0  0  0  0
  6 26  1  0  0  0  0
  7  8  1  0  0  0  0
  7  9  1  0  0  0  0
  7 27  1  0  0  0  0
  8 28  1  0  0  0  0
  8 29  1  0  0  0  0
  8 30  1  0  0  0  0
  9 10  1  0  0  0  0
  9 31  1  0  0  0  0
  9 47  1  0  0  0  0
 10 11  1  0  0  0  0
 10 32  1  0  0  0  0
 10 33  1  0  0  0  0
 11 12  1  0  0  0  0
 11 13  1  0  0  0  0
 11 34  1  0  0  0  0
 12 35  1  0  0  0  0
 13 14  1  0  0  0  0
 13 36  1  0  0  0  0
 13 37  1  0  0  0  0
 14 19  1  0  0  0  0
 14 15  1  0  0  0  0
 14 48  1  0  0  0  0
 15 16  1  0  0  0  0
 15 38  1  0  0  0  0
 15 39  1  0  0  0  0
 16 17  1  0  0  0  0
 16 40  1  0  0  0  0
 16 41  1  0  0  0  0
 17 18  1  0  0  0  0
 18 19  1  0  0  0  0
 18 42  1  0  0  0  0
 18 43  1  0  0  0  0
 19 44  1  0  0  0  0
 19 45  1  0  0  0  0
 20 46  1  0  0  0  0
M  CHG  1   9   1
M  CHG  1  14   1
M  END
> <s_m_source_file>
AV-unprocessed.smi

> <i_m_source_file_index>
3031

> <i_lp_mmshare_version>
43012

> <i_f3d_flags>
0

> <s_epik_input>
W0NIM11jMVtjSF1ubihbY0hdMSlbQ0gyXVtDQEhdKFtDSDNdKVtOSF1bQ0gyXVtDQEhdKFtPSF0pW0NIMl1OMltDSDJdW0NIMl1PW0NIMl1bQ0gyXTI=

> <s_epik_cmdline>
J2VwaWtfcHl0aG9uJywgJy1waCcsICc3LjAnLCAnLXRuJywgJzgnLCAnLW1hJywgJzIwMCcsICctbWV0YWxfYmluZGluZycsICctaW1hZScsICc8aW5maWxlLm1hZT4nLCAnLW9tYWUnLCAnPG91dGZpbGUubWFlPic=

> <r_lp_tautomer_probability>
1

> <r_epik_Ionization_Penalty>
1.76542

> <r_epik_Ionization_Penalty_Charging>
1.76348

> <r_epik_Ionization_Penalty_Neutral>
0.00194017

> <r_epik_State_Penalty>
1.49348

> <r_epik_Charging_Adjusted_Penalty>
3.25696

> <i_epik_Tot_Q>
2

> <i_epik_Tot_abs_Q>
2

> <r_epik_Metal_State_Penalty>
1.49349

> <b_epik_Metal_Only>
0

> <s_lp_Force_Field>
OPLS_2005

> <r_lp_Energy>
29.0022

> <b_lp_Chiralities_Consistent>
1

> <s_lp_Variant>
AV-unprocessed.smi:3031-12

> <Gold.Version>
5.8.1

> <Gold.Id.Protein>
6NUR|6NUR_protein|mol2

> <Gold.PLP.Fitness>
53.9739

> <Gold.PLP.PLP>
-36.4963

> <Gold.PLP.part.hbond>
-3.6030

> <Gold.PLP.part.metal>
0.0000

> <Gold.PLP.part.buried>
-3.4185

> <Gold.PLP.part.nonpolar>
-29.3343

> <Gold.PLP.part.repulsive>
0.2443

> <Gold.PLP.ligand.clash>
0.0000

> <Gold.PLP.ligand.torsion>
1.3060

> <Gold.PLP.Chemscore.Hbond>
5.6828

> <Gold.PLP.Chemscore.CHOScore>
0.9535

> <Gold.PLP.Chemscore.Metal>
0.0000

> <Gold.Chemscore.Hbonds>
donor molecule, donor type, donor heavy atom, donor atom, acceptor molecule, acceptor atom, score
      L1  H     9    31       P1  7957  0.71
      L1  H     9    47       P1  7948  2.00
      L1  H    12    35       P1 10175  1.00
      L1  H    14    48       P1  7948  2.00
      L1  C    20    46       P1  8028  0.93

> <Gold.PLP.Chemscore.Internal.Correction>
0.1807

> <Gold.Rescore>
     Score         DG    S(hbond)    S(metal)    S(lipo)     H(rot)  DE(clash)    DE(int)     intcor
     19.84     -21.28       3.89        0.00      84.00       2.74       0.04       1.39       ----

> <Gold.Chemscore.Fitness>
19.8405

> <Gold.Chemscore.DG>
-21.2756

> <Gold.Chemscore.ZeroCoef>
-5.4800

> <Gold.Chemscore.Hbond>
3.8895

> <Gold.Chemscore.Metal>
0.0000

> <Gold.Chemscore.Lipo>
83.9991

> <Gold.Chemscore.Internal_Hbond>
0.0000

> <Gold.Chemscore.DEClash>
0.0440

> <Gold.Chemscore.DEInternal>
1.3911

> <Gold.Chemscore.Rot>
2.7434

> <Gold.Chemscore.Internal.Correction>
   9.000000E+99

> <Gold.Chemscore.Hbonds>
donor molecule, donor type, donor heavy atom, donor atom, acceptor molecule, acceptor atom, score
      L1  H     9    31       P1  7957  0.71
      L1  H     9    47       P1  7948  0.93
      L1  H    12    35       P1 10175  1.00
      L1  H    14    48       P1  7948  0.99

> <Gold.Chemscore.Hbond.Weighted>
-12.9908

> <Gold.Chemscore.Metal.Weighted>
-0.0000

> <Gold.Chemscore.Lipo.Weighted>
-9.8279

> <Gold.Chemscore.Internal_Hbond.Weighted>
0.0000

> <Gold.Chemscore.DEClash.Weighted>
0.0440

> <Gold.Chemscore.DEInternal.Weighted>
1.3911

> <Gold.Chemscore.Rot.Weighted>
7.0231

> <Gold.Chemscore.Internal.Correction.Weighted>
   9.000000E+99

> <Gold.Protein.RotatedTorsions>
[ 6907 6896 6895 6894 ] final -148.11 input  -60.11 | X-H torsion
[ 7974 7965 7964 7962 ] final -140.04 input  175.53 | X-H torsion
[ 8008 7997 7996 7995 ] final  -51.92 input   59.86 | X-H torsion
[ 10167 10162 10161 10158 ] final   53.93 input  -65.29 | X-H torsion
[ 10718 10713 10712 10709 ] final  102.16 input   66.30 | X-H torsion
[ 10763 10752 10751 10750 ] final -176.78 input  -60.55 | X-H torsion
[ 11005 11000 10999 10996 ] final  -70.97 input  -57.11 | X-H torsion

> <Gold.Protein.ActiveResidues>
 VAL166  LYS551  ARG553  GLY616  TRP617  ASP618  TYR619  PRO620  LYS621  CYS622 
 ASP623  PHE694  ASN695  SER759  ASP760  ASP761  ALA762  ILE779  LEU786  VAL792 
 PHE793  MET794  SER795  GLU796  ALA797  LYS798  CYS799  TRP800  GLU811  SER814 

> <Gold.Protein.RotatedAtoms>
  151.1652  133.4819  159.2593 H   0  0  0  0  0  0  0  0  0  0  0  0  # atno 6907 bound_to 6896
  151.1413  135.0181  159.8637 H   0  0  0  0  0  0  0  0  0  0  0  0  # atno 6908 bound_to 6896
  152.5462  134.1545  159.8585 H   0  0  0  0  0  0  0  0  0  0  0  0  # atno 6909 bound_to 6896
  144.8628  140.6247  143.5317 H   0  0  0  0  0  0  0  0  0  0  0  0  # atno 7974 bound_to 7965
  154.4094  140.1236  156.4907 H   0  0  0  0  0  0  0  0  0  0  0  0  # atno 8008 bound_to 7997
  155.6993  140.3495  155.4906 H   0  0  0  0  0  0  0  0  0  0  0  0  # atno 8009 bound_to 7997
  155.9400  140.1085  157.1054 H   0  0  0  0  0  0  0  0  0  0  0  0  # atno 8010 bound_to 7997
  140.2355  144.3640  150.6399 H   0  0  0  0  0  0  0  0  0  0  0  0  # atno 10167 bound_to 10162
  157.6810  131.0745  150.5361 H   0  0  0  0  0  0  0  0  0  0  0  0  # atno 10718 bound_to 10713
  154.5682  135.2825  155.0853 H   0  0  0  0  0  0  0  0  0  0  0  0  # atno 10763 bound_to 10752
  154.2236  135.6387  153.5156 H   0  0  0  0  0  0  0  0  0  0  0  0  # atno 10764 bound_to 10752
  153.0049  135.5520  154.6297 H   0  0  0  0  0  0  0  0  0  0  0  0  # atno 10765 bound_to 10752
  141.1584  133.6804  156.6834 H   0  0  0  0  0  0  0  0  0  0  0  0  # atno 11005 bound_to 11000
  145.4279  139.1553  143.4038 LP  0  0  0  0  0  0  0  0  0  0  0  0  # atno 17320 bound_to 7965
  146.2873  140.4393  142.8753 LP  0  0  0  0  0  0  0  0  0  0  0  0  # atno 17321 bound_to 7965
  140.6153  143.2172  151.6805 LP  0  0  0  0  0  0  0  0  0  0  0  0  # atno 17342 bound_to 10162
  139.5095  144.3575  152.0594 LP  0  0  0  0  0  0  0  0  0  0  0  0  # atno 17343 bound_to 10162
  156.5669  130.4270  149.6037 LP  0  0  0  0  0  0  0  0  0  0  0  0  # atno 17370 bound_to 10713
  156.2773  130.7051  151.1865 LP  0  0  0  0  0  0  0  0  0  0  0  0  # atno 17371 bound_to 10713
  140.3085  134.8106  157.4157 LP  0  0  0  0  0  0  0  0  0  0  0  0  # atno 17394 bound_to 11000
  140.1199  134.5233  155.8192 LP  0  0  0  0  0  0  0  0  0  0  0  0  # atno 17395 bound_to 11000

$$$$
