AV-unprocessed.smi:1875|AV-procd|sdf|7616|dock10
  -GOLD-   22720 9343D 1   1.00000     0.00000
 Structure written by MMmdl.
 49 51  0  0  0  0  0  0  0  0  3 V2000
  142.0909  135.0641  152.9436 C   0  0  0  0  0  0  0  0  0  0  0  0
  143.4201  135.5672  152.4205 C   0  0  0  0  0  0  0  0  0  0  0  0
  143.8084  135.1211  151.2222 N   0  0  0  0  0  0  0  0  0  0  0  0
  144.9946  135.5690  150.7565 C   0  0  0  0  0  0  0  0  0  0  0  0
  145.7854  136.4742  151.4931 C   0  0  0  0  0  0  0  0  0  0  0  0
  145.2717  136.8763  152.7438 C   0  0  0  0  0  0  0  0  0  0  0  0
  146.0189  137.8625  153.6224 C   0  0  0  0  0  0  0  0  0  0  0  0
  147.3405  138.2092  153.0584 N   0  3  0  0  0  0  0  0  0  0  0  0
  148.3498  138.6300  154.0542 C   0  0  0  0  0  0  0  0  0  0  0  0
  148.2741  140.1426  154.3314 C   0  0  2  0  0  0  0  0  0  0  0  0
  147.6498  140.7814  153.2370 O   0  0  0  0  0  0  0  0  0  0  0  0
  149.6539  140.8021  154.5371 C   0  0  0  0  0  0  0  0  0  0  0  0
  150.4110  140.2268  155.6571 N   0  0  0  0  0  0  0  0  0  0  0  0
  150.7792  138.9383  155.8988 C   0  0  0  0  0  0  0  0  0  0  0  0
  151.4677  138.9219  157.0736 N   0  3  0  0  0  0  0  0  0  0  0  0
  151.5506  140.2194  157.5835 C   0  0  0  0  0  0  0  0  0  0  0  0
  152.1489  140.7078  158.7389 C   0  0  0  0  0  0  0  0  0  0  0  0
  152.0614  142.0990  158.9719 C   0  0  0  0  0  0  0  0  0  0  0  0
  152.7074  142.6652  160.2249 C   0  0  0  0  0  0  0  0  0  0  0  0
  151.3882  142.9518  158.0590 C   0  0  0  0  0  0  0  0  0  0  0  0
  151.3042  144.4466  158.3181 C   0  0  0  0  0  0  0  0  0  0  0  0
  150.7826  142.4349  156.8910 C   0  0  0  0  0  0  0  0  0  0  0  0
  150.8787  141.0622  156.6771 C   0  0  0  0  0  0  0  0  0  0  0  0
  144.0857  136.4197  153.2056 N   0  0  0  0  0  0  0  0  0  0  0  0
  141.5561  134.4871  152.1877 H   0  0  0  0  0  0  0  0  0  0  0  0
  141.4579  135.9005  153.2412 H   0  0  0  0  0  0  0  0  0  0  0  0
  142.2467  134.4242  153.8125 H   0  0  0  0  0  0  0  0  0  0  0  0
  145.3122  135.2077  149.7897 H   0  0  0  0  0  0  0  0  0  0  0  0
  146.7314  136.8346  151.1161 H   0  0  0  0  0  0  0  0  0  0  0  0
  145.4277  138.7668  153.7753 H   0  0  0  0  0  0  0  0  0  0  0  0
  146.1677  137.4153  154.6055 H   0  0  0  0  0  0  0  0  0  0  0  0
  147.7013  137.3968  152.5788 H   0  0  0  0  0  0  0  0  0  0  0  0
  148.1649  138.0841  154.9782 H   0  0  0  0  0  0  0  0  0  0  0  0
  149.3477  138.3513  153.7127 H   0  0  0  0  0  0  0  0  0  0  0  0
  147.6593  140.3145  155.2157 H   0  0  0  0  0  0  0  0  0  0  0  0
  148.2322  140.7511  152.4929 H   0  0  0  0  0  0  0  0  0  0  0  0
  150.2654  140.6858  153.6410 H   0  0  0  0  0  0  0  0  0  0  0  0
  149.5544  141.8753  154.7067 H   0  0  0  0  0  0  0  0  0  0  0  0
  150.5612  138.0825  155.2757 H   0  0  0  0  0  0  0  0  0  0  0  0
  152.6617  140.0534  159.4291 H   0  0  0  0  0  0  0  0  0  0  0  0
  153.4807  143.3880  159.9637 H   0  0  0  0  0  0  0  0  0  0  0  0
  153.1724  141.8808  160.8227 H   0  0  0  0  0  0  0  0  0  0  0  0
  151.9636  143.1621  160.8487 H   0  0  0  0  0  0  0  0  0  0  0  0
  150.7741  144.9621  157.5168 H   0  0  0  0  0  0  0  0  0  0  0  0
  152.3019  144.8805  158.3881 H   0  0  0  0  0  0  0  0  0  0  0  0
  150.7740  144.6441  159.2501 H   0  0  0  0  0  0  0  0  0  0  0  0
  150.2711  143.0840  156.1955 H   0  0  0  0  0  0  0  0  0  0  0  0
  147.2170  138.9509  152.3842 H   0  0  0  0  0  0  0  0  0  0  0  0
  151.8588  138.0867  157.4909 H   0  0  0  0  0  0  0  0  0  0  0  0
  1  2  1  0  0  0  0
  1 25  1  0  0  0  0
  1 26  1  0  0  0  0
  1 27  1  0  0  0  0
  2 24  1  0  0  0  0
  2  3  2  0  0  0  0
  3  4  1  0  0  0  0
  4  5  2  0  0  0  0
  4 28  1  0  0  0  0
  5  6  1  0  0  0  0
  5 29  1  0  0  0  0
  6  7  1  0  0  0  0
  6 24  2  0  0  0  0
  7  8  1  0  0  0  0
  7 30  1  0  0  0  0
  7 31  1  0  0  0  0
  8  9  1  0  0  0  0
  8 32  1  0  0  0  0
  8 48  1  0  0  0  0
  9 10  1  0  0  0  0
  9 33  1  0  0  0  0
  9 34  1  0  0  0  0
 10 11  1  0  0  0  0
 10 12  1  0  0  0  0
 10 35  1  0  0  0  0
 11 36  1  0  0  0  0
 12 13  1  0  0  0  0
 12 37  1  0  0  0  0
 12 38  1  0  0  0  0
 13 23  1  0  0  0  0
 13 14  1  0  0  0  0
 14 15  2  0  0  0  0
 14 39  1  0  0  0  0
 15 16  1  0  0  0  0
 15 49  1  0  0  0  0
 16 23  2  0  0  0  0
 16 17  1  0  0  0  0
 17 18  2  0  0  0  0
 17 40  1  0  0  0  0
 18 19  1  0  0  0  0
 18 20  1  0  0  0  0
 19 41  1  0  0  0  0
 19 42  1  0  0  0  0
 19 43  1  0  0  0  0
 20 21  1  0  0  0  0
 20 22  2  0  0  0  0
 21 44  1  0  0  0  0
 21 45  1  0  0  0  0
 21 46  1  0  0  0  0
 22 23  1  0  0  0  0
 22 47  1  0  0  0  0
M  CHG  1   8   1
M  CHG  1  15   1
M  END
> <s_m_source_file>
AV-unprocessed.smi

> <i_m_source_file_index>
1875

> <i_lp_mmshare_version>
43012

> <i_f3d_flags>
0

> <s_epik_input>
W0NIM11jMW5bY0hdW2NIXWMobjEpW0NIMl1bTkhdW0NIMl1bQ0BIXShbT0hdKVtDSDJdbihbY0hdbjIpYyhjMjMpW2NIXWMoW0NIM10pYyhbY0hdMylbQ0gzXQ==

> <s_epik_cmdline>
J2VwaWtfcHl0aG9uJywgJy1waCcsICc3LjAnLCAnLXRuJywgJzgnLCAnLW1hJywgJzIwMCcsICctbWV0YWxfYmluZGluZycsICctaW1hZScsICc8aW5maWxlLm1hZT4nLCAnLW9tYWUnLCAnPG91dGZpbGUubWFlPic=

> <r_lp_tautomer_probability>
1

> <r_epik_Ionization_Penalty>
1.27527

> <r_epik_Ionization_Penalty_Charging>
1.27526

> <r_epik_Ionization_Penalty_Neutral>
8.72389e-06

> <r_epik_State_Penalty>
1.28654

> <r_epik_Charging_Adjusted_Penalty>
2.5618

> <i_epik_Tot_Q>
2

> <i_epik_Tot_abs_Q>
2

> <r_epik_Metal_State_Penalty>
1.36882

> <b_epik_Metal_Only>
0

> <s_epik_Chemistry_Notes>
This compound contains an electron-poor aromatic ring that is susceptible to covalent hydrolysis at low pH, typically resulting in measured values for nitrogen ring protonation that are around two units higher than predicted values.

> <s_lp_Force_Field>
OPLS_2005

> <r_lp_Energy>
13.455

> <b_lp_Chiralities_Consistent>
1

> <s_lp_Variant>
AV-unprocessed.smi:1875-5

> <Gold.Version>
5.8.1

> <Gold.Id.Protein>
6NUR|6NUR_protein|mol2

> <Gold.PLP.Fitness>
54.6886

> <Gold.PLP.PLP>
-44.3730

> <Gold.PLP.part.hbond>
-2.0000

> <Gold.PLP.part.metal>
0.0000

> <Gold.PLP.part.buried>
-4.1511

> <Gold.PLP.part.nonpolar>
-39.8805

> <Gold.PLP.part.repulsive>
0.3858

> <Gold.PLP.ligand.clash>
0.0000

> <Gold.PLP.ligand.torsion>
0.8832

> <Gold.PLP.Chemscore.Hbond>
3.0000

> <Gold.PLP.Chemscore.CHOScore>
1.0000

> <Gold.PLP.Chemscore.Metal>
0.0000

> <Gold.Chemscore.Hbonds>
donor molecule, donor type, donor heavy atom, donor atom, acceptor molecule, acceptor atom, score
      L1  H     8    32       P1  7948  2.00
      L1  H    11    36       P1  7957  1.00
      L1  C     4    28       P1  7921  1.00

> <Gold.PLP.Chemscore.Internal.Correction>
0.0820

> <Gold.Rescore>
     Score         DG    S(hbond)    S(metal)    S(lipo)     H(rot)  DE(clash)    DE(int)     intcor
     16.72     -18.10       1.94        0.00     115.51       2.88       0.54       0.85       ----

> <Gold.Chemscore.Fitness>
16.7176

> <Gold.Chemscore.DG>
-18.1047

> <Gold.Chemscore.ZeroCoef>
-5.4800

> <Gold.Chemscore.Hbond>
1.9439

> <Gold.Chemscore.Metal>
0.0000

> <Gold.Chemscore.Lipo>
115.5071

> <Gold.Chemscore.Internal_Hbond>
0.0000

> <Gold.Chemscore.DEClash>
0.5379

> <Gold.Chemscore.DEInternal>
0.8492

> <Gold.Chemscore.Rot>
2.8838

> <Gold.Chemscore.Internal.Correction>
   9.000000E+99

> <Gold.Chemscore.Hbonds>
donor molecule, donor type, donor heavy atom, donor atom, acceptor molecule, acceptor atom, score
      L1  H     8    32       P1  7948  0.99
      L1  H    11    36       P1  7957  0.93

> <Gold.Chemscore.Hbond.Weighted>
-6.4928

> <Gold.Chemscore.Metal.Weighted>
-0.0000

> <Gold.Chemscore.Lipo.Weighted>
-13.5143

> <Gold.Chemscore.Internal_Hbond.Weighted>
0.0000

> <Gold.Chemscore.DEClash.Weighted>
0.5379

> <Gold.Chemscore.DEInternal.Weighted>
0.8492

> <Gold.Chemscore.Rot.Weighted>
7.3824

> <Gold.Chemscore.Internal.Correction.Weighted>
   9.000000E+99

> <Gold.Protein.RotatedTorsions>
[ 6907 6896 6895 6894 ] final  111.61 input  -60.11 | X-H torsion
[ 7974 7965 7964 7962 ] final  122.90 input  175.53 | X-H torsion
[ 8008 7997 7996 7995 ] final -101.05 input   59.86 | X-H torsion
[ 10167 10162 10161 10158 ] final  -22.05 input  -65.29 | X-H torsion
[ 10718 10713 10712 10709 ] final  -68.08 input   66.30 | X-H torsion
[ 10763 10752 10751 10750 ] final   94.77 input  -60.55 | X-H torsion
[ 11005 11000 10999 10996 ] final -142.16 input  -57.11 | X-H torsion

> <Gold.Protein.ActiveResidues>
 VAL166  LYS551  ARG553  GLY616  TRP617  ASP618  TYR619  PRO620  LYS621  CYS622 
 ASP623  PHE694  ASN695  SER759  ASP760  ASP761  ALA762  ILE779  LEU786  VAL792 
 PHE793  MET794  SER795  GLU796  ALA797  LYS798  CYS799  TRP800  GLU811  SER814 

> <Gold.Protein.RotatedAtoms>
  152.4960  133.8633  159.7260 H   0  0  0  0  0  0  0  0  0  0  0  0  # atno 6907 bound_to 6896
  150.9139  133.6955  159.2855 H   0  0  0  0  0  0  0  0  0  0  0  0  # atno 6908 bound_to 6896
  151.4355  135.1018  159.9707 H   0  0  0  0  0  0  0  0  0  0  0  0  # atno 6909 bound_to 6896
  145.1021  139.3511  143.4806 H   0  0  0  0  0  0  0  0  0  0  0  0  # atno 7974 bound_to 7965
  154.8372  140.0437  157.1517 H   0  0  0  0  0  0  0  0  0  0  0  0  # atno 8008 bound_to 7997
  154.9087  140.3010  155.5257 H   0  0  0  0  0  0  0  0  0  0  0  0  # atno 8009 bound_to 7997
  156.2990  140.2362  156.4124 H   0  0  0  0  0  0  0  0  0  0  0  0  # atno 8010 bound_to 7997
  140.7284  143.4571  151.0433 H   0  0  0  0  0  0  0  0  0  0  0  0  # atno 10167 bound_to 10162
  156.0524  130.4288  150.1948 H   0  0  0  0  0  0  0  0  0  0  0  0  # atno 10718 bound_to 10713
  153.2455  135.4278  155.0742 H   0  0  0  0  0  0  0  0  0  0  0  0  # atno 10763 bound_to 10752
  154.8359  135.3413  154.6588 H   0  0  0  0  0  0  0  0  0  0  0  0  # atno 10764 bound_to 10752
  153.7011  135.7028  153.5119 H   0  0  0  0  0  0  0  0  0  0  0  0  # atno 10765 bound_to 10752
  140.8252  134.2583  157.4882 H   0  0  0  0  0  0  0  0  0  0  0  0  # atno 11005 bound_to 11000
  146.3529  140.0903  142.8613 LP  0  0  0  0  0  0  0  0  0  0  0  0  # atno 17320 bound_to 7965
  145.0943  140.9305  143.4750 LP  0  0  0  0  0  0  0  0  0  0  0  0  # atno 17321 bound_to 7965
  139.8252  143.7766  152.3178 LP  0  0  0  0  0  0  0  0  0  0  0  0  # atno 17342 bound_to 10162
  139.7862  144.7427  151.0019 LP  0  0  0  0  0  0  0  0  0  0  0  0  # atno 17343 bound_to 10162
  157.0030  130.9928  151.3386 LP  0  0  0  0  0  0  0  0  0  0  0  0  # atno 17370 bound_to 10713
  157.5462  130.8152  149.8089 LP  0  0  0  0  0  0  0  0  0  0  0  0  # atno 17371 bound_to 10713
  139.8707  134.9557  156.4214 LP  0  0  0  0  0  0  0  0  0  0  0  0  # atno 17394 bound_to 11000
  140.9056  133.7748  155.9731 LP  0  0  0  0  0  0  0  0  0  0  0  0  # atno 17395 bound_to 11000

$$$$
