AV-unprocessed.smi:1669|AV-procd|sdf|6690|dock5
  -GOLD-   22720 7423D 1   1.00000     0.00000
 Structure written by MMmdl.
 49 51  0  0  0  0  0  0  0  0  3 V2000
  146.1650  137.9760  151.1000 C   0  0  0  0  0  0  0  0  0  0  0  0
  146.7473  137.6209  152.4183 N   0  3  2  0  0  0  0  0  0  0  0  0
  145.8109  136.8385  153.2652 C   0  0  0  0  0  0  0  0  0  0  0  0
  145.3221  135.5794  152.5709 C   0  0  0  0  0  0  0  0  0  0  0  0
  143.9700  135.4544  152.1857 C   0  0  0  0  0  0  0  0  0  0  0  0
  143.5238  134.2844  151.5409 C   0  0  0  0  0  0  0  0  0  0  0  0
  144.4263  133.2352  151.2805 C   0  0  0  0  0  0  0  0  0  0  0  0
  145.7755  133.3553  151.6653 C   0  0  0  0  0  0  0  0  0  0  0  0
  146.2227  134.5249  152.3102 C   0  0  0  0  0  0  0  0  0  0  0  0
  147.3090  138.7954  153.1366 C   0  0  0  0  0  0  0  0  0  0  0  0
  148.1149  138.3945  154.3886 C   0  0  2  0  0  0  0  0  0  0  0  0
  147.4315  138.8610  155.5359 O   0  0  0  0  0  0  0  0  0  0  0  0
  149.5435  138.9756  154.3641 C   0  0  0  0  0  0  0  0  0  0  0  0
  149.6435  140.2741  155.0513 N   0  0  0  0  0  0  0  0  0  0  0  0
  148.9512  141.4317  154.8410 C   0  0  0  0  0  0  0  0  0  0  0  0
  147.8752  141.6616  153.8278 C   0  0  0  0  0  0  0  0  0  0  0  0
  147.3646  142.9774  153.8552 O   0  0  0  0  0  0  0  0  0  0  0  0
  149.4153  142.3471  155.7383 N   0  3  0  0  0  0  0  0  0  0  0  0
  150.4122  141.7749  156.5279 C   0  0  0  0  0  0  0  0  0  0  0  0
  151.1734  142.3110  157.5618 C   0  0  0  0  0  0  0  0  0  0  0  0
  152.1148  141.4521  158.1656 C   0  0  0  0  0  0  0  0  0  0  0  0
  152.2699  140.1176  157.7382 C   0  0  0  0  0  0  0  0  0  0  0  0
  151.4911  139.5851  156.6897 C   0  0  0  0  0  0  0  0  0  0  0  0
  150.5632  140.4411  156.0954 C   0  0  0  0  0  0  0  0  0  0  0  0
  145.2903  138.6163  151.2200 H   0  0  0  0  0  0  0  0  0  0  0  0
  145.8596  137.0859  150.5507 H   0  0  0  0  0  0  0  0  0  0  0  0
  146.8831  138.5000  150.4710 H   0  0  0  0  0  0  0  0  0  0  0  0
  146.3075  136.5251  154.1846 H   0  0  0  0  0  0  0  0  0  0  0  0
  144.9676  137.4627  153.5654 H   0  0  0  0  0  0  0  0  0  0  0  0
  143.2714  136.2548  152.3814 H   0  0  0  0  0  0  0  0  0  0  0  0
  142.4887  134.1912  151.2465 H   0  0  0  0  0  0  0  0  0  0  0  0
  144.0834  132.3378  150.7869 H   0  0  0  0  0  0  0  0  0  0  0  0
  146.4671  132.5498  151.4662 H   0  0  0  0  0  0  0  0  0  0  0  0
  147.2591  134.6105  152.6030 H   0  0  0  0  0  0  0  0  0  0  0  0
  147.9284  139.3733  152.4487 H   0  0  0  0  0  0  0  0  0  0  0  0
  146.5060  139.4636  153.4518 H   0  0  0  0  0  0  0  0  0  0  0  0
  148.1871  137.3099  154.4604 H   0  0  0  0  0  0  0  0  0  0  0  0
  147.8275  138.4765  156.3031 H   0  0  0  0  0  0  0  0  0  0  0  0
  150.2294  138.2937  154.8681 H   0  0  0  0  0  0  0  0  0  0  0  0
  149.9162  139.0757  153.3446 H   0  0  0  0  0  0  0  0  0  0  0  0
  148.2613  141.4596  152.8288 H   0  0  0  0  0  0  0  0  0  0  0  0
  147.0608  140.9600  154.0092 H   0  0  0  0  0  0  0  0  0  0  0  0
  147.8512  143.4770  154.4935 H   0  0  0  0  0  0  0  0  0  0  0  0
  151.0559  143.3332  157.8906 H   0  0  0  0  0  0  0  0  0  0  0  0
  152.7296  141.8242  158.9724 H   0  0  0  0  0  0  0  0  0  0  0  0
  153.0020  139.4894  158.2246 H   0  0  0  0  0  0  0  0  0  0  0  0
  151.6235  138.5619  156.3726 H   0  0  0  0  0  0  0  0  0  0  0  0
  147.5304  137.0080  152.2391 H   0  0  0  0  0  0  0  0  0  0  0  0
  149.0719  143.2973  155.7987 H   0  0  0  0  0  0  0  0  0  0  0  0
  1  2  1  0  0  0  0
  1 25  1  0  0  0  0
  1 26  1  0  0  0  0
  1 27  1  0  0  0  0
  2  3  1  0  0  0  0
  2 10  1  0  0  0  0
  2 48  1  0  0  0  0
  3  4  1  0  0  0  0
  3 28  1  0  0  0  0
  3 29  1  0  0  0  0
  4  9  1  0  0  0  0
  4  5  2  0  0  0  0
  5  6  1  0  0  0  0
  5 30  1  0  0  0  0
  6  7  2  0  0  0  0
  6 31  1  0  0  0  0
  7  8  1  0  0  0  0
  7 32  1  0  0  0  0
  8  9  2  0  0  0  0
  8 33  1  0  0  0  0
  9 34  1  0  0  0  0
 10 11  1  0  0  0  0
 10 35  1  0  0  0  0
 10 36  1  0  0  0  0
 11 12  1  0  0  0  0
 11 13  1  0  0  0  0
 11 37  1  0  0  0  0
 12 38  1  0  0  0  0
 13 14  1  0  0  0  0
 13 39  1  0  0  0  0
 13 40  1  0  0  0  0
 14 24  1  0  0  0  0
 14 15  1  0  0  0  0
 15 16  1  0  0  0  0
 15 18  2  0  0  0  0
 16 17  1  0  0  0  0
 16 41  1  0  0  0  0
 16 42  1  0  0  0  0
 17 43  1  0  0  0  0
 18 19  1  0  0  0  0
 18 49  1  0  0  0  0
 19 24  2  0  0  0  0
 19 20  1  0  0  0  0
 20 21  2  0  0  0  0
 20 44  1  0  0  0  0
 21 22  1  0  0  0  0
 21 45  1  0  0  0  0
 22 23  2  0  0  0  0
 22 46  1  0  0  0  0
 23 24  1  0  0  0  0
 23 47  1  0  0  0  0
M  CHG  1   2   1
M  CHG  1  18   1
M  END
> <s_m_source_file>
AV-unprocessed.smi

> <i_m_source_file_index>
1669

> <i_lp_mmshare_version>
43012

> <i_f3d_flags>
0

> <s_epik_input>
W2NIXTFbY0hdW2NIXVtjSF1bY0hdYzFbQ0gyXU4oW0NIM10pW0NIMl1bQ0BIXShbT0hdKVtDSDJdbihjKG4yKVtDSDJdW09IXSljKGMyMylbY0hdW2NIXVtjSF1bY0hdMw==

> <s_epik_cmdline>
J2VwaWtfcHl0aG9uJywgJy1waCcsICc3LjAnLCAnLXRuJywgJzgnLCAnLW1hJywgJzIwMCcsICctbWV0YWxfYmluZGluZycsICctaW1hZScsICc8aW5maWxlLm1hZT4nLCAnLW9tYWUnLCAnPG91dGZpbGUubWFlPic=

> <r_epik_Ionization_Penalty>
1.57484

> <r_epik_Ionization_Penalty_Charging>
1.57398

> <r_epik_Ionization_Penalty_Neutral>
0.000858917

> <r_epik_State_Penalty>
1.64997

> <r_epik_Charging_Adjusted_Penalty>
3.22395

> <i_epik_Tot_Q>
2

> <i_epik_Tot_abs_Q>
2

> <r_epik_Metal_State_Penalty>
5.70481

> <b_epik_Metal_Only>
0

> <s_lp_Force_Field>
OPLS_2005

> <r_lp_Energy>
22.9184

> <b_lp_Chiralities_Consistent>
1

> <s_lp_Variant>
AV-unprocessed.smi:1669-8

> <Gold.Version>
5.8.1

> <Gold.Id.Protein>
6NUR|6NUR_protein|mol2

> <Gold.PLP.Fitness>
53.0035

> <Gold.PLP.PLP>
-40.1703

> <Gold.PLP.part.hbond>
-3.6090

> <Gold.PLP.part.metal>
0.0000

> <Gold.PLP.part.buried>
-0.5702

> <Gold.PLP.part.nonpolar>
-37.3637

> <Gold.PLP.part.repulsive>
0.1834

> <Gold.PLP.ligand.clash>
0.0000

> <Gold.PLP.ligand.torsion>
1.2595

> <Gold.PLP.Chemscore.Hbond>
5.0000

> <Gold.PLP.Chemscore.CHOScore>
0.0000

> <Gold.PLP.Chemscore.Metal>
0.0000

> <Gold.Chemscore.Hbonds>
donor molecule, donor type, donor heavy atom, donor atom, acceptor molecule, acceptor atom, score
      L1  H     2    48       P1  7948  2.00
      L1  H    17    43       P1  8028  1.00
      L1  H    18    49       P1  8028  1.56

> <Gold.PLP.Chemscore.Internal.Correction>
0.3522

> <Gold.Rescore>
     Score         DG    S(hbond)    S(metal)    S(lipo)     H(rot)  DE(clash)    DE(int)     intcor
     14.49     -19.30       2.94        0.00     105.95       3.27       1.87       2.95       ----

> <Gold.Chemscore.Fitness>
14.4863

> <Gold.Chemscore.DG>
-19.3038

> <Gold.Chemscore.ZeroCoef>
-5.4800

> <Gold.Chemscore.Hbond>
2.9351

> <Gold.Chemscore.Metal>
0.0000

> <Gold.Chemscore.Lipo>
105.9523

> <Gold.Chemscore.Internal_Hbond>
0.0000

> <Gold.Chemscore.DEClash>
1.8651

> <Gold.Chemscore.DEInternal>
2.9525

> <Gold.Chemscore.Rot>
3.2718

> <Gold.Chemscore.Internal.Correction>
   9.000000E+99

> <Gold.Chemscore.Hbonds>
donor molecule, donor type, donor heavy atom, donor atom, acceptor molecule, acceptor atom, score
      L1  H     2    48       P1  7948  1.00
      L1  H    17    43       P1  8028  0.65
      L1  H    18    49       P1  8028  0.77

> <Gold.Chemscore.Hbond.Weighted>
-9.8033

> <Gold.Chemscore.Metal.Weighted>
-0.0000

> <Gold.Chemscore.Lipo.Weighted>
-12.3964

> <Gold.Chemscore.Internal_Hbond.Weighted>
0.0000

> <Gold.Chemscore.DEClash.Weighted>
1.8651

> <Gold.Chemscore.DEInternal.Weighted>
2.9525

> <Gold.Chemscore.Rot.Weighted>
8.3759

> <Gold.Chemscore.Internal.Correction.Weighted>
   9.000000E+99

> <Gold.Protein.RotatedTorsions>
[ 6907 6896 6895 6894 ] final  116.05 input  -60.11 | X-H torsion
[ 7974 7965 7964 7962 ] final -142.47 input  175.53 | X-H torsion
[ 8008 7997 7996 7995 ] final  143.31 input   59.86 | X-H torsion
[ 10167 10162 10161 10158 ] final   78.21 input  -65.29 | X-H torsion
[ 10718 10713 10712 10709 ] final  -39.17 input   66.30 | X-H torsion
[ 10763 10752 10751 10750 ] final   86.98 input  -60.55 | X-H torsion
[ 11005 11000 10999 10996 ] final  168.32 input  -57.11 | X-H torsion

> <Gold.Protein.ActiveResidues>
 VAL166  LYS551  ARG553  GLY616  TRP617  ASP618  TYR619  PRO620  LYS621  CYS622 
 ASP623  PHE694  ASN695  SER759  ASP760  ASP761  ALA762  ILE779  LEU786  VAL792 
 PHE793  MET794  SER795  GLU796  ALA797  LYS798  CYS799  TRP800  GLU811  SER814 

> <Gold.Protein.RotatedAtoms>
  152.4703  133.8014  159.6954 H   0  0  0  0  0  0  0  0  0  0  0  0  # atno 6907 bound_to 6896
  150.8688  133.7526  159.2974 H   0  0  0  0  0  0  0  0  0  0  0  0  # atno 6908 bound_to 6896
  151.5068  135.1067  159.9895 H   0  0  0  0  0  0  0  0  0  0  0  0  # atno 6909 bound_to 6896
  144.8441  140.5953  143.5433 H   0  0  0  0  0  0  0  0  0  0  0  0  # atno 7974 bound_to 7965
  156.2932  140.2266  156.4870 H   0  0  0  0  0  0  0  0  0  0  0  0  # atno 8008 bound_to 7997
  154.7804  140.0460  157.1143 H   0  0  0  0  0  0  0  0  0  0  0  0  # atno 8009 bound_to 7997
  154.9766  140.3073  155.4968 H   0  0  0  0  0  0  0  0  0  0  0  0  # atno 8010 bound_to 7997
  139.9733  144.5879  150.7966 H   0  0  0  0  0  0  0  0  0  0  0  0  # atno 10167 bound_to 10162
  156.2954  130.4233  149.8196 H   0  0  0  0  0  0  0  0  0  0  0  0  # atno 10718 bound_to 10713
  153.1623  135.4560  154.9789 H   0  0  0  0  0  0  0  0  0  0  0  0  # atno 10763 bound_to 10752
  154.7906  135.3219  154.7787 H   0  0  0  0  0  0  0  0  0  0  0  0  # atno 10764 bound_to 10752
  153.8275  135.6941  153.4873 H   0  0  0  0  0  0  0  0  0  0  0  0  # atno 10765 bound_to 10752
  140.2860  134.7712  157.3798 H   0  0  0  0  0  0  0  0  0  0  0  0  # atno 11005 bound_to 11000
  145.4634  139.1510  143.3854 LP  0  0  0  0  0  0  0  0  0  0  0  0  # atno 17320 bound_to 7965
  146.2728  140.4765  142.8807 LP  0  0  0  0  0  0  0  0  0  0  0  0  # atno 17321 bound_to 7965
  140.7514  143.2973  151.3172 LP  0  0  0  0  0  0  0  0  0  0  0  0  # atno 17342 bound_to 10162
  139.6464  144.0442  152.2594 LP  0  0  0  0  0  0  0  0  0  0  0  0  # atno 17343 bound_to 10162
  156.5594  130.8376  151.3324 LP  0  0  0  0  0  0  0  0  0  0  0  0  # atno 17370 bound_to 10713
  157.7354  130.9761  150.2079 LP  0  0  0  0  0  0  0  0  0  0  0  0  # atno 17371 bound_to 10713
  140.1239  134.5183  155.8160 LP  0  0  0  0  0  0  0  0  0  0  0  0  # atno 17394 bound_to 11000
  141.2154  133.6766  156.6916 LP  0  0  0  0  0  0  0  0  0  0  0  0  # atno 17395 bound_to 11000

$$$$
