AV-unprocessed.smi:117|AV-procd|sdf|1130|dock10
  -GOLD-   2262018263D 1   1.00000     0.00000
 Structure written by MMmdl.
 53 55  0  0  0  0  0  0  0  0  1 V2000
  144.2679  132.8779  150.2789 C   0  0  0  0  0  0  0  0  0  0  0  0
  145.2947  132.3939  151.2885 C   0  0  0  0  0  0  0  0  0  0  0  0
  145.2695  131.0421  151.6881 C   0  0  0  0  0  0  0  0  0  0  0  0
  146.2135  130.5556  152.6075 C   0  0  0  0  0  0  0  0  0  0  0  0
  147.1885  131.4191  153.1345 C   0  0  0  0  0  0  0  0  0  0  0  0
  147.2205  132.7816  152.7563 C   0  0  0  0  0  0  0  0  0  0  0  0
  148.2429  133.6413  153.2385 N   0  0  0  0  0  0  0  0  0  0  0  0
  148.9577  133.5326  154.3756 C   0  0  0  0  0  0  0  0  0  0  0  0
  148.7735  132.6536  155.2167 O   0  0  0  0  0  0  0  0  0  0  0  0
  150.0571  134.5784  154.6278 C   0  0  0  0  0  0  0  0  0  0  0  0
  149.6678  135.6208  155.5763 N   0  0  0  0  0  0  0  0  0  0  0  0
  150.4852  136.5333  156.1299 C   0  0  0  0  0  0  0  0  0  0  0  0
  151.6658  136.6551  155.8068 O   0  0  0  0  0  0  0  0  0  0  0  0
  149.9187  137.4158  157.2574 C   0  0  0  0  0  0  0  0  0  0  0  0
  149.9857  138.8731  156.9914 N   0  0  0  0  0  0  0  0  0  0  0  0
  149.4991  139.3721  155.7580 C   0  0  0  0  0  0  0  0  0  0  0  0
  149.0201  138.6205  154.9082 O   0  0  0  0  0  0  0  0  0  0  0  0
  149.5998  140.8164  155.5804 C   0  0  0  0  0  0  0  0  0  0  0  0
  149.1919  141.3756  154.4286 F   0  0  0  0  0  0  0  0  0  0  0  0
  150.0930  141.6042  156.5583 C   0  0  0  0  0  0  0  0  0  0  0  0
  150.5217  141.1112  157.7750 N   0  0  0  0  0  0  0  0  0  0  0  0
  151.0500  142.0759  158.8147 C   0  0  1  0  0  0  0  0  0  0  0  0
  152.5344  141.8623  159.1446 C   0  0  0  0  0  0  0  0  0  0  0  0
  152.9835  143.2822  159.4089 C   0  0  0  0  0  0  0  0  0  0  0  0
  152.1458  144.0697  158.4076 C   0  0  0  0  0  0  0  0  0  0  0  0
  150.8939  143.3878  158.3547 O   0  0  0  0  0  0  0  0  0  0  0  0
  150.5074  139.7163  158.0029 C   0  0  0  0  0  0  0  0  0  0  0  0
  150.9267  139.2398  159.0575 O   0  0  0  0  0  0  0  0  0  0  0  0
  146.2709  133.2746  151.8210 C   0  0  0  0  0  0  0  0  0  0  0  0
  146.2698  134.7380  151.3851 C   0  0  0  0  0  0  0  0  0  0  0  0
  143.6125  132.0679  149.9584 H   0  0  0  0  0  0  0  0  0  0  0  0
  144.7618  133.2759  149.3921 H   0  0  0  0  0  0  0  0  0  0  0  0
  143.6437  133.6601  150.7111 H   0  0  0  0  0  0  0  0  0  0  0  0
  144.5283  130.3678  151.2846 H   0  0  0  0  0  0  0  0  0  0  0  0
  146.1962  129.5166  152.9018 H   0  0  0  0  0  0  0  0  0  0  0  0
  147.9212  131.0162  153.8177 H   0  0  0  0  0  0  0  0  0  0  0  0
  148.3977  134.4800  152.6975 H   0  0  0  0  0  0  0  0  0  0  0  0
  150.9646  134.0712  154.9589 H   0  0  0  0  0  0  0  0  0  0  0  0
  150.3004  135.0602  153.6804 H   0  0  0  0  0  0  0  0  0  0  0  0
  148.7108  135.5985  155.8973 H   0  0  0  0  0  0  0  0  0  0  0  0
  148.8832  137.1201  157.4357 H   0  0  0  0  0  0  0  0  0  0  0  0
  150.4307  137.1457  158.1818 H   0  0  0  0  0  0  0  0  0  0  0  0
  150.1432  142.6680  156.3762 H   0  0  0  0  0  0  0  0  0  0  0  0
  150.4165  141.9495  159.6934 H   0  0  0  0  0  0  0  0  0  0  0  0
  152.6550  141.1980  160.0005 H   0  0  0  0  0  0  0  0  0  0  0  0
  153.0735  141.4419  158.2975 H   0  0  0  0  0  0  0  0  0  0  0  0
  152.7225  143.5742  160.4269 H   0  0  0  0  0  0  0  0  0  0  0  0
  154.0557  143.4251  159.2756 H   0  0  0  0  0  0  0  0  0  0  0  0
  152.0184  145.1124  158.6986 H   0  0  0  0  0  0  0  0  0  0  0  0
  152.6129  144.0517  157.4231 H   0  0  0  0  0  0  0  0  0  0  0  0
  145.3040  135.1938  151.6034 H   0  0  0  0  0  0  0  0  0  0  0  0
  146.4446  134.8121  150.3119 H   0  0  0  0  0  0  0  0  0  0  0  0
  147.0250  135.3469  151.8800 H   0  0  0  0  0  0  0  0  0  0  0  0
  1  2  1  0  0  0  0
  1 31  1  0  0  0  0
  1 32  1  0  0  0  0
  1 33  1  0  0  0  0
  2 29  1  0  0  0  0
  2  3  2  0  0  0  0
  3  4  1  0  0  0  0
  3 34  1  0  0  0  0
  4  5  2  0  0  0  0
  4 35  1  0  0  0  0
  5  6  1  0  0  0  0
  5 36  1  0  0  0  0
  6  7  1  0  0  0  0
  6 29  2  0  0  0  0
  7  8  1  0  0  0  0
  7 37  1  0  0  0  0
  8  9  2  0  0  0  0
  8 10  1  0  0  0  0
 10 11  1  0  0  0  0
 10 38  1  0  0  0  0
 10 39  1  0  0  0  0
 11 12  1  0  0  0  0
 11 40  1  0  0  0  0
 12 13  2  0  0  0  0
 12 14  1  0  0  0  0
 14 15  1  0  0  0  0
 14 41  1  0  0  0  0
 14 42  1  0  0  0  0
 15 27  1  0  0  0  0
 15 16  1  0  0  0  0
 16 17  2  0  0  0  0
 16 18  1  0  0  0  0
 18 19  1  0  0  0  0
 18 20  2  0  0  0  0
 20 21  1  0  0  0  0
 20 43  1  0  0  0  0
 21 22  1  0  0  0  0
 21 27  1  0  0  0  0
 22 26  1  0  0  0  0
 22 23  1  0  0  0  0
 22 44  1  0  0  0  0
 23 24  1  0  0  0  0
 23 45  1  0  0  0  0
 23 46  1  0  0  0  0
 24 25  1  0  0  0  0
 24 47  1  0  0  0  0
 24 48  1  0  0  0  0
 25 26  1  0  0  0  0
 25 49  1  0  0  0  0
 25 50  1  0  0  0  0
 27 28  2  0  0  0  0
 29 30  1  0  0  0  0
 30 51  1  0  0  0  0
 30 52  1  0  0  0  0
 30 53  1  0  0  0  0
M  END
> <s_m_source_file>
AV-unprocessed.smi

> <i_m_source_file_index>
117

> <i_lp_mmshare_version>
43012

> <i_f3d_flags>
0

> <s_epik_input>
W0NIM11jMVtjSF1bY0hdW2NIXWMoYzFbQ0gzXSlbTkhdQyg9TylbQ0gyXVtOSF1DKD1PKVtDSDJdbjJjKD1PKWMoRilbY0hdbihjMj1PKVtDQEBIXTNbQ0gyXVtDSDJdW0NIMl1PMw==

> <s_epik_cmdline>
J2VwaWtfcHl0aG9uJywgJy1waCcsICc3LjAnLCAnLXRuJywgJzgnLCAnLW1hJywgJzIwMCcsICctbWV0YWxfYmluZGluZycsICctaW1hZScsICc8aW5maWxlLm1hZT4nLCAnLW9tYWUnLCAnPG91dGZpbGUubWFlPic=

> <r_lp_tautomer_probability>
1

> <r_epik_Ionization_Penalty>
1.58439e-06

> <r_epik_Ionization_Penalty_Charging>
4.14583e-09

> <r_epik_Ionization_Penalty_Neutral>
1.58025e-06

> <r_epik_State_Penalty>
-0

> <r_epik_Charging_Adjusted_Penalty>
4.14583e-09

> <i_epik_Tot_Q>
0

> <i_epik_Tot_abs_Q>
0

> <r_epik_Metal_State_Penalty>
-0

> <b_epik_Metal_Only>
0

> <s_epik_Chemistry_Notes>
This compound contains an acetal/aminal-like group ( X-CH(R)-Y where X, Y are N, S, or O) that may be acid/base labile, releasing an aldehyde.

> <s_lp_Force_Field>
OPLS_2005

> <r_lp_Energy>
23.1061

> <b_lp_Chiralities_Consistent>
1

> <s_lp_Variant>
AV-unprocessed.smi:117-2

> <Gold.Version>
5.8.1

> <Gold.Id.Protein>
6NUR|6NUR_protein|mol2

> <Gold.PLP.Fitness>
58.4017

> <Gold.PLP.PLP>
-50.6406

> <Gold.PLP.part.hbond>
-2.0000

> <Gold.PLP.part.metal>
0.0000

> <Gold.PLP.part.buried>
-6.2593

> <Gold.PLP.part.nonpolar>
-41.7199

> <Gold.PLP.part.repulsive>
0.3398

> <Gold.PLP.ligand.clash>
0.0000

> <Gold.PLP.ligand.torsion>
0.5659

> <Gold.PLP.Chemscore.Hbond>
1.9500

> <Gold.PLP.Chemscore.CHOScore>
1.0000

> <Gold.PLP.Chemscore.Metal>
0.0000

> <Gold.Chemscore.Hbonds>
donor molecule, donor type, donor heavy atom, donor atom, acceptor molecule, acceptor atom, score
      L1  H     7    37       P1  7948  0.90
      P1  H 10752 10763       L1    13  1.00
      L1  C    20    43       P1  8028  1.00

> <Gold.PLP.Chemscore.Internal.Correction>
0.0429

> <Gold.Rescore>
     Score         DG    S(hbond)    S(metal)    S(lipo)     H(rot)  DE(clash)    DE(int)     intcor
     13.99     -17.10       1.45        0.00     108.78       2.32       0.05       3.07       ----

> <Gold.Chemscore.Fitness>
13.9874

> <Gold.Chemscore.DG>
-17.1045

> <Gold.Chemscore.ZeroCoef>
-5.4800

> <Gold.Chemscore.Hbond>
1.4453

> <Gold.Chemscore.Metal>
0.0000

> <Gold.Chemscore.Lipo>
108.7840

> <Gold.Chemscore.Internal_Hbond>
0.0000

> <Gold.Chemscore.DEClash>
0.0465

> <Gold.Chemscore.DEInternal>
3.0706

> <Gold.Chemscore.Rot>
2.3166

> <Gold.Chemscore.Internal.Correction>
   9.000000E+99

> <Gold.Chemscore.Hbonds>
donor molecule, donor type, donor heavy atom, donor atom, acceptor molecule, acceptor atom, score
      L1  H     7    37       P1  7948  0.18
      P1  H 10752 10763       L1    13  0.95

> <Gold.Chemscore.Hbond.Weighted>
-4.8274

> <Gold.Chemscore.Metal.Weighted>
-0.0000

> <Gold.Chemscore.Lipo.Weighted>
-12.7277

> <Gold.Chemscore.Internal_Hbond.Weighted>
0.0000

> <Gold.Chemscore.DEClash.Weighted>
0.0465

> <Gold.Chemscore.DEInternal.Weighted>
3.0706

> <Gold.Chemscore.Rot.Weighted>
5.9306

> <Gold.Chemscore.Internal.Correction.Weighted>
   9.000000E+99

> <Gold.Protein.RotatedTorsions>
[ 6907 6896 6895 6894 ] final  -58.63 input  -60.11 | X-H torsion
[ 7974 7965 7964 7962 ] final   91.47 input  175.53 | X-H torsion
[ 8008 7997 7996 7995 ] final   86.54 input   59.86 | X-H torsion
[ 10167 10162 10161 10158 ] final -164.12 input  -65.29 | X-H torsion
[ 10718 10713 10712 10709 ] final  -74.75 input   66.30 | X-H torsion
[ 10763 10752 10751 10750 ] final   84.00 input  -60.55 | X-H torsion
[ 11005 11000 10999 10996 ] final   72.13 input  -57.11 | X-H torsion

> <Gold.Protein.ActiveResidues>
 VAL166  LYS551  ARG553  GLY616  TRP617  ASP618  TYR619  PRO620  LYS621  CYS622 
 ASP623  PHE694  ASN695  SER759  ASP760  ASP761  ALA762  ILE779  LEU786  VAL792 
 PHE793  MET794  SER795  GLU796  ALA797  LYS798  CYS799  TRP800  GLU811  SER814 

> <Gold.Protein.RotatedAtoms>
  150.7992  134.7073  159.6583 H   0  0  0  0  0  0  0  0  0  0  0  0  # atno 6907 bound_to 6896
  152.4107  134.6126  160.0039 H   0  0  0  0  0  0  0  0  0  0  0  0  # atno 6908 bound_to 6896
  151.6370  133.3291  159.3157 H   0  0  0  0  0  0  0  0  0  0  0  0  # atno 6909 bound_to 6896
  145.5052  139.2276  143.2755 H   0  0  0  0  0  0  0  0  0  0  0  0  # atno 7974 bound_to 7965
  155.9641  140.3391  155.6516 H   0  0  0  0  0  0  0  0  0  0  0  0  # atno 8008 bound_to 7997
  155.6760  140.0732  157.2520 H   0  0  0  0  0  0  0  0  0  0  0  0  # atno 8009 bound_to 7997
  154.4150  140.1683  156.1918 H   0  0  0  0  0  0  0  0  0  0  0  0  # atno 8010 bound_to 7997
  139.6272  144.0508  152.1985 H   0  0  0  0  0  0  0  0  0  0  0  0  # atno 10167 bound_to 10162
  156.0231  130.4424  150.2940 H   0  0  0  0  0  0  0  0  0  0  0  0  # atno 10718 bound_to 10713
  153.1342  135.4670  154.9396 H   0  0  0  0  0  0  0  0  0  0  0  0  # atno 10763 bound_to 10752
  154.7691  135.3153  154.8228 H   0  0  0  0  0  0  0  0  0  0  0  0  # atno 10764 bound_to 10752
  153.8764  135.6898  153.4824 H   0  0  0  0  0  0  0  0  0  0  0  0  # atno 10765 bound_to 10752
  139.9507  134.7232  156.0869 H   0  0  0  0  0  0  0  0  0  0  0  0  # atno 11005 bound_to 11000
  146.2201  140.5855  142.9021 LP  0  0  0  0  0  0  0  0  0  0  0  0  # atno 17320 bound_to 7965
  144.7758  140.5736  143.6639 LP  0  0  0  0  0  0  0  0  0  0  0  0  # atno 17321 bound_to 7965
  140.0165  144.6185  150.7603 LP  0  0  0  0  0  0  0  0  0  0  0  0  # atno 17342 bound_to 10162
  140.7418  143.2823  151.3562 LP  0  0  0  0  0  0  0  0  0  0  0  0  # atno 17343 bound_to 10162
  157.1043  131.0204  151.3073 LP  0  0  0  0  0  0  0  0  0  0  0  0  # atno 17370 bound_to 10713
  157.4755  130.7734  149.7364 LP  0  0  0  0  0  0  0  0  0  0  0  0  # atno 17371 bound_to 10713
  141.1169  133.6625  156.3116 LP  0  0  0  0  0  0  0  0  0  0  0  0  # atno 17394 bound_to 11000
  140.5726  134.5825  157.5461 LP  0  0  0  0  0  0  0  0  0  0  0  0  # atno 17395 bound_to 11000

$$$$
