AV-unprocessed.smi:2229|AV-procd|sdf|9027|dock3
  -GOLD-   2272012233D 1   1.00000     0.00000
 Structure written by MMmdl.
 44 45  0  0  0  0  0  0  0  0  1 V2000
  150.4702  145.0855  159.2812 C   0  0  0  0  0  0  0  0  0  0  0  0
  151.7634  144.3184  158.9653 C   0  0  0  0  0  0  0  0  0  0  0  0
  152.4612  144.9313  157.7385 C   0  0  0  0  0  0  0  0  0  0  0  0
  151.4749  142.8133  158.7907 C   0  0  0  0  0  0  0  0  0  0  0  0
  152.6789  141.9049  159.0961 C   0  0  0  0  0  0  0  0  0  0  0  0
  152.8558  141.6136  160.5973 C   0  0  2  0  0  0  0  0  0  0  0  0
  152.9777  142.8477  161.4929 C   0  0  0  0  0  0  0  0  0  0  0  0
  153.5693  142.3006  162.7912 C   0  0  0  0  0  0  0  0  0  0  0  0
  154.4982  141.1558  162.3672 C   0  0  0  0  0  0  0  0  0  0  0  0
  154.1217  140.8015  160.9148 C   0  0  1  0  0  0  0  0  0  0  0  0
  153.8636  139.3793  160.7294 N   0  0  0  0  0  0  0  0  0  0  0  0
  154.2478  138.6440  159.6740 C   0  0  0  0  0  0  0  0  0  0  0  0
  154.9550  139.0910  158.7723 O   0  0  0  0  0  0  0  0  0  0  0  0
  153.7560  137.1890  159.5924 C   0  0  0  0  0  0  0  0  0  0  0  0
  154.4559  136.3554  158.6076 N   0  0  0  0  0  0  0  0  0  0  0  0
  154.7197  136.7658  157.3180 C   0  0  0  0  0  0  0  0  0  0  0  0
  155.3452  135.8621  156.6437 N   0  0  0  0  0  0  0  0  0  0  0  0
  155.4699  134.8567  157.5427 N   0  0  0  0  0  0  0  0  0  0  0  0
  154.9403  135.1220  158.7376 C   0  0  0  0  0  0  0  0  0  0  0  0
  154.9188  134.3954  159.7292 O   0  0  0  0  0  0  0  0  0  0  0  0
  155.9347  134.0032  157.2679 H   0  0  0  0  0  0  0  0  0  0  0  0
  149.7547  145.0104  158.4616 H   0  0  0  0  0  0  0  0  0  0  0  0
  150.6714  146.1436  159.4508 H   0  0  0  0  0  0  0  0  0  0  0  0
  149.9895  144.6971  160.1795 H   0  0  0  0  0  0  0  0  0  0  0  0
  152.4267  144.4385  159.8229 H   0  0  0  0  0  0  0  0  0  0  0  0
  151.8664  144.7954  156.8349 H   0  0  0  0  0  0  0  0  0  0  0  0
  153.4404  144.4866  157.5635 H   0  0  0  0  0  0  0  0  0  0  0  0
  152.6186  146.0020  157.8728 H   0  0  0  0  0  0  0  0  0  0  0  0
  150.6550  142.5335  159.4531 H   0  0  0  0  0  0  0  0  0  0  0  0
  151.1198  142.6254  157.7764 H   0  0  0  0  0  0  0  0  0  0  0  0
  152.5503  140.9533  158.5809 H   0  0  0  0  0  0  0  0  0  0  0  0
  153.5909  142.3476  158.6945 H   0  0  0  0  0  0  0  0  0  0  0  0
  151.9894  141.0464  160.9442 H   0  0  0  0  0  0  0  0  0  0  0  0
  153.6656  143.5686  161.0487 H   0  0  0  0  0  0  0  0  0  0  0  0
  152.0231  143.3498  161.6527 H   0  0  0  0  0  0  0  0  0  0  0  0
  154.0886  143.0677  163.3662 H   0  0  0  0  0  0  0  0  0  0  0  0
  152.7678  141.9065  163.4172 H   0  0  0  0  0  0  0  0  0  0  0  0
  155.5413  141.4710  162.4120 H   0  0  0  0  0  0  0  0  0  0  0  0
  154.3911  140.3083  163.0458 H   0  0  0  0  0  0  0  0  0  0  0  0
  154.9286  141.1221  160.2524 H   0  0  0  0  0  0  0  0  0  0  0  0
  153.2896  138.9311  161.4287 H   0  0  0  0  0  0  0  0  0  0  0  0
  153.8708  136.7310  160.5759 H   0  0  0  0  0  0  0  0  0  0  0  0
  152.6844  137.2017  159.3877 H   0  0  0  0  0  0  0  0  0  0  0  0
  154.4018  137.7569  156.9897 H   0  0  0  0  0  0  0  0  0  0  0  0
  1  2  1  0  0  0  0
  1 22  1  0  0  0  0
  1 23  1  0  0  0  0
  1 24  1  0  0  0  0
  2  3  1  0  0  0  0
  2  4  1  0  0  0  0
  2 25  1  0  0  0  0
  3 26  1  0  0  0  0
  3 27  1  0  0  0  0
  3 28  1  0  0  0  0
  4  5  1  0  0  0  0
  4 29  1  0  0  0  0
  4 30  1  0  0  0  0
  5  6  1  0  0  0  0
  5 31  1  0  0  0  0
  5 32  1  0  0  0  0
  6 10  1  0  0  0  0
  6  7  1  0  0  0  0
  6 33  1  0  0  0  0
  7  8  1  0  0  0  0
  7 34  1  0  0  0  0
  7 35  1  0  0  0  0
  8  9  1  0  0  0  0
  8 36  1  0  0  0  0
  8 37  1  0  0  0  0
  9 10  1  0  0  0  0
  9 38  1  0  0  0  0
  9 39  1  0  0  0  0
 10 11  1  0  0  0  0
 10 40  1  0  0  0  0
 11 12  1  0  0  0  0
 11 41  1  0  0  0  0
 12 13  2  0  0  0  0
 12 14  1  0  0  0  0
 14 15  1  0  0  0  0
 14 42  1  0  0  0  0
 14 43  1  0  0  0  0
 15 19  1  0  0  0  0
 15 16  1  0  0  0  0
 16 17  2  0  0  0  0
 16 44  1  0  0  0  0
 17 18  1  0  0  0  0
 18 21  1  0  0  0  0
 18 19  1  0  0  0  0
 19 20  2  0  0  0  0
M  END
> <s_m_source_file>
AV-unprocessed.smi

> <i_m_source_file_index>
2229

> <i_lp_mmshare_version>
43012

> <i_f3d_flags>
0

> <s_epik_input>
W0NIM11bQ0hdKFtDSDNdKVtDSDJdW0NIMl1bQ0BASF0xW0NIMl1bQ0gyXVtDSDJdW0NASF0xW05IXUMoPU8pW0NIMl1uMltjSF1uW25IXWMyPU8=

> <s_epik_cmdline>
J2VwaWtfcHl0aG9uJywgJy1waCcsICc3LjAnLCAnLXRuJywgJzgnLCAnLW1hJywgJzIwMCcsICctbWV0YWxfYmluZGluZycsICctaW1hZScsICc8aW5maWxlLm1hZT4nLCAnLW9tYWUnLCAnPG91dGZpbGUubWFlPic=

> <r_lp_tautomer_probability>
1

> <r_epik_Ionization_Penalty>
4.14174e-05

> <r_epik_Ionization_Penalty_Charging>
4.13165e-05

> <r_epik_Ionization_Penalty_Neutral>
1.00911e-07

> <r_epik_State_Penalty>
-0

> <r_epik_Charging_Adjusted_Penalty>
4.13165e-05

> <i_epik_Tot_Q>
0

> <i_epik_Tot_abs_Q>
0

> <r_epik_Metal_State_Penalty>
0.0399369

> <b_epik_Metal_Only>
0

> <s_lp_Force_Field>
OPLS_2005

> <r_lp_Energy>
36.5056

> <b_lp_Chiralities_Consistent>
1

> <s_lp_Variant>
AV-unprocessed.smi:2229-1

> <Gold.Version>
5.8.1

> <Gold.Id.Protein>
6NUR|6NUR_protein|mol2

> <Gold.PLP.Fitness>
46.2683

> <Gold.PLP.PLP>
-39.1770

> <Gold.PLP.part.hbond>
-3.0000

> <Gold.PLP.part.metal>
0.0000

> <Gold.PLP.part.buried>
-3.4771

> <Gold.PLP.part.nonpolar>
-32.3932

> <Gold.PLP.part.repulsive>
0.1511

> <Gold.PLP.ligand.clash>
0.0000

> <Gold.PLP.ligand.torsion>
0.9845

> <Gold.PLP.Chemscore.Hbond>
3.0000

> <Gold.PLP.Chemscore.CHOScore>
0.0000

> <Gold.PLP.Chemscore.Metal>
0.0000

> <Gold.Chemscore.Hbonds>
donor molecule, donor type, donor heavy atom, donor atom, acceptor molecule, acceptor atom, score
      P1  H  6896  6908       L1    20  0.22
      P1  H  7997  8010       L1    13  1.00
      P1  H 10752 10764       L1    17  0.93

> <Gold.PLP.Chemscore.Internal.Correction>
0.0602

> <Gold.Rescore>
     Score         DG    S(hbond)    S(metal)    S(lipo)     H(rot)  DE(clash)    DE(int)     intcor
     16.17     -19.16       2.05        0.00     116.08       2.64       0.37       2.63       ----

> <Gold.Chemscore.Fitness>
16.1664

> <Gold.Chemscore.DG>
-19.1628

> <Gold.Chemscore.ZeroCoef>
-5.4800

> <Gold.Chemscore.Hbond>
2.0515

> <Gold.Chemscore.Metal>
0.0000

> <Gold.Chemscore.Lipo>
116.0759

> <Gold.Chemscore.Internal_Hbond>
0.0000

> <Gold.Chemscore.DEClash>
0.3667

> <Gold.Chemscore.DEInternal>
2.6296

> <Gold.Chemscore.Rot>
2.6368

> <Gold.Chemscore.Internal.Correction>
   9.000000E+99

> <Gold.Chemscore.Hbonds>
donor molecule, donor type, donor heavy atom, donor atom, acceptor molecule, acceptor atom, score
      P1  H  6896  6908       L1    20  0.04
      P1  H  7997  8010       L1    13  1.00
      P1  H 10752 10764       L1    17  0.24

> <Gold.Chemscore.Hbond.Weighted>
-6.8520

> <Gold.Chemscore.Metal.Weighted>
-0.0000

> <Gold.Chemscore.Lipo.Weighted>
-13.5809

> <Gold.Chemscore.Internal_Hbond.Weighted>
0.0000

> <Gold.Chemscore.DEClash.Weighted>
0.3667

> <Gold.Chemscore.DEInternal.Weighted>
2.6296

> <Gold.Chemscore.Rot.Weighted>
6.7501

> <Gold.Chemscore.Internal.Correction.Weighted>
   9.000000E+99

> <Gold.Protein.RotatedTorsions>
[ 6907 6896 6895 6894 ] final  -25.62 input  -60.11 | X-H torsion
[ 7974 7965 7964 7962 ] final  -33.53 input  175.53 | X-H torsion
[ 8008 7997 7996 7995 ] final  -10.38 input   59.86 | X-H torsion
[ 10167 10162 10161 10158 ] final  -11.39 input  -65.29 | X-H torsion
[ 10718 10713 10712 10709 ] final   -4.54 input   66.30 | X-H torsion
[ 10763 10752 10751 10750 ] final   30.72 input  -60.55 | X-H torsion
[ 11005 11000 10999 10996 ] final -118.16 input  -57.11 | X-H torsion

> <Gold.Protein.ActiveResidues>
 VAL166  LYS551  ARG553  GLY616  TRP617  ASP618  TYR619  PRO620  LYS621  CYS622 
 ASP623  PHE694  ASN695  SER759  ASP760  ASP761  ALA762  ILE779  LEU786  VAL792 
 PHE793  MET794  SER795  GLU796  ALA797  LYS798  CYS799  TRP800  GLU811  SER814 

> <Gold.Protein.RotatedAtoms>
  151.1726  135.0325  159.8757 H   0  0  0  0  0  0  0  0  0  0  0  0  # atno 6907 bound_to 6896
  152.5448  134.1153  159.8386 H   0  0  0  0  0  0  0  0  0  0  0  0  # atno 6908 bound_to 6896
  151.1261  133.5023  159.2633 H   0  0  0  0  0  0  0  0  0  0  0  0  # atno 6909 bound_to 6896
  146.0903  140.5927  142.8867 H   0  0  0  0  0  0  0  0  0  0  0  0  # atno 7974 bound_to 7965
  154.5559  140.2330  155.8410 H   0  0  0  0  0  0  0  0  0  0  0  0  # atno 8008 bound_to 7997
  156.1988  140.3058  155.9443 H   0  0  0  0  0  0  0  0  0  0  0  0  # atno 8009 bound_to 7997
  155.2980  140.0430  157.3018 H   0  0  0  0  0  0  0  0  0  0  0  0  # atno 8010 bound_to 7997
  140.7137  143.5645  150.9159 H   0  0  0  0  0  0  0  0  0  0  0  0  # atno 10167 bound_to 10162
  156.7598  130.5266  149.5787 H   0  0  0  0  0  0  0  0  0  0  0  0  # atno 10718 bound_to 10713
  153.0355  135.6457  154.1088 H   0  0  0  0  0  0  0  0  0  0  0  0  # atno 10763 bound_to 10752
  154.0804  135.2874  155.3293 H   0  0  0  0  0  0  0  0  0  0  0  0  # atno 10764 bound_to 10752
  154.6534  135.5418  153.7993 H   0  0  0  0  0  0  0  0  0  0  0  0  # atno 10765 bound_to 10752
  141.0305  133.9989  157.3150 H   0  0  0  0  0  0  0  0  0  0  0  0  # atno 11005 bound_to 11000
  144.7355  140.4797  143.6906 LP  0  0  0  0  0  0  0  0  0  0  0  0  # atno 17320 bound_to 7965
  145.6051  139.1507  143.3107 LP  0  0  0  0  0  0  0  0  0  0  0  0  # atno 17321 bound_to 7965
  139.9370  143.6426  152.3063 LP  0  0  0  0  0  0  0  0  0  0  0  0  # atno 17342 bound_to 10162
  139.6897  144.7648  151.1460 LP  0  0  0  0  0  0  0  0  0  0  0  0  # atno 17343 bound_to 10162
  156.1347  130.6202  151.0383 LP  0  0  0  0  0  0  0  0  0  0  0  0  # atno 17370 bound_to 10713
  157.6740  131.0855  150.7542 LP  0  0  0  0  0  0  0  0  0  0  0  0  # atno 17371 bound_to 10713
  139.9204  135.0200  156.8044 LP  0  0  0  0  0  0  0  0  0  0  0  0  # atno 17394 bound_to 11000
  140.6415  133.9814  155.7710 LP  0  0  0  0  0  0  0  0  0  0  0  0  # atno 17395 bound_to 11000

$$$$
