AV-unprocessed.smi:1702|AV-procd|sdf|6850|dock8
  -GOLD-   22720 8 33D 1   1.00000     0.00000
 Structure written by MMmdl.
 45 47  0  0  0  0  0  0  0  0  3 V2000
  151.2735  137.3865  156.1234 C   0  0  0  0  0  0  0  0  0  0  0  0
  149.8375  137.7637  155.7327 C   0  0  2  0  0  0  0  0  0  0  0  0
  148.9977  136.5231  155.3858 C   0  0  0  0  0  0  0  0  0  0  0  0
  147.5717  136.9139  154.9627 C   0  0  0  0  0  0  0  0  0  0  0  0
  147.5927  137.8595  153.8172 N   0  3  1  0  0  0  0  0  0  0  0  0
  146.2318  138.1400  153.2909 C   0  0  0  0  0  0  0  0  0  0  0  0
  145.9251  137.3626  151.9950 C   0  0  1  0  0  0  0  0  0  0  0  0
  146.6779  137.9230  150.9359 O   0  0  0  0  0  0  0  0  0  0  0  0
  146.2737  135.8662  152.1287 C   0  0  0  0  0  0  0  0  0  0  0  0
  145.3357  134.9918  151.4109 N   0  0  0  0  0  0  0  0  0  0  0  0
  144.3207  135.3068  150.5603 C   0  0  0  0  0  0  0  0  0  0  0  0
  143.7444  134.1401  150.1579 N   0  3  0  0  0  0  0  0  0  0  0  0
  144.4013  133.0637  150.7584 C   0  0  0  0  0  0  0  0  0  0  0  0
  144.1837  131.6930  150.6619 C   0  0  0  0  0  0  0  0  0  0  0  0
  145.0385  130.8598  151.4133 C   0  0  0  0  0  0  0  0  0  0  0  0
  144.8682  129.5177  151.3587 F   0  0  0  0  0  0  0  0  0  0  0  0
  146.0647  131.3970  152.2195 C   0  0  0  0  0  0  0  0  0  0  0  0
  146.8630  130.5619  152.9258 F   0  0  0  0  0  0  0  0  0  0  0  0
  146.2774  132.7889  152.3071 C   0  0  0  0  0  0  0  0  0  0  0  0
  145.4257  133.6042  151.5635 C   0  0  0  0  0  0  0  0  0  0  0  0
  148.3644  139.0883  154.1428 C   0  0  0  0  0  0  0  0  0  0  0  0
  149.8077  138.7440  154.5476 C   0  0  0  0  0  0  0  0  0  0  0  0
  151.7917  136.8906  155.3022 H   0  0  0  0  0  0  0  0  0  0  0  0
  151.2831  136.7110  156.9792 H   0  0  0  0  0  0  0  0  0  0  0  0
  151.8513  138.2702  156.3956 H   0  0  0  0  0  0  0  0  0  0  0  0
  149.3787  138.2550  156.5921 H   0  0  0  0  0  0  0  0  0  0  0  0
  149.4758  135.9648  154.5795 H   0  0  0  0  0  0  0  0  0  0  0  0
  148.9537  135.8497  156.2425 H   0  0  0  0  0  0  0  0  0  0  0  0
  147.0240  136.0115  154.6874 H   0  0  0  0  0  0  0  0  0  0  0  0
  147.0387  137.3661  155.8008 H   0  0  0  0  0  0  0  0  0  0  0  0
  145.4828  137.8716  154.0379 H   0  0  0  0  0  0  0  0  0  0  0  0
  146.1243  139.2137  153.1292 H   0  0  0  0  0  0  0  0  0  0  0  0
  144.8701  137.4529  151.7403 H   0  0  0  0  0  0  0  0  0  0  0  0
  146.0899  138.1501  150.2314 H   0  0  0  0  0  0  0  0  0  0  0  0
  147.2706  135.6716  151.7304 H   0  0  0  0  0  0  0  0  0  0  0  0
  146.2951  135.5617  153.1759 H   0  0  0  0  0  0  0  0  0  0  0  0
  144.0233  136.3017  150.2607 H   0  0  0  0  0  0  0  0  0  0  0  0
  143.4001  131.2771  150.0456 H   0  0  0  0  0  0  0  0  0  0  0  0
  147.0665  133.1887  152.9257 H   0  0  0  0  0  0  0  0  0  0  0  0
  148.3898  139.7609  153.2864 H   0  0  0  0  0  0  0  0  0  0  0  0
  147.8683  139.6279  154.9512 H   0  0  0  0  0  0  0  0  0  0  0  0
  150.3435  139.6582  154.8059 H   0  0  0  0  0  0  0  0  0  0  0  0
  150.3310  138.3105  153.6940 H   0  0  0  0  0  0  0  0  0  0  0  0
  148.0894  137.3867  153.0751 H   0  0  0  0  0  0  0  0  0  0  0  0
  142.9600  134.0859  149.5204 H   0  0  0  0  0  0  0  0  0  0  0  0
  1  2  1  0  0  0  0
  1 23  1  0  0  0  0
  1 24  1  0  0  0  0
  1 25  1  0  0  0  0
  2 22  1  0  0  0  0
  2  3  1  0  0  0  0
  2 26  1  0  0  0  0
  3  4  1  0  0  0  0
  3 27  1  0  0  0  0
  3 28  1  0  0  0  0
  4  5  1  0  0  0  0
  4 29  1  0  0  0  0
  4 30  1  0  0  0  0
  5  6  1  0  0  0  0
  5 21  1  0  0  0  0
  5 44  1  0  0  0  0
  6  7  1  0  0  0  0
  6 31  1  0  0  0  0
  6 32  1  0  0  0  0
  7  8  1  0  0  0  0
  7  9  1  0  0  0  0
  7 33  1  0  0  0  0
  8 34  1  0  0  0  0
  9 10  1  0  0  0  0
  9 35  1  0  0  0  0
  9 36  1  0  0  0  0
 10 20  1  0  0  0  0
 10 11  1  0  0  0  0
 11 12  2  0  0  0  0
 11 37  1  0  0  0  0
 12 13  1  0  0  0  0
 12 45  1  0  0  0  0
 13 20  2  0  0  0  0
 13 14  1  0  0  0  0
 14 15  2  0  0  0  0
 14 38  1  0  0  0  0
 15 16  1  0  0  0  0
 15 17  1  0  0  0  0
 17 18  1  0  0  0  0
 17 19  2  0  0  0  0
 19 20  1  0  0  0  0
 19 39  1  0  0  0  0
 21 22  1  0  0  0  0
 21 40  1  0  0  0  0
 21 41  1  0  0  0  0
 22 42  1  0  0  0  0
 22 43  1  0  0  0  0
M  CHG  1   5   1
M  CHG  1  12   1
M  END
> <s_m_source_file>
AV-unprocessed.smi

> <i_m_source_file_index>
1702

> <i_lp_mmshare_version>
43012

> <i_f3d_flags>
0

> <s_epik_input>
W0NIM11bQ0hdMVtDSDJdW0NIMl1OKFtDSDJdW0NIMl0xKVtDSDJdW0NASF0oW09IXSlbQ0gyXW4oW2NIXW4yKWMoYzIzKVtjSF1jKEYpYyhGKVtjSF0z

> <s_epik_cmdline>
J2VwaWtfcHl0aG9uJywgJy1waCcsICc3LjAnLCAnLXRuJywgJzgnLCAnLW1hJywgJzIwMCcsICctbWV0YWxfYmluZGluZycsICctaW1hZScsICc8aW5maWxlLm1hZT4nLCAnLW9tYWUnLCAnPG91dGZpbGUubWFlPic=

> <r_epik_Ionization_Penalty>
2.33291

> <r_epik_Ionization_Penalty_Charging>
2.33291

> <r_epik_Ionization_Penalty_Neutral>
6.90208e-07

> <r_epik_State_Penalty>
2.4838

> <r_epik_Charging_Adjusted_Penalty>
4.81672

> <i_epik_Tot_Q>
2

> <i_epik_Tot_abs_Q>
2

> <r_epik_Metal_State_Penalty>
6.56754

> <b_epik_Metal_Only>
0

> <s_lp_Force_Field>
OPLS_2005

> <r_lp_Energy>
29.8556

> <b_lp_Chiralities_Consistent>
1

> <s_lp_Variant>
AV-unprocessed.smi:1702-6

> <Gold.Version>
5.8.1

> <Gold.Id.Protein>
6NUR|6NUR_protein|mol2

> <Gold.PLP.Fitness>
54.4526

> <Gold.PLP.PLP>
-36.0295

> <Gold.PLP.part.hbond>
-4.5574

> <Gold.PLP.part.metal>
0.0000

> <Gold.PLP.part.buried>
-1.5493

> <Gold.PLP.part.nonpolar>
-30.4840

> <Gold.PLP.part.repulsive>
0.0294

> <Gold.PLP.ligand.clash>
0.0000

> <Gold.PLP.ligand.torsion>
1.2482

> <Gold.PLP.Chemscore.Hbond>
5.9675

> <Gold.PLP.Chemscore.CHOScore>
1.0000

> <Gold.PLP.Chemscore.Metal>
0.0000

> <Gold.Chemscore.Hbonds>
donor molecule, donor type, donor heavy atom, donor atom, acceptor molecule, acceptor atom, score
      L1  H     5    44       P1  7948  2.00
      L1  H     8    34       P1 10171  0.32
      L1  H    12    45       P1 10186  1.54
      P1  H  7954  7966       L1     8  0.75
      L1  C    11    37       P1 10171  1.00

> <Gold.PLP.Chemscore.Internal.Correction>
0.0171

> <Gold.Rescore>
     Score         DG    S(hbond)    S(metal)    S(lipo)     H(rot)  DE(clash)    DE(int)     intcor
     18.28     -21.29       3.59        0.00      83.39       2.32       1.53       1.48       ----

> <Gold.Chemscore.Fitness>
18.2806

> <Gold.Chemscore.DG>
-21.2946

> <Gold.Chemscore.ZeroCoef>
-5.4800

> <Gold.Chemscore.Hbond>
3.5925

> <Gold.Chemscore.Metal>
0.0000

> <Gold.Chemscore.Lipo>
83.3943

> <Gold.Chemscore.Internal_Hbond>
0.0000

> <Gold.Chemscore.DEClash>
1.5317

> <Gold.Chemscore.DEInternal>
1.4824

> <Gold.Chemscore.Rot>
2.3210

> <Gold.Chemscore.Internal.Correction>
   9.000000E+99

> <Gold.Chemscore.Hbonds>
donor molecule, donor type, donor heavy atom, donor atom, acceptor molecule, acceptor atom, score
      L1  H     5    44       P1  7948  1.00
      L1  H     8    34       P1 10171  0.32
      L1  H    12    45       P1 10186  0.74
      P1  H  7954  7966       L1     8  0.09

> <Gold.Chemscore.Hbond.Weighted>
-11.9991

> <Gold.Chemscore.Metal.Weighted>
-0.0000

> <Gold.Chemscore.Lipo.Weighted>
-9.7571

> <Gold.Chemscore.Internal_Hbond.Weighted>
0.0000

> <Gold.Chemscore.DEClash.Weighted>
1.5317

> <Gold.Chemscore.DEInternal.Weighted>
1.4824

> <Gold.Chemscore.Rot.Weighted>
5.9416

> <Gold.Chemscore.Internal.Correction.Weighted>
   9.000000E+99

> <Gold.Protein.RotatedTorsions>
[ 6907 6896 6895 6894 ] final   28.67 input  -60.11 | X-H torsion
[ 7974 7965 7964 7962 ] final  -66.80 input  175.53 | X-H torsion
[ 8008 7997 7996 7995 ] final  -32.04 input   59.86 | X-H torsion
[ 10167 10162 10161 10158 ] final  154.16 input  -65.29 | X-H torsion
[ 10718 10713 10712 10709 ] final  -68.43 input   66.30 | X-H torsion
[ 10763 10752 10751 10750 ] final   32.47 input  -60.55 | X-H torsion
[ 11005 11000 10999 10996 ] final -138.59 input  -57.11 | X-H torsion

> <Gold.Protein.ActiveResidues>
 VAL166  LYS551  ARG553  GLY616  TRP617  ASP618  TYR619  PRO620  LYS621  CYS622 
 ASP623  PHE694  ASN695  SER759  ASP760  ASP761  ALA762  ILE779  LEU786  VAL792 
 PHE793  MET794  SER795  GLU796  ALA797  LYS798  CYS799  TRP800  GLU811  SER814 

> <Gold.Protein.RotatedAtoms>
  152.0204  134.9826  160.0570 H   0  0  0  0  0  0  0  0  0  0  0  0  # atno 6907 bound_to 6896
  152.1343  133.4421  159.4744 H   0  0  0  0  0  0  0  0  0  0  0  0  # atno 6908 bound_to 6896
  150.6859  134.2301  159.4474 H   0  0  0  0  0  0  0  0  0  0  0  0  # atno 6909 bound_to 6896
  145.7372  140.8970  143.0549 H   0  0  0  0  0  0  0  0  0  0  0  0  # atno 7974 bound_to 7965
  154.4193  140.1748  156.1662 H   0  0  0  0  0  0  0  0  0  0  0  0  # atno 8008 bound_to 7997
  155.9797  140.3378  155.6627 H   0  0  0  0  0  0  0  0  0  0  0  0  # atno 8009 bound_to 7997
  155.6516  140.0691  157.2575 H   0  0  0  0  0  0  0  0  0  0  0  0  # atno 8010 bound_to 7997
  139.4824  144.5210  151.7875 H   0  0  0  0  0  0  0  0  0  0  0  0  # atno 10167 bound_to 10162
  156.0506  130.4294  150.1999 H   0  0  0  0  0  0  0  0  0  0  0  0  # atno 10718 bound_to 10713
  153.0261  135.6412  154.1360 H   0  0  0  0  0  0  0  0  0  0  0  0  # atno 10763 bound_to 10752
  154.1089  135.2854  155.3236 H   0  0  0  0  0  0  0  0  0  0  0  0  # atno 10764 bound_to 10752
  154.6346  135.5481  153.7781 H   0  0  0  0  0  0  0  0  0  0  0  0  # atno 10765 bound_to 10752
  140.8601  134.2179  157.4712 H   0  0  0  0  0  0  0  0  0  0  0  0  # atno 11005 bound_to 11000
  144.6879  139.9412  143.7475 LP  0  0  0  0  0  0  0  0  0  0  0  0  # atno 17320 bound_to 7965
  146.0482  139.3485  143.0656 LP  0  0  0  0  0  0  0  0  0  0  0  0  # atno 17321 bound_to 7965
  140.4724  144.1567  150.5920 LP  0  0  0  0  0  0  0  0  0  0  0  0  # atno 17342 bound_to 10162
  140.4367  143.2544  151.9526 LP  0  0  0  0  0  0  0  0  0  0  0  0  # atno 17343 bound_to 10162
  157.0083  130.9943  151.3373 LP  0  0  0  0  0  0  0  0  0  0  0  0  # atno 17370 bound_to 10713
  157.5428  130.8131  149.8049 LP  0  0  0  0  0  0  0  0  0  0  0  0  # atno 17371 bound_to 10713
  139.8706  134.9725  156.4776 LP  0  0  0  0  0  0  0  0  0  0  0  0  # atno 17394 bound_to 11000
  140.8692  133.8001  155.9347 LP  0  0  0  0  0  0  0  0  0  0  0  0  # atno 17395 bound_to 11000

$$$$
