AV-unprocessed.smi:1791|AV-procd|sdf|7220|dock7
  -GOLD-   22720 8463D 1   1.00000     0.00000
 Structure written by MMmdl.
 38 39  0  0  0  0  0  0  0  0  1 V2000
  153.0752  139.1861  158.4417 C   0  0  0  0  0  0  0  0  0  0  0  0
  153.1581  139.0980  157.0235 O   0  0  0  0  0  0  0  0  0  0  0  0
  152.2979  138.2406  156.3686 C   0  0  0  0  0  0  0  0  0  0  0  0
  151.6127  137.2670  157.1221 C   0  0  0  0  0  0  0  0  0  0  0  0
  150.7286  136.3918  156.4625 C   0  0  0  0  0  0  0  0  0  0  0  0
  150.5521  136.5240  155.0644 C   0  0  0  0  0  0  0  0  0  0  0  0
  149.7014  135.6973  154.2817 N   0  0  0  0  0  0  0  0  0  0  0  0
  149.1295  134.5284  154.6173 C   0  0  0  0  0  0  0  0  0  0  0  0
  149.2619  133.9565  155.6989 O   0  0  0  0  0  0  0  0  0  0  0  0
  148.3643  134.0641  153.6192 N   0  0  0  0  0  0  0  0  0  0  0  0
  147.5724  132.8346  153.6416 C   0  0  2  0  0  0  0  0  0  0  0  0
  148.4811  131.6453  153.9839 C   0  0  0  0  0  0  0  0  0  0  0  0
  146.8347  132.6336  152.3020 C   0  0  1  0  0  0  0  0  0  0  0  0
  146.0122  131.3471  152.1908 C   0  0  0  0  0  0  0  0  0  0  0  0
  145.0264  131.7164  151.1062 C   0  0  0  0  0  0  0  0  0  0  0  0
  144.7289  133.1759  151.4395 C   0  0  0  0  0  0  0  0  0  0  0  0
  145.9085  133.6898  152.0533 O   0  0  0  0  0  0  0  0  0  0  0  0
  151.2980  137.5194  154.4004 C   0  0  0  0  0  0  0  0  0  0  0  0
  152.1459  138.3622  155.0267 N   0  0  0  0  0  0  0  0  0  0  0  0
  153.8222  139.8924  158.8033 H   0  0  0  0  0  0  0  0  0  0  0  0
  153.2752  138.2230  158.9138 H   0  0  0  0  0  0  0  0  0  0  0  0
  152.0965  139.5463  158.7624 H   0  0  0  0  0  0  0  0  0  0  0  0
  151.7648  137.1908  158.1887 H   0  0  0  0  0  0  0  0  0  0  0  0
  150.2183  135.6357  157.0382 H   0  0  0  0  0  0  0  0  0  0  0  0
  149.4389  136.0761  153.3835 H   0  0  0  0  0  0  0  0  0  0  0  0
  148.3122  134.6111  152.7722 H   0  0  0  0  0  0  0  0  0  0  0  0
  146.8137  132.8922  154.4239 H   0  0  0  0  0  0  0  0  0  0  0  0
  147.9093  130.7187  154.0384 H   0  0  0  0  0  0  0  0  0  0  0  0
  148.9673  131.7884  154.9494 H   0  0  0  0  0  0  0  0  0  0  0  0
  149.2618  131.5109  153.2344 H   0  0  0  0  0  0  0  0  0  0  0  0
  147.5590  132.6433  151.4858 H   0  0  0  0  0  0  0  0  0  0  0  0
  146.6182  130.4762  151.9398 H   0  0  0  0  0  0  0  0  0  0  0  0
  145.4753  131.1325  153.1153 H   0  0  0  0  0  0  0  0  0  0  0  0
  145.5028  131.6433  150.1275 H   0  0  0  0  0  0  0  0  0  0  0  0
  144.1350  131.0887  151.1023 H   0  0  0  0  0  0  0  0  0  0  0  0
  144.4550  133.7551  150.5575 H   0  0  0  0  0  0  0  0  0  0  0  0
  143.9101  133.2432  152.1570 H   0  0  0  0  0  0  0  0  0  0  0  0
  151.2082  137.6504  153.3318 H   0  0  0  0  0  0  0  0  0  0  0  0
  1  2  1  0  0  0  0
  1 20  1  0  0  0  0
  1 21  1  0  0  0  0
  1 22  1  0  0  0  0
  2  3  1  0  0  0  0
  3 19  1  0  0  0  0
  3  4  2  0  0  0  0
  4  5  1  0  0  0  0
  4 23  1  0  0  0  0
  5  6  2  0  0  0  0
  5 24  1  0  0  0  0
  6  7  1  0  0  0  0
  6 18  1  0  0  0  0
  7  8  1  0  0  0  0
  7 25  1  0  0  0  0
  8  9  2  0  0  0  0
  8 10  1  0  0  0  0
 10 11  1  0  0  0  0
 10 26  1  0  0  0  0
 11 12  1  0  0  0  0
 11 13  1  0  0  0  0
 11 27  1  0  0  0  0
 12 28  1  0  0  0  0
 12 29  1  0  0  0  0
 12 30  1  0  0  0  0
 13 17  1  0  0  0  0
 13 14  1  0  0  0  0
 13 31  1  0  0  0  0
 14 15  1  0  0  0  0
 14 32  1  0  0  0  0
 14 33  1  0  0  0  0
 15 16  1  0  0  0  0
 15 34  1  0  0  0  0
 15 35  1  0  0  0  0
 16 17  1  0  0  0  0
 16 36  1  0  0  0  0
 16 37  1  0  0  0  0
 18 19  2  0  0  0  0
 18 38  1  0  0  0  0
M  END
> <s_m_source_file>
AV-unprocessed.smi

> <i_m_source_file_index>
1791

> <i_lp_mmshare_version>
43012

> <i_f3d_flags>
0

> <s_epik_input>
W0NIM11PYzFbY0hdW2NIXWMoW2NIXW4xKVtOSF1DKD1PKVtOSF1bQ0BIXShbQ0gzXSlbQ0BASF0yW0NIMl1bQ0gyXVtDSDJdTzI=

> <s_epik_cmdline>
J2VwaWtfcHl0aG9uJywgJy1waCcsICc3LjAnLCAnLXRuJywgJzgnLCAnLW1hJywgJzIwMCcsICctbWV0YWxfYmluZGluZycsICctaW1hZScsICc8aW5maWxlLm1hZT4nLCAnLW9tYWUnLCAnPG91dGZpbGUubWFlPic=

> <r_lp_tautomer_probability>
1

> <r_epik_Ionization_Penalty>
9.18737e-05

> <r_epik_Ionization_Penalty_Charging>
0

> <r_epik_Ionization_Penalty_Neutral>
9.18737e-05

> <r_epik_State_Penalty>
-0

> <r_epik_Charging_Adjusted_Penalty>
0

> <i_epik_Tot_Q>
0

> <i_epik_Tot_abs_Q>
0

> <r_epik_Metal_State_Penalty>
-0

> <b_epik_Metal_Only>
0

> <s_lp_Force_Field>
OPLS_2005

> <r_lp_Energy>
21.9226

> <b_lp_Chiralities_Consistent>
1

> <s_lp_Variant>
AV-unprocessed.smi:1791-3

> <Gold.Version>
5.8.1

> <Gold.Id.Protein>
6NUR|6NUR_protein|mol2

> <Gold.PLP.Fitness>
38.3748

> <Gold.PLP.PLP>
-27.0919

> <Gold.PLP.part.hbond>
-3.7115

> <Gold.PLP.part.metal>
0.0000

> <Gold.PLP.part.buried>
-2.9877

> <Gold.PLP.part.nonpolar>
-21.1857

> <Gold.PLP.part.repulsive>
0.2251

> <Gold.PLP.ligand.clash>
0.0000

> <Gold.PLP.ligand.torsion>
0.2623

> <Gold.PLP.Chemscore.Hbond>
2.9280

> <Gold.PLP.Chemscore.CHOScore>
1.0000

> <Gold.PLP.Chemscore.Metal>
0.0000

> <Gold.Chemscore.Hbonds>
donor molecule, donor type, donor heavy atom, donor atom, acceptor molecule, acceptor atom, score
      L1  H     7    25       P1  7948  1.00
      L1  H    10    26       P1  7948  0.91
      P1  H  7997  8009       L1     2  1.00
      L1  C    18    38       P1  7949  1.00

> <Gold.PLP.Chemscore.Internal.Correction>
0.0235

> <Gold.Rescore>
     Score         DG    S(hbond)    S(metal)    S(lipo)     H(rot)  DE(clash)    DE(int)     intcor
     15.60     -16.92       2.54        0.00      57.39       1.47       0.04       1.28       ----

> <Gold.Chemscore.Fitness>
15.5982

> <Gold.Chemscore.DG>
-16.9212

> <Gold.Chemscore.ZeroCoef>
-5.4800

> <Gold.Chemscore.Hbond>
2.5414

> <Gold.Chemscore.Metal>
0.0000

> <Gold.Chemscore.Lipo>
57.3855

> <Gold.Chemscore.Internal_Hbond>
0.0000

> <Gold.Chemscore.DEClash>
0.0442

> <Gold.Chemscore.DEInternal>
1.2788

> <Gold.Chemscore.Rot>
1.4693

> <Gold.Chemscore.Internal.Correction>
   9.000000E+99

> <Gold.Chemscore.Hbonds>
donor molecule, donor type, donor heavy atom, donor atom, acceptor molecule, acceptor atom, score
      L1  H     7    25       P1  7948  0.48
      L1  H    10    26       P1  7948  0.35
      P1  H  7997  8009       L1     2  0.25

> <Gold.Chemscore.Hbond.Weighted>
-8.4884

> <Gold.Chemscore.Metal.Weighted>
-0.0000

> <Gold.Chemscore.Lipo.Weighted>
-6.7141

> <Gold.Chemscore.Internal_Hbond.Weighted>
0.0000

> <Gold.Chemscore.DEClash.Weighted>
0.0442

> <Gold.Chemscore.DEInternal.Weighted>
1.2788

> <Gold.Chemscore.Rot.Weighted>
3.7613

> <Gold.Chemscore.Internal.Correction.Weighted>
   9.000000E+99

> <Gold.Protein.RotatedTorsions>
[ 6907 6896 6895 6894 ] final -114.95 input  -60.11 | X-H torsion
[ 7974 7965 7964 7962 ] final  141.30 input  175.53 | X-H torsion
[ 8008 7997 7996 7995 ] final  172.60 input   59.86 | X-H torsion
[ 10167 10162 10161 10158 ] final -159.09 input  -65.29 | X-H torsion
[ 10718 10713 10712 10709 ] final  -68.57 input   66.30 | X-H torsion
[ 10763 10752 10751 10750 ] final  -26.21 input  -60.55 | X-H torsion
[ 11005 11000 10999 10996 ] final -149.43 input  -57.11 | X-H torsion

> <Gold.Protein.ActiveResidues>
 VAL166  LYS551  ARG553  GLY616  TRP617  ASP618  TYR619  PRO620  LYS621  CYS622 
 ASP623  PHE694  ASN695  SER759  ASP760  ASP761  ALA762  ILE779  LEU786  VAL792 
 PHE793  MET794  SER795  GLU796  ALA797  LYS798  CYS799  TRP800  GLU811  SER814 

> <Gold.Protein.RotatedAtoms>
  150.7941  133.8727  159.3263 H   0  0  0  0  0  0  0  0  0  0  0  0  # atno 6907 bound_to 6896
  151.6557  135.0994  160.0179 H   0  0  0  0  0  0  0  0  0  0  0  0  # atno 6908 bound_to 6896
  152.4020  133.6792  159.6359 H   0  0  0  0  0  0  0  0  0  0  0  0  # atno 6909 bound_to 6896
  144.9109  139.5295  143.5709 H   0  0  0  0  0  0  0  0  0  0  0  0  # atno 7974 bound_to 7965
  156.1158  140.1482  156.9274 H   0  0  0  0  0  0  0  0  0  0  0  0  # atno 8008 bound_to 7997
  154.4800  140.0882  156.7396 H   0  0  0  0  0  0  0  0  0  0  0  0  # atno 8009 bound_to 7997
  155.4515  140.3435  155.4303 H   0  0  0  0  0  0  0  0  0  0  0  0  # atno 8010 bound_to 7997
  139.6642  143.9859  152.2244 H   0  0  0  0  0  0  0  0  0  0  0  0  # atno 10167 bound_to 10162
  156.0498  130.4297  150.2021 H   0  0  0  0  0  0  0  0  0  0  0  0  # atno 10718 bound_to 10713
  153.7122  135.6950  153.5034 H   0  0  0  0  0  0  0  0  0  0  0  0  # atno 10763 bound_to 10752
  153.2264  135.4352  155.0546 H   0  0  0  0  0  0  0  0  0  0  0  0  # atno 10764 bound_to 10752
  154.8311  135.3473  154.6658 H   0  0  0  0  0  0  0  0  0  0  0  0  # atno 10765 bound_to 10752
  140.7509  134.3408  157.5126 H   0  0  0  0  0  0  0  0  0  0  0  0  # atno 11005 bound_to 11000
  146.3158  139.7913  142.8985 LP  0  0  0  0  0  0  0  0  0  0  0  0  # atno 17320 bound_to 7965
  145.3457  141.0297  143.3367 LP  0  0  0  0  0  0  0  0  0  0  0  0  # atno 17321 bound_to 7965
  139.9606  144.6560  150.8083 LP  0  0  0  0  0  0  0  0  0  0  0  0  # atno 17342 bound_to 10162
  140.7592  143.3124  151.2812 LP  0  0  0  0  0  0  0  0  0  0  0  0  # atno 17343 bound_to 10162
  157.0106  130.9949  151.3367 LP  0  0  0  0  0  0  0  0  0  0  0  0  # atno 17370 bound_to 10713
  157.5413  130.8121  149.8032 LP  0  0  0  0  0  0  0  0  0  0  0  0  # atno 17371 bound_to 10713
  139.8788  134.9141  156.3099 LP  0  0  0  0  0  0  0  0  0  0  0  0  # atno 17394 bound_to 11000
  140.9752  133.7302  156.0591 LP  0  0  0  0  0  0  0  0  0  0  0  0  # atno 17395 bound_to 11000

$$$$
