AV-unprocessed.smi:2208|AV-procd|sdf|8946|dock4
  -GOLD-   2272012163D 1   1.00000     0.00000
 Structure written by MMmdl.
 35 36  0  0  0  0  0  0  0  0  1 V2000
  147.4845  142.6242  154.0844 C   0  0  0  0  0  0  0  0  0  0  0  0
  148.7081  141.7955  154.3539 C   0  0  0  0  0  0  0  0  0  0  0  0
  149.3448  141.2445  153.3345 N   0  0  0  0  0  0  0  0  0  0  0  0
  150.4321  140.5598  153.8848 O   0  0  0  0  0  0  0  0  0  0  0  0
  150.4074  140.7265  155.2309 C   0  0  0  0  0  0  0  0  0  0  0  0
  151.5083  140.0782  156.0002 C   0  0  0  0  0  0  0  0  0  0  0  0
  149.3370  141.4965  155.5981 C   0  0  0  0  0  0  0  0  0  0  0  0
  148.9299  141.9383  156.9814 C   0  0  0  0  0  0  0  0  0  0  0  0
  150.1785  142.3144  157.7772 C   0  0  0  0  0  0  0  0  0  0  0  0
  150.8621  141.4365  158.3032 O   0  0  0  0  0  0  0  0  0  0  0  0
  150.4463  143.6250  157.8789 N   0  0  0  0  0  0  0  0  0  0  0  0
  151.5149  144.2037  158.6828 C   0  0  0  0  0  0  0  0  0  0  0  0
  151.6171  143.5046  160.0480 C   0  0  1  0  0  0  0  0  0  0  0  0
  152.7643  142.5039  160.1470 C   0  0  0  0  0  0  0  0  0  0  0  0
  152.9485  142.4079  161.6452 C   0  0  0  0  0  0  0  0  0  0  0  0
  152.6781  143.8410  162.1020 C   0  0  0  0  0  0  0  0  0  0  0  0
  151.8939  144.4486  161.0776 O   0  0  0  0  0  0  0  0  0  0  0  0
  147.7418  143.5333  153.5403 H   0  0  0  0  0  0  0  0  0  0  0  0
  146.9884  142.9242  155.0067 H   0  0  0  0  0  0  0  0  0  0  0  0
  146.7598  142.0711  153.4863 H   0  0  0  0  0  0  0  0  0  0  0  0
  152.4160  140.6793  155.9511 H   0  0  0  0  0  0  0  0  0  0  0  0
  151.7340  139.0903  155.5987 H   0  0  0  0  0  0  0  0  0  0  0  0
  151.2380  139.9609  157.0497 H   0  0  0  0  0  0  0  0  0  0  0  0
  148.2588  142.7966  156.9532 H   0  0  0  0  0  0  0  0  0  0  0  0
  148.3833  141.1521  157.5041 H   0  0  0  0  0  0  0  0  0  0  0  0
  149.8270  144.2724  157.4132 H   0  0  0  0  0  0  0  0  0  0  0  0
  152.4646  144.1365  158.1494 H   0  0  0  0  0  0  0  0  0  0  0  0
  151.3085  145.2657  158.8182 H   0  0  0  0  0  0  0  0  0  0  0  0
  150.6812  142.9980  160.2908 H   0  0  0  0  0  0  0  0  0  0  0  0
  152.5345  141.5451  159.6816 H   0  0  0  0  0  0  0  0  0  0  0  0
  153.6672  142.9044  159.6838 H   0  0  0  0  0  0  0  0  0  0  0  0
  152.2018  141.7342  162.0678 H   0  0  0  0  0  0  0  0  0  0  0  0
  153.9357  142.0468  161.9346 H   0  0  0  0  0  0  0  0  0  0  0  0
  152.1612  143.8706  163.0612 H   0  0  0  0  0  0  0  0  0  0  0  0
  153.6096  144.3985  162.2023 H   0  0  0  0  0  0  0  0  0  0  0  0
  1  2  1  0  0  0  0
  1 18  1  0  0  0  0
  1 19  1  0  0  0  0
  1 20  1  0  0  0  0
  2  7  1  0  0  0  0
  2  3  2  0  0  0  0
  3  4  1  0  0  0  0
  4  5  1  0  0  0  0
  5  6  1  0  0  0  0
  5  7  2  0  0  0  0
  6 21  1  0  0  0  0
  6 22  1  0  0  0  0
  6 23  1  0  0  0  0
  7  8  1  0  0  0  0
  8  9  1  0  0  0  0
  8 24  1  0  0  0  0
  8 25  1  0  0  0  0
  9 10  2  0  0  0  0
  9 11  1  0  0  0  0
 11 12  1  0  0  0  0
 11 26  1  0  0  0  0
 12 13  1  0  0  0  0
 12 27  1  0  0  0  0
 12 28  1  0  0  0  0
 13 17  1  0  0  0  0
 13 14  1  0  0  0  0
 13 29  1  0  0  0  0
 14 15  1  0  0  0  0
 14 30  1  0  0  0  0
 14 31  1  0  0  0  0
 15 16  1  0  0  0  0
 15 32  1  0  0  0  0
 15 33  1  0  0  0  0
 16 17  1  0  0  0  0
 16 34  1  0  0  0  0
 16 35  1  0  0  0  0
M  END
> <s_m_source_file>
AV-unprocessed.smi

> <i_m_source_file_index>
2208

> <i_lp_mmshare_version>
43012

> <i_f3d_flags>
0

> <s_epik_input>
W0NIM11jMW5vYyhbQ0gzXSljMVtDSDJdQyg9TylbTkhdW0NIMl1bQ0BASF0yW0NIMl1bQ0gyXVtDSDJdTzI=

> <s_epik_cmdline>
J2VwaWtfcHl0aG9uJywgJy1waCcsICc3LjAnLCAnLXRuJywgJzgnLCAnLW1hJywgJzIwMCcsICctbWV0YWxfYmluZGluZycsICctaW1hZScsICc8aW5maWxlLm1hZT4nLCAnLW9tYWUnLCAnPG91dGZpbGUubWFlPic=

> <r_lp_tautomer_probability>
1

> <r_epik_Ionization_Penalty>
3.13901e-08

> <r_epik_Ionization_Penalty_Charging>
0

> <r_epik_Ionization_Penalty_Neutral>
3.13901e-08

> <r_epik_State_Penalty>
-0

> <r_epik_Charging_Adjusted_Penalty>
0

> <i_epik_Tot_Q>
0

> <i_epik_Tot_abs_Q>
0

> <r_epik_Metal_State_Penalty>
-0

> <b_epik_Metal_Only>
0

> <s_lp_Force_Field>
OPLS_2005

> <r_lp_Energy>
10.5641

> <b_lp_Chiralities_Consistent>
1

> <s_lp_Variant>
AV-unprocessed.smi:2208-2

> <Gold.Version>
5.8.1

> <Gold.Id.Protein>
6NUR|6NUR_protein|mol2

> <Gold.PLP.Fitness>
41.5820

> <Gold.PLP.PLP>
-35.0989

> <Gold.PLP.part.hbond>
-3.7574

> <Gold.PLP.part.metal>
0.0000

> <Gold.PLP.part.buried>
-5.9671

> <Gold.PLP.part.nonpolar>
-29.5135

> <Gold.PLP.part.repulsive>
5.0211

> <Gold.PLP.ligand.clash>
0.0000

> <Gold.PLP.ligand.torsion>
1.2493

> <Gold.PLP.Chemscore.Hbond>
2.9913

> <Gold.PLP.Chemscore.CHOScore>
0.0000

> <Gold.PLP.Chemscore.Metal>
0.0000

> <Gold.Chemscore.Hbonds>
donor molecule, donor type, donor heavy atom, donor atom, acceptor molecule, acceptor atom, score
      L1  H    11    26       P1  8028  0.93
      P1  H  7989  7998       L1     4  0.29
      P1  H  8011  8017       L1     3  1.00

> <Gold.PLP.Chemscore.Internal.Correction>
0.0078

> <Gold.Rescore>
     Score         DG    S(hbond)    S(metal)    S(lipo)     H(rot)  DE(clash)    DE(int)     intcor
     12.03     -17.67       1.62        0.00      92.00       1.56       1.85       3.79       ----

> <Gold.Chemscore.Fitness>
12.0320

> <Gold.Chemscore.DG>
-17.6693

> <Gold.Chemscore.ZeroCoef>
-5.4800

> <Gold.Chemscore.Hbond>
1.6186

> <Gold.Chemscore.Metal>
0.0000

> <Gold.Chemscore.Lipo>
92.0000

> <Gold.Chemscore.Internal_Hbond>
0.0000

> <Gold.Chemscore.DEClash>
1.8494

> <Gold.Chemscore.DEInternal>
3.7879

> <Gold.Chemscore.Rot>
1.5551

> <Gold.Chemscore.Internal.Correction>
   9.000000E+99

> <Gold.Chemscore.Hbonds>
donor molecule, donor type, donor heavy atom, donor atom, acceptor molecule, acceptor atom, score
      L1  H    11    26       P1  8028  0.30
      P1  H  7989  7998       L1     4  0.17
      P1  H  8011  8017       L1     3  0.53

> <Gold.Chemscore.Hbond.Weighted>
-5.4062

> <Gold.Chemscore.Metal.Weighted>
-0.0000

> <Gold.Chemscore.Lipo.Weighted>
-10.7640

> <Gold.Chemscore.Internal_Hbond.Weighted>
0.0000

> <Gold.Chemscore.DEClash.Weighted>
1.8494

> <Gold.Chemscore.DEInternal.Weighted>
3.7879

> <Gold.Chemscore.Rot.Weighted>
3.9809

> <Gold.Chemscore.Internal.Correction.Weighted>
   9.000000E+99

> <Gold.Protein.RotatedTorsions>
[ 6907 6896 6895 6894 ] final -101.69 input  -60.11 | X-H torsion
[ 7974 7965 7964 7962 ] final  126.57 input  175.53 | X-H torsion
[ 8008 7997 7996 7995 ] final   20.49 input   59.86 | X-H torsion
[ 10167 10162 10161 10158 ] final   60.66 input  -65.29 | X-H torsion
[ 10718 10713 10712 10709 ] final -117.35 input   66.30 | X-H torsion
[ 10763 10752 10751 10750 ] final   73.75 input  -60.55 | X-H torsion
[ 11005 11000 10999 10996 ] final -155.80 input  -57.11 | X-H torsion

> <Gold.Protein.ActiveResidues>
 VAL166  LYS551  ARG553  GLY616  TRP617  ASP618  TYR619  PRO620  LYS621  CYS622 
 ASP623  PHE694  ASN695  SER759  ASP760  ASP761  ALA762  ILE779  LEU786  VAL792 
 PHE793  MET794  SER795  GLU796  ALA797  LYS798  CYS799  TRP800  GLU811  SER814 

> <Gold.Protein.RotatedAtoms>
  150.7165  134.0696  159.3859 H   0  0  0  0  0  0  0  0  0  0  0  0  # atno 6907 bound_to 6896
  151.8677  135.0498  160.0485 H   0  0  0  0  0  0  0  0  0  0  0  0  # atno 6908 bound_to 6896
  152.2667  133.5310  159.5451 H   0  0  0  0  0  0  0  0  0  0  0  0  # atno 6909 bound_to 6896
  145.0603  139.3811  143.5009 H   0  0  0  0  0  0  0  0  0  0  0  0  # atno 7974 bound_to 7965
  154.9363  140.3047  155.5142 H   0  0  0  0  0  0  0  0  0  0  0  0  # atno 8008 bound_to 7997
  156.2999  140.2344  156.4365 H   0  0  0  0  0  0  0  0  0  0  0  0  # atno 8009 bound_to 7997
  154.8188  140.0424  157.1384 H   0  0  0  0  0  0  0  0  0  0  0  0  # atno 8010 bound_to 7997
  140.1631  144.4350  150.6699 H   0  0  0  0  0  0  0  0  0  0  0  0  # atno 10167 bound_to 10162
  156.1027  130.6185  150.9152 H   0  0  0  0  0  0  0  0  0  0  0  0  # atno 10718 bound_to 10713
  153.0542  135.5051  154.7941 H   0  0  0  0  0  0  0  0  0  0  0  0  # atno 10763 bound_to 10752
  154.6780  135.2963  154.9655 H   0  0  0  0  0  0  0  0  0  0  0  0  # atno 10764 bound_to 10752
  154.0451  135.6711  153.4847 H   0  0  0  0  0  0  0  0  0  0  0  0  # atno 10765 bound_to 10752
  140.6825  134.4129  157.5225 H   0  0  0  0  0  0  0  0  0  0  0  0  # atno 11005 bound_to 11000
  146.3524  140.0297  142.8651 LP  0  0  0  0  0  0  0  0  0  0  0  0  # atno 17320 bound_to 7965
  145.1418  140.9575  143.4484 LP  0  0  0  0  0  0  0  0  0  0  0  0  # atno 17321 bound_to 7965
  140.6630  143.2258  151.5811 LP  0  0  0  0  0  0  0  0  0  0  0  0  # atno 17342 bound_to 10162
  139.5372  144.2749  152.1275 LP  0  0  0  0  0  0  0  0  0  0  0  0  # atno 17343 bound_to 10162
  157.6200  131.0930  150.8640 LP  0  0  0  0  0  0  0  0  0  0  0  0  # atno 17370 bound_to 10713
  156.8765  130.5164  149.5293 LP  0  0  0  0  0  0  0  0  0  0  0  0  # atno 17371 bound_to 10713
  139.8947  134.8700  156.2164 LP  0  0  0  0  0  0  0  0  0  0  0  0  # atno 17394 bound_to 11000
  141.0306  133.6991  156.1423 LP  0  0  0  0  0  0  0  0  0  0  0  0  # atno 17395 bound_to 11000

$$$$
