AV-unprocessed.smi:2910|AV-procd|sdf|11176|dock1
  -GOLD-   2272016 63D 1   1.00000     0.00000
 Structure written by MMmdl.
 47 48  0  0  0  0  0  0  0  0  1 V2000
  152.0942  131.3409  156.3680 C   0  0  0  0  0  0  0  0  0  0  0  0
  151.1000  132.4116  156.0278 C   0  0  0  0  0  0  0  0  0  0  0  0
  150.4974  132.6797  154.7645 C   0  0  0  0  0  0  0  0  0  0  0  0
  149.6919  133.7517  155.0364 C   0  0  0  0  0  0  0  0  0  0  0  0
  148.8766  134.4434  154.1966 N   0  0  0  0  0  0  0  0  0  0  0  0
  147.5503  134.3147  154.0188 C   0  0  0  0  0  0  0  0  0  0  0  0
  146.8206  133.5380  154.6349 O   0  0  0  0  0  0  0  0  0  0  0  0
  147.1084  135.1551  153.0706 N   0  0  0  0  0  0  0  0  0  0  0  0
  145.7240  135.2790  152.6055 C   0  0  1  0  0  0  0  0  0  0  0  0
  145.6235  136.4847  151.6403 C   0  0  0  0  0  0  0  0  0  0  0  0
  146.2452  137.7827  152.1853 C   0  0  0  0  0  0  0  0  0  0  0  0
  147.1610  138.3034  151.2464 O   0  0  0  0  0  0  0  0  0  0  0  0
  145.2511  133.9354  151.9777 C   0  0  0  0  0  0  0  0  0  0  0  0
  146.0367  133.5712  150.6933 C   0  0  0  0  0  0  0  0  0  0  0  0
  145.5548  132.2547  150.0625 C   0  0  0  0  0  0  0  0  0  0  0  0
  144.0515  132.2949  149.7630 C   0  0  0  0  0  0  0  0  0  0  0  0
  143.2581  132.6202  151.0339 C   0  0  0  0  0  0  0  0  0  0  0  0
  143.7321  133.9392  151.6637 C   0  0  0  0  0  0  0  0  0  0  0  0
  149.8223  134.0796  156.3675 N   0  0  0  0  0  0  0  0  0  0  0  0
  149.1764  135.1349  157.1235 C   0  0  0  0  0  0  0  0  0  0  0  0
  150.6933  133.2467  156.9773 N   0  0  0  0  0  0  0  0  0  0  0  0
  152.3201  130.7231  155.4986 H   0  0  0  0  0  0  0  0  0  0  0  0
  151.7136  130.6851  157.1513 H   0  0  0  0  0  0  0  0  0  0  0  0
  153.0312  131.7735  156.7194 H   0  0  0  0  0  0  0  0  0  0  0  0
  150.6476  132.1616  153.8295 H   0  0  0  0  0  0  0  0  0  0  0  0
  149.3365  135.1383  153.6273 H   0  0  0  0  0  0  0  0  0  0  0  0
  147.7855  135.7547  152.6221 H   0  0  0  0  0  0  0  0  0  0  0  0
  145.0697  135.4887  153.4537 H   0  0  0  0  0  0  0  0  0  0  0  0
  146.0902  136.2308  150.6874 H   0  0  0  0  0  0  0  0  0  0  0  0
  144.5771  136.6933  151.4218 H   0  0  0  0  0  0  0  0  0  0  0  0
  145.4726  138.5275  152.3789 H   0  0  0  0  0  0  0  0  0  0  0  0
  146.7740  137.6079  153.1223 H   0  0  0  0  0  0  0  0  0  0  0  0
  147.7157  138.9315  151.6837 H   0  0  0  0  0  0  0  0  0  0  0  0
  145.4312  133.1460  152.7093 H   0  0  0  0  0  0  0  0  0  0  0  0
  145.9443  134.3780  149.9649 H   0  0  0  0  0  0  0  0  0  0  0  0
  147.0998  133.4668  150.9050 H   0  0  0  0  0  0  0  0  0  0  0  0
  146.1099  132.0585  149.1448 H   0  0  0  0  0  0  0  0  0  0  0  0
  145.7712  131.4256  150.7374 H   0  0  0  0  0  0  0  0  0  0  0  0
  143.8479  133.0464  148.9991 H   0  0  0  0  0  0  0  0  0  0  0  0
  143.7257  131.3384  149.3531 H   0  0  0  0  0  0  0  0  0  0  0  0
  142.1946  132.6815  150.8016 H   0  0  0  0  0  0  0  0  0  0  0  0
  143.3713  131.8092  151.7546 H   0  0  0  0  0  0  0  0  0  0  0  0
  143.1486  134.1088  152.5684 H   0  0  0  0  0  0  0  0  0  0  0  0
  143.5004  134.7664  150.9913 H   0  0  0  0  0  0  0  0  0  0  0  0
  149.3547  136.0947  156.6377 H   0  0  0  0  0  0  0  0  0  0  0  0
  149.5698  135.1760  158.1404 H   0  0  0  0  0  0  0  0  0  0  0  0
  148.1028  134.9495  157.1656 H   0  0  0  0  0  0  0  0  0  0  0  0
  1  2  1  0  0  0  0
  1 22  1  0  0  0  0
  1 23  1  0  0  0  0
  1 24  1  0  0  0  0
  2 21  2  0  0  0  0
  2  3  1  0  0  0  0
  3  4  2  0  0  0  0
  3 25  1  0  0  0  0
  4  5  1  0  0  0  0
  4 19  1  0  0  0  0
  5  6  1  0  0  0  0
  5 26  1  0  0  0  0
  6  7  2  0  0  0  0
  6  8  1  0  0  0  0
  8  9  1  0  0  0  0
  8 27  1  0  0  0  0
  9 10  1  0  0  0  0
  9 13  1  0  0  0  0
  9 28  1  0  0  0  0
 10 11  1  0  0  0  0
 10 29  1  0  0  0  0
 10 30  1  0  0  0  0
 11 12  1  0  0  0  0
 11 31  1  0  0  0  0
 11 32  1  0  0  0  0
 12 33  1  0  0  0  0
 13 18  1  0  0  0  0
 13 14  1  0  0  0  0
 13 34  1  0  0  0  0
 14 15  1  0  0  0  0
 14 35  1  0  0  0  0
 14 36  1  0  0  0  0
 15 16  1  0  0  0  0
 15 37  1  0  0  0  0
 15 38  1  0  0  0  0
 16 17  1  0  0  0  0
 16 39  1  0  0  0  0
 16 40  1  0  0  0  0
 17 18  1  0  0  0  0
 17 41  1  0  0  0  0
 17 42  1  0  0  0  0
 18 43  1  0  0  0  0
 18 44  1  0  0  0  0
 19 20  1  0  0  0  0
 19 21  1  0  0  0  0
 20 45  1  0  0  0  0
 20 46  1  0  0  0  0
 20 47  1  0  0  0  0
M  END
> <s_m_source_file>
AV-unprocessed.smi

> <i_m_source_file_index>
2910

> <i_lp_mmshare_version>
43012

> <i_f3d_flags>
0

> <s_epik_input>
W0NIM11jMVtjSF1jKG4objEpW0NIM10pW05IXUMoPU8pW05IXVtDQEhdKFtDSDJdW0NIMl1bT0hdKVtDSF0yW0NIMl1bQ0gyXVtDSDJdW0NIMl1bQ0gyXTI=

> <s_epik_cmdline>
J2VwaWtfcHl0aG9uJywgJy1waCcsICc3LjAnLCAnLXRuJywgJzgnLCAnLW1hJywgJzIwMCcsICctbWV0YWxfYmluZGluZycsICctaW1hZScsICc8aW5maWxlLm1hZT4nLCAnLW9tYWUnLCAnPG91dGZpbGUubWFlPic=

> <r_lp_tautomer_probability>
1

> <r_epik_Ionization_Penalty>
0.000101449

> <r_epik_Ionization_Penalty_Charging>
0

> <r_epik_Ionization_Penalty_Neutral>
0.000101449

> <r_epik_State_Penalty>
-0

> <r_epik_Charging_Adjusted_Penalty>
0

> <i_epik_Tot_Q>
0

> <i_epik_Tot_abs_Q>
0

> <r_epik_Metal_State_Penalty>
-0

> <b_epik_Metal_Only>
0

> <s_lp_Force_Field>
OPLS_2005

> <r_lp_Energy>
16.2271

> <b_lp_Chiralities_Consistent>
1

> <s_lp_Variant>
AV-unprocessed.smi:2910-2

> <Gold.Version>
5.8.1

> <Gold.Id.Protein>
6NUR|6NUR_protein|mol2

> <Gold.PLP.Fitness>
47.3527

> <Gold.PLP.PLP>
-37.5227

> <Gold.PLP.part.hbond>
-5.7991

> <Gold.PLP.part.metal>
0.0000

> <Gold.PLP.part.buried>
-3.4402

> <Gold.PLP.part.nonpolar>
-28.7198

> <Gold.PLP.part.repulsive>
0.0562

> <Gold.PLP.ligand.clash>
0.0000

> <Gold.PLP.ligand.torsion>
1.1986

> <Gold.PLP.Chemscore.Hbond>
4.0209

> <Gold.PLP.Chemscore.CHOScore>
0.0000

> <Gold.PLP.Chemscore.Metal>
0.0000

> <Gold.Chemscore.Hbonds>
donor molecule, donor type, donor heavy atom, donor atom, acceptor molecule, acceptor atom, score
      L1  H     5    26       P1  7948  0.63
      L1  H     8    27       P1  7948  0.83
      L1  H    12    33       P1  7957  0.36
      P1  H  6896  6908       L1    21  0.30
      P1  H  7954  7966       L1    12  1.00

> <Gold.PLP.Chemscore.Internal.Correction>
0.1647

> <Gold.Rescore>
     Score         DG    S(hbond)    S(metal)    S(lipo)     H(rot)  DE(clash)    DE(int)     intcor
     18.69     -20.28       3.23        0.00      84.13       2.27       0.41       1.18       ----

> <Gold.Chemscore.Fitness>
18.6866

> <Gold.Chemscore.DG>
-20.2818

> <Gold.Chemscore.ZeroCoef>
-5.4800

> <Gold.Chemscore.Hbond>
3.2278

> <Gold.Chemscore.Metal>
0.0000

> <Gold.Chemscore.Lipo>
84.1307

> <Gold.Chemscore.Internal_Hbond>
0.0000

> <Gold.Chemscore.DEClash>
0.4144

> <Gold.Chemscore.DEInternal>
1.1809

> <Gold.Chemscore.Rot>
2.2743

> <Gold.Chemscore.Internal.Correction>
   9.000000E+99

> <Gold.Chemscore.Hbonds>
donor molecule, donor type, donor heavy atom, donor atom, acceptor molecule, acceptor atom, score
      L1  H     5    26       P1  7948  0.12
      L1  H     8    27       P1  7948  0.80
      L1  H    12    33       P1  7957  0.33
      P1  H  6896  6908       L1    21  0.25
      P1  H  7954  7966       L1    12  0.26

> <Gold.Chemscore.Hbond.Weighted>
-10.7808

> <Gold.Chemscore.Metal.Weighted>
-0.0000

> <Gold.Chemscore.Lipo.Weighted>
-9.8433

> <Gold.Chemscore.Internal_Hbond.Weighted>
0.0000

> <Gold.Chemscore.DEClash.Weighted>
0.4144

> <Gold.Chemscore.DEInternal.Weighted>
1.1809

> <Gold.Chemscore.Rot.Weighted>
5.8223

> <Gold.Chemscore.Internal.Correction.Weighted>
   9.000000E+99

> <Gold.Protein.RotatedTorsions>
[ 6907 6896 6895 6894 ] final  111.09 input  -60.11 | X-H torsion
[ 7974 7965 7964 7962 ] final   31.40 input  175.53 | X-H torsion
[ 8008 7997 7996 7995 ] final   70.69 input   59.86 | X-H torsion
[ 10167 10162 10161 10158 ] final   51.73 input  -65.29 | X-H torsion
[ 10718 10713 10712 10709 ] final  -39.66 input   66.30 | X-H torsion
[ 10763 10752 10751 10750 ] final   65.07 input  -60.55 | X-H torsion
[ 11005 11000 10999 10996 ] final   37.72 input  -57.11 | X-H torsion

> <Gold.Protein.ActiveResidues>
 VAL166  LYS551  ARG553  GLY616  TRP617  ASP618  TYR619  PRO620  LYS621  CYS622 
 ASP623  PHE694  ASN695  SER759  ASP760  ASP761  ALA762  ILE779  LEU786  VAL792 
 PHE793  MET794  SER795  GLU796  ALA797  LYS798  CYS799  TRP800  GLU811  SER814 

> <Gold.Protein.RotatedAtoms>
  152.4987  133.8707  159.7296 H   0  0  0  0  0  0  0  0  0  0  0  0  # atno 6907 bound_to 6896
  150.9194  133.6890  159.2842 H   0  0  0  0  0  0  0  0  0  0  0  0  # atno 6908 bound_to 6896
  151.4272  135.1009  159.9684 H   0  0  0  0  0  0  0  0  0  0  0  0  # atno 6909 bound_to 6896
  146.1552  139.6661  142.9071 H   0  0  0  0  0  0  0  0  0  0  0  0  # atno 7974 bound_to 7965
  155.7426  140.3490  155.5111 H   0  0  0  0  0  0  0  0  0  0  0  0  # atno 8008 bound_to 7997
  155.9080  140.1045  157.1322 H   0  0  0  0  0  0  0  0  0  0  0  0  # atno 8009 bound_to 7997
  154.4052  140.1273  156.4508 H   0  0  0  0  0  0  0  0  0  0  0  0  # atno 8010 bound_to 7997
  140.2589  144.3396  150.6324 H   0  0  0  0  0  0  0  0  0  0  0  0  # atno 10167 bound_to 10162
  156.2900  130.4227  149.8248 H   0  0  0  0  0  0  0  0  0  0  0  0  # atno 10718 bound_to 10713
  153.0081  135.5370  154.6609 H   0  0  0  0  0  0  0  0  0  0  0  0  # atno 10763 bound_to 10752
  154.5818  135.2850  155.0727 H   0  0  0  0  0  0  0  0  0  0  0  0  # atno 10764 bound_to 10752
  154.1853  135.6509  153.5097 H   0  0  0  0  0  0  0  0  0  0  0  0  # atno 10765 bound_to 10752
  140.2198  134.3655  155.8010 H   0  0  0  0  0  0  0  0  0  0  0  0  # atno 11005 bound_to 11000
  145.4726  141.0436  143.2690 LP  0  0  0  0  0  0  0  0  0  0  0  0  # atno 17320 bound_to 7965
  144.7954  139.6244  143.7095 LP  0  0  0  0  0  0  0  0  0  0  0  0  # atno 17321 bound_to 7965
  140.5982  143.2167  151.7123 LP  0  0  0  0  0  0  0  0  0  0  0  0  # atno 17342 bound_to 10162
  139.5023  144.3834  152.0353 LP  0  0  0  0  0  0  0  0  0  0  0  0  # atno 17343 bound_to 10162
  156.5664  130.8406  151.3344 LP  0  0  0  0  0  0  0  0  0  0  0  0  # atno 17370 bound_to 10713
  157.7340  130.9739  150.2004 LP  0  0  0  0  0  0  0  0  0  0  0  0  # atno 17371 bound_to 10713
  141.2223  133.7187  156.8556 LP  0  0  0  0  0  0  0  0  0  0  0  0  # atno 17394 bound_to 11000
  140.1862  134.8998  157.3007 LP  0  0  0  0  0  0  0  0  0  0  0  0  # atno 17395 bound_to 11000

$$$$
