AV-unprocessed.smi:2362|AV-procd|sdf|9414|dock6
  -GOLD-   2272013 53D 1   1.00000     0.00000
 Structure written by MMmdl.
 45 46  0  0  0  0  0  0  0  0  2 V2000
  143.9191  133.0895  151.1552 C   0  0  0  0  0  0  0  0  0  0  0  0
  144.2505  134.5106  151.5605 C   0  0  0  0  0  0  0  0  0  0  0  0
  143.3098  135.3183  152.2275 C   0  0  0  0  0  0  0  0  0  0  0  0
  143.6735  136.6318  152.5819 C   0  0  0  0  0  0  0  0  0  0  0  0
  144.9650  137.1066  152.2612 C   0  0  0  0  0  0  0  0  0  0  0  0
  145.2334  138.4420  152.6651 N   0  0  0  0  0  0  0  0  0  0  0  0
  146.3738  138.9403  153.1739 C   0  0  0  0  0  0  0  0  0  0  0  0
  147.4154  138.3058  153.3422 O   0  0  0  0  0  0  0  0  0  0  0  0
  146.2406  140.2364  153.4961 N   0  0  0  0  0  0  0  0  0  0  0  0
  147.2891  141.0937  154.0521 C   0  0  1  0  0  0  0  0  0  0  0  0
  147.1247  142.5130  153.4918 C   0  0  0  0  0  0  0  0  0  0  0  0
  147.2592  141.0969  155.5987 C   0  0  0  0  0  0  0  0  0  0  0  0
  148.4874  141.6693  156.2080 N   0  3  0  0  0  0  0  0  0  0  0  0
  149.7338  141.0871  155.6476 C   0  0  0  0  0  0  0  0  0  0  0  0
  150.9752  141.8194  156.1854 C   0  0  0  0  0  0  0  0  0  0  0  0
  151.0031  141.8052  157.7194 C   0  0  0  0  0  0  0  0  0  0  0  0
  149.6900  142.3734  158.2733 C   0  0  0  0  0  0  0  0  0  0  0  0
  148.4798  141.6223  157.6942 C   0  0  0  0  0  0  0  0  0  0  0  0
  145.8652  136.3200  151.6201 N   0  0  0  0  0  0  0  0  0  0  0  0
  145.5158  135.0614  151.2804 C   0  0  0  0  0  0  0  0  0  0  0  0
  142.8887  132.8352  151.4056 H   0  0  0  0  0  0  0  0  0  0  0  0
  144.5783  132.3881  151.6670 H   0  0  0  0  0  0  0  0  0  0  0  0
  144.0498  132.9623  150.0803 H   0  0  0  0  0  0  0  0  0  0  0  0
  142.3258  134.9421  152.4659 H   0  0  0  0  0  0  0  0  0  0  0  0
  142.9631  137.2643  153.0944 H   0  0  0  0  0  0  0  0  0  0  0  0
  144.4632  139.0870  152.5662 H   0  0  0  0  0  0  0  0  0  0  0  0
  145.3473  140.6741  153.3217 H   0  0  0  0  0  0  0  0  0  0  0  0
  148.2608  140.7342  153.7110 H   0  0  0  0  0  0  0  0  0  0  0  0
  147.9197  143.1688  153.8482 H   0  0  0  0  0  0  0  0  0  0  0  0
  146.1726  142.9528  153.7910 H   0  0  0  0  0  0  0  0  0  0  0  0
  147.1648  142.5133  152.4018 H   0  0  0  0  0  0  0  0  0  0  0  0
  146.3851  141.6359  155.9672 H   0  0  0  0  0  0  0  0  0  0  0  0
  147.1393  140.0652  155.9334 H   0  0  0  0  0  0  0  0  0  0  0  0
  149.7839  140.0249  155.8922 H   0  0  0  0  0  0  0  0  0  0  0  0
  149.7209  141.1633  154.5598 H   0  0  0  0  0  0  0  0  0  0  0  0
  151.8813  141.3577  155.7918 H   0  0  0  0  0  0  0  0  0  0  0  0
  150.9735  142.8507  155.8295 H   0  0  0  0  0  0  0  0  0  0  0  0
  151.1433  140.7841  158.0765 H   0  0  0  0  0  0  0  0  0  0  0  0
  151.8502  142.3849  158.0874 H   0  0  0  0  0  0  0  0  0  0  0  0
  149.6847  142.3078  159.3617 H   0  0  0  0  0  0  0  0  0  0  0  0
  149.6146  143.4334  158.0263 H   0  0  0  0  0  0  0  0  0  0  0  0
  147.5657  142.0704  158.0824 H   0  0  0  0  0  0  0  0  0  0  0  0
  148.4875  140.5835  158.0280 H   0  0  0  0  0  0  0  0  0  0  0  0
  146.2693  134.4782  150.7713 H   0  0  0  0  0  0  0  0  0  0  0  0
  148.4968  142.6463  155.9508 H   0  0  0  0  0  0  0  0  0  0  0  0
  1  2  1  0  0  0  0
  1 21  1  0  0  0  0
  1 22  1  0  0  0  0
  1 23  1  0  0  0  0
  2 20  1  0  0  0  0
  2  3  2  0  0  0  0
  3  4  1  0  0  0  0
  3 24  1  0  0  0  0
  4  5  2  0  0  0  0
  4 25  1  0  0  0  0
  5  6  1  0  0  0  0
  5 19  1  0  0  0  0
  6  7  1  0  0  0  0
  6 26  1  0  0  0  0
  7  8  2  0  0  0  0
  7  9  1  0  0  0  0
  9 10  1  0  0  0  0
  9 27  1  0  0  0  0
 10 11  1  0  0  0  0
 10 12  1  0  0  0  0
 10 28  1  0  0  0  0
 11 29  1  0  0  0  0
 11 30  1  0  0  0  0
 11 31  1  0  0  0  0
 12 13  1  0  0  0  0
 12 32  1  0  0  0  0
 12 33  1  0  0  0  0
 13 18  1  0  0  0  0
 13 14  1  0  0  0  0
 13 45  1  0  0  0  0
 14 15  1  0  0  0  0
 14 34  1  0  0  0  0
 14 35  1  0  0  0  0
 15 16  1  0  0  0  0
 15 36  1  0  0  0  0
 15 37  1  0  0  0  0
 16 17  1  0  0  0  0
 16 38  1  0  0  0  0
 16 39  1  0  0  0  0
 17 18  1  0  0  0  0
 17 40  1  0  0  0  0
 17 41  1  0  0  0  0
 18 42  1  0  0  0  0
 18 43  1  0  0  0  0
 19 20  2  0  0  0  0
 20 44  1  0  0  0  0
M  CHG  1  13   1
M  END
> <s_m_source_file>
AV-unprocessed.smi

> <i_m_source_file_index>
2362

> <i_lp_mmshare_version>
43012

> <i_f3d_flags>
0

> <s_epik_input>
W0NIM11jMVtjSF1bY0hdYyhuW2NIXTEpW05IXUMoPU8pW05IXVtDQEhdKFtDSDNdKVtDSDJdTjJbQ0gyXVtDSDJdW0NIMl1bQ0gyXVtDSDJdMg==

> <s_epik_cmdline>
J2VwaWtfcHl0aG9uJywgJy1waCcsICc3LjAnLCAnLXRuJywgJzgnLCAnLW1hJywgJzIwMCcsICctbWV0YWxfYmluZGluZycsICctaW1hZScsICc8aW5maWxlLm1hZT4nLCAnLW9tYWUnLCAnPG91dGZpbGUubWFlPic=

> <r_epik_Ionization_Penalty>
0.00215987

> <r_epik_Ionization_Penalty_Charging>
0.00211816

> <r_epik_Ionization_Penalty_Neutral>
4.17101e-05

> <r_epik_State_Penalty>
0.00145254

> <r_epik_Charging_Adjusted_Penalty>
0.0035707

> <i_epik_Tot_Q>
1

> <i_epik_Tot_abs_Q>
1

> <r_epik_Metal_State_Penalty>
-0

> <b_epik_Metal_Only>
0

> <s_lp_Force_Field>
OPLS_2005

> <r_lp_Energy>
24.6446

> <b_lp_Chiralities_Consistent>
1

> <s_lp_Variant>
AV-unprocessed.smi:2362-2

> <Gold.Version>
5.8.1

> <Gold.Id.Protein>
6NUR|6NUR_protein|mol2

> <Gold.PLP.Fitness>
40.4930

> <Gold.PLP.PLP>
-30.2326

> <Gold.PLP.part.hbond>
-3.5006

> <Gold.PLP.part.metal>
0.0000

> <Gold.PLP.part.buried>
-5.2925

> <Gold.PLP.part.nonpolar>
-22.1931

> <Gold.PLP.part.repulsive>
1.5415

> <Gold.PLP.ligand.clash>
0.0000

> <Gold.PLP.ligand.torsion>
0.7701

> <Gold.PLP.Chemscore.Hbond>
3.9120

> <Gold.PLP.Chemscore.CHOScore>
0.0000

> <Gold.PLP.Chemscore.Metal>
0.0000

> <Gold.Chemscore.Hbonds>
donor molecule, donor type, donor heavy atom, donor atom, acceptor molecule, acceptor atom, score
      L1  H     6    26       P1 10175  1.00
      L1  H     9    27       P1 10175  0.91
      L1  H    13    45       P1  8028  1.56

> <Gold.PLP.Chemscore.Internal.Correction>
0.0646

> <Gold.Rescore>
     Score         DG    S(hbond)    S(metal)    S(lipo)     H(rot)  DE(clash)    DE(int)     intcor
     15.46     -19.21       2.73        0.00      70.87       1.44       2.05       1.71       ----

> <Gold.Chemscore.Fitness>
15.4566

> <Gold.Chemscore.DG>
-19.2121

> <Gold.Chemscore.ZeroCoef>
-5.4800

> <Gold.Chemscore.Hbond>
2.7331

> <Gold.Chemscore.Metal>
0.0000

> <Gold.Chemscore.Lipo>
70.8654

> <Gold.Chemscore.Internal_Hbond>
0.0000

> <Gold.Chemscore.DEClash>
2.0484

> <Gold.Chemscore.DEInternal>
1.7071

> <Gold.Chemscore.Rot>
1.4404

> <Gold.Chemscore.Internal.Correction>
   9.000000E+99

> <Gold.Chemscore.Hbonds>
donor molecule, donor type, donor heavy atom, donor atom, acceptor molecule, acceptor atom, score
      L1  H     6    26       P1 10175  0.97
      L1  H     9    27       P1 10175  0.79
      L1  H    13    45       P1  8028  0.76

> <Gold.Chemscore.Hbond.Weighted>
-9.1284

> <Gold.Chemscore.Metal.Weighted>
-0.0000

> <Gold.Chemscore.Lipo.Weighted>
-8.2913

> <Gold.Chemscore.Internal_Hbond.Weighted>
0.0000

> <Gold.Chemscore.DEClash.Weighted>
2.0484

> <Gold.Chemscore.DEInternal.Weighted>
1.7071

> <Gold.Chemscore.Rot.Weighted>
3.6875

> <Gold.Chemscore.Internal.Correction.Weighted>
   9.000000E+99

> <Gold.Protein.RotatedTorsions>
[ 6907 6896 6895 6894 ] final   -2.45 input  -60.11 | X-H torsion
[ 7974 7965 7964 7962 ] final   99.93 input  175.53 | X-H torsion
[ 8008 7997 7996 7995 ] final -108.34 input   59.86 | X-H torsion
[ 10167 10162 10161 10158 ] final  142.35 input  -65.29 | X-H torsion
[ 10718 10713 10712 10709 ] final   92.75 input   66.30 | X-H torsion
[ 10763 10752 10751 10750 ] final   22.87 input  -60.55 | X-H torsion
[ 11005 11000 10999 10996 ] final   19.42 input  -57.11 | X-H torsion

> <Gold.Protein.ActiveResidues>
 VAL166  LYS551  ARG553  GLY616  TRP617  ASP618  TYR619  PRO620  LYS621  CYS622 
 ASP623  PHE694  ASN695  SER759  ASP760  ASP761  ALA762  ILE779  LEU786  VAL792 
 PHE793  MET794  SER795  GLU796  ALA797  LYS798  CYS799  TRP800  GLU811  SER814 

> <Gold.Protein.RotatedAtoms>
  151.5298  135.1068  159.9899 H   0  0  0  0  0  0  0  0  0  0  0  0  # atno 6907 bound_to 6896
  152.4584  133.7766  159.6838 H   0  0  0  0  0  0  0  0  0  0  0  0  # atno 6908 bound_to 6896
  150.8536  133.7684  159.3042 H   0  0  0  0  0  0  0  0  0  0  0  0  # atno 6909 bound_to 6896
  145.3924  139.2361  143.3345 H   0  0  0  0  0  0  0  0  0  0  0  0  # atno 7974 bound_to 7965
  154.9428  140.0402  157.2105 H   0  0  0  0  0  0  0  0  0  0  0  0  # atno 8008 bound_to 7997
  154.8053  140.2858  155.5870 H   0  0  0  0  0  0  0  0  0  0  0  0  # atno 8009 bound_to 7997
  156.2966  140.2547  156.2930 H   0  0  0  0  0  0  0  0  0  0  0  0  # atno 8010 bound_to 7997
  139.4996  144.6113  151.6266 H   0  0  0  0  0  0  0  0  0  0  0  0  # atno 10167 bound_to 10162
  157.6957  131.0454  150.3929 H   0  0  0  0  0  0  0  0  0  0  0  0  # atno 10718 bound_to 10713
  153.0882  135.6639  153.9907 H   0  0  0  0  0  0  0  0  0  0  0  0  # atno 10763 bound_to 10752
  153.9511  135.2984  155.3440 H   0  0  0  0  0  0  0  0  0  0  0  0  # atno 10764 bound_to 10752
  154.7293  135.5130  153.9010 H   0  0  0  0  0  0  0  0  0  0  0  0  # atno 10765 bound_to 10752
  140.4139  134.1589  155.7669 H   0  0  0  0  0  0  0  0  0  0  0  0  # atno 11005 bound_to 11000
  146.2791  140.4609  142.8783 LP  0  0  0  0  0  0  0  0  0  0  0  0  # atno 17320 bound_to 7965
  144.8431  140.6888  143.6216 LP  0  0  0  0  0  0  0  0  0  0  0  0  # atno 17321 bound_to 7965
  140.5788  143.9982  150.6256 LP  0  0  0  0  0  0  0  0  0  0  0  0  # atno 17342 bound_to 10162
  140.3124  143.3189  152.0865 LP  0  0  0  0  0  0  0  0  0  0  0  0  # atno 17343 bound_to 10162
  156.4331  130.3976  149.6747 LP  0  0  0  0  0  0  0  0  0  0  0  0  # atno 17370 bound_to 10713
  156.3958  130.7650  151.2654 LP  0  0  0  0  0  0  0  0  0  0  0  0  # atno 17371 bound_to 10713
  141.1810  133.8413  157.1257 LP  0  0  0  0  0  0  0  0  0  0  0  0  # atno 17394 bound_to 11000
  140.0248  134.9929  157.0663 LP  0  0  0  0  0  0  0  0  0  0  0  0  # atno 17395 bound_to 11000

$$$$
