AV-unprocessed.smi:1637|AV-procd|sdf|6545|dock7
  -GOLD-   22720 7233D 1   1.00000     0.00000
 Structure written by MMmdl.
 38 39  0  0  0  0  0  0  0  0  1 V2000
  155.0369  138.9359  162.0152 C   0  0  0  0  0  0  0  0  0  0  0  0
  154.7361  140.3127  161.8149 O   0  0  0  0  0  0  0  0  0  0  0  0
  153.8666  140.6521  160.7987 C   0  0  0  0  0  0  0  0  0  0  0  0
  153.5512  142.0115  160.6071 C   0  0  0  0  0  0  0  0  0  0  0  0
  152.6679  142.3681  159.5700 C   0  0  0  0  0  0  0  0  0  0  0  0
  152.1204  141.3472  158.7557 C   0  0  0  0  0  0  0  0  0  0  0  0
  151.2288  141.5610  157.6682 N   0  0  0  0  0  0  0  0  0  0  0  0
  150.4749  140.6762  156.9930 C   0  0  0  0  0  0  0  0  0  0  0  0
  150.4465  139.4615  157.1869 O   0  0  0  0  0  0  0  0  0  0  0  0
  149.7429  141.2899  156.0521 N   0  0  0  0  0  0  0  0  0  0  0  0
  148.8249  140.6354  155.1181 C   0  0  1  0  0  0  0  0  0  0  0  0
  148.1329  141.6907  154.2263 C   0  0  0  0  0  0  0  0  0  0  0  0
  146.8039  141.2192  153.6146 C   0  0  0  0  0  0  0  0  0  0  0  0
  146.9213  140.0241  152.6570 C   0  0  0  0  0  0  0  0  0  0  0  0
  147.3843  138.7272  153.3424 C   0  0  0  0  0  0  0  0  0  0  0  0
  148.8248  138.6945  153.5634 N   0  0  0  0  0  0  0  0  0  0  0  0
  149.5457  139.5211  154.3360 C   0  0  0  0  0  0  0  0  0  0  0  0
  150.7679  139.3961  154.4134 O   0  0  0  0  0  0  0  0  0  0  0  0
  152.5036  140.0176  159.0294 C   0  0  0  0  0  0  0  0  0  0  0  0
  153.3504  139.6692  160.0208 N   0  0  0  0  0  0  0  0  0  0  0  0
  155.7298  138.8363  162.8503 H   0  0  0  0  0  0  0  0  0  0  0  0
  155.5136  138.5005  161.1359 H   0  0  0  0  0  0  0  0  0  0  0  0
  154.1415  138.3623  162.2586 H   0  0  0  0  0  0  0  0  0  0  0  0
  153.9834  142.7701  161.2430 H   0  0  0  0  0  0  0  0  0  0  0  0
  152.4435  143.4124  159.4246 H   0  0  0  0  0  0  0  0  0  0  0  0
  151.1652  142.5179  157.3527 H   0  0  0  0  0  0  0  0  0  0  0  0
  149.8367  142.2907  155.9563 H   0  0  0  0  0  0  0  0  0  0  0  0
  148.0614  140.1388  155.7200 H   0  0  0  0  0  0  0  0  0  0  0  0
  147.9171  142.5819  154.8171 H   0  0  0  0  0  0  0  0  0  0  0  0
  148.8121  142.0190  153.4380 H   0  0  0  0  0  0  0  0  0  0  0  0
  146.1018  140.9779  154.4137 H   0  0  0  0  0  0  0  0  0  0  0  0
  146.3590  142.0541  153.0722 H   0  0  0  0  0  0  0  0  0  0  0  0
  145.9379  139.8476  152.2196 H   0  0  0  0  0  0  0  0  0  0  0  0
  147.5792  140.2685  151.8218 H   0  0  0  0  0  0  0  0  0  0  0  0
  146.8507  138.5630  154.2797 H   0  0  0  0  0  0  0  0  0  0  0  0
  147.1423  137.8795  152.7012 H   0  0  0  0  0  0  0  0  0  0  0  0
  149.3322  137.9758  153.0676 H   0  0  0  0  0  0  0  0  0  0  0  0
  152.1190  139.2030  158.4330 H   0  0  0  0  0  0  0  0  0  0  0  0
  1  2  1  0  0  0  0
  1 21  1  0  0  0  0
  1 22  1  0  0  0  0
  1 23  1  0  0  0  0
  2  3  1  0  0  0  0
  3 20  1  0  0  0  0
  3  4  2  0  0  0  0
  4  5  1  0  0  0  0
  4 24  1  0  0  0  0
  5  6  2  0  0  0  0
  5 25  1  0  0  0  0
  6  7  1  0  0  0  0
  6 19  1  0  0  0  0
  7  8  1  0  0  0  0
  7 26  1  0  0  0  0
  8  9  2  0  0  0  0
  8 10  1  0  0  0  0
 10 11  1  0  0  0  0
 10 27  1  0  0  0  0
 11 17  1  0  0  0  0
 11 12  1  0  0  0  0
 11 28  1  0  0  0  0
 12 13  1  0  0  0  0
 12 29  1  0  0  0  0
 12 30  1  0  0  0  0
 13 14  1  0  0  0  0
 13 31  1  0  0  0  0
 13 32  1  0  0  0  0
 14 15  1  0  0  0  0
 14 33  1  0  0  0  0
 14 34  1  0  0  0  0
 15 16  1  0  0  0  0
 15 35  1  0  0  0  0
 15 36  1  0  0  0  0
 16 17  1  0  0  0  0
 16 37  1  0  0  0  0
 17 18  2  0  0  0  0
 19 20  2  0  0  0  0
 19 38  1  0  0  0  0
M  END
> <s_m_source_file>
AV-unprocessed.smi

> <i_m_source_file_index>
1637

> <i_lp_mmshare_version>
43012

> <i_f3d_flags>
0

> <s_epik_input>
W0NIM11PYzFbY0hdW2NIXWMoW2NIXW4xKVtOSF1DKD1PKVtOSF1bQ0BASF0yW0NIMl1bQ0gyXVtDSDJdW0NIMl1bTkhdQzI9Tw==

> <s_epik_cmdline>
J2VwaWtfcHl0aG9uJywgJy1waCcsICc3LjAnLCAnLXRuJywgJzgnLCAnLW1hJywgJzIwMCcsICctbWV0YWxfYmluZGluZycsICctaW1hZScsICc8aW5maWxlLm1hZT4nLCAnLW9tYWUnLCAnPG91dGZpbGUubWFlPic=

> <r_lp_tautomer_probability>
1

> <r_epik_Ionization_Penalty>
8.30847e-05

> <r_epik_Ionization_Penalty_Charging>
0

> <r_epik_Ionization_Penalty_Neutral>
8.30847e-05

> <r_epik_State_Penalty>
-0

> <r_epik_Charging_Adjusted_Penalty>
0

> <i_epik_Tot_Q>
0

> <i_epik_Tot_abs_Q>
0

> <r_epik_Metal_State_Penalty>
-0

> <b_epik_Metal_Only>
0

> <s_lp_Force_Field>
OPLS_2005

> <r_lp_Energy>
13.0177

> <b_lp_Chiralities_Consistent>
1

> <s_lp_Variant>
AV-unprocessed.smi:1637-2

> <Gold.Version>
5.8.1

> <Gold.Id.Protein>
6NUR|6NUR_protein|mol2

> <Gold.PLP.Fitness>
40.8570

> <Gold.PLP.PLP>
-35.5886

> <Gold.PLP.part.hbond>
-3.0000

> <Gold.PLP.part.metal>
0.0000

> <Gold.PLP.part.buried>
-3.1661

> <Gold.PLP.part.nonpolar>
-30.1276

> <Gold.PLP.part.repulsive>
0.3567

> <Gold.PLP.ligand.clash>
0.0000

> <Gold.PLP.ligand.torsion>
0.0589

> <Gold.PLP.Chemscore.Hbond>
1.7862

> <Gold.PLP.Chemscore.CHOScore>
0.0000

> <Gold.PLP.Chemscore.Metal>
0.0000

> <Gold.Chemscore.Hbonds>
donor molecule, donor type, donor heavy atom, donor atom, acceptor molecule, acceptor atom, score
      L1  H    16    37       P1  7948  0.64
      P1  H  7989  7998       L1    18  1.00

> <Gold.PLP.Chemscore.Internal.Correction>
0.0275

> <Gold.Rescore>
     Score         DG    S(hbond)    S(metal)    S(lipo)     H(rot)  DE(clash)    DE(int)     intcor
     13.28     -16.83       1.79        0.00      74.65       1.31       0.23       3.32       ----

> <Gold.Chemscore.Fitness>
13.2829

> <Gold.Chemscore.DG>
-16.8283

> <Gold.Chemscore.ZeroCoef>
-5.4800

> <Gold.Chemscore.Hbond>
1.7861

> <Gold.Chemscore.Metal>
0.0000

> <Gold.Chemscore.Lipo>
74.6466

> <Gold.Chemscore.Internal_Hbond>
0.0000

> <Gold.Chemscore.DEClash>
0.2260

> <Gold.Chemscore.DEInternal>
3.3194

> <Gold.Chemscore.Rot>
1.3090

> <Gold.Chemscore.Internal.Correction>
   9.000000E+99

> <Gold.Chemscore.Hbonds>
donor molecule, donor type, donor heavy atom, donor atom, acceptor molecule, acceptor atom, score
      L1  H    16    37       P1  7948  0.60
      P1  H  7989  7998       L1    18  0.74

> <Gold.Chemscore.Hbond.Weighted>
-5.9656

> <Gold.Chemscore.Metal.Weighted>
-0.0000

> <Gold.Chemscore.Lipo.Weighted>
-8.7336

> <Gold.Chemscore.Internal_Hbond.Weighted>
0.0000

> <Gold.Chemscore.DEClash.Weighted>
0.2260

> <Gold.Chemscore.DEInternal.Weighted>
3.3194

> <Gold.Chemscore.Rot.Weighted>
3.3509

> <Gold.Chemscore.Internal.Correction.Weighted>
   9.000000E+99

> <Gold.Protein.RotatedTorsions>
[ 6907 6896 6895 6894 ] final   36.54 input  -60.11 | X-H torsion
[ 7974 7965 7964 7962 ] final   79.73 input  175.53 | X-H torsion
[ 8008 7997 7996 7995 ] final  -53.55 input   59.86 | X-H torsion
[ 10167 10162 10161 10158 ] final   60.21 input  -65.29 | X-H torsion
[ 10718 10713 10712 10709 ] final -178.00 input   66.30 | X-H torsion
[ 10763 10752 10751 10750 ] final   71.87 input  -60.55 | X-H torsion
[ 11005 11000 10999 10996 ] final   61.38 input  -57.11 | X-H torsion

> <Gold.Protein.ActiveResidues>
 VAL166  LYS551  ARG553  GLY616  TRP617  ASP618  TYR619  PRO620  LYS621  CYS622 
 ASP623  PHE694  ASN695  SER759  ASP760  ASP761  ALA762  ILE779  LEU786  VAL792 
 PHE793  MET794  SER795  GLU796  ALA797  LYS798  CYS799  TRP800  GLU811  SER814 

> <Gold.Protein.RotatedAtoms>
  152.1311  134.9134  160.0558 H   0  0  0  0  0  0  0  0  0  0  0  0  # atno 6907 bound_to 6896
  152.0238  133.3904  159.4277 H   0  0  0  0  0  0  0  0  0  0  0  0  # atno 6908 bound_to 6896
  150.6856  134.3517  159.4956 H   0  0  0  0  0  0  0  0  0  0  0  0  # atno 6909 bound_to 6896
  145.6604  139.2470  143.1926 H   0  0  0  0  0  0  0  0  0  0  0  0  # atno 7974 bound_to 7965
  154.4136  140.1197  156.5172 H   0  0  0  0  0  0  0  0  0  0  0  0  # atno 8008 bound_to 7997
  155.6740  140.3496  155.4810 H   0  0  0  0  0  0  0  0  0  0  0  0  # atno 8009 bound_to 7997
  155.9609  140.1122  157.0886 H   0  0  0  0  0  0  0  0  0  0  0  0  # atno 8010 bound_to 7997
  140.1680  144.4305  150.6675 H   0  0  0  0  0  0  0  0  0  0  0  0  # atno 10167 bound_to 10162
  156.8378  130.9675  151.3102 H   0  0  0  0  0  0  0  0  0  0  0  0  # atno 10718 bound_to 10713
  153.0425  135.5121  154.7659 H   0  0  0  0  0  0  0  0  0  0  0  0  # atno 10763 bound_to 10752
  154.6585  135.2935  154.9899 H   0  0  0  0  0  0  0  0  0  0  0  0  # atno 10764 bound_to 10752
  154.0758  135.6671  153.4883 H   0  0  0  0  0  0  0  0  0  0  0  0  # atno 10765 bound_to 10752
  140.0165  134.6216  155.9701 H   0  0  0  0  0  0  0  0  0  0  0  0  # atno 11005 bound_to 11000
  146.1130  140.7405  142.9494 LP  0  0  0  0  0  0  0  0  0  0  0  0  # atno 17320 bound_to 7965
  144.7091  140.3969  143.7095 LP  0  0  0  0  0  0  0  0  0  0  0  0  # atno 17321 bound_to 7965
  140.6600  143.2249  151.5878 LP  0  0  0  0  0  0  0  0  0  0  0  0  # atno 17342 bound_to 10162
  139.5351  144.2805  152.1233 LP  0  0  0  0  0  0  0  0  0  0  0  0  # atno 17343 bound_to 10162
  157.6372  130.8776  149.9381 LP  0  0  0  0  0  0  0  0  0  0  0  0  # atno 17370 bound_to 10713
  156.0898  130.3664  150.0417 LP  0  0  0  0  0  0  0  0  0  0  0  0  # atno 17371 bound_to 10713
  141.1746  133.6539  156.4781 LP  0  0  0  0  0  0  0  0  0  0  0  0  # atno 17394 bound_to 11000
  140.4461  134.6971  157.5016 LP  0  0  0  0  0  0  0  0  0  0  0  0  # atno 17395 bound_to 11000

$$$$
