AV-unprocessed.smi:2988|AV-procd|sdf|11387|dock3
  -GOLD-   2272016313D 1   1.00000     0.00000
 Structure written by MMmdl.
 37 38  0  0  0  0  0  0  0  0  1 V2000
  146.5591  140.2596  157.5867 C   0  0  0  0  0  0  0  0  0  0  0  0
  146.8383  141.2012  156.4008 C   0  0  2  0  0  0  0  0  0  0  0  0
  145.5282  141.5371  155.6588 C   0  0  0  0  0  0  0  0  0  0  0  0
  145.7656  142.4893  154.4768 C   0  0  0  0  0  0  0  0  0  0  0  0
  146.8000  141.9108  153.5020 C   0  0  0  0  0  0  0  0  0  0  0  0
  148.1152  141.5864  154.2249 C   0  0  0  0  0  0  0  0  0  0  0  0
  147.8903  140.6315  155.4137 C   0  0  1  0  0  0  0  0  0  0  0  0
  149.1697  140.4045  156.0846 N   0  0  0  0  0  0  0  0  0  0  0  0
  150.3411  140.1495  155.4811 C   0  0  0  0  0  0  0  0  0  0  0  0
  150.4792  140.1007  154.2580 O   0  0  0  0  0  0  0  0  0  0  0  0
  151.5424  139.9253  156.4104 C   0  0  0  0  0  0  0  0  0  0  0  0
  151.7600  141.0386  157.3459 N   0  0  0  0  0  0  0  0  0  0  0  0
  151.0225  142.1731  157.0562 N   0  0  0  0  0  0  0  0  0  0  0  0
  151.1479  143.2179  157.7997 C   0  0  0  0  0  0  0  0  0  0  0  0
  152.0356  143.2496  158.9411 C   0  0  0  0  0  0  0  0  0  0  0  0
  152.1617  144.6808  159.9020 Cl  0  0  0  0  0  0  0  0  0  0  0  0
  152.7490  142.1299  159.2203 C   0  0  0  0  0  0  0  0  0  0  0  0
  153.8301  142.0906  160.5708 Cl  0  0  0  0  0  0  0  0  0  0  0  0
  152.6321  140.9202  158.3945 C   0  0  0  0  0  0  0  0  0  0  0  0
  153.2605  139.8839  158.6158 O   0  0  0  0  0  0  0  0  0  0  0  0
  146.2170  139.2828  157.2435 H   0  0  0  0  0  0  0  0  0  0  0  0
  145.7897  140.6705  158.2408 H   0  0  0  0  0  0  0  0  0  0  0  0
  147.4487  140.1051  158.1971 H   0  0  0  0  0  0  0  0  0  0  0  0
  147.2300  142.1331  156.8119 H   0  0  0  0  0  0  0  0  0  0  0  0
  145.0657  140.6181  155.2959 H   0  0  0  0  0  0  0  0  0  0  0  0
  144.8137  141.9883  156.3483 H   0  0  0  0  0  0  0  0  0  0  0  0
  144.8265  142.6751  153.9546 H   0  0  0  0  0  0  0  0  0  0  0  0
  146.1102  143.4556  154.8472 H   0  0  0  0  0  0  0  0  0  0  0  0
  146.4030  141.0060  153.0398 H   0  0  0  0  0  0  0  0  0  0  0  0
  146.9846  142.6172  152.6919 H   0  0  0  0  0  0  0  0  0  0  0  0
  148.8198  141.1443  153.5191 H   0  0  0  0  0  0  0  0  0  0  0  0
  148.5713  142.5135  154.5756 H   0  0  0  0  0  0  0  0  0  0  0  0
  147.5080  139.6913  155.0118 H   0  0  0  0  0  0  0  0  0  0  0  0
  149.1582  140.4279  157.0939 H   0  0  0  0  0  0  0  0  0  0  0  0
  151.3759  138.9953  156.9569 H   0  0  0  0  0  0  0  0  0  0  0  0
  152.4443  139.7591  155.8179 H   0  0  0  0  0  0  0  0  0  0  0  0
  150.5907  144.1349  157.6082 H   0  0  0  0  0  0  0  0  0  0  0  0
  1  2  1  0  0  0  0
  1 21  1  0  0  0  0
  1 22  1  0  0  0  0
  1 23  1  0  0  0  0
  2  7  1  0  0  0  0
  2  3  1  0  0  0  0
  2 24  1  0  0  0  0
  3  4  1  0  0  0  0
  3 25  1  0  0  0  0
  3 26  1  0  0  0  0
  4  5  1  0  0  0  0
  4 27  1  0  0  0  0
  4 28  1  0  0  0  0
  5  6  1  0  0  0  0
  5 29  1  0  0  0  0
  5 30  1  0  0  0  0
  6  7  1  0  0  0  0
  6 31  1  0  0  0  0
  6 32  1  0  0  0  0
  7  8  1  0  0  0  0
  7 33  1  0  0  0  0
  8  9  1  0  0  0  0
  8 34  1  0  0  0  0
  9 10  2  0  0  0  0
  9 11  1  0  0  0  0
 11 12  1  0  0  0  0
 11 35  1  0  0  0  0
 11 36  1  0  0  0  0
 12 19  1  0  0  0  0
 12 13  1  0  0  0  0
 13 14  2  0  0  0  0
 14 15  1  0  0  0  0
 14 37  1  0  0  0  0
 15 16  1  0  0  0  0
 15 17  2  0  0  0  0
 17 18  1  0  0  0  0
 17 19  1  0  0  0  0
 19 20  2  0  0  0  0
M  END
> <s_m_source_file>
AV-unprocessed.smi

> <i_m_source_file_index>
2988

> <i_lp_mmshare_version>
43012

> <i_f3d_flags>
0

> <s_epik_input>
W0NIM11bQ0BASF0xW0NIMl1bQ0gyXVtDSDJdW0NIMl1bQ0BIXTFbTkhdQyg9TylbQ0gyXW4ybltjSF1jKENsKWMoQ2wpYzI9Tw==

> <s_epik_cmdline>
J2VwaWtfcHl0aG9uJywgJy1waCcsICc3LjAnLCAnLXRuJywgJzgnLCAnLW1hJywgJzIwMCcsICctbWV0YWxfYmluZGluZycsICctaW1hZScsICc8aW5maWxlLm1hZT4nLCAnLW9tYWUnLCAnPG91dGZpbGUubWFlPic=

> <r_lp_tautomer_probability>
1

> <r_epik_Ionization_Penalty>
1.90782e-08

> <r_epik_Ionization_Penalty_Charging>
3.13143e-11

> <r_epik_Ionization_Penalty_Neutral>
1.90469e-08

> <r_epik_State_Penalty>
-0

> <r_epik_Charging_Adjusted_Penalty>
3.13143e-11

> <i_epik_Tot_Q>
0

> <i_epik_Tot_abs_Q>
0

> <r_epik_Metal_State_Penalty>
-0

> <b_epik_Metal_Only>
0

> <s_lp_Force_Field>
OPLS_2005

> <r_lp_Energy>
24.1537

> <b_lp_Chiralities_Consistent>
1

> <s_lp_Variant>
AV-unprocessed.smi:2988-1

> <Gold.Version>
5.8.1

> <Gold.Id.Protein>
6NUR|6NUR_protein|mol2

> <Gold.PLP.Fitness>
46.3487

> <Gold.PLP.PLP>
-38.0187

> <Gold.PLP.part.hbond>
-1.8863

> <Gold.PLP.part.metal>
0.0000

> <Gold.PLP.part.buried>
-6.3915

> <Gold.PLP.part.nonpolar>
-30.4034

> <Gold.PLP.part.repulsive>
0.8924

> <Gold.PLP.ligand.clash>
0.0000

> <Gold.PLP.ligand.torsion>
0.3097

> <Gold.PLP.Chemscore.Hbond>
2.0000

> <Gold.PLP.Chemscore.CHOScore>
0.9816

> <Gold.PLP.Chemscore.Metal>
0.0000

> <Gold.Chemscore.Hbonds>
donor molecule, donor type, donor heavy atom, donor atom, acceptor molecule, acceptor atom, score
      P1  H  7989  7998       L1    10  1.00
      P1  H  7997  8010       L1    20  0.80
      L1  C    14    37       P1  8028  0.76

> <Gold.PLP.Chemscore.Internal.Correction>
0.0047

> <Gold.Rescore>
     Score         DG    S(hbond)    S(metal)    S(lipo)     H(rot)  DE(clash)    DE(int)     intcor
     13.80     -17.04       1.76        0.00      81.46       1.50       0.04       3.20       ----

> <Gold.Chemscore.Fitness>
13.7954

> <Gold.Chemscore.DG>
-17.0383

> <Gold.Chemscore.ZeroCoef>
-5.4800

> <Gold.Chemscore.Hbond>
1.7550

> <Gold.Chemscore.Metal>
0.0000

> <Gold.Chemscore.Lipo>
81.4582

> <Gold.Chemscore.Internal_Hbond>
0.0000

> <Gold.Chemscore.DEClash>
0.0423

> <Gold.Chemscore.DEInternal>
3.2006

> <Gold.Chemscore.Rot>
1.4977

> <Gold.Chemscore.Internal.Correction>
   9.000000E+99

> <Gold.Chemscore.Hbonds>
donor molecule, donor type, donor heavy atom, donor atom, acceptor molecule, acceptor atom, score
      P1  H  7989  7998       L1    10  0.96
      P1  H  7997  8010       L1    20  0.15

> <Gold.Chemscore.Hbond.Weighted>
-5.8618

> <Gold.Chemscore.Metal.Weighted>
-0.0000

> <Gold.Chemscore.Lipo.Weighted>
-9.5306

> <Gold.Chemscore.Internal_Hbond.Weighted>
0.0000

> <Gold.Chemscore.DEClash.Weighted>
0.0423

> <Gold.Chemscore.DEInternal.Weighted>
3.2006

> <Gold.Chemscore.Rot.Weighted>
3.8341

> <Gold.Chemscore.Internal.Correction.Weighted>
   9.000000E+99

> <Gold.Protein.RotatedTorsions>
[ 6907 6896 6895 6894 ] final    1.68 input  -60.11 | X-H torsion
[ 7974 7965 7964 7962 ] final -100.82 input  175.53 | X-H torsion
[ 8008 7997 7996 7995 ] final   32.86 input   59.86 | X-H torsion
[ 10167 10162 10161 10158 ] final    5.55 input  -65.29 | X-H torsion
[ 10718 10713 10712 10709 ] final  172.63 input   66.30 | X-H torsion
[ 10763 10752 10751 10750 ] final -165.01 input  -60.55 | X-H torsion
[ 11005 11000 10999 10996 ] final   91.67 input  -57.11 | X-H torsion

> <Gold.Protein.ActiveResidues>
 VAL166  LYS551  ARG553  GLY616  TRP617  ASP618  TYR619  PRO620  LYS621  CYS622 
 ASP623  PHE694  ASN695  SER759  ASP760  ASP761  ALA762  ILE779  LEU786  VAL792 
 PHE793  MET794  SER795  GLU796  ALA797  LYS798  CYS799  TRP800  GLU811  SER814 

> <Gold.Protein.RotatedAtoms>
  151.5966  135.1050  160.0050 H   0  0  0  0  0  0  0  0  0  0  0  0  # atno 6907 bound_to 6896
  152.4279  133.7222  159.6551 H   0  0  0  0  0  0  0  0  0  0  0  0  # atno 6908 bound_to 6896
  150.8169  133.8250  159.3179 H   0  0  0  0  0  0  0  0  0  0  0  0  # atno 6909 bound_to 6896
  145.2895  140.9349  143.2885 H   0  0  0  0  0  0  0  0  0  0  0  0  # atno 7974 bound_to 7965
  155.1293  140.3256  155.4478 H   0  0  0  0  0  0  0  0  0  0  0  0  # atno 8008 bound_to 7997
  156.2639  140.2013  156.6361 H   0  0  0  0  0  0  0  0  0  0  0  0  # atno 8009 bound_to 7997
  154.6625  140.0545  157.0064 H   0  0  0  0  0  0  0  0  0  0  0  0  # atno 8010 bound_to 7997
  140.6476  143.7624  150.7523 H   0  0  0  0  0  0  0  0  0  0  0  0  # atno 10167 bound_to 10162
  156.9762  131.0105  151.2893 H   0  0  0  0  0  0  0  0  0  0  0  0  # atno 10718 bound_to 10713
  154.6973  135.2981  154.9392 H   0  0  0  0  0  0  0  0  0  0  0  0  # atno 10763 bound_to 10752
  154.0336  135.6667  153.4787 H   0  0  0  0  0  0  0  0  0  0  0  0  # atno 10764 bound_to 10752
  153.0655  135.5090  154.8098 H   0  0  0  0  0  0  0  0  0  0  0  0  # atno 10765 bound_to 10752
  139.8835  134.8688  156.3462 H   0  0  0  0  0  0  0  0  0  0  0  0  # atno 11005 bound_to 11000
  144.9184  139.4441  143.6553 LP  0  0  0  0  0  0  0  0  0  0  0  0  # atno 17320 bound_to 7965
  146.3189  139.8031  142.8961 LP  0  0  0  0  0  0  0  0  0  0  0  0  # atno 17321 bound_to 7965
  140.1268  143.4561  152.2279 LP  0  0  0  0  0  0  0  0  0  0  0  0  # atno 17342 bound_to 10162
  139.5688  144.7450  151.3949 LP  0  0  0  0  0  0  0  0  0  0  0  0  # atno 17343 bound_to 10162
  157.5558  130.8213  149.8203 LP  0  0  0  0  0  0  0  0  0  0  0  0  # atno 17370 bound_to 10713
  156.0263  130.3778  150.1815 LP  0  0  0  0  0  0  0  0  0  0  0  0  # atno 17371 bound_to 10713
  140.9625  133.7379  156.0421 LP  0  0  0  0  0  0  0  0  0  0  0  0  # atno 17394 bound_to 11000
  140.7971  134.3551  157.5449 LP  0  0  0  0  0  0  0  0  0  0  0  0  # atno 17395 bound_to 11000

$$$$
