AV-unprocessed.smi:473|AV-procd|sdf|2663|dock1
  -GOLD-   2262023 73D 1   1.00000     0.00000
 Structure written by MMmdl.
 43 45  0  0  0  0  0  0  0  0  2 V2000
  152.2640  145.0179  160.3606 C   0  0  0  0  0  0  0  0  0  0  0  0
  151.9095  143.7902  159.5386 C   0  0  0  0  0  0  0  0  0  0  0  0
  151.0553  143.9487  158.4237 C   0  0  0  0  0  0  0  0  0  0  0  0
  150.7532  142.8082  157.6892 C   0  0  0  0  0  0  0  0  0  0  0  0
  149.9596  142.6340  156.5533 N   0  3  0  0  0  0  0  0  0  0  0  0
  149.9680  141.3214  156.1898 C   0  0  0  0  0  0  0  0  0  0  0  0
  150.7554  140.6556  157.0776 N   0  0  0  0  0  0  0  0  0  0  0  0
  151.1100  139.2316  157.1462 C   0  0  0  0  0  0  0  0  0  0  0  0
  149.9875  138.3638  157.7497 C   0  0  2  0  0  0  0  0  0  0  0  0
  149.4551  139.0265  158.8802 O   0  0  0  0  0  0  0  0  0  0  0  0
  150.5007  136.9813  158.1816 C   0  0  0  0  0  0  0  0  0  0  0  0
  149.8972  136.6318  159.4201 O   0  0  0  0  0  0  0  0  0  0  0  0
  148.5692  136.1372  159.2998 C   0  0  0  0  0  0  0  0  0  0  0  0
  147.9674  136.0161  160.6662 C   0  0  0  0  0  0  0  0  0  0  0  0
  147.5449  134.9481  161.4087 C   0  0  0  0  0  0  0  0  0  0  0  0
  147.0779  135.4759  162.6443 C   0  0  0  0  0  0  0  0  0  0  0  0
  147.2575  136.8274  162.5683 C   0  0  0  0  0  0  0  0  0  0  0  0
  147.8037  137.1735  161.3710 O   0  0  0  0  0  0  0  0  0  0  0  0
  151.2663  141.5421  158.0310 C   0  0  0  0  0  0  0  0  0  0  0  0
  152.1069  141.3673  159.1275 C   0  0  0  0  0  0  0  0  0  0  0  0
  152.4289  142.5159  159.8856 C   0  0  0  0  0  0  0  0  0  0  0  0
  153.3501  142.3579  161.0833 C   0  0  0  0  0  0  0  0  0  0  0  0
  151.7919  145.9158  159.9609 H   0  0  0  0  0  0  0  0  0  0  0  0
  153.3421  145.1802  160.3605 H   0  0  0  0  0  0  0  0  0  0  0  0
  151.9310  144.8975  161.3917 H   0  0  0  0  0  0  0  0  0  0  0  0
  150.6570  144.9158  158.1529 H   0  0  0  0  0  0  0  0  0  0  0  0
  149.4486  140.8886  155.3469 H   0  0  0  0  0  0  0  0  0  0  0  0
  151.3674  138.8951  156.1410 H   0  0  0  0  0  0  0  0  0  0  0  0
  152.0191  139.1475  157.7436 H   0  0  0  0  0  0  0  0  0  0  0  0
  149.1952  138.2409  157.0106 H   0  0  0  0  0  0  0  0  0  0  0  0
  148.7475  138.5060  159.2281 H   0  0  0  0  0  0  0  0  0  0  0  0
  150.2207  136.2423  157.4297 H   0  0  0  0  0  0  0  0  0  0  0  0
  151.5897  136.9670  158.2523 H   0  0  0  0  0  0  0  0  0  0  0  0
  147.9637  136.7746  158.6536 H   0  0  0  0  0  0  0  0  0  0  0  0
  148.6085  135.1527  158.8335 H   0  0  0  0  0  0  0  0  0  0  0  0
  147.5668  133.9137  161.0990 H   0  0  0  0  0  0  0  0  0  0  0  0
  146.6657  134.9350  163.4833 H   0  0  0  0  0  0  0  0  0  0  0  0
  147.0636  137.6491  163.2421 H   0  0  0  0  0  0  0  0  0  0  0  0
  152.5037  140.3974  159.3892 H   0  0  0  0  0  0  0  0  0  0  0  0
  153.6399  141.3167  161.2293 H   0  0  0  0  0  0  0  0  0  0  0  0
  152.8571  142.6965  161.9948 H   0  0  0  0  0  0  0  0  0  0  0  0
  154.2608  142.9408  160.9439 H   0  0  0  0  0  0  0  0  0  0  0  0
  149.4522  143.3562  156.0581 H   0  0  0  0  0  0  0  0  0  0  0  0
  1  2  1  0  0  0  0
  1 23  1  0  0  0  0
  1 24  1  0  0  0  0
  1 25  1  0  0  0  0
  2 21  1  0  0  0  0
  2  3  2  0  0  0  0
  3  4  1  0  0  0  0
  3 26  1  0  0  0  0
  4 19  2  0  0  0  0
  4  5  1  0  0  0  0
  5  6  2  0  0  0  0
  5 43  1  0  0  0  0
  6  7  1  0  0  0  0
  6 27  1  0  0  0  0
  7  8  1  0  0  0  0
  7 19  1  0  0  0  0
  8  9  1  0  0  0  0
  8 28  1  0  0  0  0
  8 29  1  0  0  0  0
  9 10  1  0  0  0  0
  9 11  1  0  0  0  0
  9 30  1  0  0  0  0
 10 31  1  0  0  0  0
 11 12  1  0  0  0  0
 11 32  1  0  0  0  0
 11 33  1  0  0  0  0
 12 13  1  0  0  0  0
 13 14  1  0  0  0  0
 13 34  1  0  0  0  0
 13 35  1  0  0  0  0
 14 18  1  0  0  0  0
 14 15  2  0  0  0  0
 15 16  1  0  0  0  0
 15 36  1  0  0  0  0
 16 17  2  0  0  0  0
 16 37  1  0  0  0  0
 17 18  1  0  0  0  0
 17 38  1  0  0  0  0
 19 20  1  0  0  0  0
 20 21  2  0  0  0  0
 20 39  1  0  0  0  0
 21 22  1  0  0  0  0
 22 40  1  0  0  0  0
 22 41  1  0  0  0  0
 22 42  1  0  0  0  0
M  CHG  1   5   1
M  END
> <s_m_source_file>
AV-unprocessed.smi

> <i_m_source_file_index>
473

> <i_lp_mmshare_version>
43012

> <i_f3d_flags>
0

> <s_epik_input>
W0NIM11jKFtjSF0xKWMoW0NIM10pW2NIXWMoYzEyKW4oW2NIXW4yKVtDSDJdW0NASF0oW09IXSlbQ0gyXU9bQ0gyXWMzW2NIXVtjSF1bY0hdbzM=

> <s_epik_cmdline>
J2VwaWtfcHl0aG9uJywgJy1waCcsICc3LjAnLCAnLXRuJywgJzgnLCAnLW1hJywgJzIwMCcsICctbWV0YWxfYmluZGluZycsICctaW1hZScsICc8aW5maWxlLm1hZT4nLCAnLW9tYWUnLCAnPG91dGZpbGUubWFlPic=

> <r_epik_Ionization_Penalty>
1.03981

> <r_epik_Ionization_Penalty_Charging>
1.03981

> <r_epik_Ionization_Penalty_Neutral>
9.34185e-07

> <r_epik_State_Penalty>
1.09172

> <r_epik_Charging_Adjusted_Penalty>
2.13153

> <i_epik_Tot_Q>
1

> <i_epik_Tot_abs_Q>
1

> <r_epik_Metal_State_Penalty>
5.0824

> <b_epik_Metal_Only>
0

> <s_lp_Force_Field>
OPLS_2005

> <r_lp_Energy>
14.0474

> <b_lp_Chiralities_Consistent>
1

> <s_lp_Variant>
AV-unprocessed.smi:473-3

> <Gold.Version>
5.8.1

> <Gold.Id.Protein>
6NUR|6NUR_protein|mol2

> <Gold.PLP.Fitness>
61.0912

> <Gold.PLP.PLP>
-49.3365

> <Gold.PLP.part.hbond>
-5.7142

> <Gold.PLP.part.metal>
0.0000

> <Gold.PLP.part.buried>
-5.0205

> <Gold.PLP.part.nonpolar>
-39.5040

> <Gold.PLP.part.repulsive>
0.0627

> <Gold.PLP.ligand.clash>
0.2274

> <Gold.PLP.ligand.torsion>
1.0855

> <Gold.PLP.Chemscore.Hbond>
4.6680

> <Gold.PLP.Chemscore.CHOScore>
0.0000

> <Gold.PLP.Chemscore.Metal>
0.0000

> <Gold.Chemscore.Hbonds>
donor molecule, donor type, donor heavy atom, donor atom, acceptor molecule, acceptor atom, score
      L1  H     5    43       P1  8028  1.98
      P1  H  6896  6908       L1    12  0.85
      P1  H  6931  6943       L1    18  1.00
      P1  H  6934  6947       L1    18  0.77

> <Gold.PLP.Chemscore.Internal.Correction>
0.1490

> <Gold.Rescore>
     Score         DG    S(hbond)    S(metal)    S(lipo)     H(rot)  DE(clash)    DE(int)     intcor
     19.75     -22.29       2.38        0.00     130.30       2.49       1.51       1.03       ----

> <Gold.Chemscore.Fitness>
19.7494

> <Gold.Chemscore.DG>
-22.2907

> <Gold.Chemscore.ZeroCoef>
-5.4800

> <Gold.Chemscore.Hbond>
2.3783

> <Gold.Chemscore.Metal>
0.0000

> <Gold.Chemscore.Lipo>
130.2978

> <Gold.Chemscore.Internal_Hbond>
0.0000

> <Gold.Chemscore.DEClash>
1.5084

> <Gold.Chemscore.DEInternal>
1.0329

> <Gold.Chemscore.Rot>
2.4913

> <Gold.Chemscore.Internal.Correction>
   9.000000E+99

> <Gold.Chemscore.Hbonds>
donor molecule, donor type, donor heavy atom, donor atom, acceptor molecule, acceptor atom, score
      L1  H     5    43       P1  8028  0.93
      P1  H  6896  6908       L1    12  0.07
      P1  H  6931  6943       L1    18  0.24
      P1  H  6934  6947       L1    18  0.48

> <Gold.Chemscore.Hbond.Weighted>
-7.9437

> <Gold.Chemscore.Metal.Weighted>
-0.0000

> <Gold.Chemscore.Lipo.Weighted>
-15.2448

> <Gold.Chemscore.Internal_Hbond.Weighted>
0.0000

> <Gold.Chemscore.DEClash.Weighted>
1.5084

> <Gold.Chemscore.DEInternal.Weighted>
1.0329

> <Gold.Chemscore.Rot.Weighted>
6.3778

> <Gold.Chemscore.Internal.Correction.Weighted>
   9.000000E+99

> <Gold.Protein.RotatedTorsions>
[ 6907 6896 6895 6894 ] final -154.60 input  -60.11 | X-H torsion
[ 7974 7965 7964 7962 ] final  177.22 input  175.53 | X-H torsion
[ 8008 7997 7996 7995 ] final  -32.03 input   59.86 | X-H torsion
[ 10167 10162 10161 10158 ] final -179.42 input  -65.29 | X-H torsion
[ 10718 10713 10712 10709 ] final  -54.77 input   66.30 | X-H torsion
[ 10763 10752 10751 10750 ] final  -56.85 input  -60.55 | X-H torsion
[ 11005 11000 10999 10996 ] final   69.04 input  -57.11 | X-H torsion

> <Gold.Protein.ActiveResidues>
 VAL166  LYS551  ARG553  GLY616  TRP617  ASP618  TYR619  PRO620  LYS621  CYS622 
 ASP623  PHE694  ASN695  SER759  ASP760  ASP761  ALA762  ILE779  LEU786  VAL792 
 PHE793  MET794  SER795  GLU796  ALA797  LYS798  CYS799  TRP800  GLU811  SER814 

> <Gold.Protein.RotatedAtoms>
  151.2599  133.4307  159.2615 H   0  0  0  0  0  0  0  0  0  0  0  0  # atno 6907 bound_to 6896
  151.0540  134.9692  159.8236 H   0  0  0  0  0  0  0  0  0  0  0  0  # atno 6908 bound_to 6896
  152.5387  134.2553  159.8967 H   0  0  0  0  0  0  0  0  0  0  0  0  # atno 6909 bound_to 6896
  144.7172  140.0215  143.6440 H   0  0  0  0  0  0  0  0  0  0  0  0  # atno 7974 bound_to 7965
  154.4193  140.1748  156.1661 H   0  0  0  0  0  0  0  0  0  0  0  0  # atno 8008 bound_to 7997
  155.9798  140.3378  155.6629 H   0  0  0  0  0  0  0  0  0  0  0  0  # atno 8009 bound_to 7997
  155.6514  140.0691  157.2576 H   0  0  0  0  0  0  0  0  0  0  0  0  # atno 8010 bound_to 7997
  139.5387  144.2424  152.0850 H   0  0  0  0  0  0  0  0  0  0  0  0  # atno 10167 bound_to 10162
  156.1423  130.4154  150.0082 H   0  0  0  0  0  0  0  0  0  0  0  0  # atno 10718 bound_to 10713
  154.2131  135.6391  153.5121 H   0  0  0  0  0  0  0  0  0  0  0  0  # atno 10763 bound_to 10752
  152.9985  135.5479  154.6194 H   0  0  0  0  0  0  0  0  0  0  0  0  # atno 10764 bound_to 10752
  154.5635  135.2911  155.0869 H   0  0  0  0  0  0  0  0  0  0  0  0  # atno 10765 bound_to 10752
  139.9677  134.6953  156.0512 H   0  0  0  0  0  0  0  0  0  0  0  0  # atno 11005 bound_to 11000
  146.0177  139.3224  143.0832 LP  0  0  0  0  0  0  0  0  0  0  0  0  # atno 17320 bound_to 7965
  145.8606  140.9477  143.0702 LP  0  0  0  0  0  0  0  0  0  0  0  0  # atno 17321 bound_to 7965
  140.1898  144.4762  150.6484 LP  0  0  0  0  0  0  0  0  0  0  0  0  # atno 17342 bound_to 10162
  140.6607  143.2251  151.5863 LP  0  0  0  0  0  0  0  0  0  0  0  0  # atno 17343 bound_to 10162
  156.7963  130.9274  151.3646 LP  0  0  0  0  0  0  0  0  0  0  0  0  # atno 17370 bound_to 10713
  157.6587  130.8947  149.9783 LP  0  0  0  0  0  0  0  0  0  0  0  0  # atno 17371 bound_to 10713
  141.1356  133.6576  156.3586 LP  0  0  0  0  0  0  0  0  0  0  0  0  # atno 17394 bound_to 11000
  140.5361  134.6165  157.5365 LP  0  0  0  0  0  0  0  0  0  0  0  0  # atno 17395 bound_to 11000

$$$$
