AV-unprocessed.smi:1405|AV-procd|sdf|5708|dock6
  -GOLD-   22720 5343D 1   1.00000     0.00000
 Structure written by MMmdl.
 48 51  0  0  0  0  0  0  0  0  2 V2000
  149.7933  134.9379  157.9162 O   0  0  0  0  0  0  0  0  0  0  0  0
  149.2371  134.8585  156.8213 C   0  0  0  0  0  0  0  0  0  0  0  0
  150.0619  135.0950  155.5436 C   0  0  0  0  0  0  0  0  0  0  0  0
  150.7564  136.3947  155.4867 N   0  0  0  0  0  0  0  0  0  0  0  0
  150.3979  137.2749  154.4503 C   0  0  0  0  0  0  0  0  0  0  0  0
  150.9850  138.4779  154.3042 C   0  0  0  0  0  0  0  0  0  0  0  0
  152.0189  138.8615  155.2571 C   0  0  0  0  0  0  0  0  0  0  0  0
  152.5664  139.9559  155.1386 O   0  0  0  0  0  0  0  0  0  0  0  0
  152.3323  137.9729  156.2450 N   0  5  0  0  0  0  0  0  0  0  0  0
  151.7283  136.7516  156.3801 C   0  0  0  0  0  0  0  0  0  0  0  0
  152.0347  135.9600  157.2719 O   0  0  0  0  0  0  0  0  0  0  0  0
  147.9289  134.5867  156.6891 N   0  0  0  0  0  0  0  0  0  0  0  0
  146.9986  134.3587  157.7848 C   0  0  0  0  0  0  0  0  0  0  0  0
  146.9784  135.5828  158.7192 C   0  0  0  0  0  0  0  0  0  0  0  0
  146.6258  135.3101  160.2037 C   0  0  0  0  0  0  0  0  0  0  0  0
  147.5268  134.1974  160.8052 C   0  0  0  0  0  0  0  0  0  0  0  0
  147.1975  133.9854  162.2987 C   0  0  2  0  0  0  0  0  0  0  0  0
  145.7187  133.5693  162.4461 C   0  0  0  0  0  0  0  0  0  0  0  0
  144.8160  134.6852  161.8778 C   0  0  1  0  0  0  0  0  0  0  0  0
  145.0607  135.9948  162.6550 C   0  0  0  0  0  0  0  0  0  0  0  0
  146.5404  136.4024  162.5050 C   0  0  1  0  0  0  0  0  0  0  0  0
  147.4468  135.2935  163.0768 C   0  0  0  0  0  0  0  0  0  0  0  0
  146.8664  136.6142  161.0117 C   0  0  0  0  0  0  0  0  0  0  0  0
  145.1389  134.8993  160.3826 C   0  0  0  0  0  0  0  0  0  0  0  0
  150.7873  134.2851  155.4555 H   0  0  0  0  0  0  0  0  0  0  0  0
  149.4043  134.9762  154.6809 H   0  0  0  0  0  0  0  0  0  0  0  0
  149.6289  136.9112  153.7846 H   0  0  0  0  0  0  0  0  0  0  0  0
  150.7000  139.1406  153.5003 H   0  0  0  0  0  0  0  0  0  0  0  0
  147.5544  134.5332  155.7524 H   0  0  0  0  0  0  0  0  0  0  0  0
  146.0013  134.1693  157.3862 H   0  0  0  0  0  0  0  0  0  0  0  0
  147.3157  133.4615  158.3154 H   0  0  0  0  0  0  0  0  0  0  0  0
  147.9535  136.0707  158.6762 H   0  0  0  0  0  0  0  0  0  0  0  0
  146.2702  136.3073  158.3137 H   0  0  0  0  0  0  0  0  0  0  0  0
  147.3862  133.2557  160.2747 H   0  0  0  0  0  0  0  0  0  0  0  0
  148.5796  134.4588  160.6902 H   0  0  0  0  0  0  0  0  0  0  0  0
  147.8367  133.1989  162.7011 H   0  0  0  0  0  0  0  0  0  0  0  0
  145.5364  132.6307  161.9209 H   0  0  0  0  0  0  0  0  0  0  0  0
  145.4806  133.3868  163.4948 H   0  0  0  0  0  0  0  0  0  0  0  0
  143.7709  134.3930  161.9836 H   0  0  0  0  0  0  0  0  0  0  0  0
  144.4102  136.7853  162.2787 H   0  0  0  0  0  0  0  0  0  0  0  0
  144.8092  135.8636  163.7081 H   0  0  0  0  0  0  0  0  0  0  0  0
  146.7170  137.3305  163.0495 H   0  0  0  0  0  0  0  0  0  0  0  0
  147.2424  135.1474  164.1382 H   0  0  0  0  0  0  0  0  0  0  0  0
  148.4952  135.5847  163.0015 H   0  0  0  0  0  0  0  0  0  0  0  0
  147.9020  136.9401  160.9045 H   0  0  0  0  0  0  0  0  0  0  0  0
  146.2520  137.4237  160.6147 H   0  0  0  0  0  0  0  0  0  0  0  0
  144.4812  135.6624  159.9640 H   0  0  0  0  0  0  0  0  0  0  0  0
  144.9240  133.9785  159.8399 H   0  0  0  0  0  0  0  0  0  0  0  0
  1  2  2  0  0  0  0
  2  3  1  0  0  0  0
  2 12  1  0  0  0  0
  3  4  1  0  0  0  0
  3 25  1  0  0  0  0
  3 26  1  0  0  0  0
  4 10  1  0  0  0  0
  4  5  1  0  0  0  0
  5  6  2  0  0  0  0
  5 27  1  0  0  0  0
  6  7  1  0  0  0  0
  6 28  1  0  0  0  0
  7  8  2  0  0  0  0
  7  9  1  0  0  0  0
  9 10  1  0  0  0  0
 10 11  2  0  0  0  0
 12 13  1  0  0  0  0
 12 29  1  0  0  0  0
 13 14  1  0  0  0  0
 13 30  1  0  0  0  0
 13 31  1  0  0  0  0
 14 15  1  0  0  0  0
 14 32  1  0  0  0  0
 14 33  1  0  0  0  0
 15 23  1  0  0  0  0
 15 24  1  0  0  0  0
 15 16  1  0  0  0  0
 16 17  1  0  0  0  0
 16 34  1  0  0  0  0
 16 35  1  0  0  0  0
 17 22  1  0  0  0  0
 17 18  1  0  0  0  0
 17 36  1  0  0  0  0
 18 19  1  0  0  0  0
 18 37  1  0  0  0  0
 18 38  1  0  0  0  0
 19 20  1  0  0  0  0
 19 24  1  0  0  0  0
 19 39  1  0  0  0  0
 20 21  1  0  0  0  0
 20 40  1  0  0  0  0
 20 41  1  0  0  0  0
 21 22  1  0  0  0  0
 21 23  1  0  0  0  0
 21 42  1  0  0  0  0
 22 43  1  0  0  0  0
 22 44  1  0  0  0  0
 23 45  1  0  0  0  0
 23 46  1  0  0  0  0
 24 47  1  0  0  0  0
 24 48  1  0  0  0  0
M  CHG  1   9  -1
M  END
> <s_m_source_file>
AV-unprocessed.smi

> <i_m_source_file_index>
1405

> <i_lp_mmshare_version>
43012

> <i_f3d_flags>
0

> <s_epik_input>
Tz1jMVtuSF1jKD1PKVtjSF1bY0hdbjFbQ0gyXUMoPU8pW05IXVtDSDJdW0NIMl1DMjNbQ0gyXVtDQEBIXTRbQ0gyXVtDQEhdKFtDSDJdMylbQ0gyXVtDQEBIXShbQ0gyXTQpW0NIMl0y

> <s_epik_cmdline>
J2VwaWtfcHl0aG9uJywgJy1waCcsICc3LjAnLCAnLXRuJywgJzgnLCAnLW1hJywgJzIwMCcsICctbWV0YWxfYmluZGluZycsICctaW1hZScsICc8aW5maWxlLm1hZT4nLCAnLW9tYWUnLCAnPG91dGZpbGUubWFlPic=

> <r_lp_tautomer_probability>
0.999537

> <r_epik_Ionization_Penalty>
3.12935

> <r_epik_Ionization_Penalty_Charging>
2.8866e-08

> <r_epik_Ionization_Penalty_Neutral>
3.12935

> <r_epik_State_Penalty>
3.12845

> <r_epik_Charging_Adjusted_Penalty>
3.12845

> <i_epik_Tot_Q>
-1

> <i_epik_Tot_abs_Q>
1

> <r_epik_Metal_State_Penalty>
0.464346

> <b_epik_Metal_Only>
1

> <s_lp_Force_Field>
OPLS_2005

> <r_lp_Energy>
42.9683

> <b_lp_Chiralities_Consistent>
1

> <s_lp_Variant>
AV-unprocessed.smi:1405-2

> <Gold.Version>
5.8.1

> <Gold.Id.Protein>
6NUR|6NUR_protein|mol2

> <Gold.PLP.Fitness>
47.0542

> <Gold.PLP.PLP>
-37.1766

> <Gold.PLP.part.hbond>
-3.4735

> <Gold.PLP.part.metal>
0.0000

> <Gold.PLP.part.buried>
-3.8889

> <Gold.PLP.part.nonpolar>
-30.6271

> <Gold.PLP.part.repulsive>
0.0249

> <Gold.PLP.ligand.clash>
0.0000

> <Gold.PLP.ligand.torsion>
0.2418

> <Gold.PLP.Chemscore.Hbond>
2.4332

> <Gold.PLP.Chemscore.CHOScore>
1.0000

> <Gold.PLP.Chemscore.Metal>
0.0000

> <Gold.Chemscore.Hbonds>
donor molecule, donor type, donor heavy atom, donor atom, acceptor molecule, acceptor atom, score
      P1  H  6896  6907       L1     1  0.99
      P1  H  7989  7998       L1     8  0.51
      P1  H  7997  8008       L1     8  0.98
      L1  C     5    27       P1  7948  1.00

> <Gold.PLP.Chemscore.Internal.Correction>
0.0616

> <Gold.Rescore>
     Score         DG    S(hbond)    S(metal)    S(lipo)     H(rot)  DE(clash)    DE(int)     intcor
     15.28     -17.84       2.18        0.00      89.94       2.12       0.01       2.55       ----

> <Gold.Chemscore.Fitness>
15.2777

> <Gold.Chemscore.DG>
-17.8433

> <Gold.Chemscore.ZeroCoef>
-5.4800

> <Gold.Chemscore.Hbond>
2.1771

> <Gold.Chemscore.Metal>
0.0000

> <Gold.Chemscore.Lipo>
89.9403

> <Gold.Chemscore.Internal_Hbond>
0.0000

> <Gold.Chemscore.DEClash>
0.0111

> <Gold.Chemscore.DEInternal>
2.5544

> <Gold.Chemscore.Rot>
2.1216

> <Gold.Chemscore.Internal.Correction>
   9.000000E+99

> <Gold.Chemscore.Hbonds>
donor molecule, donor type, donor heavy atom, donor atom, acceptor molecule, acceptor atom, score
      P1  H  6896  6907       L1     1  0.93
      P1  H  7989  7998       L1     8  0.27
      P1  H  7997  8008       L1     8  0.89

> <Gold.Chemscore.Hbond.Weighted>
-7.2717

> <Gold.Chemscore.Metal.Weighted>
-0.0000

> <Gold.Chemscore.Lipo.Weighted>
-10.5230

> <Gold.Chemscore.Internal_Hbond.Weighted>
0.0000

> <Gold.Chemscore.DEClash.Weighted>
0.0111

> <Gold.Chemscore.DEInternal.Weighted>
2.5544

> <Gold.Chemscore.Rot.Weighted>
5.4314

> <Gold.Chemscore.Internal.Correction.Weighted>
   9.000000E+99

> <Gold.Protein.RotatedTorsions>
[ 6907 6896 6895 6894 ] final  -91.57 input  -60.11 | X-H torsion
[ 7974 7965 7964 7962 ] final  144.51 input  175.53 | X-H torsion
[ 8008 7997 7996 7995 ] final  -17.72 input   59.86 | X-H torsion
[ 10167 10162 10161 10158 ] final -169.11 input  -65.29 | X-H torsion
[ 10718 10713 10712 10709 ] final -138.78 input   66.30 | X-H torsion
[ 10763 10752 10751 10750 ] final  -99.82 input  -60.55 | X-H torsion
[ 11005 11000 10999 10996 ] final  115.91 input  -57.11 | X-H torsion

> <Gold.Protein.ActiveResidues>
 VAL166  LYS551  ARG553  GLY616  TRP617  ASP618  TYR619  PRO620  LYS621  CYS622 
 ASP623  PHE694  ASN695  SER759  ASP760  ASP761  ALA762  ILE779  LEU786  VAL792 
 PHE793  MET794  SER795  GLU796  ALA797  LYS798  CYS799  TRP800  GLU811  SER814 

> <Gold.Protein.RotatedAtoms>
  150.6894  134.2256  159.4413 H   0  0  0  0  0  0  0  0  0  0  0  0  # atno 6907 bound_to 6896
  152.0209  134.9820  160.0580 H   0  0  0  0  0  0  0  0  0  0  0  0  # atno 6908 bound_to 6896
  152.1398  133.4422  159.4798 H   0  0  0  0  0  0  0  0  0  0  0  0  # atno 6909 bound_to 6896
  144.8829  139.5672  143.5834 H   0  0  0  0  0  0  0  0  0  0  0  0  # atno 7974 bound_to 7965
  154.4957  140.2135  155.9451 H   0  0  0  0  0  0  0  0  0  0  0  0  # atno 8008 bound_to 7997
  156.1367  140.3187  155.8400 H   0  0  0  0  0  0  0  0  0  0  0  0  # atno 8009 bound_to 7997
  155.4196  140.0496  157.3017 H   0  0  0  0  0  0  0  0  0  0  0  0  # atno 8010 bound_to 7997
  139.5943  144.1146  152.1671 H   0  0  0  0  0  0  0  0  0  0  0  0  # atno 10167 bound_to 10162
  156.3032  130.7440  151.1497 H   0  0  0  0  0  0  0  0  0  0  0  0  # atno 10718 bound_to 10713
  154.7529  135.4958  153.9321 H   0  0  0  0  0  0  0  0  0  0  0  0  # atno 10763 bound_to 10752
  153.1163  135.6721  153.9420 H   0  0  0  0  0  0  0  0  0  0  0  0  # atno 10764 bound_to 10752
  153.9165  135.3093  155.3427 H   0  0  0  0  0  0  0  0  0  0  0  0  # atno 10765 bound_to 10752
  139.9024  134.9591  156.7117 H   0  0  0  0  0  0  0  0  0  0  0  0  # atno 11005 bound_to 11000
  146.3006  139.7415  142.9094 LP  0  0  0  0  0  0  0  0  0  0  0  0  # atno 17320 bound_to 7965
  145.3921  141.0374  143.3118 LP  0  0  0  0  0  0  0  0  0  0  0  0  # atno 17321 bound_to 7965
  140.0727  144.5766  150.7179 LP  0  0  0  0  0  0  0  0  0  0  0  0  # atno 17342 bound_to 10162
  140.7199  143.2579  151.4313 LP  0  0  0  0  0  0  0  0  0  0  0  0  # atno 17343 bound_to 10162
  157.7373  131.0553  150.5363 LP  0  0  0  0  0  0  0  0  0  0  0  0  # atno 17370 bound_to 10713
  156.5493  130.4227  149.6115 LP  0  0  0  0  0  0  0  0  0  0  0  0  # atno 17371 bound_to 10713
  140.7070  133.9256  155.8060 LP  0  0  0  0  0  0  0  0  0  0  0  0  # atno 17394 bound_to 11000
  141.0329  134.0731  157.3993 LP  0  0  0  0  0  0  0  0  0  0  0  0  # atno 17395 bound_to 11000

$$$$
