AV-unprocessed.smi:1774|AV-procd|sdf|7169|dock2
  -GOLD-   22720 8403D 1   1.00000     0.00000
 Structure written by MMmdl.
 46 47  0  0  0  0  0  0  0  0  2 V2000
  147.3494  132.6779  152.6260 C   0  0  0  0  0  0  0  0  0  0  0  0
  146.0906  132.7213  151.7753 C   0  0  0  0  0  0  0  0  0  0  0  0
  145.4525  131.5125  151.4243 C   0  0  0  0  0  0  0  0  0  0  0  0
  144.2883  131.5548  150.6385 C   0  0  0  0  0  0  0  0  0  0  0  0
  143.8086  132.8122  150.2337 C   0  0  0  0  0  0  0  0  0  0  0  0
  144.4117  133.9721  150.5648 N   0  0  0  0  0  0  0  0  0  0  0  0
  145.5357  133.9489  151.3245 C   0  0  0  0  0  0  0  0  0  0  0  0
  146.2224  135.1337  151.7143 N   0  0  0  0  0  0  0  0  0  0  0  0
  145.7077  136.2698  152.2170 C   0  0  0  0  0  0  0  0  0  0  0  0
  144.5115  136.4889  152.4110 O   0  0  0  0  0  0  0  0  0  0  0  0
  146.6707  137.1605  152.4957 N   0  0  0  0  0  0  0  0  0  0  0  0
  146.4376  138.4713  153.0908 C   0  0  0  0  0  0  0  0  0  0  0  0
  147.7536  139.2453  153.2971 C   0  0  0  0  0  0  0  0  0  0  0  0
  148.7755  138.4290  153.9974 N   0  3  1  0  0  0  0  0  0  0  0  0
  150.0188  139.1841  154.2744 C   0  0  0  0  0  0  0  0  0  0  0  0
  151.0799  138.2594  154.8988 C   0  0  1  0  0  0  0  0  0  0  0  0
  152.3533  139.0213  155.2817 C   0  0  0  0  0  0  0  0  0  0  0  0
  150.5541  137.6621  156.0814 O   0  0  0  0  0  0  0  0  0  0  0  0
  149.3525  136.9142  155.8943 C   0  0  2  0  0  0  0  0  0  0  0  0
  149.5979  135.5919  155.1459 C   0  0  0  0  0  0  0  0  0  0  0  0
  148.2715  137.7983  155.2424 C   0  0  0  0  0  0  0  0  0  0  0  0
  147.6051  131.6553  152.9043 H   0  0  0  0  0  0  0  0  0  0  0  0
  147.2113  133.2497  153.5440 H   0  0  0  0  0  0  0  0  0  0  0  0
  148.1934  133.0983  152.0787 H   0  0  0  0  0  0  0  0  0  0  0  0
  145.8475  130.5624  151.7525 H   0  0  0  0  0  0  0  0  0  0  0  0
  143.7762  130.6478  150.3532 H   0  0  0  0  0  0  0  0  0  0  0  0
  142.9176  132.8898  149.6284 H   0  0  0  0  0  0  0  0  0  0  0  0
  147.2263  135.1000  151.6179 H   0  0  0  0  0  0  0  0  0  0  0  0
  147.6292  136.9057  152.3061 H   0  0  0  0  0  0  0  0  0  0  0  0
  145.7400  139.0277  152.4640 H   0  0  0  0  0  0  0  0  0  0  0  0
  145.9401  138.3243  154.0498 H   0  0  0  0  0  0  0  0  0  0  0  0
  148.1318  139.5338  152.3151 H   0  0  0  0  0  0  0  0  0  0  0  0
  147.5873  140.1733  153.8466 H   0  0  0  0  0  0  0  0  0  0  0  0
  150.4070  139.6087  153.3477 H   0  0  0  0  0  0  0  0  0  0  0  0
  149.7975  140.0183  154.9424 H   0  0  0  0  0  0  0  0  0  0  0  0
  151.3540  137.4824  154.1851 H   0  0  0  0  0  0  0  0  0  0  0  0
  152.8047  139.4956  154.4098 H   0  0  0  0  0  0  0  0  0  0  0  0
  153.0945  138.3486  155.7135 H   0  0  0  0  0  0  0  0  0  0  0  0
  152.1433  139.8000  156.0155 H   0  0  0  0  0  0  0  0  0  0  0  0
  149.0049  136.6494  156.8933 H   0  0  0  0  0  0  0  0  0  0  0  0
  148.6949  134.9811  155.1355 H   0  0  0  0  0  0  0  0  0  0  0  0
  150.3815  135.0104  155.6322 H   0  0  0  0  0  0  0  0  0  0  0  0
  149.8930  135.7500  154.1091 H   0  0  0  0  0  0  0  0  0  0  0  0
  147.9735  138.5820  155.9412 H   0  0  0  0  0  0  0  0  0  0  0  0
  147.3808  137.2028  155.0452 H   0  0  0  0  0  0  0  0  0  0  0  0
  149.0315  137.6833  153.3663 H   0  0  0  0  0  0  0  0  0  0  0  0
  1  2  1  0  0  0  0
  1 22  1  0  0  0  0
  1 23  1  0  0  0  0
  1 24  1  0  0  0  0
  2  7  1  0  0  0  0
  2  3  2  0  0  0  0
  3  4  1  0  0  0  0
  3 25  1  0  0  0  0
  4  5  2  0  0  0  0
  4 26  1  0  0  0  0
  5  6  1  0  0  0  0
  5 27  1  0  0  0  0
  6  7  2  0  0  0  0
  7  8  1  0  0  0  0
  8  9  1  0  0  0  0
  8 28  1  0  0  0  0
  9 10  2  0  0  0  0
  9 11  1  0  0  0  0
 11 12  1  0  0  0  0
 11 29  1  0  0  0  0
 12 13  1  0  0  0  0
 12 30  1  0  0  0  0
 12 31  1  0  0  0  0
 13 14  1  0  0  0  0
 13 32  1  0  0  0  0
 13 33  1  0  0  0  0
 14 21  1  0  0  0  0
 14 15  1  0  0  0  0
 14 46  1  0  0  0  0
 15 16  1  0  0  0  0
 15 34  1  0  0  0  0
 15 35  1  0  0  0  0
 16 17  1  0  0  0  0
 16 18  1  0  0  0  0
 16 36  1  0  0  0  0
 17 37  1  0  0  0  0
 17 38  1  0  0  0  0
 17 39  1  0  0  0  0
 18 19  1  0  0  0  0
 19 20  1  0  0  0  0
 19 21  1  0  0  0  0
 19 40  1  0  0  0  0
 20 41  1  0  0  0  0
 20 42  1  0  0  0  0
 20 43  1  0  0  0  0
 21 44  1  0  0  0  0
 21 45  1  0  0  0  0
M  CHG  1  14   1
M  END
> <s_m_source_file>
AV-unprocessed.smi

> <i_m_source_file_index>
1774

> <i_lp_mmshare_version>
43012

> <i_f3d_flags>
0

> <s_epik_input>
W0NIM11jMVtjSF1bY0hdW2NIXW5jMVtOSF1DKD1PKVtOSF1bQ0gyXVtDSDJdTjJbQ0gyXVtDQEBIXShbQ0gzXSlPW0NAQEhdKFtDSDNdKVtDSDJdMg==

> <s_epik_cmdline>
J2VwaWtfcHl0aG9uJywgJy1waCcsICc3LjAnLCAnLXRuJywgJzgnLCAnLW1hJywgJzIwMCcsICctbWV0YWxfYmluZGluZycsICctaW1hZScsICc8aW5maWxlLm1hZT4nLCAnLW9tYWUnLCAnPG91dGZpbGUubWFlPic=

> <r_epik_Ionization_Penalty>
0.602573

> <r_epik_Ionization_Penalty_Charging>
0.602531

> <r_epik_Ionization_Penalty_Neutral>
4.21996e-05

> <r_epik_State_Penalty>
0.617039

> <r_epik_Charging_Adjusted_Penalty>
1.21957

> <i_epik_Tot_Q>
1

> <i_epik_Tot_abs_Q>
1

> <r_epik_Metal_State_Penalty>
0.617042

> <b_epik_Metal_Only>
0

> <s_lp_Force_Field>
OPLS_2005

> <r_lp_Energy>
18.7656

> <b_lp_Chiralities_Consistent>
1

> <s_lp_Variant>
AV-unprocessed.smi:1774-6

> <Gold.Version>
5.8.1

> <Gold.Id.Protein>
6NUR|6NUR_protein|mol2

> <Gold.PLP.Fitness>
48.2625

> <Gold.PLP.PLP>
-34.4368

> <Gold.PLP.part.hbond>
-3.2613

> <Gold.PLP.part.metal>
0.0000

> <Gold.PLP.part.buried>
-2.1438

> <Gold.PLP.part.nonpolar>
-29.5530

> <Gold.PLP.part.repulsive>
0.4498

> <Gold.PLP.ligand.clash>
0.0000

> <Gold.PLP.ligand.torsion>
0.4409

> <Gold.PLP.Chemscore.Hbond>
3.8960

> <Gold.PLP.Chemscore.CHOScore>
1.0000

> <Gold.PLP.Chemscore.Metal>
0.0000

> <Gold.Chemscore.Hbonds>
donor molecule, donor type, donor heavy atom, donor atom, acceptor molecule, acceptor atom, score
      L1  H     8    28       P1  7948  0.87
      L1  H    11    29       P1  7948  1.00
      L1  H    14    46       P1  7948  1.79
      L1  C     5    27       P1 10186  1.00

> <Gold.PLP.Chemscore.Internal.Correction>
0.0196

> <Gold.Rescore>
     Score         DG    S(hbond)    S(metal)    S(lipo)     H(rot)  DE(clash)    DE(int)     intcor
     20.05     -20.67       2.62        0.00      87.87       1.49       0.18       0.44       ----

> <Gold.Chemscore.Fitness>
20.0530

> <Gold.Chemscore.DG>
-20.6717

> <Gold.Chemscore.ZeroCoef>
-5.4800

> <Gold.Chemscore.Hbond>
2.6158

> <Gold.Chemscore.Metal>
0.0000

> <Gold.Chemscore.Lipo>
87.8710

> <Gold.Chemscore.Internal_Hbond>
0.0000

> <Gold.Chemscore.DEClash>
0.1761

> <Gold.Chemscore.DEInternal>
0.4425

> <Gold.Chemscore.Rot>
1.4946

> <Gold.Chemscore.Internal.Correction>
   9.000000E+99

> <Gold.Chemscore.Hbonds>
donor molecule, donor type, donor heavy atom, donor atom, acceptor molecule, acceptor atom, score
      L1  H     8    28       P1  7948  0.70
      L1  H    11    29       P1  7948  0.94
      L1  H    14    46       P1  7948  0.87

> <Gold.Chemscore.Hbond.Weighted>
-8.7368

> <Gold.Chemscore.Metal.Weighted>
-0.0000

> <Gold.Chemscore.Lipo.Weighted>
-10.2809

> <Gold.Chemscore.Internal_Hbond.Weighted>
0.0000

> <Gold.Chemscore.DEClash.Weighted>
0.1761

> <Gold.Chemscore.DEInternal.Weighted>
0.4425

> <Gold.Chemscore.Rot.Weighted>
3.8261

> <Gold.Chemscore.Internal.Correction.Weighted>
   9.000000E+99

> <Gold.Protein.RotatedTorsions>
[ 6907 6896 6895 6894 ] final  105.38 input  -60.11 | X-H torsion
[ 7974 7965 7964 7962 ] final  158.59 input  175.53 | X-H torsion
[ 8008 7997 7996 7995 ] final  118.88 input   59.86 | X-H torsion
[ 10167 10162 10161 10158 ] final -175.25 input  -65.29 | X-H torsion
[ 10718 10713 10712 10709 ] final -168.64 input   66.30 | X-H torsion
[ 10763 10752 10751 10750 ] final  -72.71 input  -60.55 | X-H torsion
[ 11005 11000 10999 10996 ] final -145.77 input  -57.11 | X-H torsion

> <Gold.Protein.ActiveResidues>
 VAL166  LYS551  ARG553  GLY616  TRP617  ASP618  TYR619  PRO620  LYS621  CYS622 
 ASP623  PHE694  ASN695  SER759  ASP760  ASP761  ALA762  ILE779  LEU786  VAL792 
 PHE793  MET794  SER795  GLU796  ALA797  LYS798  CYS799  TRP800  GLU811  SER814 

> <Gold.Protein.RotatedAtoms>
  152.5232  133.9537  159.7683 H   0  0  0  0  0  0  0  0  0  0  0  0  # atno 6907 bound_to 6896
  150.9842  133.6207  159.2725 H   0  0  0  0  0  0  0  0  0  0  0  0  # atno 6908 bound_to 6896
  151.3373  135.0861  159.9412 H   0  0  0  0  0  0  0  0  0  0  0  0  # atno 6909 bound_to 6896
  144.7837  139.7500  143.6249 H   0  0  0  0  0  0  0  0  0  0  0  0  # atno 7974 bound_to 7965
  156.2568  140.2865  156.0904 H   0  0  0  0  0  0  0  0  0  0  0  0  # atno 8008 bound_to 7997
  155.1470  140.0396  157.2829 H   0  0  0  0  0  0  0  0  0  0  0  0  # atno 8009 bound_to 7997
  154.6488  140.2540  155.7243 H   0  0  0  0  0  0  0  0  0  0  0  0  # atno 8010 bound_to 7997
  139.5591  144.1915  152.1208 H   0  0  0  0  0  0  0  0  0  0  0  0  # atno 10167 bound_to 10162
  156.6999  130.9192  151.3078 H   0  0  0  0  0  0  0  0  0  0  0  0  # atno 10718 bound_to 10713
  154.4495  135.5921  153.6182 H   0  0  0  0  0  0  0  0  0  0  0  0  # atno 10763 bound_to 10752
  152.9812  135.6017  154.3622 H   0  0  0  0  0  0  0  0  0  0  0  0  # atno 10764 bound_to 10752
  154.3482  135.2841  155.2365 H   0  0  0  0  0  0  0  0  0  0  0  0  # atno 10765 bound_to 10752
  140.7888  134.2993  157.5020 H   0  0  0  0  0  0  0  0  0  0  0  0  # atno 11005 bound_to 11000
  146.2058  139.5382  142.9713 LP  0  0  0  0  0  0  0  0  0  0  0  0  # atno 17320 bound_to 7965
  145.5980  141.0359  143.2034 LP  0  0  0  0  0  0  0  0  0  0  0  0  # atno 17321 bound_to 7965
  140.1425  144.5189  150.6735 LP  0  0  0  0  0  0  0  0  0  0  0  0  # atno 17342 bound_to 10162
  140.6868  143.2354  151.5239 LP  0  0  0  0  0  0  0  0  0  0  0  0  # atno 17343 bound_to 10162
  157.6977  130.9299  150.0693 LP  0  0  0  0  0  0  0  0  0  0  0  0  # atno 17370 bound_to 10713
  156.1736  130.3647  149.9130 LP  0  0  0  0  0  0  0  0  0  0  0  0  # atno 17371 bound_to 10713
  139.8733  134.9362  156.3655 LP  0  0  0  0  0  0  0  0  0  0  0  0  # atno 17394 bound_to 11000
  140.9410  133.7515  156.0146 LP  0  0  0  0  0  0  0  0  0  0  0  0  # atno 17395 bound_to 11000

$$$$
