AV-unprocessed.smi:37|AV-procd|sdf|330|dock8
  -GOLD-   2262016163D 1   1.00000     0.00000
 Structure written by MMmdl.
 43 44  0  0  0  0  0  0  0  0  2 V2000
  151.4047  144.4098  158.7000 C   0  0  0  0  0  0  0  0  0  0  0  0
  151.7394  144.2099  160.1844 C   0  0  0  0  0  0  0  0  0  0  0  0
  151.7409  142.7352  160.5797 C   0  0  0  0  0  0  0  0  0  0  0  0
  151.0571  142.3196  161.5153 O   0  0  0  0  0  0  0  0  0  0  0  0
  152.5511  141.9968  159.8081 O   0  0  0  0  0  0  0  0  0  0  0  0
  152.5778  140.5878  159.9565 C   0  0  0  0  0  0  0  0  0  0  0  0
  151.8265  139.9100  158.8020 C   0  0  1  0  0  0  0  0  0  0  0  0
  152.5807  140.0230  157.5933 O   0  0  0  0  0  0  0  0  0  0  0  0
  152.4679  138.8496  156.8432 C   0  0  2  0  0  0  0  0  0  0  0  0
  151.2655  138.9269  155.9112 N   0  0  0  0  0  0  0  0  0  0  0  0
  150.5510  140.1029  155.7362 C   0  0  0  0  0  0  0  0  0  0  0  0
  149.4901  140.1650  154.9059 C   0  0  0  0  0  0  0  0  0  0  0  0
  148.8180  141.3203  154.7642 F   0  0  0  0  0  0  0  0  0  0  0  0
  149.0862  138.9766  154.1591 C   0  0  0  0  0  0  0  0  0  0  0  0
  148.0951  139.0276  153.4327 O   0  0  0  0  0  0  0  0  0  0  0  0
  149.8413  137.8500  154.3007 N   0  5  0  0  0  0  0  0  0  0  0  0
  150.9266  137.7886  155.1262 C   0  0  0  0  0  0  0  0  0  0  0  0
  151.6377  136.7884  155.2209 O   0  0  0  0  0  0  0  0  0  0  0  0
  152.3048  137.7307  157.8827 C   0  0  1  0  0  0  0  0  0  0  0  0
  154.1007  137.1756  158.5406 Br  0  0  0  0  0  0  0  0  0  0  0  0
  151.5316  138.4136  159.0067 C   0  0  2  0  0  0  0  0  0  0  0  0
  150.1344  138.2049  158.8304 O   0  0  0  0  0  0  0  0  0  0  0  0
  149.6350  136.9610  158.7185 C   0  0  0  0  0  0  0  0  0  0  0  0
  150.2924  135.9233  158.6385 O   0  0  0  0  0  0  0  0  0  0  0  0
  148.1085  136.9410  158.6919 C   0  0  0  0  0  0  0  0  0  0  0  0
  147.5209  136.0698  159.8116 C   0  0  0  0  0  0  0  0  0  0  0  0
  151.4038  145.4700  158.4471 H   0  0  0  0  0  0  0  0  0  0  0  0
  150.4186  144.0116  158.4588 H   0  0  0  0  0  0  0  0  0  0  0  0
  152.1330  143.9182  158.0538 H   0  0  0  0  0  0  0  0  0  0  0  0
  152.7195  144.6332  160.4056 H   0  0  0  0  0  0  0  0  0  0  0  0
  151.0172  144.7427  160.8033 H   0  0  0  0  0  0  0  0  0  0  0  0
  153.6139  140.2473  159.9742 H   0  0  0  0  0  0  0  0  0  0  0  0
  152.1257  140.3054  160.9084 H   0  0  0  0  0  0  0  0  0  0  0  0
  150.8899  140.4519  158.6677 H   0  0  0  0  0  0  0  0  0  0  0  0
  153.3224  138.7225  156.1767 H   0  0  0  0  0  0  0  0  0  0  0  0
  150.8356  141.0039  156.2554 H   0  0  0  0  0  0  0  0  0  0  0  0
  151.8187  136.8391  157.4888 H   0  0  0  0  0  0  0  0  0  0  0  0
  151.8444  138.0629  159.9914 H   0  0  0  0  0  0  0  0  0  0  0  0
  147.7457  137.9642  158.7939 H   0  0  0  0  0  0  0  0  0  0  0  0
  147.7728  136.5811  157.7192 H   0  0  0  0  0  0  0  0  0  0  0  0
  146.4355  136.1616  159.8415 H   0  0  0  0  0  0  0  0  0  0  0  0
  147.9046  136.3618  160.7901 H   0  0  0  0  0  0  0  0  0  0  0  0
  147.7563  135.0161  159.6604 H   0  0  0  0  0  0  0  0  0  0  0  0
  1  2  1  0  0  0  0
  1 27  1  0  0  0  0
  1 28  1  0  0  0  0
  1 29  1  0  0  0  0
  2  3  1  0  0  0  0
  2 30  1  0  0  0  0
  2 31  1  0  0  0  0
  3  4  2  0  0  0  0
  3  5  1  0  0  0  0
  5  6  1  0  0  0  0
  6  7  1  0  0  0  0
  6 32  1  0  0  0  0
  6 33  1  0  0  0  0
  7 21  1  0  0  0  0
  7  8  1  0  0  0  0
  7 34  1  0  0  0  0
  8  9  1  0  0  0  0
  9 10  1  0  0  0  0
  9 19  1  0  0  0  0
  9 35  1  0  0  0  0
 10 17  1  0  0  0  0
 10 11  1  0  0  0  0
 11 12  2  0  0  0  0
 11 36  1  0  0  0  0
 12 13  1  0  0  0  0
 12 14  1  0  0  0  0
 14 15  2  0  0  0  0
 14 16  1  0  0  0  0
 16 17  1  0  0  0  0
 17 18  2  0  0  0  0
 19 20  1  0  0  0  0
 19 21  1  0  0  0  0
 19 37  1  0  0  0  0
 21 22  1  0  0  0  0
 21 38  1  0  0  0  0
 22 23  1  0  0  0  0
 23 24  2  0  0  0  0
 23 25  1  0  0  0  0
 25 26  1  0  0  0  0
 25 39  1  0  0  0  0
 25 40  1  0  0  0  0
 26 41  1  0  0  0  0
 26 42  1  0  0  0  0
 26 43  1  0  0  0  0
M  CHG  1  16  -1
M  END
> <s_m_source_file>
AV-unprocessed.smi

> <i_m_source_file_index>
37

> <i_lp_mmshare_version>
43012

> <i_f3d_flags>
0

> <s_epik_input>
W0NIM11bQ0gyXUMoPU8pT1tDSDJdW0NAQEhdMU9bQ0BASF0objJbY0hdYyhGKWMoPU8pW25IXWMyPU8pW0NAQEhdKEJyKVtDQEhdMU9DKD1PKVtDSDJdW0NIM10=

> <s_epik_cmdline>
J2VwaWtfcHl0aG9uJywgJy1waCcsICc3LjAnLCAnLXRuJywgJzgnLCAnLW1hJywgJzIwMCcsICctbWV0YWxfYmluZGluZycsICctaW1hZScsICc8aW5maWxlLm1hZT4nLCAnLW9tYWUnLCAnPG91dGZpbGUubWFlPic=

> <r_epik_Ionization_Penalty>
1.08158

> <r_epik_Ionization_Penalty_Charging>
9.05154e-09

> <r_epik_Ionization_Penalty_Neutral>
1.08158

> <r_epik_State_Penalty>
1.13706

> <r_epik_Charging_Adjusted_Penalty>
1.13706

> <i_epik_Tot_Q>
-1

> <i_epik_Tot_abs_Q>
1

> <r_epik_Metal_State_Penalty>
0.00343535

> <b_epik_Metal_Only>
0

> <s_epik_Chemistry_Notes>
This compound has an ester and may undergo hydrolysis at high or low pH. This compound contains an acetal/aminal-like group ( X-CH(R)-Y where X, Y are N, S, or O) that may be acid/base labile, releasing an aldehyde.

> <s_lp_Force_Field>
OPLS_2005

> <r_lp_Energy>
28.0261

> <b_lp_Chiralities_Consistent>
1

> <s_lp_Variant>
AV-unprocessed.smi:37-28

> <Gold.Version>
5.8.1

> <Gold.Id.Protein>
6NUR|6NUR_protein|mol2

> <Gold.PLP.Fitness>
52.7775

> <Gold.PLP.PLP>
-44.1407

> <Gold.PLP.part.hbond>
-4.2052

> <Gold.PLP.part.metal>
0.0000

> <Gold.PLP.part.buried>
-7.8324

> <Gold.PLP.part.nonpolar>
-34.3628

> <Gold.PLP.part.repulsive>
2.1585

> <Gold.PLP.ligand.clash>
0.0000

> <Gold.PLP.ligand.torsion>
0.6057

> <Gold.PLP.Chemscore.Hbond>
3.2368

> <Gold.PLP.Chemscore.CHOScore>
0.0000

> <Gold.PLP.Chemscore.Metal>
0.0000

> <Gold.Chemscore.Hbonds>
donor molecule, donor type, donor heavy atom, donor atom, acceptor molecule, acceptor atom, score
      P1  H  6896  6909       L1    24  0.88
      P1  H  6933  6945       L1     4  0.23
      P1  H  7997  8009       L1     8  0.28
      P1  H 10752 10764       L1    18  1.00

> <Gold.PLP.Chemscore.Internal.Correction>
0.1379

> <Gold.Rescore>
     Score         DG    S(hbond)    S(metal)    S(lipo)     H(rot)  DE(clash)    DE(int)     intcor
     11.76     -14.61       2.78        0.00      70.21       3.27       0.87       1.98       ----

> <Gold.Chemscore.Fitness>
11.7625

> <Gold.Chemscore.DG>
-14.6133

> <Gold.Chemscore.ZeroCoef>
-5.4800

> <Gold.Chemscore.Hbond>
2.7792

> <Gold.Chemscore.Metal>
0.0000

> <Gold.Chemscore.Lipo>
70.2064

> <Gold.Chemscore.Internal_Hbond>
0.0000

> <Gold.Chemscore.DEClash>
0.8713

> <Gold.Chemscore.DEInternal>
1.9796

> <Gold.Chemscore.Rot>
3.2669

> <Gold.Chemscore.Internal.Correction>
   9.000000E+99

> <Gold.Chemscore.Hbonds>
donor molecule, donor type, donor heavy atom, donor atom, acceptor molecule, acceptor atom, score
      P1  H  6896  6909       L1    24  0.86
      P1  H  6933  6945       L1     4  0.22
      P1  H 10752 10764       L1    18  0.98

> <Gold.Chemscore.Hbond.Weighted>
-9.2825

> <Gold.Chemscore.Metal.Weighted>
-0.0000

> <Gold.Chemscore.Lipo.Weighted>
-8.2142

> <Gold.Chemscore.Internal_Hbond.Weighted>
0.0000

> <Gold.Chemscore.DEClash.Weighted>
0.8713

> <Gold.Chemscore.DEInternal.Weighted>
1.9796

> <Gold.Chemscore.Rot.Weighted>
8.3634

> <Gold.Chemscore.Internal.Correction.Weighted>
   9.000000E+99

> <Gold.Protein.RotatedTorsions>
[ 6907 6896 6895 6894 ] final   83.83 input  -60.11 | X-H torsion
[ 7974 7965 7964 7962 ] final  -95.38 input  175.53 | X-H torsion
[ 8008 7997 7996 7995 ] final  159.03 input   59.86 | X-H torsion
[ 10167 10162 10161 10158 ] final  112.83 input  -65.29 | X-H torsion
[ 10718 10713 10712 10709 ] final  -30.51 input   66.30 | X-H torsion
[ 10763 10752 10751 10750 ] final  -68.95 input  -60.55 | X-H torsion
[ 11005 11000 10999 10996 ] final   71.31 input  -57.11 | X-H torsion

> <Gold.Protein.ActiveResidues>
 VAL166  LYS551  ARG553  GLY616  TRP617  ASP618  TYR619  PRO620  LYS621  CYS622 
 ASP623  PHE694  ASN695  SER759  ASP760  ASP761  ALA762  ILE779  LEU786  VAL792 
 PHE793  MET794  SER795  GLU796  ALA797  LYS798  CYS799  TRP800  GLU811  SER814 

> <Gold.Protein.RotatedAtoms>
  152.5337  134.2834  159.9015 H   0  0  0  0  0  0  0  0  0  0  0  0  # atno 6907 bound_to 6896
  151.2788  133.4213  159.2633 H   0  0  0  0  0  0  0  0  0  0  0  0  # atno 6908 bound_to 6896
  151.0302  134.9549  159.8164 H   0  0  0  0  0  0  0  0  0  0  0  0  # atno 6909 bound_to 6896
  145.3608  140.9491  143.2502 H   0  0  0  0  0  0  0  0  0  0  0  0  # atno 7974 bound_to 7965
  156.2265  140.1842  156.7349 H   0  0  0  0  0  0  0  0  0  0  0  0  # atno 8008 bound_to 7997
  154.5950  140.0645  156.9319 H   0  0  0  0  0  0  0  0  0  0  0  0  # atno 8009 bound_to 7997
  155.2271  140.3312  155.4310 H   0  0  0  0  0  0  0  0  0  0  0  0  # atno 8010 bound_to 7997
  139.6507  144.7128  151.2055 H   0  0  0  0  0  0  0  0  0  0  0  0  # atno 10167 bound_to 10162
  156.3989  130.4386  149.7337 H   0  0  0  0  0  0  0  0  0  0  0  0  # atno 10718 bound_to 10713
  154.3964  135.6041  153.5872 H   0  0  0  0  0  0  0  0  0  0  0  0  # atno 10763 bound_to 10752
  152.9788  135.5896  154.4236 H   0  0  0  0  0  0  0  0  0  0  0  0  # atno 10764 bound_to 10752
  154.4028  135.2843  155.2064 H   0  0  0  0  0  0  0  0  0  0  0  0  # atno 10765 bound_to 10752
  139.9550  134.7159  156.0773 H   0  0  0  0  0  0  0  0  0  0  0  0  # atno 11005 bound_to 11000
  144.8648  139.5124  143.6795 LP  0  0  0  0  0  0  0  0  0  0  0  0  # atno 17320 bound_to 7965
  146.2928  139.7189  142.9148 LP  0  0  0  0  0  0  0  0  0  0  0  0  # atno 17321 bound_to 7965
  140.7536  143.6156  150.8563 LP  0  0  0  0  0  0  0  0  0  0  0  0  # atno 17342 bound_to 10162
  139.9803  143.5958  152.2945 LP  0  0  0  0  0  0  0  0  0  0  0  0  # atno 17343 bound_to 10162
  156.4361  130.7838  151.2859 LP  0  0  0  0  0  0  0  0  0  0  0  0  # atno 17370 bound_to 10713
  157.7503  131.0139  150.3443 LP  0  0  0  0  0  0  0  0  0  0  0  0  # atno 17371 bound_to 10713
  141.1220  133.6610  156.3240 LP  0  0  0  0  0  0  0  0  0  0  0  0  # atno 17394 bound_to 11000
  140.5629  134.5916  157.5438 LP  0  0  0  0  0  0  0  0  0  0  0  0  # atno 17395 bound_to 11000

$$$$
