AV-unprocessed.smi:3228|AV-procd|sdf|12323|dock6
  -GOLD-   2272018173D 1   1.00000     0.00000
 Structure written by MMmdl.
 30 31  0  0  0  0  0  0  0  0  2 V2000
  151.9191  139.9573  154.7413 O   0  0  0  0  0  0  0  0  0  0  0  0
  151.6997  139.7622  155.9390 C   0  0  0  0  0  0  0  0  0  0  0  0
  150.5506  139.1899  156.3215 N   0  0  0  0  0  0  0  0  0  0  0  0
  149.4887  138.7532  155.4231 C   0  0  0  0  0  0  0  0  0  0  0  0
  149.0718  139.8868  154.4694 C   0  0  2  0  0  0  0  0  0  0  0  0
  148.7493  141.2132  155.1778 C   0  0  0  0  0  0  0  0  0  0  0  0
  147.7027  141.9292  154.3090 C   0  0  0  0  0  0  0  0  0  0  0  0
  147.3493  140.9621  153.1732 C   0  0  0  0  0  0  0  0  0  0  0  0
  147.7998  139.5878  153.6697 C   0  0  1  0  0  0  0  0  0  0  0  0
  148.0359  138.7031  152.5938 O   0  0  0  0  0  0  0  0  0  0  0  0
  152.5229  140.0715  156.9668 N   0  5  0  0  0  0  0  0  0  0  0  0
  152.2605  141.1372  157.7408 C   0  0  0  0  0  0  0  0  0  0  0  0
  152.9150  141.3901  158.8803 N   0  0  0  0  0  0  0  0  0  0  0  0
  152.4860  142.5544  159.5202 C   0  0  0  0  0  0  0  0  0  0  0  0
  151.4881  143.2084  158.8474 C   0  0  0  0  0  0  0  0  0  0  0  0
  151.0545  142.3762  157.3812 S   0  0  0  0  0  0  0  0  0  0  0  0
  150.4060  139.0467  157.3101 H   0  0  0  0  0  0  0  0  0  0  0  0
  149.8396  137.8940  154.8497 H   0  0  0  0  0  0  0  0  0  0  0  0
  148.6307  138.4185  156.0086 H   0  0  0  0  0  0  0  0  0  0  0  0
  149.8841  140.0740  153.7641 H   0  0  0  0  0  0  0  0  0  0  0  0
  148.3267  141.0224  156.1654 H   0  0  0  0  0  0  0  0  0  0  0  0
  149.6446  141.8192  155.3221 H   0  0  0  0  0  0  0  0  0  0  0  0
  146.8183  142.1570  154.9051 H   0  0  0  0  0  0  0  0  0  0  0  0
  148.0821  142.8728  153.9156 H   0  0  0  0  0  0  0  0  0  0  0  0
  146.2902  140.9868  152.9144 H   0  0  0  0  0  0  0  0  0  0  0  0
  147.9133  141.2401  152.2814 H   0  0  0  0  0  0  0  0  0  0  0  0
  147.0348  139.1662  154.3240 H   0  0  0  0  0  0  0  0  0  0  0  0
  148.6080  139.1304  151.9749 H   0  0  0  0  0  0  0  0  0  0  0  0
  152.9483  142.8433  160.4522 H   0  0  0  0  0  0  0  0  0  0  0  0
  150.9855  144.1236  159.1212 H   0  0  0  0  0  0  0  0  0  0  0  0
  1  2  2  0  0  0  0
  2  3  1  0  0  0  0
  2 11  1  0  0  0  0
  3  4  1  0  0  0  0
  3 17  1  0  0  0  0
  4  5  1  0  0  0  0
  4 18  1  0  0  0  0
  4 19  1  0  0  0  0
  5  9  1  0  0  0  0
  5  6  1  0  0  0  0
  5 20  1  0  0  0  0
  6  7  1  0  0  0  0
  6 21  1  0  0  0  0
  6 22  1  0  0  0  0
  7  8  1  0  0  0  0
  7 23  1  0  0  0  0
  7 24  1  0  0  0  0
  8  9  1  0  0  0  0
  8 25  1  0  0  0  0
  8 26  1  0  0  0  0
  9 10  1  0  0  0  0
  9 27  1  0  0  0  0
 10 28  1  0  0  0  0
 11 12  1  0  0  0  0
 12 16  1  0  0  0  0
 12 13  2  0  0  0  0
 13 14  1  0  0  0  0
 14 15  2  0  0  0  0
 14 29  1  0  0  0  0
 15 16  1  0  0  0  0
 15 30  1  0  0  0  0
M  CHG  1  11  -1
M  END
> <s_m_source_file>
AV-unprocessed.smi

> <i_m_source_file_index>
3228

> <i_lp_mmshare_version>
43012

> <i_f3d_flags>
0

> <s_epik_input>
czFbY0hdW2NIXW5jMVtOSF1DKD1PKVtOSF1bQ0gyXVtDQEBIXTJbQ0gyXVtDSDJdW0NIMl1bQ0BIXTJbT0hd

> <s_epik_cmdline>
J2VwaWtfcHl0aG9uJywgJy1waCcsICc3LjAnLCAnLXRuJywgJzgnLCAnLW1hJywgJzIwMCcsICctbWV0YWxfYmluZGluZycsICctaW1hZScsICc8aW5maWxlLm1hZT4nLCAnLW9tYWUnLCAnPG91dGZpbGUubWFlPic=

> <r_lp_tautomer_probability>
0.999

> <r_epik_Ionization_Penalty>
8.49756

> <r_epik_Ionization_Penalty_Charging>
6.79645

> <r_epik_Ionization_Penalty_Neutral>
1.70111

> <r_epik_State_Penalty>
6.79662

> <r_epik_Charging_Adjusted_Penalty>
13.5931

> <i_epik_Tot_Q>
-1

> <i_epik_Tot_abs_Q>
1

> <r_epik_Metal_State_Penalty>
2.71629

> <b_epik_Metal_Only>
1

> <s_lp_Force_Field>
OPLS_2005

> <r_lp_Energy>
18.1026

> <b_lp_Chiralities_Consistent>
1

> <s_lp_Variant>
AV-unprocessed.smi:3228-5

> <Gold.Version>
5.8.1

> <Gold.Id.Protein>
6NUR|6NUR_protein|mol2

> <Gold.PLP.Fitness>
39.8886

> <Gold.PLP.PLP>
-29.5145

> <Gold.PLP.part.hbond>
-3.9505

> <Gold.PLP.part.metal>
0.0000

> <Gold.PLP.part.buried>
-4.3379

> <Gold.PLP.part.nonpolar>
-21.0786

> <Gold.PLP.part.repulsive>
0.0859

> <Gold.PLP.ligand.clash>
0.0000

> <Gold.PLP.ligand.torsion>
0.8052

> <Gold.PLP.Chemscore.Hbond>
3.9920

> <Gold.PLP.Chemscore.CHOScore>
0.0000

> <Gold.PLP.Chemscore.Metal>
0.0000

> <Gold.Chemscore.Hbonds>
donor molecule, donor type, donor heavy atom, donor atom, acceptor molecule, acceptor atom, score
      L1  H    10    28       P1  7957  1.00
      P1  H  7989  7998       L1     1  0.91
      P1  H  7997  8008       L1    11  2.00

> <Gold.PLP.Chemscore.Internal.Correction>
0.0085

> <Gold.Rescore>
     Score         DG    S(hbond)    S(metal)    S(lipo)     H(rot)  DE(clash)    DE(int)     intcor
     14.60     -16.60       2.70        0.00      58.39       1.85       0.00       1.99       ----

> <Gold.Chemscore.Fitness>
14.6005

> <Gold.Chemscore.DG>
-16.5985

> <Gold.Chemscore.ZeroCoef>
-5.4800

> <Gold.Chemscore.Hbond>
2.7001

> <Gold.Chemscore.Metal>
0.0000

> <Gold.Chemscore.Lipo>
58.3882

> <Gold.Chemscore.Internal_Hbond>
0.0000

> <Gold.Chemscore.DEClash>
0.0038

> <Gold.Chemscore.DEInternal>
1.9941

> <Gold.Chemscore.Rot>
1.8481

> <Gold.Chemscore.Internal.Correction>
   9.000000E+99

> <Gold.Chemscore.Hbonds>
donor molecule, donor type, donor heavy atom, donor atom, acceptor molecule, acceptor atom, score
      L1  H    10    28       P1  7957  0.94
      P1  H  7989  7998       L1     1  0.84
      P1  H  7997  8008       L1    11  0.56

> <Gold.Chemscore.Hbond.Weighted>
-9.0183

> <Gold.Chemscore.Metal.Weighted>
-0.0000

> <Gold.Chemscore.Lipo.Weighted>
-6.8314

> <Gold.Chemscore.Internal_Hbond.Weighted>
0.0000

> <Gold.Chemscore.DEClash.Weighted>
0.0038

> <Gold.Chemscore.DEInternal.Weighted>
1.9941

> <Gold.Chemscore.Rot.Weighted>
4.7313

> <Gold.Chemscore.Internal.Correction.Weighted>
   9.000000E+99

> <Gold.Protein.RotatedTorsions>
[ 6907 6896 6895 6894 ] final  -45.77 input  -60.11 | X-H torsion
[ 7974 7965 7964 7962 ] final  -44.16 input  175.53 | X-H torsion
[ 8008 7997 7996 7995 ] final  -57.78 input   59.86 | X-H torsion
[ 10167 10162 10161 10158 ] final  -25.37 input  -65.29 | X-H torsion
[ 10718 10713 10712 10709 ] final  -17.72 input   66.30 | X-H torsion
[ 10763 10752 10751 10750 ] final   87.18 input  -60.55 | X-H torsion
[ 11005 11000 10999 10996 ] final -139.79 input  -57.11 | X-H torsion

> <Gold.Protein.ActiveResidues>
 VAL166  LYS551  ARG553  GLY616  TRP617  ASP618  TYR619  PRO620  LYS621  CYS622 
 ASP623  PHE694  ASN695  SER759  ASP760  ASP761  ALA762  ILE779  LEU786  VAL792 
 PHE793  MET794  SER795  GLU796  ALA797  LYS798  CYS799  TRP800  GLU811  SER814 

> <Gold.Protein.RotatedAtoms>
  150.9184  134.8601  159.7471 H   0  0  0  0  0  0  0  0  0  0  0  0  # atno 6907 bound_to 6896
  152.4980  134.4255  159.9505 H   0  0  0  0  0  0  0  0  0  0  0  0  # atno 6908 bound_to 6896
  151.4291  133.3636  159.2801 H   0  0  0  0  0  0  0  0  0  0  0  0  # atno 6909 bound_to 6896
  145.9948  140.7140  142.9299 H   0  0  0  0  0  0  0  0  0  0  0  0  # atno 7974 bound_to 7965
  154.4282  140.1099  156.5852 H   0  0  0  0  0  0  0  0  0  0  0  0  # atno 8008 bound_to 7997
  155.6070  140.3494  155.4592 H   0  0  0  0  0  0  0  0  0  0  0  0  # atno 8009 bound_to 7997
  156.0129  140.1223  157.0425 H   0  0  0  0  0  0  0  0  0  0  0  0  # atno 8010 bound_to 7997
  140.7286  143.4271  151.0860 H   0  0  0  0  0  0  0  0  0  0  0  0  # atno 10167 bound_to 10162
  156.5695  130.4746  149.6369 H   0  0  0  0  0  0  0  0  0  0  0  0  # atno 10718 bound_to 10713
  153.1643  135.4553  154.9815 H   0  0  0  0  0  0  0  0  0  0  0  0  # atno 10763 bound_to 10752
  154.7920  135.3224  154.7757 H   0  0  0  0  0  0  0  0  0  0  0  0  # atno 10764 bound_to 10752
  153.8242  135.6944  153.4877 H   0  0  0  0  0  0  0  0  0  0  0  0  # atno 10765 bound_to 10752
  140.8485  134.2314  157.4773 H   0  0  0  0  0  0  0  0  0  0  0  0  # atno 11005 bound_to 11000
  144.6900  140.3132  143.7244 LP  0  0  0  0  0  0  0  0  0  0  0  0  # atno 17320 bound_to 7965
  145.7576  139.1814  143.2286 LP  0  0  0  0  0  0  0  0  0  0  0  0  # atno 17321 bound_to 7965
  139.7924  143.8200  152.3153 LP  0  0  0  0  0  0  0  0  0  0  0  0  # atno 17342 bound_to 10162
  139.8188  144.7304  150.9599 LP  0  0  0  0  0  0  0  0  0  0  0  0  # atno 17343 bound_to 10162
  156.2727  130.7026  151.1828 LP  0  0  0  0  0  0  0  0  0  0  0  0  # atno 17370 bound_to 10713
  157.7351  131.0575  150.5487 LP  0  0  0  0  0  0  0  0  0  0  0  0  # atno 17371 bound_to 10713
  139.8704  134.9671  156.4587 LP  0  0  0  0  0  0  0  0  0  0  0  0  # atno 17394 bound_to 11000
  140.8816  133.7913  155.9473 LP  0  0  0  0  0  0  0  0  0  0  0  0  # atno 17395 bound_to 11000

$$$$
