AV-unprocessed.smi:658|AV-procd|sdf|3237|dock3
  -GOLD-   22720 0183D 1   1.00000     0.00000
 Structure written by MMmdl.
 37 37  0  0  0  0  0  0  0  0  3 V2000
  144.0365  136.5468  152.0334 C   0  0  0  0  0  0  0  0  0  0  0  0
  145.4888  136.1313  151.7277 C   0  0  1  0  0  0  0  0  0  0  0  0
  146.4502  137.0546  152.3756 N   0  3  0  0  0  0  0  0  0  0  0  0
  146.4988  138.4203  151.8157 C   0  0  0  0  0  0  0  0  0  0  0  0
  146.9800  139.4198  152.8724 C   0  0  0  0  0  0  0  0  0  0  0  0
  148.0906  138.8434  153.7616 C   0  0  0  0  0  0  0  0  0  0  0  0
  149.3177  140.1348  154.2411 S   0  0  0  0  0  0  0  0  0  0  0  0
  149.1639  141.1662  153.0095 N   0  5  0  0  0  0  0  0  0  0  0  0
  148.8450  140.7119  155.5087 O   0  0  0  0  0  0  0  0  0  0  0  0
  150.6247  139.4609  154.2392 O   0  0  0  0  0  0  0  0  0  0  0  0
  145.7759  134.6607  152.1292 C   0  0  1  0  0  0  0  0  0  0  0  0
  145.4944  134.3774  153.6159 C   0  0  0  0  0  0  0  0  0  0  0  0
  145.1070  133.6928  151.2638 N   0  0  0  0  0  0  0  0  0  0  0  0
  145.6485  132.6401  150.5505 C   0  0  0  0  0  0  0  0  0  0  0  0
  144.6220  132.0041  149.9141 C   0  0  0  0  0  0  0  0  0  0  0  0
  143.4720  132.7432  150.3060 C   0  0  0  0  0  0  0  0  0  0  0  0
  143.7645  133.7474  151.1161 N   0  0  0  0  0  0  0  0  0  0  0  0
  143.3299  135.8335  151.6086 H   0  0  0  0  0  0  0  0  0  0  0  0
  143.7974  137.5216  151.6093 H   0  0  0  0  0  0  0  0  0  0  0  0
  143.8493  136.5985  153.1064 H   0  0  0  0  0  0  0  0  0  0  0  0
  145.6363  136.2020  150.6489 H   0  0  0  0  0  0  0  0  0  0  0  0
  146.2382  137.1089  153.3617 H   0  0  0  0  0  0  0  0  0  0  0  0
  147.1712  138.4363  150.9570 H   0  0  0  0  0  0  0  0  0  0  0  0
  145.5104  138.7115  151.4610 H   0  0  0  0  0  0  0  0  0  0  0  0
  147.3442  140.3214  152.3780 H   0  0  0  0  0  0  0  0  0  0  0  0
  146.1370  139.7256  153.4930 H   0  0  0  0  0  0  0  0  0  0  0  0
  147.6600  138.4465  154.6809 H   0  0  0  0  0  0  0  0  0  0  0  0
  148.6233  138.0278  153.2718 H   0  0  0  0  0  0  0  0  0  0  0  0
  148.1706  141.4124  152.9206 H   0  0  0  0  0  0  0  0  0  0  0  0
  146.8491  134.5063  152.0009 H   0  0  0  0  0  0  0  0  0  0  0  0
  146.0705  135.0457  154.2562 H   0  0  0  0  0  0  0  0  0  0  0  0
  145.7723  133.3556  153.8770 H   0  0  0  0  0  0  0  0  0  0  0  0
  144.4414  134.5074  153.8667 H   0  0  0  0  0  0  0  0  0  0  0  0
  146.7079  132.4303  150.5525 H   0  0  0  0  0  0  0  0  0  0  0  0
  144.6828  131.1408  149.2679 H   0  0  0  0  0  0  0  0  0  0  0  0
  142.4405  132.5797  150.0306 H   0  0  0  0  0  0  0  0  0  0  0  0
  147.3729  136.6579  152.2690 H   0  0  0  0  0  0  0  0  0  0  0  0
  1  2  1  0  0  0  0
  1 18  1  0  0  0  0
  1 19  1  0  0  0  0
  1 20  1  0  0  0  0
  2  3  1  0  0  0  0
  2 11  1  0  0  0  0
  2 21  1  0  0  0  0
  3  4  1  0  0  0  0
  3 22  1  0  0  0  0
  3 37  1  0  0  0  0
  4  5  1  0  0  0  0
  4 23  1  0  0  0  0
  4 24  1  0  0  0  0
  5  6  1  0  0  0  0
  5 25  1  0  0  0  0
  5 26  1  0  0  0  0
  6  7  1  0  0  0  0
  6 27  1  0  0  0  0
  6 28  1  0  0  0  0
  7  8  1  0  0  0  0
  7  9  2  0  0  0  0
  7 10  2  0  0  0  0
  8 29  1  0  0  0  0
 11 12  1  0  0  0  0
 11 13  1  0  0  0  0
 11 30  1  0  0  0  0
 12 31  1  0  0  0  0
 12 32  1  0  0  0  0
 12 33  1  0  0  0  0
 13 17  1  0  0  0  0
 13 14  1  0  0  0  0
 14 15  2  0  0  0  0
 14 34  1  0  0  0  0
 15 16  1  0  0  0  0
 15 35  1  0  0  0  0
 16 17  2  0  0  0  0
 16 36  1  0  0  0  0
M  CHG  1   3   1
M  CHG  1   8  -1
M  END
> <s_m_source_file>
AV-unprocessed.smi

> <i_m_source_file_index>
658

> <i_lp_mmshare_version>
43012

> <i_f3d_flags>
0

> <s_epik_input>
bjFbY0hdW2NIXVtjSF1uMVtDQEBIXShbQ0gzXSlbQ0BIXShbQ0gzXSlbTkhdW0NIMl1bQ0gyXVtDSDJdUyg9TykoPU8pW05IMl0=

> <s_epik_cmdline>
J2VwaWtfcHl0aG9uJywgJy1waCcsICc3LjAnLCAnLXRuJywgJzgnLCAnLW1hJywgJzIwMCcsICctbWV0YWxfYmluZGluZycsICctaW1hZScsICc8aW5maWxlLm1hZT4nLCAnLW9tYWUnLCAnPG91dGZpbGUubWFlPic=

> <r_lp_tautomer_probability>
1

> <r_epik_Ionization_Penalty>
4.63642

> <r_epik_Ionization_Penalty_Charging>
4.63641

> <r_epik_Ionization_Penalty_Neutral>
1.08396e-05

> <r_epik_State_Penalty>
4.63466

> <r_epik_Charging_Adjusted_Penalty>
9.27106

> <i_epik_Tot_Q>
0

> <i_epik_Tot_abs_Q>
2

> <r_epik_Metal_State_Penalty>
0.890424

> <b_epik_Metal_Only>
1

> <s_lp_Force_Field>
OPLS_2005

> <r_lp_Energy>
1.41706

> <b_lp_Chiralities_Consistent>
1

> <s_lp_Variant>
AV-unprocessed.smi:658-8

> <Gold.Version>
5.8.1

> <Gold.Id.Protein>
6NUR|6NUR_protein|mol2

> <Gold.PLP.Fitness>
48.1218

> <Gold.PLP.PLP>
-33.1891

> <Gold.PLP.part.hbond>
-4.5856

> <Gold.PLP.part.metal>
0.0000

> <Gold.PLP.part.buried>
-3.5741

> <Gold.PLP.part.nonpolar>
-26.9115

> <Gold.PLP.part.repulsive>
0.4137

> <Gold.PLP.ligand.clash>
0.0000

> <Gold.PLP.ligand.torsion>
1.3686

> <Gold.PLP.Chemscore.Hbond>
4.0000

> <Gold.PLP.Chemscore.CHOScore>
1.8044

> <Gold.PLP.Chemscore.Metal>
0.0000

> <Gold.Chemscore.Hbonds>
donor molecule, donor type, donor heavy atom, donor atom, acceptor molecule, acceptor atom, score
      L1  H     3    37       P1  7948  2.00
      P1  H  7989  7998       L1    10  0.90
      P1  H  8011  8017       L1     8  0.95
      L1  C    14    34       P1 10747  0.40
      L1  C    16    36       P1 10186  0.83
      L1  C    16    36       P1 10952  0.36

> <Gold.PLP.Chemscore.Internal.Correction>
0.2567

> <Gold.Rescore>
     Score         DG    S(hbond)    S(metal)    S(lipo)     H(rot)  DE(clash)    DE(int)     intcor
     12.50     -14.67       2.74        0.00      66.90       3.04       0.05       2.12       ----

> <Gold.Chemscore.Fitness>
12.5034

> <Gold.Chemscore.DG>
-14.6738

> <Gold.Chemscore.ZeroCoef>
-5.4800

> <Gold.Chemscore.Hbond>
2.7400

> <Gold.Chemscore.Metal>
0.0000

> <Gold.Chemscore.Lipo>
66.8979

> <Gold.Chemscore.Internal_Hbond>
0.0000

> <Gold.Chemscore.DEClash>
0.0520

> <Gold.Chemscore.DEInternal>
2.1183

> <Gold.Chemscore.Rot>
3.0409

> <Gold.Chemscore.Internal.Correction>
   9.000000E+99

> <Gold.Chemscore.Hbonds>
donor molecule, donor type, donor heavy atom, donor atom, acceptor molecule, acceptor atom, score
      L1  H     3    37       P1  7948  1.00
      P1  H  7989  7998       L1    10  0.18
      P1  H  8011  8017       L1     8  0.20

> <Gold.Chemscore.Hbond.Weighted>
-9.1515

> <Gold.Chemscore.Metal.Weighted>
-0.0000

> <Gold.Chemscore.Lipo.Weighted>
-7.8271

> <Gold.Chemscore.Internal_Hbond.Weighted>
0.0000

> <Gold.Chemscore.DEClash.Weighted>
0.0520

> <Gold.Chemscore.DEInternal.Weighted>
2.1183

> <Gold.Chemscore.Rot.Weighted>
7.7848

> <Gold.Chemscore.Internal.Correction.Weighted>
   9.000000E+99

> <Gold.Protein.RotatedTorsions>
[ 6907 6896 6895 6894 ] final -169.90 input  -60.11 | X-H torsion
[ 7974 7965 7964 7962 ] final   88.86 input  175.53 | X-H torsion
[ 8008 7997 7996 7995 ] final -124.08 input   59.86 | X-H torsion
[ 10167 10162 10161 10158 ] final -148.62 input  -65.29 | X-H torsion
[ 10718 10713 10712 10709 ] final   37.94 input   66.30 | X-H torsion
[ 10763 10752 10751 10750 ] final  177.28 input  -60.55 | X-H torsion
[ 11005 11000 10999 10996 ] final  104.49 input  -57.11 | X-H torsion

> <Gold.Protein.ActiveResidues>
 VAL166  LYS551  ARG553  GLY616  TRP617  ASP618  TYR619  PRO620  LYS621  CYS622 
 ASP623  PHE694  ASN695  SER759  ASP760  ASP761  ALA762  ILE779  LEU786  VAL792 
 PHE793  MET794  SER795  GLU796  ALA797  LYS798  CYS799  TRP800  GLU811  SER814 

> <Gold.Protein.RotatedAtoms>
  151.4991  133.3508  159.2865 H   0  0  0  0  0  0  0  0  0  0  0  0  # atno 6907 bound_to 6896
  150.8785  134.8174  159.7218 H   0  0  0  0  0  0  0  0  0  0  0  0  # atno 6908 bound_to 6896
  152.4746  134.4885  159.9740 H   0  0  0  0  0  0  0  0  0  0  0  0  # atno 6909 bound_to 6896
  145.5401  139.2288  143.2570 H   0  0  0  0  0  0  0  0  0  0  0  0  # atno 7974 bound_to 7965
  155.1911  140.0413  157.2900 H   0  0  0  0  0  0  0  0  0  0  0  0  # atno 8008 bound_to 7997
  154.6138  140.2483  155.7607 H   0  0  0  0  0  0  0  0  0  0  0  0  # atno 8009 bound_to 7997
  156.2395  140.2909  156.0413 H   0  0  0  0  0  0  0  0  0  0  0  0  # atno 8010 bound_to 7997
  139.7515  143.8511  152.2587 H   0  0  0  0  0  0  0  0  0  0  0  0  # atno 10167 bound_to 10162
  157.3529  130.7608  149.6991 H   0  0  0  0  0  0  0  0  0  0  0  0  # atno 10718 bound_to 10713
  154.4924  135.2779  155.1486 H   0  0  0  0  0  0  0  0  0  0  0  0  # atno 10763 bound_to 10752
  154.3152  135.6221  153.5487 H   0  0  0  0  0  0  0  0  0  0  0  0  # atno 10764 bound_to 10752
  152.9890  135.5729  154.5348 H   0  0  0  0  0  0  0  0  0  0  0  0  # atno 10765 bound_to 10752
  139.8792  134.9302  156.5369 H   0  0  0  0  0  0  0  0  0  0  0  0  # atno 11005 bound_to 11000
  146.1987  140.6220  142.9112 LP  0  0  0  0  0  0  0  0  0  0  0  0  # atno 17320 bound_to 7965
  144.7581  140.5357  143.6754 LP  0  0  0  0  0  0  0  0  0  0  0  0  # atno 17321 bound_to 7965
  139.8491  144.7173  150.9236 LP  0  0  0  0  0  0  0  0  0  0  0  0  # atno 17342 bound_to 10162
  140.7798  143.3915  151.1302 LP  0  0  0  0  0  0  0  0  0  0  0  0  # atno 17343 bound_to 10162
  155.9724  130.4135  150.4087 LP  0  0  0  0  0  0  0  0  0  0  0  0  # atno 17370 bound_to 10713
  157.2153  131.0470  151.2577 LP  0  0  0  0  0  0  0  0  0  0  0  0  # atno 17371 bound_to 10713
  140.8339  133.8257  155.9010 LP  0  0  0  0  0  0  0  0  0  0  0  0  # atno 17394 bound_to 11000
  140.9302  134.2031  157.4869 LP  0  0  0  0  0  0  0  0  0  0  0  0  # atno 17395 bound_to 11000

$$$$
