AV-unprocessed.smi:1675|AV-procd|sdf|6718|dock6
  -GOLD-   22720 7463D 1   1.00000     0.00000
 Structure written by MMmdl.
 40 42  0  0  0  0  0  0  0  0  1 V2000
  154.2928  134.6620  165.0584 N   0  0  0  0  0  0  0  0  0  0  0  0
  155.1557  135.1240  164.1500 C   0  0  0  0  0  0  0  0  0  0  0  0
  156.1765  135.7337  164.4625 O   0  0  0  0  0  0  0  0  0  0  0  0
  154.8275  134.8632  162.6788 C   0  0  0  0  0  0  0  0  0  0  0  0
  154.6623  136.1078  161.9504 N   0  0  0  0  0  0  0  0  0  0  0  0
  154.2296  137.3266  162.4345 C   0  0  0  0  0  0  0  0  0  0  0  0
  154.2477  138.1777  161.3658 C   0  0  0  0  0  0  0  0  0  0  0  0
  153.9001  139.5511  161.3036 N   0  0  0  0  0  0  0  0  0  0  0  0
  154.0872  140.3967  160.2748 C   0  0  0  0  0  0  0  0  0  0  0  0
  154.6146  140.0813  159.2076 O   0  0  0  0  0  0  0  0  0  0  0  0
  153.6063  141.8346  160.5094 C   0  0  0  0  0  0  0  0  0  0  0  0
  153.0662  142.5417  159.2442 C   0  0  1  0  0  0  0  0  0  0  0  0
  151.6272  142.1287  158.8492 C   0  0  0  0  0  0  0  0  0  0  0  0
  150.8843  143.4751  158.7786 C   0  0  2  0  0  0  0  0  0  0  0  0
  151.3936  144.2833  157.5707 C   0  0  0  0  0  0  0  0  0  0  0  0
  152.7982  144.7227  158.0252 C   0  0  0  0  0  0  0  0  0  0  0  0
  152.9239  144.0717  159.4162 C   0  0  1  0  0  0  0  0  0  0  0  0
  151.5029  144.2275  159.9495 C   0  0  0  0  0  0  0  0  0  0  0  0
  154.7083  137.4075  160.2663 C   0  0  0  0  0  0  0  0  0  0  0  0
  154.9547  136.1568  160.6262 N   0  0  0  0  0  0  0  0  0  0  0  0
  154.4734  134.8079  166.0410 H   0  0  0  0  0  0  0  0  0  0  0  0
  153.4659  134.1646  164.7613 H   0  0  0  0  0  0  0  0  0  0  0  0
  155.6084  134.2654  162.2051 H   0  0  0  0  0  0  0  0  0  0  0  0
  153.9011  134.2916  162.6097 H   0  0  0  0  0  0  0  0  0  0  0  0
  153.9588  137.4666  163.4707 H   0  0  0  0  0  0  0  0  0  0  0  0
  153.4729  139.9356  162.1339 H   0  0  0  0  0  0  0  0  0  0  0  0
  152.8433  141.8282  161.2887 H   0  0  0  0  0  0  0  0  0  0  0  0
  154.4476  142.4024  160.9084 H   0  0  0  0  0  0  0  0  0  0  0  0
  153.7519  142.3400  158.4193 H   0  0  0  0  0  0  0  0  0  0  0  0
  151.5966  141.5867  157.9033 H   0  0  0  0  0  0  0  0  0  0  0  0
  151.1730  141.4907  159.6087 H   0  0  0  0  0  0  0  0  0  0  0  0
  149.7988  143.3783  158.8142 H   0  0  0  0  0  0  0  0  0  0  0  0
  151.4190  143.6873  156.6577 H   0  0  0  0  0  0  0  0  0  0  0  0
  150.7612  145.1526  157.3863 H   0  0  0  0  0  0  0  0  0  0  0  0
  153.5804  144.3985  157.3378 H   0  0  0  0  0  0  0  0  0  0  0  0
  152.8526  145.8095  158.1012 H   0  0  0  0  0  0  0  0  0  0  0  0
  153.7010  144.5231  160.0340 H   0  0  0  0  0  0  0  0  0  0  0  0
  151.1770  145.2671  160.0160 H   0  0  0  0  0  0  0  0  0  0  0  0
  151.3393  143.7411  160.9121 H   0  0  0  0  0  0  0  0  0  0  0  0
  154.8669  137.7063  159.2406 H   0  0  0  0  0  0  0  0  0  0  0  0
  1  2  1  0  0  0  0
  1 21  1  0  0  0  0
  1 22  1  0  0  0  0
  2  3  2  0  0  0  0
  2  4  1  0  0  0  0
  4  5  1  0  0  0  0
  4 23  1  0  0  0  0
  4 24  1  0  0  0  0
  5 20  1  0  0  0  0
  5  6  1  0  0  0  0
  6  7  2  0  0  0  0
  6 25  1  0  0  0  0
  7  8  1  0  0  0  0
  7 19  1  0  0  0  0
  8  9  1  0  0  0  0
  8 26  1  0  0  0  0
  9 10  2  0  0  0  0
  9 11  1  0  0  0  0
 11 12  1  0  0  0  0
 11 27  1  0  0  0  0
 11 28  1  0  0  0  0
 12 17  1  0  0  0  0
 12 13  1  0  0  0  0
 12 29  1  0  0  0  0
 13 14  1  0  0  0  0
 13 30  1  0  0  0  0
 13 31  1  0  0  0  0
 14 18  1  0  0  0  0
 14 15  1  0  0  0  0
 14 32  1  0  0  0  0
 15 16  1  0  0  0  0
 15 33  1  0  0  0  0
 15 34  1  0  0  0  0
 16 17  1  0  0  0  0
 16 35  1  0  0  0  0
 16 36  1  0  0  0  0
 17 18  1  0  0  0  0
 17 37  1  0  0  0  0
 18 38  1  0  0  0  0
 18 39  1  0  0  0  0
 19 20  2  0  0  0  0
 19 40  1  0  0  0  0
M  END
> <s_m_source_file>
AV-unprocessed.smi

> <i_m_source_file_index>
1675

> <i_lp_mmshare_version>
43012

> <i_f3d_flags>
0

> <s_epik_input>
W05IMl1DKD1PKVtDSDJdbjFbY0hdYyhbY0hdbjEpW05IXUMoPU8pW0NIMl1bQ0BIXShbQ0gyXVtDQEBIXTIzKVtDQEBIXShbQ0gyXTMpW0NIMl1bQ0gyXTI=

> <s_epik_cmdline>
J2VwaWtfcHl0aG9uJywgJy1waCcsICc3LjAnLCAnLXRuJywgJzgnLCAnLW1hJywgJzIwMCcsICctbWV0YWxfYmluZGluZycsICctaW1hZScsICc8aW5maWxlLm1hZT4nLCAnLW9tYWUnLCAnPG91dGZpbGUubWFlPic=

> <r_lp_tautomer_probability>
1

> <r_epik_Ionization_Penalty>
2.17494e-05

> <r_epik_Ionization_Penalty_Charging>
0

> <r_epik_Ionization_Penalty_Neutral>
2.17494e-05

> <r_epik_State_Penalty>
-0

> <r_epik_Charging_Adjusted_Penalty>
0

> <i_epik_Tot_Q>
0

> <i_epik_Tot_abs_Q>
0

> <r_epik_Metal_State_Penalty>
-0

> <b_epik_Metal_Only>
0

> <s_lp_Force_Field>
OPLS_2005

> <r_lp_Energy>
53.1529

> <b_lp_Chiralities_Consistent>
1

> <s_lp_Variant>
AV-unprocessed.smi:1675-4

> <Gold.Version>
5.8.1

> <Gold.Id.Protein>
6NUR|6NUR_protein|mol2

> <Gold.PLP.Fitness>
43.0072

> <Gold.PLP.PLP>
-41.7357

> <Gold.PLP.part.hbond>
-2.0000

> <Gold.PLP.part.metal>
0.0000

> <Gold.PLP.part.buried>
-3.3154

> <Gold.PLP.part.nonpolar>
-35.5348

> <Gold.PLP.part.repulsive>
0.1701

> <Gold.PLP.ligand.clash>
0.0000

> <Gold.PLP.ligand.torsion>
0.8854

> <Gold.PLP.Chemscore.Hbond>
1.0000

> <Gold.PLP.Chemscore.CHOScore>
0.0000

> <Gold.PLP.Chemscore.Metal>
0.0000

> <Gold.Chemscore.Hbonds>
donor molecule, donor type, donor heavy atom, donor atom, acceptor molecule, acceptor atom, score
      P1  H  7997  8008       L1    10  0.99

> <Gold.PLP.Chemscore.Internal.Correction>
0.0423

> <Gold.Rescore>
     Score         DG    S(hbond)    S(metal)    S(lipo)     H(rot)  DE(clash)    DE(int)     intcor
     14.79     -17.03       0.99        0.00     117.51       2.15       0.07       2.17       ----

> <Gold.Chemscore.Fitness>
14.7884

> <Gold.Chemscore.DG>
-17.0304

> <Gold.Chemscore.ZeroCoef>
-5.4800

> <Gold.Chemscore.Hbond>
0.9886

> <Gold.Chemscore.Metal>
0.0000

> <Gold.Chemscore.Lipo>
117.5118

> <Gold.Chemscore.Internal_Hbond>
0.0000

> <Gold.Chemscore.DEClash>
0.0697

> <Gold.Chemscore.DEInternal>
2.1724

> <Gold.Chemscore.Rot>
2.1486

> <Gold.Chemscore.Internal.Correction>
   9.000000E+99

> <Gold.Chemscore.Hbonds>
donor molecule, donor type, donor heavy atom, donor atom, acceptor molecule, acceptor atom, score
      P1  H  7997  8008       L1    10  0.94

> <Gold.Chemscore.Hbond.Weighted>
-3.3019

> <Gold.Chemscore.Metal.Weighted>
-0.0000

> <Gold.Chemscore.Lipo.Weighted>
-13.7489

> <Gold.Chemscore.Internal_Hbond.Weighted>
0.0000

> <Gold.Chemscore.DEClash.Weighted>
0.0697

> <Gold.Chemscore.DEInternal.Weighted>
2.1724

> <Gold.Chemscore.Rot.Weighted>
5.5004

> <Gold.Chemscore.Internal.Correction.Weighted>
   9.000000E+99

> <Gold.Protein.RotatedTorsions>
[ 6907 6896 6895 6894 ] final  -30.03 input  -60.11 | X-H torsion
[ 7974 7965 7964 7962 ] final  -33.72 input  175.53 | X-H torsion
[ 8008 7997 7996 7995 ] final -115.87 input   59.86 | X-H torsion
[ 10167 10162 10161 10158 ] final  -85.27 input  -65.29 | X-H torsion
[ 10718 10713 10712 10709 ] final  171.24 input   66.30 | X-H torsion
[ 10763 10752 10751 10750 ] final  -34.17 input  -60.55 | X-H torsion
[ 11005 11000 10999 10996 ] final   72.81 input  -57.11 | X-H torsion

> <Gold.Protein.ActiveResidues>
 VAL166  LYS551  ARG553  GLY616  TRP617  ASP618  TYR619  PRO620  LYS621  CYS622 
 ASP623  PHE694  ASN695  SER759  ASP760  ASP761  ALA762  ILE779  LEU786  VAL792 
 PHE793  MET794  SER795  GLU796  ALA797  LYS798  CYS799  TRP800  GLU811  SER814 

> <Gold.Protein.RotatedAtoms>
  151.1111  135.0027  159.8494 H   0  0  0  0  0  0  0  0  0  0  0  0  # atno 6907 bound_to 6896
  152.5443  134.1834  159.8655 H   0  0  0  0  0  0  0  0  0  0  0  0  # atno 6908 bound_to 6896
  151.1885  133.4637  159.2628 H   0  0  0  0  0  0  0  0  0  0  0  0  # atno 6909 bound_to 6896
  146.0888  140.5951  142.8874 H   0  0  0  0  0  0  0  0  0  0  0  0  # atno 7974 bound_to 7965
  155.0589  140.0393  157.2570 H   0  0  0  0  0  0  0  0  0  0  0  0  # atno 8008 bound_to 7997
  154.7076  140.2686  155.6635 H   0  0  0  0  0  0  0  0  0  0  0  0  # atno 8009 bound_to 7997
  156.2780  140.2728  156.1707 H   0  0  0  0  0  0  0  0  0  0  0  0  # atno 8010 bound_to 7997
  140.4053  143.2645  151.9089 H   0  0  0  0  0  0  0  0  0  0  0  0  # atno 10167 bound_to 10162
  156.9965  131.0163  151.2842 H   0  0  0  0  0  0  0  0  0  0  0  0  # atno 10718 bound_to 10713
  153.8423  135.6856  153.4801 H   0  0  0  0  0  0  0  0  0  0  0  0  # atno 10763 bound_to 10752
  153.1446  135.4643  154.9545 H   0  0  0  0  0  0  0  0  0  0  0  0  # atno 10764 bound_to 10752
  154.7839  135.3278  154.7875 H   0  0  0  0  0  0  0  0  0  0  0  0  # atno 10765 bound_to 10752
  139.9472  134.7292  156.0951 H   0  0  0  0  0  0  0  0  0  0  0  0  # atno 11005 bound_to 11000
  144.7345  140.4767  143.6914 LP  0  0  0  0  0  0  0  0  0  0  0  0  # atno 17320 bound_to 7965
  145.6079  139.1510  143.3092 LP  0  0  0  0  0  0  0  0  0  0  0  0  # atno 17321 bound_to 7965
  139.4783  144.5592  151.8265 LP  0  0  0  0  0  0  0  0  0  0  0  0  # atno 17342 bound_to 10162
  140.4696  144.1606  150.5916 LP  0  0  0  0  0  0  0  0  0  0  0  0  # atno 17343 bound_to 10162
  157.5421  130.8127  149.8042 LP  0  0  0  0  0  0  0  0  0  0  0  0  # atno 17370 bound_to 10713
  156.0187  130.3803  150.2028 LP  0  0  0  0  0  0  0  0  0  0  0  0  # atno 17371 bound_to 10713
  141.1125  133.6638  156.3014 LP  0  0  0  0  0  0  0  0  0  0  0  0  # atno 17394 bound_to 11000
  140.5806  134.5749  157.5479 LP  0  0  0  0  0  0  0  0  0  0  0  0  # atno 17395 bound_to 11000

$$$$
