AV-unprocessed.smi:79|AV-procd|sdf|784|dock8
  -GOLD-   2262017153D 1   1.00000     0.00000
 Structure written by MMmdl.
 56 59  0  0  0  0  0  0  0  0  2 V2000
  144.7622  133.2710  150.0351 C   0  0  0  0  0  0  0  0  0  0  0  0
  145.9158  132.3244  150.3908 C   0  0  1  0  0  0  0  0  0  0  0  0
  147.1267  132.9390  149.9986 O   0  0  0  0  0  0  0  0  0  0  0  0
  145.9683  132.0175  151.9007 C   0  0  0  0  0  0  0  0  0  0  0  0
  146.7024  130.7622  152.2041 N   0  3  1  0  0  0  0  0  0  0  0  0
  147.2625  130.7534  153.5799 C   0  0  0  0  0  0  0  0  0  0  0  0
  148.1119  129.4951  153.8282 C   0  0  0  0  0  0  0  0  0  0  0  0
  147.3508  128.2881  153.5133 N   0  0  0  0  0  0  0  0  0  0  0  0
  146.6849  127.7293  154.5578 C   0  0  0  0  0  0  0  0  0  0  0  0
  146.2680  126.4369  154.4867 N   0  0  0  0  0  0  0  0  0  0  0  0
  145.6102  125.8813  155.5084 C   0  0  0  0  0  0  0  0  0  0  0  0
  145.2705  126.4275  156.6770 N   0  0  0  0  0  0  0  0  0  0  0  0
  145.6865  127.7235  156.7570 C   0  0  0  0  0  0  0  0  0  0  0  0
  146.3915  128.4453  155.7526 C   0  0  0  0  0  0  0  0  0  0  0  0
  146.6541  129.7358  156.1956 N   0  0  0  0  0  0  0  0  0  0  0  0
  146.1297  129.7764  157.3901 C   0  0  0  0  0  0  0  0  0  0  0  0
  145.5210  128.6131  157.8048 N   0  0  0  0  0  0  0  0  0  0  0  0
  144.8704  128.3780  159.0850 C   0  0  0  0  0  0  0  0  0  0  0  0
  143.5626  129.1687  159.2746 C   0  0  0  0  0  0  0  0  0  0  0  0
  142.4777  128.5449  158.3739 C   0  0  0  0  0  0  0  0  0  0  0  0
  141.2329  129.2052  158.4883 O   0  0  0  0  0  0  0  0  0  0  0  0
  143.1663  129.4259  160.7354 C   0  0  0  0  0  0  0  0  0  0  0  0
  143.0331  130.8466  160.5103 O   0  0  0  0  0  0  0  0  0  0  0  0
  143.6792  130.6990  159.2266 C   0  0  0  0  0  0  0  0  0  0  0  0
  146.7466  128.2520  152.1772 C   0  0  2  0  0  0  0  0  0  0  0  0
  147.8096  128.0304  151.0873 C   0  0  0  0  0  0  0  0  0  0  0  0
  145.9180  129.5304  151.9167 C   0  0  0  0  0  0  0  0  0  0  0  0
  143.8002  132.8321  150.3007 H   0  0  0  0  0  0  0  0  0  0  0  0
  144.7419  133.4817  148.9651 H   0  0  0  0  0  0  0  0  0  0  0  0
  144.8494  134.2226  150.5605 H   0  0  0  0  0  0  0  0  0  0  0  0
  145.7950  131.4085  149.8138 H   0  0  0  0  0  0  0  0  0  0  0  0
  147.8423  132.3530  150.1940 H   0  0  0  0  0  0  0  0  0  0  0  0
  146.4502  132.8562  152.4059 H   0  0  0  0  0  0  0  0  0  0  0  0
  144.9607  131.9532  152.3145 H   0  0  0  0  0  0  0  0  0  0  0  0
  147.8799  131.6386  153.7363 H   0  0  0  0  0  0  0  0  0  0  0  0
  146.4461  130.8022  154.3023 H   0  0  0  0  0  0  0  0  0  0  0  0
  149.0067  129.5191  153.2060 H   0  0  0  0  0  0  0  0  0  0  0  0
  148.4637  129.4942  154.8594 H   0  0  0  0  0  0  0  0  0  0  0  0
  145.3145  124.8516  155.3701 H   0  0  0  0  0  0  0  0  0  0  0  0
  146.1778  130.6624  158.0065 H   0  0  0  0  0  0  0  0  0  0  0  0
  144.6910  127.3072  159.1909 H   0  0  0  0  0  0  0  0  0  0  0  0
  145.5865  128.6329  159.8671 H   0  0  0  0  0  0  0  0  0  0  0  0
  142.7663  128.5858  157.3240 H   0  0  0  0  0  0  0  0  0  0  0  0
  142.3255  127.4939  158.6210 H   0  0  0  0  0  0  0  0  0  0  0  0
  140.7140  128.7586  159.1395 H   0  0  0  0  0  0  0  0  0  0  0  0
  142.2294  128.9573  161.0385 H   0  0  0  0  0  0  0  0  0  0  0  0
  143.9558  129.2055  161.4552 H   0  0  0  0  0  0  0  0  0  0  0  0
  144.7040  131.0703  159.2521 H   0  0  0  0  0  0  0  0  0  0  0  0
  143.1177  131.1654  158.4165 H   0  0  0  0  0  0  0  0  0  0  0  0
  146.0748  127.3947  152.1144 H   0  0  0  0  0  0  0  0  0  0  0  0
  147.3451  127.9298  150.1061 H   0  0  0  0  0  0  0  0  0  0  0  0
  148.3754  127.1175  151.2751 H   0  0  0  0  0  0  0  0  0  0  0  0
  148.5194  128.8558  151.0303 H   0  0  0  0  0  0  0  0  0  0  0  0
  145.0269  129.5290  152.5456 H   0  0  0  0  0  0  0  0  0  0  0  0
  145.5638  129.5261  150.8867 H   0  0  0  0  0  0  0  0  0  0  0  0
  147.4988  130.7482  151.5826 H   0  0  0  0  0  0  0  0  0  0  0  0
  1  2  1  0  0  0  0
  1 28  1  0  0  0  0
  1 29  1  0  0  0  0
  1 30  1  0  0  0  0
  2  3  1  0  0  0  0
  2  4  1  0  0  0  0
  2 31  1  0  0  0  0
  3 32  1  0  0  0  0
  4  5  1  0  0  0  0
  4 33  1  0  0  0  0
  4 34  1  0  0  0  0
  5 27  1  0  0  0  0
  5  6  1  0  0  0  0
  5 56  1  0  0  0  0
  6  7  1  0  0  0  0
  6 35  1  0  0  0  0
  6 36  1  0  0  0  0
  7  8  1  0  0  0  0
  7 37  1  0  0  0  0
  7 38  1  0  0  0  0
  8  9  1  0  0  0  0
  8 25  1  0  0  0  0
  9 14  1  0  0  0  0
  9 10  2  0  0  0  0
 10 11  1  0  0  0  0
 11 12  2  0  0  0  0
 11 39  1  0  0  0  0
 12 13  1  0  0  0  0
 13 17  1  0  0  0  0
 13 14  2  0  0  0  0
 14 15  1  0  0  0  0
 15 16  2  0  0  0  0
 16 17  1  0  0  0  0
 16 40  1  0  0  0  0
 17 18  1  0  0  0  0
 18 19  1  0  0  0  0
 18 41  1  0  0  0  0
 18 42  1  0  0  0  0
 19 24  1  0  0  0  0
 19 20  1  0  0  0  0
 19 22  1  0  0  0  0
 20 21  1  0  0  0  0
 20 43  1  0  0  0  0
 20 44  1  0  0  0  0
 21 45  1  0  0  0  0
 22 23  1  0  0  0  0
 22 46  1  0  0  0  0
 22 47  1  0  0  0  0
 23 24  1  0  0  0  0
 24 48  1  0  0  0  0
 24 49  1  0  0  0  0
 25 26  1  0  0  0  0
 25 27  1  0  0  0  0
 25 50  1  0  0  0  0
 26 51  1  0  0  0  0
 26 52  1  0  0  0  0
 26 53  1  0  0  0  0
 27 54  1  0  0  0  0
 27 55  1  0  0  0  0
M  CHG  1   5   1
M  END
> <s_m_source_file>
AV-unprocessed.smi

> <i_m_source_file_index>
79

> <i_lp_mmshare_version>
43012

> <i_f3d_flags>
0

> <s_epik_input>
W0NIM11bQ0BIXShbT0hdKVtDSDJdTjFbQ0gyXVtDSDJdTihbQ0BASF0oW0NIM10pW0NIMl0xKWMobltjSF1uMiljKGMyMyluW2NIXW4zW0NIMl1DNChbQ0gyXVtPSF0pW0NIMl1PW0NIMl00

> <s_epik_cmdline>
J2VwaWtfcHl0aG9uJywgJy1waCcsICc3LjAnLCAnLXRuJywgJzgnLCAnLW1hJywgJzIwMCcsICctbWV0YWxfYmluZGluZycsICctaW1hZScsICc8aW5maWxlLm1hZT4nLCAnLW9tYWUnLCAnPG91dGZpbGUubWFlPic=

> <r_lp_tautomer_probability>
1

> <r_epik_Ionization_Penalty>
0.00515943

> <r_epik_Ionization_Penalty_Charging>
0.00509693

> <r_epik_Ionization_Penalty_Neutral>
6.25007e-05

> <r_epik_State_Penalty>
-0

> <r_epik_Charging_Adjusted_Penalty>
0.00509693

> <i_epik_Tot_Q>
1

> <i_epik_Tot_abs_Q>
1

> <r_epik_Metal_State_Penalty>
-0

> <b_epik_Metal_Only>
0

> <s_lp_Force_Field>
OPLS_2005

> <r_lp_Energy>
50.645

> <b_lp_Chiralities_Consistent>
1

> <s_lp_Variant>
AV-unprocessed.smi:79-8

> <Gold.Version>
5.8.1

> <Gold.Id.Protein>
6NUR|6NUR_protein|mol2

> <Gold.PLP.Fitness>
46.4445

> <Gold.PLP.PLP>
-42.2868

> <Gold.PLP.part.hbond>
-5.9446

> <Gold.PLP.part.metal>
0.0000

> <Gold.PLP.part.buried>
-6.2571

> <Gold.PLP.part.nonpolar>
-31.0728

> <Gold.PLP.part.repulsive>
0.2988

> <Gold.PLP.ligand.clash>
0.0000

> <Gold.PLP.ligand.torsion>
1.3002

> <Gold.PLP.Chemscore.Hbond>
2.0000

> <Gold.PLP.Chemscore.CHOScore>
0.0000

> <Gold.PLP.Chemscore.Metal>
0.0000

> <Gold.Chemscore.Hbonds>
donor molecule, donor type, donor heavy atom, donor atom, acceptor molecule, acceptor atom, score
      L1  H     3    32       P1 10747  1.00
      L1  H     5    56       P1 10747  1.00

> <Gold.PLP.Chemscore.Internal.Correction>
0.7582

> <Gold.Rescore>
     Score         DG    S(hbond)    S(metal)    S(lipo)     H(rot)  DE(clash)    DE(int)     intcor
      9.82     -14.01       1.99        0.00      90.15       3.39       0.13       4.06       ----

> <Gold.Chemscore.Fitness>
9.8236

> <Gold.Chemscore.DG>
-14.0127

> <Gold.Chemscore.ZeroCoef>
-5.4800

> <Gold.Chemscore.Hbond>
1.9927

> <Gold.Chemscore.Metal>
0.0000

> <Gold.Chemscore.Lipo>
90.1480

> <Gold.Chemscore.Internal_Hbond>
0.0000

> <Gold.Chemscore.DEClash>
0.1326

> <Gold.Chemscore.DEInternal>
4.0565

> <Gold.Chemscore.Rot>
3.3868

> <Gold.Chemscore.Internal.Correction>
   9.000000E+99

> <Gold.Chemscore.Hbonds>
donor molecule, donor type, donor heavy atom, donor atom, acceptor molecule, acceptor atom, score
      L1  H     3    32       P1 10747  1.00
      L1  H     5    56       P1 10747  0.98

> <Gold.Chemscore.Hbond.Weighted>
-6.6555

> <Gold.Chemscore.Metal.Weighted>
-0.0000

> <Gold.Chemscore.Lipo.Weighted>
-10.5473

> <Gold.Chemscore.Internal_Hbond.Weighted>
0.0000

> <Gold.Chemscore.DEClash.Weighted>
0.1326

> <Gold.Chemscore.DEInternal.Weighted>
4.0565

> <Gold.Chemscore.Rot.Weighted>
8.6701

> <Gold.Chemscore.Internal.Correction.Weighted>
   9.000000E+99

> <Gold.Protein.RotatedTorsions>
[ 6907 6896 6895 6894 ] final  171.67 input  -60.11 | X-H torsion
[ 7974 7965 7964 7962 ] final  -19.84 input  175.53 | X-H torsion
[ 8008 7997 7996 7995 ] final   81.91 input   59.86 | X-H torsion
[ 10167 10162 10161 10158 ] final  -51.12 input  -65.29 | X-H torsion
[ 10718 10713 10712 10709 ] final   99.57 input   66.30 | X-H torsion
[ 10763 10752 10751 10750 ] final  -54.99 input  -60.55 | X-H torsion
[ 11005 11000 10999 10996 ] final  -73.37 input  -57.11 | X-H torsion

> <Gold.Protein.ActiveResidues>
 VAL166  LYS551  ARG553  GLY616  TRP617  ASP618  TYR619  PRO620  LYS621  CYS622 
 ASP623  PHE694  ASN695  SER759  ASP760  ASP761  ALA762  ILE779  LEU786  VAL792 
 PHE793  MET794  SER795  GLU796  ALA797  LYS798  CYS799  TRP800  GLU811  SER814 

> <Gold.Protein.RotatedAtoms>
  151.7965  133.3365  159.3514 H   0  0  0  0  0  0  0  0  0  0  0  0  # atno 6907 bound_to 6896
  150.7373  134.5794  159.5940 H   0  0  0  0  0  0  0  0  0  0  0  0  # atno 6908 bound_to 6896
  152.3173  134.7425  160.0373 H   0  0  0  0  0  0  0  0  0  0  0  0  # atno 6909 bound_to 6896
  146.1820  140.4118  142.8491 H   0  0  0  0  0  0  0  0  0  0  0  0  # atno 7974 bound_to 7965
  155.9035  140.3432  155.6044 H   0  0  0  0  0  0  0  0  0  0  0  0  # atno 8008 bound_to 7997
  155.7472  140.0815  157.2237 H   0  0  0  0  0  0  0  0  0  0  0  0  # atno 8009 bound_to 7997
  154.4046  140.1560  156.2670 H   0  0  0  0  0  0  0  0  0  0  0  0  # atno 8010 bound_to 7997
  140.6604  143.2631  151.4458 H   0  0  0  0  0  0  0  0  0  0  0  0  # atno 10167 bound_to 10162
  157.6873  131.0673  150.4968 H   0  0  0  0  0  0  0  0  0  0  0  0  # atno 10718 bound_to 10713
  154.1837  135.6439  153.5041 H   0  0  0  0  0  0  0  0  0  0  0  0  # atno 10763 bound_to 10752
  153.0052  135.5412  154.6487 H   0  0  0  0  0  0  0  0  0  0  0  0  # atno 10764 bound_to 10752
  154.5858  135.2929  155.0659 H   0  0  0  0  0  0  0  0  0  0  0  0  # atno 10765 bound_to 10752
  141.1622  133.6876  156.7202 H   0  0  0  0  0  0  0  0  0  0  0  0  # atno 11005 bound_to 11000
  144.8332  140.6740  143.6278 LP  0  0  0  0  0  0  0  0  0  0  0  0  # atno 17320 bound_to 7965
  145.4048  139.1591  143.4158 LP  0  0  0  0  0  0  0  0  0  0  0  0  # atno 17321 bound_to 7965
  139.5836  144.1654  152.2000 LP  0  0  0  0  0  0  0  0  0  0  0  0  # atno 17342 bound_to 10162
  140.0987  144.5558  150.7004 LP  0  0  0  0  0  0  0  0  0  0  0  0  # atno 17343 bound_to 10162
  156.5291  130.4180  149.6210 LP  0  0  0  0  0  0  0  0  0  0  0  0  # atno 17370 bound_to 10713
  156.3085  130.7216  151.2103 LP  0  0  0  0  0  0  0  0  0  0  0  0  # atno 17371 bound_to 10713
  140.2822  134.8308  157.3943 LP  0  0  0  0  0  0  0  0  0  0  0  0  # atno 17394 bound_to 11000
  140.1423  134.4956  155.8022 LP  0  0  0  0  0  0  0  0  0  0  0  0  # atno 17395 bound_to 11000

$$$$
