AV-unprocessed.smi:229|AV-procd|sdf|1755|dock2
  -GOLD-   2262020283D 1   1.00000     0.00000
 Structure written by MMmdl.
 58 62  0  0  0  0  0  0  0  0  1 V2000
  148.8646  132.2046  157.3212 C   0  0  0  0  0  0  0  0  0  0  0  0
  148.6166  132.4249  158.8195 C   0  0  0  0  0  0  0  0  0  0  0  0
  147.9237  133.7589  159.1423 C   0  0  2  0  0  0  0  0  0  0  0  0
  148.6686  134.9774  158.5681 C   0  0  0  0  0  0  0  0  0  0  0  0
  148.0236  136.2074  159.0089 N   0  0  0  0  0  0  0  0  0  0  0  0
  148.3667  137.3219  158.3143 C   0  0  0  0  0  0  0  0  0  0  0  0
  147.5084  137.8404  157.3949 N   0  0  0  0  0  0  0  0  0  0  0  0
  147.8339  138.9413  156.7109 C   0  0  0  0  0  0  0  0  0  0  0  0
  148.9492  139.6701  156.7840 N   0  0  0  0  0  0  0  0  0  0  0  0
  149.8181  139.1501  157.6971 C   0  0  0  0  0  0  0  0  0  0  0  0
  149.6099  137.9917  158.4979 C   0  0  0  0  0  0  0  0  0  0  0  0
  150.7240  137.7668  159.2993 N   0  0  0  0  0  0  0  0  0  0  0  0
  151.5386  138.7408  158.9963 C   0  0  0  0  0  0  0  0  0  0  0  0
  151.0738  139.6156  158.0412 N   0  0  0  0  0  0  0  0  0  0  0  0
  151.7641  140.7774  157.5097 C   0  0  0  0  0  0  0  0  0  0  0  0
  150.9498  142.0766  157.6884 C   0  0  2  0  0  0  0  0  0  0  0  0
  150.5892  142.5477  156.4042 O   0  0  0  0  0  0  0  0  0  0  0  0
  151.7421  143.1948  158.3937 C   0  0  2  0  0  0  0  0  0  0  0  0
  152.1553  142.8760  159.8324 C   0  0  0  0  0  0  0  0  0  0  0  0
  152.3152  144.2448  160.4730 C   0  0  0  0  0  0  0  0  0  0  0  0
  151.5510  145.1805  159.5336 C   0  0  0  0  0  0  0  0  0  0  0  0
  150.9067  144.3246  158.6004 O   0  0  0  0  0  0  0  0  0  0  0  0
  147.9138  136.3049  160.4614 C   0  0  0  0  0  0  0  0  0  0  0  0
  147.2156  135.0570  161.0472 C   0  0  2  0  0  0  0  0  0  0  0  0
  145.7065  135.0132  160.7784 C   0  0  0  0  0  0  0  0  0  0  0  0
  145.0852  135.4000  162.1132 C   0  0  0  0  0  0  0  0  0  0  0  0
  145.9666  134.7961  163.0409 O   0  0  0  0  0  0  0  0  0  0  0  0
  147.2874  135.0528  162.5862 C   0  0  0  0  0  0  0  0  0  0  0  0
  147.8676  133.8778  160.5649 O   0  0  0  0  0  0  0  0  0  0  0  0
  149.2986  131.2206  157.1436 H   0  0  0  0  0  0  0  0  0  0  0  0
  149.5543  132.9444  156.9151 H   0  0  0  0  0  0  0  0  0  0  0  0
  147.9348  132.2642  156.7551 H   0  0  0  0  0  0  0  0  0  0  0  0
  147.9947  131.6084  159.1878 H   0  0  0  0  0  0  0  0  0  0  0  0
  149.5598  132.3559  159.3625 H   0  0  0  0  0  0  0  0  0  0  0  0
  146.9106  133.7289  158.7393 H   0  0  0  0  0  0  0  0  0  0  0  0
  149.7048  134.9808  158.9094 H   0  0  0  0  0  0  0  0  0  0  0  0
  148.6955  134.9146  157.4817 H   0  0  0  0  0  0  0  0  0  0  0  0
  147.0954  139.2868  156.0027 H   0  0  0  0  0  0  0  0  0  0  0  0
  152.5095  138.8444  159.4588 H   0  0  0  0  0  0  0  0  0  0  0  0
  152.7258  140.8507  158.0180 H   0  0  0  0  0  0  0  0  0  0  0  0
  151.9817  140.6041  156.4548 H   0  0  0  0  0  0  0  0  0  0  0  0
  150.0410  141.8605  158.2521 H   0  0  0  0  0  0  0  0  0  0  0  0
  150.0544  143.3198  156.5113 H   0  0  0  0  0  0  0  0  0  0  0  0
  152.6203  143.4836  157.8123 H   0  0  0  0  0  0  0  0  0  0  0  0
  151.3584  142.3292  160.3390 H   0  0  0  0  0  0  0  0  0  0  0  0
  153.0642  142.2762  159.8893 H   0  0  0  0  0  0  0  0  0  0  0  0
  151.9061  144.2567  161.4838 H   0  0  0  0  0  0  0  0  0  0  0  0
  153.3648  144.5354  160.5300 H   0  0  0  0  0  0  0  0  0  0  0  0
  150.8242  145.7999  160.0597 H   0  0  0  0  0  0  0  0  0  0  0  0
  152.2402  145.8391  159.0032 H   0  0  0  0  0  0  0  0  0  0  0  0
  148.9165  136.3977  160.8818 H   0  0  0  0  0  0  0  0  0  0  0  0
  147.3627  137.2042  160.7407 H   0  0  0  0  0  0  0  0  0  0  0  0
  145.3868  135.6628  159.9629 H   0  0  0  0  0  0  0  0  0  0  0  0
  145.3961  133.9966  160.5337 H   0  0  0  0  0  0  0  0  0  0  0  0
  145.0852  136.4827  162.2498 H   0  0  0  0  0  0  0  0  0  0  0  0
  144.0648  135.0340  162.2263 H   0  0  0  0  0  0  0  0  0  0  0  0
  147.9842  134.3108  162.9770 H   0  0  0  0  0  0  0  0  0  0  0  0
  147.5959  136.0267  162.9697 H   0  0  0  0  0  0  0  0  0  0  0  0
  1  2  1  0  0  0  0
  1 30  1  0  0  0  0
  1 31  1  0  0  0  0
  1 32  1  0  0  0  0
  2  3  1  0  0  0  0
  2 33  1  0  0  0  0
  2 34  1  0  0  0  0
  3 29  1  0  0  0  0
  3  4  1  0  0  0  0
  3 35  1  0  0  0  0
  4  5  1  0  0  0  0
  4 36  1  0  0  0  0
  4 37  1  0  0  0  0
  5  6  1  0  0  0  0
  5 23  1  0  0  0  0
  6 11  1  0  0  0  0
  6  7  2  0  0  0  0
  7  8  1  0  0  0  0
  8  9  2  0  0  0  0
  8 38  1  0  0  0  0
  9 10  1  0  0  0  0
 10 14  1  0  0  0  0
 10 11  2  0  0  0  0
 11 12  1  0  0  0  0
 12 13  2  0  0  0  0
 13 14  1  0  0  0  0
 13 39  1  0  0  0  0
 14 15  1  0  0  0  0
 15 16  1  0  0  0  0
 15 40  1  0  0  0  0
 15 41  1  0  0  0  0
 16 17  1  0  0  0  0
 16 18  1  0  0  0  0
 16 42  1  0  0  0  0
 17 43  1  0  0  0  0
 18 22  1  0  0  0  0
 18 19  1  0  0  0  0
 18 44  1  0  0  0  0
 19 20  1  0  0  0  0
 19 45  1  0  0  0  0
 19 46  1  0  0  0  0
 20 21  1  0  0  0  0
 20 47  1  0  0  0  0
 20 48  1  0  0  0  0
 21 22  1  0  0  0  0
 21 49  1  0  0  0  0
 21 50  1  0  0  0  0
 23 24  1  0  0  0  0
 23 51  1  0  0  0  0
 23 52  1  0  0  0  0
 24 28  1  0  0  0  0
 24 25  1  0  0  0  0
 24 29  1  0  0  0  0
 25 26  1  0  0  0  0
 25 53  1  0  0  0  0
 25 54  1  0  0  0  0
 26 27  1  0  0  0  0
 26 55  1  0  0  0  0
 26 56  1  0  0  0  0
 27 28  1  0  0  0  0
 28 57  1  0  0  0  0
 28 58  1  0  0  0  0
M  END
> <s_m_source_file>
AV-unprocessed.smi

> <i_m_source_file_index>
229

> <i_lp_mmshare_version>
43012

> <i_f3d_flags>
0

> <s_epik_input>
W0NIMl0xT1tDSDJdW0NIMl1bQ0BdMTJbQ0gyXU4oW0NIMl1bQ0BIXShPMilbQ0gyXVtDSDNdKWMobltjSF1uMyljKGMzNCluW2NIXW40W0NIMl1bQ0BIXShbT0hdKVtDQEBIXTVbQ0gyXVtDSDJdW0NIMl1PNQ==

> <s_epik_cmdline>
J2VwaWtfcHl0aG9uJywgJy1waCcsICc3LjAnLCAnLXRuJywgJzgnLCAnLW1hJywgJzIwMCcsICctbWV0YWxfYmluZGluZycsICctaW1hZScsICc8aW5maWxlLm1hZT4nLCAnLW9tYWUnLCAnPG91dGZpbGUubWFlPic=

> <r_lp_tautomer_probability>
1

> <r_epik_Ionization_Penalty>
0.00318402

> <r_epik_Ionization_Penalty_Charging>
0

> <r_epik_Ionization_Penalty_Neutral>
0.00318402

> <r_epik_State_Penalty>
0.00215642

> <r_epik_Charging_Adjusted_Penalty>
0.00215642

> <i_epik_Tot_Q>
0

> <i_epik_Tot_abs_Q>
0

> <r_epik_Metal_State_Penalty>
-0

> <b_epik_Metal_Only>
0

> <s_lp_Force_Field>
OPLS_2005

> <r_lp_Energy>
54.5162

> <b_lp_Chiralities_Consistent>
1

> <s_lp_Variant>
AV-unprocessed.smi:229-9

> <Gold.Version>
5.8.1

> <Gold.Id.Protein>
6NUR|6NUR_protein|mol2

> <Gold.PLP.Fitness>
42.4706

> <Gold.PLP.PLP>
-41.1805

> <Gold.PLP.part.hbond>
-1.8082

> <Gold.PLP.part.metal>
0.0000

> <Gold.PLP.part.buried>
-7.9507

> <Gold.PLP.part.nonpolar>
-31.9064

> <Gold.PLP.part.repulsive>
0.1573

> <Gold.PLP.ligand.clash>
0.0000

> <Gold.PLP.ligand.torsion>
0.9831

> <Gold.PLP.Chemscore.Hbond>
0.9440

> <Gold.PLP.Chemscore.CHOScore>
0.0000

> <Gold.PLP.Chemscore.Metal>
0.0000

> <Gold.Chemscore.Hbonds>
donor molecule, donor type, donor heavy atom, donor atom, acceptor molecule, acceptor atom, score
      L1  H    17    43       P1  8028  0.98

> <Gold.PLP.Chemscore.Internal.Correction>
0.4243

> <Gold.Rescore>
     Score         DG    S(hbond)    S(metal)    S(lipo)     H(rot)  DE(clash)    DE(int)     intcor
     13.87     -15.00       0.99        0.00     106.92       2.46       0.23       0.89       ----

> <Gold.Chemscore.Fitness>
13.8693

> <Gold.Chemscore.DG>
-14.9961

> <Gold.Chemscore.ZeroCoef>
-5.4800

> <Gold.Chemscore.Hbond>
0.9886

> <Gold.Chemscore.Metal>
0.0000

> <Gold.Chemscore.Lipo>
106.9194

> <Gold.Chemscore.Internal_Hbond>
0.0000

> <Gold.Chemscore.DEClash>
0.2348

> <Gold.Chemscore.DEInternal>
0.8920

> <Gold.Chemscore.Rot>
2.4591

> <Gold.Chemscore.Internal.Correction>
   9.000000E+99

> <Gold.Chemscore.Hbonds>
donor molecule, donor type, donor heavy atom, donor atom, acceptor molecule, acceptor atom, score
      L1  H    17    43       P1  8028  0.88

> <Gold.Chemscore.Hbond.Weighted>
-3.3019

> <Gold.Chemscore.Metal.Weighted>
-0.0000

> <Gold.Chemscore.Lipo.Weighted>
-12.5096

> <Gold.Chemscore.Internal_Hbond.Weighted>
0.0000

> <Gold.Chemscore.DEClash.Weighted>
0.2348

> <Gold.Chemscore.DEInternal.Weighted>
0.8920

> <Gold.Chemscore.Rot.Weighted>
6.2953

> <Gold.Chemscore.Internal.Correction.Weighted>
   9.000000E+99

> <Gold.Protein.RotatedTorsions>
[ 6907 6896 6895 6894 ] final  152.30 input  -60.11 | X-H torsion
[ 7974 7965 7964 7962 ] final -162.81 input  175.53 | X-H torsion
[ 8008 7997 7996 7995 ] final   -7.69 input   59.86 | X-H torsion
[ 10167 10162 10161 10158 ] final  119.66 input  -65.29 | X-H torsion
[ 10718 10713 10712 10709 ] final   74.76 input   66.30 | X-H torsion
[ 10763 10752 10751 10750 ] final   61.82 input  -60.55 | X-H torsion
[ 11005 11000 10999 10996 ] final  -78.64 input  -57.11 | X-H torsion

> <Gold.Protein.ActiveResidues>
 VAL166  LYS551  ARG553  GLY616  TRP617  ASP618  TYR619  PRO620  LYS621  CYS622 
 ASP623  PHE694  ASN695  SER759  ASP760  ASP761  ALA762  ILE779  LEU786  VAL792 
 PHE793  MET794  SER795  GLU796  ALA797  LYS798  CYS799  TRP800  GLU811  SER814 

> <Gold.Protein.RotatedAtoms>
  152.0886  133.4189  159.4533 H   0  0  0  0  0  0  0  0  0  0  0  0  # atno 6907 bound_to 6896
  150.6862  134.2898  159.4671 H   0  0  0  0  0  0  0  0  0  0  0  0  # atno 6908 bound_to 6896
  152.0747  134.9510  160.0625 H   0  0  0  0  0  0  0  0  0  0  0  0  # atno 6909 bound_to 6896
  144.7345  140.3198  143.6173 H   0  0  0  0  0  0  0  0  0  0  0  0  # atno 7974 bound_to 7965
  154.5814  140.2400  155.8049 H   0  0  0  0  0  0  0  0  0  0  0  0  # atno 8008 bound_to 7997
  156.2181  140.3006  155.9844 H   0  0  0  0  0  0  0  0  0  0  0  0  # atno 8009 bound_to 7997
  155.2535  140.0411  157.2980 H   0  0  0  0  0  0  0  0  0  0  0  0  # atno 8010 bound_to 7997
  139.6032  144.7062  151.3014 H   0  0  0  0  0  0  0  0  0  0  0  0  # atno 10167 bound_to 10162
  157.6606  130.9693  150.1256 H   0  0  0  0  0  0  0  0  0  0  0  0  # atno 10718 bound_to 10713
  152.9962  135.5487  154.6094 H   0  0  0  0  0  0  0  0  0  0  0  0  # atno 10763 bound_to 10752
  154.5418  135.2820  155.1090 H   0  0  0  0  0  0  0  0  0  0  0  0  # atno 10764 bound_to 10752
  154.2365  135.6424  153.5245 H   0  0  0  0  0  0  0  0  0  0  0  0  # atno 10765 bound_to 10752
  141.1665  133.7072  156.8003 H   0  0  0  0  0  0  0  0  0  0  0  0  # atno 11005 bound_to 11000
  145.7580  139.1815  143.2283 LP  0  0  0  0  0  0  0  0  0  0  0  0  # atno 17320 bound_to 7965
  146.1009  140.7545  142.9549 LP  0  0  0  0  0  0  0  0  0  0  0  0  # atno 17321 bound_to 7965
  140.7265  143.6988  150.7862 LP  0  0  0  0  0  0  0  0  0  0  0  0  # atno 17342 bound_to 10162
  140.0568  143.5194  152.2647 LP  0  0  0  0  0  0  0  0  0  0  0  0  # atno 17343 bound_to 10162
  156.2116  130.3667  149.8663 LP  0  0  0  0  0  0  0  0  0  0  0  0  # atno 17370 bound_to 10713
  156.6540  130.8755  151.3536 LP  0  0  0  0  0  0  0  0  0  0  0  0  # atno 17371 bound_to 10713
  140.2261  134.8720  157.3428 LP  0  0  0  0  0  0  0  0  0  0  0  0  # atno 17394 bound_to 11000
  140.1938  134.4339  155.7701 LP  0  0  0  0  0  0  0  0  0  0  0  0  # atno 17395 bound_to 11000

$$$$
