AV-unprocessed.smi:2039|AV-procd|sdf|8285|dock5
  -GOLD-   2272010553D 1   1.00000     0.00000
 Structure written by MMmdl.
 32 33  0  0  0  0  0  0  0  0  2 V2000
  148.6625  143.0289  152.8432 C   0  0  0  0  0  0  0  0  0  0  0  0
  149.5144  142.0877  153.6236 C   0  0  0  0  0  0  0  0  0  0  0  0
  150.6865  141.6329  153.1741 N   0  0  0  0  0  0  0  0  0  0  0  0
  151.2948  140.7737  154.0780 N   0  0  0  0  0  0  0  0  0  0  0  0
  150.5811  140.5984  155.1993 C   0  0  0  0  0  0  0  0  0  0  0  0
  150.9937  139.8017  156.1992 N   0  5  0  0  0  0  0  0  0  0  0  0
  151.8001  140.2943  157.1673 C   0  0  0  0  0  0  0  0  0  0  0  0
  152.8458  139.7837  157.5757 O   0  0  0  0  0  0  0  0  0  0  0  0
  151.3683  141.4498  157.6936 N   0  0  0  0  0  0  0  0  0  0  0  0
  152.0285  142.2166  158.7471 C   0  0  2  0  0  0  0  0  0  0  0  0
  151.8694  141.5166  160.1118 C   0  0  0  0  0  0  0  0  0  0  0  0
  152.5064  142.3391  161.2455 C   0  0  0  0  0  0  0  0  0  0  0  0
  151.9714  143.7831  161.2937 C   0  0  2  0  0  0  0  0  0  0  0  0
  150.6287  143.7902  161.7371 O   0  0  0  0  0  0  0  0  0  0  0  0
  152.0779  144.4741  159.9212 C   0  0  0  0  0  0  0  0  0  0  0  0
  151.4419  143.6388  158.7960 C   0  0  0  0  0  0  0  0  0  0  0  0
  149.0593  141.4897  155.2102 S   0  0  0  0  0  0  0  0  0  0  0  0
  149.0484  144.0440  152.9368 H   0  0  0  0  0  0  0  0  0  0  0  0
  147.6374  143.0077  153.2134 H   0  0  0  0  0  0  0  0  0  0  0  0
  148.6578  142.7494  151.7894 H   0  0  0  0  0  0  0  0  0  0  0  0
  150.5067  141.8284  157.3287 H   0  0  0  0  0  0  0  0  0  0  0  0
  153.0916  142.2990  158.5127 H   0  0  0  0  0  0  0  0  0  0  0  0
  150.8110  141.3594  160.3249 H   0  0  0  0  0  0  0  0  0  0  0  0
  152.3257  140.5267  160.0823 H   0  0  0  0  0  0  0  0  0  0  0  0
  152.3474  141.8430  162.2036 H   0  0  0  0  0  0  0  0  0  0  0  0
  153.5863  142.3664  161.0942 H   0  0  0  0  0  0  0  0  0  0  0  0
  152.5483  144.3518  162.0236 H   0  0  0  0  0  0  0  0  0  0  0  0
  150.2230  144.5953  161.4541 H   0  0  0  0  0  0  0  0  0  0  0  0
  151.6204  145.4633  159.9590 H   0  0  0  0  0  0  0  0  0  0  0  0
  153.1308  144.6358  159.6868 H   0  0  0  0  0  0  0  0  0  0  0  0
  151.5968  144.1383  157.8390 H   0  0  0  0  0  0  0  0  0  0  0  0
  150.3621  143.5892  158.9446 H   0  0  0  0  0  0  0  0  0  0  0  0
  1  2  1  0  0  0  0
  1 18  1  0  0  0  0
  1 19  1  0  0  0  0
  1 20  1  0  0  0  0
  2 17  1  0  0  0  0
  2  3  2  0  0  0  0
  3  4  1  0  0  0  0
  4  5  2  0  0  0  0
  5  6  1  0  0  0  0
  5 17  1  0  0  0  0
  6  7  1  0  0  0  0
  7  8  2  0  0  0  0
  7  9  1  0  0  0  0
  9 10  1  0  0  0  0
  9 21  1  0  0  0  0
 10 16  1  0  0  0  0
 10 11  1  0  0  0  0
 10 22  1  0  0  0  0
 11 12  1  0  0  0  0
 11 23  1  0  0  0  0
 11 24  1  0  0  0  0
 12 13  1  0  0  0  0
 12 25  1  0  0  0  0
 12 26  1  0  0  0  0
 13 14  1  0  0  0  0
 13 15  1  0  0  0  0
 13 27  1  0  0  0  0
 14 28  1  0  0  0  0
 15 16  1  0  0  0  0
 15 29  1  0  0  0  0
 15 30  1  0  0  0  0
 16 31  1  0  0  0  0
 16 32  1  0  0  0  0
M  CHG  1   6  -1
M  END
> <s_m_source_file>
AV-unprocessed.smi

> <i_m_source_file_index>
2039

> <i_lp_mmshare_version>
43012

> <i_f3d_flags>
0

> <s_epik_input>
W0NIM11jMW5uYyhzMSlbTkhdQyg9TylbTkhdW0NAQEhdMltDSDJdW0NIMl1bQ0BASF0oW09IXSlbQ0gyXVtDSDJdMg==

> <s_epik_cmdline>
J2VwaWtfcHl0aG9uJywgJy1waCcsICc3LjAnLCAnLXRuJywgJzgnLCAnLW1hJywgJzIwMCcsICctbWV0YWxfYmluZGluZycsICctaW1hZScsICc8aW5maWxlLm1hZT4nLCAnLW9tYWUnLCAnPG91dGZpbGUubWFlPic=

> <r_lp_tautomer_probability>
1

> <r_epik_Ionization_Penalty>
4.54927

> <r_epik_Ionization_Penalty_Charging>
4.39069

> <r_epik_Ionization_Penalty_Neutral>
0.158583

> <r_epik_State_Penalty>
4.39033

> <r_epik_Charging_Adjusted_Penalty>
8.78102

> <i_epik_Tot_Q>
-1

> <i_epik_Tot_abs_Q>
1

> <r_epik_Metal_State_Penalty>
0.767247

> <b_epik_Metal_Only>
1

> <s_lp_Force_Field>
OPLS_2005

> <r_lp_Energy>
8.24255

> <b_lp_Chiralities_Consistent>
1

> <s_lp_Variant>
AV-unprocessed.smi:2039-4

> <Gold.Version>
5.8.1

> <Gold.Id.Protein>
6NUR|6NUR_protein|mol2

> <Gold.PLP.Fitness>
42.8301

> <Gold.PLP.PLP>
-36.6384

> <Gold.PLP.part.hbond>
-6.3845

> <Gold.PLP.part.metal>
0.0000

> <Gold.PLP.part.buried>
-6.7064

> <Gold.PLP.part.nonpolar>
-25.4903

> <Gold.PLP.part.repulsive>
1.5188

> <Gold.PLP.ligand.clash>
0.0000

> <Gold.PLP.ligand.torsion>
1.3505

> <Gold.PLP.Chemscore.Hbond>
2.9620

> <Gold.PLP.Chemscore.CHOScore>
0.0000

> <Gold.PLP.Chemscore.Metal>
0.0000

> <Gold.Chemscore.Hbonds>
donor molecule, donor type, donor heavy atom, donor atom, acceptor molecule, acceptor atom, score
      P1  H  6933  6945       L1    14  0.14
      P1  H  7997  8010       L1     8  1.00

> <Gold.PLP.Chemscore.Internal.Correction>
0.0065

> <Gold.Rescore>
     Score         DG    S(hbond)    S(metal)    S(lipo)     H(rot)  DE(clash)    DE(int)     intcor
     17.09     -18.43       2.13        0.00      82.44       1.49       0.14       1.20       ----

> <Gold.Chemscore.Fitness>
17.0934

> <Gold.Chemscore.DG>
-18.4294

> <Gold.Chemscore.ZeroCoef>
-5.4800

> <Gold.Chemscore.Hbond>
2.1292

> <Gold.Chemscore.Metal>
0.0000

> <Gold.Chemscore.Lipo>
82.4391

> <Gold.Chemscore.Internal_Hbond>
0.0000

> <Gold.Chemscore.DEClash>
0.1374

> <Gold.Chemscore.DEInternal>
1.1985

> <Gold.Chemscore.Rot>
1.4873

> <Gold.Chemscore.Internal.Correction>
   9.000000E+99

> <Gold.Chemscore.Hbonds>
donor molecule, donor type, donor heavy atom, donor atom, acceptor molecule, acceptor atom, score
      P1  H  6933  6945       L1    14  0.10
      P1  H  7997  8010       L1     8  0.98

> <Gold.Chemscore.Hbond.Weighted>
-7.1115

> <Gold.Chemscore.Metal.Weighted>
-0.0000

> <Gold.Chemscore.Lipo.Weighted>
-9.6454

> <Gold.Chemscore.Internal_Hbond.Weighted>
0.0000

> <Gold.Chemscore.DEClash.Weighted>
0.1374

> <Gold.Chemscore.DEInternal.Weighted>
1.1985

> <Gold.Chemscore.Rot.Weighted>
3.8075

> <Gold.Chemscore.Internal.Correction.Weighted>
   9.000000E+99

> <Gold.Protein.RotatedTorsions>
[ 6907 6896 6895 6894 ] final  125.83 input  -60.11 | X-H torsion
[ 7974 7965 7964 7962 ] final    0.54 input  175.53 | X-H torsion
[ 8008 7997 7996 7995 ] final   55.15 input   59.86 | X-H torsion
[ 10167 10162 10161 10158 ] final -130.26 input  -65.29 | X-H torsion
[ 10718 10713 10712 10709 ] final  -79.92 input   66.30 | X-H torsion
[ 10763 10752 10751 10750 ] final  110.02 input  -60.55 | X-H torsion
[ 11005 11000 10999 10996 ] final -129.83 input  -57.11 | X-H torsion

> <Gold.Protein.ActiveResidues>
 VAL166  LYS551  ARG553  GLY616  TRP617  ASP618  TYR619  PRO620  LYS621  CYS622 
 ASP623  PHE694  ASN695  SER759  ASP760  ASP761  ALA762  ILE779  LEU786  VAL792 
 PHE793  MET794  SER795  GLU796  ALA797  LYS798  CYS799  TRP800  GLU811  SER814 

> <Gold.Protein.RotatedAtoms>
  152.3957  133.6743  159.6274 H   0  0  0  0  0  0  0  0  0  0  0  0  # atno 6907 bound_to 6896
  150.7857  133.8878  159.3313 H   0  0  0  0  0  0  0  0  0  0  0  0  # atno 6908 bound_to 6896
  151.6655  135.0985  160.0239 H   0  0  0  0  0  0  0  0  0  0  0  0  # atno 6909 bound_to 6896
  146.2435  140.1122  142.8343 H   0  0  0  0  0  0  0  0  0  0  0  0  # atno 7974 bound_to 7965
  155.4964  140.3473  155.4363 H   0  0  0  0  0  0  0  0  0  0  0  0  # atno 8008 bound_to 7997
  156.0943  140.1419  156.9579 H   0  0  0  0  0  0  0  0  0  0  0  0  # atno 8009 bound_to 7997
  154.4654  140.0919  156.6982 H   0  0  0  0  0  0  0  0  0  0  0  0  # atno 8010 bound_to 7997
  139.9312  143.6270  152.2529 H   0  0  0  0  0  0  0  0  0  0  0  0  # atno 10167 bound_to 10162
  156.0081  130.4559  150.3722 H   0  0  0  0  0  0  0  0  0  0  0  0  # atno 10718 bound_to 10713
  153.4431  135.3761  155.2239 H   0  0  0  0  0  0  0  0  0  0  0  0  # atno 10763 bound_to 10752
  154.8754  135.3867  154.4129 H   0  0  0  0  0  0  0  0  0  0  0  0  # atno 10764 bound_to 10752
  153.4677  135.7087  153.6075 H   0  0  0  0  0  0  0  0  0  0  0  0  # atno 10765 bound_to 10752
  140.9398  134.1209  157.4161 H   0  0  0  0  0  0  0  0  0  0  0  0  # atno 11005 bound_to 11000
  145.0477  140.8994  143.5014 LP  0  0  0  0  0  0  0  0  0  0  0  0  # atno 17320 bound_to 7965
  145.1214  139.2691  143.5586 LP  0  0  0  0  0  0  0  0  0  0  0  0  # atno 17321 bound_to 7965
  139.6781  144.7657  151.1659 LP  0  0  0  0  0  0  0  0  0  0  0  0  # atno 17342 bound_to 10162
  140.7637  143.5765  150.8940 LP  0  0  0  0  0  0  0  0  0  0  0  0  # atno 17343 bound_to 10162
  157.1806  131.0391  151.2750 LP  0  0  0  0  0  0  0  0  0  0  0  0  # atno 17370 bound_to 10713
  157.4149  130.7405  149.6868 LP  0  0  0  0  0  0  0  0  0  0  0  0  # atno 17371 bound_to 10713
  139.8817  135.0033  156.6176 LP  0  0  0  0  0  0  0  0  0  0  0  0  # atno 17394 bound_to 11000
  140.7750  133.8707  155.8522 LP  0  0  0  0  0  0  0  0  0  0  0  0  # atno 17395 bound_to 11000

$$$$
