AV-unprocessed.smi:1875|AV-procd|sdf|7617|dock3
  -GOLD-   22720 9343D 1   1.00000     0.00000
 Structure written by MMmdl.
 49 51  0  0  0  0  0  0  0  0  3 V2000
  145.3104  134.2427  154.6906 C   0  0  0  0  0  0  0  0  0  0  0  0
  146.6574  133.7044  154.2544 C   0  0  0  0  0  0  0  0  0  0  0  0
  146.6534  132.6101  153.4870 N   0  0  0  0  0  0  0  0  0  0  0  0
  147.8544  132.1319  153.0949 C   0  0  0  0  0  0  0  0  0  0  0  0
  149.0604  132.7550  153.4760 C   0  0  0  0  0  0  0  0  0  0  0  0
  148.9383  133.9052  154.2835 C   0  0  0  0  0  0  0  0  0  0  0  0
  150.1560  134.6584  154.7764 C   0  0  0  0  0  0  0  0  0  0  0  0
  149.9108  136.1115  154.7253 N   0  3  0  0  0  0  0  0  0  0  0  0
  150.9843  136.9296  155.3244 C   0  0  0  0  0  0  0  0  0  0  0  0
  150.6049  138.4197  155.3389 C   0  0  1  0  0  0  0  0  0  0  0  0
  149.2828  138.5509  155.8255 O   0  0  0  0  0  0  0  0  0  0  0  0
  151.5564  139.2575  156.2177 C   0  0  0  0  0  0  0  0  0  0  0  0
  151.1161  140.6518  156.3681 N   0  0  0  0  0  0  0  0  0  0  0  0
  150.3024  141.4053  155.5785 C   0  0  0  0  0  0  0  0  0  0  0  0
  150.2136  142.6417  156.1422 N   0  3  0  0  0  0  0  0  0  0  0  0
  150.9765  142.6772  157.3113 C   0  0  0  0  0  0  0  0  0  0  0  0
  151.2001  143.7025  158.2225 C   0  0  0  0  0  0  0  0  0  0  0  0
  152.0359  143.4146  159.3251 C   0  0  0  0  0  0  0  0  0  0  0  0
  152.3017  144.5137  160.3398 C   0  0  0  0  0  0  0  0  0  0  0  0
  152.6147  142.1290  159.4865 C   0  0  0  0  0  0  0  0  0  0  0  0
  153.5067  141.8288  160.6790 C   0  0  0  0  0  0  0  0  0  0  0  0
  152.3764  141.0998  158.5474 C   0  0  0  0  0  0  0  0  0  0  0  0
  151.5533  141.4018  157.4654 C   0  0  0  0  0  0  0  0  0  0  0  0
  147.7336  134.3760  154.6761 N   0  0  0  0  0  0  0  0  0  0  0  0
  144.5056  133.5471  154.4497 H   0  0  0  0  0  0  0  0  0  0  0  0
  145.1033  135.1891  154.1903 H   0  0  0  0  0  0  0  0  0  0  0  0
  145.2977  134.4134  155.7675 H   0  0  0  0  0  0  0  0  0  0  0  0
  147.8539  131.2468  152.4761 H   0  0  0  0  0  0  0  0  0  0  0  0
  150.0193  132.3690  153.1630 H   0  0  0  0  0  0  0  0  0  0  0  0
  150.3886  134.3581  155.7989 H   0  0  0  0  0  0  0  0  0  0  0  0
  151.0187  134.4045  154.1586 H   0  0  0  0  0  0  0  0  0  0  0  0
  149.8007  136.3784  153.7574 H   0  0  0  0  0  0  0  0  0  0  0  0
  151.2014  136.5788  156.3346 H   0  0  0  0  0  0  0  0  0  0  0  0
  151.8910  136.7860  154.7351 H   0  0  0  0  0  0  0  0  0  0  0  0
  150.6291  138.8051  154.3188 H   0  0  0  0  0  0  0  0  0  0  0  0
  149.1277  137.8777  156.4707 H   0  0  0  0  0  0  0  0  0  0  0  0
  151.6285  138.8274  157.2178 H   0  0  0  0  0  0  0  0  0  0  0  0
  152.5674  139.2601  155.8080 H   0  0  0  0  0  0  0  0  0  0  0  0
  149.8195  141.0847  154.6665 H   0  0  0  0  0  0  0  0  0  0  0  0
  150.7543  144.6783  158.0942 H   0  0  0  0  0  0  0  0  0  0  0  0
  151.9205  144.2290  161.3206 H   0  0  0  0  0  0  0  0  0  0  0  0
  151.8189  145.4480  160.0524 H   0  0  0  0  0  0  0  0  0  0  0  0
  153.3712  144.7067  160.4262 H   0  0  0  0  0  0  0  0  0  0  0  0
  153.8587  140.7968  160.6645 H   0  0  0  0  0  0  0  0  0  0  0  0
  152.9632  141.9817  161.6117 H   0  0  0  0  0  0  0  0  0  0  0  0
  154.3818  142.4788  160.6765 H   0  0  0  0  0  0  0  0  0  0  0  0
  152.8165  140.1216  158.6706 H   0  0  0  0  0  0  0  0  0  0  0  0
  149.0471  136.3064  155.2116 H   0  0  0  0  0  0  0  0  0  0  0  0
  149.6717  143.4041  155.7551 H   0  0  0  0  0  0  0  0  0  0  0  0
  1  2  1  0  0  0  0
  1 25  1  0  0  0  0
  1 26  1  0  0  0  0
  1 27  1  0  0  0  0
  2 24  1  0  0  0  0
  2  3  2  0  0  0  0
  3  4  1  0  0  0  0
  4  5  2  0  0  0  0
  4 28  1  0  0  0  0
  5  6  1  0  0  0  0
  5 29  1  0  0  0  0
  6  7  1  0  0  0  0
  6 24  2  0  0  0  0
  7  8  1  0  0  0  0
  7 30  1  0  0  0  0
  7 31  1  0  0  0  0
  8  9  1  0  0  0  0
  8 32  1  0  0  0  0
  8 48  1  0  0  0  0
  9 10  1  0  0  0  0
  9 33  1  0  0  0  0
  9 34  1  0  0  0  0
 10 11  1  0  0  0  0
 10 12  1  0  0  0  0
 10 35  1  0  0  0  0
 11 36  1  0  0  0  0
 12 13  1  0  0  0  0
 12 37  1  0  0  0  0
 12 38  1  0  0  0  0
 13 23  1  0  0  0  0
 13 14  1  0  0  0  0
 14 15  2  0  0  0  0
 14 39  1  0  0  0  0
 15 16  1  0  0  0  0
 15 49  1  0  0  0  0
 16 23  2  0  0  0  0
 16 17  1  0  0  0  0
 17 18  2  0  0  0  0
 17 40  1  0  0  0  0
 18 19  1  0  0  0  0
 18 20  1  0  0  0  0
 19 41  1  0  0  0  0
 19 42  1  0  0  0  0
 19 43  1  0  0  0  0
 20 21  1  0  0  0  0
 20 22  2  0  0  0  0
 21 44  1  0  0  0  0
 21 45  1  0  0  0  0
 21 46  1  0  0  0  0
 22 23  1  0  0  0  0
 22 47  1  0  0  0  0
M  CHG  1   8   1
M  CHG  1  15   1
M  END
> <s_m_source_file>
AV-unprocessed.smi

> <i_m_source_file_index>
1875

> <i_lp_mmshare_version>
43012

> <i_f3d_flags>
0

> <s_epik_input>
W0NIM11jMW5bY0hdW2NIXWMobjEpW0NIMl1bTkhdW0NIMl1bQ0BIXShbT0hdKVtDSDJdbihbY0hdbjIpYyhjMjMpW2NIXWMoW0NIM10pYyhbY0hdMylbQ0gzXQ==

> <s_epik_cmdline>
J2VwaWtfcHl0aG9uJywgJy1waCcsICc3LjAnLCAnLXRuJywgJzgnLCAnLW1hJywgJzIwMCcsICctbWV0YWxfYmluZGluZycsICctaW1hZScsICc8aW5maWxlLm1hZT4nLCAnLW9tYWUnLCAnPG91dGZpbGUubWFlPic=

> <r_lp_tautomer_probability>
1

> <r_epik_Ionization_Penalty>
1.27527

> <r_epik_Ionization_Penalty_Charging>
1.27526

> <r_epik_Ionization_Penalty_Neutral>
8.72389e-06

> <r_epik_State_Penalty>
1.28654

> <r_epik_Charging_Adjusted_Penalty>
2.5618

> <i_epik_Tot_Q>
2

> <i_epik_Tot_abs_Q>
2

> <r_epik_Metal_State_Penalty>
1.36882

> <b_epik_Metal_Only>
0

> <s_epik_Chemistry_Notes>
This compound contains an electron-poor aromatic ring that is susceptible to covalent hydrolysis at low pH, typically resulting in measured values for nitrogen ring protonation that are around two units higher than predicted values.

> <s_lp_Force_Field>
OPLS_2005

> <r_lp_Energy>
13.7453

> <b_lp_Chiralities_Consistent>
1

> <s_lp_Variant>
AV-unprocessed.smi:1875-6

> <Gold.Version>
5.8.1

> <Gold.Id.Protein>
6NUR|6NUR_protein|mol2

> <Gold.PLP.Fitness>
59.8825

> <Gold.PLP.PLP>
-46.2793

> <Gold.PLP.part.hbond>
-1.9402

> <Gold.PLP.part.metal>
0.0000

> <Gold.PLP.part.buried>
-5.4661

> <Gold.PLP.part.nonpolar>
-40.0853

> <Gold.PLP.part.repulsive>
0.3577

> <Gold.PLP.ligand.clash>
0.0000

> <Gold.PLP.ligand.torsion>
0.7282

> <Gold.PLP.Chemscore.Hbond>
4.0000

> <Gold.PLP.Chemscore.CHOScore>
1.0000

> <Gold.PLP.Chemscore.Metal>
0.0000

> <Gold.Chemscore.Hbonds>
donor molecule, donor type, donor heavy atom, donor atom, acceptor molecule, acceptor atom, score
      L1  H     8    32       P1  7948  1.92
      L1  H    15    49       P1  8028  2.00
      L1  C     4    28       P1 10747  0.99

> <Gold.PLP.Chemscore.Internal.Correction>
0.0597

> <Gold.Rescore>
     Score         DG    S(hbond)    S(metal)    S(lipo)     H(rot)  DE(clash)    DE(int)     intcor
     15.88     -17.55       1.65        0.00     119.05       2.88       0.03       1.64       ----

> <Gold.Chemscore.Fitness>
15.8841

> <Gold.Chemscore.DG>
-17.5523

> <Gold.Chemscore.ZeroCoef>
-5.4800

> <Gold.Chemscore.Hbond>
1.6544

> <Gold.Chemscore.Metal>
0.0000

> <Gold.Chemscore.Lipo>
119.0511

> <Gold.Chemscore.Internal_Hbond>
0.0000

> <Gold.Chemscore.DEClash>
0.0327

> <Gold.Chemscore.DEInternal>
1.6356

> <Gold.Chemscore.Rot>
2.8838

> <Gold.Chemscore.Internal.Correction>
   9.000000E+99

> <Gold.Chemscore.Hbonds>
donor molecule, donor type, donor heavy atom, donor atom, acceptor molecule, acceptor atom, score
      L1  H     8    32       P1  7948  0.31
      L1  H    15    49       P1  8028  0.93

> <Gold.Chemscore.Hbond.Weighted>
-5.5258

> <Gold.Chemscore.Metal.Weighted>
-0.0000

> <Gold.Chemscore.Lipo.Weighted>
-13.9290

> <Gold.Chemscore.Internal_Hbond.Weighted>
0.0000

> <Gold.Chemscore.DEClash.Weighted>
0.0327

> <Gold.Chemscore.DEInternal.Weighted>
1.6356

> <Gold.Chemscore.Rot.Weighted>
7.3824

> <Gold.Chemscore.Internal.Correction.Weighted>
   9.000000E+99

> <Gold.Protein.RotatedTorsions>
[ 6907 6896 6895 6894 ] final -118.16 input  -60.11 | X-H torsion
[ 7974 7965 7964 7962 ] final  -32.27 input  175.53 | X-H torsion
[ 8008 7997 7996 7995 ] final  -76.96 input   59.86 | X-H torsion
[ 10167 10162 10161 10158 ] final  144.49 input  -65.29 | X-H torsion
[ 10718 10713 10712 10709 ] final -115.70 input   66.30 | X-H torsion
[ 10763 10752 10751 10750 ] final   36.57 input  -60.55 | X-H torsion
[ 11005 11000 10999 10996 ] final   26.29 input  -57.11 | X-H torsion

> <Gold.Protein.ActiveResidues>
 VAL166  LYS551  ARG553  GLY616  TRP617  ASP618  TYR619  PRO620  LYS621  CYS622 
 ASP623  PHE694  ASN695  SER759  ASP760  ASP761  ALA762  ILE779  LEU786  VAL792 
 PHE793  MET794  SER795  GLU796  ALA797  LYS798  CYS799  TRP800  GLU811  SER814 

> <Gold.Protein.RotatedAtoms>
  150.8197  133.8275  159.3144 H   0  0  0  0  0  0  0  0  0  0  0  0  # atno 6907 bound_to 6896
  151.6037  135.1044  160.0075 H   0  0  0  0  0  0  0  0  0  0  0  0  # atno 6908 bound_to 6896
  152.4286  133.7198  159.6583 H   0  0  0  0  0  0  0  0  0  0  0  0  # atno 6909 bound_to 6896
  146.1003  140.5772  142.8824 H   0  0  0  0  0  0  0  0  0  0  0  0  # atno 7974 bound_to 7965
  154.5553  140.0718  156.8733 H   0  0  0  0  0  0  0  0  0  0  0  0  # atno 8008 bound_to 7997
  155.2915  140.3378  155.4234 H   0  0  0  0  0  0  0  0  0  0  0  0  # atno 8009 bound_to 7997
  156.1996  140.1717  156.7912 H   0  0  0  0  0  0  0  0  0  0  0  0  # atno 8010 bound_to 7997
  139.4946  144.5968  151.6566 H   0  0  0  0  0  0  0  0  0  0  0  0  # atno 10167 bound_to 10162
  156.0913  130.6095  150.8940 H   0  0  0  0  0  0  0  0  0  0  0  0  # atno 10718 bound_to 10713
  153.0071  135.6302  154.2007 H   0  0  0  0  0  0  0  0  0  0  0  0  # atno 10763 bound_to 10752
  154.1750  135.2816  155.3071 H   0  0  0  0  0  0  0  0  0  0  0  0  # atno 10764 bound_to 10752
  154.5879  135.5627  153.7309 H   0  0  0  0  0  0  0  0  0  0  0  0  # atno 10765 bound_to 10752
  140.3386  134.2358  155.7693 H   0  0  0  0  0  0  0  0  0  0  0  0  # atno 11005 bound_to 11000
  144.7427  140.4986  143.6858 LP  0  0  0  0  0  0  0  0  0  0  0  0  # atno 17320 bound_to 7965
  145.5868  139.1492  143.3204 LP  0  0  0  0  0  0  0  0  0  0  0  0  # atno 17321 bound_to 7965
  140.5608  144.0272  150.6169 LP  0  0  0  0  0  0  0  0  0  0  0  0  # atno 17342 bound_to 10162
  140.3357  143.3050  152.0640 LP  0  0  0  0  0  0  0  0  0  0  0  0  # atno 17343 bound_to 10162
  157.6063  131.0939  150.8873 LP  0  0  0  0  0  0  0  0  0  0  0  0  # atno 17370 bound_to 10713
  156.9021  130.5250  149.5282 LP  0  0  0  0  0  0  0  0  0  0  0  0  # atno 17371 bound_to 10713
  141.2044  133.7886  157.0287 LP  0  0  0  0  0  0  0  0  0  0  0  0  # atno 17394 bound_to 11000
  140.0800  134.9654  157.1608 LP  0  0  0  0  0  0  0  0  0  0  0  0  # atno 17395 bound_to 11000

$$$$
