AV-unprocessed.smi:3287|AV-procd|sdf|12604|dock7
  -GOLD-   2272018533D 1   1.00000     0.00000
 Structure written by MMmdl.
 43 44  0  0  0  0  0  0  0  0  2 V2000
  151.3238  139.6932  157.2667 C   0  0  0  0  0  0  0  0  0  0  0  0
  151.3963  140.2200  155.8193 C   0  0  2  0  0  0  0  0  0  0  0  0
  150.0823  140.9118  155.4015 C   0  0  0  0  0  0  0  0  0  0  0  0
  148.9427  139.9096  155.1478 C   0  0  0  0  0  0  0  0  0  0  0  0
  149.3469  138.8523  154.0998 C   0  0  2  0  0  0  0  0  0  0  0  0
  148.2793  137.8502  153.8845 N   0  3  0  0  0  0  0  0  0  0  0  0
  146.9210  138.4017  153.6888 C   0  0  0  0  0  0  0  0  0  0  0  0
  146.5184  138.3966  152.2040 C   0  0  1  0  0  0  0  0  0  0  0  0
  147.6900  138.4162  151.4116 O   0  0  0  0  0  0  0  0  0  0  0  0
  145.6384  137.1985  151.8837 C   0  0  0  0  0  0  0  0  0  0  0  0
  145.9779  136.2963  150.8519 C   0  0  0  0  0  0  0  0  0  0  0  0
  145.1301  135.1965  150.6124 C   0  0  0  0  0  0  0  0  0  0  0  0
  144.0069  134.9583  151.3227 N   0  0  0  0  0  0  0  0  0  0  0  0
  143.6873  135.8232  152.3088 C   0  0  0  0  0  0  0  0  0  0  0  0
  144.4663  136.9532  152.6293 C   0  0  0  0  0  0  0  0  0  0  0  0
  150.6472  138.1444  154.5239 C   0  0  0  0  0  0  0  0  0  0  0  0
  151.7910  139.1487  154.7703 C   0  0  2  0  0  0  0  0  0  0  0  0
  153.1150  138.4369  155.0940 C   0  0  0  0  0  0  0  0  0  0  0  0
  150.6079  138.8790  157.3742 H   0  0  0  0  0  0  0  0  0  0  0  0
  151.0232  140.4859  157.9524 H   0  0  0  0  0  0  0  0  0  0  0  0
  152.2927  139.3308  157.6096 H   0  0  0  0  0  0  0  0  0  0  0  0
  152.1737  140.9855  155.8118 H   0  0  0  0  0  0  0  0  0  0  0  0
  149.7796  141.6359  156.1590 H   0  0  0  0  0  0  0  0  0  0  0  0
  150.2556  141.4868  154.4907 H   0  0  0  0  0  0  0  0  0  0  0  0
  148.6625  139.4215  156.0818 H   0  0  0  0  0  0  0  0  0  0  0  0
  148.0633  140.4615  154.8165 H   0  0  0  0  0  0  0  0  0  0  0  0
  149.5342  139.3527  153.1484 H   0  0  0  0  0  0  0  0  0  0  0  0
  148.5143  137.3299  153.0514 H   0  0  0  0  0  0  0  0  0  0  0  0
  146.1972  137.8336  154.2736 H   0  0  0  0  0  0  0  0  0  0  0  0
  146.9032  139.4261  154.0637 H   0  0  0  0  0  0  0  0  0  0  0  0
  145.9585  139.3058  151.9795 H   0  0  0  0  0  0  0  0  0  0  0  0
  148.2171  139.1559  151.6749 H   0  0  0  0  0  0  0  0  0  0  0  0
  146.8682  136.4373  150.2565 H   0  0  0  0  0  0  0  0  0  0  0  0
  145.3627  134.4878  149.8312 H   0  0  0  0  0  0  0  0  0  0  0  0
  142.7849  135.6076  152.8616 H   0  0  0  0  0  0  0  0  0  0  0  0
  144.1663  137.6117  153.4314 H   0  0  0  0  0  0  0  0  0  0  0  0
  150.4736  137.5499  155.4219 H   0  0  0  0  0  0  0  0  0  0  0  0
  150.9454  137.4392  153.7470 H   0  0  0  0  0  0  0  0  0  0  0  0
  151.9548  139.6777  153.8298 H   0  0  0  0  0  0  0  0  0  0  0  0
  153.0302  137.8057  155.9787 H   0  0  0  0  0  0  0  0  0  0  0  0
  153.9161  139.1555  155.2686 H   0  0  0  0  0  0  0  0  0  0  0  0
  153.4240  137.7966  154.2673 H   0  0  0  0  0  0  0  0  0  0  0  0
  148.2635  137.2097  154.6656 H   0  0  0  0  0  0  0  0  0  0  0  0
  1  2  1  0  0  0  0
  1 19  1  0  0  0  0
  1 20  1  0  0  0  0
  1 21  1  0  0  0  0
  2 17  1  0  0  0  0
  2  3  1  0  0  0  0
  2 22  1  0  0  0  0
  3  4  1  0  0  0  0
  3 23  1  0  0  0  0
  3 24  1  0  0  0  0
  4  5  1  0  0  0  0
  4 25  1  0  0  0  0
  4 26  1  0  0  0  0
  5  6  1  0  0  0  0
  5 16  1  0  0  0  0
  5 27  1  0  0  0  0
  6  7  1  0  0  0  0
  6 28  1  0  0  0  0
  6 43  1  0  0  0  0
  7  8  1  0  0  0  0
  7 29  1  0  0  0  0
  7 30  1  0  0  0  0
  8  9  1  0  0  0  0
  8 10  1  0  0  0  0
  8 31  1  0  0  0  0
  9 32  1  0  0  0  0
 10 15  1  0  0  0  0
 10 11  2  0  0  0  0
 11 12  1  0  0  0  0
 11 33  1  0  0  0  0
 12 13  2  0  0  0  0
 12 34  1  0  0  0  0
 13 14  1  0  0  0  0
 14 15  2  0  0  0  0
 14 35  1  0  0  0  0
 15 36  1  0  0  0  0
 16 17  1  0  0  0  0
 16 37  1  0  0  0  0
 16 38  1  0  0  0  0
 17 18  1  0  0  0  0
 17 39  1  0  0  0  0
 18 40  1  0  0  0  0
 18 41  1  0  0  0  0
 18 42  1  0  0  0  0
M  CHG  1   6   1
M  END
> <s_m_source_file>
AV-unprocessed.smi

> <i_m_source_file_index>
3287

> <i_lp_mmshare_version>
43012

> <i_f3d_flags>
0

> <s_epik_input>
W0NIM11bQ0BASF0xW0NIMl1bQ0gyXVtDQEhdKFtDSDJdW0NASF0xW0NIM10pW05IXVtDSDJdW0NASF0oW09IXSljMltjSF1bY0hdbltjSF1bY0hdMg==

> <s_epik_cmdline>
J2VwaWtfcHl0aG9uJywgJy1waCcsICc3LjAnLCAnLXRuJywgJzgnLCAnLW1hJywgJzIwMCcsICctbWV0YWxfYmluZGluZycsICctaW1hZScsICc8aW5maWxlLm1hZT4nLCAnLW9tYWUnLCAnPG91dGZpbGUubWFlPic=

> <r_lp_tautomer_probability>
1

> <r_epik_Ionization_Penalty>
0.00537262

> <r_epik_Ionization_Penalty_Charging>
0.00321624

> <r_epik_Ionization_Penalty_Neutral>
0.00215638

> <r_epik_State_Penalty>
-0

> <r_epik_Charging_Adjusted_Penalty>
0.00321624

> <i_epik_Tot_Q>
1

> <i_epik_Tot_abs_Q>
1

> <r_epik_Metal_State_Penalty>
-0

> <b_epik_Metal_Only>
0

> <s_lp_Force_Field>
OPLS_2005

> <r_lp_Energy>
17.5476

> <b_lp_Chiralities_Consistent>
1

> <s_lp_Variant>
AV-unprocessed.smi:3287-15

> <Gold.Version>
5.8.1

> <Gold.Id.Protein>
6NUR|6NUR_protein|mol2

> <Gold.PLP.Fitness>
49.6780

> <Gold.PLP.PLP>
-37.1034

> <Gold.PLP.part.hbond>
-4.0000

> <Gold.PLP.part.metal>
0.0000

> <Gold.PLP.part.buried>
1.7639

> <Gold.PLP.part.nonpolar>
-34.2708

> <Gold.PLP.part.repulsive>
0.1882

> <Gold.PLP.ligand.clash>
0.0000

> <Gold.PLP.ligand.torsion>
0.9176

> <Gold.PLP.Chemscore.Hbond>
3.8000

> <Gold.PLP.Chemscore.CHOScore>
0.9974

> <Gold.PLP.Chemscore.Metal>
0.0000

> <Gold.Chemscore.Hbonds>
donor molecule, donor type, donor heavy atom, donor atom, acceptor molecule, acceptor atom, score
      L1  H     6    28       P1  7948  2.00
      L1  H     9    32       P1  7957  0.77
      P1  H  7954  7966       L1     9  1.00
      L1  C    12    34       P1  7921  1.00

> <Gold.PLP.Chemscore.Internal.Correction>
0.0176

> <Gold.Rescore>
     Score         DG    S(hbond)    S(metal)    S(lipo)     H(rot)  DE(clash)    DE(int)     intcor
     17.97     -19.54       2.35        0.00      94.82       1.90       0.70       0.87       ----

> <Gold.Chemscore.Fitness>
17.9710

> <Gold.Chemscore.DG>
-19.5432

> <Gold.Chemscore.ZeroCoef>
-5.4800

> <Gold.Chemscore.Hbond>
2.3478

> <Gold.Chemscore.Metal>
0.0000

> <Gold.Chemscore.Lipo>
94.8246

> <Gold.Chemscore.Internal_Hbond>
0.0000

> <Gold.Chemscore.DEClash>
0.7017

> <Gold.Chemscore.DEInternal>
0.8704

> <Gold.Chemscore.Rot>
1.9035

> <Gold.Chemscore.Internal.Correction>
   9.000000E+99

> <Gold.Chemscore.Hbonds>
donor molecule, donor type, donor heavy atom, donor atom, acceptor molecule, acceptor atom, score
      L1  H     6    28       P1  7948  1.00
      L1  H     9    32       P1  7957  0.71
      P1  H  7954  7966       L1     9  0.67

> <Gold.Chemscore.Hbond.Weighted>
-7.8416

> <Gold.Chemscore.Metal.Weighted>
-0.0000

> <Gold.Chemscore.Lipo.Weighted>
-11.0945

> <Gold.Chemscore.Internal_Hbond.Weighted>
0.0000

> <Gold.Chemscore.DEClash.Weighted>
0.7017

> <Gold.Chemscore.DEInternal.Weighted>
0.8704

> <Gold.Chemscore.Rot.Weighted>
4.8729

> <Gold.Chemscore.Internal.Correction.Weighted>
   9.000000E+99

> <Gold.Protein.RotatedTorsions>
[ 6907 6896 6895 6894 ] final   -5.81 input  -60.11 | X-H torsion
[ 7974 7965 7964 7962 ] final -109.85 input  175.53 | X-H torsion
[ 8008 7997 7996 7995 ] final  133.34 input   59.86 | X-H torsion
[ 10167 10162 10161 10158 ] final    6.49 input  -65.29 | X-H torsion
[ 10718 10713 10712 10709 ] final  108.11 input   66.30 | X-H torsion
[ 10763 10752 10751 10750 ] final   34.29 input  -60.55 | X-H torsion
[ 11005 11000 10999 10996 ] final -164.84 input  -57.11 | X-H torsion

> <Gold.Protein.ActiveResidues>
 VAL166  LYS551  ARG553  GLY616  TRP617  ASP618  TYR619  PRO620  LYS621  CYS622 
 ASP623  PHE694  ASN695  SER759  ASP760  ASP761  ALA762  ILE779  LEU786  VAL792 
 PHE793  MET794  SER795  GLU796  ALA797  LYS798  CYS799  TRP800  GLU811  SER814 

> <Gold.Protein.RotatedAtoms>
  151.4757  135.1049  159.9763 H   0  0  0  0  0  0  0  0  0  0  0  0  # atno 6907 bound_to 6896
  152.4799  133.8225  159.7071 H   0  0  0  0  0  0  0  0  0  0  0  0  # atno 6908 bound_to 6896
  150.8863  133.7242  159.2944 H   0  0  0  0  0  0  0  0  0  0  0  0  # atno 6909 bound_to 6896
  145.1754  140.8946  143.3511 H   0  0  0  0  0  0  0  0  0  0  0  0  # atno 7974 bound_to 7965
  156.2991  140.2524  156.3238 H   0  0  0  0  0  0  0  0  0  0  0  0  # atno 8008 bound_to 7997
  154.9210  140.0401  157.2017 H   0  0  0  0  0  0  0  0  0  0  0  0  # atno 8009 bound_to 7997
  154.8311  140.2876  155.5726 H   0  0  0  0  0  0  0  0  0  0  0  0  # atno 8010 bound_to 7997
  140.6425  143.7740  150.7449 H   0  0  0  0  0  0  0  0  0  0  0  0  # atno 10167 bound_to 10162
  157.6600  131.0887  150.6257 H   0  0  0  0  0  0  0  0  0  0  0  0  # atno 10718 bound_to 10713
  153.0171  135.6364  154.1645 H   0  0  0  0  0  0  0  0  0  0  0  0  # atno 10763 bound_to 10752
  154.1383  135.2836  155.3169 H   0  0  0  0  0  0  0  0  0  0  0  0  # atno 10764 bound_to 10752
  154.6143  135.5546  153.7568 H   0  0  0  0  0  0  0  0  0  0  0  0  # atno 10765 bound_to 10752
  140.5824  134.5128  157.5180 H   0  0  0  0  0  0  0  0  0  0  0  0  # atno 11005 bound_to 11000
  145.0190  139.3441  143.6082 LP  0  0  0  0  0  0  0  0  0  0  0  0  # atno 17320 bound_to 7965
  146.3462  139.9483  142.8732 LP  0  0  0  0  0  0  0  0  0  0  0  0  # atno 17321 bound_to 7965
  140.1375  143.4471  152.2215 LP  0  0  0  0  0  0  0  0  0  0  0  0  # atno 17342 bound_to 10162
  139.5634  144.7420  151.4089 LP  0  0  0  0  0  0  0  0  0  0  0  0  # atno 17343 bound_to 10162
  156.6560  130.4498  149.5703 LP  0  0  0  0  0  0  0  0  0  0  0  0  # atno 17370 bound_to 10713
  156.2102  130.6674  151.1261 LP  0  0  0  0  0  0  0  0  0  0  0  0  # atno 17371 bound_to 10713
  139.9311  134.7961  156.0928 LP  0  0  0  0  0  0  0  0  0  0  0  0  # atno 17394 bound_to 11000
  141.0988  133.6685  156.2706 LP  0  0  0  0  0  0  0  0  0  0  0  0  # atno 17395 bound_to 11000

$$$$
