AV-unprocessed.smi:2123|AV-procd|sdf|8649|dock6
  -GOLD-   2272011393D 1   1.00000     0.00000
 Structure written by MMmdl.
 47 48  0  0  0  0  0  0  0  0  1 V2000
  149.5510  131.3382  154.0223 C   0  0  0  0  0  0  0  0  0  0  0  0
  148.8537  132.6247  155.0901 S   0  0  0  0  0  0  0  0  0  0  0  0
  149.8295  134.0426  154.5221 C   0  0  0  0  0  0  0  0  0  0  0  0
  149.9585  135.1129  155.6191 C   0  0  0  0  0  0  0  0  0  0  0  0
  150.6956  136.3752  155.1599 C   0  0  0  0  0  0  0  0  0  0  0  0
  151.8860  136.5450  155.4261 O   0  0  0  0  0  0  0  0  0  0  0  0
  149.9647  137.2595  154.4639 N   0  0  0  0  0  0  0  0  0  0  0  0
  150.4550  138.5260  153.9314 C   0  0  0  0  0  0  0  0  0  0  0  0
  150.7273  139.5522  155.0164 C   0  0  0  0  0  0  0  0  0  0  0  0
  150.0608  140.7927  155.0243 C   0  0  0  0  0  0  0  0  0  0  0  0
  150.3472  141.7143  156.0497 C   0  0  0  0  0  0  0  0  0  0  0  0
  151.2909  141.3685  157.0467 C   0  0  0  0  0  0  0  0  0  0  0  0
  151.6001  142.2788  158.0808 N   0  0  0  0  0  0  0  0  0  0  0  0
  151.8520  143.6726  157.7205 C   0  0  0  0  0  0  0  0  0  0  0  0
  151.8324  144.5791  158.9666 C   0  0  1  0  0  0  0  0  0  0  0  0
  150.4158  144.8544  159.5022 C   0  0  0  0  0  0  0  0  0  0  0  0
  152.6982  144.0522  159.9743 O   0  0  0  0  0  0  0  0  0  0  0  0
  152.4138  142.7089  160.3634 C   0  0  2  0  0  0  0  0  0  0  0  0
  153.4254  142.3040  161.4408 C   0  0  0  0  0  0  0  0  0  0  0  0
  152.4849  141.7876  159.1322 C   0  0  0  0  0  0  0  0  0  0  0  0
  151.9304  140.1724  157.0319 N   0  0  0  0  0  0  0  0  0  0  0  0
  151.6539  139.2933  156.0462 C   0  0  0  0  0  0  0  0  0  0  0  0
  149.0742  130.3797  154.2273 H   0  0  0  0  0  0  0  0  0  0  0  0
  150.6221  131.2369  154.1974 H   0  0  0  0  0  0  0  0  0  0  0  0
  149.3919  131.5871  152.9730 H   0  0  0  0  0  0  0  0  0  0  0  0
  150.8146  133.6845  154.2195 H   0  0  0  0  0  0  0  0  0  0  0  0
  149.3504  134.4604  153.6358 H   0  0  0  0  0  0  0  0  0  0  0  0
  148.9647  135.3983  155.9671 H   0  0  0  0  0  0  0  0  0  0  0  0
  150.4862  134.6985  156.4789 H   0  0  0  0  0  0  0  0  0  0  0  0
  148.9951  137.0377  154.2900 H   0  0  0  0  0  0  0  0  0  0  0  0
  151.3590  138.3734  153.3391 H   0  0  0  0  0  0  0  0  0  0  0  0
  149.7062  138.9190  153.2430 H   0  0  0  0  0  0  0  0  0  0  0  0
  149.3447  141.0406  154.2549 H   0  0  0  0  0  0  0  0  0  0  0  0
  149.8555  142.6755  156.0488 H   0  0  0  0  0  0  0  0  0  0  0  0
  152.8271  143.7361  157.2357 H   0  0  0  0  0  0  0  0  0  0  0  0
  151.1115  144.0260  157.0016 H   0  0  0  0  0  0  0  0  0  0  0  0
  152.2522  145.5436  158.6799 H   0  0  0  0  0  0  0  0  0  0  0  0
  149.8173  145.3790  158.7570 H   0  0  0  0  0  0  0  0  0  0  0  0
  150.4525  145.4795  160.3945 H   0  0  0  0  0  0  0  0  0  0  0  0
  149.8830  143.9383  159.7557 H   0  0  0  0  0  0  0  0  0  0  0  0
  151.4172  142.6564  160.8023 H   0  0  0  0  0  0  0  0  0  0  0  0
  153.2449  141.2858  161.7863 H   0  0  0  0  0  0  0  0  0  0  0  0
  153.3580  142.9645  162.3056 H   0  0  0  0  0  0  0  0  0  0  0  0
  154.4464  142.3536  161.0617 H   0  0  0  0  0  0  0  0  0  0  0  0
  152.2337  140.7717  159.4332 H   0  0  0  0  0  0  0  0  0  0  0  0
  153.5037  141.7579  158.7434 H   0  0  0  0  0  0  0  0  0  0  0  0
  152.1917  138.3575  156.0812 H   0  0  0  0  0  0  0  0  0  0  0  0
  1  2  1  0  0  0  0
  1 23  1  0  0  0  0
  1 24  1  0  0  0  0
  1 25  1  0  0  0  0
  2  3  1  0  0  0  0
  3  4  1  0  0  0  0
  3 26  1  0  0  0  0
  3 27  1  0  0  0  0
  4  5  1  0  0  0  0
  4 28  1  0  0  0  0
  4 29  1  0  0  0  0
  5  6  2  0  0  0  0
  5  7  1  0  0  0  0
  7  8  1  0  0  0  0
  7 30  1  0  0  0  0
  8  9  1  0  0  0  0
  8 31  1  0  0  0  0
  8 32  1  0  0  0  0
  9 22  1  0  0  0  0
  9 10  2  0  0  0  0
 10 11  1  0  0  0  0
 10 33  1  0  0  0  0
 11 12  2  0  0  0  0
 11 34  1  0  0  0  0
 12 13  1  0  0  0  0
 12 21  1  0  0  0  0
 13 20  1  0  0  0  0
 13 14  1  0  0  0  0
 14 15  1  0  0  0  0
 14 35  1  0  0  0  0
 14 36  1  0  0  0  0
 15 16  1  0  0  0  0
 15 17  1  0  0  0  0
 15 37  1  0  0  0  0
 16 38  1  0  0  0  0
 16 39  1  0  0  0  0
 16 40  1  0  0  0  0
 17 18  1  0  0  0  0
 18 19  1  0  0  0  0
 18 20  1  0  0  0  0
 18 41  1  0  0  0  0
 19 42  1  0  0  0  0
 19 43  1  0  0  0  0
 19 44  1  0  0  0  0
 20 45  1  0  0  0  0
 20 46  1  0  0  0  0
 21 22  2  0  0  0  0
 22 47  1  0  0  0  0
M  END
> <s_m_source_file>
AV-unprocessed.smi

> <i_m_source_file_index>
2123

> <i_lp_mmshare_version>
43012

> <i_f3d_flags>
0

> <s_epik_input>
W0NIM11TW0NIMl1bQ0gyXUMoPU8pW05IXVtDSDJdYzFbY0hdW2NIXWMobltjSF0xKU4yW0NIMl1bQ0BASF0oW0NIM10pT1tDQEBIXShbQ0gzXSlbQ0gyXTI=

> <s_epik_cmdline>
J2VwaWtfcHl0aG9uJywgJy1waCcsICc3LjAnLCAnLXRuJywgJzgnLCAnLW1hJywgJzIwMCcsICctbWV0YWxfYmluZGluZycsICctaW1hZScsICc8aW5maWxlLm1hZT4nLCAnLW9tYWUnLCAnPG91dGZpbGUubWFlPic=

> <r_lp_tautomer_probability>
1

> <r_epik_Ionization_Penalty>
0.00642497

> <r_epik_Ionization_Penalty_Charging>
0

> <r_epik_Ionization_Penalty_Neutral>
0.00642497

> <r_epik_State_Penalty>
0.0047515

> <r_epik_Charging_Adjusted_Penalty>
0.0047515

> <i_epik_Tot_Q>
0

> <i_epik_Tot_abs_Q>
0

> <r_epik_Metal_State_Penalty>
-0

> <b_epik_Metal_Only>
0

> <s_lp_Force_Field>
OPLS_2005

> <r_lp_Energy>
17.9077

> <b_lp_Chiralities_Consistent>
1

> <s_lp_Variant>
AV-unprocessed.smi:2123-3

> <Gold.Version>
5.8.1

> <Gold.Id.Protein>
6NUR|6NUR_protein|mol2

> <Gold.PLP.Fitness>
49.7542

> <Gold.PLP.PLP>
-47.7076

> <Gold.PLP.part.hbond>
-2.0000

> <Gold.PLP.part.metal>
0.0000

> <Gold.PLP.part.buried>
-4.4618

> <Gold.PLP.part.nonpolar>
-40.7099

> <Gold.PLP.part.repulsive>
0.1467

> <Gold.PLP.ligand.clash>
0.0000

> <Gold.PLP.ligand.torsion>
0.7064

> <Gold.PLP.Chemscore.Hbond>
1.0000

> <Gold.PLP.Chemscore.CHOScore>
0.0000

> <Gold.PLP.Chemscore.Metal>
0.0000

> <Gold.Chemscore.Hbonds>
donor molecule, donor type, donor heavy atom, donor atom, acceptor molecule, acceptor atom, score
      P1  H 10752 10763       L1     6  0.99

> <Gold.PLP.Chemscore.Internal.Correction>
0.4594

> <Gold.Rescore>
     Score         DG    S(hbond)    S(metal)    S(lipo)     H(rot)  DE(clash)    DE(int)     intcor
     16.61     -18.81       0.99        0.00     123.06       1.70       0.30       1.90       ----

> <Gold.Chemscore.Fitness>
16.6050

> <Gold.Chemscore.DG>
-18.8081

> <Gold.Chemscore.ZeroCoef>
-5.4800

> <Gold.Chemscore.Hbond>
0.9863

> <Gold.Chemscore.Metal>
0.0000

> <Gold.Chemscore.Lipo>
123.0646

> <Gold.Chemscore.Internal_Hbond>
0.0000

> <Gold.Chemscore.DEClash>
0.3024

> <Gold.Chemscore.DEInternal>
1.9007

> <Gold.Chemscore.Rot>
1.7049

> <Gold.Chemscore.Internal.Correction>
   9.000000E+99

> <Gold.Chemscore.Hbonds>
donor molecule, donor type, donor heavy atom, donor atom, acceptor molecule, acceptor atom, score
      P1  H 10752 10763       L1     6  0.94

> <Gold.Chemscore.Hbond.Weighted>
-3.2942

> <Gold.Chemscore.Metal.Weighted>
-0.0000

> <Gold.Chemscore.Lipo.Weighted>
-14.3986

> <Gold.Chemscore.Internal_Hbond.Weighted>
0.0000

> <Gold.Chemscore.DEClash.Weighted>
0.3024

> <Gold.Chemscore.DEInternal.Weighted>
1.9007

> <Gold.Chemscore.Rot.Weighted>
4.3647

> <Gold.Chemscore.Internal.Correction.Weighted>
   9.000000E+99

> <Gold.Protein.RotatedTorsions>
[ 6907 6896 6895 6894 ] final   38.03 input  -60.11 | X-H torsion
[ 7974 7965 7964 7962 ] final    9.06 input  175.53 | X-H torsion
[ 8008 7997 7996 7995 ] final   21.82 input   59.86 | X-H torsion
[ 10167 10162 10161 10158 ] final   40.88 input  -65.29 | X-H torsion
[ 10718 10713 10712 10709 ] final  -12.05 input   66.30 | X-H torsion
[ 10763 10752 10751 10750 ] final   88.06 input  -60.55 | X-H torsion
[ 11005 11000 10999 10996 ] final   54.20 input  -57.11 | X-H torsion

> <Gold.Protein.ActiveResidues>
 VAL166  LYS551  ARG553  GLY616  TRP617  ASP618  TYR619  PRO620  LYS621  CYS622 
 ASP623  PHE694  ASN695  SER759  ASP760  ASP761  ALA762  ILE779  LEU786  VAL792 
 PHE793  MET794  SER795  GLU796  ALA797  LYS798  CYS799  TRP800  GLU811  SER814 

> <Gold.Protein.RotatedAtoms>
  152.1510  134.8988  160.0547 H   0  0  0  0  0  0  0  0  0  0  0  0  # atno 6907 bound_to 6896
  152.0020  133.3824  159.4194 H   0  0  0  0  0  0  0  0  0  0  0  0  # atno 6908 bound_to 6896
  150.6875  134.3745  159.5051 H   0  0  0  0  0  0  0  0  0  0  0  0  # atno 6909 bound_to 6896
  146.2408  139.9839  142.8433 H   0  0  0  0  0  0  0  0  0  0  0  0  # atno 7974 bound_to 7965
  154.9563  140.3072  155.5051 H   0  0  0  0  0  0  0  0  0  0  0  0  # atno 8008 bound_to 7997
  156.2982  140.2309  156.4583 H   0  0  0  0  0  0  0  0  0  0  0  0  # atno 8009 bound_to 7997
  154.8007  140.0434  157.1259 H   0  0  0  0  0  0  0  0  0  0  0  0  # atno 8010 bound_to 7997
  140.3698  144.2120  150.6133 H   0  0  0  0  0  0  0  0  0  0  0  0  # atno 10167 bound_to 10162
  156.6502  130.4952  149.6064 H   0  0  0  0  0  0  0  0  0  0  0  0  # atno 10718 bound_to 10713
  153.1731  135.4520  154.9928 H   0  0  0  0  0  0  0  0  0  0  0  0  # atno 10763 bound_to 10752
  154.7979  135.3244  154.7624 H   0  0  0  0  0  0  0  0  0  0  0  0  # atno 10764 bound_to 10752
  153.8098  135.6956  153.4897 H   0  0  0  0  0  0  0  0  0  0  0  0  # atno 10765 bound_to 10752
  140.0705  134.5476  155.9052 H   0  0  0  0  0  0  0  0  0  0  0  0  # atno 11005 bound_to 11000
  145.1566  140.9651  143.4402 LP  0  0  0  0  0  0  0  0  0  0  0  0  # atno 17320 bound_to 7965
  145.0156  139.3471  143.6098 LP  0  0  0  0  0  0  0  0  0  0  0  0  # atno 17321 bound_to 7965
  140.5045  143.2308  151.8629 LP  0  0  0  0  0  0  0  0  0  0  0  0  # atno 17342 bound_to 10162
  139.4805  144.5022  151.9046 LP  0  0  0  0  0  0  0  0  0  0  0  0  # atno 17343 bound_to 10162
  156.2090  130.6667  151.1249 LP  0  0  0  0  0  0  0  0  0  0  0  0  # atno 17370 bound_to 10713
  157.7143  131.0718  150.6385 LP  0  0  0  0  0  0  0  0  0  0  0  0  # atno 17371 bound_to 10713
  141.2010  133.6616  156.5926 LP  0  0  0  0  0  0  0  0  0  0  0  0  # atno 17394 bound_to 11000
  140.3634  134.7668  157.4549 LP  0  0  0  0  0  0  0  0  0  0  0  0  # atno 17395 bound_to 11000

$$$$
