AV-unprocessed.smi:1268|AV-procd|sdf|5323|dock9
  -GOLD-   22720 4453D 1   1.00000     0.00000
 Structure written by MMmdl.
 40 41  0  0  0  0  0  0  0  0  2 V2000
  147.0395  139.2538  154.9383 O   0  0  0  0  0  0  0  0  0  0  0  0
  147.7694  139.2061  153.9480 C   0  0  0  0  0  0  0  0  0  0  0  0
  147.3719  138.7222  152.7626 N   0  0  0  0  0  0  0  0  0  0  0  0
  146.0524  138.1644  152.4841 C   0  0  0  0  0  0  0  0  0  0  0  0
  146.1349  136.8091  151.7500 C   0  0  2  0  0  0  0  0  0  0  0  0
  146.2621  137.0588  150.3637 O   0  0  0  0  0  0  0  0  0  0  0  0
  144.8457  135.9832  151.9420 C   0  0  0  0  0  0  0  0  0  0  0  0
  144.8986  134.6648  151.2580 N   0  3  0  0  0  0  0  0  0  0  0  0
  143.7484  133.7969  151.6232 C   0  0  0  0  0  0  0  0  0  0  0  0
  143.7458  132.4967  150.8017 C   0  0  0  0  0  0  0  0  0  0  0  0
  145.0704  131.7409  150.9653 C   0  0  0  0  0  0  0  0  0  0  0  0
  146.2432  132.6628  150.6086 C   0  0  0  0  0  0  0  0  0  0  0  0
  146.1963  133.9590  151.4353 C   0  0  0  0  0  0  0  0  0  0  0  0
  149.0473  139.6212  153.9021 N   0  0  0  0  0  0  0  0  0  0  0  0
  149.8252  140.1825  154.9488 C   0  0  0  0  0  0  0  0  0  0  0  0
  151.1454  140.0105  155.0836 N   0  0  0  0  0  0  0  0  0  0  0  0
  151.6498  140.6794  156.2017 C   0  0  0  0  0  0  0  0  0  0  0  0
  150.6923  141.3579  156.9137 C   0  0  0  0  0  0  0  0  0  0  0  0
  149.1096  141.1834  156.2035 S   0  0  0  0  0  0  0  0  0  0  0  0
  148.0368  138.7201  152.0028 H   0  0  0  0  0  0  0  0  0  0  0  0
  145.5822  138.0225  153.4576 H   0  0  0  0  0  0  0  0  0  0  0  0
  145.4224  138.8779  151.9491 H   0  0  0  0  0  0  0  0  0  0  0  0
  147.0037  136.2532  152.1019 H   0  0  0  0  0  0  0  0  0  0  0  0
  145.5900  137.6731  150.1057 H   0  0  0  0  0  0  0  0  0  0  0  0
  144.6430  135.8264  153.0026 H   0  0  0  0  0  0  0  0  0  0  0  0
  144.0055  136.5643  151.5577 H   0  0  0  0  0  0  0  0  0  0  0  0
  143.7874  133.5693  152.6896 H   0  0  0  0  0  0  0  0  0  0  0  0
  142.8134  134.3301  151.4460 H   0  0  0  0  0  0  0  0  0  0  0  0
  142.9146  131.8622  151.1101 H   0  0  0  0  0  0  0  0  0  0  0  0
  143.5835  132.7289  149.7482 H   0  0  0  0  0  0  0  0  0  0  0  0
  145.1733  131.3933  151.9942 H   0  0  0  0  0  0  0  0  0  0  0  0
  145.0803  130.8533  150.3322 H   0  0  0  0  0  0  0  0  0  0  0  0
  147.1878  132.1455  150.7786 H   0  0  0  0  0  0  0  0  0  0  0  0
  146.2097  132.9045  149.5453 H   0  0  0  0  0  0  0  0  0  0  0  0
  147.0231  134.5990  151.1300 H   0  0  0  0  0  0  0  0  0  0  0  0
  146.3472  133.7329  152.4921 H   0  0  0  0  0  0  0  0  0  0  0  0
  149.5242  139.5136  153.0192 H   0  0  0  0  0  0  0  0  0  0  0  0
  152.7065  140.6190  156.4171 H   0  0  0  0  0  0  0  0  0  0  0  0
  150.8219  141.9476  157.8088 H   0  0  0  0  0  0  0  0  0  0  0  0
  144.7995  134.8601  150.2715 H   0  0  0  0  0  0  0  0  0  0  0  0
  1  2  2  0  0  0  0
  2  3  1  0  0  0  0
  2 14  1  0  0  0  0
  3  4  1  0  0  0  0
  3 20  1  0  0  0  0
  4  5  1  0  0  0  0
  4 21  1  0  0  0  0
  4 22  1  0  0  0  0
  5  6  1  0  0  0  0
  5  7  1  0  0  0  0
  5 23  1  0  0  0  0
  6 24  1  0  0  0  0
  7  8  1  0  0  0  0
  7 25  1  0  0  0  0
  7 26  1  0  0  0  0
  8 13  1  0  0  0  0
  8  9  1  0  0  0  0
  8 40  1  0  0  0  0
  9 10  1  0  0  0  0
  9 27  1  0  0  0  0
  9 28  1  0  0  0  0
 10 11  1  0  0  0  0
 10 29  1  0  0  0  0
 10 30  1  0  0  0  0
 11 12  1  0  0  0  0
 11 31  1  0  0  0  0
 11 32  1  0  0  0  0
 12 13  1  0  0  0  0
 12 33  1  0  0  0  0
 12 34  1  0  0  0  0
 13 35  1  0  0  0  0
 13 36  1  0  0  0  0
 14 15  1  0  0  0  0
 14 37  1  0  0  0  0
 15 19  1  0  0  0  0
 15 16  2  0  0  0  0
 16 17  1  0  0  0  0
 17 18  2  0  0  0  0
 17 38  1  0  0  0  0
 18 19  1  0  0  0  0
 18 39  1  0  0  0  0
M  CHG  1   8   1
M  END
> <s_m_source_file>
AV-unprocessed.smi

> <i_m_source_file_index>
1268

> <i_lp_mmshare_version>
43012

> <i_f3d_flags>
0

> <s_epik_input>
czFbY0hdW2NIXW5jMVtOSF1DKD1PKVtOSF1bQ0gyXVtDQEhdKFtPSF0pW0NIMl1OMltDSDJdW0NIMl1bQ0gyXVtDSDJdW0NIMl0y

> <s_epik_cmdline>
J2VwaWtfcHl0aG9uJywgJy1waCcsICc3LjAnLCAnLXRuJywgJzgnLCAnLW1hJywgJzIwMCcsICctbWV0YWxfYmluZGluZycsICctaW1hZScsICc8aW5maWxlLm1hZT4nLCAnLW9tYWUnLCAnPG91dGZpbGUubWFlPic=

> <r_lp_tautomer_probability>
0.999

> <r_epik_Ionization_Penalty>
0.00539631

> <r_epik_Ionization_Penalty_Charging>
0.00525788

> <r_epik_Ionization_Penalty_Neutral>
0.000138432

> <r_epik_State_Penalty>
0.0038355

> <r_epik_Charging_Adjusted_Penalty>
0.00909338

> <i_epik_Tot_Q>
1

> <i_epik_Tot_abs_Q>
1

> <r_epik_Metal_State_Penalty>
0.0500806

> <b_epik_Metal_Only>
0

> <s_lp_Force_Field>
OPLS_2005

> <r_lp_Energy>
16.7111

> <b_lp_Chiralities_Consistent>
1

> <s_lp_Variant>
AV-unprocessed.smi:1268-1

> <Gold.Version>
5.8.1

> <Gold.Id.Protein>
6NUR|6NUR_protein|mol2

> <Gold.PLP.Fitness>
48.3280

> <Gold.PLP.PLP>
-36.2149

> <Gold.PLP.part.hbond>
-5.8381

> <Gold.PLP.part.metal>
0.0000

> <Gold.PLP.part.buried>
-2.4882

> <Gold.PLP.part.nonpolar>
-28.0063

> <Gold.PLP.part.repulsive>
0.3352

> <Gold.PLP.ligand.clash>
0.0000

> <Gold.PLP.ligand.torsion>
0.6176

> <Gold.PLP.Chemscore.Hbond>
4.4420

> <Gold.PLP.Chemscore.CHOScore>
0.0000

> <Gold.PLP.Chemscore.Metal>
0.0000

> <Gold.Chemscore.Hbonds>
donor molecule, donor type, donor heavy atom, donor atom, acceptor molecule, acceptor atom, score
      L1  H     3    20       P1  7957  0.49
      L1  H     6    24       P1 10171  1.00
      L1  H    14    37       P1  7957  0.94
      P1  H  7954  7966       L1     6  0.64
      P1  H  7989  7998       L1    16  0.85

> <Gold.PLP.Chemscore.Internal.Correction>
0.0222

> <Gold.Rescore>
     Score         DG    S(hbond)    S(metal)    S(lipo)     H(rot)  DE(clash)    DE(int)     intcor
     20.79     -24.59       4.87        0.00      79.80       2.54       2.33       1.47       ----

> <Gold.Chemscore.Fitness>
20.7859

> <Gold.Chemscore.DG>
-24.5880

> <Gold.Chemscore.ZeroCoef>
-5.4800

> <Gold.Chemscore.Hbond>
4.8712

> <Gold.Chemscore.Metal>
0.0000

> <Gold.Chemscore.Lipo>
79.7978

> <Gold.Chemscore.Internal_Hbond>
0.0000

> <Gold.Chemscore.DEClash>
2.3330

> <Gold.Chemscore.DEInternal>
1.4691

> <Gold.Chemscore.Rot>
2.5383

> <Gold.Chemscore.Internal.Correction>
   9.000000E+99

> <Gold.Chemscore.Hbonds>
donor molecule, donor type, donor heavy atom, donor atom, acceptor molecule, acceptor atom, score
      L1  H     3    20       P1  7957  0.45
      L1  H     6    24       P1 10171  0.99
      L1  H    14    37       P1  7957  0.90
      P1  H  7954  7966       L1     6  0.36
      P1  H  7989  7998       L1    16  0.11

> <Gold.Chemscore.Hbond.Weighted>
-16.2697

> <Gold.Chemscore.Metal.Weighted>
-0.0000

> <Gold.Chemscore.Lipo.Weighted>
-9.3363

> <Gold.Chemscore.Internal_Hbond.Weighted>
0.0000

> <Gold.Chemscore.DEClash.Weighted>
2.3330

> <Gold.Chemscore.DEInternal.Weighted>
1.4691

> <Gold.Chemscore.Rot.Weighted>
6.4981

> <Gold.Chemscore.Internal.Correction.Weighted>
   9.000000E+99

> <Gold.Protein.RotatedTorsions>
[ 6907 6896 6895 6894 ] final   47.99 input  -60.11 | X-H torsion
[ 7974 7965 7964 7962 ] final -164.70 input  175.53 | X-H torsion
[ 8008 7997 7996 7995 ] final   70.51 input   59.86 | X-H torsion
[ 10167 10162 10161 10158 ] final   28.66 input  -65.29 | X-H torsion
[ 10718 10713 10712 10709 ] final  -20.51 input   66.30 | X-H torsion
[ 10763 10752 10751 10750 ] final   96.61 input  -60.55 | X-H torsion
[ 11005 11000 10999 10996 ] final   87.24 input  -57.11 | X-H torsion

> <Gold.Protein.ActiveResidues>
 VAL166  LYS551  ARG553  GLY616  TRP617  ASP618  TYR619  PRO620  LYS621  CYS622 
 ASP623  PHE694  ASN695  SER759  ASP760  ASP761  ALA762  ILE779  LEU786  VAL792 
 PHE793  MET794  SER795  GLU796  ALA797  LYS798  CYS799  TRP800  GLU811  SER814 

> <Gold.Protein.RotatedAtoms>
  152.2744  134.7898  160.0408 H   0  0  0  0  0  0  0  0  0  0  0  0  # atno 6907 bound_to 6896
  151.8499  133.3433  159.3678 H   0  0  0  0  0  0  0  0  0  0  0  0  # atno 6908 bound_to 6896
  150.7164  134.5237  159.5710 H   0  0  0  0  0  0  0  0  0  0  0  0  # atno 6909 bound_to 6896
  144.7290  140.2923  143.6218 H   0  0  0  0  0  0  0  0  0  0  0  0  # atno 7974 bound_to 7965
  155.7399  140.3490  155.5099 H   0  0  0  0  0  0  0  0  0  0  0  0  # atno 8008 bound_to 7997
  155.9104  140.1049  157.1305 H   0  0  0  0  0  0  0  0  0  0  0  0  # atno 8009 bound_to 7997
  154.4055  140.1269  156.4536 H   0  0  0  0  0  0  0  0  0  0  0  0  # atno 8010 bound_to 7997
  140.4833  144.0582  150.6272 H   0  0  0  0  0  0  0  0  0  0  0  0  # atno 10167 bound_to 10162
  156.5308  130.4655  149.6548 H   0  0  0  0  0  0  0  0  0  0  0  0  # atno 10718 bound_to 10713
  153.2670  135.4212  155.0950 H   0  0  0  0  0  0  0  0  0  0  0  0  # atno 10763 bound_to 10752
  154.8441  135.3463  154.6298 H   0  0  0  0  0  0  0  0  0  0  0  0  # atno 10764 bound_to 10752
  153.6718  135.7043  153.5202 H   0  0  0  0  0  0  0  0  0  0  0  0  # atno 10765 bound_to 10752
  139.8924  134.8409  156.2832 H   0  0  0  0  0  0  0  0  0  0  0  0  # atno 11005 bound_to 11000
  145.7843  139.1903  143.2140 LP  0  0  0  0  0  0  0  0  0  0  0  0  # atno 17320 bound_to 7965
  146.0808  140.7766  142.9642 LP  0  0  0  0  0  0  0  0  0  0  0  0  # atno 17321 bound_to 7965
  140.3830  143.2792  152.0149 LP  0  0  0  0  0  0  0  0  0  0  0  0  # atno 17342 bound_to 10162
  139.4837  144.6139  151.7382 LP  0  0  0  0  0  0  0  0  0  0  0  0  # atno 17343 bound_to 10162
  156.3061  130.7203  151.2086 LP  0  0  0  0  0  0  0  0  0  0  0  0  # atno 17370 bound_to 10713
  157.7422  131.0493  150.5042 LP  0  0  0  0  0  0  0  0  0  0  0  0  # atno 17371 bound_to 10713
  141.0025  133.7143  156.0982 LP  0  0  0  0  0  0  0  0  0  0  0  0  # atno 17394 bound_to 11000
  140.7479  134.4078  157.5546 LP  0  0  0  0  0  0  0  0  0  0  0  0  # atno 17395 bound_to 11000

$$$$
