AV-unprocessed.smi:2020|AV-procd|sdf|8174|dock8
  -GOLD-   2272010423D 1   1.00000     0.00000
 Structure written by MMmdl.
 40 41  0  0  0  0  0  0  0  0  1 V2000
  151.7918  138.9421  155.1737 C   0  0  0  0  0  0  0  0  0  0  0  0
  150.5858  139.7822  154.9286 C   0  0  0  0  0  0  0  0  0  0  0  0
  149.5520  139.3843  154.1833 N   0  0  0  0  0  0  0  0  0  0  0  0
  148.5395  140.3461  154.1084 C   0  0  0  0  0  0  0  0  0  0  0  0
  147.2989  140.0663  153.3158 C   0  0  0  0  0  0  0  0  0  0  0  0
  146.5111  138.8689  153.8735 C   0  0  0  0  0  0  0  0  0  0  0  0
  146.7510  137.6571  153.0985 N   0  0  0  0  0  0  0  0  0  0  0  0
  145.9091  136.6173  153.0185 C   0  0  0  0  0  0  0  0  0  0  0  0
  144.8231  136.5627  153.5962 O   0  0  0  0  0  0  0  0  0  0  0  0
  146.3956  135.6428  152.2371 N   0  0  0  0  0  0  0  0  0  0  0  0
  145.7234  134.3793  151.9495 C   0  0  2  0  0  0  0  0  0  0  0  0
  146.3907  133.6661  150.7560 C   0  0  0  0  0  0  0  0  0  0  0  0
  145.6578  132.3617  150.3975 C   0  0  0  0  0  0  0  0  0  0  0  0
  144.1559  132.5873  150.1412 C   0  0  2  0  0  0  0  0  0  0  0  0
  143.9719  133.3007  148.9343 O   0  0  0  0  0  0  0  0  0  0  0  0
  143.4891  133.3423  151.3066 C   0  0  0  0  0  0  0  0  0  0  0  0
  144.2335  134.6411  151.6626 C   0  0  0  0  0  0  0  0  0  0  0  0
  148.8256  141.4882  154.8140 C   0  0  0  0  0  0  0  0  0  0  0  0
  150.3775  141.3950  155.6007 S   0  0  0  0  0  0  0  0  0  0  0  0
  152.0465  138.3746  154.2781 H   0  0  0  0  0  0  0  0  0  0  0  0
  151.5993  138.2450  155.9893 H   0  0  0  0  0  0  0  0  0  0  0  0
  152.6417  139.5700  155.4418 H   0  0  0  0  0  0  0  0  0  0  0  0
  146.6581  140.9489  153.3074 H   0  0  0  0  0  0  0  0  0  0  0  0
  147.5636  139.8808  152.2741 H   0  0  0  0  0  0  0  0  0  0  0  0
  146.7632  138.6975  154.9215 H   0  0  0  0  0  0  0  0  0  0  0  0
  145.4424  139.0821  153.8425 H   0  0  0  0  0  0  0  0  0  0  0  0
  147.6201  137.6078  152.5870 H   0  0  0  0  0  0  0  0  0  0  0  0
  147.2982  135.7844  151.8078 H   0  0  0  0  0  0  0  0  0  0  0  0
  145.7909  133.7359  152.8289 H   0  0  0  0  0  0  0  0  0  0  0  0
  146.4022  134.3285  149.8892 H   0  0  0  0  0  0  0  0  0  0  0  0
  147.4336  133.4437  150.9847 H   0  0  0  0  0  0  0  0  0  0  0  0
  146.1248  131.8951  149.5295 H   0  0  0  0  0  0  0  0  0  0  0  0
  145.7752  131.6554  151.2204 H   0  0  0  0  0  0  0  0  0  0  0  0
  143.6662  131.6210  150.0169 H   0  0  0  0  0  0  0  0  0  0  0  0
  144.8165  133.5902  148.6244 H   0  0  0  0  0  0  0  0  0  0  0  0
  142.4471  133.5600  151.0690 H   0  0  0  0  0  0  0  0  0  0  0  0
  143.4710  132.6950  152.1844 H   0  0  0  0  0  0  0  0  0  0  0  0
  143.7624  135.1045  152.5304 H   0  0  0  0  0  0  0  0  0  0  0  0
  144.1336  135.3534  150.8423 H   0  0  0  0  0  0  0  0  0  0  0  0
  148.2188  142.3753  154.9198 H   0  0  0  0  0  0  0  0  0  0  0  0
  1  2  1  0  0  0  0
  1 20  1  0  0  0  0
  1 21  1  0  0  0  0
  1 22  1  0  0  0  0
  2 19  1  0  0  0  0
  2  3  2  0  0  0  0
  3  4  1  0  0  0  0
  4  5  1  0  0  0  0
  4 18  2  0  0  0  0
  5  6  1  0  0  0  0
  5 23  1  0  0  0  0
  5 24  1  0  0  0  0
  6  7  1  0  0  0  0
  6 25  1  0  0  0  0
  6 26  1  0  0  0  0
  7  8  1  0  0  0  0
  7 27  1  0  0  0  0
  8  9  2  0  0  0  0
  8 10  1  0  0  0  0
 10 11  1  0  0  0  0
 10 28  1  0  0  0  0
 11 17  1  0  0  0  0
 11 12  1  0  0  0  0
 11 29  1  0  0  0  0
 12 13  1  0  0  0  0
 12 30  1  0  0  0  0
 12 31  1  0  0  0  0
 13 14  1  0  0  0  0
 13 32  1  0  0  0  0
 13 33  1  0  0  0  0
 14 15  1  0  0  0  0
 14 16  1  0  0  0  0
 14 34  1  0  0  0  0
 15 35  1  0  0  0  0
 16 17  1  0  0  0  0
 16 36  1  0  0  0  0
 16 37  1  0  0  0  0
 17 38  1  0  0  0  0
 17 39  1  0  0  0  0
 18 19  1  0  0  0  0
 18 40  1  0  0  0  0
M  END
> <s_m_source_file>
AV-unprocessed.smi

> <i_m_source_file_index>
2020

> <i_lp_mmshare_version>
43012

> <i_f3d_flags>
0

> <s_epik_input>
W0NIM11jMW5jKFtjSF1zMSlbQ0gyXVtDSDJdW05IXUMoPU8pW05IXVtDQEBIXTJbQ0gyXVtDSDJdW0NAQEhdKFtPSF0pW0NIMl1bQ0gyXTI=

> <s_epik_cmdline>
J2VwaWtfcHl0aG9uJywgJy1waCcsICc3LjAnLCAnLXRuJywgJzgnLCAnLW1hJywgJzIwMCcsICctbWV0YWxfYmluZGluZycsICctaW1hZScsICc8aW5maWxlLm1hZT4nLCAnLW9tYWUnLCAnPG91dGZpbGUubWFlPic=

> <r_epik_Ionization_Penalty>
0.00202099

> <r_epik_Ionization_Penalty_Charging>
0

> <r_epik_Ionization_Penalty_Neutral>
0.00202099

> <r_epik_State_Penalty>
0.00133629

> <r_epik_Charging_Adjusted_Penalty>
0.00133629

> <i_epik_Tot_Q>
0

> <i_epik_Tot_abs_Q>
0

> <r_epik_Metal_State_Penalty>
-0

> <b_epik_Metal_Only>
0

> <s_lp_Force_Field>
OPLS_2005

> <r_lp_Energy>
2.55027

> <b_lp_Chiralities_Consistent>
1

> <s_lp_Variant>
AV-unprocessed.smi:2020-2

> <Gold.Version>
5.8.1

> <Gold.Id.Protein>
6NUR|6NUR_protein|mol2

> <Gold.PLP.Fitness>
46.7252

> <Gold.PLP.PLP>
-36.5533

> <Gold.PLP.part.hbond>
-3.1853

> <Gold.PLP.part.metal>
0.0000

> <Gold.PLP.part.buried>
-2.6434

> <Gold.PLP.part.nonpolar>
-29.6370

> <Gold.PLP.part.repulsive>
0.4855

> <Gold.PLP.ligand.clash>
0.0000

> <Gold.PLP.ligand.torsion>
0.6636

> <Gold.PLP.Chemscore.Hbond>
2.8480

> <Gold.PLP.Chemscore.CHOScore>
0.9804

> <Gold.PLP.Chemscore.Metal>
0.0000

> <Gold.Chemscore.Hbonds>
donor molecule, donor type, donor heavy atom, donor atom, acceptor molecule, acceptor atom, score
      L1  H     7    27       P1  7948  0.82
      L1  H    10    28       P1  7948  1.00
      L1  H    15    35       P1  7921  0.98
      L1  C    18    40       P1  8028  1.00

> <Gold.PLP.Chemscore.Internal.Correction>
0.0139

> <Gold.Rescore>
     Score         DG    S(hbond)    S(metal)    S(lipo)     H(rot)  DE(clash)    DE(int)     intcor
     17.57     -19.87       2.77        0.00      89.79       2.10       0.09       2.22       ----

> <Gold.Chemscore.Fitness>
17.5659

> <Gold.Chemscore.DG>
-19.8702

> <Gold.Chemscore.ZeroCoef>
-5.4800

> <Gold.Chemscore.Hbond>
2.7724

> <Gold.Chemscore.Metal>
0.0000

> <Gold.Chemscore.Lipo>
89.7907

> <Gold.Chemscore.Internal_Hbond>
0.0000

> <Gold.Chemscore.DEClash>
0.0860

> <Gold.Chemscore.DEInternal>
2.2183

> <Gold.Chemscore.Rot>
2.0997

> <Gold.Chemscore.Internal.Correction>
   9.000000E+99

> <Gold.Chemscore.Hbonds>
donor molecule, donor type, donor heavy atom, donor atom, acceptor molecule, acceptor atom, score
      L1  H     7    27       P1  7948  0.75
      L1  H    10    28       P1  7948  0.97
      L1  H    15    35       P1  7921  0.83

> <Gold.Chemscore.Hbond.Weighted>
-9.2599

> <Gold.Chemscore.Metal.Weighted>
-0.0000

> <Gold.Chemscore.Lipo.Weighted>
-10.5055

> <Gold.Chemscore.Internal_Hbond.Weighted>
0.0000

> <Gold.Chemscore.DEClash.Weighted>
0.0860

> <Gold.Chemscore.DEInternal.Weighted>
2.2183

> <Gold.Chemscore.Rot.Weighted>
5.3752

> <Gold.Chemscore.Internal.Correction.Weighted>
   9.000000E+99

> <Gold.Protein.RotatedTorsions>
[ 6907 6896 6895 6894 ] final  -52.59 input  -60.11 | X-H torsion
[ 7974 7965 7964 7962 ] final  135.55 input  175.53 | X-H torsion
[ 8008 7997 7996 7995 ] final  -43.25 input   59.86 | X-H torsion
[ 10167 10162 10161 10158 ] final  -87.84 input  -65.29 | X-H torsion
[ 10718 10713 10712 10709 ] final -151.89 input   66.30 | X-H torsion
[ 10763 10752 10751 10750 ] final   88.35 input  -60.55 | X-H torsion
[ 11005 11000 10999 10996 ] final   -5.21 input  -57.11 | X-H torsion

> <Gold.Protein.ActiveResidues>
 VAL166  LYS551  ARG553  GLY616  TRP617  ASP618  TYR619  PRO620  LYS621  CYS622 
 ASP623  PHE694  ASN695  SER759  ASP760  ASP761  ALA762  ILE779  LEU786  VAL792 
 PHE793  MET794  SER795  GLU796  ALA797  LYS798  CYS799  TRP800  GLU811  SER814 

> <Gold.Protein.RotatedAtoms>
  150.8503  134.7826  159.7003 H   0  0  0  0  0  0  0  0  0  0  0  0  # atno 6907 bound_to 6896
  152.4570  134.5267  159.9808 H   0  0  0  0  0  0  0  0  0  0  0  0  # atno 6908 bound_to 6896
  151.5389  133.3398  159.2967 H   0  0  0  0  0  0  0  0  0  0  0  0  # atno 6909 bound_to 6896
  144.9652  139.4666  143.5460 H   0  0  0  0  0  0  0  0  0  0  0  0  # atno 7974 bound_to 7965
  154.3997  140.1452  156.3489 H   0  0  0  0  0  0  0  0  0  0  0  0  # atno 8008 bound_to 7997
  155.8287  140.3466  155.5538 H   0  0  0  0  0  0  0  0  0  0  0  0  # atno 8009 bound_to 7997
  155.8211  140.0898  157.1839 H   0  0  0  0  0  0  0  0  0  0  0  0  # atno 8010 bound_to 7997
  140.3805  143.2751  151.9389 H   0  0  0  0  0  0  0  0  0  0  0  0  # atno 10167 bound_to 10162
  156.4652  130.8232  151.2463 H   0  0  0  0  0  0  0  0  0  0  0  0  # atno 10718 bound_to 10713
  153.1759  135.4510  154.9965 H   0  0  0  0  0  0  0  0  0  0  0  0  # atno 10763 bound_to 10752
  154.7998  135.3251  154.7581 H   0  0  0  0  0  0  0  0  0  0  0  0  # atno 10764 bound_to 10752
  153.8051  135.6959  153.4904 H   0  0  0  0  0  0  0  0  0  0  0  0  # atno 10765 bound_to 10752
  140.6886  133.9091  155.8603 H   0  0  0  0  0  0  0  0  0  0  0  0  # atno 11005 bound_to 11000
  146.3365  139.8828  142.8821 LP  0  0  0  0  0  0  0  0  0  0  0  0  # atno 17320 bound_to 7965
  145.2640  141.0087  143.3810 LP  0  0  0  0  0  0  0  0  0  0  0  0  # atno 17321 bound_to 7965
  139.4796  144.5823  151.7912 LP  0  0  0  0  0  0  0  0  0  0  0  0  # atno 17342 bound_to 10162
  140.4942  144.1265  150.5956 LP  0  0  0  0  0  0  0  0  0  0  0  0  # atno 17343 bound_to 10162
  157.7495  131.0094  150.3266 LP  0  0  0  0  0  0  0  0  0  0  0  0  # atno 17370 bound_to 10713
  156.3675  130.3857  149.7202 LP  0  0  0  0  0  0  0  0  0  0  0  0  # atno 17371 bound_to 10713
  141.0259  134.0823  157.4068 LP  0  0  0  0  0  0  0  0  0  0  0  0  # atno 17394 bound_to 11000
  139.8930  135.0128  156.6876 LP  0  0  0  0  0  0  0  0  0  0  0  0  # atno 17395 bound_to 11000

$$$$
