AV-unprocessed.smi:2232|AV-procd|sdf|9039|dock6
  -GOLD-   2272012243D 1   1.00000     0.00000
 Structure written by MMmdl.
 43 44  0  0  0  0  0  0  0  0  2 V2000
  153.3692  140.9779  159.8275 C   0  0  0  0  0  0  0  0  0  0  0  0
  152.5792  142.1440  159.2713 C   0  0  0  0  0  0  0  0  0  0  0  0
  152.6692  143.4214  159.8563 C   0  0  0  0  0  0  0  0  0  0  0  0
  151.9077  144.4650  159.2946 C   0  0  0  0  0  0  0  0  0  0  0  0
  151.9581  145.8643  159.8706 C   0  0  0  0  0  0  0  0  0  0  0  0
  151.0985  144.2944  158.2274 N   0  0  0  0  0  0  0  0  0  0  0  0
  151.0027  143.0679  157.6568 C   0  0  0  0  0  0  0  0  0  0  0  0
  150.1771  142.7837  156.5366 N   0  0  0  0  0  0  0  0  0  0  0  0
  149.7035  141.5903  156.1373 C   0  0  0  0  0  0  0  0  0  0  0  0
  149.8938  140.5177  156.7118 O   0  0  0  0  0  0  0  0  0  0  0  0
  148.9841  141.7014  155.0108 N   0  0  0  0  0  0  0  0  0  0  0  0
  148.3421  140.5863  154.3242 C   0  0  0  0  0  0  0  0  0  0  0  0
  146.9827  140.9981  153.7260 C   0  0  0  0  0  0  0  0  0  0  0  0
  146.0324  139.8618  153.6391 N   0  3  0  0  0  0  0  0  0  0  0  0
  146.4577  138.8475  152.6448 C   0  0  0  0  0  0  0  0  0  0  0  0
  145.4245  137.7120  152.5549 C   0  0  0  0  0  0  0  0  0  0  0  0
  145.2459  137.1276  153.8387 O   0  0  0  0  0  0  0  0  0  0  0  0
  144.7526  138.0667  154.7856 C   0  0  0  0  0  0  0  0  0  0  0  0
  145.7601  139.2175  154.9486 C   0  0  0  0  0  0  0  0  0  0  0  0
  151.7340  141.9674  158.1572 C   0  0  0  0  0  0  0  0  0  0  0  0
  154.1481  141.3188  160.5102 H   0  0  0  0  0  0  0  0  0  0  0  0
  153.8456  140.4206  159.0203 H   0  0  0  0  0  0  0  0  0  0  0  0
  152.7090  140.3013  160.3706 H   0  0  0  0  0  0  0  0  0  0  0  0
  153.3043  143.5969  160.7124 H   0  0  0  0  0  0  0  0  0  0  0  0
  152.6046  145.9086  160.7475 H   0  0  0  0  0  0  0  0  0  0  0  0
  150.9603  146.1893  160.1669 H   0  0  0  0  0  0  0  0  0  0  0  0
  152.3419  146.5651  159.1287 H   0  0  0  0  0  0  0  0  0  0  0  0
  149.9308  143.5800  155.9677 H   0  0  0  0  0  0  0  0  0  0  0  0
  148.8711  142.6185  154.6034 H   0  0  0  0  0  0  0  0  0  0  0  0
  149.0183  140.2055  153.5584 H   0  0  0  0  0  0  0  0  0  0  0  0
  148.2023  139.7792  155.0439 H   0  0  0  0  0  0  0  0  0  0  0  0
  146.5547  141.7734  154.3634 H   0  0  0  0  0  0  0  0  0  0  0  0
  147.1040  141.4456  152.7383 H   0  0  0  0  0  0  0  0  0  0  0  0
  146.5747  139.3132  151.6655 H   0  0  0  0  0  0  0  0  0  0  0  0
  147.4316  138.4440  152.9271 H   0  0  0  0  0  0  0  0  0  0  0  0
  144.4713  138.0806  152.1725 H   0  0  0  0  0  0  0  0  0  0  0  0
  145.7698  136.9441  151.8624 H   0  0  0  0  0  0  0  0  0  0  0  0
  143.7783  138.4430  154.4698 H   0  0  0  0  0  0  0  0  0  0  0  0
  144.6039  137.5605  155.7396 H   0  0  0  0  0  0  0  0  0  0  0  0
  146.6917  138.8369  155.3705 H   0  0  0  0  0  0  0  0  0  0  0  0
  145.3625  139.9425  155.6576 H   0  0  0  0  0  0  0  0  0  0  0  0
  151.6486  140.9949  157.6940 H   0  0  0  0  0  0  0  0  0  0  0  0
  145.1573  140.2383  153.3040 H   0  0  0  0  0  0  0  0  0  0  0  0
  1  2  1  0  0  0  0
  1 21  1  0  0  0  0
  1 22  1  0  0  0  0
  1 23  1  0  0  0  0
  2 20  1  0  0  0  0
  2  3  2  0  0  0  0
  3  4  1  0  0  0  0
  3 24  1  0  0  0  0
  4  5  1  0  0  0  0
  4  6  2  0  0  0  0
  5 25  1  0  0  0  0
  5 26  1  0  0  0  0
  5 27  1  0  0  0  0
  6  7  1  0  0  0  0
  7  8  1  0  0  0  0
  7 20  2  0  0  0  0
  8  9  1  0  0  0  0
  8 28  1  0  0  0  0
  9 10  2  0  0  0  0
  9 11  1  0  0  0  0
 11 12  1  0  0  0  0
 11 29  1  0  0  0  0
 12 13  1  0  0  0  0
 12 30  1  0  0  0  0
 12 31  1  0  0  0  0
 13 14  1  0  0  0  0
 13 32  1  0  0  0  0
 13 33  1  0  0  0  0
 14 19  1  0  0  0  0
 14 15  1  0  0  0  0
 14 43  1  0  0  0  0
 15 16  1  0  0  0  0
 15 34  1  0  0  0  0
 15 35  1  0  0  0  0
 16 17  1  0  0  0  0
 16 36  1  0  0  0  0
 16 37  1  0  0  0  0
 17 18  1  0  0  0  0
 18 19  1  0  0  0  0
 18 38  1  0  0  0  0
 18 39  1  0  0  0  0
 19 40  1  0  0  0  0
 19 41  1  0  0  0  0
 20 42  1  0  0  0  0
M  CHG  1  14   1
M  END
> <s_m_source_file>
AV-unprocessed.smi

> <i_m_source_file_index>
2232

> <i_lp_mmshare_version>
43012

> <i_f3d_flags>
0

> <s_epik_input>
W0NIM11jMVtjSF1jKFtDSDNdKW5jKFtjSF0xKVtOSF1DKD1PKVtOSF1bQ0gyXVtDSDJdTjJbQ0gyXVtDSDJdT1tDSDJdW0NIMl0y

> <s_epik_cmdline>
J2VwaWtfcHl0aG9uJywgJy1waCcsICc3LjAnLCAnLXRuJywgJzgnLCAnLW1hJywgJzIwMCcsICctbWV0YWxfYmluZGluZycsICctaW1hZScsICc8aW5maWxlLm1hZT4nLCAnLW9tYWUnLCAnPG91dGZpbGUubWFlPic=

> <r_epik_Ionization_Penalty>
0.602717

> <r_epik_Ionization_Penalty_Charging>
0.602531

> <r_epik_Ionization_Penalty_Neutral>
0.000186219

> <r_epik_State_Penalty>
0.617039

> <r_epik_Charging_Adjusted_Penalty>
1.21957

> <i_epik_Tot_Q>
1

> <i_epik_Tot_abs_Q>
1

> <r_epik_Metal_State_Penalty>
0.617067

> <b_epik_Metal_Only>
0

> <s_lp_Force_Field>
OPLS_2005

> <r_lp_Energy>
15.6528

> <b_lp_Chiralities_Consistent>
1

> <s_lp_Variant>
AV-unprocessed.smi:2232-2

> <Gold.Version>
5.8.1

> <Gold.Id.Protein>
6NUR|6NUR_protein|mol2

> <Gold.PLP.Fitness>
51.5221

> <Gold.PLP.PLP>
-42.2133

> <Gold.PLP.part.hbond>
-2.8516

> <Gold.PLP.part.metal>
0.0000

> <Gold.PLP.part.buried>
-4.8492

> <Gold.PLP.part.nonpolar>
-35.2479

> <Gold.PLP.part.repulsive>
0.5880

> <Gold.PLP.ligand.clash>
0.0000

> <Gold.PLP.ligand.torsion>
0.4520

> <Gold.PLP.Chemscore.Hbond>
3.3971

> <Gold.PLP.Chemscore.CHOScore>
0.0000

> <Gold.PLP.Chemscore.Metal>
0.0000

> <Gold.Chemscore.Hbonds>
donor molecule, donor type, donor heavy atom, donor atom, acceptor molecule, acceptor atom, score
      L1  H     8    28       P1  8028  0.96
      L1  H    11    29       P1  8028  0.15
      L1  H    14    43       P1 10175  2.00

> <Gold.PLP.Chemscore.Internal.Correction>
0.0217

> <Gold.Rescore>
     Score         DG    S(hbond)    S(metal)    S(lipo)     H(rot)  DE(clash)    DE(int)     intcor
     20.33     -22.46       2.77        0.00      98.65       1.49       0.24       1.88       ----

> <Gold.Chemscore.Fitness>
20.3336

> <Gold.Chemscore.DG>
-22.4611

> <Gold.Chemscore.ZeroCoef>
-5.4800

> <Gold.Chemscore.Hbond>
2.7727

> <Gold.Chemscore.Metal>
0.0000

> <Gold.Chemscore.Lipo>
98.6513

> <Gold.Chemscore.Internal_Hbond>
0.0000

> <Gold.Chemscore.DEClash>
0.2434

> <Gold.Chemscore.DEInternal>
1.8840

> <Gold.Chemscore.Rot>
1.4930

> <Gold.Chemscore.Internal.Correction>
   9.000000E+99

> <Gold.Chemscore.Hbonds>
donor molecule, donor type, donor heavy atom, donor atom, acceptor molecule, acceptor atom, score
      L1  H     8    28       P1  8028  0.89
      L1  H    11    29       P1  8028  0.15
      L1  H    14    43       P1 10175  1.00

> <Gold.Chemscore.Hbond.Weighted>
-9.2609

> <Gold.Chemscore.Metal.Weighted>
-0.0000

> <Gold.Chemscore.Lipo.Weighted>
-11.5422

> <Gold.Chemscore.Internal_Hbond.Weighted>
0.0000

> <Gold.Chemscore.DEClash.Weighted>
0.2434

> <Gold.Chemscore.DEInternal.Weighted>
1.8840

> <Gold.Chemscore.Rot.Weighted>
3.8220

> <Gold.Chemscore.Internal.Correction.Weighted>
   9.000000E+99

> <Gold.Protein.RotatedTorsions>
[ 6907 6896 6895 6894 ] final  147.19 input  -60.11 | X-H torsion
[ 7974 7965 7964 7962 ] final   -4.31 input  175.53 | X-H torsion
[ 8008 7997 7996 7995 ] final   -7.63 input   59.86 | X-H torsion
[ 10167 10162 10161 10158 ] final  123.41 input  -65.29 | X-H torsion
[ 10718 10713 10712 10709 ] final  -94.43 input   66.30 | X-H torsion
[ 10763 10752 10751 10750 ] final   31.30 input  -60.55 | X-H torsion
[ 11005 11000 10999 10996 ] final   49.04 input  -57.11 | X-H torsion

> <Gold.Protein.ActiveResidues>
 VAL166  LYS551  ARG553  GLY616  TRP617  ASP618  TYR619  PRO620  LYS621  CYS622 
 ASP623  PHE694  ASN695  SER759  ASP760  ASP761  ALA762  ILE779  LEU786  VAL792 
 PHE793  MET794  SER795  GLU796  ALA797  LYS798  CYS799  TRP800  GLU811  SER814 

> <Gold.Protein.RotatedAtoms>
  152.1580  133.4563  159.4846 H   0  0  0  0  0  0  0  0  0  0  0  0  # atno 6907 bound_to 6896
  150.6903  134.2107  159.4367 H   0  0  0  0  0  0  0  0  0  0  0  0  # atno 6908 bound_to 6896
  152.0008  134.9929  160.0615 H   0  0  0  0  0  0  0  0  0  0  0  0  # atno 6909 bound_to 6896
  146.2374  140.1853  142.8332 H   0  0  0  0  0  0  0  0  0  0  0  0  # atno 7974 bound_to 7965
  154.5819  140.2402  155.8041 H   0  0  0  0  0  0  0  0  0  0  0  0  # atno 8008 bound_to 7997
  156.2186  140.3004  155.9853 H   0  0  0  0  0  0  0  0  0  0  0  0  # atno 8009 bound_to 7997
  155.2525  140.0411  157.2979 H   0  0  0  0  0  0  0  0  0  0  0  0  # atno 8010 bound_to 7997
  139.5801  144.6982  151.3551 H   0  0  0  0  0  0  0  0  0  0  0  0  # atno 10167 bound_to 10162
  156.0027  130.5067  150.5926 H   0  0  0  0  0  0  0  0  0  0  0  0  # atno 10718 bound_to 10713
  153.0323  135.6442  154.1179 H   0  0  0  0  0  0  0  0  0  0  0  0  # atno 10763 bound_to 10752
  154.0899  135.2867  155.3275 H   0  0  0  0  0  0  0  0  0  0  0  0  # atno 10764 bound_to 10752
  154.6472  135.5439  153.7922 H   0  0  0  0  0  0  0  0  0  0  0  0  # atno 10765 bound_to 10752
  140.1138  134.4920  155.8655 H   0  0  0  0  0  0  0  0  0  0  0  0  # atno 11005 bound_to 11000
  144.9902  140.8539  143.5344 LP  0  0  0  0  0  0  0  0  0  0  0  0  # atno 17320 bound_to 7965
  145.1858  139.2327  143.5269 LP  0  0  0  0  0  0  0  0  0  0  0  0  # atno 17321 bound_to 7965
  140.7080  143.7464  150.7516 LP  0  0  0  0  0  0  0  0  0  0  0  0  # atno 17342 bound_to 10162
  140.0994  143.4802  152.2434 LP  0  0  0  0  0  0  0  0  0  0  0  0  # atno 17343 bound_to 10162
  157.3788  131.0777  151.1495 LP  0  0  0  0  0  0  0  0  0  0  0  0  # atno 17370 bound_to 10713
  157.2224  130.6487  149.5816 LP  0  0  0  0  0  0  0  0  0  0  0  0  # atno 17371 bound_to 10713
  141.2136  133.6736  156.6756 LP  0  0  0  0  0  0  0  0  0  0  0  0  # atno 17394 bound_to 11000
  140.3056  134.8128  157.4134 LP  0  0  0  0  0  0  0  0  0  0  0  0  # atno 17395 bound_to 11000

$$$$
