AV-unprocessed.smi:1978|AV-procd|sdf|8011|dock1
  -GOLD-   2272010203D 1   1.00000     0.00000
 Structure written by MMmdl.
 44 45  0  0  0  0  0  0  0  0  3 V2000
  147.1844  135.7870  162.6404 C   0  0  0  0  0  0  0  0  0  0  0  0
  147.5019  136.0393  161.2067 C   0  0  0  0  0  0  0  0  0  0  0  0
  147.7740  135.2101  160.1554 C   0  0  0  0  0  0  0  0  0  0  0  0
  147.9802  136.1134  159.0789 C   0  0  0  0  0  0  0  0  0  0  0  0
  148.2914  135.6314  157.7802 N   0  0  0  0  0  0  0  0  0  0  0  0
  148.8979  134.4823  157.4309 C   0  0  0  0  0  0  0  0  0  0  0  0
  149.2649  133.6803  158.2980 O   0  0  0  0  0  0  0  0  0  0  0  0
  149.0387  134.3644  156.0817 N   0  5  0  0  0  0  0  0  0  0  0  0
  148.2288  135.0724  155.0884 C   0  0  0  0  0  0  0  0  0  0  0  0
  147.4138  134.0740  154.2170 C   0  0  1  0  0  0  0  0  0  0  0  0
  146.4093  133.1977  155.0086 C   0  0  0  0  0  0  0  0  0  0  0  0
  146.7741  134.7821  153.0539 N   0  3  2  0  0  0  0  0  0  0  0  0
  146.0015  136.0092  153.4321 C   0  0  0  0  0  0  0  0  0  0  0  0
  145.6164  136.8396  152.2020 C   0  0  0  0  0  0  0  0  0  0  0  0
  144.7762  135.9976  151.2424 C   0  0  0  0  0  0  0  0  0  0  0  0
  145.5472  134.7288  150.8697 C   0  0  0  0  0  0  0  0  0  0  0  0
  145.9896  133.9147  152.1085 C   0  0  1  0  0  0  0  0  0  0  0  0
  146.7612  132.6736  151.6080 C   0  0  0  0  0  0  0  0  0  0  0  0
  147.8486  137.3807  159.4427 N   0  0  0  0  0  0  0  0  0  0  0  0
  147.5421  137.3395  160.8081 O   0  0  0  0  0  0  0  0  0  0  0  0
  146.9867  134.7291  162.8142 H   0  0  0  0  0  0  0  0  0  0  0  0
  146.3024  136.3497  162.9465 H   0  0  0  0  0  0  0  0  0  0  0  0
  148.0163  136.0859  163.2778 H   0  0  0  0  0  0  0  0  0  0  0  0
  147.8157  134.1313  160.1568 H   0  0  0  0  0  0  0  0  0  0  0  0
  148.0286  136.2369  157.0170 H   0  0  0  0  0  0  0  0  0  0  0  0
  147.5514  135.8025  155.5329 H   0  0  0  0  0  0  0  0  0  0  0  0
  148.8730  135.6534  154.4272 H   0  0  0  0  0  0  0  0  0  0  0  0
  148.1646  133.3878  153.8386 H   0  0  0  0  0  0  0  0  0  0  0  0
  146.9146  132.5522  155.7290 H   0  0  0  0  0  0  0  0  0  0  0  0
  145.8597  132.5370  154.3381 H   0  0  0  0  0  0  0  0  0  0  0  0
  145.6774  133.7867  155.5638 H   0  0  0  0  0  0  0  0  0  0  0  0
  145.0949  135.7268  153.9689 H   0  0  0  0  0  0  0  0  0  0  0  0
  146.5773  136.6430  154.1064 H   0  0  0  0  0  0  0  0  0  0  0  0
  145.0567  137.7238  152.5088 H   0  0  0  0  0  0  0  0  0  0  0  0
  146.5153  137.1984  151.6986 H   0  0  0  0  0  0  0  0  0  0  0  0
  143.8268  135.7331  151.7100 H   0  0  0  0  0  0  0  0  0  0  0  0
  144.5373  136.5709  150.3463 H   0  0  0  0  0  0  0  0  0  0  0  0
  144.9237  134.1131  150.2204 H   0  0  0  0  0  0  0  0  0  0  0  0
  146.4238  135.0029  150.2805 H   0  0  0  0  0  0  0  0  0  0  0  0
  145.0952  133.5702  152.6299 H   0  0  0  0  0  0  0  0  0  0  0  0
  146.2480  132.2076  150.7664 H   0  0  0  0  0  0  0  0  0  0  0  0
  146.8424  131.8967  152.3674 H   0  0  0  0  0  0  0  0  0  0  0  0
  147.7653  132.9363  151.2730 H   0  0  0  0  0  0  0  0  0  0  0  0
  147.5582  135.1100  152.5079 H   0  0  0  0  0  0  0  0  0  0  0  0
  1  2  1  0  0  0  0
  1 21  1  0  0  0  0
  1 22  1  0  0  0  0
  1 23  1  0  0  0  0
  2 20  1  0  0  0  0
  2  3  2  0  0  0  0
  3  4  1  0  0  0  0
  3 24  1  0  0  0  0
  4  5  1  0  0  0  0
  4 19  2  0  0  0  0
  5  6  1  0  0  0  0
  5 25  1  0  0  0  0
  6  7  2  0  0  0  0
  6  8  1  0  0  0  0
  8  9  1  0  0  0  0
  9 10  1  0  0  0  0
  9 26  1  0  0  0  0
  9 27  1  0  0  0  0
 10 11  1  0  0  0  0
 10 12  1  0  0  0  0
 10 28  1  0  0  0  0
 11 29  1  0  0  0  0
 11 30  1  0  0  0  0
 11 31  1  0  0  0  0
 12 17  1  0  0  0  0
 12 13  1  0  0  0  0
 12 44  1  0  0  0  0
 13 14  1  0  0  0  0
 13 32  1  0  0  0  0
 13 33  1  0  0  0  0
 14 15  1  0  0  0  0
 14 34  1  0  0  0  0
 14 35  1  0  0  0  0
 15 16  1  0  0  0  0
 15 36  1  0  0  0  0
 15 37  1  0  0  0  0
 16 17  1  0  0  0  0
 16 38  1  0  0  0  0
 16 39  1  0  0  0  0
 17 18  1  0  0  0  0
 17 40  1  0  0  0  0
 18 41  1  0  0  0  0
 18 42  1  0  0  0  0
 18 43  1  0  0  0  0
 19 20  1  0  0  0  0
M  CHG  1   8  -1
M  CHG  1  12   1
M  END
> <s_m_source_file>
AV-unprocessed.smi

> <i_m_source_file_index>
1978

> <i_lp_mmshare_version>
43012

> <i_f3d_flags>
0

> <s_epik_input>
W0NIM11jMVtjSF1jKG5vMSlbTkhdQyg9TylbTkhdW0NIMl1bQ0BIXShbQ0gzXSlOMltDSDJdW0NIMl1bQ0gyXVtDSDJdW0NASF0yW0NIM10=

> <s_epik_cmdline>
J2VwaWtfcHl0aG9uJywgJy1waCcsICc3LjAnLCAnLXRuJywgJzgnLCAnLW1hJywgJzIwMCcsICctbWV0YWxfYmluZGluZycsICctaW1hZScsICc8aW5maWxlLm1hZT4nLCAnLW9tYWUnLCAnPG91dGZpbGUubWFlPic=

> <r_epik_Ionization_Penalty>
6.7666

> <r_epik_Ionization_Penalty_Charging>
6.7666

> <r_epik_Ionization_Penalty_Neutral>
5.77131e-06

> <r_epik_State_Penalty>
6.79217

> <r_epik_Charging_Adjusted_Penalty>
13.5588

> <i_epik_Tot_Q>
0

> <i_epik_Tot_abs_Q>
2

> <r_epik_Metal_State_Penalty>
2.72569

> <b_epik_Metal_Only>
1

> <s_lp_Force_Field>
OPLS_2005

> <r_lp_Energy>
21.6667

> <b_lp_Chiralities_Consistent>
1

> <s_lp_Variant>
AV-unprocessed.smi:1978-20

> <Gold.Version>
5.8.1

> <Gold.Id.Protein>
6NUR|6NUR_protein|mol2

> <Gold.PLP.Fitness>
41.4858

> <Gold.PLP.PLP>
-28.5450

> <Gold.PLP.part.hbond>
-4.5546

> <Gold.PLP.part.metal>
0.0000

> <Gold.PLP.part.buried>
-2.1319

> <Gold.PLP.part.nonpolar>
-21.7894

> <Gold.PLP.part.repulsive>
0.0727

> <Gold.PLP.ligand.clash>
0.0001

> <Gold.PLP.ligand.torsion>
0.4075

> <Gold.PLP.Chemscore.Hbond>
4.4640

> <Gold.PLP.Chemscore.CHOScore>
0.0000

> <Gold.PLP.Chemscore.Metal>
0.0000

> <Gold.Chemscore.Hbonds>
donor molecule, donor type, donor heavy atom, donor atom, acceptor molecule, acceptor atom, score
      L1  H    12    44       P1  7948  2.00
      P1  H  6896  6909       L1     7  0.98
      P1  H  6931  6943       L1    20  0.70
      P1  H  6934  6947       L1    20  0.74

> <Gold.PLP.Chemscore.Internal.Correction>
0.3640

> <Gold.Rescore>
     Score         DG    S(hbond)    S(metal)    S(lipo)     H(rot)  DE(clash)    DE(int)     intcor
     17.85     -18.68       3.04        0.00      59.34       1.52       0.01       0.82       ----

> <Gold.Chemscore.Fitness>
17.8458

> <Gold.Chemscore.DG>
-18.6781

> <Gold.Chemscore.ZeroCoef>
-5.4800

> <Gold.Chemscore.Hbond>
3.0372

> <Gold.Chemscore.Metal>
0.0000

> <Gold.Chemscore.Lipo>
59.3365

> <Gold.Chemscore.Internal_Hbond>
0.0000

> <Gold.Chemscore.DEClash>
0.0139

> <Gold.Chemscore.DEInternal>
0.8185

> <Gold.Chemscore.Rot>
1.5190

> <Gold.Chemscore.Internal.Correction>
   9.000000E+99

> <Gold.Chemscore.Hbonds>
donor molecule, donor type, donor heavy atom, donor atom, acceptor molecule, acceptor atom, score
      L1  H    12    44       P1  7948  0.99
      P1  H  6896  6909       L1     7  0.93
      P1  H  6931  6943       L1    20  0.29
      P1  H  6934  6947       L1    20  0.09

> <Gold.Chemscore.Hbond.Weighted>
-10.1444

> <Gold.Chemscore.Metal.Weighted>
-0.0000

> <Gold.Chemscore.Lipo.Weighted>
-6.9424

> <Gold.Chemscore.Internal_Hbond.Weighted>
0.0000

> <Gold.Chemscore.DEClash.Weighted>
0.0139

> <Gold.Chemscore.DEInternal.Weighted>
0.8185

> <Gold.Chemscore.Rot.Weighted>
3.8886

> <Gold.Chemscore.Internal.Correction.Weighted>
   9.000000E+99

> <Gold.Protein.RotatedTorsions>
[ 6907 6896 6895 6894 ] final  -10.64 input  -60.11 | X-H torsion
[ 7974 7965 7964 7962 ] final   48.62 input  175.53 | X-H torsion
[ 8008 7997 7996 7995 ] final  155.76 input   59.86 | X-H torsion
[ 10167 10162 10161 10158 ] final -153.63 input  -65.29 | X-H torsion
[ 10718 10713 10712 10709 ] final -129.79 input   66.30 | X-H torsion
[ 10763 10752 10751 10750 ] final -168.53 input  -60.55 | X-H torsion
[ 11005 11000 10999 10996 ] final  125.69 input  -57.11 | X-H torsion

> <Gold.Protein.ActiveResidues>
 VAL166  LYS551  ARG553  GLY616  TRP617  ASP618  TYR619  PRO620  LYS621  CYS622 
 ASP623  PHE694  ASN695  SER759  ASP760  ASP761  ALA762  ILE779  LEU786  VAL792 
 PHE793  MET794  SER795  GLU796  ALA797  LYS798  CYS799  TRP800  GLU811  SER814 

> <Gold.Protein.RotatedAtoms>
  151.3987  135.0967  159.9548 H   0  0  0  0  0  0  0  0  0  0  0  0  # atno 6907 bound_to 6896
  152.5057  133.8909  159.7404 H   0  0  0  0  0  0  0  0  0  0  0  0  # atno 6908 bound_to 6896
  150.9378  133.6635  159.2825 H   0  0  0  0  0  0  0  0  0  0  0  0  # atno 6909 bound_to 6896
  146.0187  139.4626  142.9911 H   0  0  0  0  0  0  0  0  0  0  0  0  # atno 7974 bound_to 7965
  156.2460  140.1930  156.6852 H   0  0  0  0  0  0  0  0  0  0  0  0  # atno 8008 bound_to 7997
  154.6292  140.0598  156.9738 H   0  0  0  0  0  0  0  0  0  0  0  0  # atno 8009 bound_to 7997
  155.1737  140.3270  155.4390 H   0  0  0  0  0  0  0  0  0  0  0  0  # atno 8010 bound_to 7997
  139.7081  143.9153  152.2457 H   0  0  0  0  0  0  0  0  0  0  0  0  # atno 10167 bound_to 10162
  156.2081  130.6901  151.0618 H   0  0  0  0  0  0  0  0  0  0  0  0  # atno 10718 bound_to 10713
  154.6619  135.2926  154.9855 H   0  0  0  0  0  0  0  0  0  0  0  0  # atno 10763 bound_to 10752
  154.0912  135.6590  153.4857 H   0  0  0  0  0  0  0  0  0  0  0  0  # atno 10764 bound_to 10752
  153.0435  135.5220  154.7574 H   0  0  0  0  0  0  0  0  0  0  0  0  # atno 10765 bound_to 10752
  139.9419  134.9634  156.8596 H   0  0  0  0  0  0  0  0  0  0  0  0  # atno 11005 bound_to 11000
  145.7228  141.0069  143.1393 LP  0  0  0  0  0  0  0  0  0  0  0  0  # atno 17320 bound_to 7965
  144.6981  139.8890  143.7452 LP  0  0  0  0  0  0  0  0  0  0  0  0  # atno 17321 bound_to 7965
  139.9014  144.6909  150.8661 LP  0  0  0  0  0  0  0  0  0  0  0  0  # atno 17342 bound_to 10162
  140.7726  143.3511  151.2013 LP  0  0  0  0  0  0  0  0  0  0  0  0  # atno 17343 bound_to 10162
  157.7023  131.0771  150.6779 LP  0  0  0  0  0  0  0  0  0  0  0  0  # atno 17370 bound_to 10713
  156.6838  130.4575  149.5620 LP  0  0  0  0  0  0  0  0  0  0  0  0  # atno 17371 bound_to 10713
  140.5931  134.0243  155.7507 LP  0  0  0  0  0  0  0  0  0  0  0  0  # atno 17394 bound_to 11000
  141.1056  133.9699  157.3002 LP  0  0  0  0  0  0  0  0  0  0  0  0  # atno 17395 bound_to 11000

$$$$
