AV-unprocessed.smi:2416|AV-procd|sdf|9546|dock3
  -GOLD-   2272013173D 1   1.00000     0.00000
 Structure written by MMmdl.
 40 41  0  0  0  0  0  0  0  0  1 V2000
  150.5684  131.0235  158.0730 C   0  0  0  0  0  0  0  0  0  0  0  0
  150.2405  132.3719  157.7590 O   0  0  0  0  0  0  0  0  0  0  0  0
  150.7724  132.9136  156.5417 C   0  0  1  0  0  0  0  0  0  0  0  0
  152.3057  132.8911  156.5697 C   0  0  0  0  0  0  0  0  0  0  0  0
  150.0318  132.3237  155.3265 C   0  0  0  0  0  0  0  0  0  0  0  0
  148.9582  133.3852  155.5564 C   0  0  2  0  0  0  0  0  0  0  0  0
  148.4216  133.9152  154.3072 N   0  0  0  0  0  0  0  0  0  0  0  0
  147.4409  133.3404  153.5975 C   0  0  0  0  0  0  0  0  0  0  0  0
  146.8828  132.2959  153.9345 O   0  0  0  0  0  0  0  0  0  0  0  0
  147.1612  134.0518  152.4913 N   0  0  0  0  0  0  0  0  0  0  0  0
  146.1744  133.7895  151.5041 C   0  0  0  0  0  0  0  0  0  0  0  0
  146.0241  132.4277  151.1565 C   0  0  0  0  0  0  0  0  0  0  0  0
  145.0725  132.0612  150.1848 C   0  0  0  0  0  0  0  0  0  0  0  0
  144.2969  133.0689  149.5849 C   0  0  0  0  0  0  0  0  0  0  0  0
  143.3696  132.7651  148.6461 F   0  0  0  0  0  0  0  0  0  0  0  0
  144.5097  134.4010  149.9853 C   0  0  0  0  0  0  0  0  0  0  0  0
  145.4208  134.7535  150.9173 N   0  0  0  0  0  0  0  0  0  0  0  0
  150.0409  134.2626  156.2374 C   0  0  0  0  0  0  0  0  0  0  0  0
  149.5783  135.0772  157.4508 C   0  0  0  0  0  0  0  0  0  0  0  0
  150.7994  135.2529  155.3333 C   0  0  0  0  0  0  0  0  0  0  0  0
  149.9858  130.7093  158.9389 H   0  0  0  0  0  0  0  0  0  0  0  0
  151.6199  130.9153  158.3381 H   0  0  0  0  0  0  0  0  0  0  0  0
  150.3409  130.3382  157.2572 H   0  0  0  0  0  0  0  0  0  0  0  0
  152.7347  133.3965  155.7053 H   0  0  0  0  0  0  0  0  0  0  0  0
  152.6986  131.8750  156.5497 H   0  0  0  0  0  0  0  0  0  0  0  0
  152.6924  133.3845  157.4617 H   0  0  0  0  0  0  0  0  0  0  0  0
  150.5823  132.4534  154.3930 H   0  0  0  0  0  0  0  0  0  0  0  0
  149.6751  131.2996  155.4288 H   0  0  0  0  0  0  0  0  0  0  0  0
  148.1921  133.0388  156.2540 H   0  0  0  0  0  0  0  0  0  0  0  0
  148.8286  134.7715  153.9609 H   0  0  0  0  0  0  0  0  0  0  0  0
  147.7178  134.8798  152.3395 H   0  0  0  0  0  0  0  0  0  0  0  0
  146.6296  131.6672  151.6283 H   0  0  0  0  0  0  0  0  0  0  0  0
  144.9413  131.0259  149.9063 H   0  0  0  0  0  0  0  0  0  0  0  0
  143.9355  135.2040  149.5475 H   0  0  0  0  0  0  0  0  0  0  0  0
  149.0258  135.9681  157.1505 H   0  0  0  0  0  0  0  0  0  0  0  0
  150.4235  135.4021  158.0581 H   0  0  0  0  0  0  0  0  0  0  0  0
  148.9146  134.5038  158.0984 H   0  0  0  0  0  0  0  0  0  0  0  0
  150.1632  136.0816  155.0205 H   0  0  0  0  0  0  0  0  0  0  0  0
  151.1731  134.7794  154.4254 H   0  0  0  0  0  0  0  0  0  0  0  0
  151.6588  135.6848  155.8473 H   0  0  0  0  0  0  0  0  0  0  0  0
  1  2  1  0  0  0  0
  1 21  1  0  0  0  0
  1 22  1  0  0  0  0
  1 23  1  0  0  0  0
  2  3  1  0  0  0  0
  3 18  1  0  0  0  0
  3  4  1  0  0  0  0
  3  5  1  0  0  0  0
  4 24  1  0  0  0  0
  4 25  1  0  0  0  0
  4 26  1  0  0  0  0
  5  6  1  0  0  0  0
  5 27  1  0  0  0  0
  5 28  1  0  0  0  0
  6  7  1  0  0  0  0
  6 18  1  0  0  0  0
  6 29  1  0  0  0  0
  7  8  1  0  0  0  0
  7 30  1  0  0  0  0
  8  9  2  0  0  0  0
  8 10  1  0  0  0  0
 10 11  1  0  0  0  0
 10 31  1  0  0  0  0
 11 17  1  0  0  0  0
 11 12  2  0  0  0  0
 12 13  1  0  0  0  0
 12 32  1  0  0  0  0
 13 14  2  0  0  0  0
 13 33  1  0  0  0  0
 14 15  1  0  0  0  0
 14 16  1  0  0  0  0
 16 17  2  0  0  0  0
 16 34  1  0  0  0  0
 18 19  1  0  0  0  0
 18 20  1  0  0  0  0
 19 35  1  0  0  0  0
 19 36  1  0  0  0  0
 19 37  1  0  0  0  0
 20 38  1  0  0  0  0
 20 39  1  0  0  0  0
 20 40  1  0  0  0  0
M  END
> <s_m_source_file>
AV-unprocessed.smi

> <i_m_source_file_index>
2416

> <i_lp_mmshare_version>
43012

> <i_f3d_flags>
0

> <s_epik_input>
W0NIM11PW0NAQF0xKFtDSDNdKVtDSDJdW0NASF0oQzEoW0NIM10pW0NIM10pW05IXUMoPU8pW05IXWMyW2NIXVtjSF1jKEYpW2NIXW4y

> <s_epik_cmdline>
J2VwaWtfcHl0aG9uJywgJy1waCcsICc3LjAnLCAnLXRuJywgJzgnLCAnLW1hJywgJzIwMCcsICctbWV0YWxfYmluZGluZycsICctaW1hZScsICc8aW5maWxlLm1hZT4nLCAnLW9tYWUnLCAnPG91dGZpbGUubWFlPic=

> <r_lp_tautomer_probability>
1

> <r_epik_Ionization_Penalty>
3.67756e-05

> <r_epik_Ionization_Penalty_Charging>
0

> <r_epik_Ionization_Penalty_Neutral>
3.67756e-05

> <r_epik_State_Penalty>
-0

> <r_epik_Charging_Adjusted_Penalty>
0

> <i_epik_Tot_Q>
0

> <i_epik_Tot_abs_Q>
0

> <r_epik_Metal_State_Penalty>
-0

> <b_epik_Metal_Only>
0

> <s_lp_Force_Field>
OPLS_2005

> <r_lp_Energy>
27.4539

> <b_lp_Chiralities_Consistent>
1

> <s_lp_Variant>
AV-unprocessed.smi:2416-3

> <Gold.Version>
5.8.1

> <Gold.Id.Protein>
6NUR|6NUR_protein|mol2

> <Gold.PLP.Fitness>
33.4230

> <Gold.PLP.PLP>
-28.1778

> <Gold.PLP.part.hbond>
-2.0000

> <Gold.PLP.part.metal>
0.0000

> <Gold.PLP.part.buried>
-1.0225

> <Gold.PLP.part.nonpolar>
-25.2309

> <Gold.PLP.part.repulsive>
0.2966

> <Gold.PLP.ligand.clash>
0.0000

> <Gold.PLP.ligand.torsion>
0.5638

> <Gold.PLP.Chemscore.Hbond>
2.0000

> <Gold.PLP.Chemscore.CHOScore>
0.0000

> <Gold.PLP.Chemscore.Metal>
0.0000

> <Gold.Chemscore.Hbonds>
donor molecule, donor type, donor heavy atom, donor atom, acceptor molecule, acceptor atom, score
      L1  H    10    31       P1  7948  1.00
      P1  H  6896  6907       L1     2  1.00

> <Gold.PLP.Chemscore.Internal.Correction>
0.3729

> <Gold.Rescore>
     Score         DG    S(hbond)    S(metal)    S(lipo)     H(rot)  DE(clash)    DE(int)     intcor
     11.96     -14.27       1.22        0.00      68.04       1.27       0.47       1.83       ----

> <Gold.Chemscore.Fitness>
11.9633

> <Gold.Chemscore.DG>
-14.2653

> <Gold.Chemscore.ZeroCoef>
-5.4800

> <Gold.Chemscore.Hbond>
1.2166

> <Gold.Chemscore.Metal>
0.0000

> <Gold.Chemscore.Lipo>
68.0430

> <Gold.Chemscore.Internal_Hbond>
0.0000

> <Gold.Chemscore.DEClash>
0.4742

> <Gold.Chemscore.DEInternal>
1.8277

> <Gold.Chemscore.Rot>
1.2653

> <Gold.Chemscore.Internal.Correction>
   9.000000E+99

> <Gold.Chemscore.Hbonds>
donor molecule, donor type, donor heavy atom, donor atom, acceptor molecule, acceptor atom, score
      L1  H    10    31       P1  7948  0.88
      P1  H  6896  6907       L1     2  0.26

> <Gold.Chemscore.Hbond.Weighted>
-4.0635

> <Gold.Chemscore.Metal.Weighted>
-0.0000

> <Gold.Chemscore.Lipo.Weighted>
-7.9610

> <Gold.Chemscore.Internal_Hbond.Weighted>
0.0000

> <Gold.Chemscore.DEClash.Weighted>
0.4742

> <Gold.Chemscore.DEInternal.Weighted>
1.8277

> <Gold.Chemscore.Rot.Weighted>
3.2392

> <Gold.Chemscore.Internal.Correction.Weighted>
   9.000000E+99

> <Gold.Protein.RotatedTorsions>
[ 6907 6896 6895 6894 ] final -142.68 input  -60.11 | X-H torsion
[ 7974 7965 7964 7962 ] final   32.27 input  175.53 | X-H torsion
[ 8008 7997 7996 7995 ] final    3.77 input   59.86 | X-H torsion
[ 10167 10162 10161 10158 ] final  -21.91 input  -65.29 | X-H torsion
[ 10718 10713 10712 10709 ] final  -24.53 input   66.30 | X-H torsion
[ 10763 10752 10751 10750 ] final  133.00 input  -60.55 | X-H torsion
[ 11005 11000 10999 10996 ] final -146.05 input  -57.11 | X-H torsion

> <Gold.Protein.ActiveResidues>
 VAL166  LYS551  ARG553  GLY616  TRP617  ASP618  TYR619  PRO620  LYS621  CYS622 
 ASP623  PHE694  ASN695  SER759  ASP760  ASP761  ALA762  ILE779  LEU786  VAL792 
 PHE793  MET794  SER795  GLU796  ALA797  LYS798  CYS799  TRP800  GLU811  SER814 

> <Gold.Protein.RotatedAtoms>
  151.0903  133.5321  159.2615 H   0  0  0  0  0  0  0  0  0  0  0  0  # atno 6907 bound_to 6896
  151.2191  135.0511  159.8952 H   0  0  0  0  0  0  0  0  0  0  0  0  # atno 6908 bound_to 6896
  152.5433  134.0708  159.8246 H   0  0  0  0  0  0  0  0  0  0  0  0  # atno 6909 bound_to 6896
  146.1497  139.6547  142.9107 H   0  0  0  0  0  0  0  0  0  0  0  0  # atno 7974 bound_to 7965
  154.7077  140.2686  155.6658 H   0  0  0  0  0  0  0  0  0  0  0  0  # atno 8008 bound_to 7997
  156.2785  140.2759  156.1633 H   0  0  0  0  0  0  0  0  0  0  0  0  # atno 8009 bound_to 7997
  155.0677  140.0372  157.2588 H   0  0  0  0  0  0  0  0  0  0  0  0  # atno 8010 bound_to 7997
  140.7284  143.4584  151.0415 H   0  0  0  0  0  0  0  0  0  0  0  0  # atno 10167 bound_to 10162
  156.4764  130.4535  149.6838 H   0  0  0  0  0  0  0  0  0  0  0  0  # atno 10718 bound_to 10713
  153.8000  135.3143  155.3389 H   0  0  0  0  0  0  0  0  0  0  0  0  # atno 10763 bound_to 10752
  154.8093  135.4678  154.0476 H   0  0  0  0  0  0  0  0  0  0  0  0  # atno 10764 bound_to 10752
  153.1821  135.6895  153.8551 H   0  0  0  0  0  0  0  0  0  0  0  0  # atno 10765 bound_to 10752
  140.7859  134.3024  157.5030 H   0  0  0  0  0  0  0  0  0  0  0  0  # atno 11005 bound_to 11000
  145.4853  141.0438  143.2623 LP  0  0  0  0  0  0  0  0  0  0  0  0  # atno 17320 bound_to 7965
  144.7889  139.6370  143.7122 LP  0  0  0  0  0  0  0  0  0  0  0  0  # atno 17321 bound_to 7965
  139.8266  143.7747  152.3179 LP  0  0  0  0  0  0  0  0  0  0  0  0  # atno 17342 bound_to 10162
  139.7848  144.7431  151.0037 LP  0  0  0  0  0  0  0  0  0  0  0  0  # atno 17343 bound_to 10162
  156.3566  130.7460  151.2426 LP  0  0  0  0  0  0  0  0  0  0  0  0  # atno 17370 bound_to 10713
  157.7487  131.0362  150.4398 LP  0  0  0  0  0  0  0  0  0  0  0  0  # atno 17371 bound_to 10713
  139.8737  134.9346  156.3612 LP  0  0  0  0  0  0  0  0  0  0  0  0  # atno 17394 bound_to 11000
  140.9437  133.7497  156.0179 LP  0  0  0  0  0  0  0  0  0  0  0  0  # atno 17395 bound_to 11000

$$$$
