AV-unprocessed.smi:699|AV-procd|sdf|3399|dock1
  -GOLD-   22720 0383D 1   1.00000     0.00000
 Structure written by MMmdl.
 34 35  0  0  0  0  0  0  0  0  1 V2000
  144.0392  139.3487  155.0412 N   0  0  0  0  0  0  0  0  0  0  0  0
  145.0236  138.5168  155.3901 C   0  0  0  0  0  0  0  0  0  0  0  0
  144.9176  137.7410  156.3385 O   0  0  0  0  0  0  0  0  0  0  0  0
  146.3118  138.5677  154.5537 C   0  0  2  0  0  0  0  0  0  0  0  0
  147.1199  139.8564  154.7836 C   0  0  0  0  0  0  0  0  0  0  0  0
  147.8544  140.0933  153.4675 C   0  0  0  0  0  0  0  0  0  0  0  0
  146.8525  139.6621  152.3997 C   0  0  0  0  0  0  0  0  0  0  0  0
  146.0418  138.5140  153.0251 C   0  0  1  0  0  0  0  0  0  0  0  0
  146.4362  137.2298  152.4483 N   0  0  0  0  0  0  0  0  0  0  0  0
  145.5954  136.3209  151.9337 C   0  0  0  0  0  0  0  0  0  0  0  0
  144.3748  136.4734  151.8941 O   0  0  0  0  0  0  0  0  0  0  0  0
  146.2610  135.2366  151.4990 N   0  0  0  0  0  0  0  0  0  0  0  0
  145.7450  134.0573  150.8957 C   0  0  0  0  0  0  0  0  0  0  0  0
  144.3481  133.9672  150.7230 C   0  0  0  0  0  0  0  0  0  0  0  0
  143.8087  132.8030  150.1402 C   0  0  0  0  0  0  0  0  0  0  0  0
  144.5612  131.7560  149.7424 N   0  0  0  0  0  0  0  0  0  0  0  0
  145.8966  131.8371  149.9218 C   0  0  0  0  0  0  0  0  0  0  0  0
  146.5371  132.9547  150.4934 C   0  0  0  0  0  0  0  0  0  0  0  0
  143.1802  139.3576  155.5720 H   0  0  0  0  0  0  0  0  0  0  0  0
  144.1600  139.9745  154.2582 H   0  0  0  0  0  0  0  0  0  0  0  0
  146.9518  137.7287  154.8356 H   0  0  0  0  0  0  0  0  0  0  0  0
  146.4659  140.7059  154.9889 H   0  0  0  0  0  0  0  0  0  0  0  0
  147.8111  139.7653  155.6222 H   0  0  0  0  0  0  0  0  0  0  0  0
  148.1780  141.1274  153.3467 H   0  0  0  0  0  0  0  0  0  0  0  0
  148.7397  139.4579  153.4198 H   0  0  0  0  0  0  0  0  0  0  0  0
  146.1834  140.4963  152.1839 H   0  0  0  0  0  0  0  0  0  0  0  0
  147.3386  139.3911  151.4613 H   0  0  0  0  0  0  0  0  0  0  0  0
  144.9875  138.6813  152.7932 H   0  0  0  0  0  0  0  0  0  0  0  0
  147.4236  137.0200  152.4439 H   0  0  0  0  0  0  0  0  0  0  0  0
  147.2558  135.2316  151.6699 H   0  0  0  0  0  0  0  0  0  0  0  0
  143.6973  134.7749  151.0252 H   0  0  0  0  0  0  0  0  0  0  0  0
  142.7431  132.7105  149.9909 H   0  0  0  0  0  0  0  0  0  0  0  0
  146.4739  130.9810  149.6053 H   0  0  0  0  0  0  0  0  0  0  0  0
  147.6084  132.9352  150.6202 H   0  0  0  0  0  0  0  0  0  0  0  0
  1  2  1  0  0  0  0
  1 19  1  0  0  0  0
  1 20  1  0  0  0  0
  2  3  2  0  0  0  0
  2  4  1  0  0  0  0
  4  8  1  0  0  0  0
  4  5  1  0  0  0  0
  4 21  1  0  0  0  0
  5  6  1  0  0  0  0
  5 22  1  0  0  0  0
  5 23  1  0  0  0  0
  6  7  1  0  0  0  0
  6 24  1  0  0  0  0
  6 25  1  0  0  0  0
  7  8  1  0  0  0  0
  7 26  1  0  0  0  0
  7 27  1  0  0  0  0
  8  9  1  0  0  0  0
  8 28  1  0  0  0  0
  9 10  1  0  0  0  0
  9 29  1  0  0  0  0
 10 11  2  0  0  0  0
 10 12  1  0  0  0  0
 12 13  1  0  0  0  0
 12 30  1  0  0  0  0
 13 18  1  0  0  0  0
 13 14  2  0  0  0  0
 14 15  1  0  0  0  0
 14 31  1  0  0  0  0
 15 16  2  0  0  0  0
 15 32  1  0  0  0  0
 16 17  1  0  0  0  0
 17 18  2  0  0  0  0
 17 33  1  0  0  0  0
 18 34  1  0  0  0  0
M  END
> <s_m_source_file>
AV-unprocessed.smi

> <i_m_source_file_index>
699

> <i_lp_mmshare_version>
43012

> <i_f3d_flags>
0

> <s_epik_input>
W05IMl1DKD1PKVtDQEBIXTFbQ0gyXVtDSDJdW0NIMl1bQ0BIXTFbTkhdQyg9TylbTkhdYzJbY0hdW2NIXW5bY0hdW2NIXTI=

> <s_epik_cmdline>
J2VwaWtfcHl0aG9uJywgJy1waCcsICc3LjAnLCAnLXRuJywgJzgnLCAnLW1hJywgJzIwMCcsICctbWV0YWxfYmluZGluZycsICctaW1hZScsICc8aW5maWxlLm1hZT4nLCAnLW9tYWUnLCAnPG91dGZpbGUubWFlPic=

> <r_epik_Ionization_Penalty>
0.113907

> <r_epik_Ionization_Penalty_Charging>
0

> <r_epik_Ionization_Penalty_Neutral>
0.113907

> <r_epik_State_Penalty>
0.103543

> <r_epik_Charging_Adjusted_Penalty>
0.103543

> <i_epik_Tot_Q>
0

> <i_epik_Tot_abs_Q>
0

> <r_epik_Metal_State_Penalty>
0.0867106

> <b_epik_Metal_Only>
0

> <s_lp_Force_Field>
OPLS_2005

> <r_lp_Energy>
19.5976

> <b_lp_Chiralities_Consistent>
1

> <s_lp_Variant>
AV-unprocessed.smi:699-1

> <Gold.Version>
5.8.1

> <Gold.Id.Protein>
6NUR|6NUR_protein|mol2

> <Gold.PLP.Fitness>
38.7638

> <Gold.PLP.PLP>
-24.8208

> <Gold.PLP.part.hbond>
-4.0000

> <Gold.PLP.part.metal>
0.0000

> <Gold.PLP.part.buried>
0.8894

> <Gold.PLP.part.nonpolar>
-23.0582

> <Gold.PLP.part.repulsive>
0.8121

> <Gold.PLP.ligand.clash>
0.0000

> <Gold.PLP.ligand.torsion>
0.2868

> <Gold.PLP.Chemscore.Hbond>
3.1210

> <Gold.PLP.Chemscore.CHOScore>
1.7167

> <Gold.PLP.Chemscore.Metal>
0.0000

> <Gold.Chemscore.Hbonds>
donor molecule, donor type, donor heavy atom, donor atom, acceptor molecule, acceptor atom, score
      L1  H     1    20       P1 10175  0.96
      L1  H     9    29       P1  7948  1.00
      L1  H    12    30       P1  7948  0.99
      P1  H 10785 10796       L1    16  0.13
      L1  C    15    32       P1 10186  1.00
      L1  C    17    33       P1 10747  0.71

> <Gold.PLP.Chemscore.Internal.Correction>
0.0035

> <Gold.Rescore>
     Score         DG    S(hbond)    S(metal)    S(lipo)     H(rot)  DE(clash)    DE(int)     intcor
     16.35     -19.61       2.94        0.00      69.36       1.49       1.56       1.71       ----

> <Gold.Chemscore.Fitness>
16.3450

> <Gold.Chemscore.DG>
-19.6103

> <Gold.Chemscore.ZeroCoef>
-5.4800

> <Gold.Chemscore.Hbond>
2.9422

> <Gold.Chemscore.Metal>
0.0000

> <Gold.Chemscore.Lipo>
69.3631

> <Gold.Chemscore.Internal_Hbond>
0.0000

> <Gold.Chemscore.DEClash>
1.5588

> <Gold.Chemscore.DEInternal>
1.7064

> <Gold.Chemscore.Rot>
1.4892

> <Gold.Chemscore.Internal.Correction>
   9.000000E+99

> <Gold.Chemscore.Hbonds>
donor molecule, donor type, donor heavy atom, donor atom, acceptor molecule, acceptor atom, score
      L1  H     1    20       P1 10175  0.92
      L1  H     9    29       P1  7948  0.99
      L1  H    12    30       P1  7948  0.89
      P1  H 10785 10796       L1    16  0.11

> <Gold.Chemscore.Hbond.Weighted>
-9.8270

> <Gold.Chemscore.Metal.Weighted>
-0.0000

> <Gold.Chemscore.Lipo.Weighted>
-8.1155

> <Gold.Chemscore.Internal_Hbond.Weighted>
0.0000

> <Gold.Chemscore.DEClash.Weighted>
1.5588

> <Gold.Chemscore.DEInternal.Weighted>
1.7064

> <Gold.Chemscore.Rot.Weighted>
3.8123

> <Gold.Chemscore.Internal.Correction.Weighted>
   9.000000E+99

> <Gold.Protein.RotatedTorsions>
[ 6907 6896 6895 6894 ] final  -57.09 input  -60.11 | X-H torsion
[ 7974 7965 7964 7962 ] final  -91.40 input  175.53 | X-H torsion
[ 8008 7997 7996 7995 ] final  159.87 input   59.86 | X-H torsion
[ 10167 10162 10161 10158 ] final   69.37 input  -65.29 | X-H torsion
[ 10718 10713 10712 10709 ] final -140.65 input   66.30 | X-H torsion
[ 10763 10752 10751 10750 ] final -114.07 input  -60.55 | X-H torsion
[ 11005 11000 10999 10996 ] final  179.27 input  -57.11 | X-H torsion

> <Gold.Protein.ActiveResidues>
 VAL166  LYS551  ARG553  GLY616  TRP617  ASP618  TYR619  PRO620  LYS621  CYS622 
 ASP623  PHE694  ASN695  SER759  ASP760  ASP761  ALA762  ILE779  LEU786  VAL792 
 PHE793  MET794  SER795  GLU796  ALA797  LYS798  CYS799  TRP800  GLU811  SER814 

> <Gold.Protein.RotatedAtoms>
  150.8114  134.7271  159.6690 H   0  0  0  0  0  0  0  0  0  0  0  0  # atno 6907 bound_to 6896
  152.4234  134.5910  159.9984 H   0  0  0  0  0  0  0  0  0  0  0  0  # atno 6908 bound_to 6896
  151.6119  133.3309  159.3105 H   0  0  0  0  0  0  0  0  0  0  0  0  # atno 6909 bound_to 6896
  145.4137  140.9547  143.2220 H   0  0  0  0  0  0  0  0  0  0  0  0  # atno 7974 bound_to 7965
  156.2210  140.1819  156.7476 H   0  0  0  0  0  0  0  0  0  0  0  0  # atno 8008 bound_to 7997
  154.5866  140.0657  156.9208 H   0  0  0  0  0  0  0  0  0  0  0  0  # atno 8009 bound_to 7997
  155.2409  140.3322  155.4295 H   0  0  0  0  0  0  0  0  0  0  0  0  # atno 8010 bound_to 7997
  140.0686  144.5172  150.7243 H   0  0  0  0  0  0  0  0  0  0  0  0  # atno 10167 bound_to 10162
  156.3248  130.7554  151.1659 H   0  0  0  0  0  0  0  0  0  0  0  0  # atno 10718 bound_to 10713
  154.8424  135.4431  154.1449 H   0  0  0  0  0  0  0  0  0  0  0  0  # atno 10763 bound_to 10752
  153.2624  135.6937  153.7570 H   0  0  0  0  0  0  0  0  0  0  0  0  # atno 10764 bound_to 10752
  153.6842  135.3398  155.3161 H   0  0  0  0  0  0  0  0  0  0  0  0  # atno 10765 bound_to 10752
  140.4043  134.6749  157.4579 H   0  0  0  0  0  0  0  0  0  0  0  0  # atno 11005 bound_to 11000
  144.8292  139.5658  143.6951 LP  0  0  0  0  0  0  0  0  0  0  0  0  # atno 17320 bound_to 7965
  146.2692  139.6593  142.9308 LP  0  0  0  0  0  0  0  0  0  0  0  0  # atno 17321 bound_to 7965
  140.7137  143.2526  151.4502 LP  0  0  0  0  0  0  0  0  0  0  0  0  # atno 17342 bound_to 10162
  139.5850  144.1625  152.2017 LP  0  0  0  0  0  0  0  0  0  0  0  0  # atno 17343 bound_to 10162
  157.7419  131.0497  150.5063 LP  0  0  0  0  0  0  0  0  0  0  0  0  # atno 17370 bound_to 10713
  156.5221  130.4164  149.6245 LP  0  0  0  0  0  0  0  0  0  0  0  0  # atno 17371 bound_to 10713
  140.0314  134.6401  155.9102 LP  0  0  0  0  0  0  0  0  0  0  0  0  # atno 17394 bound_to 11000
  141.1845  133.6553  156.5160 LP  0  0  0  0  0  0  0  0  0  0  0  0  # atno 17395 bound_to 11000

$$$$
