AV-unprocessed.smi:1100|AV-procd|sdf|4763|dock3
  -GOLD-   22720 3303D 1   1.00000     0.00000
 Structure written by MMmdl.
 43 44  0  0  0  0  0  0  0  0  3 V2000
  146.2229  142.8552  154.9364 C   0  0  0  0  0  0  0  0  0  0  0  0
  146.5708  141.3455  154.9064 C   0  0  2  0  0  0  0  0  0  0  0  0
  147.5598  140.9419  153.7772 C   0  0  0  0  0  0  0  0  0  0  0  0
  148.8388  141.6405  153.9182 N   0  5  0  0  0  0  0  0  0  0  0  0
  149.7861  141.3534  154.8531 C   0  0  0  0  0  0  0  0  0  0  0  0
  150.4752  140.3299  154.9251 O   0  0  0  0  0  0  0  0  0  0  0  0
  149.9226  142.3517  155.7484 N   0  0  0  0  0  0  0  0  0  0  0  0
  150.7367  142.4483  156.8888 C   0  0  0  0  0  0  0  0  0  0  0  0
  151.2837  141.2194  157.4233 C   0  0  0  0  0  0  0  0  0  0  0  0
  152.0881  141.2228  158.5039 C   0  0  0  0  0  0  0  0  0  0  0  0
  152.4471  142.4677  159.1865 C   0  0  0  0  0  0  0  0  0  0  0  0
  153.1780  142.4866  160.1776 O   0  0  0  0  0  0  0  0  0  0  0  0
  151.9197  143.6063  158.6513 N   0  0  0  0  0  0  0  0  0  0  0  0
  152.2272  144.9036  159.2593 C   0  0  0  0  0  0  0  0  0  0  0  0
  151.0823  143.5933  157.5188 C   0  0  0  0  0  0  0  0  0  0  0  0
  145.3586  140.4688  154.8791 N   0  3  0  0  0  0  0  0  0  0  0  0
  145.6727  139.0193  154.9362 C   0  0  0  0  0  0  0  0  0  0  0  0
  144.3974  138.1885  154.7139 C   0  0  0  0  0  0  0  0  0  0  0  0
  143.4124  138.5468  155.6757 O   0  0  0  0  0  0  0  0  0  0  0  0
  143.0440  139.9173  155.5768 C   0  0  0  0  0  0  0  0  0  0  0  0
  144.2742  140.7979  155.8463 C   0  0  0  0  0  0  0  0  0  0  0  0
  147.1062  143.4711  155.1147 H   0  0  0  0  0  0  0  0  0  0  0  0
  145.5252  143.0764  155.7443 H   0  0  0  0  0  0  0  0  0  0  0  0
  145.7688  143.2028  154.0069 H   0  0  0  0  0  0  0  0  0  0  0  0
  147.0834  141.1272  155.8447 H   0  0  0  0  0  0  0  0  0  0  0  0
  147.6939  139.8590  153.7968 H   0  0  0  0  0  0  0  0  0  0  0  0
  147.0997  141.1514  152.8114 H   0  0  0  0  0  0  0  0  0  0  0  0
  149.3518  143.1652  155.5716 H   0  0  0  0  0  0  0  0  0  0  0  0
  151.0436  140.2784  156.9497 H   0  0  0  0  0  0  0  0  0  0  0  0
  152.4781  140.2871  158.8763 H   0  0  0  0  0  0  0  0  0  0  0  0
  151.7456  145.7373  158.7472 H   0  0  0  0  0  0  0  0  0  0  0  0
  153.3023  145.0895  159.2410 H   0  0  0  0  0  0  0  0  0  0  0  0
  151.8962  144.9275  160.2986 H   0  0  0  0  0  0  0  0  0  0  0  0
  150.7660  144.5761  157.2099 H   0  0  0  0  0  0  0  0  0  0  0  0
  146.4049  138.7622  154.1697 H   0  0  0  0  0  0  0  0  0  0  0  0
  146.1182  138.7761  155.9019 H   0  0  0  0  0  0  0  0  0  0  0  0
  144.0075  138.3385  153.7060 H   0  0  0  0  0  0  0  0  0  0  0  0
  144.6189  137.1258  154.8134 H   0  0  0  0  0  0  0  0  0  0  0  0
  142.6218  140.1256  154.5924 H   0  0  0  0  0  0  0  0  0  0  0  0
  142.2642  140.1274  156.3090 H   0  0  0  0  0  0  0  0  0  0  0  0
  144.6155  140.6310  156.8687 H   0  0  0  0  0  0  0  0  0  0  0  0
  143.9929  141.8484  155.7683 H   0  0  0  0  0  0  0  0  0  0  0  0
  144.9654  140.6152  153.9601 H   0  0  0  0  0  0  0  0  0  0  0  0
  1  2  1  0  0  0  0
  1 22  1  0  0  0  0
  1 23  1  0  0  0  0
  1 24  1  0  0  0  0
  2  3  1  0  0  0  0
  2 16  1  0  0  0  0
  2 25  1  0  0  0  0
  3  4  1  0  0  0  0
  3 26  1  0  0  0  0
  3 27  1  0  0  0  0
  4  5  1  0  0  0  0
  5  6  2  0  0  0  0
  5  7  1  0  0  0  0
  7  8  1  0  0  0  0
  7 28  1  0  0  0  0
  8 15  2  0  0  0  0
  8  9  1  0  0  0  0
  9 10  2  0  0  0  0
  9 29  1  0  0  0  0
 10 11  1  0  0  0  0
 10 30  1  0  0  0  0
 11 12  2  0  0  0  0
 11 13  1  0  0  0  0
 13 14  1  0  0  0  0
 13 15  1  0  0  0  0
 14 31  1  0  0  0  0
 14 32  1  0  0  0  0
 14 33  1  0  0  0  0
 15 34  1  0  0  0  0
 16 21  1  0  0  0  0
 16 17  1  0  0  0  0
 16 43  1  0  0  0  0
 17 18  1  0  0  0  0
 17 35  1  0  0  0  0
 17 36  1  0  0  0  0
 18 19  1  0  0  0  0
 18 37  1  0  0  0  0
 18 38  1  0  0  0  0
 19 20  1  0  0  0  0
 20 21  1  0  0  0  0
 20 39  1  0  0  0  0
 20 40  1  0  0  0  0
 21 41  1  0  0  0  0
 21 42  1  0  0  0  0
M  CHG  1   4  -1
M  CHG  1  16   1
M  END
> <s_m_source_file>
AV-unprocessed.smi

> <i_m_source_file_index>
1100

> <i_lp_mmshare_version>
43012

> <i_f3d_flags>
0

> <s_epik_input>
W0NIMl0xW0NIMl1PW0NIMl1bQ0gyXU4xW0NASF0oW0NIM10pW0NIMl1bTkhdQyg9TylbTkhdYzJbY0hdW2NIXWMoPU8pbihbQ0gzXSlbY0hdMg==

> <s_epik_cmdline>
J2VwaWtfcHl0aG9uJywgJy1waCcsICc3LjAnLCAnLXRuJywgJzgnLCAnLW1hJywgJzIwMCcsICctbWV0YWxfYmluZGluZycsICctaW1hZScsICc8aW5maWxlLm1hZT4nLCAnLW9tYWUnLCAnPG91dGZpbGUubWFlPic=

> <r_lp_tautomer_probability>
1

> <r_epik_Ionization_Penalty>
6.79272

> <r_epik_Ionization_Penalty_Charging>
6.79272

> <r_epik_Ionization_Penalty_Neutral>
3.37009e-06

> <r_epik_State_Penalty>
7.34577

> <r_epik_Charging_Adjusted_Penalty>
14.1385

> <i_epik_Tot_Q>
0

> <i_epik_Tot_abs_Q>
2

> <r_epik_Metal_State_Penalty>
3.26257

> <b_epik_Metal_Only>
1

> <s_lp_Force_Field>
OPLS_2005

> <r_lp_Energy>
31.7412

> <b_lp_Chiralities_Consistent>
1

> <s_lp_Variant>
AV-unprocessed.smi:1100-5

> <Gold.Version>
5.8.1

> <Gold.Id.Protein>
6NUR|6NUR_protein|mol2

> <Gold.PLP.Fitness>
50.3786

> <Gold.PLP.PLP>
-35.8731

> <Gold.PLP.part.hbond>
-4.0000

> <Gold.PLP.part.metal>
0.0000

> <Gold.PLP.part.buried>
-4.3349

> <Gold.PLP.part.nonpolar>
-28.5204

> <Gold.PLP.part.repulsive>
0.4810

> <Gold.PLP.ligand.clash>
0.0000

> <Gold.PLP.ligand.torsion>
0.8797

> <Gold.PLP.Chemscore.Hbond>
4.5710

> <Gold.PLP.Chemscore.CHOScore>
0.8046

> <Gold.PLP.Chemscore.Metal>
0.0000

> <Gold.Chemscore.Hbonds>
donor molecule, donor type, donor heavy atom, donor atom, acceptor molecule, acceptor atom, score
      L1  H     7    28       P1  8028  1.00
      L1  H    16    43       P1 10175  2.00
      P1  H  7989  7998       L1     6  0.65
      P1  H  8011  8017       L1     4  0.62
      L1  C    15    34       P1  8028  0.78

> <Gold.PLP.Chemscore.Internal.Correction>
0.1381

> <Gold.Rescore>
     Score         DG    S(hbond)    S(metal)    S(lipo)     H(rot)  DE(clash)    DE(int)     intcor
     14.75     -17.21       2.35        0.00      66.19       1.51       0.18       2.28       ----

> <Gold.Chemscore.Fitness>
14.7471

> <Gold.Chemscore.DG>
-17.2098

> <Gold.Chemscore.ZeroCoef>
-5.4800

> <Gold.Chemscore.Hbond>
2.3529

> <Gold.Chemscore.Metal>
0.0000

> <Gold.Chemscore.Lipo>
66.1853

> <Gold.Chemscore.Internal_Hbond>
0.0000

> <Gold.Chemscore.DEClash>
0.1791

> <Gold.Chemscore.DEInternal>
2.2836

> <Gold.Chemscore.Rot>
1.5128

> <Gold.Chemscore.Internal.Correction>
   9.000000E+99

> <Gold.Chemscore.Hbonds>
donor molecule, donor type, donor heavy atom, donor atom, acceptor molecule, acceptor atom, score
      L1  H     7    28       P1  8028  0.98
      L1  H    16    43       P1 10175  0.97
      P1  H  7989  7998       L1     6  0.05
      P1  H  8011  8017       L1     4  0.36

> <Gold.Chemscore.Hbond.Weighted>
-7.8587

> <Gold.Chemscore.Metal.Weighted>
-0.0000

> <Gold.Chemscore.Lipo.Weighted>
-7.7437

> <Gold.Chemscore.Internal_Hbond.Weighted>
0.0000

> <Gold.Chemscore.DEClash.Weighted>
0.1791

> <Gold.Chemscore.DEInternal.Weighted>
2.2836

> <Gold.Chemscore.Rot.Weighted>
3.8726

> <Gold.Chemscore.Internal.Correction.Weighted>
   9.000000E+99

> <Gold.Protein.RotatedTorsions>
[ 6907 6896 6895 6894 ] final    4.03 input  -60.11 | X-H torsion
[ 7974 7965 7964 7962 ] final -104.23 input  175.53 | X-H torsion
[ 8008 7997 7996 7995 ] final  134.66 input   59.86 | X-H torsion
[ 10167 10162 10161 10158 ] final  126.40 input  -65.29 | X-H torsion
[ 10718 10713 10712 10709 ] final -160.29 input   66.30 | X-H torsion
[ 10763 10752 10751 10750 ] final   21.58 input  -60.55 | X-H torsion
[ 11005 11000 10999 10996 ] final   38.26 input  -57.11 | X-H torsion

> <Gold.Protein.ActiveResidues>
 VAL166  LYS551  ARG553  GLY616  TRP617  ASP618  TYR619  PRO620  LYS621  CYS622 
 ASP623  PHE694  ASN695  SER759  ASP760  ASP761  ALA762  ILE779  LEU786  VAL792 
 PHE793  MET794  SER795  GLU796  ALA797  LYS798  CYS799  TRP800  GLU811  SER814 

> <Gold.Protein.RotatedAtoms>
  151.6346  135.1019  160.0128 H   0  0  0  0  0  0  0  0  0  0  0  0  # atno 6907 bound_to 6896
  152.4087  133.6926  159.6387 H   0  0  0  0  0  0  0  0  0  0  0  0  # atno 6908 bound_to 6896
  150.7979  133.8579  159.3264 H   0  0  0  0  0  0  0  0  0  0  0  0  # atno 6909 bound_to 6896
  145.2458  140.9221  143.3124 H   0  0  0  0  0  0  0  0  0  0  0  0  # atno 7974 bound_to 7965
  156.3000  140.2490  156.3454 H   0  0  0  0  0  0  0  0  0  0  0  0  # atno 8008 bound_to 7997
  154.9016  140.0406  157.1915 H   0  0  0  0  0  0  0  0  0  0  0  0  # atno 8009 bound_to 7997
  154.8495  140.2903  155.5611 H   0  0  0  0  0  0  0  0  0  0  0  0  # atno 8010 bound_to 7997
  139.5633  144.6896  151.3980 H   0  0  0  0  0  0  0  0  0  0  0  0  # atno 10167 bound_to 10162
  156.5800  130.8725  151.2862 H   0  0  0  0  0  0  0  0  0  0  0  0  # atno 10718 bound_to 10713
  153.0984  135.6666  153.9719 H   0  0  0  0  0  0  0  0  0  0  0  0  # atno 10763 bound_to 10752
  153.9297  135.3005  155.3447 H   0  0  0  0  0  0  0  0  0  0  0  0  # atno 10764 bound_to 10752
  154.7404  135.5082  153.9187 H   0  0  0  0  0  0  0  0  0  0  0  0  # atno 10765 bound_to 10752
  140.2144  134.3716  155.8034 H   0  0  0  0  0  0  0  0  0  0  0  0  # atno 11005 bound_to 11000
  144.9548  139.4043  143.6385 LP  0  0  0  0  0  0  0  0  0  0  0  0  # atno 17320 bound_to 7965
  146.3316  139.8573  142.8862 LP  0  0  0  0  0  0  0  0  0  0  0  0  # atno 17321 bound_to 7965
  140.6915  143.7850  150.7262 LP  0  0  0  0  0  0  0  0  0  0  0  0  # atno 17342 bound_to 10162
  140.1334  143.4506  152.2240 LP  0  0  0  0  0  0  0  0  0  0  0  0  # atno 17343 bound_to 10162
  157.7329  130.9722  150.1949 LP  0  0  0  0  0  0  0  0  0  0  0  0  # atno 17370 bound_to 10713
  156.2640  130.3714  149.8101 LP  0  0  0  0  0  0  0  0  0  0  0  0  # atno 17371 bound_to 10713
  141.2225  133.7160  156.8471 LP  0  0  0  0  0  0  0  0  0  0  0  0  # atno 17394 bound_to 11000
  140.1916  134.8961  157.3067 LP  0  0  0  0  0  0  0  0  0  0  0  0  # atno 17395 bound_to 11000

$$$$
