AV-unprocessed.smi:563|AV-procd|sdf|2946|dock10
  -GOLD-   2262023443D 1   1.00000     0.00000
 Structure written by MMmdl.
 31 32  0  0  0  0  0  0  0  0  1 V2000
  154.0211  141.7309  161.4530 C   0  0  0  0  0  0  0  0  0  0  0  0
  153.1002  142.6505  160.7270 C   0  0  0  0  0  0  0  0  0  0  0  0
  152.9016  142.6065  159.4070 N   0  0  0  0  0  0  0  0  0  0  0  0
  151.9895  143.5718  158.9664 C   0  0  0  0  0  0  0  0  0  0  0  0
  151.6493  143.6734  157.5083 C   0  0  0  0  0  0  0  0  0  0  0  0
  151.0461  142.3591  157.0114 C   0  0  0  0  0  0  0  0  0  0  0  0
  151.6675  141.3055  157.1496 O   0  0  0  0  0  0  0  0  0  0  0  0
  149.8328  142.4337  156.4421 N   0  0  0  0  0  0  0  0  0  0  0  0
  149.0800  141.2988  155.9147 C   0  0  0  0  0  0  0  0  0  0  0  0
  149.5956  140.8999  154.5184 C   0  0  0  0  0  0  0  0  0  0  0  0
  148.3562  140.7617  153.6322 C   0  0  0  0  0  0  0  0  0  0  0  0
  147.3543  141.7441  154.2297 C   0  0  0  0  0  0  0  0  0  0  0  0
  147.5874  141.6438  155.7373 C   0  0  0  0  0  0  0  0  0  0  0  0
  151.5000  144.3549  159.9826 C   0  0  0  0  0  0  0  0  0  0  0  0
  152.1611  143.9031  161.5295 S   0  0  0  0  0  0  0  0  0  0  0  0
  154.7506  141.2991  160.7671 H   0  0  0  0  0  0  0  0  0  0  0  0
  153.4525  140.9238  161.9153 H   0  0  0  0  0  0  0  0  0  0  0  0
  154.5556  142.2744  162.2322 H   0  0  0  0  0  0  0  0  0  0  0  0
  150.9359  144.4807  157.3380 H   0  0  0  0  0  0  0  0  0  0  0  0
  152.5328  143.9161  156.9161 H   0  0  0  0  0  0  0  0  0  0  0  0
  149.3997  143.3431  156.3677 H   0  0  0  0  0  0  0  0  0  0  0  0
  149.1784  140.4488  156.5927 H   0  0  0  0  0  0  0  0  0  0  0  0
  150.2390  141.6799  154.1076 H   0  0  0  0  0  0  0  0  0  0  0  0
  150.1819  139.9808  154.5437 H   0  0  0  0  0  0  0  0  0  0  0  0
  148.5661  140.9617  152.5812 H   0  0  0  0  0  0  0  0  0  0  0  0
  147.9621  139.7472  153.7060 H   0  0  0  0  0  0  0  0  0  0  0  0
  147.5824  142.7549  153.8882 H   0  0  0  0  0  0  0  0  0  0  0  0
  146.3252  141.5205  153.9475 H   0  0  0  0  0  0  0  0  0  0  0  0
  146.9824  140.8309  156.1408 H   0  0  0  0  0  0  0  0  0  0  0  0
  147.2846  142.5536  156.2574 H   0  0  0  0  0  0  0  0  0  0  0  0
  150.7899  145.1658  159.9142 H   0  0  0  0  0  0  0  0  0  0  0  0
  1  2  1  0  0  0  0
  1 16  1  0  0  0  0
  1 17  1  0  0  0  0
  1 18  1  0  0  0  0
  2 15  1  0  0  0  0
  2  3  2  0  0  0  0
  3  4  1  0  0  0  0
  4  5  1  0  0  0  0
  4 14  2  0  0  0  0
  5  6  1  0  0  0  0
  5 19  1  0  0  0  0
  5 20  1  0  0  0  0
  6  7  2  0  0  0  0
  6  8  1  0  0  0  0
  8  9  1  0  0  0  0
  8 21  1  0  0  0  0
  9 13  1  0  0  0  0
  9 10  1  0  0  0  0
  9 22  1  0  0  0  0
 10 11  1  0  0  0  0
 10 23  1  0  0  0  0
 10 24  1  0  0  0  0
 11 12  1  0  0  0  0
 11 25  1  0  0  0  0
 11 26  1  0  0  0  0
 12 13  1  0  0  0  0
 12 27  1  0  0  0  0
 12 28  1  0  0  0  0
 13 29  1  0  0  0  0
 13 30  1  0  0  0  0
 14 15  1  0  0  0  0
 14 31  1  0  0  0  0
M  END
> <s_m_source_file>
AV-unprocessed.smi

> <i_m_source_file_index>
563

> <i_lp_mmshare_version>
43012

> <i_f3d_flags>
0

> <s_epik_input>
W0NIM11jMW5jKFtjSF1zMSlbQ0gyXUMoPU8pW05IXVtDSF0yW0NIMl1bQ0gyXVtDSDJdW0NIMl0y

> <s_epik_cmdline>
J2VwaWtfcHl0aG9uJywgJy1waCcsICc3LjAnLCAnLXRuJywgJzgnLCAnLW1hJywgJzIwMCcsICctbWV0YWxfYmluZGluZycsICctaW1hZScsICc8aW5maWxlLm1hZT4nLCAnLW9tYWUnLCAnPG91dGZpbGUubWFlPic=

> <r_lp_tautomer_probability>
1

> <r_epik_Ionization_Penalty>
6.26871e-05

> <r_epik_Ionization_Penalty_Charging>
0

> <r_epik_Ionization_Penalty_Neutral>
6.26871e-05

> <r_epik_State_Penalty>
-0

> <r_epik_Charging_Adjusted_Penalty>
0

> <i_epik_Tot_Q>
0

> <i_epik_Tot_abs_Q>
0

> <r_epik_Metal_State_Penalty>
-0

> <b_epik_Metal_Only>
0

> <s_lp_Force_Field>
OPLS_2005

> <r_lp_Energy>
15.9106

> <b_lp_Chiralities_Consistent>
1

> <s_lp_Variant>
AV-unprocessed.smi:563-1

> <Gold.Version>
5.8.1

> <Gold.Id.Protein>
6NUR|6NUR_protein|mol2

> <Gold.PLP.Fitness>
40.1226

> <Gold.PLP.PLP>
-37.6671

> <Gold.PLP.part.hbond>
-0.8413

> <Gold.PLP.part.metal>
0.0000

> <Gold.PLP.part.buried>
-4.3978

> <Gold.PLP.part.nonpolar>
-33.6275

> <Gold.PLP.part.repulsive>
0.0816

> <Gold.PLP.ligand.clash>
0.0000

> <Gold.PLP.ligand.torsion>
0.2734

> <Gold.PLP.Chemscore.Hbond>
1.0000

> <Gold.PLP.Chemscore.CHOScore>
0.0000

> <Gold.PLP.Chemscore.Metal>
0.0000

> <Gold.Chemscore.Hbonds>
donor molecule, donor type, donor heavy atom, donor atom, acceptor molecule, acceptor atom, score
      L1  H     8    21       P1  8028  1.00

> <Gold.PLP.Chemscore.Internal.Correction>
0.0024

> <Gold.Rescore>
     Score         DG    S(hbond)    S(metal)    S(lipo)     H(rot)  DE(clash)    DE(int)     intcor
     15.77     -16.83       0.99        0.00      97.05       1.29       0.07       1.00       ----

> <Gold.Chemscore.Fitness>
15.7696

> <Gold.Chemscore.DG>
-16.8348

> <Gold.Chemscore.ZeroCoef>
-5.4800

> <Gold.Chemscore.Hbond>
0.9923

> <Gold.Chemscore.Metal>
0.0000

> <Gold.Chemscore.Lipo>
97.0476

> <Gold.Chemscore.Internal_Hbond>
0.0000

> <Gold.Chemscore.DEClash>
0.0680

> <Gold.Chemscore.DEInternal>
0.9972

> <Gold.Chemscore.Rot>
1.2946

> <Gold.Chemscore.Internal.Correction>
   9.000000E+99

> <Gold.Chemscore.Hbonds>
donor molecule, donor type, donor heavy atom, donor atom, acceptor molecule, acceptor atom, score
      L1  H     8    21       P1  8028  0.99

> <Gold.Chemscore.Hbond.Weighted>
-3.3143

> <Gold.Chemscore.Metal.Weighted>
-0.0000

> <Gold.Chemscore.Lipo.Weighted>
-11.3546

> <Gold.Chemscore.Internal_Hbond.Weighted>
0.0000

> <Gold.Chemscore.DEClash.Weighted>
0.0680

> <Gold.Chemscore.DEInternal.Weighted>
0.9972

> <Gold.Chemscore.Rot.Weighted>
3.3141

> <Gold.Chemscore.Internal.Correction.Weighted>
   9.000000E+99

> <Gold.Protein.RotatedTorsions>
[ 6907 6896 6895 6894 ] final -167.78 input  -60.11 | X-H torsion
[ 7974 7965 7964 7962 ] final   54.33 input  175.53 | X-H torsion
[ 8008 7997 7996 7995 ] final   78.39 input   59.86 | X-H torsion
[ 10167 10162 10161 10158 ] final   -8.58 input  -65.29 | X-H torsion
[ 10718 10713 10712 10709 ] final  -93.39 input   66.30 | X-H torsion
[ 10763 10752 10751 10750 ] final -151.45 input  -60.55 | X-H torsion
[ 11005 11000 10999 10996 ] final -106.48 input  -57.11 | X-H torsion

> <Gold.Protein.ActiveResidues>
 VAL166  LYS551  ARG553  GLY616  TRP617  ASP618  TYR619  PRO620  LYS621  CYS622 
 ASP623  PHE694  ASN695  SER759  ASP760  ASP761  ALA762  ILE779  LEU786  VAL792 
 PHE793  MET794  SER795  GLU796  ALA797  LYS798  CYS799  TRP800  GLU811  SER814 

> <Gold.Protein.RotatedAtoms>
  151.4651  133.3583  159.2814 H   0  0  0  0  0  0  0  0  0  0  0  0  # atno 6907 bound_to 6896
  150.8999  134.8412  159.7363 H   0  0  0  0  0  0  0  0  0  0  0  0  # atno 6908 bound_to 6896
  152.4873  134.4570  159.9645 H   0  0  0  0  0  0  0  0  0  0  0  0  # atno 6909 bound_to 6896
  145.9620  139.4068  143.0242 H   0  0  0  0  0  0  0  0  0  0  0  0  # atno 7974 bound_to 7965
  155.8551  140.3456  155.5719 H   0  0  0  0  0  0  0  0  0  0  0  0  # atno 8008 bound_to 7997
  155.7995  140.0883  157.1984 H   0  0  0  0  0  0  0  0  0  0  0  0  # atno 8009 bound_to 7997
  154.4009  140.1468  156.3245 H   0  0  0  0  0  0  0  0  0  0  0  0  # atno 8010 bound_to 7997
  140.7063  143.5953  150.8852 H   0  0  0  0  0  0  0  0  0  0  0  0  # atno 10167 bound_to 10162
  156.0013  130.5025  150.5770 H   0  0  0  0  0  0  0  0  0  0  0  0  # atno 10718 bound_to 10713
  154.8057  135.3260  154.7437 H   0  0  0  0  0  0  0  0  0  0  0  0  # atno 10763 bound_to 10752
  153.8096  135.6897  153.4847 H   0  0  0  0  0  0  0  0  0  0  0  0  # atno 10764 bound_to 10752
  153.1801  135.4590  154.9961 H   0  0  0  0  0  0  0  0  0  0  0  0  # atno 10765 bound_to 10752
  141.1002  133.8897  157.1861 H   0  0  0  0  0  0  0  0  0  0  0  0  # atno 11005 bound_to 11000
  145.8027  140.9763  143.0990 LP  0  0  0  0  0  0  0  0  0  0  0  0  # atno 17320 bound_to 7965
  144.6817  139.9821  143.7483 LP  0  0  0  0  0  0  0  0  0  0  0  0  # atno 17321 bound_to 7965
  139.9678  143.6090  152.2983 LP  0  0  0  0  0  0  0  0  0  0  0  0  # atno 17342 bound_to 10162
  139.6666  144.7662  151.1861 LP  0  0  0  0  0  0  0  0  0  0  0  0  # atno 17343 bound_to 10162
  157.3656  131.0757  151.1601 LP  0  0  0  0  0  0  0  0  0  0  0  0  # atno 17370 bound_to 10713
  157.2371  130.6552  149.5874 LP  0  0  0  0  0  0  0  0  0  0  0  0  # atno 17371 bound_to 10713
  139.9851  135.0084  156.9844 LP  0  0  0  0  0  0  0  0  0  0  0  0  # atno 17394 bound_to 11000
  140.5040  134.1069  155.7256 LP  0  0  0  0  0  0  0  0  0  0  0  0  # atno 17395 bound_to 11000

$$$$
