AV-unprocessed.smi:2497|AV-procd|sdf|9829|dock6
  -GOLD-   2272013463D 1   1.00000     0.00000
 Structure written by MMmdl.
 47 48  0  0  0  0  0  0  0  0  1 V2000
  152.5572  142.1375  159.4699 C   0  0  0  0  0  0  0  0  0  0  0  0
  152.0674  143.0602  158.3408 C   0  0  0  0  0  0  0  0  0  0  0  0
  151.4585  144.3433  158.9263 C   0  0  0  0  0  0  0  0  0  0  0  0
  151.0628  142.3590  157.4048 C   0  0  0  0  0  0  0  0  0  0  0  0
  151.7095  141.3781  156.4115 C   0  0  0  0  0  0  0  0  0  0  0  0
  150.7063  140.6434  155.6668 N   0  0  0  0  0  0  0  0  0  0  0  0
  149.5083  141.1015  155.1573 C   0  0  0  0  0  0  0  0  0  0  0  0
  148.8915  140.0461  154.5479 C   0  0  0  0  0  0  0  0  0  0  0  0
  149.8081  138.9713  154.7519 C   0  0  0  0  0  0  0  0  0  0  0  0
  149.6448  137.6388  154.2953 N   0  0  0  0  0  0  0  0  0  0  0  0
  149.7048  136.5027  155.0092 C   0  0  0  0  0  0  0  0  0  0  0  0
  149.9449  136.4367  156.2144 O   0  0  0  0  0  0  0  0  0  0  0  0
  149.4783  135.4341  154.2264 N   0  0  0  0  0  0  0  0  0  0  0  0
  149.4597  134.0117  154.5997 C   0  0  0  0  0  0  0  0  0  0  0  0
  150.7648  133.6505  155.3410 C   0  0  0  0  0  0  0  0  0  0  0  0
  148.2224  133.6555  155.4601 C   0  0  0  0  0  0  0  0  0  0  0  0
  146.9102  133.8003  154.6693 C   0  0  0  0  0  0  0  0  0  0  0  0
  146.9528  132.9756  153.5108 O   0  0  0  0  0  0  0  0  0  0  0  0
  147.9949  133.3368  152.6123 C   0  0  0  0  0  0  0  0  0  0  0  0
  149.3654  133.1835  153.2997 C   0  0  0  0  0  0  0  0  0  0  0  0
  150.8962  139.3315  155.4095 N   0  0  0  0  0  0  0  0  0  0  0  0
  151.7258  141.7817  160.0794 H   0  0  0  0  0  0  0  0  0  0  0  0
  153.2501  142.6608  160.1295 H   0  0  0  0  0  0  0  0  0  0  0  0
  153.0828  141.2659  159.0810 H   0  0  0  0  0  0  0  0  0  0  0  0
  152.9339  143.3553  157.7476 H   0  0  0  0  0  0  0  0  0  0  0  0
  150.5763  144.1240  159.5289 H   0  0  0  0  0  0  0  0  0  0  0  0
  151.1595  145.0336  158.1371 H   0  0  0  0  0  0  0  0  0  0  0  0
  152.1745  144.8643  159.5625 H   0  0  0  0  0  0  0  0  0  0  0  0
  150.3090  141.8413  158.0002 H   0  0  0  0  0  0  0  0  0  0  0  0
  150.5249  143.1161  156.8320 H   0  0  0  0  0  0  0  0  0  0  0  0
  152.3421  141.9150  155.7037 H   0  0  0  0  0  0  0  0  0  0  0  0
  152.3480  140.6603  156.9266 H   0  0  0  0  0  0  0  0  0  0  0  0
  149.1972  142.1296  155.2707 H   0  0  0  0  0  0  0  0  0  0  0  0
  147.9385  140.0573  154.0406 H   0  0  0  0  0  0  0  0  0  0  0  0
  149.4957  137.5386  153.3021 H   0  0  0  0  0  0  0  0  0  0  0  0
  149.2962  135.6239  153.2517 H   0  0  0  0  0  0  0  0  0  0  0  0
  150.8211  132.5804  155.5430 H   0  0  0  0  0  0  0  0  0  0  0  0
  150.8440  134.1602  156.3013 H   0  0  0  0  0  0  0  0  0  0  0  0
  151.6425  133.9177  154.7514 H   0  0  0  0  0  0  0  0  0  0  0  0
  148.3062  132.6218  155.7983 H   0  0  0  0  0  0  0  0  0  0  0  0
  148.1789  134.2564  156.3680 H   0  0  0  0  0  0  0  0  0  0  0  0
  146.0670  133.4913  155.2871 H   0  0  0  0  0  0  0  0  0  0  0  0
  146.7304  134.8386  154.3871 H   0  0  0  0  0  0  0  0  0  0  0  0
  147.9417  132.6868  151.7387 H   0  0  0  0  0  0  0  0  0  0  0  0
  147.8434  134.3564  152.2548 H   0  0  0  0  0  0  0  0  0  0  0  0
  150.1614  133.4637  152.6084 H   0  0  0  0  0  0  0  0  0  0  0  0
  149.5199  132.1275  153.5265 H   0  0  0  0  0  0  0  0  0  0  0  0
  1  2  1  0  0  0  0
  1 22  1  0  0  0  0
  1 23  1  0  0  0  0
  1 24  1  0  0  0  0
  2  3  1  0  0  0  0
  2  4  1  0  0  0  0
  2 25  1  0  0  0  0
  3 26  1  0  0  0  0
  3 27  1  0  0  0  0
  3 28  1  0  0  0  0
  4  5  1  0  0  0  0
  4 29  1  0  0  0  0
  4 30  1  0  0  0  0
  5  6  1  0  0  0  0
  5 31  1  0  0  0  0
  5 32  1  0  0  0  0
  6 21  1  0  0  0  0
  6  7  1  0  0  0  0
  7  8  2  0  0  0  0
  7 33  1  0  0  0  0
  8  9  1  0  0  0  0
  8 34  1  0  0  0  0
  9 10  1  0  0  0  0
  9 21  2  0  0  0  0
 10 11  1  0  0  0  0
 10 35  1  0  0  0  0
 11 12  2  0  0  0  0
 11 13  1  0  0  0  0
 13 14  1  0  0  0  0
 13 36  1  0  0  0  0
 14 20  1  0  0  0  0
 14 15  1  0  0  0  0
 14 16  1  0  0  0  0
 15 37  1  0  0  0  0
 15 38  1  0  0  0  0
 15 39  1  0  0  0  0
 16 17  1  0  0  0  0
 16 40  1  0  0  0  0
 16 41  1  0  0  0  0
 17 18  1  0  0  0  0
 17 42  1  0  0  0  0
 17 43  1  0  0  0  0
 18 19  1  0  0  0  0
 19 20  1  0  0  0  0
 19 44  1  0  0  0  0
 19 45  1  0  0  0  0
 20 46  1  0  0  0  0
 20 47  1  0  0  0  0
M  END
> <s_m_source_file>
AV-unprocessed.smi

> <i_m_source_file_index>
2497

> <i_lp_mmshare_version>
43012

> <i_f3d_flags>
0

> <s_epik_input>
W0NIM11bQ0hdKFtDSDNdKVtDSDJdW0NIMl1uMVtjSF1bY0hdYyhuMSlbTkhdQyg9TylbTkhdQzIoW0NIM10pW0NIMl1bQ0gyXU9bQ0gyXVtDSDJdMg==

> <s_epik_cmdline>
J2VwaWtfcHl0aG9uJywgJy1waCcsICc3LjAnLCAnLXRuJywgJzgnLCAnLW1hJywgJzIwMCcsICctbWV0YWxfYmluZGluZycsICctaW1hZScsICc8aW5maWxlLm1hZT4nLCAnLW9tYWUnLCAnPG91dGZpbGUubWFlPic=

> <r_lp_tautomer_probability>
1

> <r_epik_Ionization_Penalty>
3.57775e-05

> <r_epik_Ionization_Penalty_Charging>
0

> <r_epik_Ionization_Penalty_Neutral>
3.57775e-05

> <r_epik_State_Penalty>
-0

> <r_epik_Charging_Adjusted_Penalty>
0

> <i_epik_Tot_Q>
0

> <i_epik_Tot_abs_Q>
0

> <r_epik_Metal_State_Penalty>
-0

> <b_epik_Metal_Only>
0

> <s_lp_Force_Field>
OPLS_2005

> <r_lp_Energy>
13.1227

> <b_lp_Chiralities_Consistent>
1

> <s_lp_Variant>
AV-unprocessed.smi:2497-1

> <Gold.Version>
5.8.1

> <Gold.Id.Protein>
6NUR|6NUR_protein|mol2

> <Gold.PLP.Fitness>
43.6556

> <Gold.PLP.PLP>
-36.8768

> <Gold.PLP.part.hbond>
-2.0000

> <Gold.PLP.part.metal>
0.0000

> <Gold.PLP.part.buried>
-3.7910

> <Gold.PLP.part.nonpolar>
-31.2470

> <Gold.PLP.part.repulsive>
0.1636

> <Gold.PLP.ligand.clash>
0.0000

> <Gold.PLP.ligand.torsion>
1.0662

> <Gold.PLP.Chemscore.Hbond>
1.9516

> <Gold.PLP.Chemscore.CHOScore>
0.9975

> <Gold.PLP.Chemscore.Metal>
0.0000

> <Gold.Chemscore.Hbonds>
donor molecule, donor type, donor heavy atom, donor atom, acceptor molecule, acceptor atom, score
      L1  H    10    35       P1  7948  0.90
      L1  H    13    36       P1  7948  0.98
      L1  C     7    33       P1  8028  0.75

> <Gold.PLP.Chemscore.Internal.Correction>
0.0639

> <Gold.Rescore>
     Score         DG    S(hbond)    S(metal)    S(lipo)     H(rot)  DE(clash)    DE(int)     intcor
     15.82     -17.62       1.90        0.00      81.55       1.47       0.06       1.74       ----

> <Gold.Chemscore.Fitness>
15.8241

> <Gold.Chemscore.DG>
-17.6171

> <Gold.Chemscore.ZeroCoef>
-5.4800

> <Gold.Chemscore.Hbond>
1.9038

> <Gold.Chemscore.Metal>
0.0000

> <Gold.Chemscore.Lipo>
81.5478

> <Gold.Chemscore.Internal_Hbond>
0.0000

> <Gold.Chemscore.DEClash>
0.0580

> <Gold.Chemscore.DEInternal>
1.7350

> <Gold.Chemscore.Rot>
1.4698

> <Gold.Chemscore.Internal.Correction>
   9.000000E+99

> <Gold.Chemscore.Hbonds>
donor molecule, donor type, donor heavy atom, donor atom, acceptor molecule, acceptor atom, score
      L1  H    10    35       P1  7948  0.78
      L1  H    13    36       P1  7948  0.27

> <Gold.Chemscore.Hbond.Weighted>
-6.3587

> <Gold.Chemscore.Metal.Weighted>
-0.0000

> <Gold.Chemscore.Lipo.Weighted>
-9.5411

> <Gold.Chemscore.Internal_Hbond.Weighted>
0.0000

> <Gold.Chemscore.DEClash.Weighted>
0.0580

> <Gold.Chemscore.DEInternal.Weighted>
1.7350

> <Gold.Chemscore.Rot.Weighted>
3.7628

> <Gold.Chemscore.Internal.Correction.Weighted>
   9.000000E+99

> <Gold.Protein.RotatedTorsions>
[ 6907 6896 6895 6894 ] final   69.41 input  -60.11 | X-H torsion
[ 7974 7965 7964 7962 ] final -163.61 input  175.53 | X-H torsion
[ 8008 7997 7996 7995 ] final -174.96 input   59.86 | X-H torsion
[ 10167 10162 10161 10158 ] final  153.40 input  -65.29 | X-H torsion
[ 10718 10713 10712 10709 ] final  -84.71 input   66.30 | X-H torsion
[ 10763 10752 10751 10750 ] final  -39.60 input  -60.55 | X-H torsion
[ 11005 11000 10999 10996 ] final   65.84 input  -57.11 | X-H torsion

> <Gold.Protein.ActiveResidues>
 VAL166  LYS551  ARG553  GLY616  TRP617  ASP618  TYR619  PRO620  LYS621  CYS622 
 ASP623  PHE694  ASN695  SER759  ASP760  ASP761  ALA762  ILE779  LEU786  VAL792 
 PHE793  MET794  SER795  GLU796  ALA797  LYS798  CYS799  TRP800  GLU811  SER814 

> <Gold.Protein.RotatedAtoms>
  152.4684  134.5019  159.9727 H   0  0  0  0  0  0  0  0  0  0  0  0  # atno 6907 bound_to 6896
  151.5051  133.3490  159.2883 H   0  0  0  0  0  0  0  0  0  0  0  0  # atno 6908 bound_to 6896
  150.8681  134.8077  159.7196 H   0  0  0  0  0  0  0  0  0  0  0  0  # atno 6909 bound_to 6896
  144.7321  140.3081  143.6193 H   0  0  0  0  0  0  0  0  0  0  0  0  # atno 7974 bound_to 7965
  155.9766  140.1173  157.0765 H   0  0  0  0  0  0  0  0  0  0  0  0  # atno 8008 bound_to 7997
  154.4171  140.1153  156.5446 H   0  0  0  0  0  0  0  0  0  0  0  0  # atno 8009 bound_to 7997
  155.6526  140.3473  155.4756 H   0  0  0  0  0  0  0  0  0  0  0  0  # atno 8010 bound_to 7997
  139.4827  144.5276  151.7775 H   0  0  0  0  0  0  0  0  0  0  0  0  # atno 10167 bound_to 10162
  156.0003  130.4707  150.4452 H   0  0  0  0  0  0  0  0  0  0  0  0  # atno 10718 bound_to 10713
  153.9320  135.6771  153.4745 H   0  0  0  0  0  0  0  0  0  0  0  0  # atno 10763 bound_to 10752
  153.0974  135.4844  154.8802 H   0  0  0  0  0  0  0  0  0  0  0  0  # atno 10764 bound_to 10752
  154.7423  135.3163  154.8664 H   0  0  0  0  0  0  0  0  0  0  0  0  # atno 10765 bound_to 10752
  139.9869  134.6653  156.0160 H   0  0  0  0  0  0  0  0  0  0  0  0  # atno 11005 bound_to 11000
  145.7692  139.1851  143.2222 LP  0  0  0  0  0  0  0  0  0  0  0  0  # atno 17320 bound_to 7965
  146.0924  140.7640  142.9589 LP  0  0  0  0  0  0  0  0  0  0  0  0  # atno 17321 bound_to 7965
  140.4798  144.1465  150.5931 LP  0  0  0  0  0  0  0  0  0  0  0  0  # atno 17342 bound_to 10162
  140.4290  143.2577  151.9620 LP  0  0  0  0  0  0  0  0  0  0  0  0  # atno 17343 bound_to 10162
  157.2489  131.0542  151.2391 LP  0  0  0  0  0  0  0  0  0  0  0  0  # atno 17370 bound_to 10713
  157.3547  130.7100  149.6463 LP  0  0  0  0  0  0  0  0  0  0  0  0  # atno 17371 bound_to 10713
  141.1532  133.6546  156.4080 LP  0  0  0  0  0  0  0  0  0  0  0  0  # atno 17394 bound_to 11000
  140.4984  134.6509  157.5239 LP  0  0  0  0  0  0  0  0  0  0  0  0  # atno 17395 bound_to 11000

$$$$
