AV-unprocessed.smi:2009|AV-procd|sdf|8145|dock10
  -GOLD-   2272010383D 1   1.00000     0.00000
 Structure written by MMmdl.
 38 39  0  0  0  0  0  0  0  0  1 V2000
  152.6445  138.6398  155.0613 C   0  0  0  0  0  0  0  0  0  0  0  0
  151.2404  139.0302  155.5475 C   0  0  2  0  0  0  0  0  0  0  0  0
  150.2206  139.2103  154.3998 C   0  0  0  0  0  0  0  0  0  0  0  0
  149.0695  140.0207  154.7640 N   0  0  0  0  0  0  0  0  0  0  0  0
  148.4590  141.0163  154.0299 C   0  0  0  0  0  0  0  0  0  0  0  0
  147.4204  141.4940  154.7761 C   0  0  0  0  0  0  0  0  0  0  0  0
  147.4795  140.7218  155.9697 C   0  0  0  0  0  0  0  0  0  0  0  0
  148.4688  139.8429  155.9611 N   0  0  0  0  0  0  0  0  0  0  0  0
  151.3381  140.2471  156.3593 N   0  0  0  0  0  0  0  0  0  0  0  0
  152.0215  140.1864  157.9422 S   0  0  0  0  0  0  0  0  0  0  0  0
  151.0345  139.6090  158.8673 O   0  0  0  0  0  0  0  0  0  0  0  0
  153.3741  139.6195  157.8296 O   0  0  0  0  0  0  0  0  0  0  0  0
  152.1438  141.8848  158.2605 N   0  0  0  0  0  0  0  0  0  0  0  0
  152.3534  142.2822  159.6671 C   0  0  0  0  0  0  0  0  0  0  0  0
  152.8064  143.7474  159.7798 C   0  0  0  0  0  0  0  0  0  0  0  0
  151.8285  144.6873  159.0699 C   0  0  0  0  0  0  0  0  0  0  0  0
  151.6789  144.2490  157.6106 C   0  0  0  0  0  0  0  0  0  0  0  0
  151.2345  142.7804  157.5128 C   0  0  0  0  0  0  0  0  0  0  0  0
  152.6078  137.7422  154.4437 H   0  0  0  0  0  0  0  0  0  0  0  0
  153.3063  138.4329  155.9028 H   0  0  0  0  0  0  0  0  0  0  0  0
  153.1030  139.4327  154.4696 H   0  0  0  0  0  0  0  0  0  0  0  0
  150.8826  138.2264  156.1920 H   0  0  0  0  0  0  0  0  0  0  0  0
  150.7124  139.6726  153.5424 H   0  0  0  0  0  0  0  0  0  0  0  0
  149.8608  138.2440  154.0471 H   0  0  0  0  0  0  0  0  0  0  0  0
  148.8102  141.2954  153.0471 H   0  0  0  0  0  0  0  0  0  0  0  0
  146.7252  142.2766  154.5109 H   0  0  0  0  0  0  0  0  0  0  0  0
  146.8379  140.7740  156.8369 H   0  0  0  0  0  0  0  0  0  0  0  0
  151.6421  141.0648  155.8313 H   0  0  0  0  0  0  0  0  0  0  0  0
  151.4263  142.1267  160.2204 H   0  0  0  0  0  0  0  0  0  0  0  0
  153.1052  141.6375  160.1225 H   0  0  0  0  0  0  0  0  0  0  0  0
  152.8966  144.0281  160.8295 H   0  0  0  0  0  0  0  0  0  0  0  0
  153.8007  143.8562  159.3446 H   0  0  0  0  0  0  0  0  0  0  0  0
  150.8587  144.6641  159.5683 H   0  0  0  0  0  0  0  0  0  0  0  0
  152.1870  145.7157  159.1216 H   0  0  0  0  0  0  0  0  0  0  0  0
  150.9575  144.8892  157.1021 H   0  0  0  0  0  0  0  0  0  0  0  0
  152.6282  144.3784  157.0891 H   0  0  0  0  0  0  0  0  0  0  0  0
  151.1968  142.4860  156.4644 H   0  0  0  0  0  0  0  0  0  0  0  0
  150.2236  142.6652  157.9059 H   0  0  0  0  0  0  0  0  0  0  0  0
  1  2  1  0  0  0  0
  1 19  1  0  0  0  0
  1 20  1  0  0  0  0
  1 21  1  0  0  0  0
  2  3  1  0  0  0  0
  2  9  1  0  0  0  0
  2 22  1  0  0  0  0
  3  4  1  0  0  0  0
  3 23  1  0  0  0  0
  3 24  1  0  0  0  0
  4  8  1  0  0  0  0
  4  5  1  0  0  0  0
  5  6  2  0  0  0  0
  5 25  1  0  0  0  0
  6  7  1  0  0  0  0
  6 26  1  0  0  0  0
  7  8  2  0  0  0  0
  7 27  1  0  0  0  0
  9 10  1  0  0  0  0
  9 28  1  0  0  0  0
 10 11  2  0  0  0  0
 10 12  2  0  0  0  0
 10 13  1  0  0  0  0
 13 18  1  0  0  0  0
 13 14  1  0  0  0  0
 14 15  1  0  0  0  0
 14 29  1  0  0  0  0
 14 30  1  0  0  0  0
 15 16  1  0  0  0  0
 15 31  1  0  0  0  0
 15 32  1  0  0  0  0
 16 17  1  0  0  0  0
 16 33  1  0  0  0  0
 16 34  1  0  0  0  0
 17 18  1  0  0  0  0
 17 35  1  0  0  0  0
 17 36  1  0  0  0  0
 18 37  1  0  0  0  0
 18 38  1  0  0  0  0
M  END
> <s_m_source_file>
AV-unprocessed.smi

> <i_m_source_file_index>
2009

> <i_lp_mmshare_version>
43012

> <i_f3d_flags>
0

> <s_epik_input>
bjFbY0hdW2NIXVtjSF1uMVtDSDJdW0NAQEhdKFtDSDNdKVtOSF1TKD1PKSg9TylOMltDSDJdW0NIMl1bQ0gyXVtDSDJdW0NIMl0y

> <s_epik_cmdline>
J2VwaWtfcHl0aG9uJywgJy1waCcsICc3LjAnLCAnLXRuJywgJzgnLCAnLW1hJywgJzIwMCcsICctbWV0YWxfYmluZGluZycsICctaW1hZScsICc8aW5maWxlLm1hZT4nLCAnLW9tYWUnLCAnPG91dGZpbGUubWFlPic=

> <r_lp_tautomer_probability>
1

> <r_epik_Ionization_Penalty>
0.0313937

> <r_epik_Ionization_Penalty_Charging>
0

> <r_epik_Ionization_Penalty_Neutral>
0.0313937

> <r_epik_State_Penalty>
0.0259441

> <r_epik_Charging_Adjusted_Penalty>
0.0259441

> <i_epik_Tot_Q>
0

> <i_epik_Tot_abs_Q>
0

> <r_epik_Metal_State_Penalty>
0.365037

> <b_epik_Metal_Only>
0

> <s_lp_Force_Field>
OPLS_2005

> <r_lp_Energy>
7.7354

> <b_lp_Chiralities_Consistent>
1

> <s_lp_Variant>
AV-unprocessed.smi:2009-1

> <Gold.Version>
5.8.1

> <Gold.Id.Protein>
6NUR|6NUR_protein|mol2

> <Gold.PLP.Fitness>
43.0464

> <Gold.PLP.PLP>
-39.2947

> <Gold.PLP.part.hbond>
-1.0000

> <Gold.PLP.part.metal>
0.0000

> <Gold.PLP.part.buried>
-3.2546

> <Gold.PLP.part.nonpolar>
-35.4741

> <Gold.PLP.part.repulsive>
0.0171

> <Gold.PLP.ligand.clash>
0.0000

> <Gold.PLP.ligand.torsion>
1.5150

> <Gold.PLP.Chemscore.Hbond>
1.0000

> <Gold.PLP.Chemscore.CHOScore>
1.0000

> <Gold.PLP.Chemscore.Metal>
0.0000

> <Gold.Chemscore.Hbonds>
donor molecule, donor type, donor heavy atom, donor atom, acceptor molecule, acceptor atom, score
      P1  H  7997  8010       L1    12  0.99
      L1  C     5    25       P1  7957  1.00

> <Gold.PLP.Chemscore.Internal.Correction>
0.7818

> <Gold.Rescore>
     Score         DG    S(hbond)    S(metal)    S(lipo)     H(rot)  DE(clash)    DE(int)     intcor
     14.97     -16.13       0.99        0.00     102.51       1.82       0.07       1.08       ----

> <Gold.Chemscore.Fitness>
14.9716

> <Gold.Chemscore.DG>
-16.1268

> <Gold.Chemscore.ZeroCoef>
-5.4800

> <Gold.Chemscore.Hbond>
0.9945

> <Gold.Chemscore.Metal>
0.0000

> <Gold.Chemscore.Lipo>
102.5101

> <Gold.Chemscore.Internal_Hbond>
0.0000

> <Gold.Chemscore.DEClash>
0.0710

> <Gold.Chemscore.DEInternal>
1.0842

> <Gold.Chemscore.Rot>
1.8237

> <Gold.Chemscore.Internal.Correction>
   9.000000E+99

> <Gold.Chemscore.Hbonds>
donor molecule, donor type, donor heavy atom, donor atom, acceptor molecule, acceptor atom, score
      P1  H  7997  8010       L1    12  0.92

> <Gold.Chemscore.Hbond.Weighted>
-3.3217

> <Gold.Chemscore.Metal.Weighted>
-0.0000

> <Gold.Chemscore.Lipo.Weighted>
-11.9937

> <Gold.Chemscore.Internal_Hbond.Weighted>
0.0000

> <Gold.Chemscore.DEClash.Weighted>
0.0710

> <Gold.Chemscore.DEInternal.Weighted>
1.0842

> <Gold.Chemscore.Rot.Weighted>
4.6686

> <Gold.Chemscore.Internal.Correction.Weighted>
   9.000000E+99

> <Gold.Protein.RotatedTorsions>
[ 6907 6896 6895 6894 ] final -130.83 input  -60.11 | X-H torsion
[ 7974 7965 7964 7962 ] final  139.87 input  175.53 | X-H torsion
[ 8008 7997 7996 7995 ] final   30.88 input   59.86 | X-H torsion
[ 10167 10162 10161 10158 ] final  -68.75 input  -65.29 | X-H torsion
[ 10718 10713 10712 10709 ] final -172.92 input   66.30 | X-H torsion
[ 10763 10752 10751 10750 ] final  -33.75 input  -60.55 | X-H torsion
[ 11005 11000 10999 10996 ] final   21.63 input  -57.11 | X-H torsion

> <Gold.Protein.ActiveResidues>
 VAL166  LYS551  ARG553  GLY616  TRP617  ASP618  TYR619  PRO620  LYS621  CYS622 
 ASP623  PHE694  ASN695  SER759  ASP760  ASP761  ALA762  ILE779  LEU786  VAL792 
 PHE793  MET794  SER795  GLU796  ALA797  LYS798  CYS799  TRP800  GLU811  SER814 

> <Gold.Protein.RotatedAtoms>
  150.9441  133.6623  159.2784 H   0  0  0  0  0  0  0  0  0  0  0  0  # atno 6907 bound_to 6896
  151.4001  135.0968  159.9563 H   0  0  0  0  0  0  0  0  0  0  0  0  # atno 6908 bound_to 6896
  152.5082  133.8937  159.7461 H   0  0  0  0  0  0  0  0  0  0  0  0  # atno 6909 bound_to 6896
  144.9238  139.5133  143.5650 H   0  0  0  0  0  0  0  0  0  0  0  0  # atno 7974 bound_to 7965
  155.0976  140.3226  155.4556 H   0  0  0  0  0  0  0  0  0  0  0  0  # atno 8008 bound_to 7997
  156.2726  140.2067  156.6049 H   0  0  0  0  0  0  0  0  0  0  0  0  # atno 8009 bound_to 7997
  154.6855  140.0522  157.0297 H   0  0  0  0  0  0  0  0  0  0  0  0  # atno 8010 bound_to 7997
  140.5483  143.2312  151.6959 H   0  0  0  0  0  0  0  0  0  0  0  0  # atno 10167 bound_to 10162
  156.7627  130.9419  151.3118 H   0  0  0  0  0  0  0  0  0  0  0  0  # atno 10718 bound_to 10713
  153.8354  135.6862  153.4809 H   0  0  0  0  0  0  0  0  0  0  0  0  # atno 10763 bound_to 10752
  153.1486  135.4627  154.9601 H   0  0  0  0  0  0  0  0  0  0  0  0  # atno 10764 bound_to 10752
  154.7868  135.3288  154.7813 H   0  0  0  0  0  0  0  0  0  0  0  0  # atno 10765 bound_to 10752
  140.3895  134.1834  155.7662 H   0  0  0  0  0  0  0  0  0  0  0  0  # atno 11005 bound_to 11000
  146.3217  139.8138  142.8940 LP  0  0  0  0  0  0  0  0  0  0  0  0  # atno 17320 bound_to 7965
  145.3252  141.0253  143.3478 LP  0  0  0  0  0  0  0  0  0  0  0  0  # atno 17321 bound_to 7965
  139.5017  144.3858  152.0330 LP  0  0  0  0  0  0  0  0  0  0  0  0  # atno 17342 bound_to 10162
  140.2973  144.3686  150.6070 LP  0  0  0  0  0  0  0  0  0  0  0  0  # atno 17343 bound_to 10162
  157.6727  130.9066  150.0078 LP  0  0  0  0  0  0  0  0  0  0  0  0  # atno 17370 bound_to 10713
  156.1329  130.3643  149.9703 LP  0  0  0  0  0  0  0  0  0  0  0  0  # atno 17371 bound_to 10713
  141.1896  133.8236  157.0952 LP  0  0  0  0  0  0  0  0  0  0  0  0  # atno 17394 bound_to 11000
  140.0417  134.9851  157.0974 LP  0  0  0  0  0  0  0  0  0  0  0  0  # atno 17395 bound_to 11000

$$$$
