AV-unprocessed.smi:1379|AV-procd|sdf|5598|dock8
  -GOLD-   22720 5203D 1   1.00000     0.00000
 Structure written by MMmdl.
 34 35  0  0  0  0  0  0  0  0  1 V2000
  156.5655  144.2067  169.0648 C   0  0  0  0  0  0  0  0  0  0  0  0
  156.4463  144.4347  167.6720 O   0  0  0  0  0  0  0  0  0  0  0  0
  155.9035  143.3184  166.9829 C   0  0  0  0  0  0  0  0  0  0  0  0
  155.2607  143.7811  165.6736 C   0  0  0  0  0  0  0  0  0  0  0  0
  155.2664  144.9740  165.3690 O   0  0  0  0  0  0  0  0  0  0  0  0
  154.6982  142.8056  164.9369 N   0  0  0  0  0  0  0  0  0  0  0  0
  154.0273  142.9078  163.6878 C   0  0  0  0  0  0  0  0  0  0  0  0
  153.9284  141.8570  162.7449 C   0  0  0  0  0  0  0  0  0  0  0  0
  153.2211  142.0805  161.5482 C   0  0  0  0  0  0  0  0  0  0  0  0
  152.6251  143.3398  161.3324 C   0  0  0  0  0  0  0  0  0  0  0  0
  151.9253  143.5588  160.1360 N   0  0  0  0  0  0  0  0  0  0  0  0
  151.3401  144.8804  159.9788 C   0  0  0  0  0  0  0  0  0  0  0  0
  150.9847  144.9922  158.4943 C   0  0  0  0  0  0  0  0  0  0  0  0
  151.8924  143.9723  157.7957 C   0  0  0  0  0  0  0  0  0  0  0  0
  152.6925  143.3178  158.9256 C   0  0  0  0  0  0  0  0  0  0  0  0
  152.7047  144.3454  162.2363 N   0  0  0  0  0  0  0  0  0  0  0  0
  153.3852  144.1253  163.3811 C   0  0  0  0  0  0  0  0  0  0  0  0
  156.9800  145.0920  169.5467 H   0  0  0  0  0  0  0  0  0  0  0  0
  157.2317  143.3681  169.2710 H   0  0  0  0  0  0  0  0  0  0  0  0
  155.5938  144.0016  169.5157 H   0  0  0  0  0  0  0  0  0  0  0  0
  156.6877  142.5921  166.7623 H   0  0  0  0  0  0  0  0  0  0  0  0
  155.1491  142.8251  167.5980 H   0  0  0  0  0  0  0  0  0  0  0  0
  154.7019  141.8844  165.3508 H   0  0  0  0  0  0  0  0  0  0  0  0
  154.3650  140.8858  162.9171 H   0  0  0  0  0  0  0  0  0  0  0  0
  153.1343  141.2945  160.8122 H   0  0  0  0  0  0  0  0  0  0  0  0
  150.4607  144.9987  160.6125 H   0  0  0  0  0  0  0  0  0  0  0  0
  152.0583  145.6554  160.2504 H   0  0  0  0  0  0  0  0  0  0  0  0
  149.9389  144.7266  158.3347 H   0  0  0  0  0  0  0  0  0  0  0  0
  151.1316  146.0059  158.1202 H   0  0  0  0  0  0  0  0  0  0  0  0
  151.2858  143.2282  157.2782 H   0  0  0  0  0  0  0  0  0  0  0  0
  152.5486  144.4372  157.0594 H   0  0  0  0  0  0  0  0  0  0  0  0
  153.6793  143.7769  159.0018 H   0  0  0  0  0  0  0  0  0  0  0  0
  152.8310  142.2500  158.7539 H   0  0  0  0  0  0  0  0  0  0  0  0
  153.4217  144.9537  164.0736 H   0  0  0  0  0  0  0  0  0  0  0  0
  1  2  1  0  0  0  0
  1 18  1  0  0  0  0
  1 19  1  0  0  0  0
  1 20  1  0  0  0  0
  2  3  1  0  0  0  0
  3  4  1  0  0  0  0
  3 21  1  0  0  0  0
  3 22  1  0  0  0  0
  4  5  2  0  0  0  0
  4  6  1  0  0  0  0
  6  7  1  0  0  0  0
  6 23  1  0  0  0  0
  7 17  1  0  0  0  0
  7  8  2  0  0  0  0
  8  9  1  0  0  0  0
  8 24  1  0  0  0  0
  9 10  2  0  0  0  0
  9 25  1  0  0  0  0
 10 11  1  0  0  0  0
 10 16  1  0  0  0  0
 11 15  1  0  0  0  0
 11 12  1  0  0  0  0
 12 13  1  0  0  0  0
 12 26  1  0  0  0  0
 12 27  1  0  0  0  0
 13 14  1  0  0  0  0
 13 28  1  0  0  0  0
 13 29  1  0  0  0  0
 14 15  1  0  0  0  0
 14 30  1  0  0  0  0
 14 31  1  0  0  0  0
 15 32  1  0  0  0  0
 15 33  1  0  0  0  0
 16 17  2  0  0  0  0
 17 34  1  0  0  0  0
M  END
> <s_m_source_file>
AV-unprocessed.smi

> <i_m_source_file_index>
1379

> <i_lp_mmshare_version>
43012

> <i_f3d_flags>
0

> <s_epik_input>
W0NIM11PW0NIMl1DKD1PKVtOSF1jMVtjSF1bY0hdYyhuW2NIXTEpTjJbQ0gyXVtDSDJdW0NIMl1bQ0gyXTI=

> <s_epik_cmdline>
J2VwaWtfcHl0aG9uJywgJy1waCcsICc3LjAnLCAnLXRuJywgJzgnLCAnLW1hJywgJzIwMCcsICctbWV0YWxfYmluZGluZycsICctaW1hZScsICc8aW5maWxlLm1hZT4nLCAnLW9tYWUnLCAnPG91dGZpbGUubWFlPic=

> <r_lp_tautomer_probability>
1

> <r_epik_Ionization_Penalty>
0.0264378

> <r_epik_Ionization_Penalty_Charging>
0

> <r_epik_Ionization_Penalty_Neutral>
0.0264378

> <r_epik_State_Penalty>
0.0211097

> <r_epik_Charging_Adjusted_Penalty>
0.0211097

> <i_epik_Tot_Q>
0

> <i_epik_Tot_abs_Q>
0

> <r_epik_Metal_State_Penalty>
0.0201313

> <b_epik_Metal_Only>
0

> <s_lp_Force_Field>
OPLS_2005

> <r_lp_Energy>
37.8316

> <b_lp_Chiralities_Consistent>
1

> <s_lp_Variant>
AV-unprocessed.smi:1379-1

> <Gold.Version>
5.8.1

> <Gold.Id.Protein>
6NUR|6NUR_protein|mol2

> <Gold.PLP.Fitness>
41.2705

> <Gold.PLP.PLP>
-41.8459

> <Gold.PLP.part.hbond>
-2.0000

> <Gold.PLP.part.metal>
0.0000

> <Gold.PLP.part.buried>
-3.5419

> <Gold.PLP.part.nonpolar>
-34.5597

> <Gold.PLP.part.repulsive>
0.4526

> <Gold.PLP.ligand.clash>
0.0000

> <Gold.PLP.ligand.torsion>
0.2969

> <Gold.PLP.Chemscore.Hbond>
0.0000

> <Gold.PLP.Chemscore.CHOScore>
0.0000

> <Gold.PLP.Chemscore.Metal>
0.0000

> <Gold.PLP.Chemscore.Internal.Correction>
0.0185

> <Gold.Rescore>
     Score         DG    S(hbond)    S(metal)    S(lipo)     H(rot)  DE(clash)    DE(int)     intcor
     11.81     -14.07       0.00        0.00     104.35       1.42       0.71       1.55       ----

> <Gold.Chemscore.Fitness>
11.8089

> <Gold.Chemscore.DG>
-14.0656

> <Gold.Chemscore.ZeroCoef>
-5.4800

> <Gold.Chemscore.Hbond>
0.0000

> <Gold.Chemscore.Metal>
0.0000

> <Gold.Chemscore.Lipo>
104.3484

> <Gold.Chemscore.Internal_Hbond>
0.0000

> <Gold.Chemscore.DEClash>
0.7098

> <Gold.Chemscore.DEInternal>
1.5470

> <Gold.Chemscore.Rot>
1.4153

> <Gold.Chemscore.Internal.Correction>
   9.000000E+99

> <Gold.Chemscore.Hbond.Weighted>
-0.0000

> <Gold.Chemscore.Metal.Weighted>
-0.0000

> <Gold.Chemscore.Lipo.Weighted>
-12.2088

> <Gold.Chemscore.Internal_Hbond.Weighted>
0.0000

> <Gold.Chemscore.DEClash.Weighted>
0.7098

> <Gold.Chemscore.DEInternal.Weighted>
1.5470

> <Gold.Chemscore.Rot.Weighted>
3.6231

> <Gold.Chemscore.Internal.Correction.Weighted>
   9.000000E+99

> <Gold.Protein.RotatedTorsions>
[ 6907 6896 6895 6894 ] final -178.11 input  -60.11 | X-H torsion
[ 7974 7965 7964 7962 ] final  -21.93 input  175.53 | X-H torsion
[ 8008 7997 7996 7995 ] final -108.05 input   59.86 | X-H torsion
[ 10167 10162 10161 10158 ] final   97.69 input  -65.29 | X-H torsion
[ 10718 10713 10712 10709 ] final  -96.35 input   66.30 | X-H torsion
[ 10763 10752 10751 10750 ] final   24.56 input  -60.55 | X-H torsion
[ 11005 11000 10999 10996 ] final  -17.14 input  -57.11 | X-H torsion

> <Gold.Protein.ActiveResidues>
 VAL166  LYS551  ARG553  GLY616  TRP617  ASP618  TYR619  PRO620  LYS621  CYS622 
 ASP623  PHE694  ASN695  SER759  ASP760  ASP761  ALA762  ILE779  LEU786  VAL792 
 PHE793  MET794  SER795  GLU796  ALA797  LYS798  CYS799  TRP800  GLU811  SER814 

> <Gold.Protein.RotatedAtoms>
  151.6319  133.3331  159.3110 H   0  0  0  0  0  0  0  0  0  0  0  0  # atno 6907 bound_to 6896
  150.8052  134.7176  159.6649 H   0  0  0  0  0  0  0  0  0  0  0  0  # atno 6908 bound_to 6896
  152.4147  134.6068  160.0066 H   0  0  0  0  0  0  0  0  0  0  0  0  # atno 6909 bound_to 6896
  146.1705  140.4409  142.8534 H   0  0  0  0  0  0  0  0  0  0  0  0  # atno 7974 bound_to 7965
  154.9385  140.0403  157.2084 H   0  0  0  0  0  0  0  0  0  0  0  0  # atno 8008 bound_to 7997
  154.8092  140.2865  155.5844 H   0  0  0  0  0  0  0  0  0  0  0  0  # atno 8009 bound_to 7997
  156.2969  140.2540  156.2976 H   0  0  0  0  0  0  0  0  0  0  0  0  # atno 8010 bound_to 7997
  139.7777  144.6899  151.0066 H   0  0  0  0  0  0  0  0  0  0  0  0  # atno 10167 bound_to 10162
  156.0060  130.5148  150.6213 H   0  0  0  0  0  0  0  0  0  0  0  0  # atno 10718 bound_to 10713
  153.0755  135.6602  154.0155 H   0  0  0  0  0  0  0  0  0  0  0  0  # atno 10763 bound_to 10752
  153.9790  135.2957  155.3423 H   0  0  0  0  0  0  0  0  0  0  0  0  # atno 10764 bound_to 10752
  154.7142  135.5192  153.8782 H   0  0  0  0  0  0  0  0  0  0  0  0  # atno 10765 bound_to 10752
  140.8138  133.8120  155.9590 H   0  0  0  0  0  0  0  0  0  0  0  0  # atno 11005 bound_to 11000
  144.8156  140.6461  143.6387 LP  0  0  0  0  0  0  0  0  0  0  0  0  # atno 17320 bound_to 7965
  145.4353  139.1543  143.4000 LP  0  0  0  0  0  0  0  0  0  0  0  0  # atno 17321 bound_to 7965
  140.7817  143.4517  151.0403 LP  0  0  0  0  0  0  0  0  0  0  0  0  # atno 17342 bound_to 10162
  139.8199  143.7835  152.3176 LP  0  0  0  0  0  0  0  0  0  0  0  0  # atno 17343 bound_to 10162
  157.4028  131.0812  151.1293 LP  0  0  0  0  0  0  0  0  0  0  0  0  # atno 17370 bound_to 10713
  157.1949  130.6368  149.5717 LP  0  0  0  0  0  0  0  0  0  0  0  0  # atno 17371 bound_to 10713
  140.9170  134.2189  157.4950 LP  0  0  0  0  0  0  0  0  0  0  0  0  # atno 17394 bound_to 11000
  139.8712  134.9775  156.4963 LP  0  0  0  0  0  0  0  0  0  0  0  0  # atno 17395 bound_to 11000

$$$$
