AV-unprocessed.smi:960|AV-procd|sdf|4272|dock3
  -GOLD-   22720 2183D 1   1.00000     0.00000
 Structure written by MMmdl.
 46 47  0  0  0  0  0  0  0  0  2 V2000
  143.8085  131.8557  150.3935 C   0  0  0  0  0  0  0  0  0  0  0  0
  144.9504  131.6252  151.0620 C   0  0  0  0  0  0  0  0  0  0  0  0
  145.3008  130.2488  151.5995 C   0  0  0  0  0  0  0  0  0  0  0  0
  145.9777  132.7233  151.2926 C   0  0  0  0  0  0  0  0  0  0  0  0
  145.3980  133.9490  151.9037 N   0  3  2  0  0  0  0  0  0  0  0  0
  145.5988  135.1337  151.0287 C   0  0  0  0  0  0  0  0  0  0  0  0
  144.8904  136.3817  151.5858 C   0  0  0  0  0  0  0  0  0  0  0  0
  145.3305  136.6975  153.0243 C   0  0  2  0  0  0  0  0  0  0  0  0
  146.7105  137.1828  153.0451 N   0  0  0  0  0  0  0  0  0  0  0  0
  147.1431  138.2579  153.7192 C   0  0  0  0  0  0  0  0  0  0  0  0
  146.4103  138.9773  154.3968 O   0  0  0  0  0  0  0  0  0  0  0  0
  148.4591  138.4503  153.5432 N   0  0  0  0  0  0  0  0  0  0  0  0
  149.2583  139.4604  154.1354 C   0  0  0  0  0  0  0  0  0  0  0  0
  148.9394  140.8213  154.4187 C   0  0  0  0  0  0  0  0  0  0  0  0
  147.6805  141.6106  154.1899 C   0  0  0  0  0  0  0  0  0  0  0  0
  149.9657  141.4093  155.0157 N   0  0  0  0  0  0  0  0  0  0  0  0
  150.9615  140.4317  155.1627 O   0  0  0  0  0  0  0  0  0  0  0  0
  150.5083  139.2613  154.6432 C   0  0  0  0  0  0  0  0  0  0  0  0
  151.4219  138.0856  154.7244 C   0  0  0  0  0  0  0  0  0  0  0  0
  145.1491  135.4411  153.8974 C   0  0  0  0  0  0  0  0  0  0  0  0
  145.8499  134.2090  153.2973 C   0  0  0  0  0  0  0  0  0  0  0  0
  143.0885  131.0682  150.2229 H   0  0  0  0  0  0  0  0  0  0  0  0
  143.5757  132.8367  150.0056 H   0  0  0  0  0  0  0  0  0  0  0  0
  146.1915  129.8694  151.0983 H   0  0  0  0  0  0  0  0  0  0  0  0
  144.4915  129.5383  151.4274 H   0  0  0  0  0  0  0  0  0  0  0  0
  145.5028  130.2745  152.6692 H   0  0  0  0  0  0  0  0  0  0  0  0
  146.8014  132.3471  151.9014 H   0  0  0  0  0  0  0  0  0  0  0  0
  146.4046  132.9814  150.3220 H   0  0  0  0  0  0  0  0  0  0  0  0
  146.6672  135.3243  150.9152 H   0  0  0  0  0  0  0  0  0  0  0  0
  145.2108  134.9222  150.0315 H   0  0  0  0  0  0  0  0  0  0  0  0
  145.0744  137.2389  150.9369 H   0  0  0  0  0  0  0  0  0  0  0  0
  143.8122  136.2160  151.5687 H   0  0  0  0  0  0  0  0  0  0  0  0
  144.6889  137.4922  153.4097 H   0  0  0  0  0  0  0  0  0  0  0  0
  147.3854  136.6635  152.5033 H   0  0  0  0  0  0  0  0  0  0  0  0
  148.9190  137.8677  152.8590 H   0  0  0  0  0  0  0  0  0  0  0  0
  146.7968  140.9780  154.2720 H   0  0  0  0  0  0  0  0  0  0  0  0
  147.6791  142.0660  153.1995 H   0  0  0  0  0  0  0  0  0  0  0  0
  147.5731  142.4118  154.9219 H   0  0  0  0  0  0  0  0  0  0  0  0
  150.9069  137.1675  154.4421 H   0  0  0  0  0  0  0  0  0  0  0  0
  151.8020  137.9608  155.7385 H   0  0  0  0  0  0  0  0  0  0  0  0
  152.2739  138.2136  154.0569 H   0  0  0  0  0  0  0  0  0  0  0  0
  145.5108  135.6189  154.9107 H   0  0  0  0  0  0  0  0  0  0  0  0
  144.0837  135.2289  153.9957 H   0  0  0  0  0  0  0  0  0  0  0  0
  145.6179  133.3550  153.9315 H   0  0  0  0  0  0  0  0  0  0  0  0
  146.9333  134.3382  153.3153 H   0  0  0  0  0  0  0  0  0  0  0  0
  144.4004  133.7966  151.9502 H   0  0  0  0  0  0  0  0  0  0  0  0
  1  2  2  0  0  0  0
  1 22  1  0  0  0  0
  1 23  1  0  0  0  0
  2  3  1  0  0  0  0
  2  4  1  0  0  0  0
  3 24  1  0  0  0  0
  3 25  1  0  0  0  0
  3 26  1  0  0  0  0
  4  5  1  0  0  0  0
  4 27  1  0  0  0  0
  4 28  1  0  0  0  0
  5 21  1  0  0  0  0
  5  6  1  0  0  0  0
  5 46  1  0  0  0  0
  6  7  1  0  0  0  0
  6 29  1  0  0  0  0
  6 30  1  0  0  0  0
  7  8  1  0  0  0  0
  7 31  1  0  0  0  0
  7 32  1  0  0  0  0
  8  9  1  0  0  0  0
  8 20  1  0  0  0  0
  8 33  1  0  0  0  0
  9 10  1  0  0  0  0
  9 34  1  0  0  0  0
 10 11  2  0  0  0  0
 10 12  1  0  0  0  0
 12 13  1  0  0  0  0
 12 35  1  0  0  0  0
 13 18  2  0  0  0  0
 13 14  1  0  0  0  0
 14 15  1  0  0  0  0
 14 16  2  0  0  0  0
 15 36  1  0  0  0  0
 15 37  1  0  0  0  0
 15 38  1  0  0  0  0
 16 17  1  0  0  0  0
 17 18  1  0  0  0  0
 18 19  1  0  0  0  0
 19 39  1  0  0  0  0
 19 40  1  0  0  0  0
 19 41  1  0  0  0  0
 20 21  1  0  0  0  0
 20 42  1  0  0  0  0
 20 43  1  0  0  0  0
 21 44  1  0  0  0  0
 21 45  1  0  0  0  0
M  CHG  1   5   1
M  END
> <s_m_source_file>
AV-unprocessed.smi

> <i_m_source_file_index>
960

> <i_lp_mmshare_version>
43012

> <i_f3d_flags>
0

> <s_epik_input>
W0NIMl09QyhbQ0gzXSlbQ0gyXU4xW0NIMl1bQ0gyXVtDSF0oW0NIMl1bQ0gyXTEpW05IXUMoPU8pW05IXWMyYyhbQ0gzXSlub2MyW0NIM10=

> <s_epik_cmdline>
J2VwaWtfcHl0aG9uJywgJy1waCcsICc3LjAnLCAnLXRuJywgJzgnLCAnLW1hJywgJzIwMCcsICctbWV0YWxfYmluZGluZycsICctaW1hZScsICc8aW5maWxlLm1hZT4nLCAnLW9tYWUnLCAnPG91dGZpbGUubWFlPic=

> <r_epik_Ionization_Penalty>
0.01938

> <r_epik_Ionization_Penalty_Charging>
0.0193505

> <r_epik_Ionization_Penalty_Neutral>
2.94909e-05

> <r_epik_State_Penalty>
0.0154499

> <r_epik_Charging_Adjusted_Penalty>
0.0348004

> <i_epik_Tot_Q>
1

> <i_epik_Tot_abs_Q>
1

> <r_epik_Metal_State_Penalty>
0.0154499

> <b_epik_Metal_Only>
0

> <s_lp_Force_Field>
OPLS_2005

> <r_lp_Energy>
21.0262

> <b_lp_Chiralities_Consistent>
1

> <s_lp_Variant>
AV-unprocessed.smi:960-2

> <Gold.Version>
5.8.1

> <Gold.Id.Protein>
6NUR|6NUR_protein|mol2

> <Gold.PLP.Fitness>
42.5140

> <Gold.PLP.PLP>
-37.7849

> <Gold.PLP.part.hbond>
-4.9633

> <Gold.PLP.part.metal>
0.0000

> <Gold.PLP.part.buried>
-2.2291

> <Gold.PLP.part.nonpolar>
-30.8697

> <Gold.PLP.part.repulsive>
0.3665

> <Gold.PLP.ligand.clash>
0.0000

> <Gold.PLP.ligand.torsion>
1.2777

> <Gold.PLP.Chemscore.Hbond>
2.3000

> <Gold.PLP.Chemscore.CHOScore>
0.0000

> <Gold.PLP.Chemscore.Metal>
0.0000

> <Gold.Chemscore.Hbonds>
donor molecule, donor type, donor heavy atom, donor atom, acceptor molecule, acceptor atom, score
      L1  H     9    34       P1  7948  1.00
      L1  H    12    35       P1  7948  1.00
      P1  H  7989  7998       L1    17  0.25

> <Gold.PLP.Chemscore.Internal.Correction>
0.3845

> <Gold.Rescore>
     Score         DG    S(hbond)    S(metal)    S(lipo)     H(rot)  DE(clash)    DE(int)     intcor
     16.89     -19.36       1.93        0.00      92.96       1.35       0.08       2.39       ----

> <Gold.Chemscore.Fitness>
16.8901

> <Gold.Chemscore.DG>
-19.3634

> <Gold.Chemscore.ZeroCoef>
-5.4800

> <Gold.Chemscore.Hbond>
1.9337

> <Gold.Chemscore.Metal>
0.0000

> <Gold.Chemscore.Lipo>
92.9554

> <Gold.Chemscore.Internal_Hbond>
0.0000

> <Gold.Chemscore.DEClash>
0.0784

> <Gold.Chemscore.DEInternal>
2.3949

> <Gold.Chemscore.Rot>
1.3480

> <Gold.Chemscore.Internal.Correction>
   9.000000E+99

> <Gold.Chemscore.Hbonds>
donor molecule, donor type, donor heavy atom, donor atom, acceptor molecule, acceptor atom, score
      L1  H     9    34       P1  7948  0.99
      L1  H    12    35       P1  7948  0.94

> <Gold.Chemscore.Hbond.Weighted>
-6.4585

> <Gold.Chemscore.Metal.Weighted>
-0.0000

> <Gold.Chemscore.Lipo.Weighted>
-10.8758

> <Gold.Chemscore.Internal_Hbond.Weighted>
0.0000

> <Gold.Chemscore.DEClash.Weighted>
0.0784

> <Gold.Chemscore.DEInternal.Weighted>
2.3949

> <Gold.Chemscore.Rot.Weighted>
3.4509

> <Gold.Chemscore.Internal.Correction.Weighted>
   9.000000E+99

> <Gold.Protein.RotatedTorsions>
[ 6907 6896 6895 6894 ] final -134.46 input  -60.11 | X-H torsion
[ 7974 7965 7964 7962 ] final  -89.67 input  175.53 | X-H torsion
[ 8008 7997 7996 7995 ] final  171.84 input   59.86 | X-H torsion
[ 10167 10162 10161 10158 ] final  -19.76 input  -65.29 | X-H torsion
[ 10718 10713 10712 10709 ] final  173.37 input   66.30 | X-H torsion
[ 10763 10752 10751 10750 ] final   27.28 input  -60.55 | X-H torsion
[ 11005 11000 10999 10996 ] final  149.06 input  -57.11 | X-H torsion

> <Gold.Protein.ActiveResidues>
 VAL166  LYS551  ARG553  GLY616  TRP617  ASP618  TYR619  PRO620  LYS621  CYS622 
 ASP623  PHE694  ASN695  SER759  ASP760  ASP761  ALA762  ILE779  LEU786  VAL792 
 PHE793  MET794  SER795  GLU796  ALA797  LYS798  CYS799  TRP800  GLU811  SER814 

> <Gold.Protein.RotatedAtoms>
  150.9861  133.6196  159.2715 H   0  0  0  0  0  0  0  0  0  0  0  0  # atno 6907 bound_to 6896
  151.3434  135.0867  159.9388 H   0  0  0  0  0  0  0  0  0  0  0  0  # atno 6908 bound_to 6896
  152.5231  133.9468  159.7707 H   0  0  0  0  0  0  0  0  0  0  0  0  # atno 6909 bound_to 6896
  145.4367  140.9558  143.2098 H   0  0  0  0  0  0  0  0  0  0  0  0  # atno 7974 bound_to 7965
  156.1232  140.1501  156.9174 H   0  0  0  0  0  0  0  0  0  0  0  0  # atno 8008 bound_to 7997
  154.4852  140.0867  156.7510 H   0  0  0  0  0  0  0  0  0  0  0  0  # atno 8009 bound_to 7997
  155.4390  140.3430  155.4290 H   0  0  0  0  0  0  0  0  0  0  0  0  # atno 8010 bound_to 7997
  140.7271  143.4788  151.0146 H   0  0  0  0  0  0  0  0  0  0  0  0  # atno 10167 bound_to 10162
  156.9653  131.0073  151.2918 H   0  0  0  0  0  0  0  0  0  0  0  0  # atno 10718 bound_to 10713
  153.0566  135.6541  154.0562 H   0  0  0  0  0  0  0  0  0  0  0  0  # atno 10763 bound_to 10752
  154.0239  135.2917  155.3379 H   0  0  0  0  0  0  0  0  0  0  0  0  # atno 10764 bound_to 10752
  154.6884  135.5292  153.8426 H   0  0  0  0  0  0  0  0  0  0  0  0  # atno 10765 bound_to 10752
  140.1012  134.8982  157.1799 H   0  0  0  0  0  0  0  0  0  0  0  0  # atno 11005 bound_to 11000
  144.8148  139.5897  143.7013 LP  0  0  0  0  0  0  0  0  0  0  0  0  # atno 17320 bound_to 7965
  146.2578  139.6342  142.9383 LP  0  0  0  0  0  0  0  0  0  0  0  0  # atno 17321 bound_to 7965
  139.8485  143.7470  152.3179 LP  0  0  0  0  0  0  0  0  0  0  0  0  # atno 17342 bound_to 10162
  139.7643  144.7496  151.0317 LP  0  0  0  0  0  0  0  0  0  0  0  0  # atno 17343 bound_to 10162
  157.5630  130.8258  149.8290 LP  0  0  0  0  0  0  0  0  0  0  0  0  # atno 17370 bound_to 10713
  156.0305  130.3766  150.1701 LP  0  0  0  0  0  0  0  0  0  0  0  0  # atno 17371 bound_to 10713
  140.3217  134.2909  155.7245 LP  0  0  0  0  0  0  0  0  0  0  0  0  # atno 17394 bound_to 11000
  141.2106  133.7714  156.9920 LP  0  0  0  0  0  0  0  0  0  0  0  0  # atno 17395 bound_to 11000

$$$$
