AV-unprocessed.smi:158|AV-procd|sdf|1332|dock1
  -GOLD-   2262019 33D 1   1.00000     0.00000
 Structure written by MMmdl.
 31 33  0  0  0  0  0  0  0  0  1 V2000
  153.0395  143.5971  160.0769 N   0  0  0  0  0  0  0  0  0  0  0  0
  152.6804  142.3910  159.6151 C   0  0  0  0  0  0  0  0  0  0  0  0
  153.3201  141.3005  160.0978 N   0  0  0  0  0  0  0  0  0  0  0  0
  152.9932  140.0773  159.6627 C   0  0  0  0  0  0  0  0  0  0  0  0
  153.8724  138.7602  160.3447 Cl  0  0  0  0  0  0  0  0  0  0  0  0
  152.0618  139.7610  158.7571 N   0  0  0  0  0  0  0  0  0  0  0  0
  151.4141  140.8582  158.2673 C   0  0  0  0  0  0  0  0  0  0  0  0
  151.6643  142.2043  158.6461 C   0  0  0  0  0  0  0  0  0  0  0  0
  150.8199  143.0577  157.9488 N   0  0  0  0  0  0  0  0  0  0  0  0
  150.1111  142.2550  157.2003 C   0  0  0  0  0  0  0  0  0  0  0  0
  150.4034  140.9149  157.3279 N   0  0  0  0  0  0  0  0  0  0  0  0
  149.7669  139.7698  156.6058 C   0  0  1  0  0  0  0  0  0  0  0  0
  148.7870  140.2564  155.7359 O   0  0  0  0  0  0  0  0  0  0  0  0
  148.9561  139.6901  154.4351 C   0  0  2  0  0  0  0  0  0  0  0  0
  147.5769  139.3772  153.8351 C   0  0  0  0  0  0  0  0  0  0  0  0
  147.7127  138.7103  152.5981 O   0  0  0  0  0  0  0  0  0  0  0  0
  149.8495  138.4666  154.6731 C   0  0  1  0  0  0  0  0  0  0  0  0
  150.5694  138.0498  153.5298 O   0  0  0  0  0  0  0  0  0  0  0  0
  150.7703  138.9734  155.7655 C   0  0  1  0  0  0  0  0  0  0  0  0
  151.7034  139.7919  155.2691 F   0  0  0  0  0  0  0  0  0  0  0  0
  149.2927  139.1697  157.3835 H   0  0  0  0  0  0  0  0  0  0  0  0
  149.4797  140.4281  153.8243 H   0  0  0  0  0  0  0  0  0  0  0  0
  149.2558  137.6326  155.0502 H   0  0  0  0  0  0  0  0  0  0  0  0
  151.2597  138.1927  156.3484 H   0  0  0  0  0  0  0  0  0  0  0  0
  152.5771  144.4259  159.7316 H   0  0  0  0  0  0  0  0  0  0  0  0
  153.7718  143.6752  160.7677 H   0  0  0  0  0  0  0  0  0  0  0  0
  149.3488  142.6221  156.5285 H   0  0  0  0  0  0  0  0  0  0  0  0
  146.9810  138.7691  154.5166 H   0  0  0  0  0  0  0  0  0  0  0  0
  147.0267  140.3030  153.6648 H   0  0  0  0  0  0  0  0  0  0  0  0
  148.5635  138.9125  152.2397 H   0  0  0  0  0  0  0  0  0  0  0  0
  149.9854  137.5574  152.9727 H   0  0  0  0  0  0  0  0  0  0  0  0
  1  2  1  0  0  0  0
  1 25  1  0  0  0  0
  1 26  1  0  0  0  0
  2  8  1  0  0  0  0
  2  3  2  0  0  0  0
  3  4  1  0  0  0  0
  4  5  1  0  0  0  0
  4  6  2  0  0  0  0
  6  7  1  0  0  0  0
  7 11  1  0  0  0  0
  7  8  2  0  0  0  0
  8  9  1  0  0  0  0
  9 10  2  0  0  0  0
 10 11  1  0  0  0  0
 10 27  1  0  0  0  0
 11 12  1  0  0  0  0
 12 21  1  0  0  0  0
 12 19  1  0  0  0  0
 12 13  1  0  0  0  0
 13 14  1  0  0  0  0
 14 22  1  0  0  0  0
 14 15  1  0  0  0  0
 14 17  1  0  0  0  0
 15 16  1  0  0  0  0
 15 28  1  0  0  0  0
 15 29  1  0  0  0  0
 16 30  1  0  0  0  0
 17 23  1  0  0  0  0
 17 18  1  0  0  0  0
 17 19  1  0  0  0  0
 18 31  1  0  0  0  0
 19 24  1  0  0  0  0
 19 20  1  0  0  0  0
M  END
> <s_m_source_file>
AV-unprocessed.smi

> <i_m_source_file_index>
158

> <i_lp_mmshare_version>
43012

> <i_f3d_flags>
0

> <s_epik_input>
Q2xjKG4xKW5jKFtOSDJdKWMoYzEyKW5bY0hdbjJbQ0BASF0zT1tDQEhdKFtDSDJdW09IXSlbQ0BASF0oW09IXSlbQ0BASF0zRg==

> <s_epik_cmdline>
J2VwaWtfcHl0aG9uJywgJy1waCcsICc3LjAnLCAnLXRuJywgJzgnLCAnLW1hJywgJzIwMCcsICctbWV0YWxfYmluZGluZycsICctaW1hZScsICc8aW5maWxlLm1hZT4nLCAnLW9tYWUnLCAnPG91dGZpbGUubWFlPic=

> <r_lp_tautomer_probability>
1

> <r_epik_Ionization_Penalty>
6.51543e-05

> <r_epik_Ionization_Penalty_Charging>
0

> <r_epik_Ionization_Penalty_Neutral>
6.51543e-05

> <r_epik_State_Penalty>
-0

> <r_epik_Charging_Adjusted_Penalty>
0

> <i_epik_Tot_Q>
0

> <i_epik_Tot_abs_Q>
0

> <r_epik_Metal_State_Penalty>
-0

> <b_epik_Metal_Only>
0

> <s_epik_Chemistry_Notes>
This compound contains an acetal/aminal-like group ( X-CH(R)-Y where X, Y are N, S, or O) that may be acid/base labile, releasing an aldehyde.

> <s_lp_Force_Field>
OPLS_2005

> <r_lp_Energy>
35.9633

> <b_lp_Chiralities_Consistent>
1

> <s_lp_Variant>
AV-unprocessed.smi:158-10

> <Gold.Version>
5.8.1

> <Gold.Id.Protein>
6NUR|6NUR_protein|mol2

> <Gold.PLP.Fitness>
38.8860

> <Gold.PLP.PLP>
-29.9205

> <Gold.PLP.part.hbond>
-4.6249

> <Gold.PLP.part.metal>
0.0000

> <Gold.PLP.part.buried>
-4.3045

> <Gold.PLP.part.nonpolar>
-22.0121

> <Gold.PLP.part.repulsive>
0.1536

> <Gold.PLP.ligand.clash>
0.0000

> <Gold.PLP.ligand.torsion>
0.0073

> <Gold.PLP.Chemscore.Hbond>
1.9920

> <Gold.PLP.Chemscore.CHOScore>
1.0000

> <Gold.PLP.Chemscore.Metal>
0.0000

> <Gold.Chemscore.Hbonds>
donor molecule, donor type, donor heavy atom, donor atom, acceptor molecule, acceptor atom, score
      L1  H    16    30       P1  7957  0.96
      L1  H    18    31       P1  7948  0.95
      L1  C    10    27       P1  8028  1.00

> <Gold.PLP.Chemscore.Internal.Correction>
0.0042

> <Gold.Rescore>
     Score         DG    S(hbond)    S(metal)    S(lipo)     H(rot)  DE(clash)    DE(int)     intcor
      7.68      -7.69       1.82        0.00      35.28       3.12       0.00       0.01       ----

> <Gold.Chemscore.Fitness>
7.6788

> <Gold.Chemscore.DG>
-7.6869

> <Gold.Chemscore.ZeroCoef>
-5.4800

> <Gold.Chemscore.Hbond>
1.8185

> <Gold.Chemscore.Metal>
0.0000

> <Gold.Chemscore.Lipo>
35.2821

> <Gold.Chemscore.Internal_Hbond>
0.0000

> <Gold.Chemscore.DEClash>
0.0007

> <Gold.Chemscore.DEInternal>
0.0073

> <Gold.Chemscore.Rot>
3.1230

> <Gold.Chemscore.Internal.Correction>
   9.000000E+99

> <Gold.Chemscore.Hbonds>
donor molecule, donor type, donor heavy atom, donor atom, acceptor molecule, acceptor atom, score
      L1  H    16    30       P1  7957  0.90
      L1  H    18    31       P1  7948  0.21

> <Gold.Chemscore.Hbond.Weighted>
-6.0738

> <Gold.Chemscore.Metal.Weighted>
-0.0000

> <Gold.Chemscore.Lipo.Weighted>
-4.1280

> <Gold.Chemscore.Internal_Hbond.Weighted>
0.0000

> <Gold.Chemscore.DEClash.Weighted>
0.0007

> <Gold.Chemscore.DEInternal.Weighted>
0.0073

> <Gold.Chemscore.Rot.Weighted>
7.9950

> <Gold.Chemscore.Internal.Correction.Weighted>
   9.000000E+99

> <Gold.Protein.RotatedTorsions>
[ 6907 6896 6895 6894 ] final  147.73 input  -60.11 | X-H torsion
[ 7974 7965 7964 7962 ] final  -68.35 input  175.53 | X-H torsion
[ 8008 7997 7996 7995 ] final -178.25 input   59.86 | X-H torsion
[ 10167 10162 10161 10158 ] final  135.52 input  -65.29 | X-H torsion
[ 10718 10713 10712 10709 ] final  -56.77 input   66.30 | X-H torsion
[ 10763 10752 10751 10750 ] final   -0.71 input  -60.55 | X-H torsion
[ 11005 11000 10999 10996 ] final   15.36 input  -57.11 | X-H torsion

> <Gold.Protein.ActiveResidues>
 VAL166  LYS551  ARG553  GLY616  TRP617  ASP618  TYR619  PRO620  LYS621  CYS622 
 ASP623  PHE694  ASN695  SER759  ASP760  ASP761  ALA762  ILE779  LEU786  VAL792 
 PHE793  MET794  SER795  GLU796  ALA797  LYS798  CYS799  TRP800  GLU811  SER814 

> <Gold.Protein.RotatedAtoms>
  152.1509  133.4521  159.4812 H   0  0  0  0  0  0  0  0  0  0  0  0  # atno 6907 bound_to 6896
  150.6895  134.2190  159.4398 H   0  0  0  0  0  0  0  0  0  0  0  0  # atno 6908 bound_to 6896
  152.0086  134.9888  160.0618 H   0  0  0  0  0  0  0  0  0  0  0  0  # atno 6909 bound_to 6896
  145.7176  140.9052  143.0647 H   0  0  0  0  0  0  0  0  0  0  0  0  # atno 7974 bound_to 7965
  156.0166  140.1252  157.0400 H   0  0  0  0  0  0  0  0  0  0  0  0  # atno 8008 bound_to 7997
  154.4295  140.1077  156.5974 H   0  0  0  0  0  0  0  0  0  0  0  0  # atno 8009 bound_to 7997
  155.6005  140.3470  155.4594 H   0  0  0  0  0  0  0  0  0  0  0  0  # atno 8010 bound_to 7997
  139.5214  144.6513  151.5295 H   0  0  0  0  0  0  0  0  0  0  0  0  # atno 10167 bound_to 10162
  156.1263  130.4162  150.0350 H   0  0  0  0  0  0  0  0  0  0  0  0  # atno 10718 bound_to 10713
  153.3354  135.6977  153.6912 H   0  0  0  0  0  0  0  0  0  0  0  0  # atno 10763 bound_to 10752
  153.5698  135.3518  155.2833 H   0  0  0  0  0  0  0  0  0  0  0  0  # atno 10764 bound_to 10752
  154.8626  135.4269  154.2554 H   0  0  0  0  0  0  0  0  0  0  0  0  # atno 10765 bound_to 10752
  140.4592  134.1144  155.7714 H   0  0  0  0  0  0  0  0  0  0  0  0  # atno 11005 bound_to 11000
  144.6925  139.9159  143.7465 LP  0  0  0  0  0  0  0  0  0  0  0  0  # atno 17320 bound_to 7965
  146.0655  139.3646  143.0555 LP  0  0  0  0  0  0  0  0  0  0  0  0  # atno 17321 bound_to 7965
  140.6318  143.9060  150.6612 LP  0  0  0  0  0  0  0  0  0  0  0  0  # atno 17342 bound_to 10162
  140.2367  143.3694  152.1521 LP  0  0  0  0  0  0  0  0  0  0  0  0  # atno 17343 bound_to 10162
  156.8274  130.9380  151.3638 LP  0  0  0  0  0  0  0  0  0  0  0  0  # atno 17370 bound_to 10713
  157.6444  130.8832  149.9510 LP  0  0  0  0  0  0  0  0  0  0  0  0  # atno 17371 bound_to 10713
  141.1629  133.8759  157.1798 LP  0  0  0  0  0  0  0  0  0  0  0  0  # atno 17394 bound_to 11000
  139.9956  135.0048  157.0075 LP  0  0  0  0  0  0  0  0  0  0  0  0  # atno 17395 bound_to 11000

$$$$
