AV-unprocessed.smi:1009|AV-procd|sdf|4414|dock1
  -GOLD-   22720 2363D 1   1.00000     0.00000
 Structure written by MMmdl.
 33 33  0  0  0  0  0  0  0  0  2 V2000
  149.9258  138.8379  154.4326 C   0  0  0  0  0  0  0  0  0  0  0  0
  148.6549  138.1774  154.0614 N   0  3  0  0  0  0  0  0  0  0  0  0
  147.6629  139.1549  153.5566 C   0  0  0  0  0  0  0  0  0  0  0  0
  148.1298  137.3241  155.1561 C   0  0  0  0  0  0  0  0  0  0  0  0
  146.8732  136.5352  154.7399 C   0  0  0  0  0  0  0  0  0  0  0  0
  147.1355  135.7058  153.5708 N   0  0  0  0  0  0  0  0  0  0  0  0
  146.3406  134.7153  153.1369 C   0  0  0  0  0  0  0  0  0  0  0  0
  145.2731  134.4192  153.6734 O   0  0  0  0  0  0  0  0  0  0  0  0
  146.8324  133.9285  151.9218 C   0  0  0  0  0  0  0  0  0  0  0  0
  145.7893  133.0546  151.4160 N   0  0  0  0  0  0  0  0  0  0  0  0
  145.8349  131.6855  151.2310 C   0  0  0  0  0  0  0  0  0  0  0  0
  144.6286  131.2996  150.7184 C   0  0  0  0  0  0  0  0  0  0  0  0
  143.9146  132.5246  150.6298 C   0  0  0  0  0  0  0  0  0  0  0  0
  142.6116  132.6147  150.1479 N   0  0  0  0  0  0  0  0  0  0  0  0
  144.5981  133.5760  151.0426 N   0  0  0  0  0  0  0  0  0  0  0  0
  149.7833  139.5133  155.2775 H   0  0  0  0  0  0  0  0  0  0  0  0
  150.3206  139.4149  153.5955 H   0  0  0  0  0  0  0  0  0  0  0  0
  150.6807  138.1001  154.7073 H   0  0  0  0  0  0  0  0  0  0  0  0
  147.3544  139.8425  154.3452 H   0  0  0  0  0  0  0  0  0  0  0  0
  146.7734  138.6593  153.1692 H   0  0  0  0  0  0  0  0  0  0  0  0
  148.0845  139.7435  152.7408 H   0  0  0  0  0  0  0  0  0  0  0  0
  148.8969  136.6055  155.4492 H   0  0  0  0  0  0  0  0  0  0  0  0
  147.9344  137.9399  156.0355 H   0  0  0  0  0  0  0  0  0  0  0  0
  146.5063  135.9060  155.5513 H   0  0  0  0  0  0  0  0  0  0  0  0
  146.0658  137.2246  154.4920 H   0  0  0  0  0  0  0  0  0  0  0  0
  147.9955  135.8765  153.0688 H   0  0  0  0  0  0  0  0  0  0  0  0
  147.1318  134.6153  151.1288 H   0  0  0  0  0  0  0  0  0  0  0  0
  147.7112  133.3365  152.1826 H   0  0  0  0  0  0  0  0  0  0  0  0
  146.7144  131.1075  151.4745 H   0  0  0  0  0  0  0  0  0  0  0  0
  144.3116  130.3027  150.4500 H   0  0  0  0  0  0  0  0  0  0  0  0
  142.1070  131.7981  149.8340 H   0  0  0  0  0  0  0  0  0  0  0  0
  142.1051  133.4880  150.1643 H   0  0  0  0  0  0  0  0  0  0  0  0
  148.8759  137.5591  153.2939 H   0  0  0  0  0  0  0  0  0  0  0  0
  1  2  1  0  0  0  0
  1 16  1  0  0  0  0
  1 17  1  0  0  0  0
  1 18  1  0  0  0  0
  2  3  1  0  0  0  0
  2  4  1  0  0  0  0
  2 33  1  0  0  0  0
  3 19  1  0  0  0  0
  3 20  1  0  0  0  0
  3 21  1  0  0  0  0
  4  5  1  0  0  0  0
  4 22  1  0  0  0  0
  4 23  1  0  0  0  0
  5  6  1  0  0  0  0
  5 24  1  0  0  0  0
  5 25  1  0  0  0  0
  6  7  1  0  0  0  0
  6 26  1  0  0  0  0
  7  8  2  0  0  0  0
  7  9  1  0  0  0  0
  9 10  1  0  0  0  0
  9 27  1  0  0  0  0
  9 28  1  0  0  0  0
 10 15  1  0  0  0  0
 10 11  1  0  0  0  0
 11 12  2  0  0  0  0
 11 29  1  0  0  0  0
 12 13  1  0  0  0  0
 12 30  1  0  0  0  0
 13 14  1  0  0  0  0
 13 15  2  0  0  0  0
 14 31  1  0  0  0  0
 14 32  1  0  0  0  0
M  CHG  1   2   1
M  END
> <s_m_source_file>
AV-unprocessed.smi

> <i_m_source_file_index>
1009

> <i_lp_mmshare_version>
43012

> <i_f3d_flags>
0

> <s_epik_input>
W0NIM11OKFtDSDNdKVtDSDJdW0NIMl1bTkhdQyg9TylbQ0gyXW4xW2NIXVtjSF1jKG4xKVtOSDJd

> <s_epik_cmdline>
J2VwaWtfcHl0aG9uJywgJy1waCcsICc3LjAnLCAnLXRuJywgJzgnLCAnLW1hJywgJzIwMCcsICctbWV0YWxfYmluZGluZycsICctaW1hZScsICc8aW5maWxlLm1hZT4nLCAnLW9tYWUnLCAnPG91dGZpbGUubWFlPic=

> <r_lp_tautomer_probability>
1

> <r_epik_Ionization_Penalty>
0.00595791

> <r_epik_Ionization_Penalty_Charging>
0.00581587

> <r_epik_Ionization_Penalty_Neutral>
0.000142034

> <r_epik_State_Penalty>
0.00427192

> <r_epik_Charging_Adjusted_Penalty>
0.0100878

> <i_epik_Tot_Q>
1

> <i_epik_Tot_abs_Q>
1

> <r_epik_Metal_State_Penalty>
-0

> <b_epik_Metal_Only>
0

> <s_lp_Force_Field>
OPLS_2005

> <r_lp_Energy>
4.99311

> <b_lp_Chiralities_Consistent>
1

> <s_lp_Variant>
AV-unprocessed.smi:1009-1

> <Gold.Version>
5.8.1

> <Gold.Id.Protein>
6NUR|6NUR_protein|mol2

> <Gold.PLP.Fitness>
41.3705

> <Gold.PLP.PLP>
-23.7223

> <Gold.PLP.part.hbond>
-3.9132

> <Gold.PLP.part.metal>
0.0000

> <Gold.PLP.part.buried>
-2.6840

> <Gold.PLP.part.nonpolar>
-16.6676

> <Gold.PLP.part.repulsive>
0.3131

> <Gold.PLP.ligand.clash>
0.0000

> <Gold.PLP.ligand.torsion>
0.2038

> <Gold.PLP.Chemscore.Hbond>
5.0000

> <Gold.PLP.Chemscore.CHOScore>
1.0000

> <Gold.PLP.Chemscore.Metal>
0.0000

> <Gold.Chemscore.Hbonds>
donor molecule, donor type, donor heavy atom, donor atom, acceptor molecule, acceptor atom, score
      L1  H     2    33       P1  7948  2.00
      L1  H     6    26       P1  7948  1.00
      L1  H    14    31       P1 10952  1.00
      L1  H    14    32       P1 10186  0.99
      L1  C    11    29       P1 10747  0.90

> <Gold.PLP.Chemscore.Internal.Correction>
0.0557

> <Gold.Rescore>
     Score         DG    S(hbond)    S(metal)    S(lipo)     H(rot)  DE(clash)    DE(int)     intcor
     15.93     -17.10       3.97        0.00      39.68       2.45       0.00       1.16       ----

> <Gold.Chemscore.Fitness>
15.9325

> <Gold.Chemscore.DG>
-17.0995

> <Gold.Chemscore.ZeroCoef>
-5.4800

> <Gold.Chemscore.Hbond>
3.9667

> <Gold.Chemscore.Metal>
0.0000

> <Gold.Chemscore.Lipo>
39.6761

> <Gold.Chemscore.Internal_Hbond>
0.0000

> <Gold.Chemscore.DEClash>
0.0048

> <Gold.Chemscore.DEInternal>
1.1623

> <Gold.Chemscore.Rot>
2.4497

> <Gold.Chemscore.Internal.Correction>
   9.000000E+99

> <Gold.Chemscore.Hbonds>
donor molecule, donor type, donor heavy atom, donor atom, acceptor molecule, acceptor atom, score
      L1  H     2    33       P1  7948  0.99
      L1  H     6    26       P1  7948  0.97
      L1  H    14    31       P1 10952  0.97
      L1  H    14    32       P1 10186  0.90

> <Gold.Chemscore.Hbond.Weighted>
-13.2487

> <Gold.Chemscore.Metal.Weighted>
-0.0000

> <Gold.Chemscore.Lipo.Weighted>
-4.6421

> <Gold.Chemscore.Internal_Hbond.Weighted>
0.0000

> <Gold.Chemscore.DEClash.Weighted>
0.0048

> <Gold.Chemscore.DEInternal.Weighted>
1.1623

> <Gold.Chemscore.Rot.Weighted>
6.2713

> <Gold.Chemscore.Internal.Correction.Weighted>
   9.000000E+99

> <Gold.Protein.RotatedTorsions>
[ 6907 6896 6895 6894 ] final  174.10 input  -60.11 | X-H torsion
[ 7974 7965 7964 7962 ] final    2.97 input  175.53 | X-H torsion
[ 8008 7997 7996 7995 ] final    2.59 input   59.86 | X-H torsion
[ 10167 10162 10161 10158 ] final  -35.94 input  -65.29 | X-H torsion
[ 10718 10713 10712 10709 ] final  154.62 input   66.30 | X-H torsion
[ 10763 10752 10751 10750 ] final  175.46 input  -60.55 | X-H torsion
[ 11005 11000 10999 10996 ] final  -21.22 input  -57.11 | X-H torsion

> <Gold.Protein.ActiveResidues>
 VAL166  LYS551  ARG553  GLY616  TRP617  ASP618  TYR619  PRO620  LYS621  CYS622 
 ASP623  PHE694  ASN695  SER759  ASP760  ASP761  ALA762  ILE779  LEU786  VAL792 
 PHE793  MET794  SER795  GLU796  ALA797  LYS798  CYS799  TRP800  GLU811  SER814 

> <Gold.Protein.RotatedAtoms>
  151.7578  133.3331  159.3408 H   0  0  0  0  0  0  0  0  0  0  0  0  # atno 6907 bound_to 6896
  150.7510  134.6134  159.6107 H   0  0  0  0  0  0  0  0  0  0  0  0  # atno 6908 bound_to 6896
  152.3426  134.7116  160.0311 H   0  0  0  0  0  0  0  0  0  0  0  0  # atno 6909 bound_to 6896
  146.2444  140.0756  142.8360 H   0  0  0  0  0  0  0  0  0  0  0  0  # atno 7974 bound_to 7965
  154.6935  140.2658  155.6789 H   0  0  0  0  0  0  0  0  0  0  0  0  # atno 8008 bound_to 7997
  156.2740  140.2786  156.1444 H   0  0  0  0  0  0  0  0  0  0  0  0  # atno 8009 bound_to 7997
  155.0864  140.0373  157.2645 H   0  0  0  0  0  0  0  0  0  0  0  0  # atno 8010 bound_to 7997
  140.7154  143.3442  151.2291 H   0  0  0  0  0  0  0  0  0  0  0  0  # atno 10167 bound_to 10162
  157.2291  131.0735  151.1864 H   0  0  0  0  0  0  0  0  0  0  0  0  # atno 10718 bound_to 10713
  154.4679  135.2770  155.1665 H   0  0  0  0  0  0  0  0  0  0  0  0  # atno 10763 bound_to 10752
  154.3426  135.6167  153.5607 H   0  0  0  0  0  0  0  0  0  0  0  0  # atno 10764 bound_to 10752
  152.9861  135.5792  154.5054 H   0  0  0  0  0  0  0  0  0  0  0  0  # atno 10765 bound_to 10752
  140.8540  133.7836  155.9998 H   0  0  0  0  0  0  0  0  0  0  0  0  # atno 11005 bound_to 11000
  145.0778  140.9200  143.4843 LP  0  0  0  0  0  0  0  0  0  0  0  0  # atno 17320 bound_to 7965
  145.0903  139.2895  143.5738 LP  0  0  0  0  0  0  0  0  0  0  0  0  # atno 17321 bound_to 7965
  139.6958  143.9616  152.2881 LP  0  0  0  0  0  0  0  0  0  0  0  0  # atno 17342 bound_to 10162
  139.9293  144.6751  150.8380 LP  0  0  0  0  0  0  0  0  0  0  0  0  # atno 17343 bound_to 10162
  157.3496  130.7075  149.6432 LP  0  0  0  0  0  0  0  0  0  0  0  0  # atno 17370 bound_to 10713
  155.9676  130.4256  150.4662 LP  0  0  0  0  0  0  0  0  0  0  0  0  # atno 17371 bound_to 10713
  140.8758  134.2671  157.5169 LP  0  0  0  0  0  0  0  0  0  0  0  0  # atno 17394 bound_to 11000
  139.8705  134.9590  156.4318 LP  0  0  0  0  0  0  0  0  0  0  0  0  # atno 17395 bound_to 11000

$$$$
