AV-unprocessed.smi:2385|AV-procd|sdf|9465|dock2
  -GOLD-   2272013 93D 1   1.00000     0.00000
 Structure written by MMmdl.
 50 52  0  0  0  0  0  0  0  0  2 V2000
  153.9558  141.8545  160.7449 C   0  0  0  0  0  0  0  0  0  0  0  0
  152.9326  142.0479  159.6454 C   0  0  0  0  0  0  0  0  0  0  0  0
  152.7055  143.3169  159.0804 C   0  0  0  0  0  0  0  0  0  0  0  0
  151.7441  143.4427  158.0592 C   0  0  0  0  0  0  0  0  0  0  0  0
  151.0347  142.2998  157.6269 C   0  0  0  0  0  0  0  0  0  0  0  0
  150.0872  142.5358  156.5954 N   0  0  0  0  0  0  0  0  0  0  0  0
  149.4561  141.6338  155.8236 C   0  0  0  0  0  0  0  0  0  0  0  0
  149.6077  140.4135  155.8806 O   0  0  0  0  0  0  0  0  0  0  0  0
  148.6245  142.2339  154.9594 N   0  0  0  0  0  0  0  0  0  0  0  0
  147.7777  141.5491  153.9828 C   0  0  2  0  0  0  0  0  0  0  0  0
  146.8583  142.5280  153.2286 C   0  0  0  0  0  0  0  0  0  0  0  0
  145.7654  143.1106  154.1417 C   0  0  0  0  0  0  0  0  0  0  0  0
  144.9604  142.0387  154.7863 N   0  3  2  0  0  0  0  0  0  0  0  0
  143.8317  142.5979  155.5781 C   0  0  0  0  0  0  0  0  0  0  0  0
  143.3004  143.9430  155.0359 C   0  0  2  0  0  0  0  0  0  0  0  0
  144.0721  145.1365  155.5722 C   0  0  0  0  0  0  0  0  0  0  0  0
  143.0849  146.2749  155.3653 C   0  0  0  0  0  0  0  0  0  0  0  0
  141.8375  145.7000  155.7190 O   0  0  0  0  0  0  0  0  0  0  0  0
  141.8591  144.3043  155.4332 C   0  0  0  0  0  0  0  0  0  0  0  0
  145.8216  141.1035  155.5593 C   0  0  0  0  0  0  0  0  0  0  0  0
  146.9184  140.4802  154.6760 C   0  0  0  0  0  0  0  0  0  0  0  0
  151.2626  141.0805  158.1753 N   0  0  0  0  0  0  0  0  0  0  0  0
  152.1838  140.9607  159.1547 C   0  0  0  0  0  0  0  0  0  0  0  0
  154.1313  142.7866  161.2830 H   0  0  0  0  0  0  0  0  0  0  0  0
  154.9025  141.5184  160.3219 H   0  0  0  0  0  0  0  0  0  0  0  0
  153.6147  141.1079  161.4625 H   0  0  0  0  0  0  0  0  0  0  0  0
  153.2563  144.1814  159.4211 H   0  0  0  0  0  0  0  0  0  0  0  0
  151.5571  144.4101  157.6159 H   0  0  0  0  0  0  0  0  0  0  0  0
  149.8620  143.5054  156.4299 H   0  0  0  0  0  0  0  0  0  0  0  0
  148.5602  143.2408  154.9907 H   0  0  0  0  0  0  0  0  0  0  0  0
  148.4290  141.0492  153.2635 H   0  0  0  0  0  0  0  0  0  0  0  0
  147.4396  143.3344  152.7796 H   0  0  0  0  0  0  0  0  0  0  0  0
  146.3843  142.0035  152.3979 H   0  0  0  0  0  0  0  0  0  0  0  0
  146.2112  143.7448  154.9095 H   0  0  0  0  0  0  0  0  0  0  0  0
  145.1155  143.7506  153.5434 H   0  0  0  0  0  0  0  0  0  0  0  0
  143.0320  141.8631  155.6824 H   0  0  0  0  0  0  0  0  0  0  0  0
  144.1927  142.7864  156.5904 H   0  0  0  0  0  0  0  0  0  0  0  0
  143.3844  143.9597  153.9480 H   0  0  0  0  0  0  0  0  0  0  0  0
  144.2785  145.0149  156.6368 H   0  0  0  0  0  0  0  0  0  0  0  0
  145.0192  145.2997  155.0573 H   0  0  0  0  0  0  0  0  0  0  0  0
  143.3115  147.1501  155.9746 H   0  0  0  0  0  0  0  0  0  0  0  0
  143.0588  146.5800  154.3183 H   0  0  0  0  0  0  0  0  0  0  0  0
  141.1567  144.0783  154.6305 H   0  0  0  0  0  0  0  0  0  0  0  0
  141.5369  143.7674  156.3258 H   0  0  0  0  0  0  0  0  0  0  0  0
  146.2687  141.6311  156.4033 H   0  0  0  0  0  0  0  0  0  0  0  0
  145.2261  140.2953  155.9760 H   0  0  0  0  0  0  0  0  0  0  0  0
  146.4498  139.8507  153.9183 H   0  0  0  0  0  0  0  0  0  0  0  0
  147.5476  139.8173  155.2712 H   0  0  0  0  0  0  0  0  0  0  0  0
  152.3261  139.9681  159.5560 H   0  0  0  0  0  0  0  0  0  0  0  0
  144.5478  141.5082  154.0321 H   0  0  0  0  0  0  0  0  0  0  0  0
  1  2  1  0  0  0  0
  1 24  1  0  0  0  0
  1 25  1  0  0  0  0
  1 26  1  0  0  0  0
  2 23  1  0  0  0  0
  2  3  2  0  0  0  0
  3  4  1  0  0  0  0
  3 27  1  0  0  0  0
  4  5  2  0  0  0  0
  4 28  1  0  0  0  0
  5  6  1  0  0  0  0
  5 22  1  0  0  0  0
  6  7  1  0  0  0  0
  6 29  1  0  0  0  0
  7  8  2  0  0  0  0
  7  9  1  0  0  0  0
  9 10  1  0  0  0  0
  9 30  1  0  0  0  0
 10 21  1  0  0  0  0
 10 11  1  0  0  0  0
 10 31  1  0  0  0  0
 11 12  1  0  0  0  0
 11 32  1  0  0  0  0
 11 33  1  0  0  0  0
 12 13  1  0  0  0  0
 12 34  1  0  0  0  0
 12 35  1  0  0  0  0
 13 14  1  0  0  0  0
 13 20  1  0  0  0  0
 13 50  1  0  0  0  0
 14 15  1  0  0  0  0
 14 36  1  0  0  0  0
 14 37  1  0  0  0  0
 15 19  1  0  0  0  0
 15 16  1  0  0  0  0
 15 38  1  0  0  0  0
 16 17  1  0  0  0  0
 16 39  1  0  0  0  0
 16 40  1  0  0  0  0
 17 18  1  0  0  0  0
 17 41  1  0  0  0  0
 17 42  1  0  0  0  0
 18 19  1  0  0  0  0
 19 43  1  0  0  0  0
 19 44  1  0  0  0  0
 20 21  1  0  0  0  0
 20 45  1  0  0  0  0
 20 46  1  0  0  0  0
 21 47  1  0  0  0  0
 21 48  1  0  0  0  0
 22 23  2  0  0  0  0
 23 49  1  0  0  0  0
M  CHG  1  13   1
M  END
> <s_m_source_file>
AV-unprocessed.smi

> <i_m_source_file_index>
2385

> <i_lp_mmshare_version>
43012

> <i_f3d_flags>
0

> <s_epik_input>
W0NIM11jMVtjSF1bY0hdYyhuW2NIXTEpW05IXUMoPU8pW05IXVtDSF0yW0NIMl1bQ0gyXU4oW0NIMl1bQ0gyXTIpW0NIMl1bQ0BASF0zW0NIMl1bQ0gyXU9bQ0gyXTM=

> <s_epik_cmdline>
J2VwaWtfcHl0aG9uJywgJy1waCcsICc3LjAnLCAnLXRuJywgJzgnLCAnLW1hJywgJzIwMCcsICctbWV0YWxfYmluZGluZycsICctaW1hZScsICc8aW5maWxlLm1hZT4nLCAnLW9tYWUnLCAnPG91dGZpbGUubWFlPic=

> <r_epik_Ionization_Penalty>
0.00752367

> <r_epik_Ionization_Penalty_Charging>
0.00747775

> <r_epik_Ionization_Penalty_Neutral>
4.59207e-05

> <r_epik_State_Penalty>
0.00558817

> <r_epik_Charging_Adjusted_Penalty>
0.0130659

> <i_epik_Tot_Q>
1

> <i_epik_Tot_abs_Q>
1

> <r_epik_Metal_State_Penalty>
-0

> <b_epik_Metal_Only>
0

> <s_lp_Force_Field>
OPLS_2005

> <r_lp_Energy>
35.6171

> <b_lp_Chiralities_Consistent>
1

> <s_lp_Variant>
AV-unprocessed.smi:2385-3

> <Gold.Version>
5.8.1

> <Gold.Id.Protein>
6NUR|6NUR_protein|mol2

> <Gold.PLP.Fitness>
50.1804

> <Gold.PLP.PLP>
-39.3942

> <Gold.PLP.part.hbond>
-2.9840

> <Gold.PLP.part.metal>
0.0000

> <Gold.PLP.part.buried>
-7.2656

> <Gold.PLP.part.nonpolar>
-30.1326

> <Gold.PLP.part.repulsive>
0.2960

> <Gold.PLP.ligand.clash>
0.0000

> <Gold.PLP.ligand.torsion>
0.6627

> <Gold.PLP.Chemscore.Hbond>
4.0000

> <Gold.PLP.Chemscore.CHOScore>
0.0000

> <Gold.PLP.Chemscore.Metal>
0.0000

> <Gold.Chemscore.Hbonds>
donor molecule, donor type, donor heavy atom, donor atom, acceptor molecule, acceptor atom, score
      L1  H     6    29       P1  8028  1.00
      L1  H     9    30       P1  8028  1.00
      L1  H    13    50       P1 10175  2.00

> <Gold.PLP.Chemscore.Internal.Correction>
0.1116

> <Gold.Rescore>
     Score         DG    S(hbond)    S(metal)    S(lipo)     H(rot)  DE(clash)    DE(int)     intcor
     17.53     -22.78       2.53        0.00     106.25       1.41       1.99       3.26       ----

> <Gold.Chemscore.Fitness>
17.5337

> <Gold.Chemscore.DG>
-22.7795

> <Gold.Chemscore.ZeroCoef>
-5.4800

> <Gold.Chemscore.Hbond>
2.5348

> <Gold.Chemscore.Metal>
0.0000

> <Gold.Chemscore.Lipo>
106.2525

> <Gold.Chemscore.Internal_Hbond>
0.0000

> <Gold.Chemscore.DEClash>
1.9878

> <Gold.Chemscore.DEInternal>
3.2580

> <Gold.Chemscore.Rot>
1.4056

> <Gold.Chemscore.Internal.Correction>
   9.000000E+99

> <Gold.Chemscore.Hbonds>
donor molecule, donor type, donor heavy atom, donor atom, acceptor molecule, acceptor atom, score
      L1  H     6    29       P1  8028  0.95
      L1  H     9    30       P1  8028  0.98
      L1  H    13    50       P1 10175  0.24

> <Gold.Chemscore.Hbond.Weighted>
-8.4662

> <Gold.Chemscore.Metal.Weighted>
-0.0000

> <Gold.Chemscore.Lipo.Weighted>
-12.4315

> <Gold.Chemscore.Internal_Hbond.Weighted>
0.0000

> <Gold.Chemscore.DEClash.Weighted>
1.9878

> <Gold.Chemscore.DEInternal.Weighted>
3.2580

> <Gold.Chemscore.Rot.Weighted>
3.5982

> <Gold.Chemscore.Internal.Correction.Weighted>
   9.000000E+99

> <Gold.Protein.RotatedTorsions>
[ 6907 6896 6895 6894 ] final  152.90 input  -60.11 | X-H torsion
[ 7974 7965 7964 7962 ] final  -85.28 input  175.53 | X-H torsion
[ 8008 7997 7996 7995 ] final  -49.60 input   59.86 | X-H torsion
[ 10167 10162 10161 10158 ] final   91.77 input  -65.29 | X-H torsion
[ 10718 10713 10712 10709 ] final  -38.76 input   66.30 | X-H torsion
[ 10763 10752 10751 10750 ] final  136.59 input  -60.55 | X-H torsion
[ 11005 11000 10999 10996 ] final  161.30 input  -57.11 | X-H torsion

> <Gold.Protein.ActiveResidues>
 VAL166  LYS551  ARG553  GLY616  TRP617  ASP618  TYR619  PRO620  LYS621  CYS622 
 ASP623  PHE694  ASN695  SER759  ASP760  ASP761  ALA762  ILE779  LEU786  VAL792 
 PHE793  MET794  SER795  GLU796  ALA797  LYS798  CYS799  TRP800  GLU811  SER814 

> <Gold.Protein.RotatedAtoms>
  152.0802  133.4149  159.4497 H   0  0  0  0  0  0  0  0  0  0  0  0  # atno 6907 bound_to 6896
  150.6862  134.2991  159.4708 H   0  0  0  0  0  0  0  0  0  0  0  0  # atno 6908 bound_to 6896
  152.0831  134.9457  160.0624 H   0  0  0  0  0  0  0  0  0  0  0  0  # atno 6909 bound_to 6896
  145.4954  140.9550  143.1789 H   0  0  0  0  0  0  0  0  0  0  0  0  # atno 7974 bound_to 7965
  154.4047  140.1293  156.4530 H   0  0  0  0  0  0  0  0  0  0  0  0  # atno 8008 bound_to 7997
  155.7348  140.3491  155.5056 H   0  0  0  0  0  0  0  0  0  0  0  0  # atno 8009 bound_to 7997
  155.9094  140.1033  157.1281 H   0  0  0  0  0  0  0  0  0  0  0  0  # atno 8010 bound_to 7997
  139.8342  144.6672  150.9362 H   0  0  0  0  0  0  0  0  0  0  0  0  # atno 10167 bound_to 10162
  156.3001  130.4239  149.8152 H   0  0  0  0  0  0  0  0  0  0  0  0  # atno 10718 bound_to 10713
  153.8591  135.3069  155.3437 H   0  0  0  0  0  0  0  0  0  0  0  0  # atno 10763 bound_to 10752
  154.7857  135.4811  153.9943 H   0  0  0  0  0  0  0  0  0  0  0  0  # atno 10764 bound_to 10752
  153.1472  135.6836  153.9031 H   0  0  0  0  0  0  0  0  0  0  0  0  # atno 10765 bound_to 10752
  140.2144  134.8243  157.3155 H   0  0  0  0  0  0  0  0  0  0  0  0  # atno 11005 bound_to 11000
  144.7810  139.6526  143.7154 LP  0  0  0  0  0  0  0  0  0  0  0  0  # atno 17320 bound_to 7965
  146.2259  139.5721  142.9588 LP  0  0  0  0  0  0  0  0  0  0  0  0  # atno 17321 bound_to 7965
  140.7804  143.3972  151.1209 LP  0  0  0  0  0  0  0  0  0  0  0  0  # atno 17342 bound_to 10162
  139.7624  143.8616  152.3103 LP  0  0  0  0  0  0  0  0  0  0  0  0  # atno 17343 bound_to 10162
  156.5534  130.8351  151.3306 LP  0  0  0  0  0  0  0  0  0  0  0  0  # atno 17370 bound_to 10713
  157.7365  130.9780  150.2143 LP  0  0  0  0  0  0  0  0  0  0  0  0  # atno 17371 bound_to 10713
  140.1916  134.4365  155.7713 LP  0  0  0  0  0  0  0  0  0  0  0  0  # atno 17394 bound_to 11000
  141.2225  133.7030  156.8036 LP  0  0  0  0  0  0  0  0  0  0  0  0  # atno 17395 bound_to 11000

$$$$
