AV-unprocessed.smi:1202|AV-procd|sdf|5032|dock10
  -GOLD-   22720 4 53D 1   1.00000     0.00000
 Structure written by MMmdl.
 44 45  0  0  0  0  0  0  0  0  3 V2000
  149.4856  131.8554  154.0948 C   0  0  0  0  0  0  0  0  0  0  0  0
  149.0425  133.2433  154.1584 N   0  5  0  0  0  0  0  0  0  0  0  0
  149.6200  134.1792  154.9615 C   0  0  0  0  0  0  0  0  0  0  0  0
  150.7288  134.2000  155.5053 O   0  0  0  0  0  0  0  0  0  0  0  0
  148.6828  135.3739  155.1808 C   0  0  0  0  0  0  0  0  0  0  0  0
  149.2578  136.6185  154.6075 N   0  3  2  0  0  0  0  0  0  0  0  0
  150.6019  136.9516  155.1509 C   0  0  0  0  0  0  0  0  0  0  0  0
  151.2088  138.1701  154.4315 C   0  0  0  0  0  0  0  0  0  0  0  0
  150.2795  139.3951  154.4874 C   0  0  2  0  0  0  0  0  0  0  0  0
  150.2310  139.9351  155.8455 N   0  0  0  0  0  0  0  0  0  0  0  0
  151.2951  140.2003  156.6185 C   0  0  0  0  0  0  0  0  0  0  0  0
  152.4563  139.9983  156.2613 O   0  0  0  0  0  0  0  0  0  0  0  0
  150.9879  140.7637  158.0131 C   0  0  0  0  0  0  0  0  0  0  0  0
  151.5807  142.0913  158.2460 N   0  0  0  0  0  0  0  0  0  0  0  0
  151.1205  143.1513  157.4395 C   0  0  0  0  0  0  0  0  0  0  0  0
  151.5923  144.4010  157.5721 C   0  0  0  0  0  0  0  0  0  0  0  0
  152.6002  144.6471  158.5763 C   0  0  0  0  0  0  0  0  0  0  0  0
  153.0468  143.6405  159.3537 C   0  0  0  0  0  0  0  0  0  0  0  0
  152.5339  142.2729  159.2119 C   0  0  0  0  0  0  0  0  0  0  0  0
  152.9353  141.3470  159.9179 O   0  0  0  0  0  0  0  0  0  0  0  0
  148.8793  139.0028  153.9753 C   0  0  0  0  0  0  0  0  0  0  0  0
  148.3236  137.7680  154.7065 C   0  0  0  0  0  0  0  0  0  0  0  0
  148.9116  131.2803  153.3685 H   0  0  0  0  0  0  0  0  0  0  0  0
  149.3802  131.3411  155.0503 H   0  0  0  0  0  0  0  0  0  0  0  0
  150.5318  131.7658  153.8008 H   0  0  0  0  0  0  0  0  0  0  0  0
  147.7298  135.1412  154.7025 H   0  0  0  0  0  0  0  0  0  0  0  0
  148.4723  135.5092  156.2430 H   0  0  0  0  0  0  0  0  0  0  0  0
  150.5237  137.1432  156.2222 H   0  0  0  0  0  0  0  0  0  0  0  0
  151.2762  136.1028  155.0345 H   0  0  0  0  0  0  0  0  0  0  0  0
  152.1819  138.4129  154.8606 H   0  0  0  0  0  0  0  0  0  0  0  0
  151.3949  137.9090  153.3888 H   0  0  0  0  0  0  0  0  0  0  0  0
  150.6923  140.1653  153.8331 H   0  0  0  0  0  0  0  0  0  0  0  0
  149.3156  140.1227  156.2281 H   0  0  0  0  0  0  0  0  0  0  0  0
  149.9069  140.8092  158.1597 H   0  0  0  0  0  0  0  0  0  0  0  0
  151.3458  140.0467  158.7533 H   0  0  0  0  0  0  0  0  0  0  0  0
  150.3618  142.8858  156.7177 H   0  0  0  0  0  0  0  0  0  0  0  0
  151.2254  145.2016  156.9468 H   0  0  0  0  0  0  0  0  0  0  0  0
  152.9961  145.6434  158.7063 H   0  0  0  0  0  0  0  0  0  0  0  0
  153.7997  143.8440  160.1008 H   0  0  0  0  0  0  0  0  0  0  0  0
  148.1846  139.8381  154.0714 H   0  0  0  0  0  0  0  0  0  0  0  0
  148.9388  138.7848  152.9081 H   0  0  0  0  0  0  0  0  0  0  0  0
  147.3627  137.4978  154.2671 H   0  0  0  0  0  0  0  0  0  0  0  0
  148.1370  137.9988  155.7565 H   0  0  0  0  0  0  0  0  0  0  0  0
  149.3757  136.4271  153.6218 H   0  0  0  0  0  0  0  0  0  0  0  0
  1  2  1  0  0  0  0
  1 23  1  0  0  0  0
  1 24  1  0  0  0  0
  1 25  1  0  0  0  0
  2  3  1  0  0  0  0
  3  4  2  0  0  0  0
  3  5  1  0  0  0  0
  5  6  1  0  0  0  0
  5 26  1  0  0  0  0
  5 27  1  0  0  0  0
  6 22  1  0  0  0  0
  6  7  1  0  0  0  0
  6 44  1  0  0  0  0
  7  8  1  0  0  0  0
  7 28  1  0  0  0  0
  7 29  1  0  0  0  0
  8  9  1  0  0  0  0
  8 30  1  0  0  0  0
  8 31  1  0  0  0  0
  9 10  1  0  0  0  0
  9 21  1  0  0  0  0
  9 32  1  0  0  0  0
 10 11  1  0  0  0  0
 10 33  1  0  0  0  0
 11 12  2  0  0  0  0
 11 13  1  0  0  0  0
 13 14  1  0  0  0  0
 13 34  1  0  0  0  0
 13 35  1  0  0  0  0
 14 19  1  0  0  0  0
 14 15  1  0  0  0  0
 15 16  2  0  0  0  0
 15 36  1  0  0  0  0
 16 17  1  0  0  0  0
 16 37  1  0  0  0  0
 17 18  2  0  0  0  0
 17 38  1  0  0  0  0
 18 19  1  0  0  0  0
 18 39  1  0  0  0  0
 19 20  2  0  0  0  0
 21 22  1  0  0  0  0
 21 40  1  0  0  0  0
 21 41  1  0  0  0  0
 22 42  1  0  0  0  0
 22 43  1  0  0  0  0
M  CHG  1   2  -1
M  CHG  1   6   1
M  END
> <s_m_source_file>
AV-unprocessed.smi

> <i_m_source_file_index>
1202

> <i_lp_mmshare_version>
43012

> <i_f3d_flags>
0

> <s_epik_input>
W0NIM11bTkhdQyg9TylbQ0gyXU4xW0NIMl1bQ0gyXVtDSF0oW0NIMl1bQ0gyXTEpW05IXUMoPU8pW0NIMl1uMltjSF1bY0hdW2NIXVtjSF1jMj1P

> <s_epik_cmdline>
J2VwaWtfcHl0aG9uJywgJy1waCcsICc3LjAnLCAnLXRuJywgJzgnLCAnLW1hJywgJzIwMCcsICctbWV0YWxfYmluZGluZycsICctaW1hZScsICc8aW5maWxlLm1hZT4nLCAnLW9tYWUnLCAnPG91dGZpbGUubWFlPic=

> <r_lp_tautomer_probability>
1

> <r_epik_Ionization_Penalty>
6.12124

> <r_epik_Ionization_Penalty_Charging>
6.12124

> <r_epik_Ionization_Penalty_Neutral>
4.50226e-08

> <r_epik_State_Penalty>
7.08052

> <r_epik_Charging_Adjusted_Penalty>
13.2018

> <i_epik_Tot_Q>
0

> <i_epik_Tot_abs_Q>
2

> <r_epik_Metal_State_Penalty>
3.01282

> <b_epik_Metal_Only>
1

> <s_lp_Force_Field>
OPLS_2005

> <r_lp_Energy>
20.2211

> <b_lp_Chiralities_Consistent>
1

> <s_lp_Variant>
AV-unprocessed.smi:1202-5

> <Gold.Version>
5.8.1

> <Gold.Id.Protein>
6NUR|6NUR_protein|mol2

> <Gold.PLP.Fitness>
54.1044

> <Gold.PLP.PLP>
-43.5103

> <Gold.PLP.part.hbond>
-2.0000

> <Gold.PLP.part.metal>
0.0000

> <Gold.PLP.part.buried>
-3.3995

> <Gold.PLP.part.nonpolar>
-37.5850

> <Gold.PLP.part.repulsive>
0.2434

> <Gold.PLP.ligand.clash>
0.0000

> <Gold.PLP.ligand.torsion>
0.2203

> <Gold.PLP.Chemscore.Hbond>
3.0000

> <Gold.PLP.Chemscore.CHOScore>
0.6652

> <Gold.PLP.Chemscore.Metal>
0.0000

> <Gold.Chemscore.Hbonds>
donor molecule, donor type, donor heavy atom, donor atom, acceptor molecule, acceptor atom, score
      L1  H     6    44       P1  7948  2.00
      P1  H  7997  8008       L1    12  1.00
      L1  C    15    36       P1  8028  0.70

> <Gold.PLP.Chemscore.Internal.Correction>
0.0391

> <Gold.Rescore>
     Score         DG    S(hbond)    S(metal)    S(lipo)     H(rot)  DE(clash)    DE(int)     intcor
     14.74     -17.71       1.97        0.00      95.35       2.15       0.10       2.87       ----

> <Gold.Chemscore.Fitness>
14.7355

> <Gold.Chemscore.DG>
-17.7118

> <Gold.Chemscore.ZeroCoef>
-5.4800

> <Gold.Chemscore.Hbond>
1.9707

> <Gold.Chemscore.Metal>
0.0000

> <Gold.Chemscore.Lipo>
95.3512

> <Gold.Chemscore.Internal_Hbond>
0.0000

> <Gold.Chemscore.DEClash>
0.1014

> <Gold.Chemscore.DEInternal>
2.8749

> <Gold.Chemscore.Rot>
2.1510

> <Gold.Chemscore.Internal.Correction>
   9.000000E+99

> <Gold.Chemscore.Hbonds>
donor molecule, donor type, donor heavy atom, donor atom, acceptor molecule, acceptor atom, score
      L1  H     6    44       P1  7948  0.85
      P1  H  7997  8008       L1    12  0.99

> <Gold.Chemscore.Hbond.Weighted>
-6.5822

> <Gold.Chemscore.Metal.Weighted>
-0.0000

> <Gold.Chemscore.Lipo.Weighted>
-11.1561

> <Gold.Chemscore.Internal_Hbond.Weighted>
0.0000

> <Gold.Chemscore.DEClash.Weighted>
0.1014

> <Gold.Chemscore.DEInternal.Weighted>
2.8749

> <Gold.Chemscore.Rot.Weighted>
5.5065

> <Gold.Chemscore.Internal.Correction.Weighted>
   9.000000E+99

> <Gold.Protein.RotatedTorsions>
[ 6907 6896 6895 6894 ] final  140.29 input  -60.11 | X-H torsion
[ 7974 7965 7964 7962 ] final  -62.33 input  175.53 | X-H torsion
[ 8008 7997 7996 7995 ] final  -31.85 input   59.86 | X-H torsion
[ 10167 10162 10161 10158 ] final -120.69 input  -65.29 | X-H torsion
[ 10718 10713 10712 10709 ] final -114.93 input   66.30 | X-H torsion
[ 10763 10752 10751 10750 ] final  -35.17 input  -60.55 | X-H torsion
[ 11005 11000 10999 10996 ] final    2.20 input  -57.11 | X-H torsion

> <Gold.Protein.ActiveResidues>
 VAL166  LYS551  ARG553  GLY616  TRP617  ASP618  TYR619  PRO620  LYS621  CYS622 
 ASP623  PHE694  ASN695  SER759  ASP760  ASP761  ALA762  ILE779  LEU786  VAL792 
 PHE793  MET794  SER795  GLU796  ALA797  LYS798  CYS799  TRP800  GLU811  SER814 

> <Gold.Protein.RotatedAtoms>
  152.2448  133.5165  159.5290 H   0  0  0  0  0  0  0  0  0  0  0  0  # atno 6907 bound_to 6896
  150.7075  134.1040  159.3985 H   0  0  0  0  0  0  0  0  0  0  0  0  # atno 6908 bound_to 6896
  151.8960  135.0397  160.0553 H   0  0  0  0  0  0  0  0  0  0  0  0  # atno 6909 bound_to 6896
  145.7926  140.8701  143.0273 H   0  0  0  0  0  0  0  0  0  0  0  0  # atno 7974 bound_to 7965
  154.4199  140.1753  156.1633 H   0  0  0  0  0  0  0  0  0  0  0  0  # atno 8008 bound_to 7997
  155.9820  140.3376  155.6648 H   0  0  0  0  0  0  0  0  0  0  0  0  # atno 8009 bound_to 7997
  155.6487  140.0688  157.2585 H   0  0  0  0  0  0  0  0  0  0  0  0  # atno 8010 bound_to 7997
  140.0331  143.5228  152.2167 H   0  0  0  0  0  0  0  0  0  0  0  0  # atno 10167 bound_to 10162
  156.0862  130.6053  150.8839 H   0  0  0  0  0  0  0  0  0  0  0  0  # atno 10718 bound_to 10713
  153.8588  135.6842  153.4785 H   0  0  0  0  0  0  0  0  0  0  0  0  # atno 10763 bound_to 10752
  153.1354  135.4680  154.9412 H   0  0  0  0  0  0  0  0  0  0  0  0  # atno 10764 bound_to 10752
  154.7768  135.3256  154.8023 H   0  0  0  0  0  0  0  0  0  0  0  0  # atno 10765 bound_to 10752
  140.6070  133.9783  155.8159 H   0  0  0  0  0  0  0  0  0  0  0  0  # atno 11005 bound_to 11000
  144.6779  140.0144  143.7484 LP  0  0  0  0  0  0  0  0  0  0  0  0  # atno 17320 bound_to 7965
  145.9961  139.3054  143.0955 LP  0  0  0  0  0  0  0  0  0  0  0  0  # atno 17321 bound_to 7965
  139.6063  144.7597  151.3054 LP  0  0  0  0  0  0  0  0  0  0  0  0  # atno 17342 bound_to 10162
  140.7293  143.6910  150.7922 LP  0  0  0  0  0  0  0  0  0  0  0  0  # atno 17343 bound_to 10162
  157.5997  131.0941  150.8981 LP  0  0  0  0  0  0  0  0  0  0  0  0  # atno 17370 bound_to 10713
  156.9141  130.5291  149.5280 LP  0  0  0  0  0  0  0  0  0  0  0  0  # atno 17371 bound_to 10713
  141.0834  134.0028  157.3351 LP  0  0  0  0  0  0  0  0  0  0  0  0  # atno 17394 bound_to 11000
  139.9208  135.0200  156.8057 LP  0  0  0  0  0  0  0  0  0  0  0  0  # atno 17395 bound_to 11000

$$$$
