AV-unprocessed.smi:3131|AV-procd|sdf|11928|dock10
  -GOLD-   2272017313D 1   1.00000     0.00000
 Structure written by MMmdl.
 43 43  0  0  0  0  0  0  0  0  2 V2000
  149.2981  140.6695  154.5947 C   0  0  0  0  0  0  0  0  0  0  0  0
  148.2310  141.4533  153.8160 C   0  0  0  0  0  0  0  0  0  0  0  0
  146.8544  140.7519  153.7306 C   0  0  0  0  0  0  0  0  0  0  0  0
  146.1316  140.7769  155.1003 C   0  0  0  0  0  0  0  0  0  0  0  0
  145.6314  142.1659  155.5241 C   0  0  0  0  0  0  0  0  0  0  0  0
  146.9965  139.3043  153.2091 C   0  0  0  0  0  0  0  0  0  0  0  0
  145.7040  138.5909  153.2199 N   0  3  0  0  0  0  0  0  0  0  0  0
  145.6778  137.3583  152.4046 C   0  0  0  0  0  0  0  0  0  0  0  0
  144.5164  136.4273  152.8151 C   0  0  2  0  0  0  0  0  0  0  0  0
  143.1838  137.1952  152.8167 C   0  0  0  0  0  0  0  0  0  0  0  0
  144.7422  136.0353  154.1570 O   0  0  0  0  0  0  0  0  0  0  0  0
  144.4238  135.2354  151.8857 C   0  0  0  0  0  0  0  0  0  0  0  0
  144.4352  135.2417  150.4596 C   0  0  0  0  0  0  0  0  0  0  0  0
  144.3561  134.0311  149.9347 N   0  0  0  0  0  0  0  0  0  0  0  0
  144.2805  133.2085  150.9997 N   0  0  0  0  0  0  0  0  0  0  0  0
  144.1757  131.7803  150.7912 C   0  0  0  0  0  0  0  0  0  0  0  0
  144.3172  133.9051  152.1881 C   0  0  0  0  0  0  0  0  0  0  0  0
  150.2636  141.1717  154.5295 H   0  0  0  0  0  0  0  0  0  0  0  0
  149.4223  139.6641  154.1914 H   0  0  0  0  0  0  0  0  0  0  0  0
  149.0540  140.5824  155.6528 H   0  0  0  0  0  0  0  0  0  0  0  0
  148.1153  142.4460  154.2528 H   0  0  0  0  0  0  0  0  0  0  0  0
  148.6246  141.6149  152.8136 H   0  0  0  0  0  0  0  0  0  0  0  0
  146.2404  141.3041  153.0170 H   0  0  0  0  0  0  0  0  0  0  0  0
  145.2617  140.1206  155.0745 H   0  0  0  0  0  0  0  0  0  0  0  0
  146.7851  140.3702  155.8732 H   0  0  0  0  0  0  0  0  0  0  0  0
  145.0602  142.1014  156.4505 H   0  0  0  0  0  0  0  0  0  0  0  0
  144.9784  142.5980  154.7653 H   0  0  0  0  0  0  0  0  0  0  0  0
  146.4506  142.8622  155.6996 H   0  0  0  0  0  0  0  0  0  0  0  0
  147.3624  139.2972  152.1831 H   0  0  0  0  0  0  0  0  0  0  0  0
  147.7231  138.7558  153.8104 H   0  0  0  0  0  0  0  0  0  0  0  0
  145.4895  138.3403  154.1747 H   0  0  0  0  0  0  0  0  0  0  0  0
  145.6052  137.6250  151.3491 H   0  0  0  0  0  0  0  0  0  0  0  0
  146.6283  136.8378  152.5319 H   0  0  0  0  0  0  0  0  0  0  0  0
  142.9366  137.5649  151.8210 H   0  0  0  0  0  0  0  0  0  0  0  0
  143.2192  138.0568  153.4846 H   0  0  0  0  0  0  0  0  0  0  0  0
  142.3600  136.5590  153.1434 H   0  0  0  0  0  0  0  0  0  0  0  0
  144.1199  136.4805  154.7123 H   0  0  0  0  0  0  0  0  0  0  0  0
  144.5062  136.0894  149.7940 H   0  0  0  0  0  0  0  0  0  0  0  0
  144.1774  131.2607  151.7498 H   0  0  0  0  0  0  0  0  0  0  0  0
  145.0203  131.4301  150.1970 H   0  0  0  0  0  0  0  0  0  0  0  0
  143.2481  131.5516  150.2657 H   0  0  0  0  0  0  0  0  0  0  0  0
  144.2683  133.4013  153.1425 H   0  0  0  0  0  0  0  0  0  0  0  0
  144.9825  139.2124  152.8829 H   0  0  0  0  0  0  0  0  0  0  0  0
  1  2  1  0  0  0  0
  1 18  1  0  0  0  0
  1 19  1  0  0  0  0
  1 20  1  0  0  0  0
  2  3  1  0  0  0  0
  2 21  1  0  0  0  0
  2 22  1  0  0  0  0
  3  4  1  0  0  0  0
  3  6  1  0  0  0  0
  3 23  1  0  0  0  0
  4  5  1  0  0  0  0
  4 24  1  0  0  0  0
  4 25  1  0  0  0  0
  5 26  1  0  0  0  0
  5 27  1  0  0  0  0
  5 28  1  0  0  0  0
  6  7  1  0  0  0  0
  6 29  1  0  0  0  0
  6 30  1  0  0  0  0
  7  8  1  0  0  0  0
  7 31  1  0  0  0  0
  7 43  1  0  0  0  0
  8  9  1  0  0  0  0
  8 32  1  0  0  0  0
  8 33  1  0  0  0  0
  9 10  1  0  0  0  0
  9 11  1  0  0  0  0
  9 12  1  0  0  0  0
 10 34  1  0  0  0  0
 10 35  1  0  0  0  0
 10 36  1  0  0  0  0
 11 37  1  0  0  0  0
 12 17  2  0  0  0  0
 12 13  1  0  0  0  0
 13 14  2  0  0  0  0
 13 38  1  0  0  0  0
 14 15  1  0  0  0  0
 15 16  1  0  0  0  0
 15 17  1  0  0  0  0
 16 39  1  0  0  0  0
 16 40  1  0  0  0  0
 16 41  1  0  0  0  0
 17 42  1  0  0  0  0
M  CHG  1   7   1
M  END
> <s_m_source_file>
AV-unprocessed.smi

> <i_m_source_file_index>
3131

> <i_lp_mmshare_version>
43012

> <i_f3d_flags>
0

> <s_epik_input>
W0NIM11bQ0gyXVtDSF0oW0NIMl1bQ0gzXSlbQ0gyXVtOSF1bQ0gyXVtDQEBdKFtDSDNdKShbT0hdKWMxW2NIXW5uKFtDSDNdKVtjSF0x

> <s_epik_cmdline>
J2VwaWtfcHl0aG9uJywgJy1waCcsICc3LjAnLCAnLXRuJywgJzgnLCAnLW1hJywgJzIwMCcsICctbWV0YWxfYmluZGluZycsICctaW1hZScsICc8aW5maWxlLm1hZT4nLCAnLW9tYWUnLCAnPG91dGZpbGUubWFlPic=

> <r_lp_tautomer_probability>
1

> <r_epik_Ionization_Penalty>
0.00304809

> <r_epik_Ionization_Penalty_Charging>
0.00302982

> <r_epik_Ionization_Penalty_Neutral>
1.82731e-05

> <r_epik_State_Penalty>
0.00212874

> <r_epik_Charging_Adjusted_Penalty>
0.00515857

> <i_epik_Tot_Q>
1

> <i_epik_Tot_abs_Q>
1

> <r_epik_Metal_State_Penalty>
-0

> <b_epik_Metal_Only>
0

> <s_lp_Force_Field>
OPLS_2005

> <r_lp_Energy>
9.85369

> <b_lp_Chiralities_Consistent>
1

> <s_lp_Variant>
AV-unprocessed.smi:3131-2

> <Gold.Version>
5.8.1

> <Gold.Id.Protein>
6NUR|6NUR_protein|mol2

> <Gold.PLP.Fitness>
40.4560

> <Gold.PLP.PLP>
-31.4664

> <Gold.PLP.part.hbond>
-1.0000

> <Gold.PLP.part.metal>
0.0000

> <Gold.PLP.part.buried>
-4.4929

> <Gold.PLP.part.nonpolar>
-27.3716

> <Gold.PLP.part.repulsive>
0.5988

> <Gold.PLP.ligand.clash>
0.0000

> <Gold.PLP.ligand.torsion>
0.7386

> <Gold.PLP.Chemscore.Hbond>
2.0000

> <Gold.PLP.Chemscore.CHOScore>
1.4093

> <Gold.PLP.Chemscore.Metal>
0.0000

> <Gold.Chemscore.Hbonds>
donor molecule, donor type, donor heavy atom, donor atom, acceptor molecule, acceptor atom, score
      L1  H     7    43       P1 10175  2.00
      L1  C    13    38       P1 10171  0.95
      L1  C    17    42       P1 10957  0.30

> <Gold.PLP.Chemscore.Internal.Correction>
0.2388

> <Gold.Rescore>
     Score         DG    S(hbond)    S(metal)    S(lipo)     H(rot)  DE(clash)    DE(int)     intcor
     10.81     -11.37       1.00        0.00      73.11       2.34       0.05       0.52       ----

> <Gold.Chemscore.Fitness>
10.8054

> <Gold.Chemscore.DG>
-11.3686

> <Gold.Chemscore.ZeroCoef>
-5.4800

> <Gold.Chemscore.Hbond>
0.9975

> <Gold.Chemscore.Metal>
0.0000

> <Gold.Chemscore.Lipo>
73.1112

> <Gold.Chemscore.Internal_Hbond>
0.0000

> <Gold.Chemscore.DEClash>
0.0473

> <Gold.Chemscore.DEInternal>
0.5160

> <Gold.Chemscore.Rot>
2.3426

> <Gold.Chemscore.Internal.Correction>
   9.000000E+99

> <Gold.Chemscore.Hbonds>
donor molecule, donor type, donor heavy atom, donor atom, acceptor molecule, acceptor atom, score
      L1  H     7    43       P1 10175  1.00

> <Gold.Chemscore.Hbond.Weighted>
-3.3318

> <Gold.Chemscore.Metal.Weighted>
-0.0000

> <Gold.Chemscore.Lipo.Weighted>
-8.5540

> <Gold.Chemscore.Internal_Hbond.Weighted>
0.0000

> <Gold.Chemscore.DEClash.Weighted>
0.0473

> <Gold.Chemscore.DEInternal.Weighted>
0.5160

> <Gold.Chemscore.Rot.Weighted>
5.9972

> <Gold.Chemscore.Internal.Correction.Weighted>
   9.000000E+99

> <Gold.Protein.RotatedTorsions>
[ 6907 6896 6895 6894 ] final  155.14 input  -60.11 | X-H torsion
[ 7974 7965 7964 7962 ] final   -4.06 input  175.53 | X-H torsion
[ 8008 7997 7996 7995 ] final  109.69 input   59.86 | X-H torsion
[ 10167 10162 10161 10158 ] final  157.72 input  -65.29 | X-H torsion
[ 10718 10713 10712 10709 ] final  -74.97 input   66.30 | X-H torsion
[ 10763 10752 10751 10750 ] final  164.79 input  -60.55 | X-H torsion
[ 11005 11000 10999 10996 ] final   56.40 input  -57.11 | X-H torsion

> <Gold.Protein.ActiveResidues>
 VAL166  LYS551  ARG553  GLY616  TRP617  ASP618  TYR619  PRO620  LYS621  CYS622 
 ASP623  PHE694  ASN695  SER759  ASP760  ASP761  ALA762  ILE779  LEU786  VAL792 
 PHE793  MET794  SER795  GLU796  ALA797  LYS798  CYS799  TRP800  GLU811  SER814 

> <Gold.Protein.RotatedAtoms>
  152.0485  133.4008  159.4366 H   0  0  0  0  0  0  0  0  0  0  0  0  # atno 6907 bound_to 6896
  150.6871  134.3335  159.4846 H   0  0  0  0  0  0  0  0  0  0  0  0  # atno 6908 bound_to 6896
  152.1142  134.9252  160.0616 H   0  0  0  0  0  0  0  0  0  0  0  0  # atno 6909 bound_to 6896
  146.2379  140.1815  142.8332 H   0  0  0  0  0  0  0  0  0  0  0  0  # atno 7974 bound_to 7965
  156.1998  140.3053  155.9503 H   0  0  0  0  0  0  0  0  0  0  0  0  # atno 8008 bound_to 7997
  155.2980  140.0445  157.3044 H   0  0  0  0  0  0  0  0  0  0  0  0  # atno 8009 bound_to 7997
  154.5556  140.2305  155.8424 H   0  0  0  0  0  0  0  0  0  0  0  0  # atno 8010 bound_to 7997
  139.4824  144.4891  151.8334 H   0  0  0  0  0  0  0  0  0  0  0  0  # atno 10167 bound_to 10162
  156.0224  130.4429  150.2972 H   0  0  0  0  0  0  0  0  0  0  0  0  # atno 10718 bound_to 10713
  154.3142  135.2757  155.2551 H   0  0  0  0  0  0  0  0  0  0  0  0  # atno 10763 bound_to 10752
  154.4933  135.5828  153.6479 H   0  0  0  0  0  0  0  0  0  0  0  0  # atno 10764 bound_to 10752
  152.9884  135.6140  154.3321 H   0  0  0  0  0  0  0  0  0  0  0  0  # atno 10765 bound_to 10752
  140.0532  134.5707  155.9239 H   0  0  0  0  0  0  0  0  0  0  0  0  # atno 11005 bound_to 11000
  144.9931  140.8565  143.5327 LP  0  0  0  0  0  0  0  0  0  0  0  0  # atno 17320 bound_to 7965
  145.1823  139.2345  143.5286 LP  0  0  0  0  0  0  0  0  0  0  0  0  # atno 17321 bound_to 7965
  140.4374  144.2033  150.5890 LP  0  0  0  0  0  0  0  0  0  0  0  0  # atno 17342 bound_to 10162
  140.4718  143.2410  151.9078 LP  0  0  0  0  0  0  0  0  0  0  0  0  # atno 17343 bound_to 10162
  157.1076  131.0212  151.3061 LP  0  0  0  0  0  0  0  0  0  0  0  0  # atno 17370 bound_to 10713
  157.4730  130.7720  149.7342 LP  0  0  0  0  0  0  0  0  0  0  0  0  # atno 17371 bound_to 10713
  141.1940  133.6581  156.5574 LP  0  0  0  0  0  0  0  0  0  0  0  0  # atno 17394 bound_to 11000
  140.3885  134.7461  157.4706 LP  0  0  0  0  0  0  0  0  0  0  0  0  # atno 17395 bound_to 11000

$$$$
