AV-unprocessed.smi:3253|AV-procd|sdf|12448|dock5
  -GOLD-   2272018343D 1   1.00000     0.00000
 Structure written by MMmdl.
 37 38  0  0  0  0  0  0  0  0  2 V2000
  153.1817  140.0142  160.0814 C   0  0  0  0  0  0  0  0  0  0  0  0
  152.2059  141.1116  159.6363 C   0  0  1  0  0  0  0  0  0  0  0  0
  152.6693  142.5031  160.1220 C   0  0  0  0  0  0  0  0  0  0  0  0
  152.1008  143.6070  159.3404 N   0  0  0  0  0  0  0  0  0  0  0  0
  152.7565  144.4219  158.4529 C   0  0  0  0  0  0  0  0  0  0  0  0
  151.8192  145.2883  157.9523 C   0  0  0  0  0  0  0  0  0  0  0  0
  150.6345  144.9724  158.5617 N   0  3  0  0  0  0  0  0  0  0  0  0
  150.8088  143.9533  159.4092 C   0  0  0  0  0  0  0  0  0  0  0  0
  152.0849  141.0762  158.1790 N   0  0  0  0  0  0  0  0  0  0  0  0
  150.9347  141.1302  157.4884 C   0  0  0  0  0  0  0  0  0  0  0  0
  149.8276  141.1981  158.0241 O   0  0  0  0  0  0  0  0  0  0  0  0
  151.0528  141.1397  155.9568 C   0  0  1  0  0  0  0  0  0  0  0  0
  151.7687  139.8787  155.4302 C   0  0  0  0  0  0  0  0  0  0  0  0
  150.6695  139.1030  154.7226 C   0  0  0  0  0  0  0  0  0  0  0  0
  150.8349  137.9721  154.2686 O   0  0  0  0  0  0  0  0  0  0  0  0
  149.5355  139.8084  154.6850 N   0  0  0  0  0  0  0  0  0  0  0  0
  148.2749  139.3655  154.1055 C   0  0  0  0  0  0  0  0  0  0  0  0
  149.6681  141.1296  155.2735 C   0  0  0  0  0  0  0  0  0  0  0  0
  153.2786  139.9917  161.1671 H   0  0  0  0  0  0  0  0  0  0  0  0
  154.1763  140.1714  159.6622 H   0  0  0  0  0  0  0  0  0  0  0  0
  152.8374  139.0296  159.7630 H   0  0  0  0  0  0  0  0  0  0  0  0
  151.2396  140.8833  160.0898 H   0  0  0  0  0  0  0  0  0  0  0  0
  152.3789  142.6588  161.1621 H   0  0  0  0  0  0  0  0  0  0  0  0
  153.7566  142.5846  160.0826 H   0  0  0  0  0  0  0  0  0  0  0  0
  153.8112  144.3208  158.2413 H   0  0  0  0  0  0  0  0  0  0  0  0
  151.9039  146.0844  157.2269 H   0  0  0  0  0  0  0  0  0  0  0  0
  150.0518  143.4919  160.0182 H   0  0  0  0  0  0  0  0  0  0  0  0
  152.9461  141.0187  157.6544 H   0  0  0  0  0  0  0  0  0  0  0  0
  151.6042  142.0298  155.6487 H   0  0  0  0  0  0  0  0  0  0  0  0
  152.5467  140.1401  154.7125 H   0  0  0  0  0  0  0  0  0  0  0  0
  152.2248  139.2707  156.2132 H   0  0  0  0  0  0  0  0  0  0  0  0
  148.4100  139.0834  153.0607 H   0  0  0  0  0  0  0  0  0  0  0  0
  147.5236  140.1545  154.1475 H   0  0  0  0  0  0  0  0  0  0  0  0
  147.8899  138.5014  154.6481 H   0  0  0  0  0  0  0  0  0  0  0  0
  148.8471  141.3251  155.9662 H   0  0  0  0  0  0  0  0  0  0  0  0
  149.6200  141.8819  154.4849 H   0  0  0  0  0  0  0  0  0  0  0  0
  149.7516  145.4389  158.3945 H   0  0  0  0  0  0  0  0  0  0  0  0
  1  2  1  0  0  0  0
  1 19  1  0  0  0  0
  1 20  1  0  0  0  0
  1 21  1  0  0  0  0
  2  3  1  0  0  0  0
  2  9  1  0  0  0  0
  2 22  1  0  0  0  0
  3  4  1  0  0  0  0
  3 23  1  0  0  0  0
  3 24  1  0  0  0  0
  4  8  1  0  0  0  0
  4  5  1  0  0  0  0
  5  6  2  0  0  0  0
  5 25  1  0  0  0  0
  6  7  1  0  0  0  0
  6 26  1  0  0  0  0
  7  8  2  0  0  0  0
  7 37  1  0  0  0  0
  8 27  1  0  0  0  0
  9 10  1  0  0  0  0
  9 28  1  0  0  0  0
 10 11  2  0  0  0  0
 10 12  1  0  0  0  0
 12 18  1  0  0  0  0
 12 13  1  0  0  0  0
 12 29  1  0  0  0  0
 13 14  1  0  0  0  0
 13 30  1  0  0  0  0
 13 31  1  0  0  0  0
 14 15  2  0  0  0  0
 14 16  1  0  0  0  0
 16 17  1  0  0  0  0
 16 18  1  0  0  0  0
 17 32  1  0  0  0  0
 17 33  1  0  0  0  0
 17 34  1  0  0  0  0
 18 35  1  0  0  0  0
 18 36  1  0  0  0  0
M  CHG  1   7   1
M  END
> <s_m_source_file>
AV-unprocessed.smi

> <i_m_source_file_index>
3253

> <i_lp_mmshare_version>
43012

> <i_f3d_flags>
0

> <s_epik_input>
W2NIXTFuW2NIXVtjSF1uMVtDSDJdW0NAQEhdKFtDSDNdKVtOSF1DKD1PKVtDQEBIXTJbQ0gyXUMoPU8pTihbQ0gzXSlbQ0gyXTI=

> <s_epik_cmdline>
J2VwaWtfcHl0aG9uJywgJy1waCcsICc3LjAnLCAnLXRuJywgJzgnLCAnLW1hJywgJzIwMCcsICctbWV0YWxfYmluZGluZycsICctaW1hZScsICc8aW5maWxlLm1hZT4nLCAnLW9tYWUnLCAnPG91dGZpbGUubWFlPic=

> <r_lp_tautomer_probability>
1

> <r_epik_Ionization_Penalty>
0.251561

> <r_epik_Ionization_Penalty_Charging>
0

> <r_epik_Ionization_Penalty_Neutral>
0.251561

> <r_epik_State_Penalty>
0.242926

> <r_epik_Charging_Adjusted_Penalty>
0.242926

> <i_epik_Tot_Q>
1

> <i_epik_Tot_abs_Q>
1

> <r_epik_Metal_State_Penalty>
0.533885

> <b_epik_Metal_Only>
0

> <s_lp_Force_Field>
OPLS_2005

> <r_lp_Energy>
13.8895

> <b_lp_Chiralities_Consistent>
1

> <s_lp_Variant>
AV-unprocessed.smi:3253-4

> <Gold.Version>
5.8.1

> <Gold.Id.Protein>
6NUR|6NUR_protein|mol2

> <Gold.PLP.Fitness>
45.7466

> <Gold.PLP.PLP>
-40.8200

> <Gold.PLP.part.hbond>
-1.9371

> <Gold.PLP.part.metal>
0.0000

> <Gold.PLP.part.buried>
-4.5927

> <Gold.PLP.part.nonpolar>
-35.0501

> <Gold.PLP.part.repulsive>
0.4381

> <Gold.PLP.ligand.clash>
0.0000

> <Gold.PLP.ligand.torsion>
0.5516

> <Gold.PLP.Chemscore.Hbond>
2.0000

> <Gold.PLP.Chemscore.CHOScore>
0.0000

> <Gold.PLP.Chemscore.Metal>
0.0000

> <Gold.Chemscore.Hbonds>
donor molecule, donor type, donor heavy atom, donor atom, acceptor molecule, acceptor atom, score
      L1  H     7    37       P1  8029  1.11

> <Gold.PLP.Chemscore.Internal.Correction>
0.0298

> <Gold.Rescore>
     Score         DG    S(hbond)    S(metal)    S(lipo)     H(rot)  DE(clash)    DE(int)     intcor
     11.39     -12.35       0.84        0.00      79.21       2.03       0.39       0.56       ----

> <Gold.Chemscore.Fitness>
11.3948

> <Gold.Chemscore.DG>
-12.3458

> <Gold.Chemscore.ZeroCoef>
-5.4800

> <Gold.Chemscore.Hbond>
0.8398

> <Gold.Chemscore.Metal>
0.0000

> <Gold.Chemscore.Lipo>
79.2143

> <Gold.Chemscore.Internal_Hbond>
0.0000

> <Gold.Chemscore.DEClash>
0.3880

> <Gold.Chemscore.DEInternal>
0.5630

> <Gold.Chemscore.Rot>
2.0341

> <Gold.Chemscore.Internal.Correction>
   9.000000E+99

> <Gold.Chemscore.Hbonds>
donor molecule, donor type, donor heavy atom, donor atom, acceptor molecule, acceptor atom, score
      L1  H     7    37       P1  8029  0.35

> <Gold.Chemscore.Hbond.Weighted>
-2.8049

> <Gold.Chemscore.Metal.Weighted>
-0.0000

> <Gold.Chemscore.Lipo.Weighted>
-9.2681

> <Gold.Chemscore.Internal_Hbond.Weighted>
0.0000

> <Gold.Chemscore.DEClash.Weighted>
0.3880

> <Gold.Chemscore.DEInternal.Weighted>
0.5630

> <Gold.Chemscore.Rot.Weighted>
5.2072

> <Gold.Chemscore.Internal.Correction.Weighted>
   9.000000E+99

> <Gold.Protein.RotatedTorsions>
[ 6907 6896 6895 6894 ] final  -53.55 input  -60.11 | X-H torsion
[ 7974 7965 7964 7962 ] final   75.01 input  175.53 | X-H torsion
[ 8008 7997 7996 7995 ] final -100.91 input   59.86 | X-H torsion
[ 10167 10162 10161 10158 ] final  142.85 input  -65.29 | X-H torsion
[ 10718 10713 10712 10709 ] final -176.34 input   66.30 | X-H torsion
[ 10763 10752 10751 10750 ] final -164.66 input  -60.55 | X-H torsion
[ 11005 11000 10999 10996 ] final   41.78 input  -57.11 | X-H torsion

> <Gold.Protein.ActiveResidues>
 VAL166  LYS551  ARG553  GLY616  TRP617  ASP618  TYR619  PRO620  LYS621  CYS622 
 ASP623  PHE694  ASN695  SER759  ASP760  ASP761  ALA762  ILE779  LEU786  VAL792 
 PHE793  MET794  SER795  GLU796  ALA797  LYS798  CYS799  TRP800  GLU811  SER814 

> <Gold.Protein.RotatedAtoms>
  150.8417  134.7711  159.6937 H   0  0  0  0  0  0  0  0  0  0  0  0  # atno 6907 bound_to 6896
  152.4503  134.5405  159.9847 H   0  0  0  0  0  0  0  0  0  0  0  0  # atno 6908 bound_to 6896
  151.5543  133.3375  159.2995 H   0  0  0  0  0  0  0  0  0  0  0  0  # atno 6909 bound_to 6896
  145.7210  139.2648  143.1596 H   0  0  0  0  0  0  0  0  0  0  0  0  # atno 7974 bound_to 7965
  154.8352  140.0438  157.1504 H   0  0  0  0  0  0  0  0  0  0  0  0  # atno 8008 bound_to 7997
  154.9108  140.3013  155.5247 H   0  0  0  0  0  0  0  0  0  0  0  0  # atno 8009 bound_to 7997
  156.2989  140.2358  156.4147 H   0  0  0  0  0  0  0  0  0  0  0  0  # atno 8010 bound_to 7997
  139.4984  144.6080  151.6336 H   0  0  0  0  0  0  0  0  0  0  0  0  # atno 10167 bound_to 10162
  156.8132  130.9593  151.3115 H   0  0  0  0  0  0  0  0  0  0  0  0  # atno 10718 bound_to 10713
  154.7007  135.2987  154.9345 H   0  0  0  0  0  0  0  0  0  0  0  0  # atno 10763 bound_to 10752
  154.0279  135.6674  153.4782 H   0  0  0  0  0  0  0  0  0  0  0  0  # atno 10764 bound_to 10752
  153.0679  135.5078  154.8149 H   0  0  0  0  0  0  0  0  0  0  0  0  # atno 10765 bound_to 10752
  140.1801  134.4114  155.8205 H   0  0  0  0  0  0  0  0  0  0  0  0  # atno 11005 bound_to 11000
  146.0625  140.7955  142.9727 LP  0  0  0  0  0  0  0  0  0  0  0  0  # atno 17320 bound_to 7965
  144.6917  140.3219  143.7231 LP  0  0  0  0  0  0  0  0  0  0  0  0  # atno 17321 bound_to 7965
  140.5747  144.0050  150.6235 LP  0  0  0  0  0  0  0  0  0  0  0  0  # atno 17342 bound_to 10162
  140.3179  143.3156  152.0814 LP  0  0  0  0  0  0  0  0  0  0  0  0  # atno 17343 bound_to 10162
  157.6495  130.8872  149.9605 LP  0  0  0  0  0  0  0  0  0  0  0  0  # atno 17370 bound_to 10713
  156.1032  130.3654  150.0180 LP  0  0  0  0  0  0  0  0  0  0  0  0  # atno 17371 bound_to 10713
  141.2222  133.6996  156.7916 LP  0  0  0  0  0  0  0  0  0  0  0  0  # atno 17394 bound_to 11000
  140.2277  134.8709  157.3443 LP  0  0  0  0  0  0  0  0  0  0  0  0  # atno 17395 bound_to 11000

$$$$
