AV-unprocessed.smi:3351|AV-procd|sdf|12948|dock2
  -GOLD-   2272019383D 1   1.00000     0.00000
 Structure written by MMmdl.
 35 36  0  0  0  0  0  0  0  0  2 V2000
  154.4293  141.2461  160.3066 C   0  0  0  0  0  0  0  0  0  0  0  0
  153.0068  141.5971  159.8410 C   0  0  1  0  0  0  0  0  0  0  0  0
  152.4086  142.8123  160.5827 C   0  0  0  0  0  0  0  0  0  0  0  0
  151.8935  143.8382  159.6707 N   0  0  0  0  0  0  0  0  0  0  0  0
  152.6139  144.8150  159.0324 C   0  0  0  0  0  0  0  0  0  0  0  0
  151.7175  145.5393  158.2895 C   0  0  0  0  0  0  0  0  0  0  0  0
  150.4884  144.9776  158.5095 N   0  3  0  0  0  0  0  0  0  0  0  0
  150.5967  143.9457  159.3528 C   0  0  0  0  0  0  0  0  0  0  0  0
  153.0203  141.8394  158.4013 N   0  0  0  0  0  0  0  0  0  0  0  0
  152.1445  141.3295  157.5213 C   0  0  0  0  0  0  0  0  0  0  0  0
  151.1970  140.6148  157.8506 O   0  0  0  0  0  0  0  0  0  0  0  0
  152.3630  141.7114  156.0518 C   0  0  0  0  0  0  0  0  0  0  0  0
  152.5327  140.5470  155.1805 N   0  0  0  0  0  0  0  0  0  0  0  0
  151.4617  140.1797  154.2624 C   0  0  0  0  0  0  0  0  0  0  0  0
  152.0256  139.1708  153.2594 C   0  0  0  0  0  0  0  0  0  0  0  0
  153.4683  138.3945  154.0139 S   0  0  0  0  0  0  0  0  0  0  0  0
  153.6356  139.7046  155.2300 C   0  0  0  0  0  0  0  0  0  0  0  0
  154.6100  139.7885  155.9755 O   0  0  0  0  0  0  0  0  0  0  0  0
  154.4476  140.9629  161.3592 H   0  0  0  0  0  0  0  0  0  0  0  0
  155.1088  142.0887  160.1752 H   0  0  0  0  0  0  0  0  0  0  0  0
  154.8303  140.4043  159.7407 H   0  0  0  0  0  0  0  0  0  0  0  0
  152.3782  140.7262  160.0362 H   0  0  0  0  0  0  0  0  0  0  0  0
  151.5981  142.4985  161.2428 H   0  0  0  0  0  0  0  0  0  0  0  0
  153.1603  143.2902  161.2123 H   0  0  0  0  0  0  0  0  0  0  0  0
  153.6833  144.9172  159.1499 H   0  0  0  0  0  0  0  0  0  0  0  0
  151.8584  146.3904  157.6391 H   0  0  0  0  0  0  0  0  0  0  0  0
  149.7948  143.3205  159.7034 H   0  0  0  0  0  0  0  0  0  0  0  0
  153.7645  142.4208  158.0435 H   0  0  0  0  0  0  0  0  0  0  0  0
  151.5099  142.3041  155.7197 H   0  0  0  0  0  0  0  0  0  0  0  0
  153.2387  142.3569  155.9619 H   0  0  0  0  0  0  0  0  0  0  0  0
  150.6546  139.7270  154.8396 H   0  0  0  0  0  0  0  0  0  0  0  0
  151.0533  141.0527  153.7521 H   0  0  0  0  0  0  0  0  0  0  0  0
  151.2868  138.4258  152.9642 H   0  0  0  0  0  0  0  0  0  0  0  0
  152.3559  139.6869  152.3577 H   0  0  0  0  0  0  0  0  0  0  0  0
  149.6209  145.2965  158.0965 H   0  0  0  0  0  0  0  0  0  0  0  0
  1  2  1  0  0  0  0
  1 19  1  0  0  0  0
  1 20  1  0  0  0  0
  1 21  1  0  0  0  0
  2  3  1  0  0  0  0
  2  9  1  0  0  0  0
  2 22  1  0  0  0  0
  3  4  1  0  0  0  0
  3 23  1  0  0  0  0
  3 24  1  0  0  0  0
  4  8  1  0  0  0  0
  4  5  1  0  0  0  0
  5  6  2  0  0  0  0
  5 25  1  0  0  0  0
  6  7  1  0  0  0  0
  6 26  1  0  0  0  0
  7  8  2  0  0  0  0
  7 35  1  0  0  0  0
  8 27  1  0  0  0  0
  9 10  1  0  0  0  0
  9 28  1  0  0  0  0
 10 11  2  0  0  0  0
 10 12  1  0  0  0  0
 12 13  1  0  0  0  0
 12 29  1  0  0  0  0
 12 30  1  0  0  0  0
 13 17  1  0  0  0  0
 13 14  1  0  0  0  0
 14 15  1  0  0  0  0
 14 31  1  0  0  0  0
 14 32  1  0  0  0  0
 15 16  1  0  0  0  0
 15 33  1  0  0  0  0
 15 34  1  0  0  0  0
 16 17  1  0  0  0  0
 17 18  2  0  0  0  0
M  CHG  1   7   1
M  END
> <s_m_source_file>
AV-unprocessed.smi

> <i_m_source_file_index>
3351

> <i_lp_mmshare_version>
43012

> <i_f3d_flags>
0

> <s_epik_input>
W2NIXTFuW2NIXVtjSF1uMVtDSDJdW0NAQEhdKFtDSDNdKVtOSF1DKD1PKVtDSDJdTjJbQ0gyXVtDSDJdU0MyPU8=

> <s_epik_cmdline>
J2VwaWtfcHl0aG9uJywgJy1waCcsICc3LjAnLCAnLXRuJywgJzgnLCAnLW1hJywgJzIwMCcsICctbWV0YWxfYmluZGluZycsICctaW1hZScsICc8aW5maWxlLm1hZT4nLCAnLW9tYWUnLCAnPG91dGZpbGUubWFlPic=

> <r_lp_tautomer_probability>
1

> <r_epik_Ionization_Penalty>
0.257312

> <r_epik_Ionization_Penalty_Charging>
0

> <r_epik_Ionization_Penalty_Neutral>
0.257312

> <r_epik_State_Penalty>
0.248897

> <r_epik_Charging_Adjusted_Penalty>
0.248897

> <i_epik_Tot_Q>
1

> <i_epik_Tot_abs_Q>
1

> <r_epik_Metal_State_Penalty>
0.538022

> <b_epik_Metal_Only>
0

> <s_lp_Force_Field>
OPLS_2005

> <r_lp_Energy>
6.1395

> <b_lp_Chiralities_Consistent>
1

> <s_lp_Variant>
AV-unprocessed.smi:3351-2

> <Gold.Version>
5.8.1

> <Gold.Id.Protein>
6NUR|6NUR_protein|mol2

> <Gold.PLP.Fitness>
47.5786

> <Gold.PLP.PLP>
-41.2063

> <Gold.PLP.part.hbond>
-1.8684

> <Gold.PLP.part.metal>
0.0000

> <Gold.PLP.part.buried>
-2.9960

> <Gold.PLP.part.nonpolar>
-35.4733

> <Gold.PLP.part.repulsive>
0.2939

> <Gold.PLP.ligand.clash>
0.0000

> <Gold.PLP.ligand.torsion>
1.3371

> <Gold.PLP.Chemscore.Hbond>
3.0000

> <Gold.PLP.Chemscore.CHOScore>
0.0000

> <Gold.PLP.Chemscore.Metal>
0.0000

> <Gold.Chemscore.Hbonds>
donor molecule, donor type, donor heavy atom, donor atom, acceptor molecule, acceptor atom, score
      L1  H     7    35       P1  8029  2.00

> <Gold.PLP.Chemscore.Internal.Correction>
0.0465

> <Gold.Rescore>
     Score         DG    S(hbond)    S(metal)    S(lipo)     H(rot)  DE(clash)    DE(int)     intcor
     13.68     -15.35       1.86        0.00      84.00       2.41       0.34       1.33       ----

> <Gold.Chemscore.Fitness>
13.6831

> <Gold.Chemscore.DG>
-15.3505

> <Gold.Chemscore.ZeroCoef>
-5.4800

> <Gold.Chemscore.Hbond>
1.8631

> <Gold.Chemscore.Metal>
0.0000

> <Gold.Chemscore.Lipo>
83.9976

> <Gold.Chemscore.Internal_Hbond>
0.0000

> <Gold.Chemscore.DEClash>
0.3390

> <Gold.Chemscore.DEInternal>
1.3284

> <Gold.Chemscore.Rot>
2.4141

> <Gold.Chemscore.Internal.Correction>
   9.000000E+99

> <Gold.Chemscore.Hbonds>
donor molecule, donor type, donor heavy atom, donor atom, acceptor molecule, acceptor atom, score
      L1  H     7    35       P1  8029  0.29

> <Gold.Chemscore.Hbond.Weighted>
-6.2228

> <Gold.Chemscore.Metal.Weighted>
-0.0000

> <Gold.Chemscore.Lipo.Weighted>
-9.8277

> <Gold.Chemscore.Internal_Hbond.Weighted>
0.0000

> <Gold.Chemscore.DEClash.Weighted>
0.3390

> <Gold.Chemscore.DEInternal.Weighted>
1.3284

> <Gold.Chemscore.Rot.Weighted>
6.1800

> <Gold.Chemscore.Internal.Correction.Weighted>
   9.000000E+99

> <Gold.Protein.RotatedTorsions>
[ 6907 6896 6895 6894 ] final  173.07 input  -60.11 | X-H torsion
[ 7974 7965 7964 7962 ] final  113.02 input  175.53 | X-H torsion
[ 8008 7997 7996 7995 ] final -171.60 input   59.86 | X-H torsion
[ 10167 10162 10161 10158 ] final -103.17 input  -65.29 | X-H torsion
[ 10718 10713 10712 10709 ] final -120.69 input   66.30 | X-H torsion
[ 10763 10752 10751 10750 ] final   16.21 input  -60.55 | X-H torsion
[ 11005 11000 10999 10996 ] final   92.74 input  -57.11 | X-H torsion

> <Gold.Protein.ActiveResidues>
 VAL166  LYS551  ARG553  GLY616  TRP617  ASP618  TYR619  PRO620  LYS621  CYS622 
 ASP623  PHE694  ASN695  SER759  ASP760  ASP761  ALA762  ILE779  LEU786  VAL792 
 PHE793  MET794  SER795  GLU796  ALA797  LYS798  CYS799  TRP800  GLU811  SER814 

> <Gold.Protein.RotatedAtoms>
  151.7742  133.3344  159.3452 H   0  0  0  0  0  0  0  0  0  0  0  0  # atno 6907 bound_to 6896
  150.7450  134.5991  159.6036 H   0  0  0  0  0  0  0  0  0  0  0  0  # atno 6908 bound_to 6896
  152.3321  134.7248  160.0338 H   0  0  0  0  0  0  0  0  0  0  0  0  # atno 6909 bound_to 6896
  145.2221  139.2857  143.4212 H   0  0  0  0  0  0  0  0  0  0  0  0  # atno 7974 bound_to 7965
  155.9337  140.1096  157.1112 H   0  0  0  0  0  0  0  0  0  0  0  0  # atno 8008 bound_to 7997
  154.4075  140.1232  156.4901 H   0  0  0  0  0  0  0  0  0  0  0  0  # atno 8009 bound_to 7997
  155.7048  140.3471  155.4951 H   0  0  0  0  0  0  0  0  0  0  0  0  # atno 8010 bound_to 7997
  140.2229  143.3663  152.0954 H   0  0  0  0  0  0  0  0  0  0  0  0  # atno 10167 bound_to 10162
  156.1278  130.6372  150.9571 H   0  0  0  0  0  0  0  0  0  0  0  0  # atno 10718 bound_to 10713
  153.1452  135.6768  153.8966 H   0  0  0  0  0  0  0  0  0  0  0  0  # atno 10763 bound_to 10752
  153.8410  135.3105  155.3427 H   0  0  0  0  0  0  0  0  0  0  0  0  # atno 10764 bound_to 10752
  154.7819  135.4883  153.9948 H   0  0  0  0  0  0  0  0  0  0  0  0  # atno 10765 bound_to 10752
  139.8819  134.8750  156.3616 H   0  0  0  0  0  0  0  0  0  0  0  0  # atno 11005 bound_to 11000
  146.3373  140.2531  142.8599 LP  0  0  0  0  0  0  0  0  0  0  0  0  # atno 17320 bound_to 7965
  144.9755  140.8410  143.5429 LP  0  0  0  0  0  0  0  0  0  0  0  0  # atno 17321 bound_to 7965
  139.5138  144.6938  151.5688 LP  0  0  0  0  0  0  0  0  0  0  0  0  # atno 17342 bound_to 10162
  140.6242  143.9200  150.6551 LP  0  0  0  0  0  0  0  0  0  0  0  0  # atno 17343 bound_to 10162
  157.6458  131.0904  150.8156 LP  0  0  0  0  0  0  0  0  0  0  0  0  # atno 17370 bound_to 10713
  156.8245  130.4995  149.5339 LP  0  0  0  0  0  0  0  0  0  0  0  0  # atno 17371 bound_to 10713
  140.9525  133.7441  156.0291 LP  0  0  0  0  0  0  0  0  0  0  0  0  # atno 17394 bound_to 11000
  140.8088  134.3424  157.5418 LP  0  0  0  0  0  0  0  0  0  0  0  0  # atno 17395 bound_to 11000

$$$$
