AV-unprocessed.smi:2826|AV-procd|sdf|10894|dock2
  -GOLD-   2272015343D 1   1.00000     0.00000
 Structure written by MMmdl.
 50 51  0  0  0  0  0  0  0  0  1 V2000
  151.2566  143.0422  157.4973 C   0  0  0  0  0  0  0  0  0  0  0  0
  151.6922  141.7224  157.1900 O   0  0  0  0  0  0  0  0  0  0  0  0
  150.9253  140.9635  156.3300 C   0  0  0  0  0  0  0  0  0  0  0  0
  149.6181  141.3945  156.0334 C   0  0  0  0  0  0  0  0  0  0  0  0
  148.8315  140.6254  155.1560 C   0  0  0  0  0  0  0  0  0  0  0  0
  149.3789  139.4488  154.5906 C   0  0  0  0  0  0  0  0  0  0  0  0
  148.6515  138.5979  153.7119 N   0  0  0  0  0  0  0  0  0  0  0  0
  147.3284  138.5814  153.4769 C   0  0  0  0  0  0  0  0  0  0  0  0
  146.5062  139.3409  153.9891 O   0  0  0  0  0  0  0  0  0  0  0  0
  147.0056  137.6368  152.5819 N   0  0  0  0  0  0  0  0  0  0  0  0
  145.6558  137.3711  152.0930 C   0  0  2  0  0  0  0  0  0  0  0  0
  144.6705  137.3246  153.2692 C   0  0  0  0  0  0  0  0  0  0  0  0
  143.2738  136.9043  152.7862 C   0  0  0  0  0  0  0  0  0  0  0  0
  143.3492  135.6509  152.1156 O   0  0  0  0  0  0  0  0  0  0  0  0
  144.1521  135.6874  150.9380 C   0  0  2  0  0  0  0  0  0  0  0  0
  144.0655  134.3169  150.2409 C   0  0  0  0  0  0  0  0  0  0  0  0
  144.2574  133.1013  151.1738 C   0  0  0  0  0  0  0  0  0  0  0  0
  145.7101  133.0246  151.6682 C   0  0  0  0  0  0  0  0  0  0  0  0
  143.8504  131.7754  150.5083 C   0  0  0  0  0  0  0  0  0  0  0  0
  145.6007  136.0360  151.3308 C   0  0  0  0  0  0  0  0  0  0  0  0
  150.6972  139.0919  154.9642 C   0  0  0  0  0  0  0  0  0  0  0  0
  151.3611  137.8368  154.4255 C   0  0  0  0  0  0  0  0  0  0  0  0
  151.4530  139.8300  155.8068 N   0  0  0  0  0  0  0  0  0  0  0  0
  151.9629  143.5035  158.1874 H   0  0  0  0  0  0  0  0  0  0  0  0
  150.2784  143.0375  157.9800 H   0  0  0  0  0  0  0  0  0  0  0  0
  151.2123  143.6659  156.6034 H   0  0  0  0  0  0  0  0  0  0  0  0
  149.2230  142.2972  156.4755 H   0  0  0  0  0  0  0  0  0  0  0  0
  147.8221  140.9437  154.9465 H   0  0  0  0  0  0  0  0  0  0  0  0
  149.2121  137.9791  153.1446 H   0  0  0  0  0  0  0  0  0  0  0  0
  147.7460  137.0615  152.2081 H   0  0  0  0  0  0  0  0  0  0  0  0
  145.3500  138.1773  151.4230 H   0  0  0  0  0  0  0  0  0  0  0  0
  145.0187  136.6120  154.0185 H   0  0  0  0  0  0  0  0  0  0  0  0
  144.6192  138.2967  153.7608 H   0  0  0  0  0  0  0  0  0  0  0  0
  142.5971  136.8086  153.6354 H   0  0  0  0  0  0  0  0  0  0  0  0
  142.8468  137.6587  152.1235 H   0  0  0  0  0  0  0  0  0  0  0  0
  143.7764  136.4612  150.2678 H   0  0  0  0  0  0  0  0  0  0  0  0
  143.1032  134.2287  149.7345 H   0  0  0  0  0  0  0  0  0  0  0  0
  144.8201  134.2851  149.4538 H   0  0  0  0  0  0  0  0  0  0  0  0
  143.6284  133.2409  152.0536 H   0  0  0  0  0  0  0  0  0  0  0  0
  146.4040  132.8824  150.8392 H   0  0  0  0  0  0  0  0  0  0  0  0
  145.8464  132.1951  152.3627 H   0  0  0  0  0  0  0  0  0  0  0  0
  145.9975  133.9376  152.1903 H   0  0  0  0  0  0  0  0  0  0  0  0
  144.4128  131.6043  149.5900 H   0  0  0  0  0  0  0  0  0  0  0  0
  142.7898  131.7562  150.2601 H   0  0  0  0  0  0  0  0  0  0  0  0
  144.0372  130.9313  151.1728 H   0  0  0  0  0  0  0  0  0  0  0  0
  146.2259  136.0864  150.4384 H   0  0  0  0  0  0  0  0  0  0  0  0
  146.0103  135.2392  151.9537 H   0  0  0  0  0  0  0  0  0  0  0  0
  151.3829  137.8563  153.3355 H   0  0  0  0  0  0  0  0  0  0  0  0
  150.8115  136.9510  154.7444 H   0  0  0  0  0  0  0  0  0  0  0  0
  152.3886  137.7426  154.7803 H   0  0  0  0  0  0  0  0  0  0  0  0
  1  2  1  0  0  0  0
  1 24  1  0  0  0  0
  1 25  1  0  0  0  0
  1 26  1  0  0  0  0
  2  3  1  0  0  0  0
  3 23  1  0  0  0  0
  3  4  2  0  0  0  0
  4  5  1  0  0  0  0
  4 27  1  0  0  0  0
  5  6  2  0  0  0  0
  5 28  1  0  0  0  0
  6  7  1  0  0  0  0
  6 21  1  0  0  0  0
  7  8  1  0  0  0  0
  7 29  1  0  0  0  0
  8  9  2  0  0  0  0
  8 10  1  0  0  0  0
 10 11  1  0  0  0  0
 10 30  1  0  0  0  0
 11 20  1  0  0  0  0
 11 12  1  0  0  0  0
 11 31  1  0  0  0  0
 12 13  1  0  0  0  0
 12 32  1  0  0  0  0
 12 33  1  0  0  0  0
 13 14  1  0  0  0  0
 13 34  1  0  0  0  0
 13 35  1  0  0  0  0
 14 15  1  0  0  0  0
 15 16  1  0  0  0  0
 15 20  1  0  0  0  0
 15 36  1  0  0  0  0
 16 17  1  0  0  0  0
 16 37  1  0  0  0  0
 16 38  1  0  0  0  0
 17 18  1  0  0  0  0
 17 19  1  0  0  0  0
 17 39  1  0  0  0  0
 18 40  1  0  0  0  0
 18 41  1  0  0  0  0
 18 42  1  0  0  0  0
 19 43  1  0  0  0  0
 19 44  1  0  0  0  0
 19 45  1  0  0  0  0
 20 46  1  0  0  0  0
 20 47  1  0  0  0  0
 21 22  1  0  0  0  0
 21 23  2  0  0  0  0
 22 48  1  0  0  0  0
 22 49  1  0  0  0  0
 22 50  1  0  0  0  0
M  END
> <s_m_source_file>
AV-unprocessed.smi

> <i_m_source_file_index>
2826

> <i_lp_mmshare_version>
43012

> <i_f3d_flags>
0

> <s_epik_input>
W0NIM11PYzFbY0hdW2NIXWMoYyhuMSlbQ0gzXSlbTkhdQyg9TylbTkhdW0NAQEhdMltDSDJdW0NIMl1PW0NASF0oW0NIMl0yKVtDSDJdW0NIXShbQ0gzXSlbQ0gzXQ==

> <s_epik_cmdline>
J2VwaWtfcHl0aG9uJywgJy1waCcsICc3LjAnLCAnLXRuJywgJzgnLCAnLW1hJywgJzIwMCcsICctbWV0YWxfYmluZGluZycsICctaW1hZScsICc8aW5maWxlLm1hZT4nLCAnLW9tYWUnLCAnPG91dGZpbGUubWFlPic=

> <r_lp_tautomer_probability>
1

> <r_epik_Ionization_Penalty>
0.000249977

> <r_epik_Ionization_Penalty_Charging>
0

> <r_epik_Ionization_Penalty_Neutral>
0.000249977

> <r_epik_State_Penalty>
-0

> <r_epik_Charging_Adjusted_Penalty>
0

> <i_epik_Tot_Q>
0

> <i_epik_Tot_abs_Q>
0

> <r_epik_Metal_State_Penalty>
-0

> <b_epik_Metal_Only>
0

> <s_lp_Force_Field>
OPLS_2005

> <r_lp_Energy>
13.3689

> <b_lp_Chiralities_Consistent>
1

> <s_lp_Variant>
AV-unprocessed.smi:2826-3

> <Gold.Version>
5.8.1

> <Gold.Id.Protein>
6NUR|6NUR_protein|mol2

> <Gold.PLP.Fitness>
43.3206

> <Gold.PLP.PLP>
-39.9910

> <Gold.PLP.part.hbond>
-3.7558

> <Gold.PLP.part.metal>
0.0000

> <Gold.PLP.part.buried>
-0.2834

> <Gold.PLP.part.nonpolar>
-36.9739

> <Gold.PLP.part.repulsive>
0.4918

> <Gold.PLP.ligand.clash>
0.1325

> <Gold.PLP.ligand.torsion>
0.5153

> <Gold.PLP.Chemscore.Hbond>
1.4780

> <Gold.PLP.Chemscore.CHOScore>
0.0000

> <Gold.PLP.Chemscore.Metal>
0.0000

> <Gold.Chemscore.Hbonds>
donor molecule, donor type, donor heavy atom, donor atom, acceptor molecule, acceptor atom, score
      L1  H     7    29       P1  7948  0.56
      L1  H    10    30       P1  7948  0.91

> <Gold.PLP.Chemscore.Internal.Correction>
0.0587

> <Gold.Rescore>
     Score         DG    S(hbond)    S(metal)    S(lipo)     H(rot)  DE(clash)    DE(int)     intcor
     15.30     -18.62       1.60        0.00      99.60       1.51       0.26       3.07       ----

> <Gold.Chemscore.Fitness>
15.2972

> <Gold.Chemscore.DG>
-18.6211

> <Gold.Chemscore.ZeroCoef>
-5.4800

> <Gold.Chemscore.Hbond>
1.5995

> <Gold.Chemscore.Metal>
0.0000

> <Gold.Chemscore.Lipo>
99.6015

> <Gold.Chemscore.Internal_Hbond>
0.0000

> <Gold.Chemscore.DEClash>
0.2565

> <Gold.Chemscore.DEInternal>
3.0674

> <Gold.Chemscore.Rot>
1.5057

> <Gold.Chemscore.Internal.Correction>
   9.000000E+99

> <Gold.Chemscore.Hbonds>
donor molecule, donor type, donor heavy atom, donor atom, acceptor molecule, acceptor atom, score
      L1  H     7    29       P1  7948  0.54
      L1  H    10    30       P1  7948  0.87

> <Gold.Chemscore.Hbond.Weighted>
-5.3424

> <Gold.Chemscore.Metal.Weighted>
-0.0000

> <Gold.Chemscore.Lipo.Weighted>
-11.6534

> <Gold.Chemscore.Internal_Hbond.Weighted>
0.0000

> <Gold.Chemscore.DEClash.Weighted>
0.2565

> <Gold.Chemscore.DEInternal.Weighted>
3.0674

> <Gold.Chemscore.Rot.Weighted>
3.8547

> <Gold.Chemscore.Internal.Correction.Weighted>
   9.000000E+99

> <Gold.Protein.RotatedTorsions>
[ 6907 6896 6895 6894 ] final  169.03 input  -60.11 | X-H torsion
[ 7974 7965 7964 7962 ] final -135.24 input  175.53 | X-H torsion
[ 8008 7997 7996 7995 ] final   46.11 input   59.86 | X-H torsion
[ 10167 10162 10161 10158 ] final   88.44 input  -65.29 | X-H torsion
[ 10718 10713 10712 10709 ] final -115.48 input   66.30 | X-H torsion
[ 10763 10752 10751 10750 ] final -128.09 input  -60.55 | X-H torsion
[ 11005 11000 10999 10996 ] final  -68.87 input  -57.11 | X-H torsion

> <Gold.Protein.ActiveResidues>
 VAL166  LYS551  ARG553  GLY616  TRP617  ASP618  TYR619  PRO620  LYS621  CYS622 
 ASP623  PHE694  ASN695  SER759  ASP760  ASP761  ALA762  ILE779  LEU786  VAL792 
 PHE793  MET794  SER795  GLU796  ALA797  LYS798  CYS799  TRP800  GLU811  SER814 

> <Gold.Protein.RotatedAtoms>
  151.8383  133.3419  159.3634 H   0  0  0  0  0  0  0  0  0  0  0  0  # atno 6907 bound_to 6896
  150.7243  134.5416  159.5759 H   0  0  0  0  0  0  0  0  0  0  0  0  # atno 6908 bound_to 6896
  152.2884  134.7750  160.0434 H   0  0  0  0  0  0  0  0  0  0  0  0  # atno 6909 bound_to 6896
  144.9031  140.6798  143.5072 H   0  0  0  0  0  0  0  0  0  0  0  0  # atno 7974 bound_to 7965
  155.3470  140.3411  155.4239 H   0  0  0  0  0  0  0  0  0  0  0  0  # atno 8008 bound_to 7997
  156.1783  140.1655  156.8356 H   0  0  0  0  0  0  0  0  0  0  0  0  # atno 8009 bound_to 7997
  154.5306  140.0746  156.8321 H   0  0  0  0  0  0  0  0  0  0  0  0  # atno 8010 bound_to 7997
  139.8673  144.6512  150.8989 H   0  0  0  0  0  0  0  0  0  0  0  0  # atno 10167 bound_to 10162
  156.0898  130.6083  150.8911 H   0  0  0  0  0  0  0  0  0  0  0  0  # atno 10718 bound_to 10713
  154.8755  135.3940  154.3701 H   0  0  0  0  0  0  0  0  0  0  0  0  # atno 10763 bound_to 10752
  153.4461  135.7027  153.6143 H   0  0  0  0  0  0  0  0  0  0  0  0  # atno 10764 bound_to 10752
  153.4703  135.3792  155.2356 H   0  0  0  0  0  0  0  0  0  0  0  0  # atno 10765 bound_to 10752
  141.1541  133.6751  156.6512 H   0  0  0  0  0  0  0  0  0  0  0  0  # atno 11005 bound_to 11000
  145.3581  139.1688  143.4398 LP  0  0  0  0  0  0  0  0  0  0  0  0  # atno 17320 bound_to 7965
  146.3119  140.3641  142.8667 LP  0  0  0  0  0  0  0  0  0  0  0  0  # atno 17321 bound_to 7965
  140.7766  143.3693  151.1679 LP  0  0  0  0  0  0  0  0  0  0  0  0  # atno 17342 bound_to 10162
  139.7317  143.9062  152.3021 LP  0  0  0  0  0  0  0  0  0  0  0  0  # atno 17343 bound_to 10162
  157.6044  131.0939  150.8905 LP  0  0  0  0  0  0  0  0  0  0  0  0  # atno 17370 bound_to 10713
  156.9056  130.5262  149.5281 LP  0  0  0  0  0  0  0  0  0  0  0  0  # atno 17371 bound_to 10713
  140.3319  134.7922  157.4332 LP  0  0  0  0  0  0  0  0  0  0  0  0  # atno 17394 bound_to 11000
  140.1010  134.5473  155.8353 LP  0  0  0  0  0  0  0  0  0  0  0  0  # atno 17395 bound_to 11000

$$$$
