AV-unprocessed.smi:1169|AV-procd|sdf|4940|dock8
  -GOLD-   22720 3523D 1   1.00000     0.00000
 Structure written by MMmdl.
 29 30  0  0  0  0  0  0  0  0  1 V2000
  151.7543  139.8803  155.0500 O   0  0  0  0  0  0  0  0  0  0  0  0
  151.2513  140.2442  156.1126 C   0  0  0  0  0  0  0  0  0  0  0  0
  151.7861  139.6843  157.4361 C   0  0  0  0  0  0  0  0  0  0  0  0
  151.9968  140.7188  158.4362 N   0  0  0  0  0  0  0  0  0  0  0  0
  152.5414  140.5933  159.6963 C   0  0  0  0  0  0  0  0  0  0  0  0
  152.5232  141.8313  160.2709 C   0  0  0  0  0  0  0  0  0  0  0  0
  151.9446  142.6688  159.2733 C   0  0  0  0  0  0  0  0  0  0  0  0
  151.6687  144.1478  159.3398 C   0  0  0  0  0  0  0  0  0  0  0  0
  152.3836  144.7935  158.4186 F   0  0  0  0  0  0  0  0  0  0  0  0
  150.3750  144.3797  159.1187 F   0  0  0  0  0  0  0  0  0  0  0  0
  151.9962  144.6182  160.5431 F   0  0  0  0  0  0  0  0  0  0  0  0
  151.6342  141.9931  158.1750 N   0  0  0  0  0  0  0  0  0  0  0  0
  150.2228  141.1053  156.1807 N   0  0  0  0  0  0  0  0  0  0  0  0
  149.5657  141.7217  155.0365 C   0  0  0  0  0  0  0  0  0  0  0  0
  148.0810  141.4334  154.9274 C   0  0  0  0  0  0  0  0  0  0  0  0
  147.5944  140.1005  154.4096 C   0  0  0  0  0  0  0  0  0  0  0  0
  147.4030  141.3480  153.5803 C   0  0  0  0  0  0  0  0  0  0  0  0
  151.0788  138.9529  157.8284 H   0  0  0  0  0  0  0  0  0  0  0  0
  152.7280  139.1598  157.2665 H   0  0  0  0  0  0  0  0  0  0  0  0
  152.8884  139.6437  160.0763 H   0  0  0  0  0  0  0  0  0  0  0  0
  152.8709  142.0997  161.2574 H   0  0  0  0  0  0  0  0  0  0  0  0
  149.8703  141.3505  157.0945 H   0  0  0  0  0  0  0  0  0  0  0  0
  149.7173  142.7996  155.1025 H   0  0  0  0  0  0  0  0  0  0  0  0
  150.0534  141.4024  154.1140 H   0  0  0  0  0  0  0  0  0  0  0  0
  147.4906  141.8633  155.7344 H   0  0  0  0  0  0  0  0  0  0  0  0
  148.3404  139.3835  154.0723 H   0  0  0  0  0  0  0  0  0  0  0  0
  146.7133  139.6698  154.8810 H   0  0  0  0  0  0  0  0  0  0  0  0
  146.3953  141.7507  153.5006 H   0  0  0  0  0  0  0  0  0  0  0  0
  148.0217  141.4615  152.6922 H   0  0  0  0  0  0  0  0  0  0  0  0
  1  2  2  0  0  0  0
  2  3  1  0  0  0  0
  2 13  1  0  0  0  0
  3  4  1  0  0  0  0
  3 18  1  0  0  0  0
  3 19  1  0  0  0  0
  4 12  1  0  0  0  0
  4  5  1  0  0  0  0
  5  6  2  0  0  0  0
  5 20  1  0  0  0  0
  6  7  1  0  0  0  0
  6 21  1  0  0  0  0
  7  8  1  0  0  0  0
  7 12  2  0  0  0  0
  8  9  1  0  0  0  0
  8 10  1  0  0  0  0
  8 11  1  0  0  0  0
 13 14  1  0  0  0  0
 13 22  1  0  0  0  0
 14 15  1  0  0  0  0
 14 23  1  0  0  0  0
 14 24  1  0  0  0  0
 15 17  1  0  0  0  0
 15 16  1  0  0  0  0
 15 25  1  0  0  0  0
 16 17  1  0  0  0  0
 16 26  1  0  0  0  0
 16 27  1  0  0  0  0
 17 28  1  0  0  0  0
 17 29  1  0  0  0  0
M  END
> <s_m_source_file>
AV-unprocessed.smi

> <i_m_source_file_index>
1169

> <i_lp_mmshare_version>
43012

> <i_f3d_flags>
0

> <s_epik_input>
W0NIMl0xW0NIMl1bQ0hdMVtDSDJdW05IXUMoPU8pW0NIMl1uMltjSF1bY0hdYyhuMilDKEYpKEYpRg==

> <s_epik_cmdline>
J2VwaWtfcHl0aG9uJywgJy1waCcsICc3LjAnLCAnLXRuJywgJzgnLCAnLW1hJywgJzIwMCcsICctbWV0YWxfYmluZGluZycsICctaW1hZScsICc8aW5maWxlLm1hZT4nLCAnLW9tYWUnLCAnPG91dGZpbGUubWFlPic=

> <r_lp_tautomer_probability>
1

> <r_epik_Ionization_Penalty>
8.05593e-08

> <r_epik_Ionization_Penalty_Charging>
0

> <r_epik_Ionization_Penalty_Neutral>
8.05593e-08

> <r_epik_State_Penalty>
-0

> <r_epik_Charging_Adjusted_Penalty>
0

> <i_epik_Tot_Q>
0

> <i_epik_Tot_abs_Q>
0

> <r_epik_Metal_State_Penalty>
-0

> <b_epik_Metal_Only>
0

> <s_lp_Force_Field>
OPLS_2005

> <r_lp_Energy>
14.9907

> <b_lp_Chiralities_Consistent>
1

> <s_lp_Variant>
AV-unprocessed.smi:1169-1

> <Gold.Version>
5.8.1

> <Gold.Id.Protein>
6NUR|6NUR_protein|mol2

> <Gold.PLP.Fitness>
43.6737

> <Gold.PLP.PLP>
-41.1006

> <Gold.PLP.part.hbond>
-1.0000

> <Gold.PLP.part.metal>
0.0000

> <Gold.PLP.part.buried>
-5.5869

> <Gold.PLP.part.nonpolar>
-34.3320

> <Gold.PLP.part.repulsive>
0.1511

> <Gold.PLP.ligand.clash>
0.0000

> <Gold.PLP.ligand.torsion>
0.4722

> <Gold.PLP.Chemscore.Hbond>
0.9920

> <Gold.PLP.Chemscore.CHOScore>
0.0000

> <Gold.PLP.Chemscore.Metal>
0.0000

> <Gold.Chemscore.Hbonds>
donor molecule, donor type, donor heavy atom, donor atom, acceptor molecule, acceptor atom, score
      P1  H  7989  7998       L1     1  1.00

> <Gold.PLP.Chemscore.Internal.Correction>
0.5416

> <Gold.Rescore>
     Score         DG    S(hbond)    S(metal)    S(lipo)     H(rot)  DE(clash)    DE(int)     intcor
     11.87     -12.42       0.95        0.00      72.32       1.84       0.02       0.53       ----

> <Gold.Chemscore.Fitness>
11.8740

> <Gold.Chemscore.DG>
-12.4202

> <Gold.Chemscore.ZeroCoef>
-5.4800

> <Gold.Chemscore.Hbond>
0.9516

> <Gold.Chemscore.Metal>
0.0000

> <Gold.Chemscore.Lipo>
72.3246

> <Gold.Chemscore.Internal_Hbond>
0.0000

> <Gold.Chemscore.DEClash>
0.0201

> <Gold.Chemscore.DEInternal>
0.5261

> <Gold.Chemscore.Rot>
1.8359

> <Gold.Chemscore.Internal.Correction>
   9.000000E+99

> <Gold.Chemscore.Hbonds>
donor molecule, donor type, donor heavy atom, donor atom, acceptor molecule, acceptor atom, score
      P1  H  7989  7998       L1     1  0.94

> <Gold.Chemscore.Hbond.Weighted>
-3.1782

> <Gold.Chemscore.Metal.Weighted>
-0.0000

> <Gold.Chemscore.Lipo.Weighted>
-8.4620

> <Gold.Chemscore.Internal_Hbond.Weighted>
0.0000

> <Gold.Chemscore.DEClash.Weighted>
0.0201

> <Gold.Chemscore.DEInternal.Weighted>
0.5261

> <Gold.Chemscore.Rot.Weighted>
4.7000

> <Gold.Chemscore.Internal.Correction.Weighted>
   9.000000E+99

> <Gold.Protein.RotatedTorsions>
[ 6907 6896 6895 6894 ] final   17.56 input  -60.11 | X-H torsion
[ 7974 7965 7964 7962 ] final  148.02 input  175.53 | X-H torsion
[ 8008 7997 7996 7995 ] final   74.13 input   59.86 | X-H torsion
[ 10167 10162 10161 10158 ] final   45.08 input  -65.29 | X-H torsion
[ 10718 10713 10712 10709 ] final -146.84 input   66.30 | X-H torsion
[ 10763 10752 10751 10750 ] final  -24.72 input  -60.55 | X-H torsion
[ 11005 11000 10999 10996 ] final  117.97 input  -57.11 | X-H torsion

> <Gold.Protein.ActiveResidues>
 VAL166  LYS551  ARG553  GLY616  TRP617  ASP618  TYR619  PRO620  LYS621  CYS622 
 ASP623  PHE694  ASN695  SER759  ASP760  ASP761  ALA762  ILE779  LEU786  VAL792 
 PHE793  MET794  SER795  GLU796  ALA797  LYS798  CYS799  TRP800  GLU811  SER814 

> <Gold.Protein.RotatedAtoms>
  151.8516  135.0555  160.0459 H   0  0  0  0  0  0  0  0  0  0  0  0  # atno 6907 bound_to 6896
  152.2732  133.5397  159.5460 H   0  0  0  0  0  0  0  0  0  0  0  0  # atno 6908 bound_to 6896
  150.7160  134.0585  159.3865 H   0  0  0  0  0  0  0  0  0  0  0  0  # atno 6909 bound_to 6896
  144.8546  139.6101  143.5958 H   0  0  0  0  0  0  0  0  0  0  0  0  # atno 7974 bound_to 7965
  155.7938  140.3478  155.5364 H   0  0  0  0  0  0  0  0  0  0  0  0  # atno 8008 bound_to 7997
  155.8607  140.0971  157.1636 H   0  0  0  0  0  0  0  0  0  0  0  0  # atno 8009 bound_to 7997
  154.4012  140.1359  156.3944 H   0  0  0  0  0  0  0  0  0  0  0  0  # atno 8010 bound_to 7997
  140.3278  144.2626  150.6172 H   0  0  0  0  0  0  0  0  0  0  0  0  # atno 10167 bound_to 10162
  156.4000  130.7929  151.2139 H   0  0  0  0  0  0  0  0  0  0  0  0  # atno 10718 bound_to 10713
  153.6884  135.6963  153.5097 H   0  0  0  0  0  0  0  0  0  0  0  0  # atno 10763 bound_to 10752
  153.2432  135.4299  155.0719 H   0  0  0  0  0  0  0  0  0  0  0  0  # atno 10764 bound_to 10752
  154.8380  135.3513  154.6426 H   0  0  0  0  0  0  0  0  0  0  0  0  # atno 10765 bound_to 10752
  139.9093  134.9616  156.7432 H   0  0  0  0  0  0  0  0  0  0  0  0  # atno 11005 bound_to 11000
  146.2813  139.6884  142.9227 LP  0  0  0  0  0  0  0  0  0  0  0  0  # atno 17320 bound_to 7965
  145.4431  141.0423  143.2846 LP  0  0  0  0  0  0  0  0  0  0  0  0  # atno 17321 bound_to 7965
  140.5425  143.2221  151.8062 LP  0  0  0  0  0  0  0  0  0  0  0  0  # atno 17342 bound_to 10162
  139.4862  144.4582  151.9573 LP  0  0  0  0  0  0  0  0  0  0  0  0  # atno 17343 bound_to 10162
  157.7503  131.0289  150.4072 LP  0  0  0  0  0  0  0  0  0  0  0  0  # atno 17370 bound_to 10713
  156.4349  130.3979  149.6735 LP  0  0  0  0  0  0  0  0  0  0  0  0  # atno 17371 bound_to 10713
  140.6832  133.9455  155.7923 LP  0  0  0  0  0  0  0  0  0  0  0  0  # atno 17394 bound_to 11000
  141.0495  134.0506  157.3802 LP  0  0  0  0  0  0  0  0  0  0  0  0  # atno 17395 bound_to 11000

$$$$
