AV-unprocessed.smi:49|AV-procd|sdf|467|dock6
  -GOLD-   2262016333D 1   1.00000     0.00000
 Structure written by MMmdl.
 28 29  0  0  0  0  0  0  0  0  2 V2000
  152.3734  139.5335  154.8917 C   0  0  0  0  0  0  0  0  0  0  0  0
  152.5859  140.0622  156.3147 C   0  0  0  0  0  0  0  0  0  0  0  0
  152.0145  141.4287  156.5009 C   0  0  0  0  0  0  0  0  0  0  0  0
  152.2702  142.1930  157.6054 N   0  0  0  0  0  0  0  0  0  0  0  0
  151.5243  143.2619  157.3332 C   0  0  0  0  0  0  0  0  0  0  0  0
  151.3992  144.4896  158.1849 C   0  0  2  0  0  0  0  0  0  0  0  0
  152.2459  144.4832  159.4582 C   0  0  0  0  0  0  0  0  0  0  0  0
  151.4104  145.3133  160.4315 C   0  0  1  0  0  0  0  0  0  0  0  0
  151.6945  146.6882  160.2646 O   0  0  0  0  0  0  0  0  0  0  0  0
  149.9570  145.0279  160.0196 C   0  0  0  0  0  0  0  0  0  0  0  0
  149.9937  144.5150  158.6342 N   0  3  0  0  0  0  0  0  0  0  0  0
  150.8767  143.1439  156.1716 N   0  0  0  0  0  0  0  0  0  0  0  0
  151.1692  141.9504  155.6138 N   0  0  0  0  0  0  0  0  0  0  0  0
  151.5963  145.3874  157.5968 H   0  0  0  0  0  0  0  0  0  0  0  0
  151.6007  145.0423  161.4706 H   0  0  0  0  0  0  0  0  0  0  0  0
  150.2522  143.8124  155.7431 H   0  0  0  0  0  0  0  0  0  0  0  0
  152.7982  138.5355  154.7808 H   0  0  0  0  0  0  0  0  0  0  0  0
  152.8500  140.1819  154.1557 H   0  0  0  0  0  0  0  0  0  0  0  0
  151.3121  139.4726  154.6485 H   0  0  0  0  0  0  0  0  0  0  0  0
  152.1266  139.3833  157.0341 H   0  0  0  0  0  0  0  0  0  0  0  0
  153.6515  140.0833  156.5464 H   0  0  0  0  0  0  0  0  0  0  0  0
  152.3225  143.4666  159.8478 H   0  0  0  0  0  0  0  0  0  0  0  0
  153.2601  144.8548  159.3060 H   0  0  0  0  0  0  0  0  0  0  0  0
  152.5798  146.7785  159.9444 H   0  0  0  0  0  0  0  0  0  0  0  0
  149.5323  144.2479  160.6524 H   0  0  0  0  0  0  0  0  0  0  0  0
  149.3130  145.9047  160.1021 H   0  0  0  0  0  0  0  0  0  0  0  0
  149.4363  145.0878  158.0172 H   0  0  0  0  0  0  0  0  0  0  0  0
  149.6400  143.5684  158.6329 H   0  0  0  0  0  0  0  0  0  0  0  0
  1  2  1  0  0  0  0
  1 17  1  0  0  0  0
  1 18  1  0  0  0  0
  1 19  1  0  0  0  0
  2 20  1  0  0  0  0
  2 21  1  0  0  0  0
  2  3  1  0  0  0  0
  3  4  1  0  0  0  0
  3 13  2  0  0  0  0
  4  5  2  0  0  0  0
  5  6  1  0  0  0  0
  5 12  1  0  0  0  0
  6 14  1  0  0  0  0
  6 11  1  0  0  0  0
  6  7  1  0  0  0  0
  7  8  1  0  0  0  0
  7 22  1  0  0  0  0
  7 23  1  0  0  0  0
  8 15  1  0  0  0  0
  8  9  1  0  0  0  0
  8 10  1  0  0  0  0
  9 24  1  0  0  0  0
 10 11  1  0  0  0  0
 10 25  1  0  0  0  0
 10 26  1  0  0  0  0
 11 27  1  0  0  0  0
 11 28  1  0  0  0  0
 12 13  1  0  0  0  0
 12 16  1  0  0  0  0
M  CHG  1  11   1
M  END
> <s_m_source_file>
AV-unprocessed.smi

> <i_m_source_file_index>
49

> <i_lp_mmshare_version>
43012

> <i_f3d_flags>
0

> <s_epik_input>
W0NIM11bQ0gyXWMxbmMobltuSF0xKVtDQEBIXTJbQ0gyXVtDQEBIXShbT0hdKVtDSDJdW05IXTI=

> <s_epik_cmdline>
J2VwaWtfcHl0aG9uJywgJy1waCcsICc3LjAnLCAnLXRuJywgJzgnLCAnLW1hJywgJzIwMCcsICctbWV0YWxfYmluZGluZycsICctaW1hZScsICc8aW5maWxlLm1hZT4nLCAnLW9tYWUnLCAnPG91dGZpbGUubWFlPic=

> <r_epik_Ionization_Penalty>
0.372103

> <r_epik_Ionization_Penalty_Charging>
0.0688988

> <r_epik_Ionization_Penalty_Neutral>
0.303204

> <r_epik_State_Penalty>
0.737493

> <r_epik_Charging_Adjusted_Penalty>
0.806392

> <i_epik_Tot_Q>
1

> <i_epik_Tot_abs_Q>
1

> <r_epik_Metal_State_Penalty>
1.01235

> <b_epik_Metal_Only>
0

> <s_lp_Force_Field>
OPLS_2005

> <r_lp_Energy>
18.9462

> <b_lp_Chiralities_Consistent>
1

> <s_lp_Variant>
AV-unprocessed.smi:49-5

> <Gold.Version>
5.8.1

> <Gold.Id.Protein>
6NUR|6NUR_protein|mol2

> <Gold.PLP.Fitness>
38.2216

> <Gold.PLP.PLP>
-29.5574

> <Gold.PLP.part.hbond>
-5.6831

> <Gold.PLP.part.metal>
0.0000

> <Gold.PLP.part.buried>
-2.2751

> <Gold.PLP.part.nonpolar>
-21.7711

> <Gold.PLP.part.repulsive>
0.3411

> <Gold.PLP.ligand.clash>
0.0000

> <Gold.PLP.ligand.torsion>
0.1777

> <Gold.PLP.Chemscore.Hbond>
3.0000

> <Gold.PLP.Chemscore.CHOScore>
0.0000

> <Gold.PLP.Chemscore.Metal>
0.0000

> <Gold.Chemscore.Hbonds>
donor molecule, donor type, donor heavy atom, donor atom, acceptor molecule, acceptor atom, score
      L1  H    11    27       P1  8029  1.90
      L1  H    12    16       P1  8028  1.00
      P1  H  7989  7998       L1    13  0.03

> <Gold.PLP.Chemscore.Internal.Correction>
0.0196

> <Gold.Rescore>
     Score         DG    S(hbond)    S(metal)    S(lipo)     H(rot)  DE(clash)    DE(int)     intcor
     10.61     -12.33       1.49        0.00      57.28       1.89       1.59       0.13       ----

> <Gold.Chemscore.Fitness>
10.6139

> <Gold.Chemscore.DG>
-12.3340

> <Gold.Chemscore.ZeroCoef>
-5.4800

> <Gold.Chemscore.Hbond>
1.4928

> <Gold.Chemscore.Metal>
0.0000

> <Gold.Chemscore.Lipo>
57.2833

> <Gold.Chemscore.Internal_Hbond>
0.0000

> <Gold.Chemscore.DEClash>
1.5883

> <Gold.Chemscore.DEInternal>
0.1317

> <Gold.Chemscore.Rot>
1.8883

> <Gold.Chemscore.Internal.Correction>
   9.000000E+99

> <Gold.Chemscore.Hbonds>
donor molecule, donor type, donor heavy atom, donor atom, acceptor molecule, acceptor atom, score
      L1  H    11    27       P1  8029  0.21
      L1  H    12    16       P1  8028  0.97
      P1  H  7989  7998       L1    13  0.02

> <Gold.Chemscore.Hbond.Weighted>
-4.9858

> <Gold.Chemscore.Metal.Weighted>
-0.0000

> <Gold.Chemscore.Lipo.Weighted>
-6.7022

> <Gold.Chemscore.Internal_Hbond.Weighted>
0.0000

> <Gold.Chemscore.DEClash.Weighted>
1.5883

> <Gold.Chemscore.DEInternal.Weighted>
0.1317

> <Gold.Chemscore.Rot.Weighted>
4.8340

> <Gold.Chemscore.Internal.Correction.Weighted>
   9.000000E+99

> <Gold.Protein.RotatedTorsions>
[ 6907 6896 6895 6894 ] final  102.14 input  -60.11 | X-H torsion
[ 7974 7965 7964 7962 ] final  129.54 input  175.53 | X-H torsion
[ 8008 7997 7996 7995 ] final  108.98 input   59.86 | X-H torsion
[ 10167 10162 10161 10158 ] final -113.58 input  -65.29 | X-H torsion
[ 10718 10713 10712 10709 ] final   73.31 input   66.30 | X-H torsion
[ 10763 10752 10751 10750 ] final -147.95 input  -60.55 | X-H torsion
[ 11005 11000 10999 10996 ] final  -35.81 input  -57.11 | X-H torsion

> <Gold.Protein.ActiveResidues>
 VAL166  LYS551  ARG553  GLY616  TRP617  ASP618  TYR619  PRO620  LYS621  CYS622 
 ASP623  PHE694  ASN695  SER759  ASP760  ASP761  ALA762  ILE779  LEU786  VAL792 
 PHE793  MET794  SER795  GLU796  ALA797  LYS798  CYS799  TRP800  GLU811  SER814 

> <Gold.Protein.RotatedAtoms>
  152.5331  134.0020  159.7898 H   0  0  0  0  0  0  0  0  0  0  0  0  # atno 6907 bound_to 6896
  151.0237  133.5845  159.2675 H   0  0  0  0  0  0  0  0  0  0  0  0  # atno 6908 bound_to 6896
  151.2875  135.0739  159.9245 H   0  0  0  0  0  0  0  0  0  0  0  0  # atno 6909 bound_to 6896
  145.0276  139.4075  143.5166 H   0  0  0  0  0  0  0  0  0  0  0  0  # atno 7974 bound_to 7965
  156.1945  140.3066  155.9399 H   0  0  0  0  0  0  0  0  0  0  0  0  # atno 8008 bound_to 7997
  155.3098  140.0450  157.3051 H   0  0  0  0  0  0  0  0  0  0  0  0  # atno 8009 bound_to 7997
  154.5492  140.2286  155.8522 H   0  0  0  0  0  0  0  0  0  0  0  0  # atno 8010 bound_to 7997
  140.1103  143.4533  152.1756 H   0  0  0  0  0  0  0  0  0  0  0  0  # atno 10167 bound_to 10162
  157.6541  130.9622  150.1051 H   0  0  0  0  0  0  0  0  0  0  0  0  # atno 10718 bound_to 10713
  154.8259  135.3347  154.6899 H   0  0  0  0  0  0  0  0  0  0  0  0  # atno 10763 bound_to 10752
  153.7525  135.6938  153.4947 H   0  0  0  0  0  0  0  0  0  0  0  0  # atno 10764 bound_to 10752
  153.2167  135.4463  155.0392 H   0  0  0  0  0  0  0  0  0  0  0  0  # atno 10765 bound_to 10752
  140.9826  133.7048  156.1710 H   0  0  0  0  0  0  0  0  0  0  0  0  # atno 11005 bound_to 11000
  146.3494  139.9808  142.8696 LP  0  0  0  0  0  0  0  0  0  0  0  0  # atno 17320 bound_to 7965
  145.1813  140.9768  143.4265 LP  0  0  0  0  0  0  0  0  0  0  0  0  # atno 17321 bound_to 7965
  139.5623  144.7413  151.4121 LP  0  0  0  0  0  0  0  0  0  0  0  0  # atno 17342 bound_to 10162
  140.6929  143.7818  150.7282 LP  0  0  0  0  0  0  0  0  0  0  0  0  # atno 17343 bound_to 10162
  156.1963  130.3657  149.8845 LP  0  0  0  0  0  0  0  0  0  0  0  0  # atno 17370 bound_to 10713
  156.6761  130.8839  151.3569 LP  0  0  0  0  0  0  0  0  0  0  0  0  # atno 17371 bound_to 10713
  140.7164  134.4406  157.5578 LP  0  0  0  0  0  0  0  0  0  0  0  0  # atno 17394 bound_to 11000
  139.8956  134.8678  156.2122 LP  0  0  0  0  0  0  0  0  0  0  0  0  # atno 17395 bound_to 11000

$$$$
