AV-unprocessed.smi:480|AV-procd|sdf|2677|dock5
  -GOLD-   2262023103D 1   1.00000     0.00000
 Structure written by MMmdl.
 46 48  0  0  0  0  0  0  0  0  1 V2000
  152.6832  138.4944  154.8974 C   0  0  0  0  0  0  0  0  0  0  0  0
  151.7286  138.3948  156.0926 C   0  0  0  0  0  0  0  0  0  0  0  0
  151.8058  139.5903  156.9939 C   0  0  0  0  0  0  0  0  0  0  0  0
  152.8549  139.7969  157.7909 N   0  0  0  0  0  0  0  0  0  0  0  0
  152.5355  140.9876  158.4134 C   0  0  0  0  0  0  0  0  0  0  0  0
  153.2431  141.7384  159.3795 C   0  0  0  0  0  0  0  0  0  0  0  0
  152.7112  142.9475  159.8736 C   0  0  0  0  0  0  0  0  0  0  0  0
  151.4674  143.4225  159.4097 C   0  0  0  0  0  0  0  0  0  0  0  0
  150.7460  142.6896  158.4477 C   0  0  0  0  0  0  0  0  0  0  0  0
  151.2808  141.4826  157.9588 C   0  0  0  0  0  0  0  0  0  0  0  0
  150.8393  140.5435  157.0324 N   0  0  0  0  0  0  0  0  0  0  0  0
  149.5961  140.6159  156.2755 C   0  0  0  0  0  0  0  0  0  0  0  0
  149.7849  141.2107  154.8647 C   0  0  1  0  0  0  0  0  0  0  0  0
  150.3139  140.1860  154.0490 O   0  0  0  0  0  0  0  0  0  0  0  0
  148.4835  141.7194  154.2191 C   0  0  0  0  0  0  0  0  0  0  0  0
  147.4755  141.7833  155.2188 O   0  0  0  0  0  0  0  0  0  0  0  0
  146.5144  142.7658  155.1147 C   0  0  0  0  0  0  0  0  0  0  0  0
  146.2357  143.2526  153.8210 C   0  0  0  0  0  0  0  0  0  0  0  0
  145.2659  144.2531  153.6198 C   0  0  0  0  0  0  0  0  0  0  0  0
  144.5604  144.7832  154.7173 C   0  0  0  0  0  0  0  0  0  0  0  0
  143.5125  145.8548  154.5004 C   0  0  0  0  0  0  0  0  0  0  0  0
  143.8442  147.0996  155.2099 C   0  0  0  0  0  0  0  0  0  0  0  0
  144.1052  148.0791  155.7677 N   0  0  0  0  0  0  0  0  0  0  0  0
  144.8321  144.3073  156.0150 C   0  0  0  0  0  0  0  0  0  0  0  0
  145.8021  143.3058  156.2154 C   0  0  0  0  0  0  0  0  0  0  0  0
  152.6113  137.6076  154.2676 H   0  0  0  0  0  0  0  0  0  0  0  0
  153.7183  138.5852  155.2284 H   0  0  0  0  0  0  0  0  0  0  0  0
  152.4526  139.3618  154.2786 H   0  0  0  0  0  0  0  0  0  0  0  0
  150.7042  138.2485  155.7516 H   0  0  0  0  0  0  0  0  0  0  0  0
  151.9745  137.5064  156.6755 H   0  0  0  0  0  0  0  0  0  0  0  0
  154.1973  141.3839  159.7403 H   0  0  0  0  0  0  0  0  0  0  0  0
  153.2610  143.5137  160.6111 H   0  0  0  0  0  0  0  0  0  0  0  0
  151.0675  144.3502  159.7920 H   0  0  0  0  0  0  0  0  0  0  0  0
  149.7935  143.0507  158.0898 H   0  0  0  0  0  0  0  0  0  0  0  0
  149.1966  139.6037  156.1982 H   0  0  0  0  0  0  0  0  0  0  0  0
  148.8543  141.1838  156.8360 H   0  0  0  0  0  0  0  0  0  0  0  0
  150.5089  142.0250  154.9158 H   0  0  0  0  0  0  0  0  0  0  0  0
  149.7754  140.1133  153.2755 H   0  0  0  0  0  0  0  0  0  0  0  0
  148.6433  142.6883  153.7423 H   0  0  0  0  0  0  0  0  0  0  0  0
  148.1479  141.0205  153.4527 H   0  0  0  0  0  0  0  0  0  0  0  0
  146.7698  142.8517  152.9721 H   0  0  0  0  0  0  0  0  0  0  0  0
  145.0625  144.6107  152.6211 H   0  0  0  0  0  0  0  0  0  0  0  0
  143.4135  146.0787  153.4379 H   0  0  0  0  0  0  0  0  0  0  0  0
  142.5428  145.5036  154.8535 H   0  0  0  0  0  0  0  0  0  0  0  0
  144.2948  144.7078  156.8621 H   0  0  0  0  0  0  0  0  0  0  0  0
  145.9805  142.9686  157.2252 H   0  0  0  0  0  0  0  0  0  0  0  0
  1  2  1  0  0  0  0
  1 26  1  0  0  0  0
  1 27  1  0  0  0  0
  1 28  1  0  0  0  0
  2  3  1  0  0  0  0
  2 29  1  0  0  0  0
  2 30  1  0  0  0  0
  3 11  1  0  0  0  0
  3  4  2  0  0  0  0
  4  5  1  0  0  0  0
  5 10  2  0  0  0  0
  5  6  1  0  0  0  0
  6  7  2  0  0  0  0
  6 31  1  0  0  0  0
  7  8  1  0  0  0  0
  7 32  1  0  0  0  0
  8  9  2  0  0  0  0
  8 33  1  0  0  0  0
  9 10  1  0  0  0  0
  9 34  1  0  0  0  0
 10 11  1  0  0  0  0
 11 12  1  0  0  0  0
 12 13  1  0  0  0  0
 12 35  1  0  0  0  0
 12 36  1  0  0  0  0
 13 14  1  0  0  0  0
 13 15  1  0  0  0  0
 13 37  1  0  0  0  0
 14 38  1  0  0  0  0
 15 16  1  0  0  0  0
 15 39  1  0  0  0  0
 15 40  1  0  0  0  0
 16 17  1  0  0  0  0
 17 25  1  0  0  0  0
 17 18  2  0  0  0  0
 18 19  1  0  0  0  0
 18 41  1  0  0  0  0
 19 20  2  0  0  0  0
 19 42  1  0  0  0  0
 20 21  1  0  0  0  0
 20 24  1  0  0  0  0
 21 22  1  0  0  0  0
 21 43  1  0  0  0  0
 21 44  1  0  0  0  0
 22 23  3  0  0  0  0
 24 25  2  0  0  0  0
 24 45  1  0  0  0  0
 25 46  1  0  0  0  0
M  END
> <s_m_source_file>
AV-unprocessed.smi

> <i_m_source_file_index>
480

> <i_lp_mmshare_version>
43012

> <i_f3d_flags>
0

> <s_epik_input>
W2NIXTFbY0hdW2NIXVtjSF1jKGMxMiluKGMobjIpW0NIMl1bQ0gzXSlbQ0gyXVtDQEhdKFtPSF0pW0NIMl1PYzNbY0hdW2NIXWMoW0NIMl1DI04pW2NIXVtjSF0z

> <s_epik_cmdline>
J2VwaWtfcHl0aG9uJywgJy1waCcsICc3LjAnLCAnLXRuJywgJzgnLCAnLW1hJywgJzIwMCcsICctbWV0YWxfYmluZGluZycsICctaW1hZScsICc8aW5maWxlLm1hZT4nLCAnLW9tYWUnLCAnPG91dGZpbGUubWFlPic=

> <r_lp_tautomer_probability>
1

> <r_epik_Ionization_Penalty>
0.114213

> <r_epik_Ionization_Penalty_Charging>
0

> <r_epik_Ionization_Penalty_Neutral>
0.114213

> <r_epik_State_Penalty>
0.103875

> <r_epik_Charging_Adjusted_Penalty>
0.103875

> <i_epik_Tot_Q>
0

> <i_epik_Tot_abs_Q>
0

> <r_epik_Metal_State_Penalty>
0.000113526

> <b_epik_Metal_Only>
0

> <s_lp_Force_Field>
OPLS_2005

> <r_lp_Energy>
15.7981

> <b_lp_Chiralities_Consistent>
1

> <s_lp_Variant>
AV-unprocessed.smi:480-2

> <Gold.Version>
5.8.1

> <Gold.Id.Protein>
6NUR|6NUR_protein|mol2

> <Gold.PLP.Fitness>
57.2558

> <Gold.PLP.PLP>
-52.8173

> <Gold.PLP.part.hbond>
-3.7944

> <Gold.PLP.part.metal>
0.0000

> <Gold.PLP.part.buried>
-4.3333

> <Gold.PLP.part.nonpolar>
-44.3091

> <Gold.PLP.part.repulsive>
0.1460

> <Gold.PLP.ligand.clash>
0.0029

> <Gold.PLP.ligand.torsion>
1.8962

> <Gold.PLP.Chemscore.Hbond>
2.6988

> <Gold.PLP.Chemscore.CHOScore>
0.0000

> <Gold.PLP.Chemscore.Metal>
0.0000

> <Gold.Chemscore.Hbonds>
donor molecule, donor type, donor heavy atom, donor atom, acceptor molecule, acceptor atom, score
      L1  H    14    38       P1  7957  0.76
      P1  H  7989  7998       L1    14  0.98
      P1  H  7997  8010       L1     4  1.00

> <Gold.PLP.Chemscore.Internal.Correction>
0.1377

> <Gold.Rescore>
     Score         DG    S(hbond)    S(metal)    S(lipo)     H(rot)  DE(clash)    DE(int)     intcor
     18.84     -20.97       2.12        0.00     128.32       2.58       0.32       1.81       ----

> <Gold.Chemscore.Fitness>
18.8378

> <Gold.Chemscore.DG>
-20.9651

> <Gold.Chemscore.ZeroCoef>
-5.4800

> <Gold.Chemscore.Hbond>
2.1157

> <Gold.Chemscore.Metal>
0.0000

> <Gold.Chemscore.Lipo>
128.3168

> <Gold.Chemscore.Internal_Hbond>
0.0000

> <Gold.Chemscore.DEClash>
0.3202

> <Gold.Chemscore.DEInternal>
1.8070

> <Gold.Chemscore.Rot>
2.5759

> <Gold.Chemscore.Internal.Correction>
   9.000000E+99

> <Gold.Chemscore.Hbonds>
donor molecule, donor type, donor heavy atom, donor atom, acceptor molecule, acceptor atom, score
      L1  H    14    38       P1  7957  0.72
      P1  H  7989  7998       L1    14  0.11
      P1  H  7997  8010       L1     4  0.48

> <Gold.Chemscore.Hbond.Weighted>
-7.0663

> <Gold.Chemscore.Metal.Weighted>
-0.0000

> <Gold.Chemscore.Lipo.Weighted>
-15.0131

> <Gold.Chemscore.Internal_Hbond.Weighted>
0.0000

> <Gold.Chemscore.DEClash.Weighted>
0.3202

> <Gold.Chemscore.DEInternal.Weighted>
1.8070

> <Gold.Chemscore.Rot.Weighted>
6.5943

> <Gold.Chemscore.Internal.Correction.Weighted>
   9.000000E+99

> <Gold.Protein.RotatedTorsions>
[ 6907 6896 6895 6894 ] final  175.00 input  -60.11 | X-H torsion
[ 7974 7965 7964 7962 ] final -115.79 input  175.53 | X-H torsion
[ 8008 7997 7996 7995 ] final   55.27 input   59.86 | X-H torsion
[ 10167 10162 10161 10158 ] final -115.31 input  -65.29 | X-H torsion
[ 10718 10713 10712 10709 ] final  153.95 input   66.30 | X-H torsion
[ 10763 10752 10751 10750 ] final  178.88 input  -60.55 | X-H torsion
[ 11005 11000 10999 10996 ] final  -33.19 input  -57.11 | X-H torsion

> <Gold.Protein.ActiveResidues>
 VAL166  LYS551  ARG553  GLY616  TRP617  ASP618  TYR619  PRO620  LYS621  CYS622 
 ASP623  PHE694  ASN695  SER759  ASP760  ASP761  ALA762  ILE779  LEU786  VAL792 
 PHE793  MET794  SER795  GLU796  ALA797  LYS798  CYS799  TRP800  GLU811  SER814 

> <Gold.Protein.RotatedAtoms>
  151.7432  133.3323  159.3371 H   0  0  0  0  0  0  0  0  0  0  0  0  # atno 6907 bound_to 6896
  150.7565  134.6259  159.6170 H   0  0  0  0  0  0  0  0  0  0  0  0  # atno 6908 bound_to 6896
  152.3517  134.6999  160.0286 H   0  0  0  0  0  0  0  0  0  0  0  0  # atno 6909 bound_to 6896
  145.1043  140.8572  143.3907 H   0  0  0  0  0  0  0  0  0  0  0  0  # atno 7974 bound_to 7965
  155.4984  140.3473  155.4367 H   0  0  0  0  0  0  0  0  0  0  0  0  # atno 8008 bound_to 7997
  156.0930  140.1415  156.9595 H   0  0  0  0  0  0  0  0  0  0  0  0  # atno 8009 bound_to 7997
  154.4646  140.0922  156.6964 H   0  0  0  0  0  0  0  0  0  0  0  0  # atno 8010 bound_to 7997
  140.0914  143.4696  152.1867 H   0  0  0  0  0  0  0  0  0  0  0  0  # atno 10167 bound_to 10162
  157.2381  131.0753  151.1810 H   0  0  0  0  0  0  0  0  0  0  0  0  # atno 10718 bound_to 10713
  154.5135  135.2790  155.1323 H   0  0  0  0  0  0  0  0  0  0  0  0  # atno 10763 bound_to 10752
  154.2909  135.6267  153.5388 H   0  0  0  0  0  0  0  0  0  0  0  0  # atno 10764 bound_to 10752
  152.9923  135.5674  154.5606 H   0  0  0  0  0  0  0  0  0  0  0  0  # atno 10765 bound_to 10752
  140.9615  133.7162  156.1376 H   0  0  0  0  0  0  0  0  0  0  0  0  # atno 11005 bound_to 11000
  145.0919  139.2884  143.5730 LP  0  0  0  0  0  0  0  0  0  0  0  0  # atno 17320 bound_to 7965
  146.3529  140.0459  142.8639 LP  0  0  0  0  0  0  0  0  0  0  0  0  # atno 17321 bound_to 7965
  139.5722  144.7469  151.3859 LP  0  0  0  0  0  0  0  0  0  0  0  0  # atno 17342 bound_to 10162
  140.7026  143.7593  150.7428 LP  0  0  0  0  0  0  0  0  0  0  0  0  # atno 17343 bound_to 10162
  157.3408  130.7032  149.6380 LP  0  0  0  0  0  0  0  0  0  0  0  0  # atno 17370 bound_to 10713
  155.9671  130.4280  150.4770 LP  0  0  0  0  0  0  0  0  0  0  0  0  # atno 17371 bound_to 10713
  140.7461  134.4096  157.5548 LP  0  0  0  0  0  0  0  0  0  0  0  0  # atno 17394 bound_to 11000
  139.8879  134.8869  156.2500 LP  0  0  0  0  0  0  0  0  0  0  0  0  # atno 17395 bound_to 11000

$$$$
