AV-unprocessed.smi:228|AV-procd|sdf|1745|dock9
  -GOLD-   2262020263D 1   1.00000     0.00000
 Structure written by MMmdl.
 59 62  0  0  0  0  0  0  0  0  1 V2000
  149.9110  135.1757  156.0828 C   0  0  0  0  0  0  0  0  0  0  0  0
  148.5178  135.5233  156.3470 N   0  0  0  0  0  0  0  0  0  0  0  0
  148.2440  136.7874  157.0271 C   0  0  0  0  0  0  0  0  0  0  0  0
  147.3953  136.5994  158.3055 C   0  0  2  0  0  0  0  0  0  0  0  0
  147.3325  137.8560  158.9504 O   0  0  0  0  0  0  0  0  0  0  0  0
  148.0268  135.5859  159.2870 C   0  0  0  0  0  0  0  0  0  0  0  0
  147.3721  135.4805  160.5925 N   0  0  0  0  0  0  0  0  0  0  0  0
  147.9719  136.3535  161.5992 C   0  0  0  0  0  0  0  0  0  0  0  0
  147.2925  136.2018  162.9718 C   0  0  0  0  0  0  0  0  0  0  0  0
  147.3410  134.8401  163.3845 O   0  0  0  0  0  0  0  0  0  0  0  0
  146.7199  133.9629  162.4509 C   0  0  0  0  0  0  0  0  0  0  0  0
  147.4033  134.1052  161.0801 C   0  0  0  0  0  0  0  0  0  0  0  0
  147.5525  135.0068  155.5414 C   0  0  0  0  0  0  0  0  0  0  0  0
  146.2490  135.2906  155.8053 N   0  0  0  0  0  0  0  0  0  0  0  0
  145.2762  134.7803  155.0458 C   0  0  0  0  0  0  0  0  0  0  0  0
  145.3809  133.9818  153.9832 N   0  0  0  0  0  0  0  0  0  0  0  0
  146.6852  133.7102  153.6926 C   0  0  0  0  0  0  0  0  0  0  0  0
  147.8218  134.1731  154.4162 C   0  0  0  0  0  0  0  0  0  0  0  0
  148.9812  133.6845  153.8263 N   0  0  0  0  0  0  0  0  0  0  0  0
  148.5547  132.9562  152.8317 C   0  0  0  0  0  0  0  0  0  0  0  0
  147.1886  132.9431  152.6542 N   0  0  0  0  0  0  0  0  0  0  0  0
  146.4473  132.2005  151.6689 C   0  0  0  0  0  0  0  0  0  0  0  0
  146.2514  132.7370  150.2441 C   0  0  0  0  0  0  0  0  0  0  0  0
  144.8106  133.1677  150.5942 C   0  0  0  0  0  0  0  0  0  0  0  0
  144.6903  134.6454  151.0239 C   0  0  0  0  0  0  0  0  0  0  0  0
  145.1415  135.5359  150.0242 O   0  0  0  0  0  0  0  0  0  0  0  0
  143.7744  132.8721  149.4950 C   0  0  0  0  0  0  0  0  0  0  0  0
  143.8870  133.7640  148.4051 O   0  0  0  0  0  0  0  0  0  0  0  0
  144.9168  132.1300  151.7327 C   0  0  0  0  0  0  0  0  0  0  0  0
  150.0257  134.0984  155.9569 H   0  0  0  0  0  0  0  0  0  0  0  0
  150.5499  135.4837  156.9108 H   0  0  0  0  0  0  0  0  0  0  0  0
  150.2673  135.6725  155.1799 H   0  0  0  0  0  0  0  0  0  0  0  0
  149.2158  137.2088  157.2853 H   0  0  0  0  0  0  0  0  0  0  0  0
  147.8016  137.5275  156.3596 H   0  0  0  0  0  0  0  0  0  0  0  0
  146.3841  136.2814  158.0468 H   0  0  0  0  0  0  0  0  0  0  0  0
  148.1918  138.2489  158.9217 H   0  0  0  0  0  0  0  0  0  0  0  0
  147.9659  134.6002  158.8243 H   0  0  0  0  0  0  0  0  0  0  0  0
  149.0937  135.7824  159.4068 H   0  0  0  0  0  0  0  0  0  0  0  0
  149.0357  136.1316  161.6953 H   0  0  0  0  0  0  0  0  0  0  0  0
  147.8952  137.3950  161.2884 H   0  0  0  0  0  0  0  0  0  0  0  0
  147.7980  136.8179  163.7153 H   0  0  0  0  0  0  0  0  0  0  0  0
  146.2556  136.5385  162.9284 H   0  0  0  0  0  0  0  0  0  0  0  0
  146.8052  132.9384  162.8129 H   0  0  0  0  0  0  0  0  0  0  0  0
  145.6554  134.1908  162.3787 H   0  0  0  0  0  0  0  0  0  0  0  0
  146.9110  133.4464  160.3640 H   0  0  0  0  0  0  0  0  0  0  0  0
  148.4369  133.7638  161.1576 H   0  0  0  0  0  0  0  0  0  0  0  0
  144.2697  135.0490  155.3306 H   0  0  0  0  0  0  0  0  0  0  0  0
  149.2381  132.4123  152.1968 H   0  0  0  0  0  0  0  0  0  0  0  0
  146.8885  131.2031  151.6593 H   0  0  0  0  0  0  0  0  0  0  0  0
  146.9052  133.5578  149.9508 H   0  0  0  0  0  0  0  0  0  0  0  0
  146.2903  131.9381  149.5017 H   0  0  0  0  0  0  0  0  0  0  0  0
  143.6561  134.9071  151.2467 H   0  0  0  0  0  0  0  0  0  0  0  0
  145.2518  134.8351  151.9390 H   0  0  0  0  0  0  0  0  0  0  0  0
  145.2626  135.0517  149.2219 H   0  0  0  0  0  0  0  0  0  0  0  0
  143.8684  131.8504  149.1264 H   0  0  0  0  0  0  0  0  0  0  0  0
  142.7599  132.9640  149.8843 H   0  0  0  0  0  0  0  0  0  0  0  0
  144.7951  134.0057  148.3060 H   0  0  0  0  0  0  0  0  0  0  0  0
  144.5387  131.1476  151.4445 H   0  0  0  0  0  0  0  0  0  0  0  0
  144.4714  132.4502  152.6744 H   0  0  0  0  0  0  0  0  0  0  0  0
  1  2  1  0  0  0  0
  1 30  1  0  0  0  0
  1 31  1  0  0  0  0
  1 32  1  0  0  0  0
  2  3  1  0  0  0  0
  2 13  1  0  0  0  0
  3  4  1  0  0  0  0
  3 33  1  0  0  0  0
  3 34  1  0  0  0  0
  4  5  1  0  0  0  0
  4  6  1  0  0  0  0
  4 35  1  0  0  0  0
  5 36  1  0  0  0  0
  6  7  1  0  0  0  0
  6 37  1  0  0  0  0
  6 38  1  0  0  0  0
  7 12  1  0  0  0  0
  7  8  1  0  0  0  0
  8  9  1  0  0  0  0
  8 39  1  0  0  0  0
  8 40  1  0  0  0  0
  9 10  1  0  0  0  0
  9 41  1  0  0  0  0
  9 42  1  0  0  0  0
 10 11  1  0  0  0  0
 11 12  1  0  0  0  0
 11 43  1  0  0  0  0
 11 44  1  0  0  0  0
 12 45  1  0  0  0  0
 12 46  1  0  0  0  0
 13 18  1  0  0  0  0
 13 14  2  0  0  0  0
 14 15  1  0  0  0  0
 15 16  2  0  0  0  0
 15 47  1  0  0  0  0
 16 17  1  0  0  0  0
 17 21  1  0  0  0  0
 17 18  2  0  0  0  0
 18 19  1  0  0  0  0
 19 20  2  0  0  0  0
 20 21  1  0  0  0  0
 20 48  1  0  0  0  0
 21 22  1  0  0  0  0
 22 29  1  0  0  0  0
 22 23  1  0  0  0  0
 22 49  1  0  0  0  0
 23 24  1  0  0  0  0
 23 50  1  0  0  0  0
 23 51  1  0  0  0  0
 24 25  1  0  0  0  0
 24 27  1  0  0  0  0
 24 29  1  0  0  0  0
 25 26  1  0  0  0  0
 25 52  1  0  0  0  0
 25 53  1  0  0  0  0
 26 54  1  0  0  0  0
 27 28  1  0  0  0  0
 27 55  1  0  0  0  0
 27 56  1  0  0  0  0
 28 57  1  0  0  0  0
 29 58  1  0  0  0  0
 29 59  1  0  0  0  0
M  END
> <s_m_source_file>
AV-unprocessed.smi

> <i_m_source_file_index>
228

> <i_lp_mmshare_version>
43012

> <i_f3d_flags>
0

> <s_epik_input>
W0NIMl0xW0NIMl1PW0NIMl1bQ0gyXU4xW0NIMl1bQ0BASF0oW09IXSlbQ0gyXU4oW0NIM10pYyhuW2NIXW4yKWMoYzIzKW5bY0hdbjNbQ0hdKFtDSDJdNClbQ0gyXUM0KFtDSDJdW09IXSlbQ0gyXVtPSF0=

> <s_epik_cmdline>
J2VwaWtfcHl0aG9uJywgJy1waCcsICc3LjAnLCAnLXRuJywgJzgnLCAnLW1hJywgJzIwMCcsICctbWV0YWxfYmluZGluZycsICctaW1hZScsICc8aW5maWxlLm1hZT4nLCAnLW9tYWUnLCAnPG91dGZpbGUubWFlPic=

> <r_lp_tautomer_probability>
1

> <r_epik_Ionization_Penalty>
0.423559

> <r_epik_Ionization_Penalty_Charging>
0

> <r_epik_Ionization_Penalty_Neutral>
0.423559

> <r_epik_State_Penalty>
0.438466

> <r_epik_Charging_Adjusted_Penalty>
0.438466

> <i_epik_Tot_Q>
0

> <i_epik_Tot_abs_Q>
0

> <r_epik_Metal_State_Penalty>
0.436601

> <b_epik_Metal_Only>
0

> <s_lp_Force_Field>
OPLS_2005

> <r_lp_Energy>
66.0814

> <b_lp_Chiralities_Consistent>
1

> <s_lp_Variant>
AV-unprocessed.smi:228-3

> <Gold.Version>
5.8.1

> <Gold.Id.Protein>
6NUR|6NUR_protein|mol2

> <Gold.PLP.Fitness>
55.2807

> <Gold.PLP.PLP>
-47.7257

> <Gold.PLP.part.hbond>
-5.4251

> <Gold.PLP.part.metal>
0.0000

> <Gold.PLP.part.buried>
-7.4333

> <Gold.PLP.part.nonpolar>
-35.3821

> <Gold.PLP.part.repulsive>
0.2964

> <Gold.PLP.ligand.clash>
0.0000

> <Gold.PLP.ligand.torsion>
1.4097

> <Gold.PLP.Chemscore.Hbond>
2.0141

> <Gold.PLP.Chemscore.CHOScore>
1.0000

> <Gold.PLP.Chemscore.Metal>
0.0000

> <Gold.Chemscore.Hbonds>
donor molecule, donor type, donor heavy atom, donor atom, acceptor molecule, acceptor atom, score
      L1  H    26    54       P1  7921  0.99
      L1  H    28    57       P1  7921  1.00
      P1  H  6934  6947       L1     5  0.02
      L1  C    20    48       P1 10747  1.00

> <Gold.PLP.Chemscore.Internal.Correction>
1.3322

> <Gold.Rescore>
     Score         DG    S(hbond)    S(metal)    S(lipo)     H(rot)  DE(clash)    DE(int)     intcor
      6.49     -11.78       1.93        0.00     100.75       4.66       0.36       4.93       ----

> <Gold.Chemscore.Fitness>
6.4885

> <Gold.Chemscore.DG>
-11.7752

> <Gold.Chemscore.ZeroCoef>
-5.4800

> <Gold.Chemscore.Hbond>
1.9274

> <Gold.Chemscore.Metal>
0.0000

> <Gold.Chemscore.Lipo>
100.7460

> <Gold.Chemscore.Internal_Hbond>
0.0000

> <Gold.Chemscore.DEClash>
0.3566

> <Gold.Chemscore.DEInternal>
4.9301

> <Gold.Chemscore.Rot>
4.6600

> <Gold.Chemscore.Internal.Correction>
   9.000000E+99

> <Gold.Chemscore.Hbonds>
donor molecule, donor type, donor heavy atom, donor atom, acceptor molecule, acceptor atom, score
      L1  H    26    54       P1  7921  0.93
      L1  H    28    57       P1  7921  0.98

> <Gold.Chemscore.Hbond.Weighted>
-6.4376

> <Gold.Chemscore.Metal.Weighted>
-0.0000

> <Gold.Chemscore.Lipo.Weighted>
-11.7873

> <Gold.Chemscore.Internal_Hbond.Weighted>
0.0000

> <Gold.Chemscore.DEClash.Weighted>
0.3566

> <Gold.Chemscore.DEInternal.Weighted>
4.9301

> <Gold.Chemscore.Rot.Weighted>
11.9297

> <Gold.Chemscore.Internal.Correction.Weighted>
   9.000000E+99

> <Gold.Protein.RotatedTorsions>
[ 6907 6896 6895 6894 ] final  177.09 input  -60.11 | X-H torsion
[ 7974 7965 7964 7962 ] final   98.01 input  175.53 | X-H torsion
[ 8008 7997 7996 7995 ] final -107.40 input   59.86 | X-H torsion
[ 10167 10162 10161 10158 ] final -155.45 input  -65.29 | X-H torsion
[ 10718 10713 10712 10709 ] final -121.62 input   66.30 | X-H torsion
[ 10763 10752 10751 10750 ] final  -45.85 input  -60.55 | X-H torsion
[ 11005 11000 10999 10996 ] final  -28.80 input  -57.11 | X-H torsion

> <Gold.Protein.ActiveResidues>
 VAL166  LYS551  ARG553  GLY616  TRP617  ASP618  TYR619  PRO620  LYS621  CYS622 
 ASP623  PHE694  ASN695  SER759  ASP760  ASP761  ALA762  ILE779  LEU786  VAL792 
 PHE793  MET794  SER795  GLU796  ALA797  LYS798  CYS799  TRP800  GLU811  SER814 

> <Gold.Protein.RotatedAtoms>
  151.7096  133.3312  159.3287 H   0  0  0  0  0  0  0  0  0  0  0  0  # atno 6907 bound_to 6896
  150.7700  134.6544  159.6315 H   0  0  0  0  0  0  0  0  0  0  0  0  # atno 6908 bound_to 6896
  152.3719  134.6723  160.0225 H   0  0  0  0  0  0  0  0  0  0  0  0  # atno 6909 bound_to 6896
  145.4179  139.2325  143.3212 H   0  0  0  0  0  0  0  0  0  0  0  0  # atno 7974 bound_to 7965
  154.9288  140.0405  157.2037 H   0  0  0  0  0  0  0  0  0  0  0  0  # atno 8008 bound_to 7997
  154.8181  140.2879  155.5784 H   0  0  0  0  0  0  0  0  0  0  0  0  # atno 8009 bound_to 7997
  156.2977  140.2524  156.3082 H   0  0  0  0  0  0  0  0  0  0  0  0  # atno 8010 bound_to 7997
  139.6930  143.9388  152.2394 H   0  0  0  0  0  0  0  0  0  0  0  0  # atno 10167 bound_to 10162
  156.1352  130.6425  150.9685 H   0  0  0  0  0  0  0  0  0  0  0  0  # atno 10718 bound_to 10713
  154.0354  135.6651  153.4785 H   0  0  0  0  0  0  0  0  0  0  0  0  # atno 10763 bound_to 10752
  153.0523  135.5077  154.7893 H   0  0  0  0  0  0  0  0  0  0  0  0  # atno 10764 bound_to 10752
  154.6852  135.3052  154.9523 H   0  0  0  0  0  0  0  0  0  0  0  0  # atno 10765 bound_to 10752
  140.9241  133.7380  156.0842 H   0  0  0  0  0  0  0  0  0  0  0  0  # atno 11005 bound_to 11000
  146.2672  140.4899  142.8829 LP  0  0  0  0  0  0  0  0  0  0  0  0  # atno 17320 bound_to 7965
  144.8265  140.6637  143.6319 LP  0  0  0  0  0  0  0  0  0  0  0  0  # atno 17321 bound_to 7965
  139.9210  144.6800  150.8462 LP  0  0  0  0  0  0  0  0  0  0  0  0  # atno 17342 bound_to 10162
  140.7688  143.3375  151.2277 LP  0  0  0  0  0  0  0  0  0  0  0  0  # atno 17343 bound_to 10162
  157.6525  131.0894  150.8019 LP  0  0  0  0  0  0  0  0  0  0  0  0  # atno 17370 bound_to 10713
  156.8099  130.4949  149.5357 LP  0  0  0  0  0  0  0  0  0  0  0  0  # atno 17371 bound_to 10713
  140.7950  134.3574  157.5455 LP  0  0  0  0  0  0  0  0  0  0  0  0  # atno 17394 bound_to 11000
  139.8781  134.9163  156.3151 LP  0  0  0  0  0  0  0  0  0  0  0  0  # atno 17395 bound_to 11000

$$$$
