AV-unprocessed.smi:3261|AV-procd|sdf|12478|dock2
  -GOLD-   2272018383D 1   1.00000     0.00000
 Structure written by MMmdl.
 30 31  0  0  0  0  0  0  0  0  1 V2000
  146.5104  133.1934  153.5048 O   0  0  0  0  0  0  0  0  0  0  0  0
  147.3593  132.6692  152.7873 C   0  0  0  0  0  0  0  0  0  0  0  0
  147.1557  132.2734  151.5147 N   0  0  0  0  0  0  0  0  0  0  0  0
  145.9612  132.3020  150.7448 C   0  0  0  0  0  0  0  0  0  0  0  0
  144.7648  132.6383  151.4114 C   0  0  0  0  0  0  0  0  0  0  0  0
  143.5667  132.6932  150.6721 C   0  0  0  0  0  0  0  0  0  0  0  0
  143.5017  132.4471  149.3469 N   0  0  0  0  0  0  0  0  0  0  0  0
  144.6493  132.1375  148.7075 C   0  0  0  0  0  0  0  0  0  0  0  0
  145.8998  132.0551  149.3519 C   0  0  0  0  0  0  0  0  0  0  0  0
  148.6146  132.4741  153.2306 N   0  0  0  0  0  0  0  0  0  0  0  0
  149.1698  132.7871  154.5485 C   0  0  2  0  0  0  0  0  0  0  0  0
  150.2165  133.9126  154.4529 C   0  0  0  0  0  0  0  0  0  0  0  0
  151.0113  133.9574  155.7638 C   0  0  0  0  0  0  0  0  0  0  0  0
  151.0491  132.2369  156.3957 S   0  0  0  0  0  0  0  0  0  0  0  0
  152.3717  131.6455  156.1432 O   0  0  0  0  0  0  0  0  0  0  0  0
  150.4509  132.2097  157.7390 O   0  0  0  0  0  0  0  0  0  0  0  0
  149.8515  131.5645  155.1836 C   0  0  0  0  0  0  0  0  0  0  0  0
  147.9722  131.9382  151.0254 H   0  0  0  0  0  0  0  0  0  0  0  0
  144.7593  132.8479  152.4712 H   0  0  0  0  0  0  0  0  0  0  0  0
  142.6356  132.9440  151.1584 H   0  0  0  0  0  0  0  0  0  0  0  0
  144.5708  131.9551  147.6460 H   0  0  0  0  0  0  0  0  0  0  0  0
  146.7742  131.8199  148.7656 H   0  0  0  0  0  0  0  0  0  0  0  0
  149.2668  132.0871  152.5635 H   0  0  0  0  0  0  0  0  0  0  0  0
  148.3798  133.1371  155.2156 H   0  0  0  0  0  0  0  0  0  0  0  0
  150.9057  133.6946  153.6354 H   0  0  0  0  0  0  0  0  0  0  0  0
  149.7574  134.8768  154.2321 H   0  0  0  0  0  0  0  0  0  0  0  0
  152.0257  134.3346  155.6341 H   0  0  0  0  0  0  0  0  0  0  0  0
  150.5023  134.5759  156.5035 H   0  0  0  0  0  0  0  0  0  0  0  0
  149.1539  130.8903  155.6809 H   0  0  0  0  0  0  0  0  0  0  0  0
  150.4147  130.9974  154.4414 H   0  0  0  0  0  0  0  0  0  0  0  0
  1  2  2  0  0  0  0
  2  3  1  0  0  0  0
  2 10  1  0  0  0  0
  3  4  1  0  0  0  0
  3 18  1  0  0  0  0
  4  9  1  0  0  0  0
  4  5  2  0  0  0  0
  5  6  1  0  0  0  0
  5 19  1  0  0  0  0
  6  7  2  0  0  0  0
  6 20  1  0  0  0  0
  7  8  1  0  0  0  0
  8  9  2  0  0  0  0
  8 21  1  0  0  0  0
  9 22  1  0  0  0  0
 10 11  1  0  0  0  0
 10 23  1  0  0  0  0
 11 17  1  0  0  0  0
 11 12  1  0  0  0  0
 11 24  1  0  0  0  0
 12 13  1  0  0  0  0
 12 25  1  0  0  0  0
 12 26  1  0  0  0  0
 13 14  1  0  0  0  0
 13 27  1  0  0  0  0
 13 28  1  0  0  0  0
 14 15  2  0  0  0  0
 14 16  2  0  0  0  0
 14 17  1  0  0  0  0
 17 29  1  0  0  0  0
 17 30  1  0  0  0  0
M  END
> <s_m_source_file>
AV-unprocessed.smi

> <i_m_source_file_index>
3261

> <i_lp_mmshare_version>
43012

> <i_f3d_flags>
0

> <s_epik_input>
Tz1TMSg9TylbQ0gyXVtDSDJdW0NASF0oW0NIMl0xKVtOSF1DKD1PKVtOSF1jMltjSF1bY0hdbltjSF1bY0hdMg==

> <s_epik_cmdline>
J2VwaWtfcHl0aG9uJywgJy1waCcsICc3LjAnLCAnLXRuJywgJzgnLCAnLW1hJywgJzIwMCcsICctbWV0YWxfYmluZGluZycsICctaW1hZScsICc8aW5maWxlLm1hZT4nLCAnLW9tYWUnLCAnPG91dGZpbGUubWFlPic=

> <r_epik_Ionization_Penalty>
0.0999693

> <r_epik_Ionization_Penalty_Charging>
0

> <r_epik_Ionization_Penalty_Neutral>
0.0999693

> <r_epik_State_Penalty>
0.0899812

> <r_epik_Charging_Adjusted_Penalty>
0.0899812

> <i_epik_Tot_Q>
0

> <i_epik_Tot_abs_Q>
0

> <r_epik_Metal_State_Penalty>
0.0778619

> <b_epik_Metal_Only>
0

> <s_lp_Force_Field>
OPLS_2005

> <r_lp_Energy>
18.6703

> <b_lp_Chiralities_Consistent>
1

> <s_lp_Variant>
AV-unprocessed.smi:3261-1

> <Gold.Version>
5.8.1

> <Gold.Id.Protein>
6NUR|6NUR_protein|mol2

> <Gold.PLP.Fitness>
37.1644

> <Gold.PLP.PLP>
-29.0916

> <Gold.PLP.part.hbond>
-2.3019

> <Gold.PLP.part.metal>
0.0000

> <Gold.PLP.part.buried>
-2.0633

> <Gold.PLP.part.nonpolar>
-24.1691

> <Gold.PLP.part.repulsive>
0.3997

> <Gold.PLP.ligand.clash>
0.0000

> <Gold.PLP.ligand.torsion>
0.0665

> <Gold.PLP.Chemscore.Hbond>
2.0000

> <Gold.PLP.Chemscore.CHOScore>
0.7350

> <Gold.PLP.Chemscore.Metal>
0.0000

> <Gold.Chemscore.Hbonds>
donor molecule, donor type, donor heavy atom, donor atom, acceptor molecule, acceptor atom, score
      L1  H     3    18       P1 10747  1.00
      P1  H  6896  6907       L1    16  0.98
      L1  C     6    20       P1 10186  0.35

> <Gold.PLP.Chemscore.Internal.Correction>
0.0006

> <Gold.Rescore>
     Score         DG    S(hbond)    S(metal)    S(lipo)     H(rot)  DE(clash)    DE(int)     intcor
     16.03     -17.76       1.98        0.00      70.42       1.00       0.19       1.53       ----

> <Gold.Chemscore.Fitness>
16.0343

> <Gold.Chemscore.DG>
-17.7625

> <Gold.Chemscore.ZeroCoef>
-5.4800

> <Gold.Chemscore.Hbond>
1.9771

> <Gold.Chemscore.Metal>
0.0000

> <Gold.Chemscore.Lipo>
70.4202

> <Gold.Chemscore.Internal_Hbond>
0.0000

> <Gold.Chemscore.DEClash>
0.1934

> <Gold.Chemscore.DEInternal>
1.5349

> <Gold.Chemscore.Rot>
1.0000

> <Gold.Chemscore.Internal.Correction>
   9.000000E+99

> <Gold.Chemscore.Hbonds>
donor molecule, donor type, donor heavy atom, donor atom, acceptor molecule, acceptor atom, score
      L1  H     3    18       P1 10747  0.99
      P1  H  6896  6907       L1    16  0.90

> <Gold.Chemscore.Hbond.Weighted>
-6.6034

> <Gold.Chemscore.Metal.Weighted>
-0.0000

> <Gold.Chemscore.Lipo.Weighted>
-8.2392

> <Gold.Chemscore.Internal_Hbond.Weighted>
0.0000

> <Gold.Chemscore.DEClash.Weighted>
0.1934

> <Gold.Chemscore.DEInternal.Weighted>
1.5349

> <Gold.Chemscore.Rot.Weighted>
2.5600

> <Gold.Chemscore.Internal.Correction.Weighted>
   9.000000E+99

> <Gold.Protein.RotatedTorsions>
[ 6907 6896 6895 6894 ] final -144.90 input  -60.11 | X-H torsion
[ 7974 7965 7964 7962 ] final  173.97 input  175.53 | X-H torsion
[ 8008 7997 7996 7995 ] final   42.72 input   59.86 | X-H torsion
[ 10167 10162 10161 10158 ] final  -62.67 input  -65.29 | X-H torsion
[ 10718 10713 10712 10709 ] final  159.09 input   66.30 | X-H torsion
[ 10763 10752 10751 10750 ] final -177.06 input  -60.55 | X-H torsion
[ 11005 11000 10999 10996 ] final  -69.93 input  -57.11 | X-H torsion

> <Gold.Protein.ActiveResidues>
 VAL166  LYS551  ARG553  GLY616  TRP617  ASP618  TYR619  PRO620  LYS621  CYS622 
 ASP623  PHE694  ASN695  SER759  ASP760  ASP761  ALA762  ILE779  LEU786  VAL792 
 PHE793  MET794  SER795  GLU796  ALA797  LYS798  CYS799  TRP800  GLU811  SER814 

> <Gold.Protein.RotatedAtoms>
  151.1203  133.5109  159.2602 H   0  0  0  0  0  0  0  0  0  0  0  0  # atno 6907 bound_to 6896
  151.1869  135.0385  159.8826 H   0  0  0  0  0  0  0  0  0  0  0  0  # atno 6908 bound_to 6896
  152.5455  134.1048  159.8387 H   0  0  0  0  0  0  0  0  0  0  0  0  # atno 6909 bound_to 6896
  144.7231  139.9728  143.6437 H   0  0  0  0  0  0  0  0  0  0  0  0  # atno 7974 bound_to 7965
  155.2908  140.3378  155.4252 H   0  0  0  0  0  0  0  0  0  0  0  0  # atno 8008 bound_to 7997
  156.2047  140.1746  156.7865 H   0  0  0  0  0  0  0  0  0  0  0  0  # atno 8009 bound_to 7997
  154.5605  140.0688  156.8795 H   0  0  0  0  0  0  0  0  0  0  0  0  # atno 8010 bound_to 7997
  140.5923  143.2344  151.6112 H   0  0  0  0  0  0  0  0  0  0  0  0  # atno 10167 bound_to 10162
  157.1689  131.0605  151.2193 H   0  0  0  0  0  0  0  0  0  0  0  0  # atno 10718 bound_to 10713
  154.5648  135.2823  155.0885 H   0  0  0  0  0  0  0  0  0  0  0  0  # atno 10763 bound_to 10752
  154.2280  135.6379  153.5169 H   0  0  0  0  0  0  0  0  0  0  0  0  # atno 10764 bound_to 10752
  153.0039  135.5530  154.6253 H   0  0  0  0  0  0  0  0  0  0  0  0  # atno 10765 bound_to 10752
  141.1564  133.6777  156.6675 H   0  0  0  0  0  0  0  0  0  0  0  0  # atno 11005 bound_to 11000
  146.0550  139.3547  143.0616 LP  0  0  0  0  0  0  0  0  0  0  0  0  # atno 17320 bound_to 7965
  145.8167  140.9699  143.0920 LP  0  0  0  0  0  0  0  0  0  0  0  0  # atno 17321 bound_to 7965
  139.5235  144.3130  152.0976 LP  0  0  0  0  0  0  0  0  0  0  0  0  # atno 17342 bound_to 10162
  140.2297  144.4381  150.6305 LP  0  0  0  0  0  0  0  0  0  0  0  0  # atno 17343 bound_to 10162
  157.4062  130.7360  149.6804 LP  0  0  0  0  0  0  0  0  0  0  0  0  # atno 17370 bound_to 10713
  155.9741  130.4107  150.3946 LP  0  0  0  0  0  0  0  0  0  0  0  0  # atno 17371 bound_to 10713
  140.3200  134.8015  157.4245 LP  0  0  0  0  0  0  0  0  0  0  0  0  # atno 17394 bound_to 11000
  140.1105  134.5352  155.8270 LP  0  0  0  0  0  0  0  0  0  0  0  0  # atno 17395 bound_to 11000

$$$$
