AV-unprocessed.smi:3304|AV-procd|sdf|12698|dock6
  -GOLD-   2272019 33D 1   1.00000     0.00000
 Structure written by MMmdl.
 46 47  0  0  0  0  0  0  0  0  2 V2000
  147.1658  141.8978  155.0278 C   0  0  0  0  0  0  0  0  0  0  0  0
  148.1347  140.8431  154.5998 C   0  0  0  0  0  0  0  0  0  0  0  0
  147.9906  139.7941  153.7316 C   0  0  0  0  0  0  0  0  0  0  0  0
  146.7845  139.3822  152.9329 C   0  0  0  0  0  0  0  0  0  0  0  0
  146.4366  137.9048  153.1589 C   0  0  0  0  0  0  0  0  0  0  0  0
  146.2595  137.1988  151.8756 N   0  3  0  0  0  0  0  0  0  0  0  0
  145.0843  136.3056  151.8385 C   0  0  0  0  0  0  0  0  0  0  0  0
  145.2798  135.1503  150.8393 C   0  0  2  0  0  0  0  0  0  0  0  0
  143.9604  134.3835  150.6207 C   0  0  0  0  0  0  0  0  0  0  0  0
  144.1319  133.2223  149.6255 C   0  0  0  0  0  0  0  0  0  0  0  0
  145.2498  132.2471  150.0439 C   0  0  2  0  0  0  0  0  0  0  0  0
  144.8441  131.3566  151.2315 C   0  0  0  0  0  0  0  0  0  0  0  0
  146.5638  133.0120  150.2988 C   0  0  0  0  0  0  0  0  0  0  0  0
  146.3872  134.1744  151.2915 C   0  0  0  0  0  0  0  0  0  0  0  0
  149.2660  139.1619  153.7529 C   0  0  0  0  0  0  0  0  0  0  0  0
  150.1221  139.7603  154.5611 N   0  0  0  0  0  0  0  0  0  0  0  0
  149.4294  140.7942  155.0814 N   0  0  0  0  0  0  0  0  0  0  0  0
  150.0780  141.6811  156.0278 C   0  0  0  0  0  0  0  0  0  0  0  0
  146.1968  141.7644  154.5472 H   0  0  0  0  0  0  0  0  0  0  0  0
  147.5339  142.8904  154.7675 H   0  0  0  0  0  0  0  0  0  0  0  0
  147.0108  141.8663  156.1066 H   0  0  0  0  0  0  0  0  0  0  0  0
  145.9250  140.0010  153.1933 H   0  0  0  0  0  0  0  0  0  0  0  0
  146.9581  139.5514  151.8695 H   0  0  0  0  0  0  0  0  0  0  0  0
  147.2293  137.4176  153.7287 H   0  0  0  0  0  0  0  0  0  0  0  0
  145.5198  137.8209  153.7441 H   0  0  0  0  0  0  0  0  0  0  0  0
  146.1639  137.8847  151.1403 H   0  0  0  0  0  0  0  0  0  0  0  0
  144.8878  135.9130  152.8373 H   0  0  0  0  0  0  0  0  0  0  0  0
  144.2143  136.8986  151.5531 H   0  0  0  0  0  0  0  0  0  0  0  0
  145.5725  135.5796  149.8794 H   0  0  0  0  0  0  0  0  0  0  0  0
  143.5896  134.0025  151.5729 H   0  0  0  0  0  0  0  0  0  0  0  0
  143.1935  135.0632  150.2475 H   0  0  0  0  0  0  0  0  0  0  0  0
  143.1886  132.6875  149.5087 H   0  0  0  0  0  0  0  0  0  0  0  0
  144.3680  133.6326  148.6427 H   0  0  0  0  0  0  0  0  0  0  0  0
  145.4239  131.5736  149.2036 H   0  0  0  0  0  0  0  0  0  0  0  0
  144.6459  131.9369  152.1323 H   0  0  0  0  0  0  0  0  0  0  0  0
  145.6308  130.6398  151.4683 H   0  0  0  0  0  0  0  0  0  0  0  0
  143.9430  130.7874  151.0018 H   0  0  0  0  0  0  0  0  0  0  0  0
  147.3341  132.3285  150.6576 H   0  0  0  0  0  0  0  0  0  0  0  0
  146.9326  133.4100  149.3522 H   0  0  0  0  0  0  0  0  0  0  0  0
  147.3367  134.7012  151.3913 H   0  0  0  0  0  0  0  0  0  0  0  0
  146.1545  133.7812  152.2816 H   0  0  0  0  0  0  0  0  0  0  0  0
  149.5921  138.2884  153.2076 H   0  0  0  0  0  0  0  0  0  0  0  0
  150.0482  142.7041  155.6519 H   0  0  0  0  0  0  0  0  0  0  0  0
  151.1193  141.3918  156.1776 H   0  0  0  0  0  0  0  0  0  0  0  0
  149.5588  141.6372  156.9856 H   0  0  0  0  0  0  0  0  0  0  0  0
  147.0864  136.6468  151.6973 H   0  0  0  0  0  0  0  0  0  0  0  0
  1  2  1  0  0  0  0
  1 19  1  0  0  0  0
  1 20  1  0  0  0  0
  1 21  1  0  0  0  0
  2 17  1  0  0  0  0
  2  3  2  0  0  0  0
  3  4  1  0  0  0  0
  3 15  1  0  0  0  0
  4  5  1  0  0  0  0
  4 22  1  0  0  0  0
  4 23  1  0  0  0  0
  5  6  1  0  0  0  0
  5 24  1  0  0  0  0
  5 25  1  0  0  0  0
  6  7  1  0  0  0  0
  6 26  1  0  0  0  0
  6 46  1  0  0  0  0
  7  8  1  0  0  0  0
  7 27  1  0  0  0  0
  7 28  1  0  0  0  0
  8 14  1  0  0  0  0
  8  9  1  0  0  0  0
  8 29  1  0  0  0  0
  9 10  1  0  0  0  0
  9 30  1  0  0  0  0
  9 31  1  0  0  0  0
 10 11  1  0  0  0  0
 10 32  1  0  0  0  0
 10 33  1  0  0  0  0
 11 12  1  0  0  0  0
 11 13  1  0  0  0  0
 11 34  1  0  0  0  0
 12 35  1  0  0  0  0
 12 36  1  0  0  0  0
 12 37  1  0  0  0  0
 13 14  1  0  0  0  0
 13 38  1  0  0  0  0
 13 39  1  0  0  0  0
 14 40  1  0  0  0  0
 14 41  1  0  0  0  0
 15 16  2  0  0  0  0
 15 42  1  0  0  0  0
 16 17  1  0  0  0  0
 17 18  1  0  0  0  0
 18 43  1  0  0  0  0
 18 44  1  0  0  0  0
 18 45  1  0  0  0  0
M  CHG  1   6   1
M  END
> <s_m_source_file>
AV-unprocessed.smi

> <i_m_source_file_index>
3304

> <i_lp_mmshare_version>
43012

> <i_f3d_flags>
0

> <s_epik_input>
W0NIM11uMW5bY0hdYyhjMVtDSDNdKVtDSDJdW0NIMl1bTkhdW0NIMl1bQ0BASF0yW0NIMl1bQ0gyXVtDQEBIXShbQ0gzXSlbQ0gyXVtDSDJdMg==

> <s_epik_cmdline>
J2VwaWtfcHl0aG9uJywgJy1waCcsICc3LjAnLCAnLXRuJywgJzgnLCAnLW1hJywgJzIwMCcsICctbWV0YWxfYmluZGluZycsICctaW1hZScsICc8aW5maWxlLm1hZT4nLCAnLW9tYWUnLCAnPG91dGZpbGUubWFlPic=

> <r_lp_tautomer_probability>
1

> <r_epik_Ionization_Penalty>
0.000505313

> <r_epik_Ionization_Penalty_Charging>
0.000421171

> <r_epik_Ionization_Penalty_Neutral>
8.41424e-05

> <r_epik_State_Penalty>
-0

> <r_epik_Charging_Adjusted_Penalty>
0.000421171

> <i_epik_Tot_Q>
1

> <i_epik_Tot_abs_Q>
1

> <r_epik_Metal_State_Penalty>
-0

> <b_epik_Metal_Only>
0

> <s_lp_Force_Field>
OPLS_2005

> <r_lp_Energy>
12.247

> <b_lp_Chiralities_Consistent>
1

> <s_lp_Variant>
AV-unprocessed.smi:3304-2

> <Gold.Version>
5.8.1

> <Gold.Id.Protein>
6NUR|6NUR_protein|mol2

> <Gold.PLP.Fitness>
46.2439

> <Gold.PLP.PLP>
-35.9074

> <Gold.PLP.part.hbond>
-2.0000

> <Gold.PLP.part.metal>
0.0000

> <Gold.PLP.part.buried>
1.8236

> <Gold.PLP.part.nonpolar>
-36.5016

> <Gold.PLP.part.repulsive>
0.1700

> <Gold.PLP.ligand.clash>
0.0000

> <Gold.PLP.ligand.torsion>
0.9094

> <Gold.PLP.Chemscore.Hbond>
3.0000

> <Gold.PLP.Chemscore.CHOScore>
1.0292

> <Gold.PLP.Chemscore.Metal>
0.0000

> <Gold.Chemscore.Hbonds>
donor molecule, donor type, donor heavy atom, donor atom, acceptor molecule, acceptor atom, score
      L1  H     6    46       P1  7948  2.00
      P1  H  7989  7998       L1    16  0.66
      L1  C    15    42       P1  7948  1.00
      L1  C    15    42       P1  7957  0.04

> <Gold.PLP.Chemscore.Internal.Correction>
0.0677

> <Gold.Rescore>
     Score         DG    S(hbond)    S(metal)    S(lipo)     H(rot)  DE(clash)    DE(int)     intcor
     17.15     -19.55       1.73        0.00     102.22       1.43       1.47       0.93       ----

> <Gold.Chemscore.Fitness>
17.1508

> <Gold.Chemscore.DG>
-19.5475

> <Gold.Chemscore.ZeroCoef>
-5.4800

> <Gold.Chemscore.Hbond>
1.7296

> <Gold.Chemscore.Metal>
0.0000

> <Gold.Chemscore.Lipo>
102.2165

> <Gold.Chemscore.Internal_Hbond>
0.0000

> <Gold.Chemscore.DEClash>
1.4665

> <Gold.Chemscore.DEInternal>
0.9302

> <Gold.Chemscore.Rot>
1.4331

> <Gold.Chemscore.Internal.Correction>
   9.000000E+99

> <Gold.Chemscore.Hbonds>
donor molecule, donor type, donor heavy atom, donor atom, acceptor molecule, acceptor atom, score
      L1  H     6    46       P1  7948  0.98
      P1  H  7989  7998       L1    16  0.12

> <Gold.Chemscore.Hbond.Weighted>
-5.7770

> <Gold.Chemscore.Metal.Weighted>
-0.0000

> <Gold.Chemscore.Lipo.Weighted>
-11.9593

> <Gold.Chemscore.Internal_Hbond.Weighted>
0.0000

> <Gold.Chemscore.DEClash.Weighted>
1.4665

> <Gold.Chemscore.DEInternal.Weighted>
0.9302

> <Gold.Chemscore.Rot.Weighted>
3.6688

> <Gold.Chemscore.Internal.Correction.Weighted>
   9.000000E+99

> <Gold.Protein.RotatedTorsions>
[ 6907 6896 6895 6894 ] final  179.71 input  -60.11 | X-H torsion
[ 7974 7965 7964 7962 ] final   66.45 input  175.53 | X-H torsion
[ 8008 7997 7996 7995 ] final  139.06 input   59.86 | X-H torsion
[ 10167 10162 10161 10158 ] final -164.01 input  -65.29 | X-H torsion
[ 10718 10713 10712 10709 ] final -171.72 input   66.30 | X-H torsion
[ 10763 10752 10751 10750 ] final   17.11 input  -60.55 | X-H torsion
[ 11005 11000 10999 10996 ] final   11.41 input  -57.11 | X-H torsion

> <Gold.Protein.ActiveResidues>
 VAL166  LYS551  ARG553  GLY616  TRP617  ASP618  TYR619  PRO620  LYS621  CYS622 
 ASP623  PHE694  ASN695  SER759  ASP760  ASP761  ALA762  ILE779  LEU786  VAL792 
 PHE793  MET794  SER795  GLU796  ALA797  LYS798  CYS799  TRP800  GLU811  SER814 

> <Gold.Protein.RotatedAtoms>
  151.6672  133.3315  159.3187 H   0  0  0  0  0  0  0  0  0  0  0  0  # atno 6907 bound_to 6896
  150.7885  134.6893  159.6497 H   0  0  0  0  0  0  0  0  0  0  0  0  # atno 6908 bound_to 6896
  152.3960  134.6369  160.0141 H   0  0  0  0  0  0  0  0  0  0  0  0  # atno 6909 bound_to 6896
  145.8265  139.3114  143.1013 H   0  0  0  0  0  0  0  0  0  0  0  0  # atno 7974 bound_to 7965
  156.2993  140.2377  156.4176 H   0  0  0  0  0  0  0  0  0  0  0  0  # atno 8008 bound_to 7997
  154.8385  140.0429  157.1545 H   0  0  0  0  0  0  0  0  0  0  0  0  # atno 8009 bound_to 7997
  154.9129  140.2993  155.5260 H   0  0  0  0  0  0  0  0  0  0  0  0  # atno 8010 bound_to 7997
  139.6280  144.0494  152.1991 H   0  0  0  0  0  0  0  0  0  0  0  0  # atno 10167 bound_to 10162
  156.7450  130.9356  151.3112 H   0  0  0  0  0  0  0  0  0  0  0  0  # atno 10718 bound_to 10713
  153.1369  135.6752  153.9089 H   0  0  0  0  0  0  0  0  0  0  0  0  # atno 10763 bound_to 10752
  153.8557  135.3087  155.3436 H   0  0  0  0  0  0  0  0  0  0  0  0  # atno 10764 bound_to 10752
  154.7755  135.4917  153.9818 H   0  0  0  0  0  0  0  0  0  0  0  0  # atno 10765 bound_to 10752
  140.5035  134.0722  155.7800 H   0  0  0  0  0  0  0  0  0  0  0  0  # atno 11005 bound_to 11000
  145.9618  140.8829  143.0207 LP  0  0  0  0  0  0  0  0  0  0  0  0  # atno 17320 bound_to 7965
  144.6743  140.1823  143.7404 LP  0  0  0  0  0  0  0  0  0  0  0  0  # atno 17321 bound_to 7965
  140.0152  144.6194  150.7613 LP  0  0  0  0  0  0  0  0  0  0  0  0  # atno 17342 bound_to 10162
  140.7422  143.2829  151.3546 LP  0  0  0  0  0  0  0  0  0  0  0  0  # atno 17343 bound_to 10162
  157.6802  130.9132  150.0248 LP  0  0  0  0  0  0  0  0  0  0  0  0  # atno 17370 bound_to 10713
  156.1439  130.3642  149.9540 LP  0  0  0  0  0  0  0  0  0  0  0  0  # atno 17371 bound_to 10713
  141.1423  133.9116  157.2297 LP  0  0  0  0  0  0  0  0  0  0  0  0  # atno 17394 bound_to 11000
  139.9699  135.0131  156.9486 LP  0  0  0  0  0  0  0  0  0  0  0  0  # atno 17395 bound_to 11000

$$$$
