AV-unprocessed.smi:1929|AV-procd|sdf|7805|dock3
  -GOLD-   22720 9543D 1   1.00000     0.00000
 Structure written by MMmdl.
 42 43  0  0  0  0  0  0  0  0  3 V2000
  144.5288  135.7438  152.1196 C   0  0  0  0  0  0  0  0  0  0  0  0
  145.5029  136.7254  151.6582 N   0  5  0  0  0  0  0  0  0  0  0  0
  145.9487  137.7577  152.4232 C   0  0  0  0  0  0  0  0  0  0  0  0
  145.7083  138.0531  153.5986 O   0  0  0  0  0  0  0  0  0  0  0  0
  146.8770  138.6778  151.6222 C   0  0  0  0  0  0  0  0  0  0  0  0
  147.5730  139.6209  152.5329 N   0  3  2  0  0  0  0  0  0  0  0  0
  148.3128  138.9414  153.6312 C   0  0  0  0  0  0  0  0  0  0  0  0
  149.1219  139.9499  154.4633 C   0  0  0  0  0  0  0  0  0  0  0  0
  148.2194  141.0592  155.0257 C   0  0  1  0  0  0  0  0  0  0  0  0
  149.0292  142.0472  155.7325 N   0  0  0  0  0  0  0  0  0  0  0  0
  149.7551  141.8045  156.8336 C   0  0  0  0  0  0  0  0  0  0  0  0
  149.8091  140.7026  157.3796 O   0  0  0  0  0  0  0  0  0  0  0  0
  150.3803  142.9161  157.2589 N   0  0  0  0  0  0  0  0  0  0  0  0
  151.2634  143.0702  158.3621 C   0  0  0  0  0  0  0  0  0  0  0  0
  151.5112  141.9403  159.1688 C   0  0  0  0  0  0  0  0  0  0  0  0
  152.3675  142.0738  160.2800 C   0  0  0  0  0  0  0  0  0  0  0  0
  152.9611  143.2359  160.6239 N   0  0  0  0  0  0  0  0  0  0  0  0
  152.7115  144.3199  159.8593 C   0  0  0  0  0  0  0  0  0  0  0  0
  151.8730  144.2950  158.7268 C   0  0  0  0  0  0  0  0  0  0  0  0
  147.4356  141.7178  153.8763 C   0  0  0  0  0  0  0  0  0  0  0  0
  146.6633  140.6704  153.0577 C   0  0  0  0  0  0  0  0  0  0  0  0
  144.3387  134.9782  151.3680 H   0  0  0  0  0  0  0  0  0  0  0  0
  143.5636  136.1949  152.3517 H   0  0  0  0  0  0  0  0  0  0  0  0
  144.8572  135.2204  153.0181 H   0  0  0  0  0  0  0  0  0  0  0  0
  147.6050  138.0352  151.1249 H   0  0  0  0  0  0  0  0  0  0  0  0
  146.3566  139.2212  150.8301 H   0  0  0  0  0  0  0  0  0  0  0  0
  147.6077  138.4069  154.2695 H   0  0  0  0  0  0  0  0  0  0  0  0
  148.9954  138.1951  153.2245 H   0  0  0  0  0  0  0  0  0  0  0  0
  149.6287  139.4309  155.2777 H   0  0  0  0  0  0  0  0  0  0  0  0
  149.9040  140.3859  153.8398 H   0  0  0  0  0  0  0  0  0  0  0  0
  147.5139  140.6043  155.7243 H   0  0  0  0  0  0  0  0  0  0  0  0
  149.0376  142.9834  155.3547 H   0  0  0  0  0  0  0  0  0  0  0  0
  150.1642  143.7662  156.7595 H   0  0  0  0  0  0  0  0  0  0  0  0
  151.0599  140.9853  158.9420 H   0  0  0  0  0  0  0  0  0  0  0  0
  152.5787  141.2235  160.9118 H   0  0  0  0  0  0  0  0  0  0  0  0
  153.1893  145.2393  160.1633 H   0  0  0  0  0  0  0  0  0  0  0  0
  151.7067  145.2084  158.1770 H   0  0  0  0  0  0  0  0  0  0  0  0
  146.7394  142.4593  154.2703 H   0  0  0  0  0  0  0  0  0  0  0  0
  148.1210  142.2555  153.2194 H   0  0  0  0  0  0  0  0  0  0  0  0
  146.1571  141.1681  152.2297 H   0  0  0  0  0  0  0  0  0  0  0  0
  145.8890  140.2075  153.6716 H   0  0  0  0  0  0  0  0  0  0  0  0
  148.2597  140.0952  151.9640 H   0  0  0  0  0  0  0  0  0  0  0  0
  1  2  1  0  0  0  0
  1 22  1  0  0  0  0
  1 23  1  0  0  0  0
  1 24  1  0  0  0  0
  2  3  1  0  0  0  0
  3  4  2  0  0  0  0
  3  5  1  0  0  0  0
  5  6  1  0  0  0  0
  5 25  1  0  0  0  0
  5 26  1  0  0  0  0
  6 21  1  0  0  0  0
  6  7  1  0  0  0  0
  6 42  1  0  0  0  0
  7  8  1  0  0  0  0
  7 27  1  0  0  0  0
  7 28  1  0  0  0  0
  8  9  1  0  0  0  0
  8 29  1  0  0  0  0
  8 30  1  0  0  0  0
  9 10  1  0  0  0  0
  9 20  1  0  0  0  0
  9 31  1  0  0  0  0
 10 11  1  0  0  0  0
 10 32  1  0  0  0  0
 11 12  2  0  0  0  0
 11 13  1  0  0  0  0
 13 14  1  0  0  0  0
 13 33  1  0  0  0  0
 14 19  1  0  0  0  0
 14 15  2  0  0  0  0
 15 16  1  0  0  0  0
 15 34  1  0  0  0  0
 16 17  2  0  0  0  0
 16 35  1  0  0  0  0
 17 18  1  0  0  0  0
 18 19  2  0  0  0  0
 18 36  1  0  0  0  0
 19 37  1  0  0  0  0
 20 21  1  0  0  0  0
 20 38  1  0  0  0  0
 20 39  1  0  0  0  0
 21 40  1  0  0  0  0
 21 41  1  0  0  0  0
M  CHG  1   2  -1
M  CHG  1   6   1
M  END
> <s_m_source_file>
AV-unprocessed.smi

> <i_m_source_file_index>
1929

> <i_lp_mmshare_version>
43012

> <i_f3d_flags>
0

> <s_epik_input>
W0NIM11bTkhdQyg9TylbQ0gyXU4xW0NIMl1bQ0gyXVtDSF0oW0NIMl1bQ0gyXTEpW05IXUMoPU8pW05IXWMyW2NIXVtjSF1uW2NIXVtjSF0y

> <s_epik_cmdline>
J2VwaWtfcHl0aG9uJywgJy1waCcsICc3LjAnLCAnLXRuJywgJzgnLCAnLW1hJywgJzIwMCcsICctbWV0YWxfYmluZGluZycsICctaW1hZScsICc8aW5maWxlLm1hZT4nLCAnLW9tYWUnLCAnPG91dGZpbGUubWFlPic=

> <r_epik_Ionization_Penalty>
6.23856

> <r_epik_Ionization_Penalty_Charging>
6.13946

> <r_epik_Ionization_Penalty_Neutral>
0.0990993

> <r_epik_State_Penalty>
7.04382

> <r_epik_Charging_Adjusted_Penalty>
13.1833

> <i_epik_Tot_Q>
0

> <i_epik_Tot_abs_Q>
2

> <r_epik_Metal_State_Penalty>
3.07449

> <b_epik_Metal_Only>
1

> <s_lp_Force_Field>
OPLS_2005

> <r_lp_Energy>
14.2578

> <b_lp_Chiralities_Consistent>
1

> <s_lp_Variant>
AV-unprocessed.smi:1929-7

> <Gold.Version>
5.8.1

> <Gold.Id.Protein>
6NUR|6NUR_protein|mol2

> <Gold.PLP.Fitness>
44.7462

> <Gold.PLP.PLP>
-36.5186

> <Gold.PLP.part.hbond>
-2.9211

> <Gold.PLP.part.metal>
0.0000

> <Gold.PLP.part.buried>
-1.2706

> <Gold.PLP.part.nonpolar>
-33.5586

> <Gold.PLP.part.repulsive>
1.2350

> <Gold.PLP.ligand.clash>
0.0000

> <Gold.PLP.ligand.torsion>
0.2051

> <Gold.PLP.Chemscore.Hbond>
2.8560

> <Gold.PLP.Chemscore.CHOScore>
0.0000

> <Gold.PLP.Chemscore.Metal>
0.0000

> <Gold.Chemscore.Hbonds>
donor molecule, donor type, donor heavy atom, donor atom, acceptor molecule, acceptor atom, score
      L1  H     6    42       P1  7957  0.99
      L1  H    10    32       P1  8028  0.98
      L1  H    13    33       P1  8028  0.96

> <Gold.PLP.Chemscore.Internal.Correction>
0.0698

> <Gold.Rescore>
     Score         DG    S(hbond)    S(metal)    S(lipo)     H(rot)  DE(clash)    DE(int)     intcor
     16.67     -22.07       2.74        0.00      99.33       1.63       0.92       4.49       ----

> <Gold.Chemscore.Fitness>
16.6650

> <Gold.Chemscore.DG>
-22.0696

> <Gold.Chemscore.ZeroCoef>
-5.4800

> <Gold.Chemscore.Hbond>
2.7384

> <Gold.Chemscore.Metal>
0.0000

> <Gold.Chemscore.Lipo>
99.3340

> <Gold.Chemscore.Internal_Hbond>
0.0000

> <Gold.Chemscore.DEClash>
0.9188

> <Gold.Chemscore.DEInternal>
4.4858

> <Gold.Chemscore.Rot>
1.6323

> <Gold.Chemscore.Internal.Correction>
   9.000000E+99

> <Gold.Chemscore.Hbonds>
donor molecule, donor type, donor heavy atom, donor atom, acceptor molecule, acceptor atom, score
      L1  H     6    42       P1  7957  0.89
      L1  H    10    32       P1  8028  0.92
      L1  H    13    33       P1  8028  0.92

> <Gold.Chemscore.Hbond.Weighted>
-9.1461

> <Gold.Chemscore.Metal.Weighted>
-0.0000

> <Gold.Chemscore.Lipo.Weighted>
-11.6221

> <Gold.Chemscore.Internal_Hbond.Weighted>
0.0000

> <Gold.Chemscore.DEClash.Weighted>
0.9188

> <Gold.Chemscore.DEInternal.Weighted>
4.4858

> <Gold.Chemscore.Rot.Weighted>
4.1786

> <Gold.Chemscore.Internal.Correction.Weighted>
   9.000000E+99

> <Gold.Protein.RotatedTorsions>
[ 6907 6896 6895 6894 ] final -114.67 input  -60.11 | X-H torsion
[ 7974 7965 7964 7962 ] final  -90.50 input  175.53 | X-H torsion
[ 8008 7997 7996 7995 ] final   88.17 input   59.86 | X-H torsion
[ 10167 10162 10161 10158 ] final  -21.41 input  -65.29 | X-H torsion
[ 10718 10713 10712 10709 ] final   13.46 input   66.30 | X-H torsion
[ 10763 10752 10751 10750 ] final   26.85 input  -60.55 | X-H torsion
[ 11005 11000 10999 10996 ] final   -5.18 input  -57.11 | X-H torsion

> <Gold.Protein.ActiveResidues>
 VAL166  LYS551  ARG553  GLY616  TRP617  ASP618  TYR619  PRO620  LYS621  CYS622 
 ASP623  PHE694  ASN695  SER759  ASP760  ASP761  ALA762  ILE779  LEU786  VAL792 
 PHE793  MET794  SER795  GLU796  ALA797  LYS798  CYS799  TRP800  GLU811  SER814 

> <Gold.Protein.RotatedAtoms>
  150.7919  133.8768  159.3274 H   0  0  0  0  0  0  0  0  0  0  0  0  # atno 6907 bound_to 6896
  151.6604  135.0988  160.0188 H   0  0  0  0  0  0  0  0  0  0  0  0  # atno 6908 bound_to 6896
  152.3995  133.6757  159.6339 H   0  0  0  0  0  0  0  0  0  0  0  0  # atno 6909 bound_to 6896
  145.4256  140.9553  143.2157 H   0  0  0  0  0  0  0  0  0  0  0  0  # atno 7974 bound_to 7965
  155.9844  140.3374  155.6693 H   0  0  0  0  0  0  0  0  0  0  0  0  # atno 8008 bound_to 7997
  155.6505  140.0705  157.2606 H   0  0  0  0  0  0  0  0  0  0  0  0  # atno 8009 bound_to 7997
  154.4201  140.1726  156.1657 H   0  0  0  0  0  0  0  0  0  0  0  0  # atno 8010 bound_to 7997
  140.7282  143.4630  151.0353 H   0  0  0  0  0  0  0  0  0  0  0  0  # atno 10167 bound_to 10162
  157.0249  130.6170  149.5726 H   0  0  0  0  0  0  0  0  0  0  0  0  # atno 10718 bound_to 10713
  153.0595  135.6551  154.0497 H   0  0  0  0  0  0  0  0  0  0  0  0  # atno 10763 bound_to 10752
  154.0168  135.2923  155.3387 H   0  0  0  0  0  0  0  0  0  0  0  0  # atno 10764 bound_to 10752
  154.6926  135.5276  153.8482 H   0  0  0  0  0  0  0  0  0  0  0  0  # atno 10765 bound_to 10752
  140.6883  133.9093  155.8601 H   0  0  0  0  0  0  0  0  0  0  0  0  # atno 11005 bound_to 11000
  144.8216  139.5781  143.6984 LP  0  0  0  0  0  0  0  0  0  0  0  0  # atno 17320 bound_to 7965
  146.2634  139.6463  142.9346 LP  0  0  0  0  0  0  0  0  0  0  0  0  # atno 17321 bound_to 7965
  139.8316  143.7683  152.3180 LP  0  0  0  0  0  0  0  0  0  0  0  0  # atno 17342 bound_to 10162
  139.7801  144.7447  151.0101 LP  0  0  0  0  0  0  0  0  0  0  0  0  # atno 17343 bound_to 10162
  156.0089  130.5179  150.7924 LP  0  0  0  0  0  0  0  0  0  0  0  0  # atno 17370 bound_to 10713
  157.5221  131.0932  151.0065 LP  0  0  0  0  0  0  0  0  0  0  0  0  # atno 17371 bound_to 10713
  141.0262  134.0820  157.4066 LP  0  0  0  0  0  0  0  0  0  0  0  0  # atno 17394 bound_to 11000
  139.8931  135.0128  156.6880 LP  0  0  0  0  0  0  0  0  0  0  0  0  # atno 17395 bound_to 11000

$$$$
