AV-unprocessed.smi:573|AV-procd|sdf|2970|dock1
  -GOLD-   2262023473D 1   1.00000     0.00000
 Structure written by MMmdl.
 45 47  0  0  0  0  0  0  0  0  2 V2000
  147.1732  141.1185  153.5847 C   0  0  0  0  0  0  0  0  0  0  0  0
  148.3522  140.5517  154.3922 C   0  0  1  0  0  0  0  0  0  0  0  0
  149.0288  139.5652  153.6414 O   0  0  0  0  0  0  0  0  0  0  0  0
  149.3531  141.6025  154.9241 C   0  0  0  0  0  0  0  0  0  0  0  0
  150.3264  141.0720  155.8705 N   0  0  0  0  0  0  0  0  0  0  0  0
  150.8033  141.8797  156.9094 C   0  0  0  0  0  0  0  0  0  0  0  0
  150.7057  143.2335  156.9853 N   0  3  0  0  0  0  0  0  0  0  0  0
  151.2861  143.6499  158.1862 C   0  0  0  0  0  0  0  0  0  0  0  0
  151.4280  144.9223  158.7316 C   0  0  0  0  0  0  0  0  0  0  0  0
  152.0616  145.0060  159.9887 C   0  0  0  0  0  0  0  0  0  0  0  0
  152.5254  143.8541  160.6562 C   0  0  0  0  0  0  0  0  0  0  0  0
  152.3800  142.5685  160.0952 C   0  0  0  0  0  0  0  0  0  0  0  0
  151.7560  142.4909  158.8501 C   0  0  0  0  0  0  0  0  0  0  0  0
  151.4442  141.4125  158.0112 N   0  0  0  0  0  0  0  0  0  0  0  0
  151.7921  140.0403  158.4082 C   0  0  0  0  0  0  0  0  0  0  0  0
  150.6786  139.0418  158.0540 C   0  0  1  0  0  0  0  0  0  0  0  0
  150.8221  137.7124  158.8175 C   0  0  0  0  0  0  0  0  0  0  0  0
  149.6639  136.7695  158.4712 C   0  0  0  0  0  0  0  0  0  0  0  0
  148.3274  137.4862  158.6930 C   0  0  0  0  0  0  0  0  0  0  0  0
  148.3092  138.8292  157.9457 C   0  0  0  0  0  0  0  0  0  0  0  0
  149.4138  139.6268  158.3591 O   0  0  0  0  0  0  0  0  0  0  0  0
  146.6496  141.8931  154.1451 H   0  0  0  0  0  0  0  0  0  0  0  0
  146.4504  140.3365  153.3498 H   0  0  0  0  0  0  0  0  0  0  0  0
  147.5025  141.5501  152.6396 H   0  0  0  0  0  0  0  0  0  0  0  0
  147.9417  140.0289  155.2566 H   0  0  0  0  0  0  0  0  0  0  0  0
  149.3018  139.9473  152.8214 H   0  0  0  0  0  0  0  0  0  0  0  0
  149.9303  141.9839  154.0816 H   0  0  0  0  0  0  0  0  0  0  0  0
  148.8338  142.4653  155.3430 H   0  0  0  0  0  0  0  0  0  0  0  0
  150.4134  140.0692  155.9541 H   0  0  0  0  0  0  0  0  0  0  0  0
  151.0692  145.8065  158.2255 H   0  0  0  0  0  0  0  0  0  0  0  0
  152.1916  145.9733  160.4523 H   0  0  0  0  0  0  0  0  0  0  0  0
  153.0017  143.9575  161.6204 H   0  0  0  0  0  0  0  0  0  0  0  0
  152.7329  141.6939  160.6210 H   0  0  0  0  0  0  0  0  0  0  0  0
  152.7162  139.7724  157.8947 H   0  0  0  0  0  0  0  0  0  0  0  0
  152.0170  140.0194  159.4742 H   0  0  0  0  0  0  0  0  0  0  0  0
  150.7245  138.8446  156.9820 H   0  0  0  0  0  0  0  0  0  0  0  0
  151.7736  137.2379  158.5761 H   0  0  0  0  0  0  0  0  0  0  0  0
  150.8295  137.9024  159.8915 H   0  0  0  0  0  0  0  0  0  0  0  0
  149.7436  136.4573  157.4290 H   0  0  0  0  0  0  0  0  0  0  0  0
  149.7159  135.8638  159.0759 H   0  0  0  0  0  0  0  0  0  0  0  0
  147.5013  136.8571  158.3602 H   0  0  0  0  0  0  0  0  0  0  0  0
  148.1783  137.6617  159.7590 H   0  0  0  0  0  0  0  0  0  0  0  0
  148.3411  138.6768  156.8658 H   0  0  0  0  0  0  0  0  0  0  0  0
  147.3864  139.3673  158.1630 H   0  0  0  0  0  0  0  0  0  0  0  0
  150.2671  143.8173  156.2854 H   0  0  0  0  0  0  0  0  0  0  0  0
  1  2  1  0  0  0  0
  1 22  1  0  0  0  0
  1 23  1  0  0  0  0
  1 24  1  0  0  0  0
  2  3  1  0  0  0  0
  2  4  1  0  0  0  0
  2 25  1  0  0  0  0
  3 26  1  0  0  0  0
  4  5  1  0  0  0  0
  4 27  1  0  0  0  0
  4 28  1  0  0  0  0
  5  6  1  0  0  0  0
  5 29  1  0  0  0  0
  6 14  1  0  0  0  0
  6  7  2  0  0  0  0
  7  8  1  0  0  0  0
  7 45  1  0  0  0  0
  8 13  2  0  0  0  0
  8  9  1  0  0  0  0
  9 10  2  0  0  0  0
  9 30  1  0  0  0  0
 10 11  1  0  0  0  0
 10 31  1  0  0  0  0
 11 12  2  0  0  0  0
 11 32  1  0  0  0  0
 12 13  1  0  0  0  0
 12 33  1  0  0  0  0
 13 14  1  0  0  0  0
 14 15  1  0  0  0  0
 15 16  1  0  0  0  0
 15 34  1  0  0  0  0
 15 35  1  0  0  0  0
 16 21  1  0  0  0  0
 16 17  1  0  0  0  0
 16 36  1  0  0  0  0
 17 18  1  0  0  0  0
 17 37  1  0  0  0  0
 17 38  1  0  0  0  0
 18 19  1  0  0  0  0
 18 39  1  0  0  0  0
 18 40  1  0  0  0  0
 19 20  1  0  0  0  0
 19 41  1  0  0  0  0
 19 42  1  0  0  0  0
 20 21  1  0  0  0  0
 20 43  1  0  0  0  0
 20 44  1  0  0  0  0
M  CHG  1   7   1
M  END
> <s_m_source_file>
AV-unprocessed.smi

> <i_m_source_file_index>
573

> <i_lp_mmshare_version>
43012

> <i_f3d_flags>
0

> <s_epik_input>
W0NIM11bQ0BIXShbT0hdKVtDSDJdW05IXWMobjEpbihjKGMxMilbY0hdW2NIXVtjSF1bY0hdMilbQ0gyXVtDQEBIXTNbQ0gyXVtDSDJdW0NIMl1bQ0gyXU8z

> <s_epik_cmdline>
J2VwaWtfcHl0aG9uJywgJy1waCcsICc3LjAnLCAnLXRuJywgJzgnLCAnLW1hJywgJzIwMCcsICctbWV0YWxfYmluZGluZycsICctaW1hZScsICc8aW5maWxlLm1hZT4nLCAnLW9tYWUnLCAnPG91dGZpbGUubWFlPic=

> <r_epik_Ionization_Penalty>
0.0692245

> <r_epik_Ionization_Penalty_Charging>
0.0692223

> <r_epik_Ionization_Penalty_Neutral>
2.1869e-06

> <r_epik_State_Penalty>
0.0606215

> <r_epik_Charging_Adjusted_Penalty>
0.129844

> <i_epik_Tot_Q>
1

> <i_epik_Tot_abs_Q>
1

> <r_epik_Metal_State_Penalty>
2.77811

> <b_epik_Metal_Only>
0

> <s_lp_Force_Field>
OPLS_2005

> <r_lp_Energy>
24.0167

> <b_lp_Chiralities_Consistent>
1

> <s_lp_Variant>
AV-unprocessed.smi:573-4

> <Gold.Version>
5.8.1

> <Gold.Id.Protein>
6NUR|6NUR_protein|mol2

> <Gold.PLP.Fitness>
52.5993

> <Gold.PLP.PLP>
-44.9012

> <Gold.PLP.part.hbond>
-1.8283

> <Gold.PLP.part.metal>
0.0000

> <Gold.PLP.part.buried>
-8.0545

> <Gold.PLP.part.nonpolar>
-35.9963

> <Gold.PLP.part.repulsive>
0.1389

> <Gold.PLP.ligand.clash>
0.0000

> <Gold.PLP.ligand.torsion>
0.6509

> <Gold.PLP.Chemscore.Hbond>
2.9840

> <Gold.PLP.Chemscore.CHOScore>
0.0000

> <Gold.PLP.Chemscore.Metal>
0.0000

> <Gold.Chemscore.Hbonds>
donor molecule, donor type, donor heavy atom, donor atom, acceptor molecule, acceptor atom, score
      L1  H     3    26       P1  7957  1.00
      L1  H     7    45       P1  8028  2.00

> <Gold.PLP.Chemscore.Internal.Correction>
0.0479

> <Gold.Rescore>
     Score         DG    S(hbond)    S(metal)    S(lipo)     H(rot)  DE(clash)    DE(int)     intcor
     18.42     -19.66       1.97        0.00     110.14       2.07       0.00       1.23       ----

> <Gold.Chemscore.Fitness>
18.4224

> <Gold.Chemscore.DG>
-19.6572

> <Gold.Chemscore.ZeroCoef>
-5.4800

> <Gold.Chemscore.Hbond>
1.9728

> <Gold.Chemscore.Metal>
0.0000

> <Gold.Chemscore.Lipo>
110.1448

> <Gold.Chemscore.Internal_Hbond>
0.0000

> <Gold.Chemscore.DEClash>
0.0029

> <Gold.Chemscore.DEInternal>
1.2318

> <Gold.Chemscore.Rot>
2.0699

> <Gold.Chemscore.Internal.Correction>
   9.000000E+99

> <Gold.Chemscore.Hbonds>
donor molecule, donor type, donor heavy atom, donor atom, acceptor molecule, acceptor atom, score
      L1  H     3    26       P1  7957  0.99
      L1  H     7    45       P1  8028  0.96

> <Gold.Chemscore.Hbond.Weighted>
-6.5893

> <Gold.Chemscore.Metal.Weighted>
-0.0000

> <Gold.Chemscore.Lipo.Weighted>
-12.8869

> <Gold.Chemscore.Internal_Hbond.Weighted>
0.0000

> <Gold.Chemscore.DEClash.Weighted>
0.0029

> <Gold.Chemscore.DEInternal.Weighted>
1.2318

> <Gold.Chemscore.Rot.Weighted>
5.2991

> <Gold.Chemscore.Internal.Correction.Weighted>
   9.000000E+99

> <Gold.Protein.RotatedTorsions>
[ 6907 6896 6895 6894 ] final  -58.89 input  -60.11 | X-H torsion
[ 7974 7965 7964 7962 ] final   21.55 input  175.53 | X-H torsion
[ 8008 7997 7996 7995 ] final   48.79 input   59.86 | X-H torsion
[ 10167 10162 10161 10158 ] final   70.34 input  -65.29 | X-H torsion
[ 10718 10713 10712 10709 ] final  175.97 input   66.30 | X-H torsion
[ 10763 10752 10751 10750 ] final   18.58 input  -60.55 | X-H torsion
[ 11005 11000 10999 10996 ] final -168.09 input  -57.11 | X-H torsion

> <Gold.Protein.ActiveResidues>
 VAL166  LYS551  ARG553  GLY616  TRP617  ASP618  TYR619  PRO620  LYS621  CYS622 
 ASP623  PHE694  ASN695  SER759  ASP760  ASP761  ALA762  ILE779  LEU786  VAL792 
 PHE793  MET794  SER795  GLU796  ALA797  LYS798  CYS799  TRP800  GLU811  SER814 

> <Gold.Protein.RotatedAtoms>
  150.7972  134.7039  159.6565 H   0  0  0  0  0  0  0  0  0  0  0  0  # atno 6907 bound_to 6896
  152.4085  134.6162  160.0048 H   0  0  0  0  0  0  0  0  0  0  0  0  # atno 6908 bound_to 6896
  151.6412  133.3289  159.3167 H   0  0  0  0  0  0  0  0  0  0  0  0  # atno 6909 bound_to 6896
  146.2067  139.8012  142.8721 H   0  0  0  0  0  0  0  0  0  0  0  0  # atno 7974 bound_to 7965
  155.3915  140.3433  155.4251 H   0  0  0  0  0  0  0  0  0  0  0  0  # atno 8008 bound_to 7997
  156.1555  140.1584  156.8732 H   0  0  0  0  0  0  0  0  0  0  0  0  # atno 8009 bound_to 7997
  154.5091  140.0794  156.7935 H   0  0  0  0  0  0  0  0  0  0  0  0  # atno 8010 bound_to 7997
  140.0580  144.5257  150.7315 H   0  0  0  0  0  0  0  0  0  0  0  0  # atno 10167 bound_to 10162
  156.9271  130.9959  151.2994 H   0  0  0  0  0  0  0  0  0  0  0  0  # atno 10718 bound_to 10713
  153.1236  135.6725  153.9294 H   0  0  0  0  0  0  0  0  0  0  0  0  # atno 10763 bound_to 10752
  153.8801  135.3059  155.3446 H   0  0  0  0  0  0  0  0  0  0  0  0  # atno 10764 bound_to 10752
  154.7645  135.4971  153.9607 H   0  0  0  0  0  0  0  0  0  0  0  0  # atno 10765 bound_to 10752
  140.5459  134.5476  157.5111 H   0  0  0  0  0  0  0  0  0  0  0  0  # atno 11005 bound_to 11000
  145.3295  141.0263  143.3455 LP  0  0  0  0  0  0  0  0  0  0  0  0  # atno 17320 bound_to 7965
  144.8809  139.4905  143.6723 LP  0  0  0  0  0  0  0  0  0  0  0  0  # atno 17321 bound_to 7965
  140.7186  143.2567  151.4354 LP  0  0  0  0  0  0  0  0  0  0  0  0  # atno 17342 bound_to 10162
  139.5912  144.1496  152.2090 LP  0  0  0  0  0  0  0  0  0  0  0  0  # atno 17343 bound_to 10162
  157.5871  130.8417  149.8605 LP  0  0  0  0  0  0  0  0  0  0  0  0  # atno 17370 bound_to 10713
  156.0464  130.3727  150.1307 LP  0  0  0  0  0  0  0  0  0  0  0  0  # atno 17371 bound_to 10713
  139.9480  134.7668  156.0516 LP  0  0  0  0  0  0  0  0  0  0  0  0  # atno 17394 bound_to 11000
  141.1200  133.6616  156.3190 LP  0  0  0  0  0  0  0  0  0  0  0  0  # atno 17395 bound_to 11000

$$$$
