AV-unprocessed.smi:55|AV-procd|sdf|570|dock10
  -GOLD-   2262016473D 1   1.00000     0.00000
 Structure written by MMmdl.
 30 31  0  0  0  0  0  0  0  0  2 V2000
  151.8756  144.7288  158.3267 C   0  0  0  0  0  0  0  0  0  0  0  0
  151.5153  143.2643  158.5046 C   0  0  0  0  0  0  0  0  0  0  0  0
  150.7280  142.6034  157.6273 C   0  0  0  0  0  0  0  0  0  0  0  0
  150.3997  141.2699  157.7943 N   0  0  0  0  0  0  0  0  0  0  0  0
  149.5094  140.5713  156.7915 C   0  0  1  0  0  0  0  0  0  0  0  0
  149.2289  141.4771  155.5903 C   0  0  0  0  0  0  0  0  0  0  0  0
  149.2701  140.4856  154.4462 C   0  0  1  0  0  0  0  0  0  0  0  0
  149.6016  141.1303  153.2334 O   0  0  0  0  0  0  0  0  0  0  0  0
  150.3583  139.5130  154.9112 C   0  0  2  0  0  0  0  0  0  0  0  0
  150.2680  138.1050  154.3029 C   0  0  0  0  0  0  0  0  0  0  0  0
  151.5392  137.4907  154.2769 O   0  0  0  0  0  0  0  0  0  0  0  0
  150.1626  139.4275  156.3208 O   0  0  0  0  0  0  0  0  0  0  0  0
  150.8775  140.5666  158.9313 C   0  0  0  0  0  0  0  0  0  0  0  0
  150.5394  139.3917  159.0760 O   0  0  0  0  0  0  0  0  0  0  0  0
  151.6803  141.2228  159.8171 N   0  5  0  0  0  0  0  0  0  0  0  0
  152.0310  142.5324  159.6676 C   0  0  0  0  0  0  0  0  0  0  0  0
  152.7589  143.1108  160.4738 O   0  0  0  0  0  0  0  0  0  0  0  0
  148.6087  140.2438  157.3114 H   0  0  0  0  0  0  0  0  0  0  0  0
  148.3088  139.9780  154.3561 H   0  0  0  0  0  0  0  0  0  0  0  0
  151.3476  139.9408  154.7396 H   0  0  0  0  0  0  0  0  0  0  0  0
  151.4266  145.1403  157.4223 H   0  0  0  0  0  0  0  0  0  0  0  0
  152.9567  144.8487  158.2516 H   0  0  0  0  0  0  0  0  0  0  0  0
  151.5222  145.3142  159.1762 H   0  0  0  0  0  0  0  0  0  0  0  0
  150.3403  143.1377  156.7735 H   0  0  0  0  0  0  0  0  0  0  0  0
  148.2748  141.9939  155.6973 H   0  0  0  0  0  0  0  0  0  0  0  0
  150.0258  142.2167  155.4921 H   0  0  0  0  0  0  0  0  0  0  0  0
  149.8114  140.4678  152.5925 H   0  0  0  0  0  0  0  0  0  0  0  0
  149.6018  137.4834  154.9014 H   0  0  0  0  0  0  0  0  0  0  0  0
  149.8557  138.1399  153.2942 H   0  0  0  0  0  0  0  0  0  0  0  0
  151.6537  137.0740  153.4363 H   0  0  0  0  0  0  0  0  0  0  0  0
  1  2  1  0  0  0  0
  1 21  1  0  0  0  0
  1 22  1  0  0  0  0
  1 23  1  0  0  0  0
  2 16  1  0  0  0  0
  2  3  2  0  0  0  0
  3  4  1  0  0  0  0
  3 24  1  0  0  0  0
  4  5  1  0  0  0  0
  4 13  1  0  0  0  0
  5 18  1  0  0  0  0
  5 12  1  0  0  0  0
  5  6  1  0  0  0  0
  6  7  1  0  0  0  0
  6 25  1  0  0  0  0
  6 26  1  0  0  0  0
  7 19  1  0  0  0  0
  7  8  1  0  0  0  0
  7  9  1  0  0  0  0
  8 27  1  0  0  0  0
  9 20  1  0  0  0  0
  9 10  1  0  0  0  0
  9 12  1  0  0  0  0
 10 11  1  0  0  0  0
 10 28  1  0  0  0  0
 10 29  1  0  0  0  0
 11 30  1  0  0  0  0
 13 14  2  0  0  0  0
 13 15  1  0  0  0  0
 15 16  1  0  0  0  0
 16 17  2  0  0  0  0
M  CHG  1  15  -1
M  END
> <s_m_source_file>
AV-unprocessed.smi

> <i_m_source_file_index>
55

> <i_lp_mmshare_version>
43012

> <i_f3d_flags>
0

> <s_epik_input>
Tz1jMVtuSF1jKD1PKW4oW2NIXWMxW0NIM10pW0NAQEhdMltDSDJdW0NAQEhdKFtPSF0pW0NAQEhdKE8yKVtDSDJdW09IXQ==

> <s_epik_cmdline>
J2VwaWtfcHl0aG9uJywgJy1waCcsICc3LjAnLCAnLXRuJywgJzgnLCAnLW1hJywgJzIwMCcsICctbWV0YWxfYmluZGluZycsICctaW1hZScsICc8aW5maWxlLm1hZT4nLCAnLW9tYWUnLCAnPG91dGZpbGUubWFlPic=

> <r_lp_tautomer_probability>
0.999537

> <r_epik_Ionization_Penalty>
3.66603

> <r_epik_Ionization_Penalty_Charging>
1.09773e-07

> <r_epik_Ionization_Penalty_Neutral>
3.66603

> <r_epik_State_Penalty>
3.66562

> <r_epik_Charging_Adjusted_Penalty>
3.66562

> <i_epik_Tot_Q>
-1

> <i_epik_Tot_abs_Q>
1

> <r_epik_Metal_State_Penalty>
0.234536

> <b_epik_Metal_Only>
1

> <s_epik_Chemistry_Notes>
This compound contains an acetal/aminal-like group ( X-CH(R)-Y where X, Y are N, S, or O) that may be acid/base labile, releasing an aldehyde.

> <s_lp_Force_Field>
OPLS_2005

> <r_lp_Energy>
34.2111

> <b_lp_Chiralities_Consistent>
1

> <s_lp_Variant>
AV-unprocessed.smi:55-10

> <Gold.Version>
5.8.1

> <Gold.Id.Protein>
6NUR|6NUR_protein|mol2

> <Gold.PLP.Fitness>
45.0304

> <Gold.PLP.PLP>
-34.6644

> <Gold.PLP.part.hbond>
-3.5374

> <Gold.PLP.part.metal>
0.0000

> <Gold.PLP.part.buried>
-4.6158

> <Gold.PLP.part.nonpolar>
-26.5215

> <Gold.PLP.part.repulsive>
0.0000

> <Gold.PLP.ligand.clash>
0.0000

> <Gold.PLP.ligand.torsion>
0.4001

> <Gold.PLP.Chemscore.Hbond>
2.7193

> <Gold.PLP.Chemscore.CHOScore>
1.0000

> <Gold.PLP.Chemscore.Metal>
0.0000

> <Gold.Chemscore.Hbonds>
donor molecule, donor type, donor heavy atom, donor atom, acceptor molecule, acceptor atom, score
      L1  H     8    27       P1  7957  0.82
      L1  H    11    30       P1  7949  0.37
      P1  H  8011  8017       L1     8  0.90
      L1  C     3    24       P1  8028  1.00

> <Gold.PLP.Chemscore.Internal.Correction>
0.0085

> <Gold.Rescore>
     Score         DG    S(hbond)    S(metal)    S(lipo)     H(rot)  DE(clash)    DE(int)     intcor
     10.56     -12.22       1.83        0.00      64.02       2.69       0.10       1.55       ----

> <Gold.Chemscore.Fitness>
10.5642

> <Gold.Chemscore.DG>
-12.2184

> <Gold.Chemscore.ZeroCoef>
-5.4800

> <Gold.Chemscore.Hbond>
1.8345

> <Gold.Chemscore.Metal>
0.0000

> <Gold.Chemscore.Lipo>
64.0197

> <Gold.Chemscore.Internal_Hbond>
0.0000

> <Gold.Chemscore.DEClash>
0.1012

> <Gold.Chemscore.DEInternal>
1.5530

> <Gold.Chemscore.Rot>
2.6871

> <Gold.Chemscore.Internal.Correction>
   9.000000E+99

> <Gold.Chemscore.Hbonds>
donor molecule, donor type, donor heavy atom, donor atom, acceptor molecule, acceptor atom, score
      L1  H     8    27       P1  7957  0.77
      L1  H    11    30       P1  7949  0.35
      P1  H  8011  8017       L1     8  0.17

> <Gold.Chemscore.Hbond.Weighted>
-6.1272

> <Gold.Chemscore.Metal.Weighted>
-0.0000

> <Gold.Chemscore.Lipo.Weighted>
-7.4903

> <Gold.Chemscore.Internal_Hbond.Weighted>
0.0000

> <Gold.Chemscore.DEClash.Weighted>
0.1012

> <Gold.Chemscore.DEInternal.Weighted>
1.5530

> <Gold.Chemscore.Rot.Weighted>
6.8791

> <Gold.Chemscore.Internal.Correction.Weighted>
   9.000000E+99

> <Gold.Protein.RotatedTorsions>
[ 6907 6896 6895 6894 ] final   62.55 input  -60.11 | X-H torsion
[ 7974 7965 7964 7962 ] final   28.92 input  175.53 | X-H torsion
[ 8008 7997 7996 7995 ] final -117.49 input   59.86 | X-H torsion
[ 10167 10162 10161 10158 ] final  100.16 input  -65.29 | X-H torsion
[ 10718 10713 10712 10709 ] final  167.68 input   66.30 | X-H torsion
[ 10763 10752 10751 10750 ] final  157.75 input  -60.55 | X-H torsion
[ 11005 11000 10999 10996 ] final   15.28 input  -57.11 | X-H torsion

> <Gold.Protein.ActiveResidues>
 VAL166  LYS551  ARG553  GLY616  TRP617  ASP618  TYR619  PRO620  LYS621  CYS622 
 ASP623  PHE694  ASN695  SER759  ASP760  ASP761  ALA762  ILE779  LEU786  VAL792 
 PHE793  MET794  SER795  GLU796  ALA797  LYS798  CYS799  TRP800  GLU811  SER814 

> <Gold.Protein.RotatedAtoms>
  152.4181  134.6005  159.9998 H   0  0  0  0  0  0  0  0  0  0  0  0  # atno 6907 bound_to 6896
  151.6163  133.3337  159.3086 H   0  0  0  0  0  0  0  0  0  0  0  0  # atno 6908 bound_to 6896
  150.8069  134.7239  159.6718 H   0  0  0  0  0  0  0  0  0  0  0  0  # atno 6909 bound_to 6896
  146.1701  139.6991  142.8973 H   0  0  0  0  0  0  0  0  0  0  0  0  # atno 7974 bound_to 7965
  155.0845  140.0394  157.2649 H   0  0  0  0  0  0  0  0  0  0  0  0  # atno 8008 bound_to 7997
  154.6880  140.2647  155.6816 H   0  0  0  0  0  0  0  0  0  0  0  0  # atno 8009 bound_to 7997
  156.2719  140.2765  156.1449 H   0  0  0  0  0  0  0  0  0  0  0  0  # atno 8010 bound_to 7997
  139.7552  144.6972  151.0373 H   0  0  0  0  0  0  0  0  0  0  0  0  # atno 10167 bound_to 10162
  157.0480  131.0305  151.2691 H   0  0  0  0  0  0  0  0  0  0  0  0  # atno 10718 bound_to 10713
  154.2052  135.2788  155.2977 H   0  0  0  0  0  0  0  0  0  0  0  0  # atno 10763 bound_to 10752
  154.5822  135.5586  153.7200 H   0  0  0  0  0  0  0  0  0  0  0  0  # atno 10764 bound_to 10752
  153.0078  135.6347  154.2191 H   0  0  0  0  0  0  0  0  0  0  0  0  # atno 10765 bound_to 10752
  140.4601  134.1136  155.7715 H   0  0  0  0  0  0  0  0  0  0  0  0  # atno 11005 bound_to 11000
  145.4362  141.0419  143.2883 LP  0  0  0  0  0  0  0  0  0  0  0  0  # atno 17320 bound_to 7965
  144.8151  139.5892  143.7012 LP  0  0  0  0  0  0  0  0  0  0  0  0  # atno 17321 bound_to 7965
  140.7802  143.4761  151.0080 LP  0  0  0  0  0  0  0  0  0  0  0  0  # atno 17342 bound_to 10162
  139.8448  143.7515  152.3179 LP  0  0  0  0  0  0  0  0  0  0  0  0  # atno 17343 bound_to 10162
  157.5053  130.7905  149.7647 LP  0  0  0  0  0  0  0  0  0  0  0  0  # atno 17370 bound_to 10713
  156.0017  130.3877  150.2582 LP  0  0  0  0  0  0  0  0  0  0  0  0  # atno 17371 bound_to 10713
  141.1625  133.8765  157.1808 LP  0  0  0  0  0  0  0  0  0  0  0  0  # atno 17394 bound_to 11000
  139.9951  135.0050  157.0064 LP  0  0  0  0  0  0  0  0  0  0  0  0  # atno 17395 bound_to 11000

$$$$
