AV-unprocessed.smi:855|AV-procd|sdf|3957|dock7
  -GOLD-   22720 1423D 1   1.00000     0.00000
 Structure written by MMmdl.
 35 36  0  0  0  0  0  0  0  0  3 V2000
  151.1698  141.0823  156.2458 C   0  0  0  0  0  0  0  0  0  0  0  0
  151.4650  139.7227  155.7110 C   0  0  0  0  0  0  0  0  0  0  0  0
  150.6658  138.6947  155.2980 C   0  0  0  0  0  0  0  0  0  0  0  0
  151.5982  137.6910  154.9179 C   0  0  0  0  0  0  0  0  0  0  0  0
  151.2973  136.4783  154.4280 N   0  5  0  0  0  0  0  0  0  0  0  0
  150.4007  135.6912  155.0649 C   0  0  0  0  0  0  0  0  0  0  0  0
  150.4121  135.3843  156.2593 O   0  0  0  0  0  0  0  0  0  0  0  0
  149.4285  135.2276  154.2688 N   0  0  0  0  0  0  0  0  0  0  0  0
  148.3498  134.3490  154.6977 C   0  0  0  0  0  0  0  0  0  0  0  0
  147.7903  133.5591  153.5062 C   0  0  0  0  0  0  0  0  0  0  0  0
  147.0760  134.4365  152.5503 N   0  3  0  0  0  0  0  0  0  0  0  0
  146.5298  133.7584  151.3585 C   0  0  0  0  0  0  0  0  0  0  0  0
  145.4797  134.7165  150.7899 C   0  0  0  0  0  0  0  0  0  0  0  0
  145.0853  135.6312  151.9566 C   0  0  0  0  0  0  0  0  0  0  0  0
  145.9487  135.1825  153.1397 C   0  0  0  0  0  0  0  0  0  0  0  0
  152.8525  138.0821  155.0700 N   0  0  0  0  0  0  0  0  0  0  0  0
  152.7758  139.3816  155.5854 O   0  0  0  0  0  0  0  0  0  0  0  0
  150.4654  141.6064  155.5996 H   0  0  0  0  0  0  0  0  0  0  0  0
  152.0767  141.6836  156.3136 H   0  0  0  0  0  0  0  0  0  0  0  0
  150.7320  141.0173  157.2419 H   0  0  0  0  0  0  0  0  0  0  0  0
  149.5868  138.6633  155.2752 H   0  0  0  0  0  0  0  0  0  0  0  0
  149.4516  135.4983  153.2964 H   0  0  0  0  0  0  0  0  0  0  0  0
  148.7239  133.6627  155.4590 H   0  0  0  0  0  0  0  0  0  0  0  0
  147.5683  134.9537  155.1598 H   0  0  0  0  0  0  0  0  0  0  0  0
  148.5879  133.0193  152.9931 H   0  0  0  0  0  0  0  0  0  0  0  0
  147.0904  132.8083  153.8762 H   0  0  0  0  0  0  0  0  0  0  0  0
  147.3069  133.5204  150.6316 H   0  0  0  0  0  0  0  0  0  0  0  0
  146.0496  132.8249  151.6571 H   0  0  0  0  0  0  0  0  0  0  0  0
  145.9110  135.3123  149.9843 H   0  0  0  0  0  0  0  0  0  0  0  0
  144.6252  134.1785  150.3783 H   0  0  0  0  0  0  0  0  0  0  0  0
  145.3002  136.6698  151.7021 H   0  0  0  0  0  0  0  0  0  0  0  0
  144.0224  135.5637  152.1903 H   0  0  0  0  0  0  0  0  0  0  0  0
  145.3693  134.5174  153.7826 H   0  0  0  0  0  0  0  0  0  0  0  0
  146.2946  136.0198  153.7466 H   0  0  0  0  0  0  0  0  0  0  0  0
  147.7339  135.1281  152.2196 H   0  0  0  0  0  0  0  0  0  0  0  0
  1  2  1  0  0  0  0
  1 18  1  0  0  0  0
  1 19  1  0  0  0  0
  1 20  1  0  0  0  0
  2 17  1  0  0  0  0
  2  3  2  0  0  0  0
  3  4  1  0  0  0  0
  3 21  1  0  0  0  0
  4  5  1  0  0  0  0
  4 16  2  0  0  0  0
  5  6  1  0  0  0  0
  6  7  2  0  0  0  0
  6  8  1  0  0  0  0
  8  9  1  0  0  0  0
  8 22  1  0  0  0  0
  9 10  1  0  0  0  0
  9 23  1  0  0  0  0
  9 24  1  0  0  0  0
 10 11  1  0  0  0  0
 10 25  1  0  0  0  0
 10 26  1  0  0  0  0
 11 15  1  0  0  0  0
 11 12  1  0  0  0  0
 11 35  1  0  0  0  0
 12 13  1  0  0  0  0
 12 27  1  0  0  0  0
 12 28  1  0  0  0  0
 13 14  1  0  0  0  0
 13 29  1  0  0  0  0
 13 30  1  0  0  0  0
 14 15  1  0  0  0  0
 14 31  1  0  0  0  0
 14 32  1  0  0  0  0
 15 33  1  0  0  0  0
 15 34  1  0  0  0  0
 16 17  1  0  0  0  0
M  CHG  1   5  -1
M  CHG  1  11   1
M  END
> <s_m_source_file>
AV-unprocessed.smi

> <i_m_source_file_index>
855

> <i_lp_mmshare_version>
43012

> <i_f3d_flags>
0

> <s_epik_input>
W0NIM11jMVtjSF1jKG5vMSlbTkhdQyg9TylbTkhdW0NIMl1bQ0gyXU4yW0NIMl1bQ0gyXVtDSDJdW0NIMl0y

> <s_epik_cmdline>
J2VwaWtfcHl0aG9uJywgJy1waCcsICc3LjAnLCAnLXRuJywgJzgnLCAnLW1hJywgJzIwMCcsICctbWV0YWxfYmluZGluZycsICctaW1hZScsICc8aW5maWxlLm1hZT4nLCAnLW9tYWUnLCAnPG91dGZpbGUubWFlPic=

> <r_epik_Ionization_Penalty>
6.22372

> <r_epik_Ionization_Penalty_Charging>
6.22363

> <r_epik_Ionization_Penalty_Neutral>
9.36971e-05

> <r_epik_State_Penalty>
6.22291

> <r_epik_Charging_Adjusted_Penalty>
12.4465

> <i_epik_Tot_Q>
0

> <i_epik_Tot_abs_Q>
2

> <r_epik_Metal_State_Penalty>
2.16624

> <b_epik_Metal_Only>
1

> <s_lp_Force_Field>
OPLS_2005

> <r_lp_Energy>
15.2309

> <b_lp_Chiralities_Consistent>
1

> <s_lp_Variant>
AV-unprocessed.smi:855-2

> <Gold.Version>
5.8.1

> <Gold.Id.Protein>
6NUR|6NUR_protein|mol2

> <Gold.PLP.Fitness>
43.6543

> <Gold.PLP.PLP>
-28.3868

> <Gold.PLP.part.hbond>
-4.6893

> <Gold.PLP.part.metal>
0.0000

> <Gold.PLP.part.buried>
-4.4750

> <Gold.PLP.part.nonpolar>
-20.3727

> <Gold.PLP.part.repulsive>
1.3934

> <Gold.PLP.ligand.clash>
0.0000

> <Gold.PLP.ligand.torsion>
1.0838

> <Gold.PLP.Chemscore.Hbond>
5.8000

> <Gold.PLP.Chemscore.CHOScore>
0.0000

> <Gold.PLP.Chemscore.Metal>
0.0000

> <Gold.Chemscore.Hbonds>
donor molecule, donor type, donor heavy atom, donor atom, acceptor molecule, acceptor atom, score
      L1  H     8    22       P1  7948  0.75
      L1  H    11    35       P1  7948  2.00
      P1  H  7997  8008       L1    17  1.00
      P1  H 10752 10765       L1     5  2.00

> <Gold.PLP.Chemscore.Internal.Correction>
0.0352

> <Gold.Rescore>
     Score         DG    S(hbond)    S(metal)    S(lipo)     H(rot)  DE(clash)    DE(int)     intcor
     14.85     -16.07       2.80        0.00      44.86       1.57       0.08       1.13       ----

> <Gold.Chemscore.Fitness>
14.8525

> <Gold.Chemscore.DG>
-16.0681

> <Gold.Chemscore.ZeroCoef>
-5.4800

> <Gold.Chemscore.Hbond>
2.8044

> <Gold.Chemscore.Metal>
0.0000

> <Gold.Chemscore.Lipo>
44.8575

> <Gold.Chemscore.Internal_Hbond>
0.0000

> <Gold.Chemscore.DEClash>
0.0843

> <Gold.Chemscore.DEInternal>
1.1312

> <Gold.Chemscore.Rot>
1.5731

> <Gold.Chemscore.Internal.Correction>
   9.000000E+99

> <Gold.Chemscore.Hbonds>
donor molecule, donor type, donor heavy atom, donor atom, acceptor molecule, acceptor atom, score
      L1  H     8    22       P1  7948  0.09
      L1  H    11    35       P1  7948  0.95
      P1  H  7997  8008       L1    17  0.93
      P1  H 10752 10765       L1     5  0.15

> <Gold.Chemscore.Hbond.Weighted>
-9.3668

> <Gold.Chemscore.Metal.Weighted>
-0.0000

> <Gold.Chemscore.Lipo.Weighted>
-5.2483

> <Gold.Chemscore.Internal_Hbond.Weighted>
0.0000

> <Gold.Chemscore.DEClash.Weighted>
0.0843

> <Gold.Chemscore.DEInternal.Weighted>
1.1312

> <Gold.Chemscore.Rot.Weighted>
4.0271

> <Gold.Chemscore.Internal.Correction.Weighted>
   9.000000E+99

> <Gold.Protein.RotatedTorsions>
[ 6907 6896 6895 6894 ] final   42.68 input  -60.11 | X-H torsion
[ 7974 7965 7964 7962 ] final -166.61 input  175.53 | X-H torsion
[ 8008 7997 7996 7995 ] final  -28.10 input   59.86 | X-H torsion
[ 10167 10162 10161 10158 ] final   97.47 input  -65.29 | X-H torsion
[ 10718 10713 10712 10709 ] final   86.41 input   66.30 | X-H torsion
[ 10763 10752 10751 10750 ] final -176.84 input  -60.55 | X-H torsion
[ 11005 11000 10999 10996 ] final  172.29 input  -57.11 | X-H torsion

> <Gold.Protein.ActiveResidues>
 VAL166  LYS551  ARG553  GLY616  TRP617  ASP618  TYR619  PRO620  LYS621  CYS622 
 ASP623  PHE694  ASN695  SER759  ASP760  ASP761  ALA762  ILE779  LEU786  VAL792 
 PHE793  MET794  SER795  GLU796  ALA797  LYS798  CYS799  TRP800  GLU811  SER814 

> <Gold.Protein.RotatedAtoms>
  152.2109  134.8502  160.0497 H   0  0  0  0  0  0  0  0  0  0  0  0  # atno 6907 bound_to 6896
  151.9321  133.3609  159.3943 H   0  0  0  0  0  0  0  0  0  0  0  0  # atno 6908 bound_to 6896
  150.6976  134.4451  159.5354 H   0  0  0  0  0  0  0  0  0  0  0  0  # atno 6909 bound_to 6896
  144.7241  140.2640  143.6260 H   0  0  0  0  0  0  0  0  0  0  0  0  # atno 7974 bound_to 7965
  154.4347  140.1854  156.1036 H   0  0  0  0  0  0  0  0  0  0  0  0  # atno 8008 bound_to 7997
  156.0273  140.3334  155.7076 H   0  0  0  0  0  0  0  0  0  0  0  0  # atno 8009 bound_to 7997
  155.5891  140.0629  157.2754 H   0  0  0  0  0  0  0  0  0  0  0  0  # atno 8010 bound_to 7997
  139.7798  144.6892  151.0039 H   0  0  0  0  0  0  0  0  0  0  0  0  # atno 10167 bound_to 10162
  157.6928  131.0214  150.2969 H   0  0  0  0  0  0  0  0  0  0  0  0  # atno 10718 bound_to 10713
  154.5675  135.2825  155.0860 H   0  0  0  0  0  0  0  0  0  0  0  0  # atno 10763 bound_to 10752
  154.2245  135.6385  153.5159 H   0  0  0  0  0  0  0  0  0  0  0  0  # atno 10764 bound_to 10752
  153.0047  135.5522  154.6288 H   0  0  0  0  0  0  0  0  0  0  0  0  # atno 10765 bound_to 10752
  140.3281  134.7381  157.4114 H   0  0  0  0  0  0  0  0  0  0  0  0  # atno 11005 bound_to 11000
  145.8108  139.2002  143.1994 LP  0  0  0  0  0  0  0  0  0  0  0  0  # atno 17320 bound_to 7965
  146.0598  140.7983  142.9740 LP  0  0  0  0  0  0  0  0  0  0  0  0  # atno 17321 bound_to 7965
  140.7818  143.4496  151.0432 LP  0  0  0  0  0  0  0  0  0  0  0  0  # atno 17342 bound_to 10162
  139.8177  143.7863  152.3175 LP  0  0  0  0  0  0  0  0  0  0  0  0  # atno 17343 bound_to 10162
  156.3491  130.3828  149.7344 LP  0  0  0  0  0  0  0  0  0  0  0  0  # atno 17370 bound_to 10713
  156.4828  130.8049  151.3062 LP  0  0  0  0  0  0  0  0  0  0  0  0  # atno 17371 bound_to 10713
  140.0884  134.5635  155.8469 LP  0  0  0  0  0  0  0  0  0  0  0  0  # atno 17394 bound_to 11000
  141.2070  133.6660  156.6279 LP  0  0  0  0  0  0  0  0  0  0  0  0  # atno 17395 bound_to 11000

$$$$
