AV-unprocessed.smi:2451|AV-procd|sdf|9673|dock7
  -GOLD-   2272013313D 1   1.00000     0.00000
 Structure written by MMmdl.
 38 39  0  0  0  0  0  0  0  0  1 V2000
  150.4158  144.6283  161.0382 C   0  0  0  0  0  0  0  0  0  0  0  0
  151.8681  144.7354  160.5285 C   0  0  2  0  0  0  0  0  0  0  0  0
  151.9350  145.4398  159.1585 C   0  0  0  0  0  0  0  0  0  0  0  0
  151.4040  144.5504  158.0236 C   0  0  0  0  0  0  0  0  0  0  0  0
  152.1601  143.2161  157.9711 C   0  0  0  0  0  0  0  0  0  0  0  0
  152.1285  142.4817  159.3252 C   0  0  1  0  0  0  0  0  0  0  0  0
  152.9621  141.2799  159.2243 N   0  0  0  0  0  0  0  0  0  0  0  0
  152.3031  139.8734  158.4754 S   0  0  0  0  0  0  0  0  0  0  0  0
  153.3751  138.8690  158.3932 O   0  0  0  0  0  0  0  0  0  0  0  0
  151.0464  139.5509  159.1680 O   0  0  0  0  0  0  0  0  0  0  0  0
  151.9241  140.4685  156.7738 C   0  0  0  0  0  0  0  0  0  0  0  0
  151.6658  139.2934  155.8752 C   0  0  0  0  0  0  0  0  0  0  0  0
  150.5446  139.0551  155.0326 C   0  0  0  0  0  0  0  0  0  0  0  0
  150.8301  137.8516  154.4552 C   0  0  0  0  0  0  0  0  0  0  0  0
  152.0216  137.3808  154.9030 O   0  0  0  0  0  0  0  0  0  0  0  0
  152.5468  138.3077  155.8105 N   0  0  0  0  0  0  0  0  0  0  0  0
  152.6288  143.3822  160.4830 C   0  0  2  0  0  0  0  0  0  0  0  0
  152.6086  142.6605  161.8453 C   0  0  0  0  0  0  0  0  0  0  0  0
  149.8177  143.9438  160.4375 H   0  0  0  0  0  0  0  0  0  0  0  0
  149.9232  145.6006  161.0140 H   0  0  0  0  0  0  0  0  0  0  0  0
  150.3772  144.2817  162.0706 H   0  0  0  0  0  0  0  0  0  0  0  0
  152.3915  145.3782  161.2376 H   0  0  0  0  0  0  0  0  0  0  0  0
  151.3796  146.3779  159.1884 H   0  0  0  0  0  0  0  0  0  0  0  0
  152.9697  145.7099  158.9438 H   0  0  0  0  0  0  0  0  0  0  0  0
  150.3377  144.3664  158.1574 H   0  0  0  0  0  0  0  0  0  0  0  0
  151.5058  145.0694  157.0701 H   0  0  0  0  0  0  0  0  0  0  0  0
  151.7339  142.5831  157.1916 H   0  0  0  0  0  0  0  0  0  0  0  0
  153.1945  143.4067  157.6803 H   0  0  0  0  0  0  0  0  0  0  0  0
  151.1010  142.1803  159.5319 H   0  0  0  0  0  0  0  0  0  0  0  0
  153.8863  141.5002  158.8540 H   0  0  0  0  0  0  0  0  0  0  0  0
  151.0622  141.1343  156.8237 H   0  0  0  0  0  0  0  0  0  0  0  0
  152.7744  141.0497  156.4172 H   0  0  0  0  0  0  0  0  0  0  0  0
  149.6726  139.6720  154.8741 H   0  0  0  0  0  0  0  0  0  0  0  0
  150.3111  137.2289  153.7414 H   0  0  0  0  0  0  0  0  0  0  0  0
  153.6731  143.6221  160.2753 H   0  0  0  0  0  0  0  0  0  0  0  0
  151.6170  142.2743  162.0818 H   0  0  0  0  0  0  0  0  0  0  0  0
  152.9094  143.3311  162.6505 H   0  0  0  0  0  0  0  0  0  0  0  0
  153.2959  141.8143  161.8577 H   0  0  0  0  0  0  0  0  0  0  0  0
  1  2  1  0  0  0  0
  1 19  1  0  0  0  0
  1 20  1  0  0  0  0
  1 21  1  0  0  0  0
  2 17  1  0  0  0  0
  2  3  1  0  0  0  0
  2 22  1  0  0  0  0
  3  4  1  0  0  0  0
  3 23  1  0  0  0  0
  3 24  1  0  0  0  0
  4  5  1  0  0  0  0
  4 25  1  0  0  0  0
  4 26  1  0  0  0  0
  5  6  1  0  0  0  0
  5 27  1  0  0  0  0
  5 28  1  0  0  0  0
  6  7  1  0  0  0  0
  6 17  1  0  0  0  0
  6 29  1  0  0  0  0
  7  8  1  0  0  0  0
  7 30  1  0  0  0  0
  8  9  2  0  0  0  0
  8 10  2  0  0  0  0
  8 11  1  0  0  0  0
 11 12  1  0  0  0  0
 11 31  1  0  0  0  0
 11 32  1  0  0  0  0
 12 16  2  0  0  0  0
 12 13  1  0  0  0  0
 13 14  2  0  0  0  0
 13 33  1  0  0  0  0
 14 15  1  0  0  0  0
 14 34  1  0  0  0  0
 15 16  1  0  0  0  0
 17 18  1  0  0  0  0
 17 35  1  0  0  0  0
 18 36  1  0  0  0  0
 18 37  1  0  0  0  0
 18 38  1  0  0  0  0
M  END
> <s_m_source_file>
AV-unprocessed.smi

> <i_m_source_file_index>
2451

> <i_lp_mmshare_version>
43012

> <i_f3d_flags>
0

> <s_epik_input>
W0NIM11bQ0BASF0xW0NIMl1bQ0gyXVtDSDJdW0NASF0oW0NASF0xW0NIM10pW05IXVMoPU8pKD1PKVtDSDJdYzJbY0hdW2NIXW9uMg==

> <s_epik_cmdline>
J2VwaWtfcHl0aG9uJywgJy1waCcsICc3LjAnLCAnLXRuJywgJzgnLCAnLW1hJywgJzIwMCcsICctbWV0YWxfYmluZGluZycsICctaW1hZScsICc8aW5maWxlLm1hZT4nLCAnLW9tYWUnLCAnPG91dGZpbGUubWFlPic=

> <r_lp_tautomer_probability>
1

> <r_epik_Ionization_Penalty>
8.73668e-05

> <r_epik_Ionization_Penalty_Charging>
0

> <r_epik_Ionization_Penalty_Neutral>
8.73668e-05

> <r_epik_State_Penalty>
-0

> <r_epik_Charging_Adjusted_Penalty>
0

> <i_epik_Tot_Q>
0

> <i_epik_Tot_abs_Q>
0

> <r_epik_Metal_State_Penalty>
0.0716439

> <b_epik_Metal_Only>
0

> <s_lp_Force_Field>
OPLS_2005

> <r_lp_Energy>
8.38809

> <b_lp_Chiralities_Consistent>
1

> <s_lp_Variant>
AV-unprocessed.smi:2451-5

> <Gold.Version>
5.8.1

> <Gold.Id.Protein>
6NUR|6NUR_protein|mol2

> <Gold.PLP.Fitness>
47.4025

> <Gold.PLP.PLP>
-40.0832

> <Gold.PLP.part.hbond>
-2.0000

> <Gold.PLP.part.metal>
0.0000

> <Gold.PLP.part.buried>
-3.8995

> <Gold.PLP.part.nonpolar>
-34.3708

> <Gold.PLP.part.repulsive>
0.1003

> <Gold.PLP.ligand.clash>
0.0000

> <Gold.PLP.ligand.torsion>
0.5632

> <Gold.PLP.Chemscore.Hbond>
1.5988

> <Gold.PLP.Chemscore.CHOScore>
1.1712

> <Gold.PLP.Chemscore.Metal>
0.0000

> <Gold.Chemscore.Hbonds>
donor molecule, donor type, donor heavy atom, donor atom, acceptor molecule, acceptor atom, score
      P1  H  7997  8009       L1     9  0.57
      P1  H 10752 10763       L1    15  0.81
      L1  C    14    34       P1  7948  0.90
      L1  C    14    34       P1  7949  0.20

> <Gold.PLP.Chemscore.Internal.Correction>
0.1359

> <Gold.Rescore>
     Score         DG    S(hbond)    S(metal)    S(lipo)     H(rot)  DE(clash)    DE(int)     intcor
     16.70     -19.45       1.34        0.00     117.41       1.66       0.89       1.86       ----

> <Gold.Chemscore.Fitness>
16.7008

> <Gold.Chemscore.DG>
-19.4520

> <Gold.Chemscore.ZeroCoef>
-5.4800

> <Gold.Chemscore.Hbond>
1.3418

> <Gold.Chemscore.Metal>
0.0000

> <Gold.Chemscore.Lipo>
117.4100

> <Gold.Chemscore.Internal_Hbond>
0.0000

> <Gold.Chemscore.DEClash>
0.8891

> <Gold.Chemscore.DEInternal>
1.8622

> <Gold.Chemscore.Rot>
1.6588

> <Gold.Chemscore.Internal.Correction>
   9.000000E+99

> <Gold.Chemscore.Hbonds>
donor molecule, donor type, donor heavy atom, donor atom, acceptor molecule, acceptor atom, score
      P1  H  7997  8009       L1     9  0.14
      P1  H 10752 10763       L1    15  0.75

> <Gold.Chemscore.Hbond.Weighted>
-4.4816

> <Gold.Chemscore.Metal.Weighted>
-0.0000

> <Gold.Chemscore.Lipo.Weighted>
-13.7370

> <Gold.Chemscore.Internal_Hbond.Weighted>
0.0000

> <Gold.Chemscore.DEClash.Weighted>
0.8891

> <Gold.Chemscore.DEInternal.Weighted>
1.8622

> <Gold.Chemscore.Rot.Weighted>
4.2466

> <Gold.Chemscore.Internal.Correction.Weighted>
   9.000000E+99

> <Gold.Protein.RotatedTorsions>
[ 6907 6896 6895 6894 ] final  -96.39 input  -60.11 | X-H torsion
[ 7974 7965 7964 7962 ] final -155.03 input  175.53 | X-H torsion
[ 8008 7997 7996 7995 ] final  134.25 input   59.86 | X-H torsion
[ 10167 10162 10161 10158 ] final -101.59 input  -65.29 | X-H torsion
[ 10718 10713 10712 10709 ] final  119.23 input   66.30 | X-H torsion
[ 10763 10752 10751 10750 ] final   43.19 input  -60.55 | X-H torsion
[ 11005 11000 10999 10996 ] final  -19.07 input  -57.11 | X-H torsion

> <Gold.Protein.ActiveResidues>
 VAL166  LYS551  ARG553  GLY616  TRP617  ASP618  TYR619  PRO620  LYS621  CYS622 
 ASP623  PHE694  ASN695  SER759  ASP760  ASP761  ALA762  ILE779  LEU786  VAL792 
 PHE793  MET794  SER795  GLU796  ALA797  LYS798  CYS799  TRP800  GLU811  SER814 

> <Gold.Protein.RotatedAtoms>
  150.6987  134.1510  159.4140 H   0  0  0  0  0  0  0  0  0  0  0  0  # atno 6907 bound_to 6896
  151.9493  135.0174  160.0550 H   0  0  0  0  0  0  0  0  0  0  0  0  # atno 6908 bound_to 6896
  152.2025  133.4816  159.5103 H   0  0  0  0  0  0  0  0  0  0  0  0  # atno 6909 bound_to 6896
  144.7660  140.4306  143.5942 H   0  0  0  0  0  0  0  0  0  0  0  0  # atno 7974 bound_to 7965
  156.2998  140.2501  156.3386 H   0  0  0  0  0  0  0  0  0  0  0  0  # atno 8008 bound_to 7997
  154.9076  140.0404  157.1948 H   0  0  0  0  0  0  0  0  0  0  0  0  # atno 8009 bound_to 7997
  154.8437  140.2895  155.5647 H   0  0  0  0  0  0  0  0  0  0  0  0  # atno 8010 bound_to 7997
  140.2396  143.3548  152.0813 H   0  0  0  0  0  0  0  0  0  0  0  0  # atno 10167 bound_to 10162
  157.5976  131.1056  150.7868 H   0  0  0  0  0  0  0  0  0  0  0  0  # atno 10718 bound_to 10713
  152.9866  135.6109  154.3071 H   0  0  0  0  0  0  0  0  0  0  0  0  # atno 10763 bound_to 10752
  154.2788  135.2777  155.2708 H   0  0  0  0  0  0  0  0  0  0  0  0  # atno 10764 bound_to 10752
  154.5056  135.5855  153.6622 H   0  0  0  0  0  0  0  0  0  0  0  0  # atno 10765 bound_to 10752
  140.8330  133.7982  155.9779 H   0  0  0  0  0  0  0  0  0  0  0  0  # atno 11005 bound_to 11000
  145.6469  139.1559  143.2884 LP  0  0  0  0  0  0  0  0  0  0  0  0  # atno 17320 bound_to 7965
  146.1767  140.6561  142.9208 LP  0  0  0  0  0  0  0  0  0  0  0  0  # atno 17321 bound_to 7965
  139.5082  144.6845  151.5923 LP  0  0  0  0  0  0  0  0  0  0  0  0  # atno 17342 bound_to 10162
  140.6123  143.9413  150.6462 LP  0  0  0  0  0  0  0  0  0  0  0  0  # atno 17343 bound_to 10162
  156.8275  130.5004  149.5335 LP  0  0  0  0  0  0  0  0  0  0  0  0  # atno 17370 bound_to 10713
  156.1041  130.5991  150.9942 LP  0  0  0  0  0  0  0  0  0  0  0  0  # atno 17371 bound_to 10713
  140.8977  134.2417  157.5059 LP  0  0  0  0  0  0  0  0  0  0  0  0  # atno 17394 bound_to 11000
  139.8704  134.9692  156.4657 LP  0  0  0  0  0  0  0  0  0  0  0  0  # atno 17395 bound_to 11000

$$$$
