AV-unprocessed.smi:1880|AV-procd|sdf|7637|dock6
  -GOLD-   22720 9363D 1   1.00000     0.00000
 Structure written by MMmdl.
 37 39  0  0  0  0  0  0  0  0  2 V2000
  151.3335  136.9138  158.2377 O   0  0  0  0  0  0  0  0  0  0  0  0
  150.9072  138.2581  158.1376 C   0  0  2  0  0  0  0  0  0  0  0  0
  149.3718  138.2980  158.0720 C   0  0  0  0  0  0  0  0  0  0  0  0
  148.8212  137.8151  159.2868 O   0  0  0  0  0  0  0  0  0  0  0  0
  148.3577  136.4804  159.1876 C   0  0  0  0  0  0  0  0  0  0  0  0
  147.3723  136.2936  160.2903 C   0  0  0  0  0  0  0  0  0  0  0  0
  146.7127  135.2047  160.7898 C   0  0  0  0  0  0  0  0  0  0  0  0
  145.9059  135.6815  161.8600 C   0  0  0  0  0  0  0  0  0  0  0  0
  146.1344  137.0260  161.9337 C   0  0  0  0  0  0  0  0  0  0  0  0
  147.0275  137.4152  160.9837 O   0  0  0  0  0  0  0  0  0  0  0  0
  151.5932  138.9922  156.9682 C   0  0  0  0  0  0  0  0  0  0  0  0
  151.3113  140.4346  156.9591 N   0  0  0  0  0  0  0  0  0  0  0  0
  150.6998  141.1935  156.0096 C   0  0  0  0  0  0  0  0  0  0  0  0
  150.6824  142.4789  156.4588 N   0  3  0  0  0  0  0  0  0  0  0  0
  151.2918  142.5431  157.7140 C   0  0  0  0  0  0  0  0  0  0  0  0
  151.5136  143.6207  158.5652 C   0  0  0  0  0  0  0  0  0  0  0  0
  152.1668  143.3436  159.7841 C   0  0  0  0  0  0  0  0  0  0  0  0
  152.4099  144.3572  160.6482 F   0  0  0  0  0  0  0  0  0  0  0  0
  152.5699  142.0336  160.1195 C   0  0  0  0  0  0  0  0  0  0  0  0
  153.1920  141.8112  161.3014 F   0  0  0  0  0  0  0  0  0  0  0  0
  152.3384  140.9485  159.2485 C   0  0  0  0  0  0  0  0  0  0  0  0
  151.6965  141.2323  158.0433 C   0  0  0  0  0  0  0  0  0  0  0  0
  151.1477  136.4783  157.4204 H   0  0  0  0  0  0  0  0  0  0  0  0
  151.2104  138.7375  159.0691 H   0  0  0  0  0  0  0  0  0  0  0  0
  149.0211  139.3099  157.8614 H   0  0  0  0  0  0  0  0  0  0  0  0
  149.0312  137.6630  157.2526 H   0  0  0  0  0  0  0  0  0  0  0  0
  147.8851  136.3041  158.2200 H   0  0  0  0  0  0  0  0  0  0  0  0
  149.1853  135.7776  159.2928 H   0  0  0  0  0  0  0  0  0  0  0  0
  146.8016  134.1902  160.4301 H   0  0  0  0  0  0  0  0  0  0  0  0
  145.2432  135.1130  162.4955 H   0  0  0  0  0  0  0  0  0  0  0  0
  145.7648  137.8166  162.5702 H   0  0  0  0  0  0  0  0  0  0  0  0
  152.6725  138.8399  156.9753 H   0  0  0  0  0  0  0  0  0  0  0  0
  151.2367  138.5880  156.0199 H   0  0  0  0  0  0  0  0  0  0  0  0
  150.3019  140.8401  155.0690 H   0  0  0  0  0  0  0  0  0  0  0  0
  151.2052  144.6249  158.3139 H   0  0  0  0  0  0  0  0  0  0  0  0
  152.6476  139.9497  159.5193 H   0  0  0  0  0  0  0  0  0  0  0  0
  150.2841  143.2536  155.9432 H   0  0  0  0  0  0  0  0  0  0  0  0
  1  2  1  0  0  0  0
  1 23  1  0  0  0  0
  2  3  1  0  0  0  0
  2 11  1  0  0  0  0
  2 24  1  0  0  0  0
  3  4  1  0  0  0  0
  3 25  1  0  0  0  0
  3 26  1  0  0  0  0
  4  5  1  0  0  0  0
  5  6  1  0  0  0  0
  5 27  1  0  0  0  0
  5 28  1  0  0  0  0
  6 10  1  0  0  0  0
  6  7  2  0  0  0  0
  7  8  1  0  0  0  0
  7 29  1  0  0  0  0
  8  9  2  0  0  0  0
  8 30  1  0  0  0  0
  9 10  1  0  0  0  0
  9 31  1  0  0  0  0
 11 12  1  0  0  0  0
 11 32  1  0  0  0  0
 11 33  1  0  0  0  0
 12 22  1  0  0  0  0
 12 13  1  0  0  0  0
 13 14  2  0  0  0  0
 13 34  1  0  0  0  0
 14 15  1  0  0  0  0
 14 37  1  0  0  0  0
 15 22  2  0  0  0  0
 15 16  1  0  0  0  0
 16 17  2  0  0  0  0
 16 35  1  0  0  0  0
 17 18  1  0  0  0  0
 17 19  1  0  0  0  0
 19 20  1  0  0  0  0
 19 21  2  0  0  0  0
 21 22  1  0  0  0  0
 21 36  1  0  0  0  0
M  CHG  1  14   1
M  END
> <s_m_source_file>
AV-unprocessed.smi

> <i_m_source_file_index>
1880

> <i_lp_mmshare_version>
43012

> <i_f3d_flags>
0

> <s_epik_input>
W2NIXTFjKEYpYyhGKVtjSF1jKGMxMiluKFtjSF1uMilbQ0gyXVtDQEhdKFtPSF0pW0NIMl1PW0NIMl1jM1tjSF1bY0hdW2NIXW8z

> <s_epik_cmdline>
J2VwaWtfcHl0aG9uJywgJy1waCcsICc3LjAnLCAnLXRuJywgJzgnLCAnLW1hJywgJzIwMCcsICctbWV0YWxfYmluZGluZycsICctaW1hZScsICc8aW5maWxlLm1hZT4nLCAnLW9tYWUnLCAnPG91dGZpbGUubWFlPic=

> <r_epik_Ionization_Penalty>
2.17656

> <r_epik_Ionization_Penalty_Charging>
2.17656

> <r_epik_Ionization_Penalty_Neutral>
9.34185e-07

> <r_epik_State_Penalty>
2.31826

> <r_epik_Charging_Adjusted_Penalty>
4.49482

> <i_epik_Tot_Q>
1

> <i_epik_Tot_abs_Q>
1

> <r_epik_Metal_State_Penalty>
6.39906

> <b_epik_Metal_Only>
0

> <s_lp_Force_Field>
OPLS_2005

> <r_lp_Energy>
13.1736

> <b_lp_Chiralities_Consistent>
1

> <s_lp_Variant>
AV-unprocessed.smi:1880-3

> <Gold.Version>
5.8.1

> <Gold.Id.Protein>
6NUR|6NUR_protein|mol2

> <Gold.PLP.Fitness>
62.1527

> <Gold.PLP.PLP>
-51.8753

> <Gold.PLP.part.hbond>
-4.6933

> <Gold.PLP.part.metal>
0.0000

> <Gold.PLP.part.buried>
-6.2575

> <Gold.PLP.part.nonpolar>
-41.8134

> <Gold.PLP.part.repulsive>
0.0865

> <Gold.PLP.ligand.clash>
0.0000

> <Gold.PLP.ligand.torsion>
0.5162

> <Gold.PLP.Chemscore.Hbond>
3.7438

> <Gold.PLP.Chemscore.CHOScore>
0.0000

> <Gold.PLP.Chemscore.Metal>
0.0000

> <Gold.Chemscore.Hbonds>
donor molecule, donor type, donor heavy atom, donor atom, acceptor molecule, acceptor atom, score
      L1  H    14    37       P1  8028  1.95
      P1  H  6931  6943       L1    10  0.13
      P1  H  6934  6947       L1    10  1.00

> <Gold.PLP.Chemscore.Internal.Correction>
0.0784

> <Gold.Rescore>
     Score         DG    S(hbond)    S(metal)    S(lipo)     H(rot)  DE(clash)    DE(int)     intcor
     16.35     -17.49       2.25        0.00     102.60       2.94       0.32       0.82       ----

> <Gold.Chemscore.Fitness>
16.3521

> <Gold.Chemscore.DG>
-17.4922

> <Gold.Chemscore.ZeroCoef>
-5.4800

> <Gold.Chemscore.Hbond>
2.2533

> <Gold.Chemscore.Metal>
0.0000

> <Gold.Chemscore.Lipo>
102.6032

> <Gold.Chemscore.Internal_Hbond>
0.0000

> <Gold.Chemscore.DEClash>
0.3237

> <Gold.Chemscore.DEInternal>
0.8164

> <Gold.Chemscore.Rot>
2.9369

> <Gold.Chemscore.Internal.Correction>
   9.000000E+99

> <Gold.Chemscore.Hbonds>
donor molecule, donor type, donor heavy atom, donor atom, acceptor molecule, acceptor atom, score
      L1  H    14    37       P1  8028  0.88
      P1  H  6896  6907       L1     1  0.03
      P1  H  6931  6943       L1    10  0.07
      P1  H  6934  6947       L1    10  0.78

> <Gold.Chemscore.Hbond.Weighted>
-7.5261

> <Gold.Chemscore.Metal.Weighted>
-0.0000

> <Gold.Chemscore.Lipo.Weighted>
-12.0046

> <Gold.Chemscore.Internal_Hbond.Weighted>
0.0000

> <Gold.Chemscore.DEClash.Weighted>
0.3237

> <Gold.Chemscore.DEInternal.Weighted>
0.8164

> <Gold.Chemscore.Rot.Weighted>
7.5185

> <Gold.Chemscore.Internal.Correction.Weighted>
   9.000000E+99

> <Gold.Protein.RotatedTorsions>
[ 6907 6896 6895 6894 ] final  -12.03 input  -60.11 | X-H torsion
[ 7974 7965 7964 7962 ] final  -70.54 input  175.53 | X-H torsion
[ 8008 7997 7996 7995 ] final   86.17 input   59.86 | X-H torsion
[ 10167 10162 10161 10158 ] final -165.03 input  -65.29 | X-H torsion
[ 10718 10713 10712 10709 ] final -173.19 input   66.30 | X-H torsion
[ 10763 10752 10751 10750 ] final -157.40 input  -60.55 | X-H torsion
[ 11005 11000 10999 10996 ] final   77.20 input  -57.11 | X-H torsion

> <Gold.Protein.ActiveResidues>
 VAL166  LYS551  ARG553  GLY616  TRP617  ASP618  TYR619  PRO620  LYS621  CYS622 
 ASP623  PHE694  ASN695  SER759  ASP760  ASP761  ALA762  ILE779  LEU786  VAL792 
 PHE793  MET794  SER795  GLU796  ALA797  LYS798  CYS799  TRP800  GLU811  SER814 

> <Gold.Protein.RotatedAtoms>
  151.3769  135.0933  159.9483 H   0  0  0  0  0  0  0  0  0  0  0  0  # atno 6907 bound_to 6896
  152.5119  133.9110  159.7498 H   0  0  0  0  0  0  0  0  0  0  0  0  # atno 6908 bound_to 6896
  150.9535  133.6468  159.2796 H   0  0  0  0  0  0  0  0  0  0  0  0  # atno 6909 bound_to 6896
  145.6896  140.9158  143.0789 H   0  0  0  0  0  0  0  0  0  0  0  0  # atno 7974 bound_to 7965
  155.9594  140.3394  155.6477 H   0  0  0  0  0  0  0  0  0  0  0  0  # atno 8008 bound_to 7997
  155.6817  140.0738  157.2500 H   0  0  0  0  0  0  0  0  0  0  0  0  # atno 8009 bound_to 7997
  154.4140  140.1673  156.1977 H   0  0  0  0  0  0  0  0  0  0  0  0  # atno 8010 bound_to 7997
  139.6210  144.0625  152.1932 H   0  0  0  0  0  0  0  0  0  0  0  0  # atno 10167 bound_to 10162
  156.7667  130.9433  151.3119 H   0  0  0  0  0  0  0  0  0  0  0  0  # atno 10718 bound_to 10713
  154.7639  135.3125  154.8325 H   0  0  0  0  0  0  0  0  0  0  0  0  # atno 10763 bound_to 10752
  153.9079  135.6809  153.4756 H   0  0  0  0  0  0  0  0  0  0  0  0  # atno 10764 bound_to 10752
  153.1242  135.4809  154.9178 H   0  0  0  0  0  0  0  0  0  0  0  0  # atno 10765 bound_to 10752
  139.9265  134.7663  156.1491 H   0  0  0  0  0  0  0  0  0  0  0  0  # atno 11005 bound_to 11000
  144.7001  139.8804  143.7446 LP  0  0  0  0  0  0  0  0  0  0  0  0  # atno 17320 bound_to 7965
  146.0893  139.3883  143.0415 LP  0  0  0  0  0  0  0  0  0  0  0  0  # atno 17321 bound_to 7965
  140.0266  144.6112  150.7522 LP  0  0  0  0  0  0  0  0  0  0  0  0  # atno 17342 bound_to 10162
  140.7382  143.2775  151.3698 LP  0  0  0  0  0  0  0  0  0  0  0  0  # atno 17343 bound_to 10162
  157.6710  130.9051  150.0040 LP  0  0  0  0  0  0  0  0  0  0  0  0  # atno 17370 bound_to 10713
  156.1304  130.3643  149.9741 LP  0  0  0  0  0  0  0  0  0  0  0  0  # atno 17371 bound_to 10713
  141.0826  133.6748  156.2367 LP  0  0  0  0  0  0  0  0  0  0  0  0  # atno 17394 bound_to 11000
  140.6322  134.5252  157.5561 LP  0  0  0  0  0  0  0  0  0  0  0  0  # atno 17395 bound_to 11000

$$$$
