AV-unprocessed.smi:1897|AV-procd|sdf|7692|dock7
  -GOLD-   22720 9433D 1   1.00000     0.00000
 Structure written by MMmdl.
 38 40  0  0  0  0  0  0  0  0  3 V2000
  153.1759  139.0841  154.3407 C   0  0  0  0  0  0  0  0  0  0  0  0
  151.9733  138.2667  154.6665 C   0  0  0  0  0  0  0  0  0  0  0  0
  152.0511  137.0693  155.2519 N   0  0  0  0  0  0  0  0  0  0  0  0
  150.8009  136.5034  155.4528 N   0  0  0  0  0  0  0  0  0  0  0  0
  149.7979  137.2719  155.0053 C   0  0  0  0  0  0  0  0  0  0  0  0
  148.5072  136.9002  155.0934 N   0  5  0  0  0  0  0  0  0  0  0  0
  148.1246  135.5988  155.1669 C   0  0  0  0  0  0  0  0  0  0  0  0
  147.7045  135.0735  156.1970 O   0  0  0  0  0  0  0  0  0  0  0  0
  148.2149  134.8553  154.0484 N   0  0  0  0  0  0  0  0  0  0  0  0
  147.8564  133.4477  153.9269 C   0  0  2  0  0  0  0  0  0  0  0  0
  148.7889  132.5015  154.6974 C   0  0  0  0  0  0  0  0  0  0  0  0
  148.9320  131.2543  153.8029 C   0  0  0  0  0  0  0  0  0  0  0  0
  148.0836  131.4830  152.6096 N   0  3  1  0  0  0  0  0  0  0  0  0
  146.7711  130.7880  152.7153 C   0  0  0  0  0  0  0  0  0  0  0  0
  145.8011  131.2104  151.6046 C   0  0  0  0  0  0  0  0  0  0  0  0
  145.5791  132.7242  151.6477 C   0  0  0  0  0  0  0  0  0  0  0  0
  146.9232  133.4409  151.4829 C   0  0  0  0  0  0  0  0  0  0  0  0
  147.9965  132.9580  152.4845 C   0  0  1  0  0  0  0  0  0  0  0  0
  150.3394  138.7961  154.3033 S   0  0  0  0  0  0  0  0  0  0  0  0
  153.6293  138.7268  153.4162 H   0  0  0  0  0  0  0  0  0  0  0  0
  153.9103  139.0130  155.1436 H   0  0  0  0  0  0  0  0  0  0  0  0
  152.8990  140.1308  154.2145 H   0  0  0  0  0  0  0  0  0  0  0  0
  148.5659  135.3105  153.2186 H   0  0  0  0  0  0  0  0  0  0  0  0
  146.8289  133.2981  154.2632 H   0  0  0  0  0  0  0  0  0  0  0  0
  149.7687  132.9549  154.8565 H   0  0  0  0  0  0  0  0  0  0  0  0
  148.3786  132.2569  155.6777 H   0  0  0  0  0  0  0  0  0  0  0  0
  149.9678  131.1552  153.4761 H   0  0  0  0  0  0  0  0  0  0  0  0
  148.6711  130.3352  154.3294 H   0  0  0  0  0  0  0  0  0  0  0  0
  146.9360  129.7109  152.6724 H   0  0  0  0  0  0  0  0  0  0  0  0
  146.3187  130.9950  153.6865 H   0  0  0  0  0  0  0  0  0  0  0  0
  146.1956  130.9165  150.6310 H   0  0  0  0  0  0  0  0  0  0  0  0
  144.8496  130.6916  151.7252 H   0  0  0  0  0  0  0  0  0  0  0  0
  144.8930  133.0278  150.8566 H   0  0  0  0  0  0  0  0  0  0  0  0
  145.1124  133.0087  152.5914 H   0  0  0  0  0  0  0  0  0  0  0  0
  147.2870  133.2630  150.4702 H   0  0  0  0  0  0  0  0  0  0  0  0
  146.7872  134.5197  151.5668 H   0  0  0  0  0  0  0  0  0  0  0  0
  148.9660  133.2954  152.1118 H   0  0  0  0  0  0  0  0  0  0  0  0
  148.5508  131.1177  151.7921 H   0  0  0  0  0  0  0  0  0  0  0  0
  1  2  1  0  0  0  0
  1 20  1  0  0  0  0
  1 21  1  0  0  0  0
  1 22  1  0  0  0  0
  2 19  1  0  0  0  0
  2  3  2  0  0  0  0
  3  4  1  0  0  0  0
  4  5  2  0  0  0  0
  5  6  1  0  0  0  0
  5 19  1  0  0  0  0
  6  7  1  0  0  0  0
  7  8  2  0  0  0  0
  7  9  1  0  0  0  0
  9 10  1  0  0  0  0
  9 23  1  0  0  0  0
 10 18  1  0  0  0  0
 10 11  1  0  0  0  0
 10 24  1  0  0  0  0
 11 12  1  0  0  0  0
 11 25  1  0  0  0  0
 11 26  1  0  0  0  0
 12 13  1  0  0  0  0
 12 27  1  0  0  0  0
 12 28  1  0  0  0  0
 13 18  1  0  0  0  0
 13 14  1  0  0  0  0
 13 38  1  0  0  0  0
 14 15  1  0  0  0  0
 14 29  1  0  0  0  0
 14 30  1  0  0  0  0
 15 16  1  0  0  0  0
 15 31  1  0  0  0  0
 15 32  1  0  0  0  0
 16 17  1  0  0  0  0
 16 33  1  0  0  0  0
 16 34  1  0  0  0  0
 17 18  1  0  0  0  0
 17 35  1  0  0  0  0
 17 36  1  0  0  0  0
 18 37  1  0  0  0  0
M  CHG  1   6  -1
M  CHG  1  13   1
M  END
> <s_m_source_file>
AV-unprocessed.smi

> <i_m_source_file_index>
1897

> <i_lp_mmshare_version>
43012

> <i_f3d_flags>
0

> <s_epik_input>
W0NIM11jMW5uYyhzMSlbTkhdQyg9TylbTkhdW0NASF0oW0NIMl1bQ0gyXTIpW0NAQEhdKE4yMylbQ0gyXVtDSDJdW0NIMl1bQ0gyXTM=

> <s_epik_cmdline>
J2VwaWtfcHl0aG9uJywgJy1waCcsICc3LjAnLCAnLXRuJywgJzgnLCAnLW1hJywgJzIwMCcsICctbWV0YWxfYmluZGluZycsICctaW1hZScsICc8aW5maWxlLm1hZT4nLCAnLW9tYWUnLCAnPG91dGZpbGUubWFlPic=

> <r_lp_tautomer_probability>
1

> <r_epik_Ionization_Penalty>
3.77712

> <r_epik_Ionization_Penalty_Charging>
3.67739

> <r_epik_Ionization_Penalty_Neutral>
0.0997294

> <r_epik_State_Penalty>
3.67514

> <r_epik_Charging_Adjusted_Penalty>
7.35254

> <i_epik_Tot_Q>
0

> <i_epik_Tot_abs_Q>
2

> <r_epik_Metal_State_Penalty>
0.540795

> <b_epik_Metal_Only>
1

> <s_lp_Force_Field>
OPLS_2005

> <r_lp_Energy>
31.3184

> <b_lp_Chiralities_Consistent>
1

> <s_lp_Variant>
AV-unprocessed.smi:1897-9

> <Gold.Version>
5.8.1

> <Gold.Id.Protein>
6NUR|6NUR_protein|mol2

> <Gold.PLP.Fitness>
37.5991

> <Gold.PLP.PLP>
-30.4730

> <Gold.PLP.part.hbond>
-3.0000

> <Gold.PLP.part.metal>
0.0000

> <Gold.PLP.part.buried>
-3.1529

> <Gold.PLP.part.nonpolar>
-24.4430

> <Gold.PLP.part.repulsive>
0.2947

> <Gold.PLP.ligand.clash>
0.0000

> <Gold.PLP.ligand.torsion>
0.8585

> <Gold.PLP.Chemscore.Hbond>
2.9440

> <Gold.PLP.Chemscore.CHOScore>
0.0000

> <Gold.PLP.Chemscore.Metal>
0.0000

> <Gold.Chemscore.Hbonds>
donor molecule, donor type, donor heavy atom, donor atom, acceptor molecule, acceptor atom, score
      L1  H     9    23       P1  7948  1.00
      L1  H    13    38       P1 10747  1.00
      P1  H 10752 10765       L1     3  0.94

> <Gold.PLP.Chemscore.Internal.Correction>
0.0111

> <Gold.Rescore>
     Score         DG    S(hbond)    S(metal)    S(lipo)     H(rot)  DE(clash)    DE(int)     intcor
     20.31     -21.15       2.91        0.00      72.59       1.00       0.00       0.83       ----

> <Gold.Chemscore.Fitness>
20.3132

> <Gold.Chemscore.DG>
-21.1470

> <Gold.Chemscore.ZeroCoef>
-5.4800

> <Gold.Chemscore.Hbond>
2.9142

> <Gold.Chemscore.Metal>
0.0000

> <Gold.Chemscore.Lipo>
72.5949

> <Gold.Chemscore.Internal_Hbond>
0.0000

> <Gold.Chemscore.DEClash>
0.0015

> <Gold.Chemscore.DEInternal>
0.8323

> <Gold.Chemscore.Rot>
1.0000

> <Gold.Chemscore.Internal.Correction>
   9.000000E+99

> <Gold.Chemscore.Hbonds>
donor molecule, donor type, donor heavy atom, donor atom, acceptor molecule, acceptor atom, score
      L1  H     9    23       P1  7948  0.90
      L1  H    13    38       P1 10747  0.96
      P1  H 10752 10765       L1     3  0.23

> <Gold.Chemscore.Hbond.Weighted>
-9.7334

> <Gold.Chemscore.Metal.Weighted>
-0.0000

> <Gold.Chemscore.Lipo.Weighted>
-8.4936

> <Gold.Chemscore.Internal_Hbond.Weighted>
0.0000

> <Gold.Chemscore.DEClash.Weighted>
0.0015

> <Gold.Chemscore.DEInternal.Weighted>
0.8323

> <Gold.Chemscore.Rot.Weighted>
2.5600

> <Gold.Chemscore.Internal.Correction.Weighted>
   9.000000E+99

> <Gold.Protein.RotatedTorsions>
[ 6907 6896 6895 6894 ] final  176.62 input  -60.11 | X-H torsion
[ 7974 7965 7964 7962 ] final -145.81 input  175.53 | X-H torsion
[ 8008 7997 7996 7995 ] final  -51.72 input   59.86 | X-H torsion
[ 10167 10162 10161 10158 ] final  -30.07 input  -65.29 | X-H torsion
[ 10718 10713 10712 10709 ] final  176.07 input   66.30 | X-H torsion
[ 10763 10752 10751 10750 ] final -172.01 input  -60.55 | X-H torsion
[ 11005 11000 10999 10996 ] final -169.93 input  -57.11 | X-H torsion

> <Gold.Protein.ActiveResidues>
 VAL166  LYS551  ARG553  GLY616  TRP617  ASP618  TYR619  PRO620  LYS621  CYS622 
 ASP623  PHE694  ASN695  SER759  ASP760  ASP761  ALA762  ILE779  LEU786  VAL792 
 PHE793  MET794  SER795  GLU796  ALA797  LYS798  CYS799  TRP800  GLU811  SER814 

> <Gold.Protein.RotatedAtoms>
  151.7172  133.3313  159.3305 H   0  0  0  0  0  0  0  0  0  0  0  0  # atno 6907 bound_to 6896
  150.7668  134.6480  159.6282 H   0  0  0  0  0  0  0  0  0  0  0  0  # atno 6908 bound_to 6896
  152.3674  134.6786  160.0239 H   0  0  0  0  0  0  0  0  0  0  0  0  # atno 6909 bound_to 6896
  144.8202  140.5536  143.5584 H   0  0  0  0  0  0  0  0  0  0  0  0  # atno 7974 bound_to 7965
  154.4089  140.1241  156.4874 H   0  0  0  0  0  0  0  0  0  0  0  0  # atno 8008 bound_to 7997
  155.7024  140.3494  155.4919 H   0  0  0  0  0  0  0  0  0  0  0  0  # atno 8009 bound_to 7997
  155.9373  140.1080  157.1074 H   0  0  0  0  0  0  0  0  0  0  0  0  # atno 8010 bound_to 7997
  140.7253  143.3878  151.1484 H   0  0  0  0  0  0  0  0  0  0  0  0  # atno 10167 bound_to 10162
  156.9255  130.9954  151.2997 H   0  0  0  0  0  0  0  0  0  0  0  0  # atno 10718 bound_to 10713
  154.6241  135.2878  155.0292 H   0  0  0  0  0  0  0  0  0  0  0  0  # atno 10763 bound_to 10752
  154.1477  135.6508  153.4960 H   0  0  0  0  0  0  0  0  0  0  0  0  # atno 10764 bound_to 10752
  153.0249  135.5348  154.7042 H   0  0  0  0  0  0  0  0  0  0  0  0  # atno 10765 bound_to 10752
  140.5252  134.5670  157.5059 H   0  0  0  0  0  0  0  0  0  0  0  0  # atno 11005 bound_to 11000
  145.5123  139.1479  143.3598 LP  0  0  0  0  0  0  0  0  0  0  0  0  # atno 17320 bound_to 7965
  146.2507  140.5264  142.8895 LP  0  0  0  0  0  0  0  0  0  0  0  0  # atno 17321 bound_to 7965
  139.7478  143.8825  152.3068 LP  0  0  0  0  0  0  0  0  0  0  0  0  # atno 17342 bound_to 10162
  139.8668  144.7089  150.9034 LP  0  0  0  0  0  0  0  0  0  0  0  0  # atno 17343 bound_to 10162
  157.5880  130.8423  149.8618 LP  0  0  0  0  0  0  0  0  0  0  0  0  # atno 17370 bound_to 10713
  156.0471  130.3725  150.1291 LP  0  0  0  0  0  0  0  0  0  0  0  0  # atno 17371 bound_to 10713
  139.9584  134.7495  156.0290 LP  0  0  0  0  0  0  0  0  0  0  0  0  # atno 17394 bound_to 11000
  141.1312  133.6586  156.3470 LP  0  0  0  0  0  0  0  0  0  0  0  0  # atno 17395 bound_to 11000

$$$$
