AV-unprocessed.smi:233|AV-procd|sdf|1784|dock1
  -GOLD-   2262020333D 1   1.00000     0.00000
 Structure written by MMmdl.
 59 62  0  0  0  0  0  0  0  0  1 V2000
  152.4402  140.0434  158.9964 C   0  0  0  0  0  0  0  0  0  0  0  0
  152.2512  139.8657  157.4939 C   0  0  0  0  0  0  0  0  0  0  0  0
  153.0634  139.2090  156.8431 O   0  0  0  0  0  0  0  0  0  0  0  0
  151.1729  140.4575  156.9581 N   0  0  0  0  0  0  0  0  0  0  0  0
  150.7967  140.4211  155.5456 C   0  0  2  0  0  0  0  0  0  0  0  0
  149.3895  141.0059  155.3176 C   0  0  0  0  0  0  0  0  0  0  0  0
  148.2836  140.1096  155.9004 C   0  0  0  0  0  0  0  0  0  0  0  0
  148.3431  138.6686  155.3401 C   0  0  2  0  0  0  0  0  0  0  0  0
  147.2783  137.8285  155.9110 N   0  0  0  0  0  0  0  0  0  0  0  0
  146.0551  138.4953  156.3472 C   0  0  0  0  0  0  0  0  0  0  0  0
  146.9752  136.7123  155.2108 C   0  0  0  0  0  0  0  0  0  0  0  0
  147.2321  135.5187  155.8001 N   0  0  0  0  0  0  0  0  0  0  0  0
  146.9513  134.3826  155.1545 C   0  0  0  0  0  0  0  0  0  0  0  0
  146.4233  134.2209  153.9387 N   0  0  0  0  0  0  0  0  0  0  0  0
  146.1607  135.4218  153.3473 C   0  0  0  0  0  0  0  0  0  0  0  0
  146.3959  136.7068  153.9109 C   0  0  0  0  0  0  0  0  0  0  0  0
  145.9826  137.6961  153.0275 N   0  0  0  0  0  0  0  0  0  0  0  0
  145.5279  137.0330  151.9994 C   0  0  0  0  0  0  0  0  0  0  0  0
  145.6236  135.6625  152.0954 N   0  0  0  0  0  0  0  0  0  0  0  0
  145.1773  134.6956  151.1364 C   0  0  0  0  0  0  0  0  0  0  0  0
  144.1364  133.6402  151.5152 C   0  0  0  0  0  0  0  0  0  0  0  0
  144.8015  132.6437  150.5388 C   0  0  0  0  0  0  0  0  0  0  0  0
  144.9332  131.2000  151.0512 C   0  0  0  0  0  0  0  0  0  0  0  0
  145.6047  131.1583  152.2937 O   0  0  0  0  0  0  0  0  0  0  0  0
  144.2093  132.6247  149.1151 C   0  0  0  0  0  0  0  0  0  0  0  0
  142.8833  132.1355  149.1135 O   0  0  0  0  0  0  0  0  0  0  0  0
  146.0618  133.5196  150.7149 C   0  0  0  0  0  0  0  0  0  0  0  0
  149.7590  138.0841  155.5877 C   0  0  0  0  0  0  0  0  0  0  0  0
  150.8688  138.9804  155.0107 C   0  0  0  0  0  0  0  0  0  0  0  0
  152.2642  141.0795  159.2883 H   0  0  0  0  0  0  0  0  0  0  0  0
  153.4547  139.7745  159.2927 H   0  0  0  0  0  0  0  0  0  0  0  0
  151.7433  139.4071  159.5426 H   0  0  0  0  0  0  0  0  0  0  0  0
  150.5643  140.9759  157.5748 H   0  0  0  0  0  0  0  0  0  0  0  0
  151.5187  141.0212  154.9889 H   0  0  0  0  0  0  0  0  0  0  0  0
  149.3179  142.0080  155.7415 H   0  0  0  0  0  0  0  0  0  0  0  0
  149.2219  141.1220  154.2461 H   0  0  0  0  0  0  0  0  0  0  0  0
  148.3638  140.0872  156.9881 H   0  0  0  0  0  0  0  0  0  0  0  0
  147.3223  140.5703  155.6736 H   0  0  0  0  0  0  0  0  0  0  0  0
  148.1813  138.7267  154.2633 H   0  0  0  0  0  0  0  0  0  0  0  0
  145.2314  137.7927  156.4867 H   0  0  0  0  0  0  0  0  0  0  0  0
  145.7420  139.2442  155.6188 H   0  0  0  0  0  0  0  0  0  0  0  0
  146.2189  138.9934  157.3028 H   0  0  0  0  0  0  0  0  0  0  0  0
  147.1842  133.4726  155.6875 H   0  0  0  0  0  0  0  0  0  0  0  0
  145.1139  137.5320  151.1353 H   0  0  0  0  0  0  0  0  0  0  0  0
  144.8502  135.2647  150.2645 H   0  0  0  0  0  0  0  0  0  0  0  0
  144.2174  133.3346  152.5602 H   0  0  0  0  0  0  0  0  0  0  0  0
  143.1098  133.9149  151.2707 H   0  0  0  0  0  0  0  0  0  0  0  0
  143.9507  130.7477  151.1898 H   0  0  0  0  0  0  0  0  0  0  0  0
  145.4621  130.5662  150.3394 H   0  0  0  0  0  0  0  0  0  0  0  0
  146.4845  130.8452  152.1486 H   0  0  0  0  0  0  0  0  0  0  0  0
  144.1935  133.6248  148.6817 H   0  0  0  0  0  0  0  0  0  0  0  0
  144.8101  132.0137  148.4411 H   0  0  0  0  0  0  0  0  0  0  0  0
  142.2922  132.8719  149.1477 H   0  0  0  0  0  0  0  0  0  0  0  0
  146.6335  133.6883  149.8020 H   0  0  0  0  0  0  0  0  0  0  0  0
  146.7087  133.1702  151.5220 H   0  0  0  0  0  0  0  0  0  0  0  0
  149.9173  137.9456  156.6581 H   0  0  0  0  0  0  0  0  0  0  0  0
  149.8575  137.0970  155.1357 H   0  0  0  0  0  0  0  0  0  0  0  0
  150.7783  138.9980  153.9238 H   0  0  0  0  0  0  0  0  0  0  0  0
  151.8468  138.5476  155.2249 H   0  0  0  0  0  0  0  0  0  0  0  0
  1  2  1  0  0  0  0
  1 30  1  0  0  0  0
  1 31  1  0  0  0  0
  1 32  1  0  0  0  0
  2  3  2  0  0  0  0
  2  4  1  0  0  0  0
  4  5  1  0  0  0  0
  4 33  1  0  0  0  0
  5 29  1  0  0  0  0
  5  6  1  0  0  0  0
  5 34  1  0  0  0  0
  6  7  1  0  0  0  0
  6 35  1  0  0  0  0
  6 36  1  0  0  0  0
  7  8  1  0  0  0  0
  7 37  1  0  0  0  0
  7 38  1  0  0  0  0
  8  9  1  0  0  0  0
  8 28  1  0  0  0  0
  8 39  1  0  0  0  0
  9 10  1  0  0  0  0
  9 11  1  0  0  0  0
 10 40  1  0  0  0  0
 10 41  1  0  0  0  0
 10 42  1  0  0  0  0
 11 16  1  0  0  0  0
 11 12  2  0  0  0  0
 12 13  1  0  0  0  0
 13 14  2  0  0  0  0
 13 43  1  0  0  0  0
 14 15  1  0  0  0  0
 15 19  1  0  0  0  0
 15 16  2  0  0  0  0
 16 17  1  0  0  0  0
 17 18  2  0  0  0  0
 18 19  1  0  0  0  0
 18 44  1  0  0  0  0
 19 20  1  0  0  0  0
 20 27  1  0  0  0  0
 20 21  1  0  0  0  0
 20 45  1  0  0  0  0
 21 22  1  0  0  0  0
 21 46  1  0  0  0  0
 21 47  1  0  0  0  0
 22 23  1  0  0  0  0
 22 25  1  0  0  0  0
 22 27  1  0  0  0  0
 23 24  1  0  0  0  0
 23 48  1  0  0  0  0
 23 49  1  0  0  0  0
 24 50  1  0  0  0  0
 25 26  1  0  0  0  0
 25 51  1  0  0  0  0
 25 52  1  0  0  0  0
 26 53  1  0  0  0  0
 27 54  1  0  0  0  0
 27 55  1  0  0  0  0
 28 29  1  0  0  0  0
 28 56  1  0  0  0  0
 28 57  1  0  0  0  0
 29 58  1  0  0  0  0
 29 59  1  0  0  0  0
M  END
> <s_m_source_file>
AV-unprocessed.smi

> <i_m_source_file_index>
233

> <i_lp_mmshare_version>
43012

> <i_f3d_flags>
0

> <s_epik_input>
W0NIM11DKD1PKVtOSF1bQ0BASF0xW0NIMl1bQ0gyXVtDQEhdKFtDSDJdW0NIMl0xKU4oW0NIM10pYyhuW2NIXW4yKWMoYzIzKW5bY0hdbjNbQ0hdKFtDSDJdNClbQ0gyXUM0KFtDSDJdW09IXSlbQ0gyXVtPSF0=

> <s_epik_cmdline>
J2VwaWtfcHl0aG9uJywgJy1waCcsICc3LjAnLCAnLXRuJywgJzgnLCAnLW1hJywgJzIwMCcsICctbWV0YWxfYmluZGluZycsICctaW1hZScsICc8aW5maWxlLm1hZT4nLCAnLW9tYWUnLCAnPG91dGZpbGUubWFlPic=

> <r_lp_tautomer_probability>
1

> <r_epik_Ionization_Penalty>
0.0029036

> <r_epik_Ionization_Penalty_Charging>
0

> <r_epik_Ionization_Penalty_Neutral>
0.0029036

> <r_epik_State_Penalty>
0.00183591

> <r_epik_Charging_Adjusted_Penalty>
0.00183591

> <i_epik_Tot_Q>
0

> <i_epik_Tot_abs_Q>
0

> <r_epik_Metal_State_Penalty>
-0

> <b_epik_Metal_Only>
0

> <s_lp_Force_Field>
OPLS_2005

> <r_lp_Energy>
38.4195

> <b_lp_Chiralities_Consistent>
1

> <s_lp_Variant>
AV-unprocessed.smi:233-2

> <Gold.Version>
5.8.1

> <Gold.Id.Protein>
6NUR|6NUR_protein|mol2

> <Gold.PLP.Fitness>
49.6943

> <Gold.PLP.PLP>
-38.9592

> <Gold.PLP.part.hbond>
-4.0000

> <Gold.PLP.part.metal>
0.0000

> <Gold.PLP.part.buried>
-5.6147

> <Gold.PLP.part.nonpolar>
-30.1303

> <Gold.PLP.part.repulsive>
0.4376

> <Gold.PLP.ligand.clash>
0.0000

> <Gold.PLP.ligand.torsion>
1.1108

> <Gold.PLP.Chemscore.Hbond>
2.9663

> <Gold.PLP.Chemscore.CHOScore>
1.0000

> <Gold.PLP.Chemscore.Metal>
0.0000

> <Gold.Chemscore.Hbonds>
donor molecule, donor type, donor heavy atom, donor atom, acceptor molecule, acceptor atom, score
      L1  H    26    53       P1 10186  0.98
      P1  H  7997  8009       L1     3  1.00
      P1  H 10785 10796       L1    26  0.96
      L1  C    18    44       P1 10171  1.00

> <Gold.PLP.Chemscore.Internal.Correction>
1.0579

> <Gold.Rescore>
     Score         DG    S(hbond)    S(metal)    S(lipo)     H(rot)  DE(clash)    DE(int)     intcor
     10.33     -12.67       2.25        0.00      82.74       3.91       0.14       2.20       ----

> <Gold.Chemscore.Fitness>
10.3288

> <Gold.Chemscore.DG>
-12.6672

> <Gold.Chemscore.ZeroCoef>
-5.4800

> <Gold.Chemscore.Hbond>
2.2465

> <Gold.Chemscore.Metal>
0.0000

> <Gold.Chemscore.Lipo>
82.7416

> <Gold.Chemscore.Internal_Hbond>
0.0000

> <Gold.Chemscore.DEClash>
0.1355

> <Gold.Chemscore.DEInternal>
2.2030

> <Gold.Chemscore.Rot>
3.9050

> <Gold.Chemscore.Internal.Correction>
   9.000000E+99

> <Gold.Chemscore.Hbonds>
donor molecule, donor type, donor heavy atom, donor atom, acceptor molecule, acceptor atom, score
      L1  H    26    53       P1 10186  0.91
      P1  H  7997  8009       L1     3  0.59
      P1  H 10785 10796       L1    26  0.27

> <Gold.Chemscore.Hbond.Weighted>
-7.5033

> <Gold.Chemscore.Metal.Weighted>
-0.0000

> <Gold.Chemscore.Lipo.Weighted>
-9.6808

> <Gold.Chemscore.Internal_Hbond.Weighted>
0.0000

> <Gold.Chemscore.DEClash.Weighted>
0.1355

> <Gold.Chemscore.DEInternal.Weighted>
2.2030

> <Gold.Chemscore.Rot.Weighted>
9.9969

> <Gold.Chemscore.Internal.Correction.Weighted>
   9.000000E+99

> <Gold.Protein.RotatedTorsions>
[ 6907 6896 6895 6894 ] final  -10.92 input  -60.11 | X-H torsion
[ 7974 7965 7964 7962 ] final -124.87 input  175.53 | X-H torsion
[ 8008 7997 7996 7995 ] final  166.81 input   59.86 | X-H torsion
[ 10167 10162 10161 10158 ] final   54.27 input  -65.29 | X-H torsion
[ 10718 10713 10712 10709 ] final  -53.35 input   66.30 | X-H torsion
[ 10763 10752 10751 10750 ] final  160.82 input  -60.55 | X-H torsion
[ 11005 11000 10999 10996 ] final  163.77 input  -57.11 | X-H torsion

> <Gold.Protein.ActiveResidues>
 VAL166  LYS551  ARG553  GLY616  TRP617  ASP618  TYR619  PRO620  LYS621  CYS622 
 ASP623  PHE694  ASN695  SER759  ASP760  ASP761  ALA762  ILE779  LEU786  VAL792 
 PHE793  MET794  SER795  GLU796  ALA797  LYS798  CYS799  TRP800  GLU811  SER814 

> <Gold.Protein.RotatedAtoms>
  151.3943  135.0961  159.9535 H   0  0  0  0  0  0  0  0  0  0  0  0  # atno 6907 bound_to 6896
  152.5070  133.8949  159.7423 H   0  0  0  0  0  0  0  0  0  0  0  0  # atno 6908 bound_to 6896
  150.9410  133.6601  159.2819 H   0  0  0  0  0  0  0  0  0  0  0  0  # atno 6909 bound_to 6896
  145.0036  140.7842  143.4481 H   0  0  0  0  0  0  0  0  0  0  0  0  # atno 7974 bound_to 7965
  156.1687  140.1633  156.8486 H   0  0  0  0  0  0  0  0  0  0  0  0  # atno 8008 bound_to 7997
  154.5234  140.0773  156.8248 H   0  0  0  0  0  0  0  0  0  0  0  0  # atno 8009 bound_to 7997
  155.3558  140.3392  155.4242 H   0  0  0  0  0  0  0  0  0  0  0  0  # atno 8010 bound_to 7997
  140.2319  144.3677  150.6411 H   0  0  0  0  0  0  0  0  0  0  0  0  # atno 10167 bound_to 10162
  156.1543  130.4150  149.9894 H   0  0  0  0  0  0  0  0  0  0  0  0  # atno 10718 bound_to 10713
  154.2533  135.2771  155.2808 H   0  0  0  0  0  0  0  0  0  0  0  0  # atno 10763 bound_to 10752
  154.5446  135.5692  153.6872 H   0  0  0  0  0  0  0  0  0  0  0  0  # atno 10764 bound_to 10752
  152.9976  135.6259  154.2681 H   0  0  0  0  0  0  0  0  0  0  0  0  # atno 10765 bound_to 10752
  140.2391  134.8065  157.3393 H   0  0  0  0  0  0  0  0  0  0  0  0  # atno 11005 bound_to 11000
  145.2119  139.2200  143.5138 LP  0  0  0  0  0  0  0  0  0  0  0  0  # atno 17320 bound_to 7965
  146.3457  140.1959  142.8589 LP  0  0  0  0  0  0  0  0  0  0  0  0  # atno 17321 bound_to 7965
  140.6178  143.2174  151.6755 LP  0  0  0  0  0  0  0  0  0  0  0  0  # atno 17342 bound_to 10162
  139.5107  144.3534  152.0631 LP  0  0  0  0  0  0  0  0  0  0  0  0  # atno 17343 bound_to 10162
  156.7743  130.9198  151.3645 LP  0  0  0  0  0  0  0  0  0  0  0  0  # atno 17370 bound_to 10713
  157.6682  130.9027  149.9980 LP  0  0  0  0  0  0  0  0  0  0  0  0  # atno 17371 bound_to 10713
  140.1671  134.4655  155.7855 LP  0  0  0  0  0  0  0  0  0  0  0  0  # atno 17394 bound_to 11000
  141.2212  133.6926  156.7645 LP  0  0  0  0  0  0  0  0  0  0  0  0  # atno 17395 bound_to 11000

$$$$
