AV-unprocessed.smi:3041|AV-procd|sdf|11597|dock10
  -GOLD-   2272016573D 1   1.00000     0.00000
 Structure written by MMmdl.
 38 39  0  0  0  0  0  0  0  0  1 V2000
  144.3738  132.3054  149.8339 C   0  0  0  0  0  0  0  0  0  0  0  0
  144.8002  133.4349  150.6320 N   0  0  0  0  0  0  0  0  0  0  0  0
  144.1005  134.5801  150.9469 C   0  0  0  0  0  0  0  0  0  0  0  0
  144.9142  135.3568  151.7229 C   0  0  0  0  0  0  0  0  0  0  0  0
  144.6336  136.7018  152.3326 C   0  0  0  0  0  0  0  0  0  0  0  0
  145.6382  137.7602  151.8491 C   0  0  0  0  0  0  0  0  0  0  0  0
  146.9246  137.6275  152.5230 N   0  0  0  0  0  0  0  0  0  0  0  0
  147.3169  138.3580  153.5762 C   0  0  0  0  0  0  0  0  0  0  0  0
  146.6301  139.2335  154.1031 O   0  0  0  0  0  0  0  0  0  0  0  0
  148.5458  138.0181  153.9884 N   0  0  0  0  0  0  0  0  0  0  0  0
  149.2512  138.6275  155.1110 C   0  0  0  0  0  0  0  0  0  0  0  0
  150.6379  139.1631  154.7055 C   0  0  2  0  0  0  0  0  0  0  0  0
  151.6362  138.0798  154.3539 C   0  0  0  0  0  0  0  0  0  0  0  0
  152.9615  138.8268  154.4651 C   0  0  0  0  0  0  0  0  0  0  0  0
  152.7704  139.8072  155.4810 O   0  0  0  0  0  0  0  0  0  0  0  0
  151.3881  139.9083  155.8111 C   0  0  0  0  0  0  0  0  0  0  0  0
  146.1071  134.5859  151.8254 C   0  0  0  0  0  0  0  0  0  0  0  0
  146.0364  133.4381  151.1712 N   0  0  0  0  0  0  0  0  0  0  0  0
  143.3181  132.4035  149.5800 H   0  0  0  0  0  0  0  0  0  0  0  0
  144.5184  131.3804  150.3934 H   0  0  0  0  0  0  0  0  0  0  0  0
  144.9579  132.2629  148.9142 H   0  0  0  0  0  0  0  0  0  0  0  0
  143.0917  134.7460  150.5985 H   0  0  0  0  0  0  0  0  0  0  0  0
  143.6204  137.0225  152.0872 H   0  0  0  0  0  0  0  0  0  0  0  0
  144.6684  136.6417  153.4211 H   0  0  0  0  0  0  0  0  0  0  0  0
  145.8054  137.6518  150.7770 H   0  0  0  0  0  0  0  0  0  0  0  0
  145.2388  138.7646  152.0007 H   0  0  0  0  0  0  0  0  0  0  0  0
  147.5596  136.9307  152.1615 H   0  0  0  0  0  0  0  0  0  0  0  0
  149.0308  137.2867  153.4892 H   0  0  0  0  0  0  0  0  0  0  0  0
  148.6327  139.4394  155.4942 H   0  0  0  0  0  0  0  0  0  0  0  0
  149.3488  137.9054  155.9233 H   0  0  0  0  0  0  0  0  0  0  0  0
  150.5374  139.8263  153.8446 H   0  0  0  0  0  0  0  0  0  0  0  0
  151.6000  137.2734  155.0881 H   0  0  0  0  0  0  0  0  0  0  0  0
  151.4735  137.6493  153.3655 H   0  0  0  0  0  0  0  0  0  0  0  0
  153.7944  138.1643  154.7015 H   0  0  0  0  0  0  0  0  0  0  0  0
  153.1897  139.3369  153.5284 H   0  0  0  0  0  0  0  0  0  0  0  0
  151.0758  140.9493  155.8972 H   0  0  0  0  0  0  0  0  0  0  0  0
  151.2305  139.4278  156.7776 H   0  0  0  0  0  0  0  0  0  0  0  0
  147.0174  134.8262  152.3546 H   0  0  0  0  0  0  0  0  0  0  0  0
  1  2  1  0  0  0  0
  1 19  1  0  0  0  0
  1 20  1  0  0  0  0
  1 21  1  0  0  0  0
  2 18  1  0  0  0  0
  2  3  1  0  0  0  0
  3  4  2  0  0  0  0
  3 22  1  0  0  0  0
  4  5  1  0  0  0  0
  4 17  1  0  0  0  0
  5  6  1  0  0  0  0
  5 23  1  0  0  0  0
  5 24  1  0  0  0  0
  6  7  1  0  0  0  0
  6 25  1  0  0  0  0
  6 26  1  0  0  0  0
  7  8  1  0  0  0  0
  7 27  1  0  0  0  0
  8  9  2  0  0  0  0
  8 10  1  0  0  0  0
 10 11  1  0  0  0  0
 10 28  1  0  0  0  0
 11 12  1  0  0  0  0
 11 29  1  0  0  0  0
 11 30  1  0  0  0  0
 12 16  1  0  0  0  0
 12 13  1  0  0  0  0
 12 31  1  0  0  0  0
 13 14  1  0  0  0  0
 13 32  1  0  0  0  0
 13 33  1  0  0  0  0
 14 15  1  0  0  0  0
 14 34  1  0  0  0  0
 14 35  1  0  0  0  0
 15 16  1  0  0  0  0
 16 36  1  0  0  0  0
 16 37  1  0  0  0  0
 17 18  2  0  0  0  0
 17 38  1  0  0  0  0
M  END
> <s_m_source_file>
AV-unprocessed.smi

> <i_m_source_file_index>
3041

> <i_lp_mmshare_version>
43012

> <i_f3d_flags>
0

> <s_epik_input>
W0NIM11uMVtjSF1jKFtjSF1uMSlbQ0gyXVtDSDJdW05IXUMoPU8pW05IXVtDSDJdW0NAQEhdMltDSDJdW0NIMl1PW0NIMl0y

> <s_epik_cmdline>
J2VwaWtfcHl0aG9uJywgJy1waCcsICc3LjAnLCAnLXRuJywgJzgnLCAnLW1hJywgJzIwMCcsICctbWV0YWxfYmluZGluZycsICctaW1hZScsICc8aW5maWxlLm1hZT4nLCAnLW9tYWUnLCAnPG91dGZpbGUubWFlPic=

> <r_lp_tautomer_probability>
1

> <r_epik_Ionization_Penalty>
0.000557811

> <r_epik_Ionization_Penalty_Charging>
0

> <r_epik_Ionization_Penalty_Neutral>
0.000557811

> <r_epik_State_Penalty>
-0

> <r_epik_Charging_Adjusted_Penalty>
0

> <i_epik_Tot_Q>
0

> <i_epik_Tot_abs_Q>
0

> <r_epik_Metal_State_Penalty>
-0

> <b_epik_Metal_Only>
0

> <s_lp_Force_Field>
OPLS_2005

> <r_lp_Energy>
13.0487

> <b_lp_Chiralities_Consistent>
1

> <s_lp_Variant>
AV-unprocessed.smi:3041-1

> <Gold.Version>
5.8.1

> <Gold.Id.Protein>
6NUR|6NUR_protein|mol2

> <Gold.PLP.Fitness>
45.8918

> <Gold.PLP.PLP>
-31.8073

> <Gold.PLP.part.hbond>
-2.9308

> <Gold.PLP.part.metal>
0.0000

> <Gold.PLP.part.buried>
-2.1522

> <Gold.PLP.part.nonpolar>
-27.8180

> <Gold.PLP.part.repulsive>
0.3667

> <Gold.PLP.ligand.clash>
0.0000

> <Gold.PLP.ligand.torsion>
0.2635

> <Gold.PLP.Chemscore.Hbond>
2.8640

> <Gold.PLP.Chemscore.CHOScore>
2.0000

> <Gold.PLP.Chemscore.Metal>
0.0000

> <Gold.Chemscore.Hbonds>
donor molecule, donor type, donor heavy atom, donor atom, acceptor molecule, acceptor atom, score
      L1  H     7    27       P1  7948  1.00
      L1  H    10    28       P1  7948  0.86
      P1  H  7997  8009       L1    15  1.00
      L1  C     3    22       P1 10186  1.00
      L1  C    17    38       P1  7948  1.00

> <Gold.PLP.Chemscore.Internal.Correction>
0.0195

> <Gold.Rescore>
     Score         DG    S(hbond)    S(metal)    S(lipo)     H(rot)  DE(clash)    DE(int)     intcor
     17.33     -19.27       2.85        0.00      76.98       1.85       1.70       0.24       ----

> <Gold.Chemscore.Fitness>
17.3297

> <Gold.Chemscore.DG>
-19.2669

> <Gold.Chemscore.ZeroCoef>
-5.4800

> <Gold.Chemscore.Hbond>
2.8515

> <Gold.Chemscore.Metal>
0.0000

> <Gold.Chemscore.Lipo>
76.9768

> <Gold.Chemscore.Internal_Hbond>
0.0000

> <Gold.Chemscore.DEClash>
1.6976

> <Gold.Chemscore.DEInternal>
0.2396

> <Gold.Chemscore.Rot>
1.8528

> <Gold.Chemscore.Internal.Correction>
   9.000000E+99

> <Gold.Chemscore.Hbonds>
donor molecule, donor type, donor heavy atom, donor atom, acceptor molecule, acceptor atom, score
      L1  H     7    27       P1  7948  0.97
      L1  H    10    28       P1  7948  0.84
      P1  H  7997  8009       L1    15  0.65

> <Gold.Chemscore.Hbond.Weighted>
-9.5239

> <Gold.Chemscore.Metal.Weighted>
-0.0000

> <Gold.Chemscore.Lipo.Weighted>
-9.0063

> <Gold.Chemscore.Internal_Hbond.Weighted>
0.0000

> <Gold.Chemscore.DEClash.Weighted>
1.6976

> <Gold.Chemscore.DEInternal.Weighted>
0.2396

> <Gold.Chemscore.Rot.Weighted>
4.7433

> <Gold.Chemscore.Internal.Correction.Weighted>
   9.000000E+99

> <Gold.Protein.RotatedTorsions>
[ 6907 6896 6895 6894 ] final -178.94 input  -60.11 | X-H torsion
[ 7974 7965 7964 7962 ] final  -19.48 input  175.53 | X-H torsion
[ 8008 7997 7996 7995 ] final -155.67 input   59.86 | X-H torsion
[ 10167 10162 10161 10158 ] final  171.34 input  -65.29 | X-H torsion
[ 10718 10713 10712 10709 ] final  112.31 input   66.30 | X-H torsion
[ 10763 10752 10751 10750 ] final -146.99 input  -60.55 | X-H torsion
[ 11005 11000 10999 10996 ] final  149.06 input  -57.11 | X-H torsion

> <Gold.Protein.ActiveResidues>
 VAL166  LYS551  ARG553  GLY616  TRP617  ASP618  TYR619  PRO620  LYS621  CYS622 
 ASP623  PHE694  ASN695  SER759  ASP760  ASP761  ALA762  ILE779  LEU786  VAL792 
 PHE793  MET794  SER795  GLU796  ALA797  LYS798  CYS799  TRP800  GLU811  SER814 

> <Gold.Protein.RotatedAtoms>
  151.6454  133.3323  159.3139 H   0  0  0  0  0  0  0  0  0  0  0  0  # atno 6907 bound_to 6896
  150.7987  134.7069  159.6591 H   0  0  0  0  0  0  0  0  0  0  0  0  # atno 6908 bound_to 6896
  152.4077  134.6183  160.0095 H   0  0  0  0  0  0  0  0  0  0  0  0  # atno 6909 bound_to 6896
  146.1839  140.4068  142.8484 H   0  0  0  0  0  0  0  0  0  0  0  0  # atno 7974 bound_to 7965
  155.7054  140.0772  157.2393 H   0  0  0  0  0  0  0  0  0  0  0  0  # atno 8008 bound_to 7997
  154.4066  140.1640  156.2290 H   0  0  0  0  0  0  0  0  0  0  0  0  # atno 8009 bound_to 7997
  155.9330  140.3390  155.6268 H   0  0  0  0  0  0  0  0  0  0  0  0  # atno 8010 bound_to 7997
  139.5044  144.3496  151.9935 H   0  0  0  0  0  0  0  0  0  0  0  0  # atno 10167 bound_to 10162
  157.6399  131.0965  150.6876 H   0  0  0  0  0  0  0  0  0  0  0  0  # atno 10718 bound_to 10713
  154.8309  135.3372  154.6747 H   0  0  0  0  0  0  0  0  0  0  0  0  # atno 10763 bound_to 10752
  153.7367  135.6948  153.4981 H   0  0  0  0  0  0  0  0  0  0  0  0  # atno 10764 bound_to 10752
  153.2273  135.4428  155.0508 H   0  0  0  0  0  0  0  0  0  0  0  0  # atno 10765 bound_to 10752
  140.1012  134.8982  157.1799 H   0  0  0  0  0  0  0  0  0  0  0  0  # atno 11005 bound_to 11000
  144.8363  140.6786  143.6258 LP  0  0  0  0  0  0  0  0  0  0  0  0  # atno 17320 bound_to 7965
  145.3996  139.1600  143.4185 LP  0  0  0  0  0  0  0  0  0  0  0  0  # atno 17321 bound_to 7965
  140.2933  144.3729  150.6082 LP  0  0  0  0  0  0  0  0  0  0  0  0  # atno 17342 bound_to 10162
  140.5929  143.2167  151.7218 LP  0  0  0  0  0  0  0  0  0  0  0  0  # atno 17343 bound_to 10162
  156.7202  130.4678  149.5525 LP  0  0  0  0  0  0  0  0  0  0  0  0  # atno 17370 bound_to 10713
  156.1671  130.6412  151.0791 LP  0  0  0  0  0  0  0  0  0  0  0  0  # atno 17371 bound_to 10713
  140.3217  134.2909  155.7245 LP  0  0  0  0  0  0  0  0  0  0  0  0  # atno 17394 bound_to 11000
  141.2106  133.7714  156.9920 LP  0  0  0  0  0  0  0  0  0  0  0  0  # atno 17395 bound_to 11000

$$$$
