AV-unprocessed.smi:1525|AV-procd|sdf|6142|dock2
  -GOLD-   22720 6283D 1   1.00000     0.00000
 Structure written by MMmdl.
 49 51  0  0  0  0  0  0  0  0  2 V2000
  145.6071  137.7191  152.7736 O   0  0  0  0  0  0  0  0  0  0  0  0
  146.7443  137.3129  153.0121 C   0  0  0  0  0  0  0  0  0  0  0  0
  147.1215  136.0390  152.8408 N   0  0  0  0  0  0  0  0  0  0  0  0
  146.2441  134.9856  152.3492 C   0  0  0  0  0  0  0  0  0  0  0  0
  145.9528  135.1767  150.8518 C   0  0  0  0  0  0  0  0  0  0  0  0
  145.6637  133.8928  150.1651 N   0  3  0  0  0  0  0  0  0  0  0  0
  146.7155  132.8643  150.3622 C   0  0  0  0  0  0  0  0  0  0  0  0
  146.3634  131.5797  149.5930 C   0  0  0  0  0  0  0  0  0  0  0  0
  145.0906  131.1043  150.0130 O   0  0  0  0  0  0  0  0  0  0  0  0
  144.0585  132.0457  149.7478 C   0  0  0  0  0  0  0  0  0  0  0  0
  144.3338  133.3448  150.5243 C   0  0  0  0  0  0  0  0  0  0  0  0
  147.7651  138.0690  153.4500 N   0  0  0  0  0  0  0  0  0  0  0  0
  147.7738  139.4653  153.7315 C   0  0  0  0  0  0  0  0  0  0  0  0
  146.6849  140.3036  153.3871 C   0  0  0  0  0  0  0  0  0  0  0  0
  146.7533  141.6775  153.6757 C   0  0  0  0  0  0  0  0  0  0  0  0
  147.9099  142.1678  154.3035 C   0  0  0  0  0  0  0  0  0  0  0  0
  148.9467  141.3813  154.6543 N   0  0  0  0  0  0  0  0  0  0  0  0
  148.8894  140.0515  154.3955 C   0  0  0  0  0  0  0  0  0  0  0  0
  149.9946  139.2717  154.8056 N   0  0  0  0  0  0  0  0  0  0  0  0
  150.9473  139.8754  155.7325 C   0  0  0  0  0  0  0  0  0  0  0  0
  152.3336  139.3666  155.3218 C   0  0  0  0  0  0  0  0  0  0  0  0
  152.0324  138.0967  154.5320 C   0  0  0  0  0  0  0  0  0  0  0  0
  150.7178  138.4489  153.8418 C   0  0  0  0  0  0  0  0  0  0  0  0
  148.0758  135.7869  153.0539 H   0  0  0  0  0  0  0  0  0  0  0  0
  146.7094  134.0124  152.5153 H   0  0  0  0  0  0  0  0  0  0  0  0
  145.3250  135.0082  152.9348 H   0  0  0  0  0  0  0  0  0  0  0  0
  145.1247  135.8713  150.7015 H   0  0  0  0  0  0  0  0  0  0  0  0
  146.8295  135.6358  150.3921 H   0  0  0  0  0  0  0  0  0  0  0  0
  147.6815  133.2330  150.0190 H   0  0  0  0  0  0  0  0  0  0  0  0
  146.8175  132.6435  151.4259 H   0  0  0  0  0  0  0  0  0  0  0  0
  146.3626  131.7575  148.5163 H   0  0  0  0  0  0  0  0  0  0  0  0
  147.1099  130.8094  149.7874 H   0  0  0  0  0  0  0  0  0  0  0  0
  143.9913  132.2382  148.6757 H   0  0  0  0  0  0  0  0  0  0  0  0
  143.1037  131.6188  150.0553 H   0  0  0  0  0  0  0  0  0  0  0  0
  144.2937  133.1543  151.5981 H   0  0  0  0  0  0  0  0  0  0  0  0
  143.5567  134.0762  150.2989 H   0  0  0  0  0  0  0  0  0  0  0  0
  148.6654  137.6155  153.5001 H   0  0  0  0  0  0  0  0  0  0  0  0
  145.7954  139.9156  152.9150 H   0  0  0  0  0  0  0  0  0  0  0  0
  145.9388  142.3389  153.4205 H   0  0  0  0  0  0  0  0  0  0  0  0
  148.0021  143.2178  154.5384 H   0  0  0  0  0  0  0  0  0  0  0  0
  150.9026  140.9654  155.7178 H   0  0  0  0  0  0  0  0  0  0  0  0
  150.7138  139.5392  156.7429 H   0  0  0  0  0  0  0  0  0  0  0  0
  152.8135  140.0969  154.6690 H   0  0  0  0  0  0  0  0  0  0  0  0
  152.9915  139.1936  156.1738 H   0  0  0  0  0  0  0  0  0  0  0  0
  152.8234  137.8297  153.8306 H   0  0  0  0  0  0  0  0  0  0  0  0
  151.8847  137.2591  155.2153 H   0  0  0  0  0  0  0  0  0  0  0  0
  150.1486  137.5583  153.5742 H   0  0  0  0  0  0  0  0  0  0  0  0
  150.9271  139.0094  152.9298 H   0  0  0  0  0  0  0  0  0  0  0  0
  145.6276  134.0951  149.1760 H   0  0  0  0  0  0  0  0  0  0  0  0
  1  2  2  0  0  0  0
  2  3  1  0  0  0  0
  2 12  1  0  0  0  0
  3  4  1  0  0  0  0
  3 24  1  0  0  0  0
  4  5  1  0  0  0  0
  4 25  1  0  0  0  0
  4 26  1  0  0  0  0
  5  6  1  0  0  0  0
  5 27  1  0  0  0  0
  5 28  1  0  0  0  0
  6 11  1  0  0  0  0
  6  7  1  0  0  0  0
  6 49  1  0  0  0  0
  7  8  1  0  0  0  0
  7 29  1  0  0  0  0
  7 30  1  0  0  0  0
  8  9  1  0  0  0  0
  8 31  1  0  0  0  0
  8 32  1  0  0  0  0
  9 10  1  0  0  0  0
 10 11  1  0  0  0  0
 10 33  1  0  0  0  0
 10 34  1  0  0  0  0
 11 35  1  0  0  0  0
 11 36  1  0  0  0  0
 12 13  1  0  0  0  0
 12 37  1  0  0  0  0
 13 18  1  0  0  0  0
 13 14  2  0  0  0  0
 14 15  1  0  0  0  0
 14 38  1  0  0  0  0
 15 16  2  0  0  0  0
 15 39  1  0  0  0  0
 16 17  1  0  0  0  0
 16 40  1  0  0  0  0
 17 18  2  0  0  0  0
 18 19  1  0  0  0  0
 19 23  1  0  0  0  0
 19 20  1  0  0  0  0
 20 21  1  0  0  0  0
 20 41  1  0  0  0  0
 20 42  1  0  0  0  0
 21 22  1  0  0  0  0
 21 43  1  0  0  0  0
 21 44  1  0  0  0  0
 22 23  1  0  0  0  0
 22 45  1  0  0  0  0
 22 46  1  0  0  0  0
 23 47  1  0  0  0  0
 23 48  1  0  0  0  0
M  CHG  1   6   1
M  END
> <s_m_source_file>
AV-unprocessed.smi

> <i_m_source_file_index>
1525

> <i_lp_mmshare_version>
43012

> <i_f3d_flags>
0

> <s_epik_input>
W0NIMl0xW0NIMl1PW0NIMl1bQ0gyXU4xW0NIMl1bQ0gyXVtOSF1DKD1PKVtOSF1jMltjSF1bY0hdW2NIXW5jMk4zW0NIMl1bQ0gyXVtDSDJdW0NIMl0z

> <s_epik_cmdline>
J2VwaWtfcHl0aG9uJywgJy1waCcsICc3LjAnLCAnLXRuJywgJzgnLCAnLW1hJywgJzIwMCcsICctbWV0YWxfYmluZGluZycsICctaW1hZScsICc8aW5maWxlLm1hZT4nLCAnLW9tYWUnLCAnPG91dGZpbGUubWFlPic=

> <r_lp_tautomer_probability>
1

> <r_epik_Ionization_Penalty>
0.684913

> <r_epik_Ionization_Penalty_Charging>
0.602531

> <r_epik_Ionization_Penalty_Neutral>
0.0823828

> <r_epik_State_Penalty>
0.678827

> <r_epik_Charging_Adjusted_Penalty>
1.28136

> <i_epik_Tot_Q>
1

> <i_epik_Tot_abs_Q>
1

> <r_epik_Metal_State_Penalty>
0.678066

> <b_epik_Metal_Only>
0

> <s_lp_Force_Field>
OPLS_2005

> <r_lp_Energy>
44.7597

> <b_lp_Chiralities_Consistent>
1

> <s_lp_Variant>
AV-unprocessed.smi:1525-2

> <Gold.Version>
5.8.1

> <Gold.Id.Protein>
6NUR|6NUR_protein|mol2

> <Gold.PLP.Fitness>
44.7505

> <Gold.PLP.PLP>
-39.1165

> <Gold.PLP.part.hbond>
-3.1687

> <Gold.PLP.part.metal>
0.0000

> <Gold.PLP.part.buried>
1.4570

> <Gold.PLP.part.nonpolar>
-38.5730

> <Gold.PLP.part.repulsive>
0.7609

> <Gold.PLP.ligand.clash>
0.0000

> <Gold.PLP.ligand.torsion>
0.4767

> <Gold.PLP.Chemscore.Hbond>
1.5079

> <Gold.PLP.Chemscore.CHOScore>
0.5701

> <Gold.PLP.Chemscore.Metal>
0.0000

> <Gold.Chemscore.Hbonds>
donor molecule, donor type, donor heavy atom, donor atom, acceptor molecule, acceptor atom, score
      L1  H     3    24       P1  7948  0.16
      L1  H     6    49       P1  7921  1.00
      L1  H    12    37       P1  7948  0.17
      L1  C    16    40       P1  8028  1.00

> <Gold.PLP.Chemscore.Internal.Correction>
0.3534

> <Gold.Rescore>
     Score         DG    S(hbond)    S(metal)    S(lipo)     H(rot)  DE(clash)    DE(int)     intcor
     15.09     -18.08       1.42        0.00     103.64       1.66       1.01       1.98       ----

> <Gold.Chemscore.Fitness>
15.0897

> <Gold.Chemscore.DG>
-18.0835

> <Gold.Chemscore.ZeroCoef>
-5.4800

> <Gold.Chemscore.Hbond>
1.4176

> <Gold.Chemscore.Metal>
0.0000

> <Gold.Chemscore.Lipo>
103.6439

> <Gold.Chemscore.Internal_Hbond>
0.0000

> <Gold.Chemscore.DEClash>
1.0130

> <Gold.Chemscore.DEInternal>
1.9808

> <Gold.Chemscore.Rot>
1.6632

> <Gold.Chemscore.Internal.Correction>
   9.000000E+99

> <Gold.Chemscore.Hbonds>
donor molecule, donor type, donor heavy atom, donor atom, acceptor molecule, acceptor atom, score
      L1  H     3    24       P1  7948  0.16
      L1  H     6    49       P1  7921  0.65
      L1  H    12    37       P1  7948  0.17

> <Gold.Chemscore.Hbond.Weighted>
-4.7349

> <Gold.Chemscore.Metal.Weighted>
-0.0000

> <Gold.Chemscore.Lipo.Weighted>
-12.1263

> <Gold.Chemscore.Internal_Hbond.Weighted>
0.0000

> <Gold.Chemscore.DEClash.Weighted>
1.0130

> <Gold.Chemscore.DEInternal.Weighted>
1.9808

> <Gold.Chemscore.Rot.Weighted>
4.2577

> <Gold.Chemscore.Internal.Correction.Weighted>
   9.000000E+99

> <Gold.Protein.RotatedTorsions>
[ 6907 6896 6895 6894 ] final    8.80 input  -60.11 | X-H torsion
[ 7974 7965 7964 7962 ] final -104.09 input  175.53 | X-H torsion
[ 8008 7997 7996 7995 ] final   22.55 input   59.86 | X-H torsion
[ 10167 10162 10161 10158 ] final  -82.66 input  -65.29 | X-H torsion
[ 10718 10713 10712 10709 ] final  -17.09 input   66.30 | X-H torsion
[ 10763 10752 10751 10750 ] final  130.46 input  -60.55 | X-H torsion
[ 11005 11000 10999 10996 ] final   88.74 input  -57.11 | X-H torsion

> <Gold.Protein.ActiveResidues>
 VAL166  LYS551  ARG553  GLY616  TRP617  ASP618  TYR619  PRO620  LYS621  CYS622 
 ASP623  PHE694  ASN695  SER759  ASP760  ASP761  ALA762  ILE779  LEU786  VAL792 
 PHE793  MET794  SER795  GLU796  ALA797  LYS798  CYS799  TRP800  GLU811  SER814 

> <Gold.Protein.RotatedAtoms>
  151.7119  135.0911  160.0268 H   0  0  0  0  0  0  0  0  0  0  0  0  # atno 6907 bound_to 6896
  152.3656  133.6348  159.6056 H   0  0  0  0  0  0  0  0  0  0  0  0  # atno 6908 bound_to 6896
  150.7635  133.9270  159.3456 H   0  0  0  0  0  0  0  0  0  0  0  0  # atno 6909 bound_to 6896
  145.2476  140.9227  143.3114 H   0  0  0  0  0  0  0  0  0  0  0  0  # atno 7974 bound_to 7965
  154.9674  140.3086  155.5003 H   0  0  0  0  0  0  0  0  0  0  0  0  # atno 8008 bound_to 7997
  156.2970  140.2290  156.4703 H   0  0  0  0  0  0  0  0  0  0  0  0  # atno 8009 bound_to 7997
  154.7908  140.0440  157.1188 H   0  0  0  0  0  0  0  0  0  0  0  0  # atno 8010 bound_to 7997
  140.4299  143.2552  151.8774 H   0  0  0  0  0  0  0  0  0  0  0  0  # atno 10167 bound_to 10162
  156.5784  130.4767  149.6331 H   0  0  0  0  0  0  0  0  0  0  0  0  # atno 10718 bound_to 10713
  153.7584  135.3199  155.3333 H   0  0  0  0  0  0  0  0  0  0  0  0  # atno 10763 bound_to 10752
  154.8239  135.4584  154.0863 H   0  0  0  0  0  0  0  0  0  0  0  0  # atno 10764 bound_to 10752
  153.2086  135.6932  153.8225 H   0  0  0  0  0  0  0  0  0  0  0  0  # atno 10765 bound_to 10752
  139.8890  134.8507  156.3043 H   0  0  0  0  0  0  0  0  0  0  0  0  # atno 11005 bound_to 11000
  144.9532  139.4060  143.6392 LP  0  0  0  0  0  0  0  0  0  0  0  0  # atno 17320 bound_to 7965
  146.3311  139.8549  142.8866 LP  0  0  0  0  0  0  0  0  0  0  0  0  # atno 17321 bound_to 7965
  139.4784  144.5346  151.8617 LP  0  0  0  0  0  0  0  0  0  0  0  0  # atno 17342 bound_to 10162
  140.4439  144.1949  150.5893 LP  0  0  0  0  0  0  0  0  0  0  0  0  # atno 17343 bound_to 10162
  156.2653  130.6986  151.1767 LP  0  0  0  0  0  0  0  0  0  0  0  0  # atno 17370 bound_to 10713
  157.7332  131.0593  150.5588 LP  0  0  0  0  0  0  0  0  0  0  0  0  # atno 17371 bound_to 10713
  140.9893  133.7219  156.0789 LP  0  0  0  0  0  0  0  0  0  0  0  0  # atno 17394 bound_to 11000
  140.7647  134.3900  157.5519 LP  0  0  0  0  0  0  0  0  0  0  0  0  # atno 17395 bound_to 11000

$$$$
