AV-unprocessed.smi:1428|AV-procd|sdf|5816|dock10
  -GOLD-   22720 5473D 1   1.00000     0.00000
 Structure written by MMmdl.
 43 44  0  0  0  0  0  0  0  0  3 V2000
  147.9311  140.2052  153.9329 C   0  0  0  0  0  0  0  0  0  0  0  0
  148.6659  139.0056  154.1517 O   0  0  0  0  0  0  0  0  0  0  0  0
  149.9249  139.0965  154.7150 C   0  0  0  0  0  0  0  0  0  0  0  0
  150.3547  140.3120  155.1375 N   0  0  0  0  0  0  0  0  0  0  0  0
  151.5811  140.4036  155.6906 C   0  0  0  0  0  0  0  0  0  0  0  0
  152.4343  139.2982  155.8581 C   0  0  0  0  0  0  0  0  0  0  0  0
  151.9907  138.0361  155.4224 C   0  0  0  0  0  0  0  0  0  0  0  0
  150.7107  137.9248  154.8252 C   0  0  0  0  0  0  0  0  0  0  0  0
  150.1527  136.7012  154.3581 N   0  0  0  0  0  0  0  0  0  0  0  0
  150.3486  135.4507  154.8104 C   0  0  0  0  0  0  0  0  0  0  0  0
  151.0867  135.1337  155.7427 O   0  0  0  0  0  0  0  0  0  0  0  0
  149.6383  134.5632  154.0993 N   0  0  0  0  0  0  0  0  0  0  0  0
  149.6159  133.1224  154.3351 C   0  0  2  0  0  0  0  0  0  0  0  0
  148.8462  132.3896  153.2206 C   0  0  0  0  0  0  0  0  0  0  0  0
  148.7426  130.8847  153.5175 C   0  0  0  0  0  0  0  0  0  0  0  0
  148.1056  130.6419  154.8394 N   0  3  1  0  0  0  0  0  0  0  0  0
  147.8575  129.2039  155.1168 C   0  0  0  0  0  0  0  0  0  0  0  0
  146.9309  128.5970  154.0576 C   0  0  0  0  0  0  0  0  0  0  0  0
  145.7725  128.1503  154.5839 N   0  5  0  0  0  0  0  0  0  0  0  0
  147.2892  128.5643  152.8828 O   0  0  0  0  0  0  0  0  0  0  0  0
  148.8461  131.3114  155.9383 C   0  0  0  0  0  0  0  0  0  0  0  0
  148.9571  132.8255  155.6918 C   0  0  0  0  0  0  0  0  0  0  0  0
  146.9696  139.9617  153.4814 H   0  0  0  0  0  0  0  0  0  0  0  0
  148.4548  140.8771  153.2514 H   0  0  0  0  0  0  0  0  0  0  0  0
  147.7333  140.7278  154.8700 H   0  0  0  0  0  0  0  0  0  0  0  0
  151.8891  141.3867  156.0149 H   0  0  0  0  0  0  0  0  0  0  0  0
  153.4059  139.4150  156.3146 H   0  0  0  0  0  0  0  0  0  0  0  0
  152.6369  137.1854  155.5685 H   0  0  0  0  0  0  0  0  0  0  0  0
  149.5650  136.7870  153.5415 H   0  0  0  0  0  0  0  0  0  0  0  0
  149.0630  134.9109  153.3460 H   0  0  0  0  0  0  0  0  0  0  0  0
  150.6425  132.7514  154.3642 H   0  0  0  0  0  0  0  0  0  0  0  0
  147.8436  132.8089  153.1223 H   0  0  0  0  0  0  0  0  0  0  0  0
  149.3385  132.5376  152.2588 H   0  0  0  0  0  0  0  0  0  0  0  0
  148.1649  130.4052  152.7267 H   0  0  0  0  0  0  0  0  0  0  0  0
  149.7347  130.4308  153.5015 H   0  0  0  0  0  0  0  0  0  0  0  0
  148.8005  128.6571  155.1650 H   0  0  0  0  0  0  0  0  0  0  0  0
  147.3774  129.0811  156.0892 H   0  0  0  0  0  0  0  0  0  0  0  0
  144.8906  128.5544  154.2463 H   0  0  0  0  0  0  0  0  0  0  0  0
  148.3311  131.1423  156.8847 H   0  0  0  0  0  0  0  0  0  0  0  0
  149.8388  130.8684  156.0328 H   0  0  0  0  0  0  0  0  0  0  0  0
  149.5305  133.2874  156.4966 H   0  0  0  0  0  0  0  0  0  0  0  0
  147.9610  133.2699  155.7266 H   0  0  0  0  0  0  0  0  0  0  0  0
  147.1893  131.0677  154.8095 H   0  0  0  0  0  0  0  0  0  0  0  0
  1  2  1  0  0  0  0
  1 23  1  0  0  0  0
  1 24  1  0  0  0  0
  1 25  1  0  0  0  0
  2  3  1  0  0  0  0
  3  8  1  0  0  0  0
  3  4  2  0  0  0  0
  4  5  1  0  0  0  0
  5  6  2  0  0  0  0
  5 26  1  0  0  0  0
  6  7  1  0  0  0  0
  6 27  1  0  0  0  0
  7  8  2  0  0  0  0
  7 28  1  0  0  0  0
  8  9  1  0  0  0  0
  9 10  1  0  0  0  0
  9 29  1  0  0  0  0
 10 11  2  0  0  0  0
 10 12  1  0  0  0  0
 12 13  1  0  0  0  0
 12 30  1  0  0  0  0
 13 22  1  0  0  0  0
 13 14  1  0  0  0  0
 13 31  1  0  0  0  0
 14 15  1  0  0  0  0
 14 32  1  0  0  0  0
 14 33  1  0  0  0  0
 15 16  1  0  0  0  0
 15 34  1  0  0  0  0
 15 35  1  0  0  0  0
 16 17  1  0  0  0  0
 16 21  1  0  0  0  0
 16 43  1  0  0  0  0
 17 18  1  0  0  0  0
 17 36  1  0  0  0  0
 17 37  1  0  0  0  0
 18 19  1  0  0  0  0
 18 20  2  0  0  0  0
 19 38  1  0  0  0  0
 21 22  1  0  0  0  0
 21 39  1  0  0  0  0
 21 40  1  0  0  0  0
 22 41  1  0  0  0  0
 22 42  1  0  0  0  0
M  CHG  1  16   1
M  CHG  1  19  -1
M  END
> <s_m_source_file>
AV-unprocessed.smi

> <i_m_source_file_index>
1428

> <i_lp_mmshare_version>
43012

> <i_f3d_flags>
0

> <s_epik_input>
W0NIM11PYzFuW2NIXVtjSF1bY0hdYzFbTkhdQyg9TylbTkhdW0NIXTJbQ0gyXVtDSDJdTihbQ0gyXVtDSDJdMilbQ0gyXUMoPU8pW05IMl0=

> <s_epik_cmdline>
J2VwaWtfcHl0aG9uJywgJy1waCcsICc3LjAnLCAnLXRuJywgJzgnLCAnLW1hJywgJzIwMCcsICctbWV0YWxfYmluZGluZycsICctaW1hZScsICc8aW5maWxlLm1hZT4nLCAnLW9tYWUnLCAnPG91dGZpbGUubWFlPic=

> <r_lp_tautomer_probability>
1

> <r_epik_Ionization_Penalty>
5.72888

> <r_epik_Ionization_Penalty_Charging>
5.7288

> <r_epik_Ionization_Penalty_Neutral>
7.84403e-05

> <r_epik_State_Penalty>
6.54882

> <r_epik_Charging_Adjusted_Penalty>
12.2776

> <i_epik_Tot_Q>
0

> <i_epik_Tot_abs_Q>
2

> <r_epik_Metal_State_Penalty>
2.51301

> <b_epik_Metal_Only>
1

> <s_lp_Force_Field>
OPLS_2005

> <r_lp_Energy>
10.0981

> <b_lp_Chiralities_Consistent>
1

> <s_lp_Variant>
AV-unprocessed.smi:1428-4

> <Gold.Version>
5.8.1

> <Gold.Id.Protein>
6NUR|6NUR_protein|mol2

> <Gold.PLP.Fitness>
40.7937

> <Gold.PLP.PLP>
-29.9976

> <Gold.PLP.part.hbond>
-5.9810

> <Gold.PLP.part.metal>
0.0000

> <Gold.PLP.part.buried>
0.3078

> <Gold.PLP.part.nonpolar>
-24.6140

> <Gold.PLP.part.repulsive>
0.4819

> <Gold.PLP.ligand.clash>
0.0000

> <Gold.PLP.ligand.torsion>
0.3016

> <Gold.PLP.Chemscore.Hbond>
3.7889

> <Gold.PLP.Chemscore.CHOScore>
0.0000

> <Gold.PLP.Chemscore.Metal>
0.0000

> <Gold.Chemscore.Hbonds>
donor molecule, donor type, donor heavy atom, donor atom, acceptor molecule, acceptor atom, score
      L1  H     9    29       P1  7948  1.00
      L1  H    12    30       P1  7948  0.79
      L1  H    19    38       P1 10956  0.90
      P1  H 10752 10765       L1    11  0.70

> <Gold.PLP.Chemscore.Internal.Correction>
0.0326

> <Gold.Rescore>
     Score         DG    S(hbond)    S(metal)    S(lipo)     H(rot)  DE(clash)    DE(int)     intcor
     14.57     -16.26       2.86        0.00      60.45       2.29       0.10       1.59       ----

> <Gold.Chemscore.Fitness>
14.5715

> <Gold.Chemscore.DG>
-16.2604

> <Gold.Chemscore.ZeroCoef>
-5.4800

> <Gold.Chemscore.Hbond>
2.8647

> <Gold.Chemscore.Metal>
0.0000

> <Gold.Chemscore.Lipo>
60.4541

> <Gold.Chemscore.Internal_Hbond>
0.0000

> <Gold.Chemscore.DEClash>
0.0992

> <Gold.Chemscore.DEInternal>
1.5897

> <Gold.Chemscore.Rot>
2.2894

> <Gold.Chemscore.Internal.Correction>
   9.000000E+99

> <Gold.Chemscore.Hbonds>
donor molecule, donor type, donor heavy atom, donor atom, acceptor molecule, acceptor atom, score
      L1  H     9    29       P1  7948  0.72
      L1  H    12    30       P1  7948  0.15
      L1  H    19    38       P1 10956  0.87
      P1  H 10752 10765       L1    11  0.17

> <Gold.Chemscore.Hbond.Weighted>
-9.5681

> <Gold.Chemscore.Metal.Weighted>
-0.0000

> <Gold.Chemscore.Lipo.Weighted>
-7.0731

> <Gold.Chemscore.Internal_Hbond.Weighted>
0.0000

> <Gold.Chemscore.DEClash.Weighted>
0.0992

> <Gold.Chemscore.DEInternal.Weighted>
1.5897

> <Gold.Chemscore.Rot.Weighted>
5.8608

> <Gold.Chemscore.Internal.Correction.Weighted>
   9.000000E+99

> <Gold.Protein.RotatedTorsions>
[ 6907 6896 6895 6894 ] final   37.58 input  -60.11 | X-H torsion
[ 7974 7965 7964 7962 ] final -146.61 input  175.53 | X-H torsion
[ 8008 7997 7996 7995 ] final  146.07 input   59.86 | X-H torsion
[ 10167 10162 10161 10158 ] final  -51.93 input  -65.29 | X-H torsion
[ 10718 10713 10712 10709 ] final   29.02 input   66.30 | X-H torsion
[ 10763 10752 10751 10750 ] final -163.91 input  -60.55 | X-H torsion
[ 11005 11000 10999 10996 ] final   61.83 input  -57.11 | X-H torsion

> <Gold.Protein.ActiveResidues>
 VAL166  LYS551  ARG553  GLY616  TRP617  ASP618  TYR619  PRO620  LYS621  CYS622 
 ASP623  PHE694  ASN695  SER759  ASP760  ASP761  ALA762  ILE779  LEU786  VAL792 
 PHE793  MET794  SER795  GLU796  ALA797  LYS798  CYS799  TRP800  GLU811  SER814 

> <Gold.Protein.RotatedAtoms>
  152.1450  134.9033  160.0551 H   0  0  0  0  0  0  0  0  0  0  0  0  # atno 6907 bound_to 6896
  152.0086  133.3848  159.4219 H   0  0  0  0  0  0  0  0  0  0  0  0  # atno 6908 bound_to 6896
  150.6869  134.3677  159.5022 H   0  0  0  0  0  0  0  0  0  0  0  0  # atno 6909 bound_to 6896
  144.8148  140.5434  143.5618 H   0  0  0  0  0  0  0  0  0  0  0  0  # atno 7974 bound_to 7965
  156.2866  140.2192  156.5317 H   0  0  0  0  0  0  0  0  0  0  0  0  # atno 8008 bound_to 7997
  154.7443  140.0485  157.0860 H   0  0  0  0  0  0  0  0  0  0  0  0  # atno 8009 bound_to 7997
  155.0191  140.3122  155.4803 H   0  0  0  0  0  0  0  0  0  0  0  0  # atno 8010 bound_to 7997
  140.6564  143.2602  151.4574 H   0  0  0  0  0  0  0  0  0  0  0  0  # atno 10167 bound_to 10162
  157.2411  130.7069  149.6359 H   0  0  0  0  0  0  0  0  0  0  0  0  # atno 10718 bound_to 10713
  154.7079  135.3000  154.9243 H   0  0  0  0  0  0  0  0  0  0  0  0  # atno 10763 bound_to 10752
  154.0154  135.6689  153.4772 H   0  0  0  0  0  0  0  0  0  0  0  0  # atno 10764 bound_to 10752
  153.0731  135.5049  154.8260 H   0  0  0  0  0  0  0  0  0  0  0  0  # atno 10765 bound_to 10752
  140.0134  134.6261  155.9746 H   0  0  0  0  0  0  0  0  0  0  0  0  # atno 11005 bound_to 11000
  145.5240  139.1476  143.3536 LP  0  0  0  0  0  0  0  0  0  0  0  0  # atno 17320 bound_to 7965
  146.2450  140.5381  142.8918 LP  0  0  0  0  0  0  0  0  0  0  0  0  # atno 17321 bound_to 7965
  139.5787  144.1759  152.1939 LP  0  0  0  0  0  0  0  0  0  0  0  0  # atno 17342 bound_to 10162
  140.1078  144.5484  150.6945 LP  0  0  0  0  0  0  0  0  0  0  0  0  # atno 17343 bound_to 10162
  155.9670  130.4458  150.5514 LP  0  0  0  0  0  0  0  0  0  0  0  0  # atno 17370 bound_to 10713
  157.3378  131.0711  151.1812 LP  0  0  0  0  0  0  0  0  0  0  0  0  # atno 17371 bound_to 10713
  141.1726  133.6538  156.4709 LP  0  0  0  0  0  0  0  0  0  0  0  0  # atno 17394 bound_to 11000
  140.4514  134.6925  157.5041 LP  0  0  0  0  0  0  0  0  0  0  0  0  # atno 17395 bound_to 11000

$$$$
