AV-unprocessed.smi:3198|AV-procd|sdf|12230|dock1
  -GOLD-   2272018 63D 1   1.00000     0.00000
 Structure written by MMmdl.
 37 38  0  0  0  0  0  0  0  0  1 V2000
  151.6864  145.6815  160.0977 C   0  0  0  0  0  0  0  0  0  0  0  0
  151.9550  144.2671  159.6291 C   0  0  0  0  0  0  0  0  0  0  0  0
  152.7917  143.4046  160.3667 C   0  0  0  0  0  0  0  0  0  0  0  0
  152.9995  142.1002  159.8802 C   0  0  0  0  0  0  0  0  0  0  0  0
  152.3654  141.7115  158.6842 C   0  0  0  0  0  0  0  0  0  0  0  0
  151.5432  142.6429  158.0159 C   0  0  0  0  0  0  0  0  0  0  0  0
  150.9147  142.2493  156.8255 N   0  0  0  0  0  0  0  0  0  0  0  0
  150.4308  140.8869  156.6352 C   0  0  0  0  0  0  0  0  0  0  0  0
  151.2849  140.0965  155.6333 C   0  0  0  0  0  0  0  0  0  0  0  0
  150.6617  140.1374  154.3607 O   0  0  0  0  0  0  0  0  0  0  0  0
  149.4691  139.3709  154.3087 C   0  0  0  0  0  0  0  0  0  0  0  0
  148.3048  140.2507  153.8327 C   0  0  1  0  0  0  0  0  0  0  0  0
  146.9259  139.8801  154.3988 C   0  0  0  0  0  0  0  0  0  0  0  0
  146.3260  141.2153  154.8158 C   0  0  0  0  0  0  0  0  0  0  0  0
  147.2514  142.2459  154.1769 C   0  0  0  0  0  0  0  0  0  0  0  0
  148.5156  141.6058  154.2044 O   0  0  0  0  0  0  0  0  0  0  0  0
  151.3453  143.8998  158.4810 N   0  0  0  0  0  0  0  0  0  0  0  0
  152.2985  145.9346  160.9637 H   0  0  0  0  0  0  0  0  0  0  0  0
  150.6382  145.7943  160.3759 H   0  0  0  0  0  0  0  0  0  0  0  0
  151.9101  146.3944  159.3035 H   0  0  0  0  0  0  0  0  0  0  0  0
  153.2629  143.7310  161.2821 H   0  0  0  0  0  0  0  0  0  0  0  0
  153.6335  141.4090  160.4153 H   0  0  0  0  0  0  0  0  0  0  0  0
  152.5084  140.7154  158.2914 H   0  0  0  0  0  0  0  0  0  0  0  0
  150.9975  142.8410  156.0116 H   0  0  0  0  0  0  0  0  0  0  0  0
  150.4042  140.3710  157.5956 H   0  0  0  0  0  0  0  0  0  0  0  0
  149.3989  140.9306  156.2867 H   0  0  0  0  0  0  0  0  0  0  0  0
  152.2987  140.4966  155.5819 H   0  0  0  0  0  0  0  0  0  0  0  0
  151.3628  139.0593  155.9619 H   0  0  0  0  0  0  0  0  0  0  0  0
  149.5937  138.5253  153.6306 H   0  0  0  0  0  0  0  0  0  0  0  0
  149.2459  138.9676  155.2976 H   0  0  0  0  0  0  0  0  0  0  0  0
  148.2576  140.2195  152.7429 H   0  0  0  0  0  0  0  0  0  0  0  0
  146.3195  139.3883  153.6377 H   0  0  0  0  0  0  0  0  0  0  0  0
  146.9892  139.2070  155.2544 H   0  0  0  0  0  0  0  0  0  0  0  0
  145.2882  141.3331  154.5033 H   0  0  0  0  0  0  0  0  0  0  0  0
  146.3641  141.3110  155.9017 H   0  0  0  0  0  0  0  0  0  0  0  0
  146.9629  142.4430  153.1430 H   0  0  0  0  0  0  0  0  0  0  0  0
  147.2668  143.1919  154.7183 H   0  0  0  0  0  0  0  0  0  0  0  0
  1  2  1  0  0  0  0
  1 18  1  0  0  0  0
  1 19  1  0  0  0  0
  1 20  1  0  0  0  0
  2 17  1  0  0  0  0
  2  3  2  0  0  0  0
  3  4  1  0  0  0  0
  3 21  1  0  0  0  0
  4  5  2  0  0  0  0
  4 22  1  0  0  0  0
  5  6  1  0  0  0  0
  5 23  1  0  0  0  0
  6  7  1  0  0  0  0
  6 17  2  0  0  0  0
  7  8  1  0  0  0  0
  7 24  1  0  0  0  0
  8  9  1  0  0  0  0
  8 25  1  0  0  0  0
  8 26  1  0  0  0  0
  9 10  1  0  0  0  0
  9 27  1  0  0  0  0
  9 28  1  0  0  0  0
 10 11  1  0  0  0  0
 11 12  1  0  0  0  0
 11 29  1  0  0  0  0
 11 30  1  0  0  0  0
 12 16  1  0  0  0  0
 12 13  1  0  0  0  0
 12 31  1  0  0  0  0
 13 14  1  0  0  0  0
 13 32  1  0  0  0  0
 13 33  1  0  0  0  0
 14 15  1  0  0  0  0
 14 34  1  0  0  0  0
 14 35  1  0  0  0  0
 15 16  1  0  0  0  0
 15 36  1  0  0  0  0
 15 37  1  0  0  0  0
M  END
> <s_m_source_file>
AV-unprocessed.smi

> <i_m_source_file_index>
3198

> <i_lp_mmshare_version>
43012

> <i_f3d_flags>
0

> <s_epik_input>
W0NIM11jMVtjSF1bY0hdW2NIXWMobjEpW05IXVtDSDJdW0NIMl1PW0NIMl1bQ0BASF0yW0NIMl1bQ0gyXVtDSDJdTzI=

> <s_epik_cmdline>
J2VwaWtfcHl0aG9uJywgJy1waCcsICc3LjAnLCAnLXRuJywgJzgnLCAnLW1hJywgJzIwMCcsICctbWV0YWxfYmluZGluZycsICctaW1hZScsICc8aW5maWxlLm1hZT4nLCAnLW9tYWUnLCAnPG91dGZpbGUubWFlPic=

> <r_lp_tautomer_probability>
1

> <r_epik_Ionization_Penalty>
1.29225

> <r_epik_Ionization_Penalty_Charging>
0

> <r_epik_Ionization_Penalty_Neutral>
1.29225

> <r_epik_State_Penalty>
1.3654

> <r_epik_Charging_Adjusted_Penalty>
1.3654

> <i_epik_Tot_Q>
0

> <i_epik_Tot_abs_Q>
0

> <r_epik_Metal_State_Penalty>
0.00531989

> <b_epik_Metal_Only>
0

> <s_lp_Force_Field>
OPLS_2005

> <r_lp_Energy>
18.8909

> <b_lp_Chiralities_Consistent>
1

> <s_lp_Variant>
AV-unprocessed.smi:3198-4

> <Gold.Version>
5.8.1

> <Gold.Id.Protein>
6NUR|6NUR_protein|mol2

> <Gold.PLP.Fitness>
39.3172

> <Gold.PLP.PLP>
-37.9600

> <Gold.PLP.part.hbond>
-1.9898

> <Gold.PLP.part.metal>
0.0000

> <Gold.PLP.part.buried>
-3.1926

> <Gold.PLP.part.nonpolar>
-32.9869

> <Gold.PLP.part.repulsive>
0.4414

> <Gold.PLP.ligand.clash>
0.0000

> <Gold.PLP.ligand.torsion>
1.3599

> <Gold.PLP.Chemscore.Hbond>
1.3094

> <Gold.PLP.Chemscore.CHOScore>
0.0000

> <Gold.PLP.Chemscore.Metal>
0.0000

> <Gold.Chemscore.Hbonds>
donor molecule, donor type, donor heavy atom, donor atom, acceptor molecule, acceptor atom, score
      P1  H  7989  7998       L1    10  0.89
      P1  H  8011  8017       L1    16  0.04

> <Gold.PLP.Chemscore.Internal.Correction>
0.1489

> <Gold.Rescore>
     Score         DG    S(hbond)    S(metal)    S(lipo)     H(rot)  DE(clash)    DE(int)     intcor
     14.18     -15.93       0.94        0.00      98.26       1.63       0.26       1.50       ----

> <Gold.Chemscore.Fitness>
14.1756

> <Gold.Chemscore.DG>
-15.9308

> <Gold.Chemscore.ZeroCoef>
-5.4800

> <Gold.Chemscore.Hbond>
0.9370

> <Gold.Chemscore.Metal>
0.0000

> <Gold.Chemscore.Lipo>
98.2648

> <Gold.Chemscore.Internal_Hbond>
0.0000

> <Gold.Chemscore.DEClash>
0.2596

> <Gold.Chemscore.DEInternal>
1.4956

> <Gold.Chemscore.Rot>
1.6311

> <Gold.Chemscore.Internal.Correction>
   9.000000E+99

> <Gold.Chemscore.Hbonds>
donor molecule, donor type, donor heavy atom, donor atom, acceptor molecule, acceptor atom, score
      P1  H  7989  7998       L1    10  0.43
      P1  H  8011  8017       L1    16  0.01

> <Gold.Chemscore.Hbond.Weighted>
-3.1295

> <Gold.Chemscore.Metal.Weighted>
-0.0000

> <Gold.Chemscore.Lipo.Weighted>
-11.4970

> <Gold.Chemscore.Internal_Hbond.Weighted>
0.0000

> <Gold.Chemscore.DEClash.Weighted>
0.2596

> <Gold.Chemscore.DEInternal.Weighted>
1.4956

> <Gold.Chemscore.Rot.Weighted>
4.1757

> <Gold.Chemscore.Internal.Correction.Weighted>
   9.000000E+99

> <Gold.Protein.RotatedTorsions>
[ 6907 6896 6895 6894 ] final  -43.35 input  -60.11 | X-H torsion
[ 7974 7965 7964 7962 ] final   33.15 input  175.53 | X-H torsion
[ 8008 7997 7996 7995 ] final  -98.80 input   59.86 | X-H torsion
[ 10167 10162 10161 10158 ] final  -11.03 input  -65.29 | X-H torsion
[ 10718 10713 10712 10709 ] final  -19.59 input   66.30 | X-H torsion
[ 10763 10752 10751 10750 ] final  -99.27 input  -60.55 | X-H torsion
[ 11005 11000 10999 10996 ] final -123.45 input  -57.11 | X-H torsion

> <Gold.Protein.ActiveResidues>
 VAL166  LYS551  ARG553  GLY616  TRP617  ASP618  TYR619  PRO620  LYS621  CYS622 
 ASP623  PHE694  ASN695  SER759  ASP760  ASP761  ALA762  ILE779  LEU786  VAL792 
 PHE793  MET794  SER795  GLU796  ALA797  LYS798  CYS799  TRP800  GLU811  SER814 

> <Gold.Protein.RotatedAtoms>
  150.9449  134.8855  159.7635 H   0  0  0  0  0  0  0  0  0  0  0  0  # atno 6907 bound_to 6896
  152.5096  134.3889  159.9387 H   0  0  0  0  0  0  0  0  0  0  0  0  # atno 6908 bound_to 6896
  151.3908  133.3749  159.2755 H   0  0  0  0  0  0  0  0  0  0  0  0  # atno 6909 bound_to 6896
  146.1439  139.6434  142.9144 H   0  0  0  0  0  0  0  0  0  0  0  0  # atno 7974 bound_to 7965
  154.8062  140.0452  157.1309 H   0  0  0  0  0  0  0  0  0  0  0  0  # atno 8008 bound_to 7997
  154.9421  140.3054  155.5095 H   0  0  0  0  0  0  0  0  0  0  0  0  # atno 8009 bound_to 7997
  156.2967  140.2303  156.4491 H   0  0  0  0  0  0  0  0  0  0  0  0  # atno 8010 bound_to 7997
  140.7128  143.5684  150.9119 H   0  0  0  0  0  0  0  0  0  0  0  0  # atno 10167 bound_to 10162
  156.5435  130.4684  149.6487 H   0  0  0  0  0  0  0  0  0  0  0  0  # atno 10718 bound_to 10713
  154.7484  135.4978  153.9245 H   0  0  0  0  0  0  0  0  0  0  0  0  # atno 10763 bound_to 10752
  153.1117  135.6711  153.9497 H   0  0  0  0  0  0  0  0  0  0  0  0  # atno 10764 bound_to 10752
  153.9255  135.3083  155.3426 H   0  0  0  0  0  0  0  0  0  0  0  0  # atno 10765 bound_to 10752
  140.9918  134.0528  157.3645 H   0  0  0  0  0  0  0  0  0  0  0  0  # atno 11005 bound_to 11000
  145.4982  141.0438  143.2555 LP  0  0  0  0  0  0  0  0  0  0  0  0  # atno 17320 bound_to 7965
  144.7824  139.6497  143.7148 LP  0  0  0  0  0  0  0  0  0  0  0  0  # atno 17321 bound_to 7965
  139.9410  143.6382  152.3054 LP  0  0  0  0  0  0  0  0  0  0  0  0  # atno 17342 bound_to 10162
  139.6867  144.7651  151.1511 LP  0  0  0  0  0  0  0  0  0  0  0  0  # atno 17343 bound_to 10162
  156.2950  130.7145  151.2003 LP  0  0  0  0  0  0  0  0  0  0  0  0  # atno 17370 bound_to 10713
  157.7401  131.0521  150.5189 LP  0  0  0  0  0  0  0  0  0  0  0  0  # atno 17371 bound_to 10713
  139.8996  135.0159  156.7202 LP  0  0  0  0  0  0  0  0  0  0  0  0  # atno 17394 bound_to 11000
  140.7028  133.9291  155.8035 LP  0  0  0  0  0  0  0  0  0  0  0  0  # atno 17395 bound_to 11000

$$$$
