AV-unprocessed.smi:1278|AV-procd|sdf|5349|dock3
  -GOLD-   22720 4483D 1   1.00000     0.00000
 Structure written by MMmdl.
 39 40  0  0  0  0  0  0  0  0  2 V2000
  146.3749  131.4681  149.2993 C   0  0  0  0  0  0  0  0  0  0  0  0
  145.9077  131.9757  150.6749 C   0  0  2  0  0  0  0  0  0  0  0  0
  144.4492  131.5944  150.9891 C   0  0  0  0  0  0  0  0  0  0  0  0
  143.4637  132.4472  150.1778 C   0  0  0  0  0  0  0  0  0  0  0  0
  143.7454  133.9462  150.3670 C   0  0  0  0  0  0  0  0  0  0  0  0
  145.1508  134.2769  150.0160 N   0  3  1  0  0  0  0  0  0  0  0  0
  145.4070  135.7391  150.0415 C   0  0  0  0  0  0  0  0  0  0  0  0
  145.3414  136.3216  151.4666 C   0  0  0  0  0  0  0  0  0  0  0  0
  146.5800  137.0039  151.8241 N   0  0  0  0  0  0  0  0  0  0  0  0
  146.6544  138.2504  152.3130 C   0  0  0  0  0  0  0  0  0  0  0  0
  145.6653  138.9532  152.5229 O   0  0  0  0  0  0  0  0  0  0  0  0
  147.9296  138.6116  152.5394 N   0  0  0  0  0  0  0  0  0  0  0  0
  148.4151  139.8443  153.0500 C   0  0  0  0  0  0  0  0  0  0  0  0
  147.7565  141.0064  152.9690 N   0  0  0  0  0  0  0  0  0  0  0  0
  148.4711  142.0556  153.5531 C   0  0  0  0  0  0  0  0  0  0  0  0
  149.6791  141.6710  154.0795 C   0  0  0  0  0  0  0  0  0  0  0  0
  149.9700  139.9660  153.8602 S   0  0  0  0  0  0  0  0  0  0  0  0
  146.1167  133.4960  150.8360 C   0  0  0  0  0  0  0  0  0  0  0  0
  145.8164  131.9268  148.4833 H   0  0  0  0  0  0  0  0  0  0  0  0
  146.2525  130.3878  149.2181 H   0  0  0  0  0  0  0  0  0  0  0  0
  147.4304  131.6897  149.1401 H   0  0  0  0  0  0  0  0  0  0  0  0
  146.5379  131.4794  151.4142 H   0  0  0  0  0  0  0  0  0  0  0  0
  144.2792  130.5340  150.7990 H   0  0  0  0  0  0  0  0  0  0  0  0
  144.2595  131.7476  152.0526 H   0  0  0  0  0  0  0  0  0  0  0  0
  143.5299  132.1904  149.1201 H   0  0  0  0  0  0  0  0  0  0  0  0
  142.4415  132.2210  150.4821 H   0  0  0  0  0  0  0  0  0  0  0  0
  143.0614  134.5169  149.7376 H   0  0  0  0  0  0  0  0  0  0  0  0
  143.5481  134.2407  151.3989 H   0  0  0  0  0  0  0  0  0  0  0  0
  146.4030  135.9300  149.6397 H   0  0  0  0  0  0  0  0  0  0  0  0
  144.7062  136.2502  149.3795 H   0  0  0  0  0  0  0  0  0  0  0  0
  144.5363  137.0503  151.5533 H   0  0  0  0  0  0  0  0  0  0  0  0
  145.1273  135.5345  152.1921 H   0  0  0  0  0  0  0  0  0  0  0  0
  147.4405  136.4957  151.6803 H   0  0  0  0  0  0  0  0  0  0  0  0
  148.6378  137.9268  152.3196 H   0  0  0  0  0  0  0  0  0  0  0  0
  148.0442  143.0477  153.5498 H   0  0  0  0  0  0  0  0  0  0  0  0
  150.4125  142.2851  154.5806 H   0  0  0  0  0  0  0  0  0  0  0  0
  145.9981  133.7745  151.8845 H   0  0  0  0  0  0  0  0  0  0  0  0
  147.1420  133.7461  150.5658 H   0  0  0  0  0  0  0  0  0  0  0  0
  145.2743  133.9847  149.0569 H   0  0  0  0  0  0  0  0  0  0  0  0
  1  2  1  0  0  0  0
  1 19  1  0  0  0  0
  1 20  1  0  0  0  0
  1 21  1  0  0  0  0
  2 18  1  0  0  0  0
  2  3  1  0  0  0  0
  2 22  1  0  0  0  0
  3  4  1  0  0  0  0
  3 23  1  0  0  0  0
  3 24  1  0  0  0  0
  4  5  1  0  0  0  0
  4 25  1  0  0  0  0
  4 26  1  0  0  0  0
  5  6  1  0  0  0  0
  5 27  1  0  0  0  0
  5 28  1  0  0  0  0
  6  7  1  0  0  0  0
  6 18  1  0  0  0  0
  6 39  1  0  0  0  0
  7  8  1  0  0  0  0
  7 29  1  0  0  0  0
  7 30  1  0  0  0  0
  8  9  1  0  0  0  0
  8 31  1  0  0  0  0
  8 32  1  0  0  0  0
  9 10  1  0  0  0  0
  9 33  1  0  0  0  0
 10 11  2  0  0  0  0
 10 12  1  0  0  0  0
 12 13  1  0  0  0  0
 12 34  1  0  0  0  0
 13 17  1  0  0  0  0
 13 14  2  0  0  0  0
 14 15  1  0  0  0  0
 15 16  2  0  0  0  0
 15 35  1  0  0  0  0
 16 17  1  0  0  0  0
 16 36  1  0  0  0  0
 18 37  1  0  0  0  0
 18 38  1  0  0  0  0
M  CHG  1   6   1
M  END
> <s_m_source_file>
AV-unprocessed.smi

> <i_m_source_file_index>
1278

> <i_lp_mmshare_version>
43012

> <i_f3d_flags>
0

> <s_epik_input>
W0NIM11bQ0BASF0xW0NIMl1bQ0gyXVtDSDJdTihbQ0gyXTEpW0NIMl1bQ0gyXVtOSF1DKD1PKVtOSF1jMm5bY0hdW2NIXXMy

> <s_epik_cmdline>
J2VwaWtfcHl0aG9uJywgJy1waCcsICc3LjAnLCAnLXRuJywgJzgnLCAnLW1hJywgJzIwMCcsICctbWV0YWxfYmluZGluZycsICctaW1hZScsICc8aW5maWxlLm1hZT4nLCAnLW9tYWUnLCAnPG91dGZpbGUubWFlPic=

> <r_lp_tautomer_probability>
0.999

> <r_epik_Ionization_Penalty>
0.00222194

> <r_epik_Ionization_Penalty_Charging>
0.00208169

> <r_epik_Ionization_Penalty_Neutral>
0.000140251

> <r_epik_State_Penalty>
0.00142585

> <r_epik_Charging_Adjusted_Penalty>
0.00350754

> <i_epik_Tot_Q>
1

> <i_epik_Tot_abs_Q>
1

> <r_epik_Metal_State_Penalty>
0.0570424

> <b_epik_Metal_Only>
0

> <s_lp_Force_Field>
OPLS_2005

> <r_lp_Energy>
16.5942

> <b_lp_Chiralities_Consistent>
1

> <s_lp_Variant>
AV-unprocessed.smi:1278-3

> <Gold.Version>
5.8.1

> <Gold.Id.Protein>
6NUR|6NUR_protein|mol2

> <Gold.PLP.Fitness>
43.1592

> <Gold.PLP.PLP>
-32.9122

> <Gold.PLP.part.hbond>
-3.6862

> <Gold.PLP.part.metal>
0.0000

> <Gold.PLP.part.buried>
3.8126

> <Gold.PLP.part.nonpolar>
-33.2377

> <Gold.PLP.part.repulsive>
2.0421

> <Gold.PLP.ligand.clash>
0.0000

> <Gold.PLP.ligand.torsion>
0.5509

> <Gold.PLP.Chemscore.Hbond>
2.7760

> <Gold.PLP.Chemscore.CHOScore>
1.0000

> <Gold.PLP.Chemscore.Metal>
0.0000

> <Gold.Chemscore.Hbonds>
donor molecule, donor type, donor heavy atom, donor atom, acceptor molecule, acceptor atom, score
      L1  H     6    39       P1  7921  0.62
      L1  H     9    33       P1  7948  0.96
      L1  H    12    34       P1  7948  0.93
      L1  C    15    35       P1  8028  0.29

> <Gold.PLP.Chemscore.Internal.Correction>
0.0207

> <Gold.Rescore>
     Score         DG    S(hbond)    S(metal)    S(lipo)     H(rot)  DE(clash)    DE(int)     intcor
     17.68     -20.87       2.71        0.00      89.16       1.60       1.39       1.80       ----

> <Gold.Chemscore.Fitness>
17.6783

> <Gold.Chemscore.DG>
-20.8698

> <Gold.Chemscore.ZeroCoef>
-5.4800

> <Gold.Chemscore.Hbond>
2.7108

> <Gold.Chemscore.Metal>
0.0000

> <Gold.Chemscore.Lipo>
89.1624

> <Gold.Chemscore.Internal_Hbond>
0.0000

> <Gold.Chemscore.DEClash>
1.3869

> <Gold.Chemscore.DEInternal>
1.8046

> <Gold.Chemscore.Rot>
1.6001

> <Gold.Chemscore.Internal.Correction>
   9.000000E+99

> <Gold.Chemscore.Hbonds>
donor molecule, donor type, donor heavy atom, donor atom, acceptor molecule, acceptor atom, score
      L1  H     6    39       P1  7921  0.56
      L1  H     9    33       P1  7948  0.90
      L1  H    12    34       P1  7948  0.91

> <Gold.Chemscore.Hbond.Weighted>
-9.0541

> <Gold.Chemscore.Metal.Weighted>
-0.0000

> <Gold.Chemscore.Lipo.Weighted>
-10.4320

> <Gold.Chemscore.Internal_Hbond.Weighted>
0.0000

> <Gold.Chemscore.DEClash.Weighted>
1.3869

> <Gold.Chemscore.DEInternal.Weighted>
1.8046

> <Gold.Chemscore.Rot.Weighted>
4.0963

> <Gold.Chemscore.Internal.Correction.Weighted>
   9.000000E+99

> <Gold.Protein.RotatedTorsions>
[ 6907 6896 6895 6894 ] final   97.69 input  -60.11 | X-H torsion
[ 7974 7965 7964 7962 ] final  -16.13 input  175.53 | X-H torsion
[ 8008 7997 7996 7995 ] final  131.92 input   59.86 | X-H torsion
[ 10167 10162 10161 10158 ] final  109.71 input  -65.29 | X-H torsion
[ 10718 10713 10712 10709 ] final -124.25 input   66.30 | X-H torsion
[ 10763 10752 10751 10750 ] final  152.71 input  -60.55 | X-H torsion
[ 11005 11000 10999 10996 ] final -160.95 input  -57.11 | X-H torsion

> <Gold.Protein.ActiveResidues>
 VAL166  LYS551  ARG553  GLY616  TRP617  ASP618  TYR619  PRO620  LYS621  CYS622 
 ASP623  PHE694  ASN695  SER759  ASP760  ASP761  ALA762  ILE779  LEU786  VAL792 
 PHE793  MET794  SER795  GLU796  ALA797  LYS798  CYS799  TRP800  GLU811  SER814 

> <Gold.Protein.RotatedAtoms>
  152.5420  134.0694  159.8186 H   0  0  0  0  0  0  0  0  0  0  0  0  # atno 6907 bound_to 6896
  151.0811  133.5382  159.2628 H   0  0  0  0  0  0  0  0  0  0  0  0  # atno 6908 bound_to 6896
  151.2209  135.0526  159.9003 H   0  0  0  0  0  0  0  0  0  0  0  0  # atno 6909 bound_to 6896
  146.2001  140.3592  142.8426 H   0  0  0  0  0  0  0  0  0  0  0  0  # atno 7974 bound_to 7965
  156.2976  140.2559  156.3005 H   0  0  0  0  0  0  0  0  0  0  0  0  # atno 8008 bound_to 7997
  154.9422  140.0396  157.2121 H   0  0  0  0  0  0  0  0  0  0  0  0  # atno 8009 bound_to 7997
  154.8115  140.2845  155.5854 H   0  0  0  0  0  0  0  0  0  0  0  0  # atno 8010 bound_to 7997
  139.6745  144.7123  151.1627 H   0  0  0  0  0  0  0  0  0  0  0  0  # atno 10167 bound_to 10162
  156.1572  130.6576  150.9998 H   0  0  0  0  0  0  0  0  0  0  0  0  # atno 10718 bound_to 10713
  154.1245  135.2830  155.3200 H   0  0  0  0  0  0  0  0  0  0  0  0  # atno 10763 bound_to 10752
  154.6400  135.5406  153.7781 H   0  0  0  0  0  0  0  0  0  0  0  0  # atno 10764 bound_to 10752
  153.0302  135.6484  154.1398 H   0  0  0  0  0  0  0  0  0  0  0  0  # atno 10765 bound_to 10752
  140.6258  134.4702  157.5226 H   0  0  0  0  0  0  0  0  0  0  0  0  # atno 11005 bound_to 11000
  144.8665  140.7213  143.6074 LP  0  0  0  0  0  0  0  0  0  0  0  0  # atno 17320 bound_to 7965
  145.3511  139.1706  143.4434 LP  0  0  0  0  0  0  0  0  0  0  0  0  # atno 17321 bound_to 7965
  140.7630  143.5792  150.8912 LP  0  0  0  0  0  0  0  0  0  0  0  0  # atno 17342 bound_to 10162
  139.9460  143.6327  152.3041 LP  0  0  0  0  0  0  0  0  0  0  0  0  # atno 17343 bound_to 10162
  157.6704  131.0862  150.7626 LP  0  0  0  0  0  0  0  0  0  0  0  0  # atno 17370 bound_to 10713
  156.7690  130.4823  149.5422 LP  0  0  0  0  0  0  0  0  0  0  0  0  # atno 17371 bound_to 10713
  139.9135  134.8295  156.1445 LP  0  0  0  0  0  0  0  0  0  0  0  0  # atno 17394 bound_to 11000
  141.0710  133.6797  156.2140 LP  0  0  0  0  0  0  0  0  0  0  0  0  # atno 17395 bound_to 11000

$$$$
