AV-unprocessed.smi:812|AV-procd|sdf|3815|dock7
  -GOLD-   22720 1253D 1   1.00000     0.00000
 Structure written by MMmdl.
 38 40  0  0  0  0  0  0  0  0  1 V2000
  148.0866  131.9449  153.0299 C   0  0  0  0  0  0  0  0  0  0  0  0
  146.9807  132.7619  152.4962 N   0  0  0  0  0  0  0  0  0  0  0  0
  146.8713  134.0604  152.9204 C   0  0  0  0  0  0  0  0  0  0  0  0
  147.6309  134.6093  153.7200 O   0  0  0  0  0  0  0  0  0  0  0  0
  145.7383  134.7809  152.3342 C   0  0  0  0  0  0  0  0  0  0  0  0
  144.8800  134.2158  151.4517 C   0  0  0  0  0  0  0  0  0  0  0  0
  143.8974  135.1153  151.0536 N   0  0  0  0  0  0  0  0  0  0  0  0
  144.2274  136.2093  151.7421 C   0  0  0  0  0  0  0  0  0  0  0  0
  145.3141  136.0930  152.5326 N   0  0  0  0  0  0  0  0  0  0  0  0
  145.8812  137.1283  153.3826 C   0  0  0  0  0  0  0  0  0  0  0  0
  146.0633  138.4708  152.6466 C   0  0  2  0  0  0  0  0  0  0  0  0
  146.5651  138.2422  151.3435 O   0  0  0  0  0  0  0  0  0  0  0  0
  146.9422  139.4204  153.4455 C   0  0  0  0  0  0  0  0  0  0  0  0
  148.1824  138.9737  153.9500 C   0  0  0  0  0  0  0  0  0  0  0  0
  149.0079  139.8494  154.6823 C   0  0  0  0  0  0  0  0  0  0  0  0
  148.5990  141.1773  154.9115 C   0  0  0  0  0  0  0  0  0  0  0  0
  149.3928  142.0190  155.6148 F   0  0  0  0  0  0  0  0  0  0  0  0
  147.3648  141.6299  154.4072 C   0  0  0  0  0  0  0  0  0  0  0  0
  146.5390  140.7547  153.6751 C   0  0  0  0  0  0  0  0  0  0  0  0
  145.0837  132.8646  151.0769 N   0  0  0  0  0  0  0  0  0  0  0  0
  144.1355  132.2864  150.1201 C   0  0  0  0  0  0  0  0  0  0  0  0
  146.1278  132.1397  151.5994 C   0  0  0  0  0  0  0  0  0  0  0  0
  146.3000  130.9611  151.2763 O   0  0  0  0  0  0  0  0  0  0  0  0
  148.7571  132.4684  153.7121 H   0  0  0  0  0  0  0  0  0  0  0  0
  148.7089  131.5669  152.2171 H   0  0  0  0  0  0  0  0  0  0  0  0
  147.6933  131.0867  153.5774 H   0  0  0  0  0  0  0  0  0  0  0  0
  143.6578  137.1246  151.6728 H   0  0  0  0  0  0  0  0  0  0  0  0
  145.2364  137.2523  154.2530 H   0  0  0  0  0  0  0  0  0  0  0  0
  146.8405  136.7750  153.7639 H   0  0  0  0  0  0  0  0  0  0  0  0
  145.0876  138.9408  152.5195 H   0  0  0  0  0  0  0  0  0  0  0  0
  147.3061  137.6589  151.4064 H   0  0  0  0  0  0  0  0  0  0  0  0
  148.5065  137.9580  153.7755 H   0  0  0  0  0  0  0  0  0  0  0  0
  149.9556  139.5023  155.0668 H   0  0  0  0  0  0  0  0  0  0  0  0
  147.0516  142.6489  154.5803 H   0  0  0  0  0  0  0  0  0  0  0  0
  145.5962  141.1130  153.2884 H   0  0  0  0  0  0  0  0  0  0  0  0
  144.3298  131.2443  149.8657 H   0  0  0  0  0  0  0  0  0  0  0  0
  144.1535  132.8555  149.1900 H   0  0  0  0  0  0  0  0  0  0  0  0
  143.1236  132.3379  150.5232 H   0  0  0  0  0  0  0  0  0  0  0  0
  1  2  1  0  0  0  0
  1 24  1  0  0  0  0
  1 25  1  0  0  0  0
  1 26  1  0  0  0  0
  2 22  1  0  0  0  0
  2  3  1  0  0  0  0
  3  4  2  0  0  0  0
  3  5  1  0  0  0  0
  5  9  1  0  0  0  0
  5  6  2  0  0  0  0
  6  7  1  0  0  0  0
  6 20  1  0  0  0  0
  7  8  2  0  0  0  0
  8  9  1  0  0  0  0
  8 27  1  0  0  0  0
  9 10  1  0  0  0  0
 10 11  1  0  0  0  0
 10 28  1  0  0  0  0
 10 29  1  0  0  0  0
 11 12  1  0  0  0  0
 11 13  1  0  0  0  0
 11 30  1  0  0  0  0
 12 31  1  0  0  0  0
 13 19  1  0  0  0  0
 13 14  2  0  0  0  0
 14 15  1  0  0  0  0
 14 32  1  0  0  0  0
 15 16  2  0  0  0  0
 15 33  1  0  0  0  0
 16 17  1  0  0  0  0
 16 18  1  0  0  0  0
 18 19  2  0  0  0  0
 18 34  1  0  0  0  0
 19 35  1  0  0  0  0
 20 21  1  0  0  0  0
 20 22  1  0  0  0  0
 21 36  1  0  0  0  0
 21 37  1  0  0  0  0
 21 38  1  0  0  0  0
 22 23  2  0  0  0  0
M  END
> <s_m_source_file>
AV-unprocessed.smi

> <i_m_source_file_index>
812

> <i_lp_mmshare_version>
43012

> <i_f3d_flags>
0

> <s_epik_input>
Tz1jMW4oW0NIM10pYyg9TyluKFtDSDNdKWMoYzEyKW5bY0hdbjJbQ0gyXVtDQEhdKFtPSF0pYzNbY0hdW2NIXWMoRilbY0hdW2NIXTM=

> <s_epik_cmdline>
J2VwaWtfcHl0aG9uJywgJy1waCcsICc3LjAnLCAnLXRuJywgJzgnLCAnLW1hJywgJzIwMCcsICctbWV0YWxfYmluZGluZycsICctaW1hZScsICc8aW5maWxlLm1hZT4nLCAnLW9tYWUnLCAnPG91dGZpbGUubWFlPic=

> <r_lp_tautomer_probability>
1

> <r_epik_Ionization_Penalty>
1.45649e-06

> <r_epik_Ionization_Penalty_Charging>
3.74189e-09

> <r_epik_Ionization_Penalty_Neutral>
1.45275e-06

> <r_epik_State_Penalty>
-0

> <r_epik_Charging_Adjusted_Penalty>
3.74189e-09

> <i_epik_Tot_Q>
0

> <i_epik_Tot_abs_Q>
0

> <r_epik_Metal_State_Penalty>
-0

> <b_epik_Metal_Only>
0

> <s_lp_Force_Field>
OPLS_2005

> <r_lp_Energy>
34.9814

> <b_lp_Chiralities_Consistent>
1

> <s_lp_Variant>
AV-unprocessed.smi:812-1

> <Gold.Version>
5.8.1

> <Gold.Id.Protein>
6NUR|6NUR_protein|mol2

> <Gold.PLP.Fitness>
46.2583

> <Gold.PLP.PLP>
-41.2738

> <Gold.PLP.part.hbond>
-2.3233

> <Gold.PLP.part.metal>
0.0000

> <Gold.PLP.part.buried>
-1.2787

> <Gold.PLP.part.nonpolar>
-38.4124

> <Gold.PLP.part.repulsive>
1.8984

> <Gold.PLP.ligand.clash>
0.0000

> <Gold.PLP.ligand.torsion>
0.5202

> <Gold.PLP.Chemscore.Hbond>
1.0000

> <Gold.PLP.Chemscore.CHOScore>
1.0000

> <Gold.PLP.Chemscore.Metal>
0.0000

> <Gold.Chemscore.Hbonds>
donor molecule, donor type, donor heavy atom, donor atom, acceptor molecule, acceptor atom, score
      L1  H    12    31       P1  7948  0.60
      L1  C     8    27       P1 10171  0.84

> <Gold.PLP.Chemscore.Internal.Correction>
0.0249

> <Gold.Rescore>
     Score         DG    S(hbond)    S(metal)    S(lipo)     H(rot)  DE(clash)    DE(int)     intcor
     10.08     -10.86       1.00        0.00      66.52       2.24       0.39       0.39       ----

> <Gold.Chemscore.Fitness>
10.0798

> <Gold.Chemscore.DG>
-10.8589

> <Gold.Chemscore.ZeroCoef>
-5.4800

> <Gold.Chemscore.Hbond>
0.9953

> <Gold.Chemscore.Metal>
0.0000

> <Gold.Chemscore.Lipo>
66.5246

> <Gold.Chemscore.Internal_Hbond>
0.0000

> <Gold.Chemscore.DEClash>
0.3928

> <Gold.Chemscore.DEInternal>
0.3863

> <Gold.Chemscore.Rot>
2.2377

> <Gold.Chemscore.Internal.Correction>
   9.000000E+99

> <Gold.Chemscore.Hbonds>
donor molecule, donor type, donor heavy atom, donor atom, acceptor molecule, acceptor atom, score
      L1  H    12    31       P1  7948  0.60

> <Gold.Chemscore.Hbond.Weighted>
-3.3242

> <Gold.Chemscore.Metal.Weighted>
-0.0000

> <Gold.Chemscore.Lipo.Weighted>
-7.7834

> <Gold.Chemscore.Internal_Hbond.Weighted>
0.0000

> <Gold.Chemscore.DEClash.Weighted>
0.3928

> <Gold.Chemscore.DEInternal.Weighted>
0.3863

> <Gold.Chemscore.Rot.Weighted>
5.7286

> <Gold.Chemscore.Internal.Correction.Weighted>
   9.000000E+99

> <Gold.Protein.RotatedTorsions>
[ 6907 6896 6895 6894 ] final -176.47 input  -60.11 | X-H torsion
[ 7974 7965 7964 7962 ] final   -0.05 input  175.53 | X-H torsion
[ 8008 7997 7996 7995 ] final  -84.27 input   59.86 | X-H torsion
[ 10167 10162 10161 10158 ] final  -44.71 input  -65.29 | X-H torsion
[ 10718 10713 10712 10709 ] final -167.22 input   66.30 | X-H torsion
[ 10763 10752 10751 10750 ] final   85.44 input  -60.55 | X-H torsion
[ 11005 11000 10999 10996 ] final -115.30 input  -57.11 | X-H torsion

> <Gold.Protein.ActiveResidues>
 VAL166  LYS551  ARG553  GLY616  TRP617  ASP618  TYR619  PRO620  LYS621  CYS622 
 ASP623  PHE694  ASN695  SER759  ASP760  ASP761  ALA762  ILE779  LEU786  VAL792 
 PHE793  MET794  SER795  GLU796  ALA797  LYS798  CYS799  TRP800  GLU811  SER814 

> <Gold.Protein.RotatedAtoms>
  151.6054  133.3352  159.3055 H   0  0  0  0  0  0  0  0  0  0  0  0  # atno 6907 bound_to 6896
  150.8185  134.7384  159.6763 H   0  0  0  0  0  0  0  0  0  0  0  0  # atno 6908 bound_to 6896
  152.4280  134.5837  160.0006 H   0  0  0  0  0  0  0  0  0  0  0  0  # atno 6909 bound_to 6896
  146.2430  140.1211  142.8340 H   0  0  0  0  0  0  0  0  0  0  0  0  # atno 7974 bound_to 7965
  154.6280  140.0607  156.9698 H   0  0  0  0  0  0  0  0  0  0  0  0  # atno 8008 bound_to 7997
  155.1710  140.3291  155.4374 H   0  0  0  0  0  0  0  0  0  0  0  0  # atno 8009 bound_to 7997
  156.2468  140.1914  156.6812 H   0  0  0  0  0  0  0  0  0  0  0  0  # atno 8010 bound_to 7997
  140.6886  143.2916  151.3535 H   0  0  0  0  0  0  0  0  0  0  0  0  # atno 10167 bound_to 10162
  156.6792  130.9115  151.3054 H   0  0  0  0  0  0  0  0  0  0  0  0  # atno 10718 bound_to 10713
  153.1475  135.4617  154.9588 H   0  0  0  0  0  0  0  0  0  0  0  0  # atno 10763 bound_to 10752
  154.7798  135.3185  154.8017 H   0  0  0  0  0  0  0  0  0  0  0  0  # atno 10764 bound_to 10752
  153.8528  135.6920  153.4845 H   0  0  0  0  0  0  0  0  0  0  0  0  # atno 10765 bound_to 10752
  141.0497  133.9707  157.2858 H   0  0  0  0  0  0  0  0  0  0  0  0  # atno 11005 bound_to 11000
  145.0405  140.8942  143.5055 LP  0  0  0  0  0  0  0  0  0  0  0  0  # atno 17320 bound_to 7965
  145.1291  139.2643  143.5548 LP  0  0  0  0  0  0  0  0  0  0  0  0  # atno 17321 bound_to 7965
  139.6267  144.0800  152.2441 LP  0  0  0  0  0  0  0  0  0  0  0  0  # atno 17342 bound_to 10162
  140.0261  144.6116  150.7526 LP  0  0  0  0  0  0  0  0  0  0  0  0  # atno 17343 bound_to 10162
  157.7050  130.9374  150.0902 LP  0  0  0  0  0  0  0  0  0  0  0  0  # atno 17370 bound_to 10713
  156.1880  130.3653  149.8947 LP  0  0  0  0  0  0  0  0  0  0  0  0  # atno 17371 bound_to 10713
  139.9340  135.0198  156.8495 LP  0  0  0  0  0  0  0  0  0  0  0  0  # atno 17394 bound_to 11000
  140.6080  134.0110  155.7564 LP  0  0  0  0  0  0  0  0  0  0  0  0  # atno 17395 bound_to 11000

$$$$
