AV-unprocessed.smi:34|AV-procd|sdf|227|dock1
  -GOLD-   2262015553D 1   1.00000     0.00000
 Structure written by MMmdl.
 55 59  0  0  0  0  0  0  0  0  1 V2000
  141.5196  135.5761  154.5698 O   0  0  0  0  0  0  0  0  0  0  0  0
  141.4047  136.7471  154.2062 C   0  0  0  0  0  0  0  0  0  0  0  0
  142.5561  137.5769  153.8993 N   0  0  0  0  0  0  0  0  0  0  0  0
  143.8588  137.2122  153.8564 C   0  0  0  0  0  0  0  0  0  0  0  0
  144.2870  136.1213  153.1677 N   0  0  0  0  0  0  0  0  0  0  0  0
  145.5851  135.8044  153.1471 C   0  0  0  0  0  0  0  0  0  0  0  0
  146.6069  136.4330  153.7325 N   0  0  0  0  0  0  0  0  0  0  0  0
  146.1838  137.5331  154.4202 C   0  0  0  0  0  0  0  0  0  0  0  0
  144.8401  137.9859  154.5291 C   0  0  0  0  0  0  0  0  0  0  0  0
  144.7946  139.1351  155.3077 N   0  0  0  0  0  0  0  0  0  0  0  0
  146.0414  139.3440  155.6370 C   0  0  0  0  0  0  0  0  0  0  0  0
  146.9458  138.4299  155.1370 N   0  0  0  0  0  0  0  0  0  0  0  0
  148.4338  138.3649  155.3142 C   0  0  2  0  0  0  0  0  0  0  0  0
  148.7751  139.1931  156.3881 O   0  0  0  0  0  0  0  0  0  0  0  0
  149.4236  140.3862  155.9366 C   0  0  1  0  0  0  0  0  0  0  0  0
  150.8859  140.3265  156.4017 C   0  0  0  0  0  0  0  0  0  0  0  0
  151.2237  141.5423  157.0496 O   0  0  0  0  0  0  0  0  0  0  0  0
  151.7181  141.5279  158.3027 C   0  0  0  0  0  0  0  0  0  0  0  0
  152.0637  140.4999  158.8887 O   0  0  0  0  0  0  0  0  0  0  0  0
  151.8111  142.8896  158.9041 C   0  0  0  0  0  0  0  0  0  0  0  0
  151.4883  144.0189  158.1160 C   0  0  0  0  0  0  0  0  0  0  0  0
  151.5636  145.3170  158.6573 C   0  0  0  0  0  0  0  0  0  0  0  0
  151.9637  145.5017  159.9935 C   0  0  0  0  0  0  0  0  0  0  0  0
  152.2880  144.3867  160.7879 C   0  0  0  0  0  0  0  0  0  0  0  0
  152.2125  143.0877  160.2486 C   0  0  0  0  0  0  0  0  0  0  0  0
  149.2780  140.3936  154.4098 C   0  0  2  0  0  0  0  0  0  0  0  0
  148.1513  141.0357  154.0933 F   0  0  0  0  0  0  0  0  0  0  0  0
  149.1833  138.9124  154.0900 C   0  0  2  0  0  0  0  0  0  0  0  0
  148.5788  138.6653  152.8340 O   0  0  0  0  0  0  0  0  0  0  0  0
  140.0679  137.4273  154.1489 C   0  0  0  0  0  0  0  0  0  0  0  0
  139.9482  138.7018  153.5501 C   0  0  0  0  0  0  0  0  0  0  0  0
  138.7012  139.3555  153.5077 C   0  0  0  0  0  0  0  0  0  0  0  0
  137.5654  138.7442  154.0710 C   0  0  0  0  0  0  0  0  0  0  0  0
  137.6778  137.4802  154.6803 C   0  0  0  0  0  0  0  0  0  0  0  0
  138.9243  136.8250  154.7227 C   0  0  0  0  0  0  0  0  0  0  0  0
  142.3598  138.5431  153.6829 H   0  0  0  0  0  0  0  0  0  0  0  0
  145.8406  134.9218  152.5794 H   0  0  0  0  0  0  0  0  0  0  0  0
  146.3336  140.1794  156.2565 H   0  0  0  0  0  0  0  0  0  0  0  0
  148.6399  137.3166  155.5329 H   0  0  0  0  0  0  0  0  0  0  0  0
  148.9377  141.2547  156.3835 H   0  0  0  0  0  0  0  0  0  0  0  0
  151.0235  139.5022  157.1025 H   0  0  0  0  0  0  0  0  0  0  0  0
  151.5446  140.1452  155.5512 H   0  0  0  0  0  0  0  0  0  0  0  0
  151.1772  143.9018  157.0877 H   0  0  0  0  0  0  0  0  0  0  0  0
  151.3140  146.1718  158.0463 H   0  0  0  0  0  0  0  0  0  0  0  0
  152.0218  146.4971  160.4086 H   0  0  0  0  0  0  0  0  0  0  0  0
  152.5955  144.5273  161.8136 H   0  0  0  0  0  0  0  0  0  0  0  0
  152.4690  142.2544  160.8860 H   0  0  0  0  0  0  0  0  0  0  0  0
  150.0927  140.8976  153.8888 H   0  0  0  0  0  0  0  0  0  0  0  0
  150.1822  138.4745  154.0931 H   0  0  0  0  0  0  0  0  0  0  0  0
  148.8562  137.8145  152.5293 H   0  0  0  0  0  0  0  0  0  0  0  0
  140.8110  139.1849  153.1145 H   0  0  0  0  0  0  0  0  0  0  0  0
  138.6172  140.3270  153.0436 H   0  0  0  0  0  0  0  0  0  0  0  0
  136.6095  139.2460  154.0392 H   0  0  0  0  0  0  0  0  0  0  0  0
  136.8077  137.0137  155.1185 H   0  0  0  0  0  0  0  0  0  0  0  0
  138.9904  135.8596  155.2034 H   0  0  0  0  0  0  0  0  0  0  0  0
  1  2  2  0  0  0  0
  2  3  1  0  0  0  0
  2 30  1  0  0  0  0
  3  4  1  0  0  0  0
  3 36  1  0  0  0  0
  4  9  1  0  0  0  0
  4  5  2  0  0  0  0
  5  6  1  0  0  0  0
  6  7  2  0  0  0  0
  6 37  1  0  0  0  0
  7  8  1  0  0  0  0
  8 12  1  0  0  0  0
  8  9  2  0  0  0  0
  9 10  1  0  0  0  0
 10 11  2  0  0  0  0
 11 12  1  0  0  0  0
 11 38  1  0  0  0  0
 12 13  1  0  0  0  0
 13 28  1  0  0  0  0
 13 14  1  0  0  0  0
 13 39  1  0  0  0  0
 14 15  1  0  0  0  0
 15 16  1  0  0  0  0
 15 26  1  0  0  0  0
 15 40  1  0  0  0  0
 16 17  1  0  0  0  0
 16 41  1  0  0  0  0
 16 42  1  0  0  0  0
 17 18  1  0  0  0  0
 18 19  2  0  0  0  0
 18 20  1  0  0  0  0
 20 25  1  0  0  0  0
 20 21  2  0  0  0  0
 21 22  1  0  0  0  0
 21 43  1  0  0  0  0
 22 23  2  0  0  0  0
 22 44  1  0  0  0  0
 23 24  1  0  0  0  0
 23 45  1  0  0  0  0
 24 25  2  0  0  0  0
 24 46  1  0  0  0  0
 25 47  1  0  0  0  0
 26 27  1  0  0  0  0
 26 28  1  0  0  0  0
 26 48  1  0  0  0  0
 28 29  1  0  0  0  0
 28 49  1  0  0  0  0
 29 50  1  0  0  0  0
 30 35  1  0  0  0  0
 30 31  2  0  0  0  0
 31 32  1  0  0  0  0
 31 51  1  0  0  0  0
 32 33  2  0  0  0  0
 32 52  1  0  0  0  0
 33 34  1  0  0  0  0
 33 53  1  0  0  0  0
 34 35  2  0  0  0  0
 34 54  1  0  0  0  0
 35 55  1  0  0  0  0
M  END
> <s_m_source_file>
AV-unprocessed.smi

> <i_m_source_file_index>
34

> <i_lp_mmshare_version>
43012

> <i_f3d_flags>
0

> <s_epik_input>
W2NIXTFbY0hdW2NIXVtjSF1bY0hdYzFDKD1PKVtOSF1jKG5bY0hdbjIpYyhjMjMpbltjSF1uM1tDQEBIXTRPW0NASF0oW0NAQEhdKEYpW0NASF00W09IXSlbQ0gyXU9DKD1PKWM1W2NIXVtjSF1bY0hdW2NIXVtjSF01

> <s_epik_cmdline>
J2VwaWtfcHl0aG9uJywgJy1waCcsICc3LjAnLCAnLXRuJywgJzgnLCAnLW1hJywgJzIwMCcsICctbWV0YWxfYmluZGluZycsICctaW1hZScsICc8aW5maWxlLm1hZT4nLCAnLW9tYWUnLCAnPG91dGZpbGUubWFlPic=

> <r_lp_tautomer_probability>
1

> <r_epik_Ionization_Penalty>
0.00257489

> <r_epik_Ionization_Penalty_Charging>
0

> <r_epik_Ionization_Penalty_Neutral>
0.00257489

> <r_epik_State_Penalty>
0.00519398

> <r_epik_Charging_Adjusted_Penalty>
0.00519398

> <i_epik_Tot_Q>
0

> <i_epik_Tot_abs_Q>
0

> <r_epik_Metal_State_Penalty>
0.335891

> <b_epik_Metal_Only>
0

> <s_epik_Chemistry_Notes>
This compound has an ester and may undergo hydrolysis at high or low pH. This compound contains an acetal/aminal-like group ( X-CH(R)-Y where X, Y are N, S, or O) that may be acid/base labile, releasing an aldehyde.

> <s_lp_Force_Field>
OPLS_2005

> <r_lp_Energy>
52.3338

> <b_lp_Chiralities_Consistent>
1

> <s_lp_Variant>
AV-unprocessed.smi:34-13

> <Gold.Version>
5.8.1

> <Gold.Id.Protein>
6NUR|6NUR_protein|mol2

> <Gold.PLP.Fitness>
57.8710

> <Gold.PLP.PLP>
-56.2058

> <Gold.PLP.part.hbond>
-2.5516

> <Gold.PLP.part.metal>
0.0000

> <Gold.PLP.part.buried>
-9.1140

> <Gold.PLP.part.nonpolar>
-45.2080

> <Gold.PLP.part.repulsive>
1.1532

> <Gold.PLP.ligand.clash>
0.0000

> <Gold.PLP.ligand.torsion>
2.1615

> <Gold.PLP.Chemscore.Hbond>
1.5650

> <Gold.PLP.Chemscore.CHOScore>
0.0000

> <Gold.PLP.Chemscore.Metal>
0.0000

> <Gold.Chemscore.Hbonds>
donor molecule, donor type, donor heavy atom, donor atom, acceptor molecule, acceptor atom, score
      L1  H    29    50       P1  7948  1.00
      P1  H 11000 11005       L1     1  0.55

> <Gold.PLP.Chemscore.Internal.Correction>
1.2932

> <Gold.Rescore>
     Score         DG    S(hbond)    S(metal)    S(lipo)     H(rot)  DE(clash)    DE(int)     intcor
     16.78     -19.85       1.53        0.00     138.61       2.72       0.42       2.65       ----

> <Gold.Chemscore.Fitness>
16.7829

> <Gold.Chemscore.DG>
-19.8544

> <Gold.Chemscore.ZeroCoef>
-5.4800

> <Gold.Chemscore.Hbond>
1.5343

> <Gold.Chemscore.Metal>
0.0000

> <Gold.Chemscore.Lipo>
138.6050

> <Gold.Chemscore.Internal_Hbond>
0.0000

> <Gold.Chemscore.DEClash>
0.4211

> <Gold.Chemscore.DEInternal>
2.6504

> <Gold.Chemscore.Rot>
2.7215

> <Gold.Chemscore.Internal.Correction>
   9.000000E+99

> <Gold.Chemscore.Hbonds>
donor molecule, donor type, donor heavy atom, donor atom, acceptor molecule, acceptor atom, score
      L1  H    29    50       P1  7948  1.00
      P1  H 11000 11005       L1     1  0.53

> <Gold.Chemscore.Hbond.Weighted>
-5.1247

> <Gold.Chemscore.Metal.Weighted>
-0.0000

> <Gold.Chemscore.Lipo.Weighted>
-16.2168

> <Gold.Chemscore.Internal_Hbond.Weighted>
0.0000

> <Gold.Chemscore.DEClash.Weighted>
0.4211

> <Gold.Chemscore.DEInternal.Weighted>
2.6504

> <Gold.Chemscore.Rot.Weighted>
6.9670

> <Gold.Chemscore.Internal.Correction.Weighted>
   9.000000E+99

> <Gold.Protein.RotatedTorsions>
[ 6907 6896 6895 6894 ] final  173.94 input  -60.11 | X-H torsion
[ 7974 7965 7964 7962 ] final  100.88 input  175.53 | X-H torsion
[ 8008 7997 7996 7995 ] final  -60.37 input   59.86 | X-H torsion
[ 10167 10162 10161 10158 ] final  -35.80 input  -65.29 | X-H torsion
[ 10718 10713 10712 10709 ] final  -82.57 input   66.30 | X-H torsion
[ 10763 10752 10751 10750 ] final  -89.22 input  -60.55 | X-H torsion
[ 11005 11000 10999 10996 ] final   27.82 input  -57.11 | X-H torsion

> <Gold.Protein.ActiveResidues>
 VAL166  LYS551  ARG553  GLY616  TRP617  ASP618  TYR619  PRO620  LYS621  CYS622 
 ASP623  PHE694  ASN695  SER759  ASP760  ASP761  ALA762  ILE779  LEU786  VAL792 
 PHE793  MET794  SER795  GLU796  ALA797  LYS798  CYS799  TRP800  GLU811  SER814 

> <Gold.Protein.RotatedAtoms>
  151.7603  133.3333  159.3415 H   0  0  0  0  0  0  0  0  0  0  0  0  # atno 6907 bound_to 6896
  150.7501  134.6112  159.6096 H   0  0  0  0  0  0  0  0  0  0  0  0  # atno 6908 bound_to 6896
  152.3410  134.7136  160.0315 H   0  0  0  0  0  0  0  0  0  0  0  0  # atno 6909 bound_to 6896
  145.3798  139.2382  143.3410 H   0  0  0  0  0  0  0  0  0  0  0  0  # atno 7974 bound_to 7965
  154.4396  140.1041  156.6263 H   0  0  0  0  0  0  0  0  0  0  0  0  # atno 8008 bound_to 7997
  155.5653  140.3488  155.4483 H   0  0  0  0  0  0  0  0  0  0  0  0  # atno 8009 bound_to 7997
  156.0430  140.1286  157.0124 H   0  0  0  0  0  0  0  0  0  0  0  0  # atno 8010 bound_to 7997
  140.7157  143.3452  151.2272 H   0  0  0  0  0  0  0  0  0  0  0  0  # atno 10167 bound_to 10162
  156.0031  130.4638  150.4124 H   0  0  0  0  0  0  0  0  0  0  0  0  # atno 10718 bound_to 10713
  154.6529  135.5349  153.7924 H   0  0  0  0  0  0  0  0  0  0  0  0  # atno 10763 bound_to 10752
  153.0397  135.6487  154.0989 H   0  0  0  0  0  0  0  0  0  0  0  0  # atno 10764 bound_to 10752
  154.0904  135.2940  155.3252 H   0  0  0  0  0  0  0  0  0  0  0  0  # atno 10765 bound_to 10752
  140.3221  134.2531  155.7715 H   0  0  0  0  0  0  0  0  0  0  0  0  # atno 11005 bound_to 11000
  146.2847  140.4463  142.8762 LP  0  0  0  0  0  0  0  0  0  0  0  0  # atno 17320 bound_to 7965
  144.8516  140.7010  143.6164 LP  0  0  0  0  0  0  0  0  0  0  0  0  # atno 17321 bound_to 7965
  139.6969  143.9597  152.2887 LP  0  0  0  0  0  0  0  0  0  0  0  0  # atno 17342 bound_to 10162
  139.9277  144.6760  150.8395 LP  0  0  0  0  0  0  0  0  0  0  0  0  # atno 17343 bound_to 10162
  157.2186  131.0477  151.2559 LP  0  0  0  0  0  0  0  0  0  0  0  0  # atno 17370 bound_to 10713
  157.3822  130.7237  149.6638 LP  0  0  0  0  0  0  0  0  0  0  0  0  # atno 17371 bound_to 10713
  141.2084  133.7779  157.0062 LP  0  0  0  0  0  0  0  0  0  0  0  0  # atno 17394 bound_to 11000
  140.0932  134.9580  157.1809 LP  0  0  0  0  0  0  0  0  0  0  0  0  # atno 17395 bound_to 11000

$$$$
