AV-unprocessed.smi:491|AV-procd|sdf|2707|dock6
  -GOLD-   2262023153D 1   1.00000     0.00000
 Structure written by MMmdl.
 45 46  0  0  0  0  0  0  0  0  1 V2000
  147.8742  141.1452  153.9841 C   0  0  0  0  0  0  0  0  0  0  0  0
  147.7907  139.6808  153.5285 C   0  0  0  0  0  0  0  0  0  0  0  0
  148.7577  138.8340  154.1774 N   0  0  0  0  0  0  0  0  0  0  0  0
  150.1010  139.1460  154.1918 C   0  0  0  0  0  0  0  0  0  0  0  0
  151.0213  138.3654  154.7942 C   0  0  0  0  0  0  0  0  0  0  0  0
  152.4065  138.7021  154.7955 C   0  0  0  0  0  0  0  0  0  0  0  0
  153.5342  138.9613  154.8169 N   0  0  0  0  0  0  0  0  0  0  0  0
  150.6346  137.1308  155.4722 C   0  0  0  0  0  0  0  0  0  0  0  0
  151.4405  136.3732  156.0146 O   0  0  0  0  0  0  0  0  0  0  0  0
  149.2474  136.8349  155.4608 N   0  0  0  0  0  0  0  0  0  0  0  0
  148.7857  135.5828  156.1067 C   0  0  0  0  0  0  0  0  0  0  0  0
  149.0714  135.4954  157.6173 C   0  0  0  0  0  0  0  0  0  0  0  0
  149.7750  134.5815  158.0454 O   0  0  0  0  0  0  0  0  0  0  0  0
  148.5275  136.4280  158.4142 N   0  0  0  0  0  0  0  0  0  0  0  0
  148.6656  136.4898  159.8614 C   0  0  0  0  0  0  0  0  0  0  0  0
  147.4754  135.8033  160.5590 C   0  0  0  0  0  0  0  0  0  0  0  0
  147.5246  136.0305  162.0836 C   0  0  0  0  0  0  0  0  0  0  0  0
  146.3354  135.3671  162.7971 C   0  0  0  0  0  0  0  0  0  0  0  0
  146.2632  133.8660  162.4790 C   0  0  0  0  0  0  0  0  0  0  0  0
  146.2072  133.6260  160.9627 C   0  0  0  0  0  0  0  0  0  0  0  0
  147.3939  134.2909  160.2467 C   0  0  0  0  0  0  0  0  0  0  0  0
  148.2931  137.6644  154.8226 C   0  0  0  0  0  0  0  0  0  0  0  0
  147.0961  137.3665  154.8225 O   0  0  0  0  0  0  0  0  0  0  0  0
  147.1504  141.7574  153.4463 H   0  0  0  0  0  0  0  0  0  0  0  0
  148.8647  141.5598  153.7944 H   0  0  0  0  0  0  0  0  0  0  0  0
  147.6661  141.2482  155.0493 H   0  0  0  0  0  0  0  0  0  0  0  0
  146.8042  139.2440  153.6956 H   0  0  0  0  0  0  0  0  0  0  0  0
  147.9908  139.5991  152.4593 H   0  0  0  0  0  0  0  0  0  0  0  0
  150.4305  140.0508  153.7011 H   0  0  0  0  0  0  0  0  0  0  0  0
  147.7147  135.4407  155.9549 H   0  0  0  0  0  0  0  0  0  0  0  0
  149.2319  134.7098  155.6283 H   0  0  0  0  0  0  0  0  0  0  0  0
  147.9633  137.1450  157.9824 H   0  0  0  0  0  0  0  0  0  0  0  0
  149.6031  136.0124  160.1510 H   0  0  0  0  0  0  0  0  0  0  0  0
  148.7275  137.5339  160.1728 H   0  0  0  0  0  0  0  0  0  0  0  0
  146.5622  136.2699  160.1854 H   0  0  0  0  0  0  0  0  0  0  0  0
  148.4569  135.6310  162.4858 H   0  0  0  0  0  0  0  0  0  0  0  0
  147.5284  137.0991  162.3021 H   0  0  0  0  0  0  0  0  0  0  0  0
  146.4196  135.5144  163.8742 H   0  0  0  0  0  0  0  0  0  0  0  0
  145.4075  135.8518  162.4902 H   0  0  0  0  0  0  0  0  0  0  0  0
  147.1342  133.3606  162.8978 H   0  0  0  0  0  0  0  0  0  0  0  0
  145.3888  133.4252  162.9586 H   0  0  0  0  0  0  0  0  0  0  0  0
  146.2021  132.5554  160.7559 H   0  0  0  0  0  0  0  0  0  0  0  0
  145.2723  134.0222  160.5641 H   0  0  0  0  0  0  0  0  0  0  0  0
  147.2954  134.1239  159.1736 H   0  0  0  0  0  0  0  0  0  0  0  0
  148.3211  133.8023  160.5493 H   0  0  0  0  0  0  0  0  0  0  0  0
  1  2  1  0  0  0  0
  1 24  1  0  0  0  0
  1 25  1  0  0  0  0
  1 26  1  0  0  0  0
  2  3  1  0  0  0  0
  2 27  1  0  0  0  0
  2 28  1  0  0  0  0
  3 22  1  0  0  0  0
  3  4  1  0  0  0  0
  4  5  2  0  0  0  0
  4 29  1  0  0  0  0
  5  6  1  0  0  0  0
  5  8  1  0  0  0  0
  6  7  3  0  0  0  0
  8  9  2  0  0  0  0
  8 10  1  0  0  0  0
 10 11  1  0  0  0  0
 10 22  1  0  0  0  0
 11 12  1  0  0  0  0
 11 30  1  0  0  0  0
 11 31  1  0  0  0  0
 12 13  2  0  0  0  0
 12 14  1  0  0  0  0
 14 15  1  0  0  0  0
 14 32  1  0  0  0  0
 15 16  1  0  0  0  0
 15 33  1  0  0  0  0
 15 34  1  0  0  0  0
 16 21  1  0  0  0  0
 16 17  1  0  0  0  0
 16 35  1  0  0  0  0
 17 18  1  0  0  0  0
 17 36  1  0  0  0  0
 17 37  1  0  0  0  0
 18 19  1  0  0  0  0
 18 38  1  0  0  0  0
 18 39  1  0  0  0  0
 19 20  1  0  0  0  0
 19 40  1  0  0  0  0
 19 41  1  0  0  0  0
 20 21  1  0  0  0  0
 20 42  1  0  0  0  0
 20 43  1  0  0  0  0
 21 44  1  0  0  0  0
 21 45  1  0  0  0  0
 22 23  2  0  0  0  0
M  END
> <s_m_source_file>
AV-unprocessed.smi

> <i_m_source_file_index>
491

> <i_lp_mmshare_version>
43012

> <i_f3d_flags>
0

> <s_epik_input>
W0NIM11bQ0gyXW4xW2NIXWMoQyNOKWMoPU8pbihjMT1PKVtDSDJdQyg9TylbTkhdW0NIMl1bQ0hdMltDSDJdW0NIMl1bQ0gyXVtDSDJdW0NIMl0y

> <s_epik_cmdline>
J2VwaWtfcHl0aG9uJywgJy1waCcsICc3LjAnLCAnLXRuJywgJzgnLCAnLW1hJywgJzIwMCcsICctbWV0YWxfYmluZGluZycsICctaW1hZScsICc8aW5maWxlLm1hZT4nLCAnLW9tYWUnLCAnPG91dGZpbGUubWFlPic=

> <r_lp_tautomer_probability>
1

> <r_epik_Ionization_Penalty>
1.98356e-08

> <r_epik_Ionization_Penalty_Charging>
3.77777e-11

> <r_epik_Ionization_Penalty_Neutral>
1.97978e-08

> <r_epik_State_Penalty>
-0

> <r_epik_Charging_Adjusted_Penalty>
3.77777e-11

> <i_epik_Tot_Q>
0

> <i_epik_Tot_abs_Q>
0

> <r_epik_Metal_State_Penalty>
-0

> <b_epik_Metal_Only>
0

> <s_lp_Force_Field>
OPLS_2005

> <r_lp_Energy>
13.3995

> <b_lp_Chiralities_Consistent>
1

> <s_lp_Variant>
AV-unprocessed.smi:491-1

> <Gold.Version>
5.8.1

> <Gold.Id.Protein>
6NUR|6NUR_protein|mol2

> <Gold.PLP.Fitness>
49.0177

> <Gold.PLP.PLP>
-39.9302

> <Gold.PLP.part.hbond>
-2.9547

> <Gold.PLP.part.metal>
0.0000

> <Gold.PLP.part.buried>
-2.2531

> <Gold.PLP.part.nonpolar>
-35.3545

> <Gold.PLP.part.repulsive>
0.2156

> <Gold.PLP.ligand.clash>
0.0000

> <Gold.PLP.ligand.torsion>
0.2464

> <Gold.PLP.Chemscore.Hbond>
2.7360

> <Gold.PLP.Chemscore.CHOScore>
0.4463

> <Gold.PLP.Chemscore.Metal>
0.0000

> <Gold.Chemscore.Hbonds>
donor molecule, donor type, donor heavy atom, donor atom, acceptor molecule, acceptor atom, score
      P1  H  6896  6907       L1    13  0.80
      P1  H  7997  8010       L1     7  0.98
      P1  H 10752 10764       L1     9  0.67
      L1  C     4    29       P1  7957  0.40

> <Gold.PLP.Chemscore.Internal.Correction>
0.0335

> <Gold.Rescore>
     Score         DG    S(hbond)    S(metal)    S(lipo)     H(rot)  DE(clash)    DE(int)     intcor
     17.52     -18.77       2.73        0.00      78.11       1.95       0.01       1.23       ----

> <Gold.Chemscore.Fitness>
17.5245

> <Gold.Chemscore.DG>
-18.7662

> <Gold.Chemscore.ZeroCoef>
-5.4800

> <Gold.Chemscore.Hbond>
2.7332

> <Gold.Chemscore.Metal>
0.0000

> <Gold.Chemscore.Lipo>
78.1079

> <Gold.Chemscore.Internal_Hbond>
0.0000

> <Gold.Chemscore.DEClash>
0.0096

> <Gold.Chemscore.DEInternal>
1.2321

> <Gold.Chemscore.Rot>
1.9458

> <Gold.Chemscore.Internal.Correction>
   9.000000E+99

> <Gold.Chemscore.Hbonds>
donor molecule, donor type, donor heavy atom, donor atom, acceptor molecule, acceptor atom, score
      P1  H  6896  6907       L1    13  0.80
      P1  H  7997  8010       L1     7  0.93
      P1  H 10752 10764       L1     9  0.66

> <Gold.Chemscore.Hbond.Weighted>
-9.1289

> <Gold.Chemscore.Metal.Weighted>
-0.0000

> <Gold.Chemscore.Lipo.Weighted>
-9.1386

> <Gold.Chemscore.Internal_Hbond.Weighted>
0.0000

> <Gold.Chemscore.DEClash.Weighted>
0.0096

> <Gold.Chemscore.DEInternal.Weighted>
1.2321

> <Gold.Chemscore.Rot.Weighted>
4.9813

> <Gold.Chemscore.Internal.Correction.Weighted>
   9.000000E+99

> <Gold.Protein.RotatedTorsions>
[ 6907 6896 6895 6894 ] final -117.44 input  -60.11 | X-H torsion
[ 7974 7965 7964 7962 ] final  116.22 input  175.53 | X-H torsion
[ 8008 7997 7996 7995 ] final  125.76 input   59.86 | X-H torsion
[ 10167 10162 10161 10158 ] final  -44.11 input  -65.29 | X-H torsion
[ 10718 10713 10712 10709 ] final   20.60 input   66.30 | X-H torsion
[ 10763 10752 10751 10750 ] final  -26.26 input  -60.55 | X-H torsion
[ 11005 11000 10999 10996 ] final -115.70 input  -57.11 | X-H torsion

> <Gold.Protein.ActiveResidues>
 VAL166  LYS551  ARG553  GLY616  TRP617  ASP618  TYR619  PRO620  LYS621  CYS622 
 ASP623  PHE694  ASN695  SER759  ASP760  ASP761  ALA762  ILE779  LEU786  VAL792 
 PHE793  MET794  SER795  GLU796  ALA797  LYS798  CYS799  TRP800  GLU811  SER814 

> <Gold.Protein.RotatedAtoms>
  150.8137  133.8376  159.3170 H   0  0  0  0  0  0  0  0  0  0  0  0  # atno 6907 bound_to 6896
  151.6154  135.1035  160.0099 H   0  0  0  0  0  0  0  0  0  0  0  0  # atno 6908 bound_to 6896
  152.4229  133.7105  159.6533 H   0  0  0  0  0  0  0  0  0  0  0  0  # atno 6909 bound_to 6896
  145.1823  139.3043  143.4412 H   0  0  0  0  0  0  0  0  0  0  0  0  # atno 7974 bound_to 7965
  156.2844  140.2709  156.2001 H   0  0  0  0  0  0  0  0  0  0  0  0  # atno 8008 bound_to 7997
  155.0369  140.0386  157.2513 H   0  0  0  0  0  0  0  0  0  0  0  0  # atno 8009 bound_to 7997
  154.7307  140.2706  155.6464 H   0  0  0  0  0  0  0  0  0  0  0  0  # atno 8010 bound_to 7997
  140.6909  143.2947  151.3448 H   0  0  0  0  0  0  0  0  0  0  0  0  # atno 10167 bound_to 10162
  157.1268  130.6573  149.5940 H   0  0  0  0  0  0  0  0  0  0  0  0  # atno 10718 bound_to 10713
  153.7130  135.6949  153.5032 H   0  0  0  0  0  0  0  0  0  0  0  0  # atno 10763 bound_to 10752
  153.2259  135.4354  155.0540 H   0  0  0  0  0  0  0  0  0  0  0  0  # atno 10764 bound_to 10752
  154.8309  135.3472  154.6666 H   0  0  0  0  0  0  0  0  0  0  0  0  # atno 10765 bound_to 10752
  141.0471  133.9746  157.2900 H   0  0  0  0  0  0  0  0  0  0  0  0  # atno 11005 bound_to 11000
  146.3451  140.2006  142.8589 LP  0  0  0  0  0  0  0  0  0  0  0  0  # atno 17320 bound_to 7965
  145.0124  140.8725  143.5216 LP  0  0  0  0  0  0  0  0  0  0  0  0  # atno 17321 bound_to 7965
  139.6311  144.0719  152.2477 LP  0  0  0  0  0  0  0  0  0  0  0  0  # atno 17342 bound_to 10162
  140.0194  144.6164  150.7579 LP  0  0  0  0  0  0  0  0  0  0  0  0  # atno 17343 bound_to 10162
  155.9816  130.4825  150.6839 LP  0  0  0  0  0  0  0  0  0  0  0  0  # atno 17370 bound_to 10713
  157.4428  131.0863  151.0926 LP  0  0  0  0  0  0  0  0  0  0  0  0  # atno 17371 bound_to 10713
  139.9320  135.0199  156.8432 LP  0  0  0  0  0  0  0  0  0  0  0  0  # atno 17394 bound_to 11000
  140.6127  134.0068  155.7583 LP  0  0  0  0  0  0  0  0  0  0  0  0  # atno 17395 bound_to 11000

$$$$
