AV-unprocessed.smi:2471|AV-procd|sdf|9740|dock9
  -GOLD-   2272013383D 1   1.00000     0.00000
 Structure written by MMmdl.
 40 41  0  0  0  0  0  0  0  0  1 V2000
  153.4099  141.0091  160.3041 C   0  0  0  0  0  0  0  0  0  0  0  0
  152.7190  142.2366  159.7479 C   0  0  0  0  0  0  0  0  0  0  0  0
  152.8627  143.4926  160.3689 C   0  0  0  0  0  0  0  0  0  0  0  0
  152.1984  144.5933  159.7988 C   0  0  0  0  0  0  0  0  0  0  0  0
  151.4232  144.3942  158.6400 C   0  0  0  0  0  0  0  0  0  0  0  0
  151.3310  143.1004  158.0791 C   0  0  0  0  0  0  0  0  0  0  0  0
  150.5265  143.0045  156.9123 N   0  0  0  0  0  0  0  0  0  0  0  0
  150.3036  141.9234  156.1440 C   0  0  0  0  0  0  0  0  0  0  0  0
  150.7695  140.8006  156.3410 O   0  0  0  0  0  0  0  0  0  0  0  0
  149.4942  142.2154  155.1156 N   0  0  0  0  0  0  0  0  0  0  0  0
  149.0524  141.2595  154.1042 C   0  0  0  0  0  0  0  0  0  0  0  0
  148.1170  140.1699  154.6815 C   0  0  1  0  0  0  0  0  0  0  0  0
  146.7959  140.7838  155.2024 C   0  0  0  0  0  0  0  0  0  0  0  0
  145.8341  139.7170  155.7479 C   0  0  0  0  0  0  0  0  0  0  0  0
  145.5399  138.6449  154.6905 C   0  0  0  0  0  0  0  0  0  0  0  0
  146.8415  138.0046  154.1899 C   0  0  0  0  0  0  0  0  0  0  0  0
  147.8165  139.0629  153.6403 C   0  0  2  0  0  0  0  0  0  0  0  0
  149.0083  138.3961  153.2735 O   0  0  0  0  0  0  0  0  0  0  0  0
  151.9767  142.0456  158.6361 N   0  0  0  0  0  0  0  0  0  0  0  0
  153.8061  141.1976  161.3023 H   0  0  0  0  0  0  0  0  0  0  0  0
  154.2376  140.7173  159.6572 H   0  0  0  0  0  0  0  0  0  0  0  0
  152.7125  140.1732  160.3689 H   0  0  0  0  0  0  0  0  0  0  0  0
  153.4655  143.6123  161.2571 H   0  0  0  0  0  0  0  0  0  0  0  0
  152.2816  145.5745  160.2422 H   0  0  0  0  0  0  0  0  0  0  0  0
  150.9063  145.2297  158.1902 H   0  0  0  0  0  0  0  0  0  0  0  0
  150.0712  143.8590  156.6281 H   0  0  0  0  0  0  0  0  0  0  0  0
  149.1561  143.1625  155.0265 H   0  0  0  0  0  0  0  0  0  0  0  0
  148.5374  141.8129  153.3185 H   0  0  0  0  0  0  0  0  0  0  0  0
  149.9289  140.8119  153.6333 H   0  0  0  0  0  0  0  0  0  0  0  0
  148.6204  139.6999  155.5283 H   0  0  0  0  0  0  0  0  0  0  0  0
  146.9985  141.5101  155.9898 H   0  0  0  0  0  0  0  0  0  0  0  0
  146.3049  141.3328  154.3976 H   0  0  0  0  0  0  0  0  0  0  0  0
  146.2686  139.2507  156.6332 H   0  0  0  0  0  0  0  0  0  0  0  0
  144.9037  140.1856  156.0698 H   0  0  0  0  0  0  0  0  0  0  0  0
  144.8846  137.8799  155.1078 H   0  0  0  0  0  0  0  0  0  0  0  0
  145.0030  139.0910  153.8524 H   0  0  0  0  0  0  0  0  0  0  0  0
  147.3111  137.4590  155.0102 H   0  0  0  0  0  0  0  0  0  0  0  0
  146.6152  137.2670  153.4190 H   0  0  0  0  0  0  0  0  0  0  0  0
  147.3898  139.5128  152.7428 H   0  0  0  0  0  0  0  0  0  0  0  0
  148.7868  137.6695  152.7114 H   0  0  0  0  0  0  0  0  0  0  0  0
  1  2  1  0  0  0  0
  1 20  1  0  0  0  0
  1 21  1  0  0  0  0
  1 22  1  0  0  0  0
  2 19  1  0  0  0  0
  2  3  2  0  0  0  0
  3  4  1  0  0  0  0
  3 23  1  0  0  0  0
  4  5  2  0  0  0  0
  4 24  1  0  0  0  0
  5  6  1  0  0  0  0
  5 25  1  0  0  0  0
  6  7  1  0  0  0  0
  6 19  2  0  0  0  0
  7  8  1  0  0  0  0
  7 26  1  0  0  0  0
  8  9  2  0  0  0  0
  8 10  1  0  0  0  0
 10 11  1  0  0  0  0
 10 27  1  0  0  0  0
 11 12  1  0  0  0  0
 11 28  1  0  0  0  0
 11 29  1  0  0  0  0
 12 17  1  0  0  0  0
 12 13  1  0  0  0  0
 12 30  1  0  0  0  0
 13 14  1  0  0  0  0
 13 31  1  0  0  0  0
 13 32  1  0  0  0  0
 14 15  1  0  0  0  0
 14 33  1  0  0  0  0
 14 34  1  0  0  0  0
 15 16  1  0  0  0  0
 15 35  1  0  0  0  0
 15 36  1  0  0  0  0
 16 17  1  0  0  0  0
 16 37  1  0  0  0  0
 16 38  1  0  0  0  0
 17 18  1  0  0  0  0
 17 39  1  0  0  0  0
 18 40  1  0  0  0  0
M  END
> <s_m_source_file>
AV-unprocessed.smi

> <i_m_source_file_index>
2471

> <i_lp_mmshare_version>
43012

> <i_f3d_flags>
0

> <s_epik_input>
W0NIM11jMVtjSF1bY0hdW2NIXWMobjEpW05IXUMoPU8pW05IXVtDSDJdW0NAQEhdMltDSDJdW0NIMl1bQ0gyXVtDSDJdW0NASF0yW09IXQ==

> <s_epik_cmdline>
J2VwaWtfcHl0aG9uJywgJy1waCcsICc3LjAnLCAnLXRuJywgJzgnLCAnLW1hJywgJzIwMCcsICctbWV0YWxfYmluZGluZycsICctaW1hZScsICc8aW5maWxlLm1hZT4nLCAnLW9tYWUnLCAnPG91dGZpbGUubWFlPic=

> <r_lp_tautomer_probability>
1

> <r_epik_Ionization_Penalty>
8.52237e-05

> <r_epik_Ionization_Penalty_Charging>
0

> <r_epik_Ionization_Penalty_Neutral>
8.52237e-05

> <r_epik_State_Penalty>
-0

> <r_epik_Charging_Adjusted_Penalty>
0

> <i_epik_Tot_Q>
0

> <i_epik_Tot_abs_Q>
0

> <r_epik_Metal_State_Penalty>
-0

> <b_epik_Metal_Only>
0

> <s_lp_Force_Field>
OPLS_2005

> <r_lp_Energy>
14.0215

> <b_lp_Chiralities_Consistent>
1

> <s_lp_Variant>
AV-unprocessed.smi:2471-4

> <Gold.Version>
5.8.1

> <Gold.Id.Protein>
6NUR|6NUR_protein|mol2

> <Gold.PLP.Fitness>
45.1332

> <Gold.PLP.PLP>
-36.2216

> <Gold.PLP.part.hbond>
-4.0000

> <Gold.PLP.part.metal>
0.0000

> <Gold.PLP.part.buried>
-2.6199

> <Gold.PLP.part.nonpolar>
-29.1183

> <Gold.PLP.part.repulsive>
0.2776

> <Gold.PLP.ligand.clash>
0.0000

> <Gold.PLP.ligand.torsion>
0.0463

> <Gold.PLP.Chemscore.Hbond>
3.0000

> <Gold.PLP.Chemscore.CHOScore>
0.0000

> <Gold.PLP.Chemscore.Metal>
0.0000

> <Gold.Chemscore.Hbonds>
donor molecule, donor type, donor heavy atom, donor atom, acceptor molecule, acceptor atom, score
      L1  H     7    26       P1  8028  1.00
      L1  H    10    27       P1  8028  1.00
      L1  H    18    40       P1  7948  1.00

> <Gold.PLP.Chemscore.Internal.Correction>
0.0042

> <Gold.Rescore>
     Score         DG    S(hbond)    S(metal)    S(lipo)     H(rot)  DE(clash)    DE(int)     intcor
     19.47     -21.00       2.94        0.00      86.55       1.73       0.10       1.42       ----

> <Gold.Chemscore.Fitness>
19.4720

> <Gold.Chemscore.DG>
-20.9961

> <Gold.Chemscore.ZeroCoef>
-5.4800

> <Gold.Chemscore.Hbond>
2.9427

> <Gold.Chemscore.Metal>
0.0000

> <Gold.Chemscore.Lipo>
86.5491

> <Gold.Chemscore.Internal_Hbond>
0.0000

> <Gold.Chemscore.DEClash>
0.0997

> <Gold.Chemscore.DEInternal>
1.4243

> <Gold.Chemscore.Rot>
1.7339

> <Gold.Chemscore.Internal.Correction>
   9.000000E+99

> <Gold.Chemscore.Hbonds>
donor molecule, donor type, donor heavy atom, donor atom, acceptor molecule, acceptor atom, score
      L1  H     7    26       P1  8028  0.96
      L1  H    10    27       P1  8028  0.97
      L1  H    18    40       P1  7948  0.99

> <Gold.Chemscore.Hbond.Weighted>
-9.8285

> <Gold.Chemscore.Metal.Weighted>
-0.0000

> <Gold.Chemscore.Lipo.Weighted>
-10.1262

> <Gold.Chemscore.Internal_Hbond.Weighted>
0.0000

> <Gold.Chemscore.DEClash.Weighted>
0.0997

> <Gold.Chemscore.DEInternal.Weighted>
1.4243

> <Gold.Chemscore.Rot.Weighted>
4.4387

> <Gold.Chemscore.Internal.Correction.Weighted>
   9.000000E+99

> <Gold.Protein.RotatedTorsions>
[ 6907 6896 6895 6894 ] final   41.66 input  -60.11 | X-H torsion
[ 7974 7965 7964 7962 ] final  -79.85 input  175.53 | X-H torsion
[ 8008 7997 7996 7995 ] final   22.30 input   59.86 | X-H torsion
[ 10167 10162 10161 10158 ] final   16.32 input  -65.29 | X-H torsion
[ 10718 10713 10712 10709 ] final   32.36 input   66.30 | X-H torsion
[ 10763 10752 10751 10750 ] final    3.87 input  -60.55 | X-H torsion
[ 11005 11000 10999 10996 ] final  -83.42 input  -57.11 | X-H torsion

> <Gold.Protein.ActiveResidues>
 VAL166  LYS551  ARG553  GLY616  TRP617  ASP618  TYR619  PRO620  LYS621  CYS622 
 ASP623  PHE694  ASN695  SER759  ASP760  ASP761  ALA762  ILE779  LEU786  VAL792 
 PHE793  MET794  SER795  GLU796  ALA797  LYS798  CYS799  TRP800  GLU811  SER814 

> <Gold.Protein.RotatedAtoms>
  152.1980  134.8613  160.0510 H   0  0  0  0  0  0  0  0  0  0  0  0  # atno 6907 bound_to 6896
  151.9477  133.3651  159.3996 H   0  0  0  0  0  0  0  0  0  0  0  0  # atno 6908 bound_to 6896
  150.6949  134.4297  159.5287 H   0  0  0  0  0  0  0  0  0  0  0  0  # atno 6909 bound_to 6896
  145.5677  140.9471  143.1413 H   0  0  0  0  0  0  0  0  0  0  0  0  # atno 7974 bound_to 7965
  154.9636  140.3081  155.5020 H   0  0  0  0  0  0  0  0  0  0  0  0  # atno 8008 bound_to 7997
  156.2974  140.2297  156.4662 H   0  0  0  0  0  0  0  0  0  0  0  0  # atno 8009 bound_to 7997
  154.7942  140.0438  157.1212 H   0  0  0  0  0  0  0  0  0  0  0  0  # atno 8010 bound_to 7997
  140.5805  143.8989  150.6786 H   0  0  0  0  0  0  0  0  0  0  0  0  # atno 10167 bound_to 10162
  157.2842  130.7270  149.6574 H   0  0  0  0  0  0  0  0  0  0  0  0  # atno 10718 bound_to 10713
  153.2781  135.6938  153.7413 H   0  0  0  0  0  0  0  0  0  0  0  0  # atno 10763 bound_to 10752
  153.6410  135.3393  155.3072 H   0  0  0  0  0  0  0  0  0  0  0  0  # atno 10764 bound_to 10752
  154.8486  135.4432  154.1826 H   0  0  0  0  0  0  0  0  0  0  0  0  # atno 10765 bound_to 10752
  141.1658  133.7293  156.8718 H   0  0  0  0  0  0  0  0  0  0  0  0  # atno 11005 bound_to 11000
  144.7453  139.7338  143.7295 LP  0  0  0  0  0  0  0  0  0  0  0  0  # atno 17320 bound_to 7965
  146.1806  139.4997  142.9869 LP  0  0  0  0  0  0  0  0  0  0  0  0  # atno 17321 bound_to 7965
  140.2487  143.3609  152.1424 LP  0  0  0  0  0  0  0  0  0  0  0  0  # atno 17342 bound_to 10162
  139.5167  144.6981  151.5571 LP  0  0  0  0  0  0  0  0  0  0  0  0  # atno 17343 bound_to 10162
  155.9665  130.4328  150.4981 LP  0  0  0  0  0  0  0  0  0  0  0  0  # atno 17370 bound_to 10713
  157.2931  131.0630  151.2120 LP  0  0  0  0  0  0  0  0  0  0  0  0  # atno 17371 bound_to 10713
  140.1776  134.9056  157.2910 LP  0  0  0  0  0  0  0  0  0  0  0  0  # atno 17394 bound_to 11000
  140.2431  134.3772  155.7472 LP  0  0  0  0  0  0  0  0  0  0  0  0  # atno 17395 bound_to 11000

$$$$
