AV-unprocessed.smi:1644|AV-procd|sdf|6597|dock9
  -GOLD-   22720 7303D 1   1.00000     0.00000
 Structure written by MMmdl.
 49 51  0  0  0  0  0  0  0  0  3 V2000
  147.1008  135.6669  162.9111 C   0  0  0  0  0  0  0  0  0  0  0  0
  147.1475  136.4948  161.6221 C   0  0  0  0  0  0  0  0  0  0  0  0
  148.1245  135.9158  160.5861 C   0  0  0  0  0  0  0  0  0  0  0  0
  147.9801  136.5533  159.1877 C   0  0  1  0  0  0  0  0  0  0  0  0
  148.1415  137.9922  159.2405 N   0  5  0  0  0  0  0  0  0  0  0  0
  149.1779  138.3424  158.4440 C   0  0  0  0  0  0  0  0  0  0  0  0
  149.6048  139.4800  158.2506 O   0  0  0  0  0  0  0  0  0  0  0  0
  149.7311  137.2596  157.8661 N   0  0  0  0  0  0  0  0  0  0  0  0
  150.9015  137.2789  156.9818 C   0  0  0  0  0  0  0  0  0  0  0  0
  150.8265  138.4397  155.9683 C   0  0  2  0  0  0  0  0  0  0  0  0
  151.0250  137.9171  154.6693 O   0  0  0  0  0  0  0  0  0  0  0  0
  151.9033  139.5081  156.2409 C   0  0  0  0  0  0  0  0  0  0  0  0
  151.3326  140.8375  156.5017 N   0  0  0  0  0  0  0  0  0  0  0  0
  150.4665  141.5699  155.7508 C   0  0  0  0  0  0  0  0  0  0  0  0
  150.2333  142.7367  156.4132 N   0  3  0  0  0  0  0  0  0  0  0  0
  150.9652  142.7512  157.6024 C   0  0  0  0  0  0  0  0  0  0  0  0
  151.0584  143.7132  158.6010 C   0  0  0  0  0  0  0  0  0  0  0  0
  151.9039  143.4266  159.6964 C   0  0  0  0  0  0  0  0  0  0  0  0
  152.0297  144.4581  160.8045 C   0  0  0  0  0  0  0  0  0  0  0  0
  152.6223  142.2048  159.7636 C   0  0  0  0  0  0  0  0  0  0  0  0
  153.5322  141.9088  160.9436 C   0  0  0  0  0  0  0  0  0  0  0  0
  152.5119  141.2381  158.7385 C   0  0  0  0  0  0  0  0  0  0  0  0
  151.6740  141.5359  157.6661 C   0  0  0  0  0  0  0  0  0  0  0  0
  149.1034  136.1457  158.2561 C   0  0  0  0  0  0  0  0  0  0  0  0
  149.3704  134.9837  157.9461 O   0  0  0  0  0  0  0  0  0  0  0  0
  146.3982  136.0981  163.6246 H   0  0  0  0  0  0  0  0  0  0  0  0
  148.0798  135.6284  163.3896 H   0  0  0  0  0  0  0  0  0  0  0  0
  146.7848  134.6430  162.7095 H   0  0  0  0  0  0  0  0  0  0  0  0
  146.1466  136.5457  161.1920 H   0  0  0  0  0  0  0  0  0  0  0  0
  147.4310  137.5194  161.8653 H   0  0  0  0  0  0  0  0  0  0  0  0
  149.1491  136.0259  160.9460 H   0  0  0  0  0  0  0  0  0  0  0  0
  147.9469  134.8419  160.5117 H   0  0  0  0  0  0  0  0  0  0  0  0
  147.0341  136.2541  158.7344 H   0  0  0  0  0  0  0  0  0  0  0  0
  151.7901  137.3947  157.6049 H   0  0  0  0  0  0  0  0  0  0  0  0
  151.0348  136.3214  156.4747 H   0  0  0  0  0  0  0  0  0  0  0  0
  149.8446  138.9135  156.0098 H   0  0  0  0  0  0  0  0  0  0  0  0
  150.8223  136.9934  154.6858 H   0  0  0  0  0  0  0  0  0  0  0  0
  152.4787  139.2339  157.1259 H   0  0  0  0  0  0  0  0  0  0  0  0
  152.6187  139.5733  155.4206 H   0  0  0  0  0  0  0  0  0  0  0  0
  150.0421  141.2776  154.8011 H   0  0  0  0  0  0  0  0  0  0  0  0
  150.5096  144.6419  158.5422 H   0  0  0  0  0  0  0  0  0  0  0  0
  151.6787  144.0470  161.7513 H   0  0  0  0  0  0  0  0  0  0  0  0
  151.4398  145.3495  160.5885 H   0  0  0  0  0  0  0  0  0  0  0  0
  153.0681  144.7679  160.9244 H   0  0  0  0  0  0  0  0  0  0  0  0
  153.9936  140.9247  160.8552 H   0  0  0  0  0  0  0  0  0  0  0  0
  152.9696  141.9296  161.8773 H   0  0  0  0  0  0  0  0  0  0  0  0
  154.3322  142.6469  161.0043 H   0  0  0  0  0  0  0  0  0  0  0  0
  153.0650  140.3117  158.7854 H   0  0  0  0  0  0  0  0  0  0  0  0
  149.6213  143.4686  156.0755 H   0  0  0  0  0  0  0  0  0  0  0  0
  1  2  1  0  0  0  0
  1 26  1  0  0  0  0
  1 27  1  0  0  0  0
  1 28  1  0  0  0  0
  2  3  1  0  0  0  0
  2 29  1  0  0  0  0
  2 30  1  0  0  0  0
  3  4  1  0  0  0  0
  3 31  1  0  0  0  0
  3 32  1  0  0  0  0
  4 24  1  0  0  0  0
  4  5  1  0  0  0  0
  4 33  1  0  0  0  0
  5  6  1  0  0  0  0
  6  7  2  0  0  0  0
  6  8  1  0  0  0  0
  8  9  1  0  0  0  0
  8 24  1  0  0  0  0
  9 10  1  0  0  0  0
  9 34  1  0  0  0  0
  9 35  1  0  0  0  0
 10 11  1  0  0  0  0
 10 12  1  0  0  0  0
 10 36  1  0  0  0  0
 11 37  1  0  0  0  0
 12 13  1  0  0  0  0
 12 38  1  0  0  0  0
 12 39  1  0  0  0  0
 13 23  1  0  0  0  0
 13 14  1  0  0  0  0
 14 15  2  0  0  0  0
 14 40  1  0  0  0  0
 15 16  1  0  0  0  0
 15 49  1  0  0  0  0
 16 23  2  0  0  0  0
 16 17  1  0  0  0  0
 17 18  2  0  0  0  0
 17 41  1  0  0  0  0
 18 19  1  0  0  0  0
 18 20  1  0  0  0  0
 19 42  1  0  0  0  0
 19 43  1  0  0  0  0
 19 44  1  0  0  0  0
 20 21  1  0  0  0  0
 20 22  2  0  0  0  0
 21 45  1  0  0  0  0
 21 46  1  0  0  0  0
 21 47  1  0  0  0  0
 22 23  1  0  0  0  0
 22 48  1  0  0  0  0
 24 25  2  0  0  0  0
M  CHG  1   5  -1
M  CHG  1  15   1
M  END
> <s_m_source_file>
AV-unprocessed.smi

> <i_m_source_file_index>
1644

> <i_lp_mmshare_version>
43012

> <i_f3d_flags>
0

> <s_epik_input>
W0NIM11bQ0gyXVtDSDJdW0NAQEhdMVtOSF1DKD1PKU4oQzE9TylbQ0gyXVtDQEhdKFtPSF0pW0NIMl1uKFtjSF1uMiljKGMyMylbY0hdYyhbQ0gzXSljKFtjSF0zKVtDSDNd

> <s_epik_cmdline>
J2VwaWtfcHl0aG9uJywgJy1waCcsICc3LjAnLCAnLXRuJywgJzgnLCAnLW1hJywgJzIwMCcsICctbWV0YWxfYmluZGluZycsICctaW1hZScsICc8aW5maWxlLm1hZT4nLCAnLW9tYWUnLCAnPG91dGZpbGUubWFlPic=

> <r_lp_tautomer_probability>
1

> <r_epik_Ionization_Penalty>
6.86868

> <r_epik_Ionization_Penalty_Charging>
6.86868

> <r_epik_Ionization_Penalty_Neutral>
5.84798e-07

> <r_epik_State_Penalty>
6.92818

> <r_epik_Charging_Adjusted_Penalty>
13.7969

> <i_epik_Tot_Q>
0

> <i_epik_Tot_abs_Q>
2

> <r_epik_Metal_State_Penalty>
2.98017

> <b_epik_Metal_Only>
1

> <s_lp_Force_Field>
OPLS_2005

> <r_lp_Energy>
23.8384

> <b_lp_Chiralities_Consistent>
1

> <s_lp_Variant>
AV-unprocessed.smi:1644-14

> <Gold.Version>
5.8.1

> <Gold.Id.Protein>
6NUR|6NUR_protein|mol2

> <Gold.PLP.Fitness>
56.1476

> <Gold.PLP.PLP>
-49.4157

> <Gold.PLP.part.hbond>
-3.7452

> <Gold.PLP.part.metal>
0.0000

> <Gold.PLP.part.buried>
-7.2951

> <Gold.PLP.part.nonpolar>
-39.8482

> <Gold.PLP.part.repulsive>
0.0701

> <Gold.PLP.ligand.clash>
0.0000

> <Gold.PLP.ligand.torsion>
1.8153

> <Gold.PLP.Chemscore.Hbond>
3.4248

> <Gold.PLP.Chemscore.CHOScore>
0.0000

> <Gold.PLP.Chemscore.Metal>
0.0000

> <Gold.Chemscore.Hbonds>
donor molecule, donor type, donor heavy atom, donor atom, acceptor molecule, acceptor atom, score
      L1  H    15    49       P1  8028  1.89
      P1  H  6896  6907       L1    25  0.93
      P1  H  6934  6947       L1     5  0.41

> <Gold.PLP.Chemscore.Internal.Correction>
0.0879

> <Gold.Rescore>
     Score         DG    S(hbond)    S(metal)    S(lipo)     H(rot)  DE(clash)    DE(int)     intcor
     15.96     -20.65       2.32        0.00     123.03       2.72       0.04       4.65       ----

> <Gold.Chemscore.Fitness>
15.9631

> <Gold.Chemscore.DG>
-20.6511

> <Gold.Chemscore.ZeroCoef>
-5.4800

> <Gold.Chemscore.Hbond>
2.3209

> <Gold.Chemscore.Metal>
0.0000

> <Gold.Chemscore.Lipo>
123.0262

> <Gold.Chemscore.Internal_Hbond>
0.0000

> <Gold.Chemscore.DEClash>
0.0400

> <Gold.Chemscore.DEInternal>
4.6481

> <Gold.Chemscore.Rot>
2.7245

> <Gold.Chemscore.Internal.Correction>
   9.000000E+99

> <Gold.Chemscore.Hbonds>
donor molecule, donor type, donor heavy atom, donor atom, acceptor molecule, acceptor atom, score
      L1  H    15    49       P1  8028  0.90
      P1  H  6896  6907       L1    25  0.44
      P1  H  6934  6947       L1     5  0.19

> <Gold.Chemscore.Hbond.Weighted>
-7.7519

> <Gold.Chemscore.Metal.Weighted>
-0.0000

> <Gold.Chemscore.Lipo.Weighted>
-14.3941

> <Gold.Chemscore.Internal_Hbond.Weighted>
0.0000

> <Gold.Chemscore.DEClash.Weighted>
0.0400

> <Gold.Chemscore.DEInternal.Weighted>
4.6481

> <Gold.Chemscore.Rot.Weighted>
6.9748

> <Gold.Chemscore.Internal.Correction.Weighted>
   9.000000E+99

> <Gold.Protein.RotatedTorsions>
[ 6907 6896 6895 6894 ] final  -87.76 input  -60.11 | X-H torsion
[ 7974 7965 7964 7962 ] final   -9.74 input  175.53 | X-H torsion
[ 8008 7997 7996 7995 ] final -146.81 input   59.86 | X-H torsion
[ 10167 10162 10161 10158 ] final   64.79 input  -65.29 | X-H torsion
[ 10718 10713 10712 10709 ] final -148.66 input   66.30 | X-H torsion
[ 10763 10752 10751 10750 ] final  -22.49 input  -60.55 | X-H torsion
[ 11005 11000 10999 10996 ] final  106.93 input  -57.11 | X-H torsion

> <Gold.Protein.ActiveResidues>
 VAL166  LYS551  ARG553  GLY616  TRP617  ASP618  TYR619  PRO620  LYS621  CYS622 
 ASP623  PHE694  ASN695  SER759  ASP760  ASP761  ALA762  ILE779  LEU786  VAL792 
 PHE793  MET794  SER795  GLU796  ALA797  LYS798  CYS799  TRP800  GLU811  SER814 

> <Gold.Protein.RotatedAtoms>
  150.6867  134.2846  159.4641 H   0  0  0  0  0  0  0  0  0  0  0  0  # atno 6907 bound_to 6896
  152.0757  134.9502  160.0583 H   0  0  0  0  0  0  0  0  0  0  0  0  # atno 6908 bound_to 6896
  152.0874  133.4148  159.4565 H   0  0  0  0  0  0  0  0  0  0  0  0  # atno 6909 bound_to 6896
  146.2242  140.2660  142.8354 H   0  0  0  0  0  0  0  0  0  0  0  0  # atno 7974 bound_to 7965
  155.5654  140.0629  157.2819 H   0  0  0  0  0  0  0  0  0  0  0  0  # atno 8008 bound_to 7997
  154.4377  140.1878  156.0871 H   0  0  0  0  0  0  0  0  0  0  0  0  # atno 8009 bound_to 7997
  156.0416  140.3295  155.7253 H   0  0  0  0  0  0  0  0  0  0  0  0  # atno 8010 bound_to 7997
  140.1183  144.4755  150.6936 H   0  0  0  0  0  0  0  0  0  0  0  0  # atno 10167 bound_to 10162
  156.4231  130.8038  151.2262 H   0  0  0  0  0  0  0  0  0  0  0  0  # atno 10718 bound_to 10713
  153.6527  135.6980  153.5203 H   0  0  0  0  0  0  0  0  0  0  0  0  # atno 10763 bound_to 10752
  153.2694  135.4220  155.0972 H   0  0  0  0  0  0  0  0  0  0  0  0  # atno 10764 bound_to 10752
  154.8472  135.3574  154.6072 H   0  0  0  0  0  0  0  0  0  0  0  0  # atno 10765 bound_to 10752
  139.8821  134.9385  156.5742 H   0  0  0  0  0  0  0  0  0  0  0  0  # atno 11005 bound_to 11000
  144.9303  140.7968  143.5693 LP  0  0  0  0  0  0  0  0  0  0  0  0  # atno 17320 bound_to 7965
  145.2603  139.1995  143.4895 LP  0  0  0  0  0  0  0  0  0  0  0  0  # atno 17321 bound_to 7965
  140.6886  143.2363  151.5191 LP  0  0  0  0  0  0  0  0  0  0  0  0  # atno 17342 bound_to 10162
  139.5582  144.2222  152.1648 LP  0  0  0  0  0  0  0  0  0  0  0  0  # atno 17343 bound_to 10162
  157.7508  131.0222  150.3781 LP  0  0  0  0  0  0  0  0  0  0  0  0  # atno 17370 bound_to 10713
  156.4103  130.3933  149.6896 LP  0  0  0  0  0  0  0  0  0  0  0  0  # atno 17371 bound_to 10713
  140.8076  133.8455  155.8781 LP  0  0  0  0  0  0  0  0  0  0  0  0  # atno 17394 bound_to 11000
  140.9536  134.1747  157.4709 LP  0  0  0  0  0  0  0  0  0  0  0  0  # atno 17395 bound_to 11000

$$$$
