AV-unprocessed.smi:1828|AV-procd|sdf|7425|dock7
  -GOLD-   22720 9103D 1   1.00000     0.00000
 Structure written by MMmdl.
 39 41  0  0  0  0  0  0  0  0  1 V2000
  151.1536  136.8532  158.8577 O   0  0  0  0  0  0  0  0  0  0  0  0
  152.3453  137.5219  158.5018 C   0  0  0  0  0  0  0  0  0  0  0  0
  152.3332  138.9740  158.8865 C   0  0  0  0  0  0  0  0  0  0  0  0
  153.1532  139.4406  159.8302 N   0  0  0  0  0  0  0  0  0  0  0  0
  152.8247  140.7791  159.8914 C   0  0  0  0  0  0  0  0  0  0  0  0
  153.3373  141.8145  160.7052 C   0  0  0  0  0  0  0  0  0  0  0  0
  152.8364  143.1276  160.5895 C   0  0  0  0  0  0  0  0  0  0  0  0
  151.8179  143.4233  159.6606 C   0  0  0  0  0  0  0  0  0  0  0  0
  151.2941  142.4060  158.8399 C   0  0  0  0  0  0  0  0  0  0  0  0
  151.7984  141.0967  158.9589 C   0  0  0  0  0  0  0  0  0  0  0  0
  151.5083  139.8951  158.3189 N   0  0  0  0  0  0  0  0  0  0  0  0
  150.5085  139.7233  157.2710 C   0  0  0  0  0  0  0  0  0  0  0  0
  150.6087  140.8089  156.1803 C   0  0  1  0  0  0  0  0  0  0  0  0
  151.5416  140.3780  155.2104 O   0  0  0  0  0  0  0  0  0  0  0  0
  149.2563  141.1564  155.5728 C   0  0  0  0  0  0  0  0  0  0  0  0
  149.0412  141.0657  154.1801 C   0  0  0  0  0  0  0  0  0  0  0  0
  147.7784  141.3699  153.6379 C   0  0  0  0  0  0  0  0  0  0  0  0
  146.7222  141.7591  154.4834 C   0  0  0  0  0  0  0  0  0  0  0  0
  146.9212  141.8439  155.8783 C   0  0  0  0  0  0  0  0  0  0  0  0
  145.7828  142.2597  156.7976 C   0  0  0  0  0  0  0  0  0  0  0  0
  145.1699  143.3466  156.3269 F   0  0  0  0  0  0  0  0  0  0  0  0
  144.8976  141.2669  156.8749 F   0  0  0  0  0  0  0  0  0  0  0  0
  146.2306  142.5320  158.0238 F   0  0  0  0  0  0  0  0  0  0  0  0
  148.1937  141.5506  156.4140 C   0  0  0  0  0  0  0  0  0  0  0  0
  150.4229  137.3260  158.4902 H   0  0  0  0  0  0  0  0  0  0  0  0
  153.1846  137.0359  158.9994 H   0  0  0  0  0  0  0  0  0  0  0  0
  152.4905  137.3868  157.4332 H   0  0  0  0  0  0  0  0  0  0  0  0
  154.1165  141.5972  161.4205 H   0  0  0  0  0  0  0  0  0  0  0  0
  153.2351  143.9113  161.2170 H   0  0  0  0  0  0  0  0  0  0  0  0
  151.4392  144.4318  159.5785 H   0  0  0  0  0  0  0  0  0  0  0  0
  150.5132  142.6294  158.1283 H   0  0  0  0  0  0  0  0  0  0  0  0
  150.6744  138.7428  156.8226 H   0  0  0  0  0  0  0  0  0  0  0  0
  149.5087  139.6767  157.7000 H   0  0  0  0  0  0  0  0  0  0  0  0
  151.0282  141.7141  156.6216 H   0  0  0  0  0  0  0  0  0  0  0  0
  151.5063  139.4349  155.1599 H   0  0  0  0  0  0  0  0  0  0  0  0
  149.8407  140.7567  153.5229 H   0  0  0  0  0  0  0  0  0  0  0  0
  147.6180  141.3011  152.5722 H   0  0  0  0  0  0  0  0  0  0  0  0
  145.7581  141.9898  154.0550 H   0  0  0  0  0  0  0  0  0  0  0  0
  148.3534  141.6146  157.4804 H   0  0  0  0  0  0  0  0  0  0  0  0
  1  2  1  0  0  0  0
  1 25  1  0  0  0  0
  2  3  1  0  0  0  0
  2 26  1  0  0  0  0
  2 27  1  0  0  0  0
  3 11  1  0  0  0  0
  3  4  2  0  0  0  0
  4  5  1  0  0  0  0
  5 10  2  0  0  0  0
  5  6  1  0  0  0  0
  6  7  2  0  0  0  0
  6 28  1  0  0  0  0
  7  8  1  0  0  0  0
  7 29  1  0  0  0  0
  8  9  2  0  0  0  0
  8 30  1  0  0  0  0
  9 10  1  0  0  0  0
  9 31  1  0  0  0  0
 10 11  1  0  0  0  0
 11 12  1  0  0  0  0
 12 13  1  0  0  0  0
 12 32  1  0  0  0  0
 12 33  1  0  0  0  0
 13 14  1  0  0  0  0
 13 15  1  0  0  0  0
 13 34  1  0  0  0  0
 14 35  1  0  0  0  0
 15 24  1  0  0  0  0
 15 16  2  0  0  0  0
 16 17  1  0  0  0  0
 16 36  1  0  0  0  0
 17 18  2  0  0  0  0
 17 37  1  0  0  0  0
 18 19  1  0  0  0  0
 18 38  1  0  0  0  0
 19 20  1  0  0  0  0
 19 24  2  0  0  0  0
 20 21  1  0  0  0  0
 20 22  1  0  0  0  0
 20 23  1  0  0  0  0
 24 39  1  0  0  0  0
M  END
> <s_m_source_file>
AV-unprocessed.smi

> <i_m_source_file_index>
1828

> <i_lp_mmshare_version>
43012

> <i_f3d_flags>
0

> <s_epik_input>
W2NIXTFbY0hdW2NIXVtjSF1jKGMxMiluKGMobjIpW0NIMl1bT0hdKVtDSDJdW0NASF0oW09IXSljM1tjSF1bY0hdW2NIXWMoQyhGKShGKUYpW2NIXTM=

> <s_epik_cmdline>
J2VwaWtfcHl0aG9uJywgJy1waCcsICc3LjAnLCAnLXRuJywgJzgnLCAnLW1hJywgJzIwMCcsICctbWV0YWxfYmluZGluZycsICctaW1hZScsICc8aW5maWxlLm1hZT4nLCAnLW9tYWUnLCAnPG91dGZpbGUubWFlPic=

> <r_epik_Ionization_Penalty>
0.0634719

> <r_epik_Ionization_Penalty_Charging>
0

> <r_epik_Ionization_Penalty_Neutral>
0.0634719

> <r_epik_State_Penalty>
0.0551572

> <r_epik_Charging_Adjusted_Penalty>
0.0551572

> <i_epik_Tot_Q>
0

> <i_epik_Tot_abs_Q>
0

> <r_epik_Metal_State_Penalty>
5.78034e-05

> <b_epik_Metal_Only>
0

> <s_lp_Force_Field>
OPLS_2005

> <r_lp_Energy>
14.211

> <b_lp_Chiralities_Consistent>
1

> <s_lp_Variant>
AV-unprocessed.smi:1828-2

> <Gold.Version>
5.8.1

> <Gold.Id.Protein>
6NUR|6NUR_protein|mol2

> <Gold.PLP.Fitness>
48.8543

> <Gold.PLP.PLP>
-44.6865

> <Gold.PLP.part.hbond>
-2.0000

> <Gold.PLP.part.metal>
0.0000

> <Gold.PLP.part.buried>
-6.4029

> <Gold.PLP.part.nonpolar>
-36.4109

> <Gold.PLP.part.repulsive>
0.0000

> <Gold.PLP.ligand.clash>
1.0197

> <Gold.PLP.ligand.torsion>
0.9844

> <Gold.PLP.Chemscore.Hbond>
1.9920

> <Gold.PLP.Chemscore.CHOScore>
0.0000

> <Gold.PLP.Chemscore.Metal>
0.0000

> <Gold.Chemscore.Hbonds>
donor molecule, donor type, donor heavy atom, donor atom, acceptor molecule, acceptor atom, score
      P1  H  6896  6909       L1     1  0.99
      P1  H  7989  7998       L1    14  0.90

> <Gold.PLP.Chemscore.Internal.Correction>
1.1803

> <Gold.Rescore>
     Score         DG    S(hbond)    S(metal)    S(lipo)     H(rot)  DE(clash)    DE(int)     intcor
     16.28     -16.89       1.85        0.00     108.42       2.91       0.06       0.55       ----

> <Gold.Chemscore.Fitness>
16.2825

> <Gold.Chemscore.DG>
-16.8884

> <Gold.Chemscore.ZeroCoef>
-5.4800

> <Gold.Chemscore.Hbond>
1.8514

> <Gold.Chemscore.Metal>
0.0000

> <Gold.Chemscore.Lipo>
108.4182

> <Gold.Chemscore.Internal_Hbond>
0.0000

> <Gold.Chemscore.DEClash>
0.0557

> <Gold.Chemscore.DEInternal>
0.5503

> <Gold.Chemscore.Rot>
2.9141

> <Gold.Chemscore.Internal.Correction>
   9.000000E+99

> <Gold.Chemscore.Hbonds>
donor molecule, donor type, donor heavy atom, donor atom, acceptor molecule, acceptor atom, score
      P1  H  6896  6909       L1     1  0.87
      P1  H  7989  7998       L1    14  0.39

> <Gold.Chemscore.Hbond.Weighted>
-6.1835

> <Gold.Chemscore.Metal.Weighted>
-0.0000

> <Gold.Chemscore.Lipo.Weighted>
-12.6849

> <Gold.Chemscore.Internal_Hbond.Weighted>
0.0000

> <Gold.Chemscore.DEClash.Weighted>
0.0557

> <Gold.Chemscore.DEInternal.Weighted>
0.5503

> <Gold.Chemscore.Rot.Weighted>
7.4600

> <Gold.Chemscore.Internal.Correction.Weighted>
   9.000000E+99

> <Gold.Protein.RotatedTorsions>
[ 6907 6896 6895 6894 ] final  100.30 input  -60.11 | X-H torsion
[ 7974 7965 7964 7962 ] final   62.10 input  175.53 | X-H torsion
[ 8008 7997 7996 7995 ] final  -28.80 input   59.86 | X-H torsion
[ 10167 10162 10161 10158 ] final -143.05 input  -65.29 | X-H torsion
[ 10718 10713 10712 10709 ] final   -9.24 input   66.30 | X-H torsion
[ 10763 10752 10751 10750 ] final   54.78 input  -60.55 | X-H torsion
[ 11005 11000 10999 10996 ] final  167.45 input  -57.11 | X-H torsion

> <Gold.Protein.ActiveResidues>
 VAL166  LYS551  ARG553  GLY616  TRP617  ASP618  TYR619  PRO620  LYS621  CYS622 
 ASP623  PHE694  ASN695  SER759  ASP760  ASP761  ALA762  ILE779  LEU786  VAL792 
 PHE793  MET794  SER795  GLU796  ALA797  LYS798  CYS799  TRP800  GLU811  SER814 

> <Gold.Protein.RotatedAtoms>
  152.5375  134.0297  159.8018 H   0  0  0  0  0  0  0  0  0  0  0  0  # atno 6907 bound_to 6896
  151.0470  133.5649  159.2653 H   0  0  0  0  0  0  0  0  0  0  0  0  # atno 6908 bound_to 6896
  151.2598  135.0657  159.9147 H   0  0  0  0  0  0  0  0  0  0  0  0  # atno 6909 bound_to 6896
  145.8772  139.3418  143.0727 H   0  0  0  0  0  0  0  0  0  0  0  0  # atno 7974 bound_to 7965
  154.4317  140.1835  156.1147 H   0  0  0  0  0  0  0  0  0  0  0  0  # atno 8008 bound_to 7997
  156.0190  140.3343  155.6994 H   0  0  0  0  0  0  0  0  0  0  0  0  # atno 8009 bound_to 7997
  155.6003  140.0639  157.2725 H   0  0  0  0  0  0  0  0  0  0  0  0  # atno 8010 bound_to 7997
  139.8030  143.7807  152.2659 H   0  0  0  0  0  0  0  0  0  0  0  0  # atno 10167 bound_to 10162
  156.6909  130.5065  149.5944 H   0  0  0  0  0  0  0  0  0  0  0  0  # atno 10718 bound_to 10713
  152.9808  135.5733  154.4960 H   0  0  0  0  0  0  0  0  0  0  0  0  # atno 10763 bound_to 10752
  154.4487  135.2778  155.1799 H   0  0  0  0  0  0  0  0  0  0  0  0  # atno 10764 bound_to 10752
  154.3436  135.6224  153.5662 H   0  0  0  0  0  0  0  0  0  0  0  0  # atno 10765 bound_to 10752
  140.2770  134.7781  157.3725 H   0  0  0  0  0  0  0  0  0  0  0  0  # atno 11005 bound_to 11000
  145.9066  140.9207  143.0475 LP  0  0  0  0  0  0  0  0  0  0  0  0  # atno 17320 bound_to 7965
  144.6726  140.1104  143.7455 LP  0  0  0  0  0  0  0  0  0  0  0  0  # atno 17321 bound_to 7965
  139.7933  144.7402  150.9925 LP  0  0  0  0  0  0  0  0  0  0  0  0  # atno 17342 bound_to 10162
  140.7820  143.4420  151.0538 LP  0  0  0  0  0  0  0  0  0  0  0  0  # atno 17343 bound_to 10162
  156.1798  130.6491  151.0938 LP  0  0  0  0  0  0  0  0  0  0  0  0  # atno 17370 bound_to 10713
  157.7009  131.0776  150.6823 LP  0  0  0  0  0  0  0  0  0  0  0  0  # atno 17371 bound_to 10713
  140.1319  134.5084  155.8099 LP  0  0  0  0  0  0  0  0  0  0  0  0  # atno 17394 bound_to 11000
  141.2169  133.6793  156.7055 LP  0  0  0  0  0  0  0  0  0  0  0  0  # atno 17395 bound_to 11000

$$$$
