AV-unprocessed.smi:334|AV-procd|sdf|2363|dock9
  -GOLD-   2262022273D 1   1.00000     0.00000
 Structure written by MMmdl.
 44 46  0  0  0  0  0  0  0  0  3 V2000
  146.5400  134.8219  154.6364 C   0  0  0  0  0  0  0  0  0  0  0  0
  145.9860  135.4711  153.3572 C   0  0  1  0  0  0  0  0  0  0  0  0
  146.7502  136.6894  153.0927 N   0  0  0  0  0  0  0  0  0  0  0  0
  146.4179  137.9299  153.4822 C   0  0  0  0  0  0  0  0  0  0  0  0
  145.4290  138.1860  154.1699 O   0  0  0  0  0  0  0  0  0  0  0  0
  147.3589  139.0526  153.0264 C   0  0  0  0  0  0  0  0  0  0  0  0
  148.3379  139.4266  154.0605 N   0  0  0  0  0  0  0  0  0  0  0  0
  149.6467  138.9241  153.9192 C   0  0  0  0  0  0  0  0  0  0  0  0
  150.6185  139.1971  154.8117 C   0  0  0  0  0  0  0  0  0  0  0  0
  151.9554  138.6677  154.6543 N   0  3  0  0  0  0  0  0  0  0  0  0
  152.9087  139.3776  154.9584 O   0  0  0  0  0  0  0  0  0  0  0  0
  152.0978  137.5278  154.2217 O   0  5  0  0  0  0  0  0  0  0  0  0
  150.2782  140.0388  155.9426 C   0  0  0  0  0  0  0  0  0  0  0  0
  149.0276  140.5197  156.0854 C   0  0  0  0  0  0  0  0  0  0  0  0
  147.9707  140.2187  155.1145 C   0  0  0  0  0  0  0  0  0  0  0  0
  146.8250  140.6518  155.2410 O   0  0  0  0  0  0  0  0  0  0  0  0
  146.0582  134.5367  152.1233 C   0  0  2  0  0  0  0  0  0  0  0  0
  145.4024  135.1289  150.8488 C   0  0  0  0  0  0  0  0  0  0  0  0
  144.4205  134.0295  150.4097 C   0  0  1  0  0  0  0  0  0  0  0  0
  145.2047  132.8066  149.9006 C   0  0  0  0  0  0  0  0  0  0  0  0
  145.7834  132.2133  151.1984 C   0  0  0  0  0  0  0  0  0  0  0  0
  145.2892  133.1994  152.2742 C   0  0  2  0  0  0  0  0  0  0  0  0
  143.8965  133.5388  151.7518 C   0  0  0  0  0  0  0  0  0  0  0  0
  145.9562  133.9529  154.9368 H   0  0  0  0  0  0  0  0  0  0  0  0
  146.5168  135.5242  155.4705 H   0  0  0  0  0  0  0  0  0  0  0  0
  147.5732  134.4991  154.5039 H   0  0  0  0  0  0  0  0  0  0  0  0
  144.9395  135.7198  153.5395 H   0  0  0  0  0  0  0  0  0  0  0  0
  147.5862  136.5822  152.5366 H   0  0  0  0  0  0  0  0  0  0  0  0
  147.8606  138.7239  152.1156 H   0  0  0  0  0  0  0  0  0  0  0  0
  146.7776  139.9288  152.7321 H   0  0  0  0  0  0  0  0  0  0  0  0
  149.7976  138.3029  153.0483 H   0  0  0  0  0  0  0  0  0  0  0  0
  151.0230  140.2884  156.6839 H   0  0  0  0  0  0  0  0  0  0  0  0
  148.7956  141.1433  156.9363 H   0  0  0  0  0  0  0  0  0  0  0  0
  147.1109  134.3296  151.9228 H   0  0  0  0  0  0  0  0  0  0  0  0
  144.8486  136.0429  151.0668 H   0  0  0  0  0  0  0  0  0  0  0  0
  146.1351  135.3664  150.0769 H   0  0  0  0  0  0  0  0  0  0  0  0
  143.6555  134.3794  149.7160 H   0  0  0  0  0  0  0  0  0  0  0  0
  144.5394  132.0912  149.4153 H   0  0  0  0  0  0  0  0  0  0  0  0
  145.9806  133.0822  149.1856 H   0  0  0  0  0  0  0  0  0  0  0  0
  145.3783  131.2161  151.3752 H   0  0  0  0  0  0  0  0  0  0  0  0
  146.8705  132.1297  151.1727 H   0  0  0  0  0  0  0  0  0  0  0  0
  145.3059  132.7715  153.2756 H   0  0  0  0  0  0  0  0  0  0  0  0
  143.3885  134.3131  152.3289 H   0  0  0  0  0  0  0  0  0  0  0  0
  143.2418  132.6696  151.6680 H   0  0  0  0  0  0  0  0  0  0  0  0
  1  2  1  0  0  0  0
  1 24  1  0  0  0  0
  1 25  1  0  0  0  0
  1 26  1  0  0  0  0
  2  3  1  0  0  0  0
  2 17  1  0  0  0  0
  2 27  1  0  0  0  0
  3  4  1  0  0  0  0
  3 28  1  0  0  0  0
  4  5  2  0  0  0  0
  4  6  1  0  0  0  0
  6  7  1  0  0  0  0
  6 29  1  0  0  0  0
  6 30  1  0  0  0  0
  7 15  1  0  0  0  0
  7  8  1  0  0  0  0
  8  9  2  0  0  0  0
  8 31  1  0  0  0  0
  9 10  1  0  0  0  0
  9 13  1  0  0  0  0
 10 11  2  0  0  0  0
 10 12  1  0  0  0  0
 13 14  2  0  0  0  0
 13 32  1  0  0  0  0
 14 15  1  0  0  0  0
 14 33  1  0  0  0  0
 15 16  2  0  0  0  0
 17 22  1  0  0  0  0
 17 18  1  0  0  0  0
 17 34  1  0  0  0  0
 18 19  1  0  0  0  0
 18 35  1  0  0  0  0
 18 36  1  0  0  0  0
 19 23  1  0  0  0  0
 19 20  1  0  0  0  0
 19 37  1  0  0  0  0
 20 21  1  0  0  0  0
 20 38  1  0  0  0  0
 20 39  1  0  0  0  0
 21 22  1  0  0  0  0
 21 40  1  0  0  0  0
 21 41  1  0  0  0  0
 22 23  1  0  0  0  0
 22 42  1  0  0  0  0
 23 43  1  0  0  0  0
 23 44  1  0  0  0  0
M  CHG  1  10   1
M  CHG  1  12  -1
M  END
> <s_m_source_file>
AV-unprocessed.smi

> <i_m_source_file_index>
334

> <i_lp_mmshare_version>
43012

> <i_f3d_flags>
0

> <s_epik_input>
W0NIMl0xW0NIMl1bQ0BIXShbQ0gyXTIpW0NAQEhdKFtDSDJdW0NAQEhdMTIpW0NASF0oW0NIM10pW05IXUMoPU8pW0NIMl1uM1tjSF1jKFtOK10oPU8pW08tXSlbY0hdW2NIXWMzPU8=

> <s_epik_cmdline>
J2VwaWtfcHl0aG9uJywgJy1waCcsICc3LjAnLCAnLXRuJywgJzgnLCAnLW1hJywgJzIwMCcsICctbWV0YWxfYmluZGluZycsICctaW1hZScsICc8aW5maWxlLm1hZT4nLCAnLW9tYWUnLCAnPG91dGZpbGUubWFlPic=

> <r_lp_tautomer_probability>
1

> <r_epik_Ionization_Penalty>
2.17081e-08

> <r_epik_Ionization_Penalty_Charging>
8.1195e-11

> <r_epik_Ionization_Penalty_Neutral>
2.16269e-08

> <r_epik_State_Penalty>
-0

> <r_epik_Charging_Adjusted_Penalty>
8.1195e-11

> <i_epik_Tot_Q>
0

> <i_epik_Tot_abs_Q>
2

> <r_epik_Metal_State_Penalty>
-0

> <b_epik_Metal_Only>
0

> <s_lp_Force_Field>
OPLS_2005

> <r_lp_Energy>
62.172

> <b_lp_Chiralities_Consistent>
1

> <s_lp_Variant>
AV-unprocessed.smi:334-2

> <Gold.Version>
5.8.1

> <Gold.Id.Protein>
6NUR|6NUR_protein|mol2

> <Gold.PLP.Fitness>
45.2921

> <Gold.PLP.PLP>
-35.3158

> <Gold.PLP.part.hbond>
-3.8982

> <Gold.PLP.part.metal>
0.0000

> <Gold.PLP.part.buried>
-3.3688

> <Gold.PLP.part.nonpolar>
-29.1348

> <Gold.PLP.part.repulsive>
0.3628

> <Gold.PLP.ligand.clash>
0.0000

> <Gold.PLP.ligand.torsion>
1.4861

> <Gold.PLP.Chemscore.Hbond>
2.8640

> <Gold.PLP.Chemscore.CHOScore>
1.4450

> <Gold.PLP.Chemscore.Metal>
0.0000

> <Gold.Chemscore.Hbonds>
donor molecule, donor type, donor heavy atom, donor atom, acceptor molecule, acceptor atom, score
      L1  H     3    28       P1  7948  1.00
      P1  H  7997  8010       L1    11  1.00
      P1  H 10752 10765       L1    12  0.86
      L1  C     8    31       P1  7948  1.00
      L1  C     8    31       P1  7957  0.42

> <Gold.PLP.Chemscore.Internal.Correction>
0.0214

> <Gold.Rescore>
     Score         DG    S(hbond)    S(metal)    S(lipo)     H(rot)  DE(clash)    DE(int)     intcor
     18.01     -19.31       2.86        0.00      74.83       1.75       0.04       1.27       ----

> <Gold.Chemscore.Fitness>
18.0054

> <Gold.Chemscore.DG>
-19.3136

> <Gold.Chemscore.ZeroCoef>
-5.4800

> <Gold.Chemscore.Hbond>
2.8599

> <Gold.Chemscore.Metal>
0.0000

> <Gold.Chemscore.Lipo>
74.8288

> <Gold.Chemscore.Internal_Hbond>
0.0000

> <Gold.Chemscore.DEClash>
0.0375

> <Gold.Chemscore.DEInternal>
1.2707

> <Gold.Chemscore.Rot>
1.7474

> <Gold.Chemscore.Internal.Correction>
   9.000000E+99

> <Gold.Chemscore.Hbonds>
donor molecule, donor type, donor heavy atom, donor atom, acceptor molecule, acceptor atom, score
      L1  H     3    28       P1  7948  0.96
      P1  H  7997  8010       L1    11  0.98
      P1  H 10752 10765       L1    12  0.79

> <Gold.Chemscore.Hbond.Weighted>
-9.5520

> <Gold.Chemscore.Metal.Weighted>
-0.0000

> <Gold.Chemscore.Lipo.Weighted>
-8.7550

> <Gold.Chemscore.Internal_Hbond.Weighted>
0.0000

> <Gold.Chemscore.DEClash.Weighted>
0.0375

> <Gold.Chemscore.DEInternal.Weighted>
1.2707

> <Gold.Chemscore.Rot.Weighted>
4.4733

> <Gold.Chemscore.Internal.Correction.Weighted>
   9.000000E+99

> <Gold.Protein.RotatedTorsions>
[ 6907 6896 6895 6894 ] final   56.79 input  -60.11 | X-H torsion
[ 7974 7965 7964 7962 ] final   78.96 input  175.53 | X-H torsion
[ 8008 7997 7996 7995 ] final  102.31 input   59.86 | X-H torsion
[ 10167 10162 10161 10158 ] final   -8.74 input  -65.29 | X-H torsion
[ 10718 10713 10712 10709 ] final  -95.96 input   66.30 | X-H torsion
[ 10763 10752 10751 10750 ] final  155.52 input  -60.55 | X-H torsion
[ 11005 11000 10999 10996 ] final  142.79 input  -57.11 | X-H torsion

> <Gold.Protein.ActiveResidues>
 VAL166  LYS551  ARG553  GLY616  TRP617  ASP618  TYR619  PRO620  LYS621  CYS622 
 ASP623  PHE694  ASN695  SER759  ASP760  ASP761  ALA762  ILE779  LEU786  VAL792 
 PHE793  MET794  SER795  GLU796  ALA797  LYS798  CYS799  TRP800  GLU811  SER814 

> <Gold.Protein.RotatedAtoms>
  152.3670  134.6790  160.0188 H   0  0  0  0  0  0  0  0  0  0  0  0  # atno 6907 bound_to 6896
  151.7095  133.3306  159.3295 H   0  0  0  0  0  0  0  0  0  0  0  0  # atno 6908 bound_to 6896
  150.7645  134.6479  159.6317 H   0  0  0  0  0  0  0  0  0  0  0  0  # atno 6909 bound_to 6896
  145.6703  139.2495  143.1872 H   0  0  0  0  0  0  0  0  0  0  0  0  # atno 7974 bound_to 7965
  156.1381  140.3183  155.8452 H   0  0  0  0  0  0  0  0  0  0  0  0  # atno 8008 bound_to 7997
  155.4207  140.0512  157.3043 H   0  0  0  0  0  0  0  0  0  0  0  0  # atno 8009 bound_to 7997
  154.4953  140.2108  155.9473 H   0  0  0  0  0  0  0  0  0  0  0  0  # atno 8010 bound_to 7997
  140.7067  143.5935  150.8869 H   0  0  0  0  0  0  0  0  0  0  0  0  # atno 10167 bound_to 10162
  156.0053  130.5131  150.6155 H   0  0  0  0  0  0  0  0  0  0  0  0  # atno 10718 bound_to 10713
  154.1697  135.2805  155.3084 H   0  0  0  0  0  0  0  0  0  0  0  0  # atno 10763 bound_to 10752
  154.6085  135.5506  153.7451 H   0  0  0  0  0  0  0  0  0  0  0  0  # atno 10764 bound_to 10752
  153.0168  135.6409  154.1837 H   0  0  0  0  0  0  0  0  0  0  0  0  # atno 10765 bound_to 10752
  140.0504  134.9259  157.1005 H   0  0  0  0  0  0  0  0  0  0  0  0  # atno 11005 bound_to 11000
  146.1051  140.7497  142.9530 LP  0  0  0  0  0  0  0  0  0  0  0  0  # atno 17320 bound_to 7965
  144.7059  140.3848  143.7119 LP  0  0  0  0  0  0  0  0  0  0  0  0  # atno 17321 bound_to 7965
  139.9661  143.6109  152.2988 LP  0  0  0  0  0  0  0  0  0  0  0  0  # atno 17342 bound_to 10162
  139.6679  144.7662  151.1838 LP  0  0  0  0  0  0  0  0  0  0  0  0  # atno 17343 bound_to 10162
  157.3980  131.0805  151.1335 LP  0  0  0  0  0  0  0  0  0  0  0  0  # atno 17370 bound_to 10713
  157.2005  130.6392  149.5737 LP  0  0  0  0  0  0  0  0  0  0  0  0  # atno 17371 bound_to 10713
  140.3927  134.2167  155.7165 LP  0  0  0  0  0  0  0  0  0  0  0  0  # atno 17394 bound_to 11000
  141.1927  133.8167  157.0828 LP  0  0  0  0  0  0  0  0  0  0  0  0  # atno 17395 bound_to 11000

$$$$
