AV-unprocessed.smi:2221|AV-procd|sdf|8982|dock3
  -GOLD-   2272012193D 1   1.00000     0.00000
 Structure written by MMmdl.
 53 54  0  0  0  0  0  0  0  0  2 V2000
  151.9788  145.7628  160.3799 C   0  0  0  0  0  0  0  0  0  0  0  0
  152.0183  144.4361  159.6510 C   0  0  0  0  0  0  0  0  0  0  0  0
  152.8826  143.4104  160.0783 C   0  0  0  0  0  0  0  0  0  0  0  0
  152.8808  142.1978  159.3620 C   0  0  0  0  0  0  0  0  0  0  0  0
  153.7820  141.0521  159.7720 C   0  0  0  0  0  0  0  0  0  0  0  0
  152.0901  141.9766  158.2904 N   0  0  0  0  0  0  0  0  0  0  0  0
  151.2547  142.9578  157.8680 C   0  0  0  0  0  0  0  0  0  0  0  0
  150.3865  142.8265  156.7517 N   0  0  0  0  0  0  0  0  0  0  0  0
  150.1043  141.7179  156.0446 C   0  0  0  0  0  0  0  0  0  0  0  0
  150.5685  140.5975  156.2590 O   0  0  0  0  0  0  0  0  0  0  0  0
  149.2406  141.9808  155.0532 N   0  0  0  0  0  0  0  0  0  0  0  0
  148.7367  140.9977  154.1023 C   0  0  0  0  0  0  0  0  0  0  0  0
  147.2011  140.8875  154.1769 C   0  0  0  0  0  0  0  0  0  0  0  0
  146.5797  142.1271  154.6425 N   0  0  0  0  0  0  0  0  0  0  0  0
  145.5161  141.7912  155.5933 C   0  0  0  0  0  0  0  0  0  0  0  0
  144.9022  143.0702  156.1886 C   0  0  0  0  0  0  0  0  0  0  0  0
  144.3257  143.9615  155.0707 C   0  0  0  0  0  0  0  0  0  0  0  0
  143.7019  145.2277  155.5542 N   0  3  0  0  0  0  0  0  0  0  0  0
  142.7210  145.0757  156.6563 C   0  0  0  0  0  0  0  0  0  0  0  0
  143.1673  146.0646  154.4557 C   0  0  0  0  0  0  0  0  0  0  0  0
  145.4198  144.2161  154.0196 C   0  0  0  0  0  0  0  0  0  0  0  0
  146.0164  142.8878  153.5213 C   0  0  0  0  0  0  0  0  0  0  0  0
  151.1950  144.2049  158.5300 C   0  0  0  0  0  0  0  0  0  0  0  0
  152.1157  145.6174  161.4519 H   0  0  0  0  0  0  0  0  0  0  0  0
  151.0233  146.2648  160.2259 H   0  0  0  0  0  0  0  0  0  0  0  0
  152.7728  146.4154  160.0172 H   0  0  0  0  0  0  0  0  0  0  0  0
  153.5287  143.5498  160.9327 H   0  0  0  0  0  0  0  0  0  0  0  0
  154.6171  141.4078  160.3762 H   0  0  0  0  0  0  0  0  0  0  0  0
  154.1904  140.5485  158.8949 H   0  0  0  0  0  0  0  0  0  0  0  0
  153.2208  140.3230  160.3568 H   0  0  0  0  0  0  0  0  0  0  0  0
  149.9290  143.6759  156.4562 H   0  0  0  0  0  0  0  0  0  0  0  0
  148.9080  142.9282  154.9481 H   0  0  0  0  0  0  0  0  0  0  0  0
  149.0546  141.2598  153.0914 H   0  0  0  0  0  0  0  0  0  0  0  0
  149.2124  140.0481  154.3428 H   0  0  0  0  0  0  0  0  0  0  0  0
  146.7846  140.5916  153.2125 H   0  0  0  0  0  0  0  0  0  0  0  0
  146.9550  140.0892  154.8790 H   0  0  0  0  0  0  0  0  0  0  0  0
  144.7480  141.1905  155.1032 H   0  0  0  0  0  0  0  0  0  0  0  0
  145.9256  141.1862  156.4033 H   0  0  0  0  0  0  0  0  0  0  0  0
  144.1244  142.8004  156.9030 H   0  0  0  0  0  0  0  0  0  0  0  0
  145.6742  143.5975  156.7497 H   0  0  0  0  0  0  0  0  0  0  0  0
  143.5423  143.3946  154.5647 H   0  0  0  0  0  0  0  0  0  0  0  0
  141.8083  144.5860  156.3151 H   0  0  0  0  0  0  0  0  0  0  0  0
  142.4420  146.0549  157.0469 H   0  0  0  0  0  0  0  0  0  0  0  0
  143.1297  144.5028  157.4879 H   0  0  0  0  0  0  0  0  0  0  0  0
  142.3224  145.5811  153.9641 H   0  0  0  0  0  0  0  0  0  0  0  0
  143.9341  146.2625  153.7057 H   0  0  0  0  0  0  0  0  0  0  0  0
  142.8293  147.0280  154.8388 H   0  0  0  0  0  0  0  0  0  0  0  0
  145.0064  144.7700  153.1764 H   0  0  0  0  0  0  0  0  0  0  0  0
  146.2221  144.8287  154.4303 H   0  0  0  0  0  0  0  0  0  0  0  0
  146.7886  143.1124  152.7871 H   0  0  0  0  0  0  0  0  0  0  0  0
  145.2543  142.2964  153.0110 H   0  0  0  0  0  0  0  0  0  0  0  0
  150.5247  144.9779  158.1824 H   0  0  0  0  0  0  0  0  0  0  0  0
  144.4657  145.7633  155.9418 H   0  0  0  0  0  0  0  0  0  0  0  0
  1  2  1  0  0  0  0
  1 24  1  0  0  0  0
  1 25  1  0  0  0  0
  1 26  1  0  0  0  0
  2 23  1  0  0  0  0
  2  3  2  0  0  0  0
  3  4  1  0  0  0  0
  3 27  1  0  0  0  0
  4  5  1  0  0  0  0
  4  6  2  0  0  0  0
  5 28  1  0  0  0  0
  5 29  1  0  0  0  0
  5 30  1  0  0  0  0
  6  7  1  0  0  0  0
  7  8  1  0  0  0  0
  7 23  2  0  0  0  0
  8  9  1  0  0  0  0
  8 31  1  0  0  0  0
  9 10  2  0  0  0  0
  9 11  1  0  0  0  0
 11 12  1  0  0  0  0
 11 32  1  0  0  0  0
 12 13  1  0  0  0  0
 12 33  1  0  0  0  0
 12 34  1  0  0  0  0
 13 14  1  0  0  0  0
 13 35  1  0  0  0  0
 13 36  1  0  0  0  0
 14 22  1  0  0  0  0
 14 15  1  0  0  0  0
 15 16  1  0  0  0  0
 15 37  1  0  0  0  0
 15 38  1  0  0  0  0
 16 17  1  0  0  0  0
 16 39  1  0  0  0  0
 16 40  1  0  0  0  0
 17 18  1  0  0  0  0
 17 21  1  0  0  0  0
 17 41  1  0  0  0  0
 18 19  1  0  0  0  0
 18 20  1  0  0  0  0
 18 53  1  0  0  0  0
 19 42  1  0  0  0  0
 19 43  1  0  0  0  0
 19 44  1  0  0  0  0
 20 45  1  0  0  0  0
 20 46  1  0  0  0  0
 20 47  1  0  0  0  0
 21 22  1  0  0  0  0
 21 48  1  0  0  0  0
 21 49  1  0  0  0  0
 22 50  1  0  0  0  0
 22 51  1  0  0  0  0
 23 52  1  0  0  0  0
M  CHG  1  18   1
M  END
> <s_m_source_file>
AV-unprocessed.smi

> <i_m_source_file_index>
2221

> <i_lp_mmshare_version>
43012

> <i_f3d_flags>
0

> <s_epik_input>
W0NIM11jMVtjSF1jKFtDSDNdKW5jKFtjSF0xKVtOSF1DKD1PKVtOSF1bQ0gyXVtDSDJdTjJbQ0gyXVtDSDJdW0NIXShOKFtDSDNdKVtDSDNdKVtDSDJdW0NIMl0y

> <s_epik_cmdline>
J2VwaWtfcHl0aG9uJywgJy1waCcsICc3LjAnLCAnLXRuJywgJzgnLCAnLW1hJywgJzIwMCcsICctbWV0YWxfYmluZGluZycsICctaW1hZScsICc8aW5maWxlLm1hZT4nLCAnLW9tYWUnLCAnPG91dGZpbGUubWFlPic=

> <r_epik_Ionization_Penalty>
0.929621

> <r_epik_Ionization_Penalty_Charging>
0.000679816

> <r_epik_Ionization_Penalty_Neutral>
0.928941

> <r_epik_State_Penalty>
1.01912

> <r_epik_Charging_Adjusted_Penalty>
1.0198

> <i_epik_Tot_Q>
1

> <i_epik_Tot_abs_Q>
1

> <r_epik_Metal_State_Penalty>
1.01908

> <b_epik_Metal_Only>
0

> <s_lp_Force_Field>
OPLS_2005

> <r_lp_Energy>
22.8604

> <b_lp_Chiralities_Consistent>
1

> <s_lp_Variant>
AV-unprocessed.smi:2221-3

> <Gold.Version>
5.8.1

> <Gold.Id.Protein>
6NUR|6NUR_protein|mol2

> <Gold.PLP.Fitness>
52.2620

> <Gold.PLP.PLP>
-48.1073

> <Gold.PLP.part.hbond>
-2.0000

> <Gold.PLP.part.metal>
0.0000

> <Gold.PLP.part.buried>
-8.3934

> <Gold.PLP.part.nonpolar>
-39.0621

> <Gold.PLP.part.repulsive>
0.4519

> <Gold.PLP.ligand.clash>
0.0000

> <Gold.PLP.ligand.torsion>
0.8660

> <Gold.PLP.Chemscore.Hbond>
1.9280

> <Gold.PLP.Chemscore.CHOScore>
0.0000

> <Gold.PLP.Chemscore.Metal>
0.0000

> <Gold.Chemscore.Hbonds>
donor molecule, donor type, donor heavy atom, donor atom, acceptor molecule, acceptor atom, score
      L1  H     8    31       P1  8028  1.00
      L1  H    11    32       P1  8028  0.96

> <Gold.PLP.Chemscore.Internal.Correction>
0.1026

> <Gold.Rescore>
     Score         DG    S(hbond)    S(metal)    S(lipo)     H(rot)  DE(clash)    DE(int)     intcor
     19.56     -21.75       1.91        0.00     120.26       1.64       0.08       2.10       ----

> <Gold.Chemscore.Fitness>
19.5618

> <Gold.Chemscore.DG>
-21.7464

> <Gold.Chemscore.ZeroCoef>
-5.4800

> <Gold.Chemscore.Hbond>
1.9134

> <Gold.Chemscore.Metal>
0.0000

> <Gold.Chemscore.Lipo>
120.2590

> <Gold.Chemscore.Internal_Hbond>
0.0000

> <Gold.Chemscore.DEClash>
0.0825

> <Gold.Chemscore.DEInternal>
2.1021

> <Gold.Chemscore.Rot>
1.6385

> <Gold.Chemscore.Internal.Correction>
   9.000000E+99

> <Gold.Chemscore.Hbonds>
donor molecule, donor type, donor heavy atom, donor atom, acceptor molecule, acceptor atom, score
      L1  H     8    31       P1  8028  1.00
      L1  H    11    32       P1  8028  0.92

> <Gold.Chemscore.Hbond.Weighted>
-6.3906

> <Gold.Chemscore.Metal.Weighted>
-0.0000

> <Gold.Chemscore.Lipo.Weighted>
-14.0703

> <Gold.Chemscore.Internal_Hbond.Weighted>
0.0000

> <Gold.Chemscore.DEClash.Weighted>
0.0825

> <Gold.Chemscore.DEInternal.Weighted>
2.1021

> <Gold.Chemscore.Rot.Weighted>
4.1945

> <Gold.Chemscore.Internal.Correction.Weighted>
   9.000000E+99

> <Gold.Protein.RotatedTorsions>
[ 6907 6896 6895 6894 ] final  -57.87 input  -60.11 | X-H torsion
[ 7974 7965 7964 7962 ] final  122.41 input  175.53 | X-H torsion
[ 8008 7997 7996 7995 ] final  149.98 input   59.86 | X-H torsion
[ 10167 10162 10161 10158 ] final  154.17 input  -65.29 | X-H torsion
[ 10718 10713 10712 10709 ] final  125.62 input   66.30 | X-H torsion
[ 10763 10752 10751 10750 ] final   -8.84 input  -60.55 | X-H torsion
[ 11005 11000 10999 10996 ] final -170.62 input  -57.11 | X-H torsion

> <Gold.Protein.ActiveResidues>
 VAL166  LYS551  ARG553  GLY616  TRP617  ASP618  TYR619  PRO620  LYS621  CYS622 
 ASP623  PHE694  ASN695  SER759  ASP760  ASP761  ALA762  ILE779  LEU786  VAL792 
 PHE793  MET794  SER795  GLU796  ALA797  LYS798  CYS799  TRP800  GLU811  SER814 

> <Gold.Protein.RotatedAtoms>
  150.8052  134.7172  159.6636 H   0  0  0  0  0  0  0  0  0  0  0  0  # atno 6907 bound_to 6896
  152.4171  134.6019  160.0012 H   0  0  0  0  0  0  0  0  0  0  0  0  # atno 6908 bound_to 6896
  151.6245  133.3299  159.3131 H   0  0  0  0  0  0  0  0  0  0  0  0  # atno 6909 bound_to 6896
  145.1079  139.3473  143.4778 H   0  0  0  0  0  0  0  0  0  0  0  0  # atno 7974 bound_to 7965
  156.2734  140.2087  156.5944 H   0  0  0  0  0  0  0  0  0  0  0  0  # atno 8008 bound_to 7997
  154.6957  140.0526  157.0431 H   0  0  0  0  0  0  0  0  0  0  0  0  # atno 8009 bound_to 7997
  155.0805  140.3186  155.4606 H   0  0  0  0  0  0  0  0  0  0  0  0  # atno 8010 bound_to 7997
  139.4824  144.5210  151.7876 H   0  0  0  0  0  0  0  0  0  0  0  0  # atno 10167 bound_to 10162
  157.5488  131.1095  150.8737 H   0  0  0  0  0  0  0  0  0  0  0  0  # atno 10718 bound_to 10713
  153.4462  135.7014  153.6138 H   0  0  0  0  0  0  0  0  0  0  0  0  # atno 10763 bound_to 10752
  153.4492  135.3762  155.2274 H   0  0  0  0  0  0  0  0  0  0  0  0  # atno 10764 bound_to 10752
  154.8728  135.3992  154.3868 H   0  0  0  0  0  0  0  0  0  0  0  0  # atno 10765 bound_to 10752
  140.5175  134.5742  157.5038 H   0  0  0  0  0  0  0  0  0  0  0  0  # atno 11005 bound_to 11000
  146.3527  140.0984  142.8609 LP  0  0  0  0  0  0  0  0  0  0  0  0  # atno 17320 bound_to 7965
  145.0881  140.9266  143.4785 LP  0  0  0  0  0  0  0  0  0  0  0  0  # atno 17321 bound_to 7965
  140.4724  144.1568  150.5920 LP  0  0  0  0  0  0  0  0  0  0  0  0  # atno 17342 bound_to 10162
  140.4368  143.2544  151.9525 LP  0  0  0  0  0  0  0  0  0  0  0  0  # atno 17343 bound_to 10162
  156.9268  130.5335  149.5279 LP  0  0  0  0  0  0  0  0  0  0  0  0  # atno 17370 bound_to 10713
  156.0558  130.5620  150.9089 LP  0  0  0  0  0  0  0  0  0  0  0  0  # atno 17371 bound_to 10713
  139.9624  134.7429  156.0208 LP  0  0  0  0  0  0  0  0  0  0  0  0  # atno 17394 bound_to 11000
  141.1352  133.6577  156.3575 LP  0  0  0  0  0  0  0  0  0  0  0  0  # atno 17395 bound_to 11000

$$$$
