AV-unprocessed.smi:841|AV-procd|sdf|3915|dock5
  -GOLD-   22720 1373D 1   1.00000     0.00000
 Structure written by MMmdl.
 30 31  0  0  0  0  0  0  0  0  1 V2000
  154.0291  140.4863  158.9818 O   0  0  0  0  0  0  0  0  0  0  0  0
  153.0028  140.9656  159.4637 C   0  0  0  0  0  0  0  0  0  0  0  0
  153.0920  141.9867  160.6006 C   0  0  0  0  0  0  0  0  0  0  0  0
  152.6001  143.2902  160.1877 N   0  0  0  0  0  0  0  0  0  0  0  0
  152.1338  144.3218  160.9768 C   0  0  0  0  0  0  0  0  0  0  0  0
  151.7704  145.3404  160.1436 C   0  0  0  0  0  0  0  0  0  0  0  0
  152.0494  144.8302  158.8450 C   0  0  0  0  0  0  0  0  0  0  0  0
  152.5431  143.6028  158.8745 N   0  0  0  0  0  0  0  0  0  0  0  0
  151.7689  140.6446  159.0442 N   0  0  0  0  0  0  0  0  0  0  0  0
  151.4534  139.7015  157.9758 C   0  0  0  0  0  0  0  0  0  0  0  0
  151.1559  140.4198  156.6463 C   0  0  2  0  0  0  0  0  0  0  0  0
  149.8267  141.1465  156.6272 C   0  0  0  0  0  0  0  0  0  0  0  0
  149.5947  141.3446  155.1320 C   0  0  0  0  0  0  0  0  0  0  0  0
  150.2249  140.2402  154.4893 O   0  0  0  0  0  0  0  0  0  0  0  0
  150.9996  139.5039  155.4308 C   0  0  0  0  0  0  0  0  0  0  0  0
  152.5111  141.6269  161.4512 H   0  0  0  0  0  0  0  0  0  0  0  0
  154.1224  142.1002  160.9409 H   0  0  0  0  0  0  0  0  0  0  0  0
  152.1015  144.2453  162.0536 H   0  0  0  0  0  0  0  0  0  0  0  0
  151.3649  146.3025  160.4193 H   0  0  0  0  0  0  0  0  0  0  0  0
  151.9066  145.3109  157.8886 H   0  0  0  0  0  0  0  0  0  0  0  0
  150.9857  141.0912  159.4990 H   0  0  0  0  0  0  0  0  0  0  0  0
  152.2546  138.9709  157.8502 H   0  0  0  0  0  0  0  0  0  0  0  0
  150.5746  139.1357  158.2861 H   0  0  0  0  0  0  0  0  0  0  0  0
  151.9460  141.1442  156.4402 H   0  0  0  0  0  0  0  0  0  0  0  0
  149.0415  140.5155  157.0462 H   0  0  0  0  0  0  0  0  0  0  0  0
  149.8426  142.0853  157.1815 H   0  0  0  0  0  0  0  0  0  0  0  0
  148.5358  141.4024  154.8798 H   0  0  0  0  0  0  0  0  0  0  0  0
  150.0743  142.2626  154.7906 H   0  0  0  0  0  0  0  0  0  0  0  0
  151.9577  139.2026  155.0066 H   0  0  0  0  0  0  0  0  0  0  0  0
  150.4484  138.6007  155.6961 H   0  0  0  0  0  0  0  0  0  0  0  0
  1  2  2  0  0  0  0
  2  3  1  0  0  0  0
  2  9  1  0  0  0  0
  3  4  1  0  0  0  0
  3 16  1  0  0  0  0
  3 17  1  0  0  0  0
  4  8  1  0  0  0  0
  4  5  1  0  0  0  0
  5  6  2  0  0  0  0
  5 18  1  0  0  0  0
  6  7  1  0  0  0  0
  6 19  1  0  0  0  0
  7  8  2  0  0  0  0
  7 20  1  0  0  0  0
  9 10  1  0  0  0  0
  9 21  1  0  0  0  0
 10 11  1  0  0  0  0
 10 22  1  0  0  0  0
 10 23  1  0  0  0  0
 11 15  1  0  0  0  0
 11 12  1  0  0  0  0
 11 24  1  0  0  0  0
 12 13  1  0  0  0  0
 12 25  1  0  0  0  0
 12 26  1  0  0  0  0
 13 14  1  0  0  0  0
 13 27  1  0  0  0  0
 13 28  1  0  0  0  0
 14 15  1  0  0  0  0
 15 29  1  0  0  0  0
 15 30  1  0  0  0  0
M  END
> <s_m_source_file>
AV-unprocessed.smi

> <i_m_source_file_index>
841

> <i_lp_mmshare_version>
43012

> <i_f3d_flags>
0

> <s_epik_input>
bjFbY0hdW2NIXVtjSF1uMVtDSDJdQyg9TylbTkhdW0NIMl1bQ0BASF0yW0NIMl1bQ0gyXU9bQ0gyXTI=

> <s_epik_cmdline>
J2VwaWtfcHl0aG9uJywgJy1waCcsICc3LjAnLCAnLXRuJywgJzgnLCAnLW1hJywgJzIwMCcsICctbWV0YWxfYmluZGluZycsICctaW1hZScsICc8aW5maWxlLm1hZT4nLCAnLW9tYWUnLCAnPG91dGZpbGUubWFlPic=

> <r_lp_tautomer_probability>
1

> <r_epik_Ionization_Penalty>
1.49823e-05

> <r_epik_Ionization_Penalty_Charging>
0

> <r_epik_Ionization_Penalty_Neutral>
1.49823e-05

> <r_epik_State_Penalty>
-0

> <r_epik_Charging_Adjusted_Penalty>
0

> <i_epik_Tot_Q>
0

> <i_epik_Tot_abs_Q>
0

> <r_epik_Metal_State_Penalty>
-0

> <b_epik_Metal_Only>
0

> <s_lp_Force_Field>
OPLS_2005

> <r_lp_Energy>
19.4913

> <b_lp_Chiralities_Consistent>
1

> <s_lp_Variant>
AV-unprocessed.smi:841-1

> <Gold.Version>
5.8.1

> <Gold.Id.Protein>
6NUR|6NUR_protein|mol2

> <Gold.PLP.Fitness>
42.5185

> <Gold.PLP.PLP>
-38.1972

> <Gold.PLP.part.hbond>
-2.0000

> <Gold.PLP.part.metal>
0.0000

> <Gold.PLP.part.buried>
-4.0151

> <Gold.PLP.part.nonpolar>
-31.4276

> <Gold.PLP.part.repulsive>
0.2621

> <Gold.PLP.ligand.clash>
0.0000

> <Gold.PLP.ligand.torsion>
0.5339

> <Gold.PLP.Chemscore.Hbond>
1.7930

> <Gold.PLP.Chemscore.CHOScore>
0.0000

> <Gold.PLP.Chemscore.Metal>
0.0000

> <Gold.Chemscore.Hbonds>
donor molecule, donor type, donor heavy atom, donor atom, acceptor molecule, acceptor atom, score
      P1  H  7989  7998       L1    14  0.90
      P1  H  7997  8008       L1     1  0.77

> <Gold.PLP.Chemscore.Internal.Correction>
0.0101

> <Gold.Rescore>
     Score         DG    S(hbond)    S(metal)    S(lipo)     H(rot)  DE(clash)    DE(int)     intcor
     12.92     -13.46       0.86        0.00      80.34       1.68       0.25       0.28       ----

> <Gold.Chemscore.Fitness>
12.9200

> <Gold.Chemscore.DG>
-13.4568

> <Gold.Chemscore.ZeroCoef>
-5.4800

> <Gold.Chemscore.Hbond>
0.8595

> <Gold.Chemscore.Metal>
0.0000

> <Gold.Chemscore.Lipo>
80.3379

> <Gold.Chemscore.Internal_Hbond>
0.0000

> <Gold.Chemscore.DEClash>
0.2524

> <Gold.Chemscore.DEInternal>
0.2844

> <Gold.Chemscore.Rot>
1.6771

> <Gold.Chemscore.Internal.Correction>
   9.000000E+99

> <Gold.Chemscore.Hbonds>
donor molecule, donor type, donor heavy atom, donor atom, acceptor molecule, acceptor atom, score
      P1  H  7989  7998       L1    14  0.11
      P1  H  7997  8008       L1     1  0.76

> <Gold.Chemscore.Hbond.Weighted>
-2.8706

> <Gold.Chemscore.Metal.Weighted>
-0.0000

> <Gold.Chemscore.Lipo.Weighted>
-9.3995

> <Gold.Chemscore.Internal_Hbond.Weighted>
0.0000

> <Gold.Chemscore.DEClash.Weighted>
0.2524

> <Gold.Chemscore.DEInternal.Weighted>
0.2844

> <Gold.Chemscore.Rot.Weighted>
4.2934

> <Gold.Chemscore.Internal.Correction.Weighted>
   9.000000E+99

> <Gold.Protein.RotatedTorsions>
[ 6907 6896 6895 6894 ] final  -46.91 input  -60.11 | X-H torsion
[ 7974 7965 7964 7962 ] final  110.32 input  175.53 | X-H torsion
[ 8008 7997 7996 7995 ] final -106.85 input   59.86 | X-H torsion
[ 10167 10162 10161 10158 ] final    4.77 input  -65.29 | X-H torsion
[ 10718 10713 10712 10709 ] final  -48.19 input   66.30 | X-H torsion
[ 10763 10752 10751 10750 ] final  -25.79 input  -60.55 | X-H torsion
[ 11005 11000 10999 10996 ] final -116.90 input  -57.11 | X-H torsion

> <Gold.Protein.ActiveResidues>
 VAL166  LYS551  ARG553  GLY616  TRP617  ASP618  TYR619  PRO620  LYS621  CYS622 
 ASP623  PHE694  ASN695  SER759  ASP760  ASP761  ALA762  ILE779  LEU786  VAL792 
 PHE793  MET794  SER795  GLU796  ALA797  LYS798  CYS799  TRP800  GLU811  SER814 

> <Gold.Protein.RotatedAtoms>
  150.9063  134.8478  159.7394 H   0  0  0  0  0  0  0  0  0  0  0  0  # atno 6907 bound_to 6896
  152.4920  134.4426  159.9558 H   0  0  0  0  0  0  0  0  0  0  0  0  # atno 6908 bound_to 6896
  151.4473  133.3588  159.2825 H   0  0  0  0  0  0  0  0  0  0  0  0  # atno 6909 bound_to 6896
  145.2565  139.2719  143.4039 H   0  0  0  0  0  0  0  0  0  0  0  0  # atno 7974 bound_to 7965
  154.9206  140.0407  157.1996 H   0  0  0  0  0  0  0  0  0  0  0  0  # atno 8008 bound_to 7997
  154.8257  140.2891  155.5735 H   0  0  0  0  0  0  0  0  0  0  0  0  # atno 8009 bound_to 7997
  156.2983  140.2510  156.3173 H   0  0  0  0  0  0  0  0  0  0  0  0  # atno 8010 bound_to 7997
  140.6517  143.7528  150.7586 H   0  0  0  0  0  0  0  0  0  0  0  0  # atno 10167 bound_to 10162
  156.2012  130.4156  149.9239 H   0  0  0  0  0  0  0  0  0  0  0  0  # atno 10718 bound_to 10713
  153.7055  135.6954  153.5051 H   0  0  0  0  0  0  0  0  0  0  0  0  # atno 10763 bound_to 10752
  153.2311  135.4337  155.0595 H   0  0  0  0  0  0  0  0  0  0  0  0  # atno 10764 bound_to 10752
  154.8331  135.3484  154.6593 H   0  0  0  0  0  0  0  0  0  0  0  0  # atno 10765 bound_to 10752
  141.0391  133.9864  157.3024 H   0  0  0  0  0  0  0  0  0  0  0  0  # atno 11005 bound_to 11000
  146.3287  140.2970  142.8618 LP  0  0  0  0  0  0  0  0  0  0  0  0  # atno 17320 bound_to 7965
  144.9456  140.8125  143.5603 LP  0  0  0  0  0  0  0  0  0  0  0  0  # atno 17321 bound_to 7965
  140.1180  143.4638  152.2330 LP  0  0  0  0  0  0  0  0  0  0  0  0  # atno 17342 bound_to 10162
  139.5733  144.7474  151.3831 LP  0  0  0  0  0  0  0  0  0  0  0  0  # atno 17343 bound_to 10162
  156.6948  130.8910  151.3592 LP  0  0  0  0  0  0  0  0  0  0  0  0  # atno 17370 bound_to 10713
  157.6986  130.9309  150.0719 LP  0  0  0  0  0  0  0  0  0  0  0  0  # atno 17371 bound_to 10713
  139.9262  135.0201  156.8242 LP  0  0  0  0  0  0  0  0  0  0  0  0  # atno 17394 bound_to 11000
  140.6268  133.9943  155.7643 LP  0  0  0  0  0  0  0  0  0  0  0  0  # atno 17395 bound_to 11000

$$$$
