AV-unprocessed.smi:2026|AV-procd|sdf|8201|dock8
  -GOLD-   2272010463D 1   1.00000     0.00000
 Structure written by MMmdl.
 46 48  0  0  0  0  0  0  0  0  1 V2000
  152.3790  142.9695  161.7621 C   0  0  0  0  0  0  0  0  0  0  0  0
  151.9225  142.5863  160.3657 C   0  0  0  0  0  0  0  0  0  0  0  0
  152.3758  141.3710  159.8033 C   0  0  0  0  0  0  0  0  0  0  0  0
  151.9717  140.9769  158.5086 C   0  0  0  0  0  0  0  0  0  0  0  0
  152.2833  139.8473  157.7701 N   0  0  0  0  0  0  0  0  0  0  0  0
  151.5990  140.0614  156.6491 C   0  0  0  0  0  0  0  0  0  0  0  0
  150.8816  141.1987  156.5751 N   0  0  0  0  0  0  0  0  0  0  0  0
  150.0642  141.6642  155.4719 C   0  0  0  0  0  0  0  0  0  0  0  0
  149.4218  140.4948  154.6982 C   0  0  2  0  0  0  0  0  0  0  0  0
  150.3994  139.8744  153.8881 O   0  0  0  0  0  0  0  0  0  0  0  0
  148.2339  140.9142  153.8072 C   0  0  0  0  0  0  0  0  0  0  0  0
  147.0570  141.3051  154.5936 N   0  0  0  0  0  0  0  0  0  0  0  0
  146.6057  140.6420  155.6736 C   0  0  0  0  0  0  0  0  0  0  0  0
  147.0997  139.6323  156.1729 O   0  0  0  0  0  0  0  0  0  0  0  0
  145.5057  141.2628  156.1198 N   0  0  0  0  0  0  0  0  0  0  0  0
  145.1455  142.4184  155.3211 C   0  0  0  0  0  0  0  0  0  0  0  0
  143.7736  142.2165  154.6523 C   0  0  0  0  0  0  0  0  0  0  0  0
  145.2028  143.7066  156.1613 C   0  0  0  0  0  0  0  0  0  0  0  0
  146.2775  142.3572  154.3075 C   0  0  0  0  0  0  0  0  0  0  0  0
  146.4160  143.1567  153.3816 O   0  0  0  0  0  0  0  0  0  0  0  0
  151.0974  141.8407  157.7879 C   0  0  0  0  0  0  0  0  0  0  0  0
  150.6404  143.0518  158.3351 C   0  0  0  0  0  0  0  0  0  0  0  0
  151.0529  143.4306  159.6290 C   0  0  0  0  0  0  0  0  0  0  0  0
  150.5507  144.7406  160.2104 C   0  0  0  0  0  0  0  0  0  0  0  0
  152.9779  142.1798  162.2164 H   0  0  0  0  0  0  0  0  0  0  0  0
  151.5213  143.1511  162.4102 H   0  0  0  0  0  0  0  0  0  0  0  0
  152.9855  143.8748  161.7281 H   0  0  0  0  0  0  0  0  0  0  0  0
  153.0390  140.7287  160.3640 H   0  0  0  0  0  0  0  0  0  0  0  0
  151.6196  139.3511  155.8355 H   0  0  0  0  0  0  0  0  0  0  0  0
  149.2988  142.3152  155.8936 H   0  0  0  0  0  0  0  0  0  0  0  0
  150.6697  142.2846  154.8099 H   0  0  0  0  0  0  0  0  0  0  0  0
  149.0787  139.7406  155.4070 H   0  0  0  0  0  0  0  0  0  0  0  0
  150.0869  139.8597  152.9966 H   0  0  0  0  0  0  0  0  0  0  0  0
  148.5378  141.7199  153.1365 H   0  0  0  0  0  0  0  0  0  0  0  0
  147.9514  140.0839  153.1571 H   0  0  0  0  0  0  0  0  0  0  0  0
  144.9679  140.9617  156.9196 H   0  0  0  0  0  0  0  0  0  0  0  0
  143.5113  143.0673  154.0223 H   0  0  0  0  0  0  0  0  0  0  0  0
  142.9866  142.1057  155.3988 H   0  0  0  0  0  0  0  0  0  0  0  0
  143.7567  141.3247  154.0243 H   0  0  0  0  0  0  0  0  0  0  0  0
  144.9333  144.5796  155.5656 H   0  0  0  0  0  0  0  0  0  0  0  0
  146.1999  143.8808  156.5684 H   0  0  0  0  0  0  0  0  0  0  0  0
  144.5097  143.6564  157.0016 H   0  0  0  0  0  0  0  0  0  0  0  0
  149.9738  143.6806  157.7636 H   0  0  0  0  0  0  0  0  0  0  0  0
  149.9493  145.2919  159.4864 H   0  0  0  0  0  0  0  0  0  0  0  0
  151.3861  145.3767  160.5033 H   0  0  0  0  0  0  0  0  0  0  0  0
  149.9318  144.5543  161.0882 H   0  0  0  0  0  0  0  0  0  0  0  0
  1  2  1  0  0  0  0
  1 25  1  0  0  0  0
  1 26  1  0  0  0  0
  1 27  1  0  0  0  0
  2 23  1  0  0  0  0
  2  3  2  0  0  0  0
  3  4  1  0  0  0  0
  3 28  1  0  0  0  0
  4 21  2  0  0  0  0
  4  5  1  0  0  0  0
  5  6  2  0  0  0  0
  6  7  1  0  0  0  0
  6 29  1  0  0  0  0
  7  8  1  0  0  0  0
  7 21  1  0  0  0  0
  8  9  1  0  0  0  0
  8 30  1  0  0  0  0
  8 31  1  0  0  0  0
  9 10  1  0  0  0  0
  9 11  1  0  0  0  0
  9 32  1  0  0  0  0
 10 33  1  0  0  0  0
 11 12  1  0  0  0  0
 11 34  1  0  0  0  0
 11 35  1  0  0  0  0
 12 19  1  0  0  0  0
 12 13  1  0  0  0  0
 13 14  2  0  0  0  0
 13 15  1  0  0  0  0
 15 16  1  0  0  0  0
 15 36  1  0  0  0  0
 16 17  1  0  0  0  0
 16 18  1  0  0  0  0
 16 19  1  0  0  0  0
 17 37  1  0  0  0  0
 17 38  1  0  0  0  0
 17 39  1  0  0  0  0
 18 40  1  0  0  0  0
 18 41  1  0  0  0  0
 18 42  1  0  0  0  0
 19 20  2  0  0  0  0
 21 22  1  0  0  0  0
 22 23  2  0  0  0  0
 22 43  1  0  0  0  0
 23 24  1  0  0  0  0
 24 44  1  0  0  0  0
 24 45  1  0  0  0  0
 24 46  1  0  0  0  0
M  END
> <s_m_source_file>
AV-unprocessed.smi

> <i_m_source_file_index>
2026

> <i_lp_mmshare_version>
43012

> <i_f3d_flags>
0

> <s_epik_input>
W0NIM11jKFtjSF0xKWMoW0NIM10pW2NIXWMoYzEyKW4oW2NIXW4yKVtDSDJdW0NASF0oW09IXSlbQ0gyXU4oQzM9TylDKD1PKVtOSF1DMyhbQ0gzXSlbQ0gzXQ==

> <s_epik_cmdline>
J2VwaWtfcHl0aG9uJywgJy1waCcsICc3LjAnLCAnLXRuJywgJzgnLCAnLW1hJywgJzIwMCcsICctbWV0YWxfYmluZGluZycsICctaW1hZScsICc8aW5maWxlLm1hZT4nLCAnLW9tYWUnLCAnPG91dGZpbGUubWFlPic=

> <r_lp_tautomer_probability>
1

> <r_epik_Ionization_Penalty>
0.103994

> <r_epik_Ionization_Penalty_Charging>
0

> <r_epik_Ionization_Penalty_Neutral>
0.103994

> <r_epik_State_Penalty>
0.0938482

> <r_epik_Charging_Adjusted_Penalty>
0.0938482

> <i_epik_Tot_Q>
0

> <i_epik_Tot_abs_Q>
0

> <r_epik_Metal_State_Penalty>
0.106997

> <b_epik_Metal_Only>
0

> <s_lp_Force_Field>
OPLS_2005

> <r_lp_Energy>
21.0149

> <b_lp_Chiralities_Consistent>
1

> <s_lp_Variant>
AV-unprocessed.smi:2026-1

> <Gold.Version>
5.8.1

> <Gold.Id.Protein>
6NUR|6NUR_protein|mol2

> <Gold.PLP.Fitness>
52.9129

> <Gold.PLP.PLP>
-45.8576

> <Gold.PLP.part.hbond>
-3.2478

> <Gold.PLP.part.metal>
0.0000

> <Gold.PLP.part.buried>
-5.7874

> <Gold.PLP.part.nonpolar>
-36.5385

> <Gold.PLP.part.repulsive>
0.2137

> <Gold.PLP.ligand.clash>
0.0000

> <Gold.PLP.ligand.torsion>
0.7980

> <Gold.PLP.Chemscore.Hbond>
2.8800

> <Gold.PLP.Chemscore.CHOScore>
0.0000

> <Gold.PLP.Chemscore.Metal>
0.0000

> <Gold.Chemscore.Hbonds>
donor molecule, donor type, donor heavy atom, donor atom, acceptor molecule, acceptor atom, score
      L1  H    10    33       P1  7957  1.00
      P1  H  7989  7998       L1    10  0.55
      P1  H  7997  8008       L1     5  0.04

> <Gold.PLP.Chemscore.Internal.Correction>
0.0113

> <Gold.Rescore>
     Score         DG    S(hbond)    S(metal)    S(lipo)     H(rot)  DE(clash)    DE(int)     intcor
     17.78     -18.47       2.22        0.00     100.90       2.44       0.09       0.60       ----

> <Gold.Chemscore.Fitness>
17.7842

> <Gold.Chemscore.DG>
-18.4699

> <Gold.Chemscore.ZeroCoef>
-5.4800

> <Gold.Chemscore.Hbond>
2.2216

> <Gold.Chemscore.Metal>
0.0000

> <Gold.Chemscore.Lipo>
100.8996

> <Gold.Chemscore.Internal_Hbond>
0.0000

> <Gold.Chemscore.DEClash>
0.0850

> <Gold.Chemscore.DEInternal>
0.6006

> <Gold.Chemscore.Rot>
2.4358

> <Gold.Chemscore.Internal.Correction>
   9.000000E+99

> <Gold.Chemscore.Hbonds>
donor molecule, donor type, donor heavy atom, donor atom, acceptor molecule, acceptor atom, score
      L1  H    10    33       P1  7957  1.00
      P1  H  7989  7998       L1    10  0.03

> <Gold.Chemscore.Hbond.Weighted>
-7.4203

> <Gold.Chemscore.Metal.Weighted>
-0.0000

> <Gold.Chemscore.Lipo.Weighted>
-11.8053

> <Gold.Chemscore.Internal_Hbond.Weighted>
0.0000

> <Gold.Chemscore.DEClash.Weighted>
0.0850

> <Gold.Chemscore.DEInternal.Weighted>
0.6006

> <Gold.Chemscore.Rot.Weighted>
6.2357

> <Gold.Chemscore.Internal.Correction.Weighted>
   9.000000E+99

> <Gold.Protein.RotatedTorsions>
[ 6907 6896 6895 6894 ] final   30.60 input  -60.11 | X-H torsion
[ 7974 7965 7964 7962 ] final   76.08 input  175.53 | X-H torsion
[ 8008 7997 7996 7995 ] final  -56.59 input   59.86 | X-H torsion
[ 10167 10162 10161 10158 ] final  163.24 input  -65.29 | X-H torsion
[ 10718 10713 10712 10709 ] final   -6.60 input   66.30 | X-H torsion
[ 10763 10752 10751 10750 ] final   50.01 input  -60.55 | X-H torsion
[ 11005 11000 10999 10996 ] final -168.60 input  -57.11 | X-H torsion

> <Gold.Protein.ActiveResidues>
 VAL166  LYS551  ARG553  GLY616  TRP617  ASP618  TYR619  PRO620  LYS621  CYS622 
 ASP623  PHE694  ASN695  SER759  ASP760  ASP761  ALA762  ILE779  LEU786  VAL792 
 PHE793  MET794  SER795  GLU796  ALA797  LYS798  CYS799  TRP800  GLU811  SER814 

> <Gold.Protein.RotatedAtoms>
  152.0482  134.9669  160.0574 H   0  0  0  0  0  0  0  0  0  0  0  0  # atno 6907 bound_to 6896
  152.1081  133.4281  159.4626 H   0  0  0  0  0  0  0  0  0  0  0  0  # atno 6908 bound_to 6896
  150.6842  134.2600  159.4589 H   0  0  0  0  0  0  0  0  0  0  0  0  # atno 6909 bound_to 6896
  145.7074  139.2603  143.1670 H   0  0  0  0  0  0  0  0  0  0  0  0  # atno 7974 bound_to 7965
  154.4236  140.1126  156.5662 H   0  0  0  0  0  0  0  0  0  0  0  0  # atno 8008 bound_to 7997
  155.6260  140.3495  155.4648 H   0  0  0  0  0  0  0  0  0  0  0  0  # atno 8009 bound_to 7997
  155.9986  140.1194  157.0559 H   0  0  0  0  0  0  0  0  0  0  0  0  # atno 8010 bound_to 7997
  139.4871  144.4357  151.9015 H   0  0  0  0  0  0  0  0  0  0  0  0  # atno 10167 bound_to 10162
  156.7296  130.5176  149.5849 H   0  0  0  0  0  0  0  0  0  0  0  0  # atno 10718 bound_to 10713
  152.9785  135.5893  154.4182 H   0  0  0  0  0  0  0  0  0  0  0  0  # atno 10763 bound_to 10752
  154.3810  135.2767  155.2213 H   0  0  0  0  0  0  0  0  0  0  0  0  # atno 10764 bound_to 10752
  154.4127  135.6077  153.6017 H   0  0  0  0  0  0  0  0  0  0  0  0  # atno 10765 bound_to 10752
  140.5402  134.5530  157.5097 H   0  0  0  0  0  0  0  0  0  0  0  0  # atno 11005 bound_to 11000
  146.0743  140.7834  142.9673 LP  0  0  0  0  0  0  0  0  0  0  0  0  # atno 17320 bound_to 7965
  144.6951  140.3390  143.7202 LP  0  0  0  0  0  0  0  0  0  0  0  0  # atno 17321 bound_to 7965
  140.3806  144.2740  150.5909 LP  0  0  0  0  0  0  0  0  0  0  0  0  # atno 17342 bound_to 10162
  140.5236  143.2259  151.8349 LP  0  0  0  0  0  0  0  0  0  0  0  0  # atno 17343 bound_to 10162
  156.1538  130.6328  151.0631 LP  0  0  0  0  0  0  0  0  0  0  0  0  # atno 17370 bound_to 10713
  157.6864  131.0823  150.7230 LP  0  0  0  0  0  0  0  0  0  0  0  0  # atno 17371 bound_to 10713
  139.9508  134.7621  156.0453 LP  0  0  0  0  0  0  0  0  0  0  0  0  # atno 17394 bound_to 11000
  141.1231  133.6607  156.3267 LP  0  0  0  0  0  0  0  0  0  0  0  0  # atno 17395 bound_to 11000

$$$$
