AV-unprocessed.smi:1033|AV-procd|sdf|4513|dock5
  -GOLD-   22720 2523D 1   1.00000     0.00000
 Structure written by MMmdl.
 57 59  0  0  0  0  0  0  0  0  3 V2000
  152.8991  141.1525  159.5099 C   0  0  0  0  0  0  0  0  0  0  0  0
  151.9696  141.1947  158.3096 C   0  0  0  0  0  0  0  0  0  0  0  0
  151.9630  140.1069  157.4078 C   0  0  0  0  0  0  0  0  0  0  0  0
  151.1147  140.1072  156.2790 C   0  0  0  0  0  0  0  0  0  0  0  0
  150.9453  139.1622  155.2816 N   0  0  0  0  0  0  0  0  0  0  0  0
  150.0207  139.7388  154.5199 C   0  0  0  0  0  0  0  0  0  0  0  0
  149.5655  140.9453  154.9088 N   0  0  0  0  0  0  0  0  0  0  0  0
  148.5629  141.7569  154.2418 C   0  0  0  0  0  0  0  0  0  0  0  0
  147.1905  141.0599  154.1733 C   0  0  1  0  0  0  0  0  0  0  0  0
  146.1686  142.0375  154.1288 O   0  0  0  0  0  0  0  0  0  0  0  0
  147.0661  140.1661  152.9236 C   0  0  0  0  0  0  0  0  0  0  0  0
  146.1550  139.0116  153.1360 N   0  3  2  0  0  0  0  0  0  0  0  0
  146.3060  138.3734  154.4689 C   0  0  0  0  0  0  0  0  0  0  0  0
  145.2685  137.2511  154.6636 C   0  0  0  0  0  0  0  0  0  0  0  0
  145.3456  136.2327  153.5859 N   0  3  2  0  0  0  0  0  0  0  0  0
  146.4912  135.2945  153.7350 C   0  0  0  0  0  0  0  0  0  0  0  0
  146.3778  134.0620  152.8148 C   0  0  1  0  0  0  0  0  0  0  0  0
  147.6411  133.1934  152.8703 C   0  0  0  0  0  0  0  0  0  0  0  0
  145.2871  133.2644  153.2294 O   0  0  0  0  0  0  0  0  0  0  0  0
  145.2307  136.8651  152.2448 C   0  0  0  0  0  0  0  0  0  0  0  0
  146.2477  138.0083  152.0462 C   0  0  0  0  0  0  0  0  0  0  0  0
  150.2661  141.2346  156.0752 C   0  0  0  0  0  0  0  0  0  0  0  0
  150.2627  142.3224  156.9663 C   0  0  0  0  0  0  0  0  0  0  0  0
  151.1173  142.3061  158.0885 C   0  0  0  0  0  0  0  0  0  0  0  0
  151.1068  143.4859  159.0445 C   0  0  0  0  0  0  0  0  0  0  0  0
  153.4417  140.2082  159.5604 H   0  0  0  0  0  0  0  0  0  0  0  0
  152.3348  141.2627  160.4360 H   0  0  0  0  0  0  0  0  0  0  0  0
  153.6320  141.9576  159.4523 H   0  0  0  0  0  0  0  0  0  0  0  0
  152.6122  139.2601  157.5761 H   0  0  0  0  0  0  0  0  0  0  0  0
  149.6504  139.2546  153.6279 H   0  0  0  0  0  0  0  0  0  0  0  0
  148.4838  142.7122  154.7625 H   0  0  0  0  0  0  0  0  0  0  0  0
  148.9218  141.9808  153.2363 H   0  0  0  0  0  0  0  0  0  0  0  0
  147.0581  140.4701  155.0800 H   0  0  0  0  0  0  0  0  0  0  0  0
  146.0735  142.3331  153.2350 H   0  0  0  0  0  0  0  0  0  0  0  0
  146.6965  140.7792  152.0997 H   0  0  0  0  0  0  0  0  0  0  0  0
  148.0460  139.8011  152.6121 H   0  0  0  0  0  0  0  0  0  0  0  0
  147.3170  137.9767  154.5738 H   0  0  0  0  0  0  0  0  0  0  0  0
  146.1774  139.1125  155.2588 H   0  0  0  0  0  0  0  0  0  0  0  0
  145.3862  136.7822  155.6413 H   0  0  0  0  0  0  0  0  0  0  0  0
  144.2663  137.6818  154.6561 H   0  0  0  0  0  0  0  0  0  0  0  0
  147.4266  135.8211  153.5458 H   0  0  0  0  0  0  0  0  0  0  0  0
  146.5510  134.9457  154.7674 H   0  0  0  0  0  0  0  0  0  0  0  0
  146.2137  134.3581  151.7794 H   0  0  0  0  0  0  0  0  0  0  0  0
  148.5157  133.7534  152.5383 H   0  0  0  0  0  0  0  0  0  0  0  0
  147.5466  132.3199  152.2240 H   0  0  0  0  0  0  0  0  0  0  0  0
  147.8382  132.8382  153.8827 H   0  0  0  0  0  0  0  0  0  0  0  0
  145.1086  132.6139  152.5678 H   0  0  0  0  0  0  0  0  0  0  0  0
  145.3337  136.1255  151.4516 H   0  0  0  0  0  0  0  0  0  0  0  0
  144.2208  137.2668  152.1493 H   0  0  0  0  0  0  0  0  0  0  0  0
  146.0538  138.4925  151.0882 H   0  0  0  0  0  0  0  0  0  0  0  0
  147.2646  137.6168  151.9960 H   0  0  0  0  0  0  0  0  0  0  0  0
  149.6078  143.1623  156.7882 H   0  0  0  0  0  0  0  0  0  0  0  0
  150.4406  144.2752  158.6950 H   0  0  0  0  0  0  0  0  0  0  0  0
  152.1059  143.9115  159.1406 H   0  0  0  0  0  0  0  0  0  0  0  0
  150.7669  143.1728  160.0317 H   0  0  0  0  0  0  0  0  0  0  0  0
  144.5247  135.6553  153.7027 H   0  0  0  0  0  0  0  0  0  0  0  0
  145.2183  139.3885  153.0912 H   0  0  0  0  0  0  0  0  0  0  0  0
  1  2  1  0  0  0  0
  1 26  1  0  0  0  0
  1 27  1  0  0  0  0
  1 28  1  0  0  0  0
  2 24  1  0  0  0  0
  2  3  2  0  0  0  0
  3  4  1  0  0  0  0
  3 29  1  0  0  0  0
  4 22  2  0  0  0  0
  4  5  1  0  0  0  0
  5  6  2  0  0  0  0
  6  7  1  0  0  0  0
  6 30  1  0  0  0  0
  7  8  1  0  0  0  0
  7 22  1  0  0  0  0
  8  9  1  0  0  0  0
  8 31  1  0  0  0  0
  8 32  1  0  0  0  0
  9 10  1  0  0  0  0
  9 11  1  0  0  0  0
  9 33  1  0  0  0  0
 10 34  1  0  0  0  0
 11 12  1  0  0  0  0
 11 35  1  0  0  0  0
 11 36  1  0  0  0  0
 12 21  1  0  0  0  0
 12 13  1  0  0  0  0
 12 57  1  0  0  0  0
 13 14  1  0  0  0  0
 13 37  1  0  0  0  0
 13 38  1  0  0  0  0
 14 15  1  0  0  0  0
 14 39  1  0  0  0  0
 14 40  1  0  0  0  0
 15 16  1  0  0  0  0
 15 20  1  0  0  0  0
 15 56  1  0  0  0  0
 16 17  1  0  0  0  0
 16 41  1  0  0  0  0
 16 42  1  0  0  0  0
 17 18  1  0  0  0  0
 17 19  1  0  0  0  0
 17 43  1  0  0  0  0
 18 44  1  0  0  0  0
 18 45  1  0  0  0  0
 18 46  1  0  0  0  0
 19 47  1  0  0  0  0
 20 21  1  0  0  0  0
 20 48  1  0  0  0  0
 20 49  1  0  0  0  0
 21 50  1  0  0  0  0
 21 51  1  0  0  0  0
 22 23  1  0  0  0  0
 23 24  2  0  0  0  0
 23 52  1  0  0  0  0
 24 25  1  0  0  0  0
 25 53  1  0  0  0  0
 25 54  1  0  0  0  0
 25 55  1  0  0  0  0
M  CHG  1  12   1
M  CHG  1  15   1
M  END
> <s_m_source_file>
AV-unprocessed.smi

> <i_m_source_file_index>
1033

> <i_lp_mmshare_version>
43012

> <i_f3d_flags>
0

> <s_epik_input>
W0NIM11jKFtjSF0xKWMoW0NIM10pW2NIXWMoYzEyKW4oW2NIXW4yKVtDSDJdW0NASF0oW09IXSlbQ0gyXU4zW0NIMl1bQ0gyXU4oW0NIMl1bQ0gyXTMpW0NIMl1bQ0BIXShbQ0gzXSlbT0hd

> <s_epik_cmdline>
J2VwaWtfcHl0aG9uJywgJy1waCcsICc3LjAnLCAnLXRuJywgJzgnLCAnLW1hJywgJzIwMCcsICctbWV0YWxfYmluZGluZycsICctaW1hZScsICc8aW5maWxlLm1hZT4nLCAnLW9tYWUnLCAnPG91dGZpbGUubWFlPic=

> <r_epik_Ionization_Penalty>
3.16016

> <r_epik_Ionization_Penalty_Charging>
3.07679

> <r_epik_Ionization_Penalty_Neutral>
0.083365

> <r_epik_State_Penalty>
2.09701

> <r_epik_Charging_Adjusted_Penalty>
5.1738

> <i_epik_Tot_Q>
2

> <i_epik_Tot_abs_Q>
2

> <r_epik_Metal_State_Penalty>
2.02534

> <b_epik_Metal_Only>
0

> <s_lp_Force_Field>
OPLS_2005

> <r_lp_Energy>
29.7728

> <b_lp_Chiralities_Consistent>
1

> <s_lp_Variant>
AV-unprocessed.smi:1033-24

> <Gold.Version>
5.8.1

> <Gold.Id.Protein>
6NUR|6NUR_protein|mol2

> <Gold.PLP.Fitness>
48.5303

> <Gold.PLP.PLP>
-41.1088

> <Gold.PLP.part.hbond>
-1.0000

> <Gold.PLP.part.metal>
0.0000

> <Gold.PLP.part.buried>
0.7482

> <Gold.PLP.part.nonpolar>
-39.1159

> <Gold.PLP.part.repulsive>
0.0578

> <Gold.PLP.ligand.clash>
0.0000

> <Gold.PLP.ligand.torsion>
0.8721

> <Gold.PLP.Chemscore.Hbond>
2.0000

> <Gold.PLP.Chemscore.CHOScore>
0.9925

> <Gold.PLP.Chemscore.Metal>
0.0000

> <Gold.Chemscore.Hbonds>
donor molecule, donor type, donor heavy atom, donor atom, acceptor molecule, acceptor atom, score
      L1  H    12    57       P1 10175  2.00
      L1  C     6    30       P1  7957  0.86

> <Gold.PLP.Chemscore.Internal.Correction>
0.1881

> <Gold.Rescore>
     Score         DG    S(hbond)    S(metal)    S(lipo)     H(rot)  DE(clash)    DE(int)     intcor
     12.69     -13.88       0.98        0.00     112.50       3.14       0.26       0.92       ----

> <Gold.Chemscore.Fitness>
12.6933

> <Gold.Chemscore.DG>
-13.8762

> <Gold.Chemscore.ZeroCoef>
-5.4800

> <Gold.Chemscore.Hbond>
0.9780

> <Gold.Chemscore.Metal>
0.0000

> <Gold.Chemscore.Lipo>
112.5024

> <Gold.Chemscore.Internal_Hbond>
0.0000

> <Gold.Chemscore.DEClash>
0.2617

> <Gold.Chemscore.DEInternal>
0.9212

> <Gold.Chemscore.Rot>
3.1380

> <Gold.Chemscore.Internal.Correction>
   9.000000E+99

> <Gold.Chemscore.Hbonds>
donor molecule, donor type, donor heavy atom, donor atom, acceptor molecule, acceptor atom, score
      L1  H    12    57       P1 10175  0.97

> <Gold.Chemscore.Hbond.Weighted>
-3.2667

> <Gold.Chemscore.Metal.Weighted>
-0.0000

> <Gold.Chemscore.Lipo.Weighted>
-13.1628

> <Gold.Chemscore.Internal_Hbond.Weighted>
0.0000

> <Gold.Chemscore.DEClash.Weighted>
0.2617

> <Gold.Chemscore.DEInternal.Weighted>
0.9212

> <Gold.Chemscore.Rot.Weighted>
8.0332

> <Gold.Chemscore.Internal.Correction.Weighted>
   9.000000E+99

> <Gold.Protein.RotatedTorsions>
[ 6907 6896 6895 6894 ] final  -77.76 input  -60.11 | X-H torsion
[ 7974 7965 7964 7962 ] final -107.84 input  175.53 | X-H torsion
[ 8008 7997 7996 7995 ] final   53.67 input   59.86 | X-H torsion
[ 10167 10162 10161 10158 ] final  -31.84 input  -65.29 | X-H torsion
[ 10718 10713 10712 10709 ] final   11.90 input   66.30 | X-H torsion
[ 10763 10752 10751 10750 ] final  -75.14 input  -60.55 | X-H torsion
[ 11005 11000 10999 10996 ] final  -18.21 input  -57.11 | X-H torsion

> <Gold.Protein.ActiveResidues>
 VAL166  LYS551  ARG553  GLY616  TRP617  ASP618  TYR619  PRO620  LYS621  CYS622 
 ASP623  PHE694  ASN695  SER759  ASP760  ASP761  ALA762  ILE779  LEU786  VAL792 
 PHE793  MET794  SER795  GLU796  ALA797  LYS798  CYS799  TRP800  GLU811  SER814 

> <Gold.Protein.RotatedAtoms>
  150.6990  134.4373  159.5275 H   0  0  0  0  0  0  0  0  0  0  0  0  # atno 6907 bound_to 6896
  152.2089  134.8517  160.0509 H   0  0  0  0  0  0  0  0  0  0  0  0  # atno 6908 bound_to 6896
  151.9409  133.3603  159.4002 H   0  0  0  0  0  0  0  0  0  0  0  0  # atno 6909 bound_to 6896
  145.2003  140.9053  143.3373 H   0  0  0  0  0  0  0  0  0  0  0  0  # atno 7974 bound_to 7965
  155.4722  140.3465  155.4327 H   0  0  0  0  0  0  0  0  0  0  0  0  # atno 8008 bound_to 7997
  156.1093  140.1456  156.9389 H   0  0  0  0  0  0  0  0  0  0  0  0  # atno 8009 bound_to 7997
  154.4745  140.0889  156.7207 H   0  0  0  0  0  0  0  0  0  0  0  0  # atno 8010 bound_to 7997
  140.7230  143.3740  151.1725 H   0  0  0  0  0  0  0  0  0  0  0  0  # atno 10167 bound_to 10162
  157.0024  130.6085  149.5698 H   0  0  0  0  0  0  0  0  0  0  0  0  # atno 10718 bound_to 10713
  154.4825  135.5841  153.6400 H   0  0  0  0  0  0  0  0  0  0  0  0  # atno 10763 bound_to 10752
  152.9850  135.6093  154.3228 H   0  0  0  0  0  0  0  0  0  0  0  0  # atno 10764 bound_to 10752
  154.3120  135.2845  155.2540 H   0  0  0  0  0  0  0  0  0  0  0  0  # atno 10765 bound_to 10752
  140.8245  133.8043  155.9694 H   0  0  0  0  0  0  0  0  0  0  0  0  # atno 11005 bound_to 11000
  144.9954  139.3649  143.6194 LP  0  0  0  0  0  0  0  0  0  0  0  0  # atno 17320 bound_to 7965
  146.3419  139.9154  142.8774 LP  0  0  0  0  0  0  0  0  0  0  0  0  # atno 17321 bound_to 7965
  139.7316  143.9063  152.3021 LP  0  0  0  0  0  0  0  0  0  0  0  0  # atno 17342 bound_to 10162
  139.8854  144.6995  150.8830 LP  0  0  0  0  0  0  0  0  0  0  0  0  # atno 17343 bound_to 10162
  156.0166  130.5260  150.8153 LP  0  0  0  0  0  0  0  0  0  0  0  0  # atno 17370 bound_to 10713
  157.5380  131.0939  150.9865 LP  0  0  0  0  0  0  0  0  0  0  0  0  # atno 17371 bound_to 10713
  140.9064  134.2315  157.5012 LP  0  0  0  0  0  0  0  0  0  0  0  0  # atno 17394 bound_to 11000
  139.8707  134.9730  156.4793 LP  0  0  0  0  0  0  0  0  0  0  0  0  # atno 17395 bound_to 11000

$$$$
