AV-unprocessed.smi:1692|AV-procd|sdf|6778|dock6
  -GOLD-   22720 7533D 1   1.00000     0.00000
 Structure written by MMmdl.
 46 47  0  0  0  0  0  0  0  0  2 V2000
  150.2732  134.8796  154.5093 C   0  0  0  0  0  0  0  0  0  0  0  0
  150.2337  136.0581  155.4986 C   0  0  2  0  0  0  0  0  0  0  0  0
  149.0123  136.9788  155.3109 C   0  0  0  0  0  0  0  0  0  0  0  0
  149.1528  137.8167  154.0961 N   0  3  1  0  0  0  0  0  0  0  0  0
  147.9608  138.6684  153.8583 C   0  0  0  0  0  0  0  0  0  0  0  0
  147.9634  139.9436  154.7237 C   0  0  0  0  0  0  0  0  0  0  0  0
  148.6883  141.1395  154.0781 C   0  0  0  0  0  0  0  0  0  0  0  0
  149.1490  142.1191  155.0590 N   0  0  0  0  0  0  0  0  0  0  0  0
  150.0689  141.8931  156.0089 C   0  0  0  0  0  0  0  0  0  0  0  0
  150.6100  140.8003  156.1800 O   0  0  0  0  0  0  0  0  0  0  0  0
  150.3063  143.0008  156.7334 N   0  0  0  0  0  0  0  0  0  0  0  0
  151.1950  143.1563  157.8311 C   0  0  0  0  0  0  0  0  0  0  0  0
  151.4811  144.4942  158.1853 C   0  0  0  0  0  0  0  0  0  0  0  0
  152.3522  144.7553  159.2607 C   0  0  0  0  0  0  0  0  0  0  0  0
  152.9145  143.6700  159.9562 C   0  0  0  0  0  0  0  0  0  0  0  0
  152.5757  142.3690  159.5409 C   0  0  0  0  0  0  0  0  0  0  0  0
  151.7407  142.1167  158.5108 N   0  0  0  0  0  0  0  0  0  0  0  0
  150.4250  138.5770  154.1423 C   0  0  0  0  0  0  0  0  0  0  0  0
  151.6190  137.6191  154.3056 C   0  0  1  0  0  0  0  0  0  0  0  0
  152.9450  138.3739  154.4524 C   0  0  0  0  0  0  0  0  0  0  0  0
  151.4369  136.8255  155.4754 O   0  0  0  0  0  0  0  0  0  0  0  0
  149.4046  134.2343  154.6428 H   0  0  0  0  0  0  0  0  0  0  0  0
  151.1625  134.2692  154.6674 H   0  0  0  0  0  0  0  0  0  0  0  0
  150.2741  135.2091  153.4708 H   0  0  0  0  0  0  0  0  0  0  0  0
  150.1719  135.6266  156.4981 H   0  0  0  0  0  0  0  0  0  0  0  0
  148.1027  136.3792  155.2538 H   0  0  0  0  0  0  0  0  0  0  0  0
  148.9061  137.6305  156.1799 H   0  0  0  0  0  0  0  0  0  0  0  0
  147.9570  138.9663  152.8098 H   0  0  0  0  0  0  0  0  0  0  0  0
  147.0496  138.0900  154.0179 H   0  0  0  0  0  0  0  0  0  0  0  0
  146.9387  140.2516  154.9285 H   0  0  0  0  0  0  0  0  0  0  0  0
  148.4123  139.7272  155.6940 H   0  0  0  0  0  0  0  0  0  0  0  0
  149.5134  140.7927  153.4535 H   0  0  0  0  0  0  0  0  0  0  0  0
  148.0000  141.6533  153.4065 H   0  0  0  0  0  0  0  0  0  0  0  0
  148.7565  143.0470  154.9907 H   0  0  0  0  0  0  0  0  0  0  0  0
  149.7961  143.8303  156.4686 H   0  0  0  0  0  0  0  0  0  0  0  0
  151.0414  145.3166  157.6394 H   0  0  0  0  0  0  0  0  0  0  0  0
  152.5848  145.7708  159.5454 H   0  0  0  0  0  0  0  0  0  0  0  0
  153.5874  143.8296  160.7857 H   0  0  0  0  0  0  0  0  0  0  0  0
  152.9858  141.5083  160.0483 H   0  0  0  0  0  0  0  0  0  0  0  0
  150.5548  139.1581  153.2300 H   0  0  0  0  0  0  0  0  0  0  0  0
  150.3947  139.2871  154.9704 H   0  0  0  0  0  0  0  0  0  0  0  0
  151.6942  136.9737  153.4303 H   0  0  0  0  0  0  0  0  0  0  0  0
  153.1432  138.9943  153.5779 H   0  0  0  0  0  0  0  0  0  0  0  0
  153.7780  137.6793  154.5624 H   0  0  0  0  0  0  0  0  0  0  0  0
  152.9356  139.0232  155.3284 H   0  0  0  0  0  0  0  0  0  0  0  0
  149.2136  137.1774  153.3165 H   0  0  0  0  0  0  0  0  0  0  0  0
  1  2  1  0  0  0  0
  1 22  1  0  0  0  0
  1 23  1  0  0  0  0
  1 24  1  0  0  0  0
  2 21  1  0  0  0  0
  2  3  1  0  0  0  0
  2 25  1  0  0  0  0
  3  4  1  0  0  0  0
  3 26  1  0  0  0  0
  3 27  1  0  0  0  0
  4  5  1  0  0  0  0
  4 18  1  0  0  0  0
  4 46  1  0  0  0  0
  5  6  1  0  0  0  0
  5 28  1  0  0  0  0
  5 29  1  0  0  0  0
  6  7  1  0  0  0  0
  6 30  1  0  0  0  0
  6 31  1  0  0  0  0
  7  8  1  0  0  0  0
  7 32  1  0  0  0  0
  7 33  1  0  0  0  0
  8  9  1  0  0  0  0
  8 34  1  0  0  0  0
  9 10  2  0  0  0  0
  9 11  1  0  0  0  0
 11 12  1  0  0  0  0
 11 35  1  0  0  0  0
 12 17  1  0  0  0  0
 12 13  2  0  0  0  0
 13 14  1  0  0  0  0
 13 36  1  0  0  0  0
 14 15  2  0  0  0  0
 14 37  1  0  0  0  0
 15 16  1  0  0  0  0
 15 38  1  0  0  0  0
 16 17  2  0  0  0  0
 16 39  1  0  0  0  0
 18 19  1  0  0  0  0
 18 40  1  0  0  0  0
 18 41  1  0  0  0  0
 19 20  1  0  0  0  0
 19 21  1  0  0  0  0
 19 42  1  0  0  0  0
 20 43  1  0  0  0  0
 20 44  1  0  0  0  0
 20 45  1  0  0  0  0
M  CHG  1   4   1
M  END
> <s_m_source_file>
AV-unprocessed.smi

> <i_m_source_file_index>
1692

> <i_lp_mmshare_version>
43012

> <i_f3d_flags>
0

> <s_epik_input>
W0NIM11bQ0BASF0xW0NIMl1OKFtDSDJdW0NASF0oTzEpW0NIM10pW0NIMl1bQ0gyXVtDSDJdW05IXUMoPU8pW05IXWMyW2NIXVtjSF1bY0hdW2NIXW4y

> <s_epik_cmdline>
J2VwaWtfcHl0aG9uJywgJy1waCcsICc3LjAnLCAnLXRuJywgJzgnLCAnLW1hJywgJzIwMCcsICctbWV0YWxfYmluZGluZycsICctaW1hZScsICc8aW5maWxlLm1hZT4nLCAnLW9tYWUnLCAnPG91dGZpbGUubWFlPic=

> <r_epik_Ionization_Penalty>
0.270538

> <r_epik_Ionization_Penalty_Charging>
0.270496

> <r_epik_Ionization_Penalty_Neutral>
4.22978e-05

> <r_epik_State_Penalty>
0.262618

> <r_epik_Charging_Adjusted_Penalty>
0.533114

> <i_epik_Tot_Q>
1

> <i_epik_Tot_abs_Q>
1

> <r_epik_Metal_State_Penalty>
0.262618

> <b_epik_Metal_Only>
0

> <s_lp_Force_Field>
OPLS_2005

> <r_lp_Energy>
21.1516

> <b_lp_Chiralities_Consistent>
1

> <s_lp_Variant>
AV-unprocessed.smi:1692-1

> <Gold.Version>
5.8.1

> <Gold.Id.Protein>
6NUR|6NUR_protein|mol2

> <Gold.PLP.Fitness>
54.2347

> <Gold.PLP.PLP>
-41.6165

> <Gold.PLP.part.hbond>
-3.9923

> <Gold.PLP.part.metal>
0.0000

> <Gold.PLP.part.buried>
-2.9945

> <Gold.PLP.part.nonpolar>
-34.5084

> <Gold.PLP.part.repulsive>
0.3569

> <Gold.PLP.ligand.clash>
0.0000

> <Gold.PLP.ligand.torsion>
0.5066

> <Gold.PLP.Chemscore.Hbond>
4.5358

> <Gold.PLP.Chemscore.CHOScore>
0.0000

> <Gold.PLP.Chemscore.Metal>
0.0000

> <Gold.Chemscore.Hbonds>
donor molecule, donor type, donor heavy atom, donor atom, acceptor molecule, acceptor atom, score
      L1  H     4    46       P1  7948  2.00
      L1  H     8    34       P1  8028  0.88
      L1  H    11    35       P1  8028  0.93
      P1  H 10752 10764       L1    21  0.41

> <Gold.PLP.Chemscore.Internal.Correction>
0.0239

> <Gold.Rescore>
     Score         DG    S(hbond)    S(metal)    S(lipo)     H(rot)  DE(clash)    DE(int)     intcor
     21.46     -23.37       2.97        0.00     107.20       1.78       0.20       1.71       ----

> <Gold.Chemscore.Fitness>
21.4599

> <Gold.Chemscore.DG>
-23.3654

> <Gold.Chemscore.ZeroCoef>
-5.4800

> <Gold.Chemscore.Hbond>
2.9652

> <Gold.Chemscore.Metal>
0.0000

> <Gold.Chemscore.Lipo>
107.1951

> <Gold.Chemscore.Internal_Hbond>
0.0000

> <Gold.Chemscore.DEClash>
0.1983

> <Gold.Chemscore.DEInternal>
1.7072

> <Gold.Chemscore.Rot>
1.7814

> <Gold.Chemscore.Internal.Correction>
   9.000000E+99

> <Gold.Chemscore.Hbonds>
donor molecule, donor type, donor heavy atom, donor atom, acceptor molecule, acceptor atom, score
      L1  H     4    46       P1  7948  0.99
      L1  H     8    34       P1  8028  0.87
      L1  H    11    35       P1  8028  0.88
      P1  H 10752 10764       L1    21  0.02

> <Gold.Chemscore.Hbond.Weighted>
-9.9039

> <Gold.Chemscore.Metal.Weighted>
-0.0000

> <Gold.Chemscore.Lipo.Weighted>
-12.5418

> <Gold.Chemscore.Internal_Hbond.Weighted>
0.0000

> <Gold.Chemscore.DEClash.Weighted>
0.1983

> <Gold.Chemscore.DEInternal.Weighted>
1.7072

> <Gold.Chemscore.Rot.Weighted>
4.5603

> <Gold.Chemscore.Internal.Correction.Weighted>
   9.000000E+99

> <Gold.Protein.RotatedTorsions>
[ 6907 6896 6895 6894 ] final  109.50 input  -60.11 | X-H torsion
[ 7974 7965 7964 7962 ] final -176.98 input  175.53 | X-H torsion
[ 8008 7997 7996 7995 ] final   89.28 input   59.86 | X-H torsion
[ 10167 10162 10161 10158 ] final  112.02 input  -65.29 | X-H torsion
[ 10718 10713 10712 10709 ] final  -84.89 input   66.30 | X-H torsion
[ 10763 10752 10751 10750 ] final  -36.72 input  -60.55 | X-H torsion
[ 11005 11000 10999 10996 ] final   88.97 input  -57.11 | X-H torsion

> <Gold.Protein.ActiveResidues>
 VAL166  LYS551  ARG553  GLY616  TRP617  ASP618  TYR619  PRO620  LYS621  CYS622 
 ASP623  PHE694  ASN695  SER759  ASP760  ASP761  ALA762  ILE779  LEU786  VAL792 
 PHE793  MET794  SER795  GLU796  ALA797  LYS798  CYS799  TRP800  GLU811  SER814 

> <Gold.Protein.RotatedAtoms>
  152.5064  133.8935  159.7405 H   0  0  0  0  0  0  0  0  0  0  0  0  # atno 6907 bound_to 6896
  150.9368  133.6693  159.2806 H   0  0  0  0  0  0  0  0  0  0  0  0  # atno 6908 bound_to 6896
  151.4019  135.0977  159.9611 H   0  0  0  0  0  0  0  0  0  0  0  0  # atno 6909 bound_to 6896
  144.7127  140.1089  143.6412 H   0  0  0  0  0  0  0  0  0  0  0  0  # atno 7974 bound_to 7965
  155.9981  140.3362  155.6818 H   0  0  0  0  0  0  0  0  0  0  0  0  # atno 8008 bound_to 7997
  155.6328  140.0687  157.2661 H   0  0  0  0  0  0  0  0  0  0  0  0  # atno 8009 bound_to 7997
  154.4240  140.1756  156.1478 H   0  0  0  0  0  0  0  0  0  0  0  0  # atno 8010 bound_to 7997
  139.6567  144.7129  151.1943 H   0  0  0  0  0  0  0  0  0  0  0  0  # atno 10167 bound_to 10162
  156.0002  130.4713  150.4479 H   0  0  0  0  0  0  0  0  0  0  0  0  # atno 10718 bound_to 10713
  153.8844  135.6818  153.4764 H   0  0  0  0  0  0  0  0  0  0  0  0  # atno 10763 bound_to 10752
  153.1215  135.4737  154.9201 H   0  0  0  0  0  0  0  0  0  0  0  0  # atno 10764 bound_to 10752
  154.7653  135.3222  154.8251 H   0  0  0  0  0  0  0  0  0  0  0  0  # atno 10765 bound_to 10752
  139.8885  134.8522  156.3076 H   0  0  0  0  0  0  0  0  0  0  0  0  # atno 11005 bound_to 11000
  145.9472  139.2709  143.1233 LP  0  0  0  0  0  0  0  0  0  0  0  0  # atno 17320 bound_to 7965
  145.9361  140.9013  143.0331 LP  0  0  0  0  0  0  0  0  0  0  0  0  # atno 17321 bound_to 7965
  140.7562  143.6061  150.8652 LP  0  0  0  0  0  0  0  0  0  0  0  0  # atno 17342 bound_to 10162
  139.9714  143.6052  152.2972 LP  0  0  0  0  0  0  0  0  0  0  0  0  # atno 17343 bound_to 10162
  157.2514  131.0547  151.2377 LP  0  0  0  0  0  0  0  0  0  0  0  0  # atno 17370 bound_to 10713
  157.3524  130.7089  149.6449 LP  0  0  0  0  0  0  0  0  0  0  0  0  # atno 17371 bound_to 10713
  140.9871  133.7231  156.0759 LP  0  0  0  0  0  0  0  0  0  0  0  0  # atno 17394 bound_to 11000
  140.7673  134.3872  157.5514 LP  0  0  0  0  0  0  0  0  0  0  0  0  # atno 17395 bound_to 11000

$$$$
