AV-unprocessed.smi:1327|AV-procd|sdf|5478|dock4
  -GOLD-   22720 5 53D 1   1.00000     0.00000
 Structure written by MMmdl.
 39 40  0  0  0  0  0  0  0  0  2 V2000
  153.0661  138.7672  157.1449 O   0  0  0  0  0  0  0  0  0  0  0  0
  151.6791  139.1938  156.8985 S   0  0  0  0  0  0  0  0  0  0  0  0
  151.3470  139.6930  155.5534 O   0  0  0  0  0  0  0  0  0  0  0  0
  150.5882  138.1561  157.5045 N   0  5  0  0  0  0  0  0  0  0  0  0
  150.7421  137.6653  158.8644 C   0  0  0  0  0  0  0  0  0  0  0  0
  149.3787  137.6198  159.5976 C   0  0  0  0  0  0  0  0  0  0  0  0
  149.2880  136.6452  160.7698 C   0  0  0  0  0  0  0  0  0  0  0  0
  149.4494  135.2546  160.5713 C   0  0  0  0  0  0  0  0  0  0  0  0
  149.3388  134.3978  161.6831 C   0  0  0  0  0  0  0  0  0  0  0  0
  149.0825  134.9575  162.9494 C   0  0  0  0  0  0  0  0  0  0  0  0
  148.9502  136.3562  163.0481 C   0  0  0  0  0  0  0  0  0  0  0  0
  149.0562  137.1870  161.9901 N   0  0  0  0  0  0  0  0  0  0  0  0
  151.3643  140.5039  158.0014 N   0  0  0  0  0  0  0  0  0  0  0  0
  150.8053  141.7493  157.4280 C   0  0  0  0  0  0  0  0  0  0  0  0
  150.6347  142.9222  158.4137 C   0  0  0  0  0  0  0  0  0  0  0  0
  151.9335  143.6996  158.6790 C   0  0  0  0  0  0  0  0  0  0  0  0
  152.8863  142.9996  159.6535 C   0  0  0  0  0  0  0  0  0  0  0  0
  153.3005  141.5920  159.2070 C   0  0  0  0  0  0  0  0  0  0  0  0
  152.1433  140.5777  159.2576 C   0  0  0  0  0  0  0  0  0  0  0  0
  151.2009  136.6763  158.8992 H   0  0  0  0  0  0  0  0  0  0  0  0
  151.4120  138.3122  159.4312 H   0  0  0  0  0  0  0  0  0  0  0  0
  149.1468  138.6170  159.9728 H   0  0  0  0  0  0  0  0  0  0  0  0
  148.5892  137.3864  158.8813 H   0  0  0  0  0  0  0  0  0  0  0  0
  149.6374  134.8543  159.5859 H   0  0  0  0  0  0  0  0  0  0  0  0
  149.4457  133.3298  161.5660 H   0  0  0  0  0  0  0  0  0  0  0  0
  148.9882  134.3306  163.8233 H   0  0  0  0  0  0  0  0  0  0  0  0
  148.7529  136.8215  164.0024 H   0  0  0  0  0  0  0  0  0  0  0  0
  151.4211  142.0635  156.5843 H   0  0  0  0  0  0  0  0  0  0  0  0
  149.8287  141.5068  157.0087 H   0  0  0  0  0  0  0  0  0  0  0  0
  149.9292  143.6207  157.9629 H   0  0  0  0  0  0  0  0  0  0  0  0
  150.1648  142.5997  159.3434 H   0  0  0  0  0  0  0  0  0  0  0  0
  152.4457  143.9010  157.7372 H   0  0  0  0  0  0  0  0  0  0  0  0
  151.6794  144.6754  159.0943 H   0  0  0  0  0  0  0  0  0  0  0  0
  153.7812  143.6122  159.7663 H   0  0  0  0  0  0  0  0  0  0  0  0
  152.4305  142.9512  160.6429 H   0  0  0  0  0  0  0  0  0  0  0  0
  153.7637  141.6181  158.2207 H   0  0  0  0  0  0  0  0  0  0  0  0
  154.0798  141.2464  159.8866 H   0  0  0  0  0  0  0  0  0  0  0  0
  151.4732  140.7920  160.0900 H   0  0  0  0  0  0  0  0  0  0  0  0
  152.5558  139.5944  159.4767 H   0  0  0  0  0  0  0  0  0  0  0  0
  1  2  2  0  0  0  0
  2  3  2  0  0  0  0
  2  4  1  0  0  0  0
  2 13  1  0  0  0  0
  4  5  1  0  0  0  0
  5  6  1  0  0  0  0
  5 20  1  0  0  0  0
  5 21  1  0  0  0  0
  6  7  1  0  0  0  0
  6 22  1  0  0  0  0
  6 23  1  0  0  0  0
  7 12  1  0  0  0  0
  7  8  2  0  0  0  0
  8  9  1  0  0  0  0
  8 24  1  0  0  0  0
  9 10  2  0  0  0  0
  9 25  1  0  0  0  0
 10 11  1  0  0  0  0
 10 26  1  0  0  0  0
 11 12  2  0  0  0  0
 11 27  1  0  0  0  0
 13 19  1  0  0  0  0
 13 14  1  0  0  0  0
 14 15  1  0  0  0  0
 14 28  1  0  0  0  0
 14 29  1  0  0  0  0
 15 16  1  0  0  0  0
 15 30  1  0  0  0  0
 15 31  1  0  0  0  0
 16 17  1  0  0  0  0
 16 32  1  0  0  0  0
 16 33  1  0  0  0  0
 17 18  1  0  0  0  0
 17 34  1  0  0  0  0
 17 35  1  0  0  0  0
 18 19  1  0  0  0  0
 18 36  1  0  0  0  0
 18 37  1  0  0  0  0
 19 38  1  0  0  0  0
 19 39  1  0  0  0  0
M  CHG  1   4  -1
M  END
> <s_m_source_file>
AV-unprocessed.smi

> <i_m_source_file_index>
1327

> <i_lp_mmshare_version>
43012

> <i_f3d_flags>
0

> <s_epik_input>
W0NIMl0xW0NIMl1bQ0gyXVtDSDJdW0NIMl1bQ0gyXU4xUyg9TykoPU8pW05IXVtDSDJdW0NIMl1jMltjSF1bY0hdW2NIXVtjSF1uMg==

> <s_epik_cmdline>
J2VwaWtfcHl0aG9uJywgJy1waCcsICc3LjAnLCAnLXRuJywgJzgnLCAnLW1hJywgJzIwMCcsICctbWV0YWxfYmluZGluZycsICctaW1hZScsICc8aW5maWxlLm1hZT4nLCAnLW9tYWUnLCAnPG91dGZpbGUubWFlPic=

> <r_lp_tautomer_probability>
1

> <r_epik_Ionization_Penalty>
3.18796

> <r_epik_Ionization_Penalty_Charging>
3.10426

> <r_epik_Ionization_Penalty_Neutral>
0.0836926

> <r_epik_State_Penalty>
3.10111

> <r_epik_Charging_Adjusted_Penalty>
6.20538

> <i_epik_Tot_Q>
-1

> <i_epik_Tot_abs_Q>
1

> <r_epik_Metal_State_Penalty>
0.463976

> <b_epik_Metal_Only>
1

> <s_lp_Force_Field>
OPLS_2005

> <r_lp_Energy>
9.11233

> <b_lp_Chiralities_Consistent>
1

> <s_lp_Variant>
AV-unprocessed.smi:1327-2

> <Gold.Version>
5.8.1

> <Gold.Id.Protein>
6NUR|6NUR_protein|mol2

> <Gold.PLP.Fitness>
47.2709

> <Gold.PLP.PLP>
-37.2044

> <Gold.PLP.part.hbond>
-4.0000

> <Gold.PLP.part.metal>
0.0000

> <Gold.PLP.part.buried>
-4.8840

> <Gold.PLP.part.nonpolar>
-28.4410

> <Gold.PLP.part.repulsive>
0.0155

> <Gold.PLP.ligand.clash>
0.0000

> <Gold.PLP.ligand.torsion>
1.8316

> <Gold.PLP.Chemscore.Hbond>
3.5440

> <Gold.PLP.Chemscore.CHOScore>
0.0000

> <Gold.PLP.Chemscore.Metal>
0.0000

> <Gold.Chemscore.Hbonds>
donor molecule, donor type, donor heavy atom, donor atom, acceptor molecule, acceptor atom, score
      P1  H  7989  7998       L1     3  0.13
      P1  H  7997  8009       L1     1  1.00

> <Gold.PLP.Chemscore.Internal.Correction>
3.0978

> <Gold.Rescore>
     Score         DG    S(hbond)    S(metal)    S(lipo)     H(rot)  DE(clash)    DE(int)     intcor
     20.20     -22.22       2.78        0.00      91.62       1.27       0.12       1.90       ----

> <Gold.Chemscore.Fitness>
20.2029

> <Gold.Chemscore.DG>
-22.2228

> <Gold.Chemscore.ZeroCoef>
-5.4800

> <Gold.Chemscore.Hbond>
2.7797

> <Gold.Chemscore.Metal>
0.0000

> <Gold.Chemscore.Lipo>
91.6223

> <Gold.Chemscore.Internal_Hbond>
0.0000

> <Gold.Chemscore.DEClash>
0.1214

> <Gold.Chemscore.DEInternal>
1.8984

> <Gold.Chemscore.Rot>
1.2738

> <Gold.Chemscore.Internal.Correction>
   9.000000E+99

> <Gold.Chemscore.Hbonds>
donor molecule, donor type, donor heavy atom, donor atom, acceptor molecule, acceptor atom, score
      P1  H  6931  6943       L1    12  0.01
      P1  H  7989  7998       L1     3  0.14
      P1  H  7997  8009       L1     1  0.92

> <Gold.Chemscore.Hbond.Weighted>
-9.2840

> <Gold.Chemscore.Metal.Weighted>
-0.0000

> <Gold.Chemscore.Lipo.Weighted>
-10.7198

> <Gold.Chemscore.Internal_Hbond.Weighted>
0.0000

> <Gold.Chemscore.DEClash.Weighted>
0.1214

> <Gold.Chemscore.DEInternal.Weighted>
1.8984

> <Gold.Chemscore.Rot.Weighted>
3.2610

> <Gold.Chemscore.Internal.Correction.Weighted>
   9.000000E+99

> <Gold.Protein.RotatedTorsions>
[ 6907 6896 6895 6894 ] final    1.81 input  -60.11 | X-H torsion
[ 7974 7965 7964 7962 ] final   35.68 input  175.53 | X-H torsion
[ 8008 7997 7996 7995 ] final  173.73 input   59.86 | X-H torsion
[ 10167 10162 10161 10158 ] final    8.58 input  -65.29 | X-H torsion
[ 10718 10713 10712 10709 ] final -178.65 input   66.30 | X-H torsion
[ 10763 10752 10751 10750 ] final  112.52 input  -60.55 | X-H torsion
[ 11005 11000 10999 10996 ] final  -48.73 input  -57.11 | X-H torsion

> <Gold.Protein.ActiveResidues>
 VAL166  LYS551  ARG553  GLY616  TRP617  ASP618  TYR619  PRO620  LYS621  CYS622 
 ASP623  PHE694  ASN695  SER759  ASP760  ASP761  ALA762  ILE779  LEU786  VAL792 
 PHE793  MET794  SER795  GLU796  ALA797  LYS798  CYS799  TRP800  GLU811  SER814 

> <Gold.Protein.RotatedAtoms>
  151.5986  135.1049  160.0054 H   0  0  0  0  0  0  0  0  0  0  0  0  # atno 6907 bound_to 6896
  152.4269  133.7207  159.6542 H   0  0  0  0  0  0  0  0  0  0  0  0  # atno 6908 bound_to 6896
  150.8159  133.8267  159.3183 H   0  0  0  0  0  0  0  0  0  0  0  0  # atno 6909 bound_to 6896
  146.1266  139.6112  142.9254 H   0  0  0  0  0  0  0  0  0  0  0  0  # atno 7974 bound_to 7965
  156.1046  140.1452  156.9422 H   0  0  0  0  0  0  0  0  0  0  0  0  # atno 8008 bound_to 7997
  154.4725  140.0905  156.7224 H   0  0  0  0  0  0  0  0  0  0  0  0  # atno 8009 bound_to 7997
  155.4702  140.3441  155.4327 H   0  0  0  0  0  0  0  0  0  0  0  0  # atno 8010 bound_to 7997
  140.6305  143.8003  150.7290 H   0  0  0  0  0  0  0  0  0  0  0  0  # atno 10167 bound_to 10162
  156.8475  130.9707  151.3095 H   0  0  0  0  0  0  0  0  0  0  0  0  # atno 10718 bound_to 10713
  153.4790  135.3683  155.2432 H   0  0  0  0  0  0  0  0  0  0  0  0  # atno 10763 bound_to 10752
  154.8755  135.3950  154.3722 H   0  0  0  0  0  0  0  0  0  0  0  0  # atno 10764 bound_to 10752
  153.4323  135.7082  153.6288 H   0  0  0  0  0  0  0  0  0  0  0  0  # atno 10765 bound_to 10752
  141.0718  133.6677  156.3483 H   0  0  0  0  0  0  0  0  0  0  0  0  # atno 11005 bound_to 11000
  145.5352  141.0424  143.2361 LP  0  0  0  0  0  0  0  0  0  0  0  0  # atno 17320 bound_to 7965
  144.7648  139.6870  143.7219 LP  0  0  0  0  0  0  0  0  0  0  0  0  # atno 17321 bound_to 7965
  140.1614  143.4272  152.2064 LP  0  0  0  0  0  0  0  0  0  0  0  0  # atno 17342 bound_to 10162
  139.5520  144.7345  151.4406 LP  0  0  0  0  0  0  0  0  0  0  0  0  # atno 17343 bound_to 10162
  157.6322  130.8738  149.9294 LP  0  0  0  0  0  0  0  0  0  0  0  0  # atno 17370 bound_to 10713
  156.0846  130.3669  150.0512 LP  0  0  0  0  0  0  0  0  0  0  0  0  # atno 17371 bound_to 10713
  140.5658  134.5889  157.5445 LP  0  0  0  0  0  0  0  0  0  0  0  0  # atno 17394 bound_to 11000
  139.9531  134.7582  156.0403 LP  0  0  0  0  0  0  0  0  0  0  0  0  # atno 17395 bound_to 11000

$$$$
