AV-unprocessed.smi:3245|AV-procd|sdf|12402|dock1
  -GOLD-   2272018273D 1   1.00000     0.00000
 Structure written by MMmdl.
 36 37  0  0  0  0  0  0  0  0  2 V2000
  146.1235  135.8805  153.0542 C   0  0  0  0  0  0  0  0  0  0  0  0
  145.8153  136.8672  151.9200 C   0  0  2  0  0  0  0  0  0  0  0  0
  145.2992  136.1178  150.6721 C   0  0  0  0  0  0  0  0  0  0  0  0
  144.7093  134.8290  150.9877 N   0  0  0  0  0  0  0  0  0  0  0  0
  145.0562  133.5852  150.5042 C   0  0  0  0  0  0  0  0  0  0  0  0
  144.2353  132.6737  151.1039 C   0  0  0  0  0  0  0  0  0  0  0  0
  143.4051  133.4661  151.9447 C   0  0  0  0  0  0  0  0  0  0  0  0
  143.6917  134.7562  151.8735 N   0  0  0  0  0  0  0  0  0  0  0  0
  147.0308  137.6530  151.6077 N   0  3  0  0  0  0  0  0  0  0  0  0
  147.1491  138.9341  152.3337 C   0  0  0  0  0  0  0  0  0  0  0  0
  147.8469  138.7347  153.6868 C   0  0  0  0  0  0  0  0  0  0  0  0
  148.3502  140.0046  154.2158 N   0  0  0  0  0  0  0  0  0  0  0  0
  149.6462  140.2692  154.4273 C   0  0  0  0  0  0  0  0  0  0  0  0
  150.6038  139.5227  154.2273 O   0  0  0  0  0  0  0  0  0  0  0  0
  149.7666  141.6823  154.9546 C   0  0  0  0  0  0  0  0  0  0  0  0
  148.3674  142.0527  154.9533 N   0  0  0  0  0  0  0  0  0  0  0  0
  147.5772  141.0639  154.5157 C   0  0  0  0  0  0  0  0  0  0  0  0
  146.3539  141.1290  154.4052 O   0  0  0  0  0  0  0  0  0  0  0  0
  145.2346  135.3141  153.3338 H   0  0  0  0  0  0  0  0  0  0  0  0
  146.4729  136.4017  153.9460 H   0  0  0  0  0  0  0  0  0  0  0  0
  146.8941  135.1660  152.7621 H   0  0  0  0  0  0  0  0  0  0  0  0
  145.0356  137.5408  152.2802 H   0  0  0  0  0  0  0  0  0  0  0  0
  144.5646  136.7230  150.1377 H   0  0  0  0  0  0  0  0  0  0  0  0
  146.1204  135.9453  149.9753 H   0  0  0  0  0  0  0  0  0  0  0  0
  145.8519  133.4533  149.7861 H   0  0  0  0  0  0  0  0  0  0  0  0
  144.2274  131.6030  150.9626 H   0  0  0  0  0  0  0  0  0  0  0  0
  142.6107  133.1441  152.6017 H   0  0  0  0  0  0  0  0  0  0  0  0
  147.8408  137.0956  151.8381 H   0  0  0  0  0  0  0  0  0  0  0  0
  147.7125  139.6502  151.7360 H   0  0  0  0  0  0  0  0  0  0  0  0
  146.1530  139.3554  152.4755 H   0  0  0  0  0  0  0  0  0  0  0  0
  147.1587  138.2757  154.3986 H   0  0  0  0  0  0  0  0  0  0  0  0
  148.6740  138.0307  153.5787 H   0  0  0  0  0  0  0  0  0  0  0  0
  150.1884  141.7037  155.9598 H   0  0  0  0  0  0  0  0  0  0  0  0
  150.3509  142.3145  154.2854 H   0  0  0  0  0  0  0  0  0  0  0  0
  148.0387  142.9615  155.2462 H   0  0  0  0  0  0  0  0  0  0  0  0
  147.0389  137.8363  150.6142 H   0  0  0  0  0  0  0  0  0  0  0  0
  1  2  1  0  0  0  0
  1 19  1  0  0  0  0
  1 20  1  0  0  0  0
  1 21  1  0  0  0  0
  2  3  1  0  0  0  0
  2  9  1  0  0  0  0
  2 22  1  0  0  0  0
  3  4  1  0  0  0  0
  3 23  1  0  0  0  0
  3 24  1  0  0  0  0
  4  8  1  0  0  0  0
  4  5  1  0  0  0  0
  5  6  2  0  0  0  0
  5 25  1  0  0  0  0
  6  7  1  0  0  0  0
  6 26  1  0  0  0  0
  7  8  2  0  0  0  0
  7 27  1  0  0  0  0
  9 10  1  0  0  0  0
  9 28  1  0  0  0  0
  9 36  1  0  0  0  0
 10 11  1  0  0  0  0
 10 29  1  0  0  0  0
 10 30  1  0  0  0  0
 11 12  1  0  0  0  0
 11 31  1  0  0  0  0
 11 32  1  0  0  0  0
 12 17  1  0  0  0  0
 12 13  1  0  0  0  0
 13 14  2  0  0  0  0
 13 15  1  0  0  0  0
 15 16  1  0  0  0  0
 15 33  1  0  0  0  0
 15 34  1  0  0  0  0
 16 17  1  0  0  0  0
 16 35  1  0  0  0  0
 17 18  2  0  0  0  0
M  CHG  1   9   1
M  END
> <s_m_source_file>
AV-unprocessed.smi

> <i_m_source_file_index>
3245

> <i_lp_mmshare_version>
43012

> <i_f3d_flags>
0

> <s_epik_input>
bjFbY0hdW2NIXVtjSF1uMVtDSDJdW0NAQEhdKFtDSDNdKVtOSF1bQ0gyXVtDSDJdTjJDKD1PKVtDSDJdW05IXUMyPU8=

> <s_epik_cmdline>
J2VwaWtfcHl0aG9uJywgJy1waCcsICc3LjAnLCAnLXRuJywgJzgnLCAnLW1hJywgJzIwMCcsICctbWV0YWxfYmluZGluZycsICctaW1hZScsICc8aW5maWxlLm1hZT4nLCAnLW9tYWUnLCAnPG91dGZpbGUubWFlPic=

> <r_lp_tautomer_probability>
1

> <r_epik_Ionization_Penalty>
0.0160742

> <r_epik_Ionization_Penalty_Charging>
0.0159586

> <r_epik_Ionization_Penalty_Neutral>
0.000115543

> <r_epik_State_Penalty>
0.0125702

> <r_epik_Charging_Adjusted_Penalty>
0.0285288

> <i_epik_Tot_Q>
1

> <i_epik_Tot_abs_Q>
1

> <r_epik_Metal_State_Penalty>
0.0881892

> <b_epik_Metal_Only>
0

> <s_lp_Force_Field>
OPLS_2005

> <r_lp_Energy>
19.7378

> <b_lp_Chiralities_Consistent>
1

> <s_lp_Variant>
AV-unprocessed.smi:3245-1

> <Gold.Version>
5.8.1

> <Gold.Id.Protein>
6NUR|6NUR_protein|mol2

> <Gold.PLP.Fitness>
45.3764

> <Gold.PLP.PLP>
-30.5282

> <Gold.PLP.part.hbond>
-3.0000

> <Gold.PLP.part.metal>
0.0000

> <Gold.PLP.part.buried>
0.2265

> <Gold.PLP.part.nonpolar>
-28.0834

> <Gold.PLP.part.repulsive>
0.7258

> <Gold.PLP.ligand.clash>
0.0000

> <Gold.PLP.ligand.torsion>
1.1849

> <Gold.PLP.Chemscore.Hbond>
3.6400

> <Gold.PLP.Chemscore.CHOScore>
2.0000

> <Gold.PLP.Chemscore.Metal>
0.0000

> <Gold.Chemscore.Hbonds>
donor molecule, donor type, donor heavy atom, donor atom, acceptor molecule, acceptor atom, score
      L1  H     9    28       P1  7948  1.27
      L1  H    16    35       P1  8028  0.74
      P1  H  7989  7998       L1    14  0.65
      L1  C     5    25       P1  7921  0.70
      L1  C     7    27       P1 10957  0.93

> <Gold.PLP.Chemscore.Internal.Correction>
0.2979

> <Gold.Rescore>
     Score         DG    S(hbond)    S(metal)    S(lipo)     H(rot)  DE(clash)    DE(int)     intcor
      8.83     -11.69       1.90        0.00      58.66       2.74       1.56       1.31       ----

> <Gold.Chemscore.Fitness>
8.8278

> <Gold.Chemscore.DG>
-11.6925

> <Gold.Chemscore.ZeroCoef>
-5.4800

> <Gold.Chemscore.Hbond>
1.9031

> <Gold.Chemscore.Metal>
0.0000

> <Gold.Chemscore.Lipo>
58.6554

> <Gold.Chemscore.Internal_Hbond>
0.0000

> <Gold.Chemscore.DEClash>
1.5569

> <Gold.Chemscore.DEInternal>
1.3079

> <Gold.Chemscore.Rot>
2.7369

> <Gold.Chemscore.Internal.Correction>
   9.000000E+99

> <Gold.Chemscore.Hbonds>
donor molecule, donor type, donor heavy atom, donor atom, acceptor molecule, acceptor atom, score
      L1  H     9    28       P1  7948  0.63
      L1  H    16    35       P1  8028  0.66
      P1  H  7989  7998       L1    14  0.06

> <Gold.Chemscore.Hbond.Weighted>
-6.3564

> <Gold.Chemscore.Metal.Weighted>
-0.0000

> <Gold.Chemscore.Lipo.Weighted>
-6.8627

> <Gold.Chemscore.Internal_Hbond.Weighted>
0.0000

> <Gold.Chemscore.DEClash.Weighted>
1.5569

> <Gold.Chemscore.DEInternal.Weighted>
1.3079

> <Gold.Chemscore.Rot.Weighted>
7.0065

> <Gold.Chemscore.Internal.Correction.Weighted>
   9.000000E+99

> <Gold.Protein.RotatedTorsions>
[ 6907 6896 6895 6894 ] final   15.27 input  -60.11 | X-H torsion
[ 7974 7965 7964 7962 ] final -136.50 input  175.53 | X-H torsion
[ 8008 7997 7996 7995 ] final  -11.52 input   59.86 | X-H torsion
[ 10167 10162 10161 10158 ] final   26.90 input  -65.29 | X-H torsion
[ 10718 10713 10712 10709 ] final   32.73 input   66.30 | X-H torsion
[ 10763 10752 10751 10750 ] final  169.73 input  -60.55 | X-H torsion
[ 11005 11000 10999 10996 ] final -125.26 input  -57.11 | X-H torsion

> <Gold.Protein.ActiveResidues>
 VAL166  LYS551  ARG553  GLY616  TRP617  ASP618  TYR619  PRO620  LYS621  CYS622 
 ASP623  PHE694  ASN695  SER759  ASP760  ASP761  ALA762  ILE779  LEU786  VAL792 
 PHE793  MET794  SER795  GLU796  ALA797  LYS798  CYS799  TRP800  GLU811  SER814 

> <Gold.Protein.RotatedAtoms>
  151.8154  135.0668  160.0417 H   0  0  0  0  0  0  0  0  0  0  0  0  # atno 6907 bound_to 6896
  152.2990  133.5632  159.5614 H   0  0  0  0  0  0  0  0  0  0  0  0  # atno 6908 bound_to 6896
  150.7264  134.0235  159.3751 H   0  0  0  0  0  0  0  0  0  0  0  0  # atno 6909 bound_to 6896
  144.8922  140.6657  143.5138 H   0  0  0  0  0  0  0  0  0  0  0  0  # atno 7974 bound_to 7965
  154.5457  140.2300  155.8567 H   0  0  0  0  0  0  0  0  0  0  0  0  # atno 8008 bound_to 7997
  156.1900  140.3079  155.9276 H   0  0  0  0  0  0  0  0  0  0  0  0  # atno 8009 bound_to 7997
  155.3169  140.0438  157.3028 H   0  0  0  0  0  0  0  0  0  0  0  0  # atno 8010 bound_to 7997
  140.4984  144.0355  150.6323 H   0  0  0  0  0  0  0  0  0  0  0  0  # atno 10167 bound_to 10162
  157.2890  130.7293  149.6599 H   0  0  0  0  0  0  0  0  0  0  0  0  # atno 10718 bound_to 10713
  154.3873  135.2754  155.2175 H   0  0  0  0  0  0  0  0  0  0  0  0  # atno 10763 bound_to 10752
  154.4256  135.5989  153.6040 H   0  0  0  0  0  0  0  0  0  0  0  0  # atno 10764 bound_to 10752
  152.9833  135.5983  154.4124 H   0  0  0  0  0  0  0  0  0  0  0  0  # atno 10765 bound_to 10752
  140.9776  134.0718  157.3801 H   0  0  0  0  0  0  0  0  0  0  0  0  # atno 11005 bound_to 11000
  145.3763  139.1647  143.4304 LP  0  0  0  0  0  0  0  0  0  0  0  0  # atno 17320 bound_to 7965
  146.3060  140.3840  142.8687 LP  0  0  0  0  0  0  0  0  0  0  0  0  # atno 17321 bound_to 7965
  140.3644  143.2890  152.0348 LP  0  0  0  0  0  0  0  0  0  0  0  0  # atno 17342 bound_to 10162
  139.4866  144.6278  151.7129 LP  0  0  0  0  0  0  0  0  0  0  0  0  # atno 17343 bound_to 10162
  155.9666  130.4315  150.4922 LP  0  0  0  0  0  0  0  0  0  0  0  0  # atno 17370 bound_to 10713
  157.2880  131.0620  151.2153 LP  0  0  0  0  0  0  0  0  0  0  0  0  # atno 17371 bound_to 10713
  139.8937  135.0132  156.6912 LP  0  0  0  0  0  0  0  0  0  0  0  0  # atno 17394 bound_to 11000
  140.7235  133.9120  155.8162 LP  0  0  0  0  0  0  0  0  0  0  0  0  # atno 17395 bound_to 11000

$$$$
