AV-unprocessed.smi:2040|AV-procd|sdf|8287|dock9
  -GOLD-   2272010553D 1   1.00000     0.00000
 Structure written by MMmdl.
 38 39  0  0  0  0  0  0  0  0  1 V2000
  155.5266  140.1030  162.8281 C   0  0  0  0  0  0  0  0  0  0  0  0
  154.5277  140.8173  161.9664 C   0  0  0  0  0  0  0  0  0  0  0  0
  154.0217  140.4187  160.6949 C   0  0  0  0  0  0  0  0  0  0  0  0
  153.1568  141.4322  160.3838 C   0  0  0  0  0  0  0  0  0  0  0  0
  152.3877  141.5891  159.2736 N   0  0  0  0  0  0  0  0  0  0  0  0
  152.3200  140.8066  158.1825 C   0  0  0  0  0  0  0  0  0  0  0  0
  152.9635  139.7722  158.0045 O   0  0  0  0  0  0  0  0  0  0  0  0
  151.4420  141.2926  157.2932 N   0  0  0  0  0  0  0  0  0  0  0  0
  151.1317  140.6943  155.9971 C   0  0  1  0  0  0  0  0  0  0  0  0
  150.9202  139.1794  156.1648 C   0  0  0  0  0  0  0  0  0  0  0  0
  149.8940  141.3925  155.4020 C   0  0  2  0  0  0  0  0  0  0  0  0
  148.5953  141.1725  156.1833 C   0  0  0  0  0  0  0  0  0  0  0  0
  147.5045  141.2591  155.1251 C   0  0  0  0  0  0  0  0  0  0  0  0
  148.2689  141.2967  153.8007 C   0  0  0  0  0  0  0  0  0  0  0  0
  149.5746  140.8488  154.1298 O   0  0  0  0  0  0  0  0  0  0  0  0
  153.1679  142.3559  161.4052 N   0  0  0  0  0  0  0  0  0  0  0  0
  152.4262  143.5950  161.5343 C   0  0  0  0  0  0  0  0  0  0  0  0
  154.0153  141.9697  162.3835 N   0  0  0  0  0  0  0  0  0  0  0  0
  155.9253  139.2233  162.3225 H   0  0  0  0  0  0  0  0  0  0  0  0
  155.0726  139.7712  163.7621 H   0  0  0  0  0  0  0  0  0  0  0  0
  156.3674  140.7513  163.0763 H   0  0  0  0  0  0  0  0  0  0  0  0
  154.2671  139.5356  160.1247 H   0  0  0  0  0  0  0  0  0  0  0  0
  151.7800  142.3948  159.2813 H   0  0  0  0  0  0  0  0  0  0  0  0
  150.9617  142.1510  157.5200 H   0  0  0  0  0  0  0  0  0  0  0  0
  151.9725  140.8566  155.3199 H   0  0  0  0  0  0  0  0  0  0  0  0
  150.7238  138.6970  155.2073 H   0  0  0  0  0  0  0  0  0  0  0  0
  150.0772  138.9673  156.8233 H   0  0  0  0  0  0  0  0  0  0  0  0
  151.8030  138.7013  156.5906 H   0  0  0  0  0  0  0  0  0  0  0  0
  150.0784  142.4630  155.2876 H   0  0  0  0  0  0  0  0  0  0  0  0
  148.5844  140.1791  156.6342 H   0  0  0  0  0  0  0  0  0  0  0  0
  148.4643  141.9026  156.9825 H   0  0  0  0  0  0  0  0  0  0  0  0
  146.8535  140.3857  155.1792 H   0  0  0  0  0  0  0  0  0  0  0  0
  146.8843  142.1480  155.2461 H   0  0  0  0  0  0  0  0  0  0  0  0
  147.8137  140.6702  153.0335 H   0  0  0  0  0  0  0  0  0  0  0  0
  148.3261  142.3171  153.4185 H   0  0  0  0  0  0  0  0  0  0  0  0
  151.3566  143.3840  161.5266 H   0  0  0  0  0  0  0  0  0  0  0  0
  152.6662  144.2539  160.6996 H   0  0  0  0  0  0  0  0  0  0  0  0
  152.6805  144.0999  162.4671 H   0  0  0  0  0  0  0  0  0  0  0  0
  1  2  1  0  0  0  0
  1 19  1  0  0  0  0
  1 20  1  0  0  0  0
  1 21  1  0  0  0  0
  2 18  2  0  0  0  0
  2  3  1  0  0  0  0
  3  4  2  0  0  0  0
  3 22  1  0  0  0  0
  4  5  1  0  0  0  0
  4 16  1  0  0  0  0
  5  6  1  0  0  0  0
  5 23  1  0  0  0  0
  6  7  2  0  0  0  0
  6  8  1  0  0  0  0
  8  9  1  0  0  0  0
  8 24  1  0  0  0  0
  9 10  1  0  0  0  0
  9 11  1  0  0  0  0
  9 25  1  0  0  0  0
 10 26  1  0  0  0  0
 10 27  1  0  0  0  0
 10 28  1  0  0  0  0
 11 15  1  0  0  0  0
 11 12  1  0  0  0  0
 11 29  1  0  0  0  0
 12 13  1  0  0  0  0
 12 30  1  0  0  0  0
 12 31  1  0  0  0  0
 13 14  1  0  0  0  0
 13 32  1  0  0  0  0
 13 33  1  0  0  0  0
 14 15  1  0  0  0  0
 14 34  1  0  0  0  0
 14 35  1  0  0  0  0
 16 17  1  0  0  0  0
 16 18  1  0  0  0  0
 17 36  1  0  0  0  0
 17 37  1  0  0  0  0
 17 38  1  0  0  0  0
M  END
> <s_m_source_file>
AV-unprocessed.smi

> <i_m_source_file_index>
2040

> <i_lp_mmshare_version>
43012

> <i_f3d_flags>
0

> <s_epik_input>
W0NIM11jMVtjSF1jKG4objEpW0NIM10pW05IXUMoPU8pW05IXVtDQEhdKFtDSDNdKVtDQEBIXTJbQ0gyXVtDSDJdW0NIMl1PMg==

> <s_epik_cmdline>
J2VwaWtfcHl0aG9uJywgJy1waCcsICc3LjAnLCAnLXRuJywgJzgnLCAnLW1hJywgJzIwMCcsICctbWV0YWxfYmluZGluZycsICctaW1hZScsICc8aW5maWxlLm1hZT4nLCAnLW9tYWUnLCAnPG91dGZpbGUubWFlPic=

> <r_lp_tautomer_probability>
1

> <r_epik_Ionization_Penalty>
9.09088e-05

> <r_epik_Ionization_Penalty_Charging>
0

> <r_epik_Ionization_Penalty_Neutral>
9.09088e-05

> <r_epik_State_Penalty>
-0

> <r_epik_Charging_Adjusted_Penalty>
0

> <i_epik_Tot_Q>
0

> <i_epik_Tot_abs_Q>
0

> <r_epik_Metal_State_Penalty>
-0

> <b_epik_Metal_Only>
0

> <s_lp_Force_Field>
OPLS_2005

> <r_lp_Energy>
19.5884

> <b_lp_Chiralities_Consistent>
1

> <s_lp_Variant>
AV-unprocessed.smi:2040-2

> <Gold.Version>
5.8.1

> <Gold.Id.Protein>
6NUR|6NUR_protein|mol2

> <Gold.PLP.Fitness>
41.2248

> <Gold.PLP.PLP>
-37.5883

> <Gold.PLP.part.hbond>
-3.6908

> <Gold.PLP.part.metal>
0.0000

> <Gold.PLP.part.buried>
-2.4085

> <Gold.PLP.part.nonpolar>
-31.1040

> <Gold.PLP.part.repulsive>
0.4925

> <Gold.PLP.ligand.clash>
0.0000

> <Gold.PLP.ligand.torsion>
0.1546

> <Gold.PLP.Chemscore.Hbond>
1.3076

> <Gold.PLP.Chemscore.CHOScore>
0.0000

> <Gold.PLP.Chemscore.Metal>
0.0000

> <Gold.Chemscore.Hbonds>
donor molecule, donor type, donor heavy atom, donor atom, acceptor molecule, acceptor atom, score
      P1  H  7989  7998       L1    15  0.26
      P1  H  7997  8010       L1     7  1.00

> <Gold.PLP.Chemscore.Internal.Correction>
0.0228

> <Gold.Rescore>
     Score         DG    S(hbond)    S(metal)    S(lipo)     H(rot)  DE(clash)    DE(int)     intcor
     11.39     -14.25       1.16        0.00      68.76       1.23       0.14       2.73       ----

> <Gold.Chemscore.Fitness>
11.3862

> <Gold.Chemscore.DG>
-14.2499

> <Gold.Chemscore.ZeroCoef>
-5.4800

> <Gold.Chemscore.Hbond>
1.1626

> <Gold.Chemscore.Metal>
0.0000

> <Gold.Chemscore.Lipo>
68.7629

> <Gold.Chemscore.Internal_Hbond>
0.0000

> <Gold.Chemscore.DEClash>
0.1372

> <Gold.Chemscore.DEInternal>
2.7265

> <Gold.Chemscore.Rot>
1.2338

> <Gold.Chemscore.Internal.Correction>
   9.000000E+99

> <Gold.Chemscore.Hbonds>
donor molecule, donor type, donor heavy atom, donor atom, acceptor molecule, acceptor atom, score
      P1  H  7989  7998       L1    15  0.02
      P1  H  7997  8010       L1     7  0.85

> <Gold.Chemscore.Hbond.Weighted>
-3.8831

> <Gold.Chemscore.Metal.Weighted>
-0.0000

> <Gold.Chemscore.Lipo.Weighted>
-8.0453

> <Gold.Chemscore.Internal_Hbond.Weighted>
0.0000

> <Gold.Chemscore.DEClash.Weighted>
0.1372

> <Gold.Chemscore.DEInternal.Weighted>
2.7265

> <Gold.Chemscore.Rot.Weighted>
3.1584

> <Gold.Chemscore.Internal.Correction.Weighted>
   9.000000E+99

> <Gold.Protein.RotatedTorsions>
[ 6907 6896 6895 6894 ] final   65.08 input  -60.11 | X-H torsion
[ 7974 7965 7964 7962 ] final  161.73 input  175.53 | X-H torsion
[ 8008 7997 7996 7995 ] final   37.18 input   59.86 | X-H torsion
[ 10167 10162 10161 10158 ] final   69.16 input  -65.29 | X-H torsion
[ 10718 10713 10712 10709 ] final   14.76 input   66.30 | X-H torsion
[ 10763 10752 10751 10750 ] final  -41.26 input  -60.55 | X-H torsion
[ 11005 11000 10999 10996 ] final  116.79 input  -57.11 | X-H torsion

> <Gold.Protein.ActiveResidues>
 VAL166  LYS551  ARG553  GLY616  TRP617  ASP618  TYR619  PRO620  LYS621  CYS622 
 ASP623  PHE694  ASN695  SER759  ASP760  ASP761  ALA762  ILE779  LEU786  VAL792 
 PHE793  MET794  SER795  GLU796  ALA797  LYS798  CYS799  TRP800  GLU811  SER814 

> <Gold.Protein.RotatedAtoms>
  152.4380  134.5648  159.9904 H   0  0  0  0  0  0  0  0  0  0  0  0  # atno 6907 bound_to 6896
  151.5753  133.3379  159.3005 H   0  0  0  0  0  0  0  0  0  0  0  0  # atno 6908 bound_to 6896
  150.8281  134.7556  159.6895 H   0  0  0  0  0  0  0  0  0  0  0  0  # atno 6909 bound_to 6896
  144.7671  139.7940  143.6311 H   0  0  0  0  0  0  0  0  0  0  0  0  # atno 7974 bound_to 7965
  155.1996  140.3314  155.4345 H   0  0  0  0  0  0  0  0  0  0  0  0  # atno 8008 bound_to 7997
  156.2412  140.1896  156.7033 H   0  0  0  0  0  0  0  0  0  0  0  0  # atno 8009 bound_to 7997
  154.6150  140.0603  156.9529 H   0  0  0  0  0  0  0  0  0  0  0  0  # atno 8010 bound_to 7997
  140.0708  144.5154  150.7228 H   0  0  0  0  0  0  0  0  0  0  0  0  # atno 10167 bound_to 10162
  157.0437  130.6241  149.5755 H   0  0  0  0  0  0  0  0  0  0  0  0  # atno 10718 bound_to 10713
  153.9595  135.6741  153.4745 H   0  0  0  0  0  0  0  0  0  0  0  0  # atno 10763 bound_to 10752
  153.0845  135.4906  154.8566 H   0  0  0  0  0  0  0  0  0  0  0  0  # atno 10764 bound_to 10752
  154.7280  135.3132  154.8898 H   0  0  0  0  0  0  0  0  0  0  0  0  # atno 10765 bound_to 10752
  139.9053  134.9602  156.7252 H   0  0  0  0  0  0  0  0  0  0  0  0  # atno 11005 bound_to 11000
  146.1788  139.4970  142.9880 LP  0  0  0  0  0  0  0  0  0  0  0  0  # atno 17320 bound_to 7965
  145.6436  141.0279  143.1798 LP  0  0  0  0  0  0  0  0  0  0  0  0  # atno 17321 bound_to 7965
  140.7126  143.2518  151.4533 LP  0  0  0  0  0  0  0  0  0  0  0  0  # atno 17342 bound_to 10162
  139.5837  144.1652  152.2001 LP  0  0  0  0  0  0  0  0  0  0  0  0  # atno 17343 bound_to 10162
  156.0030  130.5112  150.7730 LP  0  0  0  0  0  0  0  0  0  0  0  0  # atno 17370 bound_to 10713
  157.5084  131.0924  151.0228 LP  0  0  0  0  0  0  0  0  0  0  0  0  # atno 17371 bound_to 10713
  140.6968  133.9341  155.8000 LP  0  0  0  0  0  0  0  0  0  0  0  0  # atno 17394 bound_to 11000
  141.0401  134.0634  157.3912 LP  0  0  0  0  0  0  0  0  0  0  0  0  # atno 17395 bound_to 11000

$$$$
