AV-unprocessed.smi:1005|AV-procd|sdf|4370|dock6
  -GOLD-   22720 2283D 1   1.00000     0.00000
 Structure written by MMmdl.
 57 59  0  0  0  0  0  0  0  0  3 V2000
  152.7551  143.4961  161.5395 C   0  0  0  0  0  0  0  0  0  0  0  0
  152.1919  142.9724  160.2302 C   0  0  0  0  0  0  0  0  0  0  0  0
  152.7589  141.8138  159.6528 C   0  0  0  0  0  0  0  0  0  0  0  0
  152.2644  141.2938  158.4367 C   0  0  0  0  0  0  0  0  0  0  0  0
  152.6516  140.1818  157.7091 N   0  0  0  0  0  0  0  0  0  0  0  0
  151.8050  140.2214  156.6842 C   0  0  0  0  0  0  0  0  0  0  0  0
  150.9080  141.2256  156.6655 N   0  0  0  0  0  0  0  0  0  0  0  0
  149.8748  141.4566  155.6712 C   0  0  0  0  0  0  0  0  0  0  0  0
  149.9165  140.4316  154.5176 C   0  0  2  0  0  0  0  0  0  0  0  0
  149.4051  141.0644  153.3622 O   0  0  0  0  0  0  0  0  0  0  0  0
  149.0910  139.1570  154.8030 C   0  0  0  0  0  0  0  0  0  0  0  0
  149.6918  138.2663  155.8320 N   0  3  1  0  0  0  0  0  0  0  0  0
  149.0931  138.3749  157.1876 C   0  0  0  0  0  0  0  0  0  0  0  0
  147.7384  137.6448  157.2705 C   0  0  0  0  0  0  0  0  0  0  0  0
  147.8893  136.2951  156.8433 O   0  0  0  0  0  0  0  0  0  0  0  0
  148.3365  136.1931  155.4959 C   0  0  2  0  0  0  0  0  0  0  0  0
  148.3450  134.6996  155.1157 C   0  0  0  0  0  0  0  0  0  0  0  0
  147.9623  134.4452  153.7017 N   0  3  0  0  0  0  0  0  0  0  0  0
  148.4124  133.1129  153.2405 C   0  0  0  0  0  0  0  0  0  0  0  0
  146.5204  134.6531  153.4287 C   0  0  0  0  0  0  0  0  0  0  0  0
  149.7355  136.8456  155.4055 C   0  0  0  0  0  0  0  0  0  0  0  0
  151.1812  141.9730  157.8072 C   0  0  0  0  0  0  0  0  0  0  0  0
  150.6125  143.1305  158.3689 C   0  0  0  0  0  0  0  0  0  0  0  0
  151.1132  143.6318  159.5881 C   0  0  0  0  0  0  0  0  0  0  0  0
  150.4856  144.8760  160.1912 C   0  0  0  0  0  0  0  0  0  0  0  0
  153.5970  142.8930  161.8809 H   0  0  0  0  0  0  0  0  0  0  0  0
  151.9928  143.4772  162.3184 H   0  0  0  0  0  0  0  0  0  0  0  0
  153.1058  144.5217  161.4220 H   0  0  0  0  0  0  0  0  0  0  0  0
  153.5804  141.3114  160.1424 H   0  0  0  0  0  0  0  0  0  0  0  0
  151.8311  139.4713  155.9069 H   0  0  0  0  0  0  0  0  0  0  0  0
  148.9071  141.4256  156.1743 H   0  0  0  0  0  0  0  0  0  0  0  0
  149.9893  142.4697  155.2825 H   0  0  0  0  0  0  0  0  0  0  0  0
  150.9580  140.1730  154.3299 H   0  0  0  0  0  0  0  0  0  0  0  0
  149.2852  140.4146  152.6861 H   0  0  0  0  0  0  0  0  0  0  0  0
  148.0822  139.4201  155.1150 H   0  0  0  0  0  0  0  0  0  0  0  0
  148.9862  138.6043  153.8683 H   0  0  0  0  0  0  0  0  0  0  0  0
  149.7845  137.9184  157.8970 H   0  0  0  0  0  0  0  0  0  0  0  0
  148.9903  139.4133  157.4979 H   0  0  0  0  0  0  0  0  0  0  0  0
  147.3781  137.6467  158.2991 H   0  0  0  0  0  0  0  0  0  0  0  0
  146.9761  138.1476  156.6739 H   0  0  0  0  0  0  0  0  0  0  0  0
  147.6233  136.7217  154.8638 H   0  0  0  0  0  0  0  0  0  0  0  0
  149.3452  134.3035  155.2980 H   0  0  0  0  0  0  0  0  0  0  0  0
  147.6730  134.1428  155.7708 H   0  0  0  0  0  0  0  0  0  0  0  0
  147.9223  132.3179  153.8039 H   0  0  0  0  0  0  0  0  0  0  0  0
  149.4906  133.0032  153.3612 H   0  0  0  0  0  0  0  0  0  0  0  0
  148.1855  132.9726  152.1831 H   0  0  0  0  0  0  0  0  0  0  0  0
  145.9056  134.0019  154.0512 H   0  0  0  0  0  0  0  0  0  0  0  0
  146.2923  134.4350  152.3849 H   0  0  0  0  0  0  0  0  0  0  0  0
  146.2197  135.6846  153.6085 H   0  0  0  0  0  0  0  0  0  0  0  0
  150.1402  136.7694  154.3958 H   0  0  0  0  0  0  0  0  0  0  0  0
  150.4321  136.3123  156.0535 H   0  0  0  0  0  0  0  0  0  0  0  0
  149.7944  143.6265  157.8684 H   0  0  0  0  0  0  0  0  0  0  0  0
  149.6293  145.2134  159.6067 H   0  0  0  0  0  0  0  0  0  0  0  0
  151.2109  145.6892  160.2250 H   0  0  0  0  0  0  0  0  0  0  0  0
  150.1391  144.6786  161.2058 H   0  0  0  0  0  0  0  0  0  0  0  0
  148.4657  135.1152  153.1380 H   0  0  0  0  0  0  0  0  0  0  0  0
  150.6523  138.5698  155.9144 H   0  0  0  0  0  0  0  0  0  0  0  0
  1  2  1  0  0  0  0
  1 26  1  0  0  0  0
  1 27  1  0  0  0  0
  1 28  1  0  0  0  0
  2 24  1  0  0  0  0
  2  3  2  0  0  0  0
  3  4  1  0  0  0  0
  3 29  1  0  0  0  0
  4 22  2  0  0  0  0
  4  5  1  0  0  0  0
  5  6  2  0  0  0  0
  6  7  1  0  0  0  0
  6 30  1  0  0  0  0
  7  8  1  0  0  0  0
  7 22  1  0  0  0  0
  8  9  1  0  0  0  0
  8 31  1  0  0  0  0
  8 32  1  0  0  0  0
  9 10  1  0  0  0  0
  9 11  1  0  0  0  0
  9 33  1  0  0  0  0
 10 34  1  0  0  0  0
 11 12  1  0  0  0  0
 11 35  1  0  0  0  0
 11 36  1  0  0  0  0
 12 21  1  0  0  0  0
 12 13  1  0  0  0  0
 12 57  1  0  0  0  0
 13 14  1  0  0  0  0
 13 37  1  0  0  0  0
 13 38  1  0  0  0  0
 14 15  1  0  0  0  0
 14 39  1  0  0  0  0
 14 40  1  0  0  0  0
 15 16  1  0  0  0  0
 16 17  1  0  0  0  0
 16 21  1  0  0  0  0
 16 41  1  0  0  0  0
 17 18  1  0  0  0  0
 17 42  1  0  0  0  0
 17 43  1  0  0  0  0
 18 19  1  0  0  0  0
 18 20  1  0  0  0  0
 18 56  1  0  0  0  0
 19 44  1  0  0  0  0
 19 45  1  0  0  0  0
 19 46  1  0  0  0  0
 20 47  1  0  0  0  0
 20 48  1  0  0  0  0
 20 49  1  0  0  0  0
 21 50  1  0  0  0  0
 21 51  1  0  0  0  0
 22 23  1  0  0  0  0
 23 24  2  0  0  0  0
 23 52  1  0  0  0  0
 24 25  1  0  0  0  0
 25 53  1  0  0  0  0
 25 54  1  0  0  0  0
 25 55  1  0  0  0  0
M  CHG  1  12   1
M  CHG  1  18   1
M  END
> <s_m_source_file>
AV-unprocessed.smi

> <i_m_source_file_index>
1005

> <i_lp_mmshare_version>
43012

> <i_f3d_flags>
0

> <s_epik_input>
W0NIM11jKFtjSF0xKWMoW0NIM10pW2NIXWMoYzEyKW4oW2NIXW4yKVtDSDJdW0NASF0oW09IXSlbQ0gyXU4zW0NIMl1bQ0gyXU9bQ0BIXShbQ0gyXTMpW0NIMl1OKFtDSDNdKVtDSDNd

> <s_epik_cmdline>
J2VwaWtfcHl0aG9uJywgJy1waCcsICc3LjAnLCAnLXRuJywgJzgnLCAnLW1hJywgJzIwMCcsICctbWV0YWxfYmluZGluZycsICctaW1hZScsICc8aW5maWxlLm1hZT4nLCAnLW9tYWUnLCAnPG91dGZpbGUubWFlPic=

> <r_epik_Ionization_Penalty>
1.0968

> <r_epik_Ionization_Penalty_Charging>
1.0096

> <r_epik_Ionization_Penalty_Neutral>
0.0871956

> <r_epik_State_Penalty>
1.31185

> <r_epik_Charging_Adjusted_Penalty>
2.32145

> <i_epik_Tot_Q>
2

> <i_epik_Tot_abs_Q>
2

> <r_epik_Metal_State_Penalty>
1.22442

> <b_epik_Metal_Only>
0

> <s_lp_Force_Field>
OPLS_2005

> <r_lp_Energy>
36.3086

> <b_lp_Chiralities_Consistent>
1

> <s_lp_Variant>
AV-unprocessed.smi:1005-9

> <Gold.Version>
5.8.1

> <Gold.Id.Protein>
6NUR|6NUR_protein|mol2

> <Gold.PLP.Fitness>
54.6709

> <Gold.PLP.PLP>
-43.2227

> <Gold.PLP.part.hbond>
-4.4274

> <Gold.PLP.part.metal>
0.0000

> <Gold.PLP.part.buried>
-2.8170

> <Gold.PLP.part.nonpolar>
-34.5073

> <Gold.PLP.part.repulsive>
0.0000

> <Gold.PLP.ligand.clash>
0.0000

> <Gold.PLP.ligand.torsion>
1.6542

> <Gold.PLP.Chemscore.Hbond>
4.8640

> <Gold.PLP.Chemscore.CHOScore>
0.0000

> <Gold.PLP.Chemscore.Metal>
0.0000

> <Gold.Chemscore.Hbonds>
donor molecule, donor type, donor heavy atom, donor atom, acceptor molecule, acceptor atom, score
      L1  H    10    34       P1  7957  0.88
      L1  H    18    56       P1  7948  2.00
      P1  H  7997  8008       L1     5  1.00
      P1  H  8011  8017       L1    10  0.90

> <Gold.PLP.Chemscore.Internal.Correction>
0.1645

> <Gold.Rescore>
     Score         DG    S(hbond)    S(metal)    S(lipo)     H(rot)  DE(clash)    DE(int)     intcor
     19.42     -22.10       2.93        0.00     112.68       2.48       0.88       1.80       ----

> <Gold.Chemscore.Fitness>
19.4246

> <Gold.Chemscore.DG>
-22.1046

> <Gold.Chemscore.ZeroCoef>
-5.4800

> <Gold.Chemscore.Hbond>
2.9321

> <Gold.Chemscore.Metal>
0.0000

> <Gold.Chemscore.Lipo>
112.6830

> <Gold.Chemscore.Internal_Hbond>
0.0000

> <Gold.Chemscore.DEClash>
0.8805

> <Gold.Chemscore.DEInternal>
1.7995

> <Gold.Chemscore.Rot>
2.4814

> <Gold.Chemscore.Internal.Correction>
   9.000000E+99

> <Gold.Chemscore.Hbonds>
donor molecule, donor type, donor heavy atom, donor atom, acceptor molecule, acceptor atom, score
      L1  H    10    34       P1  7957  0.85
      L1  H    18    56       P1  7948  0.85
      P1  H  7997  8008       L1     5  0.44
      P1  H  8011  8017       L1    10  0.18

> <Gold.Chemscore.Hbond.Weighted>
-9.7931

> <Gold.Chemscore.Metal.Weighted>
-0.0000

> <Gold.Chemscore.Lipo.Weighted>
-13.1839

> <Gold.Chemscore.Internal_Hbond.Weighted>
0.0000

> <Gold.Chemscore.DEClash.Weighted>
0.8805

> <Gold.Chemscore.DEInternal.Weighted>
1.7995

> <Gold.Chemscore.Rot.Weighted>
6.3524

> <Gold.Chemscore.Internal.Correction.Weighted>
   9.000000E+99

> <Gold.Protein.RotatedTorsions>
[ 6907 6896 6895 6894 ] final  -65.22 input  -60.11 | X-H torsion
[ 7974 7965 7964 7962 ] final  147.33 input  175.53 | X-H torsion
[ 8008 7997 7996 7995 ] final  -74.63 input   59.86 | X-H torsion
[ 10167 10162 10161 10158 ] final  -41.89 input  -65.29 | X-H torsion
[ 10718 10713 10712 10709 ] final  -67.11 input   66.30 | X-H torsion
[ 10763 10752 10751 10750 ] final   85.33 input  -60.55 | X-H torsion
[ 11005 11000 10999 10996 ] final   -6.12 input  -57.11 | X-H torsion

> <Gold.Protein.ActiveResidues>
 VAL166  LYS551  ARG553  GLY616  TRP617  ASP618  TYR619  PRO620  LYS621  CYS622 
 ASP623  PHE694  ASN695  SER759  ASP760  ASP761  ALA762  ILE779  LEU786  VAL792 
 PHE793  MET794  SER795  GLU796  ALA797  LYS798  CYS799  TRP800  GLU811  SER814 

> <Gold.Protein.RotatedAtoms>
  150.7537  134.6190  159.6125 H   0  0  0  0  0  0  0  0  0  0  0  0  # atno 6907 bound_to 6896
  152.3502  134.7013  160.0247 H   0  0  0  0  0  0  0  0  0  0  0  0  # atno 6908 bound_to 6896
  151.7437  133.3287  159.3409 H   0  0  0  0  0  0  0  0  0  0  0  0  # atno 6909 bound_to 6896
  144.8600  139.6016  143.5935 H   0  0  0  0  0  0  0  0  0  0  0  0  # atno 7974 bound_to 7965
  154.5347  140.0758  156.8407 H   0  0  0  0  0  0  0  0  0  0  0  0  # atno 8008 bound_to 7997
  155.3302  140.3401  155.4221 H   0  0  0  0  0  0  0  0  0  0  0  0  # atno 8009 bound_to 7997
  156.1816  140.1654  156.8249 H   0  0  0  0  0  0  0  0  0  0  0  0  # atno 8010 bound_to 7997
  140.6988  143.3069  151.3130 H   0  0  0  0  0  0  0  0  0  0  0  0  # atno 10167 bound_to 10162
  156.0575  130.4272  150.1807 H   0  0  0  0  0  0  0  0  0  0  0  0  # atno 10718 bound_to 10713
  153.1465  135.4621  154.9573 H   0  0  0  0  0  0  0  0  0  0  0  0  # atno 10763 bound_to 10752
  154.7790  135.3182  154.8033 H   0  0  0  0  0  0  0  0  0  0  0  0  # atno 10764 bound_to 10752
  153.8546  135.6918  153.4843 H   0  0  0  0  0  0  0  0  0  0  0  0  # atno 10765 bound_to 10752
  140.6986  133.9009  155.8667 H   0  0  0  0  0  0  0  0  0  0  0  0  # atno 11005 bound_to 11000
  146.2853  139.6986  142.9200 LP  0  0  0  0  0  0  0  0  0  0  0  0  # atno 17320 bound_to 7965
  145.4332  141.0417  143.2899 LP  0  0  0  0  0  0  0  0  0  0  0  0  # atno 17321 bound_to 7965
  139.6478  144.0419  152.2603 LP  0  0  0  0  0  0  0  0  0  0  0  0  # atno 17342 bound_to 10162
  139.9945  144.6337  150.7784 LP  0  0  0  0  0  0  0  0  0  0  0  0  # atno 17343 bound_to 10162
  156.9880  130.9885  151.3421 LP  0  0  0  0  0  0  0  0  0  0  0  0  # atno 17370 bound_to 10713
  157.5557  130.8212  149.8202 LP  0  0  0  0  0  0  0  0  0  0  0  0  # atno 17371 bound_to 10713
  141.0183  134.0925  157.4148 LP  0  0  0  0  0  0  0  0  0  0  0  0  # atno 17394 bound_to 11000
  139.8903  135.0111  156.6729 LP  0  0  0  0  0  0  0  0  0  0  0  0  # atno 17395 bound_to 11000

$$$$
