AV-unprocessed.smi:1330|AV-procd|sdf|5485|dock5
  -GOLD-   22720 5 63D 1   1.00000     0.00000
 Structure written by MMmdl.
 42 43  0  0  0  0  0  0  0  0  1 V2000
  145.8606  136.0737  155.9822 C   0  0  0  0  0  0  0  0  0  0  0  0
  147.0223  136.2562  156.9214 C   0  0  0  0  0  0  0  0  0  0  0  0
  148.1895  136.3910  156.3822 N   0  0  0  0  0  0  0  0  0  0  0  0
  149.3211  136.5649  157.1533 N   0  0  0  0  0  0  0  0  0  0  0  0
  150.5567  136.7044  156.3745 C   0  0  0  0  0  0  0  0  0  0  0  0
  151.1283  138.1380  156.4515 C   0  0  2  0  0  0  0  0  0  0  0  0
  151.0948  138.7099  155.1595 O   0  0  0  0  0  0  0  0  0  0  0  0
  152.5900  138.1552  156.9221 C   0  0  0  0  0  0  0  0  0  0  0  0
  152.8899  139.4498  157.4157 O   0  0  0  0  0  0  0  0  0  0  0  0
  152.4357  139.6600  158.7424 C   0  0  0  0  0  0  0  0  0  0  0  0
  152.2789  141.1344  159.0656 C   0  0  0  0  0  0  0  0  0  0  0  0
  151.5064  141.9740  158.2335 C   0  0  0  0  0  0  0  0  0  0  0  0
  151.3810  143.3450  158.5307 C   0  0  0  0  0  0  0  0  0  0  0  0
  152.0320  143.8849  159.6569 C   0  0  0  0  0  0  0  0  0  0  0  0
  151.8795  145.5647  160.0196 Cl  0  0  0  0  0  0  0  0  0  0  0  0
  152.8106  143.0528  160.4847 C   0  0  0  0  0  0  0  0  0  0  0  0
  152.9359  141.6815  160.1878 C   0  0  0  0  0  0  0  0  0  0  0  0
  149.3333  136.6198  158.5161 C   0  0  0  0  0  0  0  0  0  0  0  0
  150.3674  136.7918  159.1635 O   0  0  0  0  0  0  0  0  0  0  0  0
  148.0086  136.4625  159.1206 C   0  0  0  0  0  0  0  0  0  0  0  0
  147.9761  136.5101  160.5469 C   0  0  0  0  0  0  0  0  0  0  0  0
  147.9616  136.5645  161.7031 N   0  0  0  0  0  0  0  0  0  0  0  0
  146.8893  136.2861  158.3745 C   0  0  0  0  0  0  0  0  0  0  0  0
  145.4906  136.1213  158.9529 C   0  0  0  0  0  0  0  0  0  0  0  0
  145.1065  136.8441  156.1438 H   0  0  0  0  0  0  0  0  0  0  0  0
  145.3902  135.1022  156.1345 H   0  0  0  0  0  0  0  0  0  0  0  0
  146.1691  136.1305  154.9370 H   0  0  0  0  0  0  0  0  0  0  0  0
  151.2868  135.9894  156.7583 H   0  0  0  0  0  0  0  0  0  0  0  0
  150.4032  136.4060  155.3355 H   0  0  0  0  0  0  0  0  0  0  0  0
  150.5378  138.7640  157.1217 H   0  0  0  0  0  0  0  0  0  0  0  0
  150.1913  138.8255  154.9074 H   0  0  0  0  0  0  0  0  0  0  0  0
  152.7558  137.4004  157.6928 H   0  0  0  0  0  0  0  0  0  0  0  0
  153.2559  137.9270  156.0878 H   0  0  0  0  0  0  0  0  0  0  0  0
  151.4779  139.1566  158.8835 H   0  0  0  0  0  0  0  0  0  0  0  0
  153.1415  139.2258  159.4519 H   0  0  0  0  0  0  0  0  0  0  0  0
  151.0066  141.5723  157.3641 H   0  0  0  0  0  0  0  0  0  0  0  0
  150.7865  143.9815  157.8920 H   0  0  0  0  0  0  0  0  0  0  0  0
  153.3138  143.4651  161.3469 H   0  0  0  0  0  0  0  0  0  0  0  0
  153.5384  141.0508  160.8251 H   0  0  0  0  0  0  0  0  0  0  0  0
  145.4955  136.0898  160.0419 H   0  0  0  0  0  0  0  0  0  0  0  0
  145.0359  135.1939  158.6037 H   0  0  0  0  0  0  0  0  0  0  0  0
  144.8530  136.9523  158.6502 H   0  0  0  0  0  0  0  0  0  0  0  0
  1  2  1  0  0  0  0
  1 25  1  0  0  0  0
  1 26  1  0  0  0  0
  1 27  1  0  0  0  0
  2 23  1  0  0  0  0
  2  3  2  0  0  0  0
  3  4  1  0  0  0  0
  4  5  1  0  0  0  0
  4 18  1  0  0  0  0
  5  6  1  0  0  0  0
  5 28  1  0  0  0  0
  5 29  1  0  0  0  0
  6  7  1  0  0  0  0
  6  8  1  0  0  0  0
  6 30  1  0  0  0  0
  7 31  1  0  0  0  0
  8  9  1  0  0  0  0
  8 32  1  0  0  0  0
  8 33  1  0  0  0  0
  9 10  1  0  0  0  0
 10 11  1  0  0  0  0
 10 34  1  0  0  0  0
 10 35  1  0  0  0  0
 11 17  1  0  0  0  0
 11 12  2  0  0  0  0
 12 13  1  0  0  0  0
 12 36  1  0  0  0  0
 13 14  2  0  0  0  0
 13 37  1  0  0  0  0
 14 15  1  0  0  0  0
 14 16  1  0  0  0  0
 16 17  2  0  0  0  0
 16 38  1  0  0  0  0
 17 39  1  0  0  0  0
 18 19  2  0  0  0  0
 18 20  1  0  0  0  0
 20 21  1  0  0  0  0
 20 23  2  0  0  0  0
 21 22  3  0  0  0  0
 23 24  1  0  0  0  0
 24 40  1  0  0  0  0
 24 41  1  0  0  0  0
 24 42  1  0  0  0  0
M  END
> <s_m_source_file>
AV-unprocessed.smi

> <i_m_source_file_index>
1330

> <i_lp_mmshare_version>
43012

> <i_f3d_flags>
0

> <s_epik_input>
TiNDYyhjMVtDSDNdKWMoPU8pbihuYzFbQ0gzXSlbQ0gyXVtDQEhdKFtPSF0pW0NIMl1PW0NIMl1jMltjSF1bY0hdYyhDbClbY0hdW2NIXTI=

> <s_epik_cmdline>
J2VwaWtfcHl0aG9uJywgJy1waCcsICc3LjAnLCAnLXRuJywgJzgnLCAnLW1hJywgJzIwMCcsICctbWV0YWxfYmluZGluZycsICctaW1hZScsICc8aW5maWxlLm1hZT4nLCAnLW9tYWUnLCAnPG91dGZpbGUubWFlPic=

> <r_lp_tautomer_probability>
1

> <r_epik_Ionization_Penalty>
6.27695e-08

> <r_epik_Ionization_Penalty_Charging>
2.19172e-10

> <r_epik_Ionization_Penalty_Neutral>
6.25504e-08

> <r_epik_State_Penalty>
-0

> <r_epik_Charging_Adjusted_Penalty>
2.19172e-10

> <i_epik_Tot_Q>
0

> <i_epik_Tot_abs_Q>
0

> <r_epik_Metal_State_Penalty>
-0

> <b_epik_Metal_Only>
0

> <s_lp_Force_Field>
OPLS_2005

> <r_lp_Energy>
28.5495

> <b_lp_Chiralities_Consistent>
1

> <s_lp_Variant>
AV-unprocessed.smi:1330-1

> <Gold.Version>
5.8.1

> <Gold.Id.Protein>
6NUR|6NUR_protein|mol2

> <Gold.PLP.Fitness>
42.7552

> <Gold.PLP.PLP>
-36.3487

> <Gold.PLP.part.hbond>
-3.0000

> <Gold.PLP.part.metal>
0.0000

> <Gold.PLP.part.buried>
-5.8959

> <Gold.PLP.part.nonpolar>
-27.9733

> <Gold.PLP.part.repulsive>
0.0171

> <Gold.PLP.ligand.clash>
0.0000

> <Gold.PLP.ligand.torsion>
1.2644

> <Gold.PLP.Chemscore.Hbond>
2.9500

> <Gold.PLP.Chemscore.CHOScore>
0.0000

> <Gold.PLP.Chemscore.Metal>
0.0000

> <Gold.Chemscore.Hbonds>
donor molecule, donor type, donor heavy atom, donor atom, acceptor molecule, acceptor atom, score
      P1  H  6896  6907       L1    19  1.00
      P1  H  6931  6943       L1    22  0.90
      P1  H  7997  8010       L1     9  1.00

> <Gold.PLP.Chemscore.Internal.Correction>
0.0852

> <Gold.Rescore>
     Score         DG    S(hbond)    S(metal)    S(lipo)     H(rot)  DE(clash)    DE(int)     intcor
     17.43     -18.75       2.43        0.00      98.41       2.48       0.01       1.32       ----

> <Gold.Chemscore.Fitness>
17.4285

> <Gold.Chemscore.DG>
-18.7534

> <Gold.Chemscore.ZeroCoef>
-5.4800

> <Gold.Chemscore.Hbond>
2.4257

> <Gold.Chemscore.Metal>
0.0000

> <Gold.Chemscore.Lipo>
98.4150

> <Gold.Chemscore.Internal_Hbond>
0.0000

> <Gold.Chemscore.DEClash>
0.0073

> <Gold.Chemscore.DEInternal>
1.3176

> <Gold.Chemscore.Rot>
2.4777

> <Gold.Chemscore.Internal.Correction>
   9.000000E+99

> <Gold.Chemscore.Hbonds>
donor molecule, donor type, donor heavy atom, donor atom, acceptor molecule, acceptor atom, score
      P1  H  6896  6907       L1    19  0.58
      P1  H  6931  6943       L1    22  0.17
      P1  H  7997  8010       L1     9  0.74

> <Gold.Chemscore.Hbond.Weighted>
-8.1017

> <Gold.Chemscore.Metal.Weighted>
-0.0000

> <Gold.Chemscore.Lipo.Weighted>
-11.5146

> <Gold.Chemscore.Internal_Hbond.Weighted>
0.0000

> <Gold.Chemscore.DEClash.Weighted>
0.0073

> <Gold.Chemscore.DEInternal.Weighted>
1.3176

> <Gold.Chemscore.Rot.Weighted>
6.3428

> <Gold.Chemscore.Internal.Correction.Weighted>
   9.000000E+99

> <Gold.Protein.RotatedTorsions>
[ 6907 6896 6895 6894 ] final  -38.60 input  -60.11 | X-H torsion
[ 7974 7965 7964 7962 ] final   94.35 input  175.53 | X-H torsion
[ 8008 7997 7996 7995 ] final   61.10 input   59.86 | X-H torsion
[ 10167 10162 10161 10158 ] final  155.93 input  -65.29 | X-H torsion
[ 10718 10713 10712 10709 ] final  122.92 input   66.30 | X-H torsion
[ 10763 10752 10751 10750 ] final  105.10 input  -60.55 | X-H torsion
[ 11005 11000 10999 10996 ] final -115.32 input  -57.11 | X-H torsion

> <Gold.Protein.ActiveResidues>
 VAL166  LYS551  ARG553  GLY616  TRP617  ASP618  TYR619  PRO620  LYS621  CYS622 
 ASP623  PHE694  ASN695  SER759  ASP760  ASP761  ALA762  ILE779  LEU786  VAL792 
 PHE793  MET794  SER795  GLU796  ALA797  LYS798  CYS799  TRP800  GLU811  SER814 

> <Gold.Protein.RotatedAtoms>
  151.0005  134.9318  159.7950 H   0  0  0  0  0  0  0  0  0  0  0  0  # atno 6907 bound_to 6896
  152.5276  134.3161  159.9141 H   0  0  0  0  0  0  0  0  0  0  0  0  # atno 6908 bound_to 6896
  151.3166  133.4016  159.2685 H   0  0  0  0  0  0  0  0  0  0  0  0  # atno 6909 bound_to 6896
  145.4667  139.2284  143.2957 H   0  0  0  0  0  0  0  0  0  0  0  0  # atno 7974 bound_to 7965
  155.5929  140.3493  155.4572 H   0  0  0  0  0  0  0  0  0  0  0  0  # atno 8008 bound_to 7997
  156.0287  140.1270  157.0306 H   0  0  0  0  0  0  0  0  0  0  0  0  # atno 8009 bound_to 7997
  154.4343  140.1048  156.6054 H   0  0  0  0  0  0  0  0  0  0  0  0  # atno 8010 bound_to 7997
  139.4821  144.5054  151.8105 H   0  0  0  0  0  0  0  0  0  0  0  0  # atno 10167 bound_to 10162
  157.5705  131.1083  150.8375 H   0  0  0  0  0  0  0  0  0  0  0  0  # atno 10718 bound_to 10713
  153.3748  135.3921  155.1815 H   0  0  0  0  0  0  0  0  0  0  0  0  # atno 10763 bound_to 10752
  154.8699  135.3711  154.4931 H   0  0  0  0  0  0  0  0  0  0  0  0  # atno 10764 bound_to 10752
  153.5402  135.7084  153.5701 H   0  0  0  0  0  0  0  0  0  0  0  0  # atno 10765 bound_to 10752
  141.0495  133.9710  157.2861 H   0  0  0  0  0  0  0  0  0  0  0  0  # atno 11005 bound_to 11000
  146.2420  140.5441  142.8930 LP  0  0  0  0  0  0  0  0  0  0  0  0  # atno 17320 bound_to 7965
  144.7970  140.6141  143.6503 LP  0  0  0  0  0  0  0  0  0  0  0  0  # atno 17321 bound_to 7965
  140.4552  144.1800  150.5901 LP  0  0  0  0  0  0  0  0  0  0  0  0  # atno 17342 bound_to 10162
  140.4543  143.2474  151.9305 LP  0  0  0  0  0  0  0  0  0  0  0  0  # atno 17343 bound_to 10162
  156.8848  130.5192  149.5289 LP  0  0  0  0  0  0  0  0  0  0  0  0  # atno 17370 bound_to 10713
  156.0751  130.5775  150.9458 LP  0  0  0  0  0  0  0  0  0  0  0  0  # atno 17371 bound_to 10713
  139.9339  135.0198  156.8490 LP  0  0  0  0  0  0  0  0  0  0  0  0  # atno 17394 bound_to 11000
  140.6083  134.0107  155.7566 LP  0  0  0  0  0  0  0  0  0  0  0  0  # atno 17395 bound_to 11000

$$$$
