AV-unprocessed.smi:802|AV-procd|sdf|3792|dock9
  -GOLD-   22720 1233D 1   1.00000     0.00000
 Structure written by MMmdl.
 37 38  0  0  0  0  0  0  0  0  2 V2000
  147.4555  139.7576  154.1856 C   0  0  0  0  0  0  0  0  0  0  0  0
  148.9245  139.6812  154.4780 C   0  0  0  0  0  0  0  0  0  0  0  0
  149.7493  138.5272  154.5720 C   0  0  0  0  0  0  0  0  0  0  0  0
  150.9875  139.0364  154.8451 C   0  0  0  0  0  0  0  0  0  0  0  0
  152.3211  138.4063  155.0712 C   0  0  0  0  0  0  0  0  0  0  0  0
  152.5464  138.0324  156.8615 S   0  0  0  0  0  0  0  0  0  0  0  0
  151.2491  137.5258  157.3389 O   0  0  0  0  0  0  0  0  0  0  0  0
  153.6928  137.1122  156.9445 O   0  0  0  0  0  0  0  0  0  0  0  0
  152.8879  139.5098  157.4322 N   0  5  0  0  0  0  0  0  0  0  0  0
  151.9270  140.1774  158.2942 C   0  0  0  0  0  0  0  0  0  0  0  0
  152.3658  141.6430  158.5657 C   0  0  0  0  0  0  0  0  0  0  0  0
  152.3229  142.0322  160.0698 C   0  0  0  0  0  0  0  0  0  0  0  0
  152.8054  143.4746  160.2970 C   0  0  0  0  0  0  0  0  0  0  0  0
  151.9896  144.4748  159.4662 C   0  0  0  0  0  0  0  0  0  0  0  0
  152.0221  144.1065  157.9762 C   0  0  0  0  0  0  0  0  0  0  0  0
  151.5359  142.6660  157.7449 C   0  0  0  0  0  0  0  0  0  0  0  0
  150.9288  140.3912  154.9230 O   0  0  0  0  0  0  0  0  0  0  0  0
  149.6091  140.7932  154.6883 N   0  0  0  0  0  0  0  0  0  0  0  0
  147.0450  138.7705  153.9728 H   0  0  0  0  0  0  0  0  0  0  0  0
  147.2593  140.3912  153.3205 H   0  0  0  0  0  0  0  0  0  0  0  0
  146.9079  140.1695  155.0336 H   0  0  0  0  0  0  0  0  0  0  0  0
  149.4802  137.4886  154.4497 H   0  0  0  0  0  0  0  0  0  0  0  0
  152.4111  137.4750  154.5121 H   0  0  0  0  0  0  0  0  0  0  0  0
  153.1226  139.0720  154.7521 H   0  0  0  0  0  0  0  0  0  0  0  0
  150.9371  140.1860  157.8368 H   0  0  0  0  0  0  0  0  0  0  0  0
  151.8056  139.6621  159.2476 H   0  0  0  0  0  0  0  0  0  0  0  0
  153.4002  141.7375  158.2299 H   0  0  0  0  0  0  0  0  0  0  0  0
  151.3085  141.9353  160.4631 H   0  0  0  0  0  0  0  0  0  0  0  0
  152.9481  141.3679  160.6696 H   0  0  0  0  0  0  0  0  0  0  0  0
  152.7333  143.7269  161.3553 H   0  0  0  0  0  0  0  0  0  0  0  0
  153.8604  143.5527  160.0318 H   0  0  0  0  0  0  0  0  0  0  0  0
  150.9573  144.4876  159.8184 H   0  0  0  0  0  0  0  0  0  0  0  0
  152.3793  145.4828  159.6100 H   0  0  0  0  0  0  0  0  0  0  0  0
  151.4032  144.8022  157.4090 H   0  0  0  0  0  0  0  0  0  0  0  0
  153.0381  144.2143  157.5944 H   0  0  0  0  0  0  0  0  0  0  0  0
  151.5965  142.4538  156.6752 H   0  0  0  0  0  0  0  0  0  0  0  0
  150.4781  142.6074  158.0112 H   0  0  0  0  0  0  0  0  0  0  0  0
  1  2  1  0  0  0  0
  1 19  1  0  0  0  0
  1 20  1  0  0  0  0
  1 21  1  0  0  0  0
  2 18  2  0  0  0  0
  2  3  1  0  0  0  0
  3  4  2  0  0  0  0
  3 22  1  0  0  0  0
  4  5  1  0  0  0  0
  4 17  1  0  0  0  0
  5  6  1  0  0  0  0
  5 23  1  0  0  0  0
  5 24  1  0  0  0  0
  6  7  2  0  0  0  0
  6  8  2  0  0  0  0
  6  9  1  0  0  0  0
  9 10  1  0  0  0  0
 10 11  1  0  0  0  0
 10 25  1  0  0  0  0
 10 26  1  0  0  0  0
 11 16  1  0  0  0  0
 11 12  1  0  0  0  0
 11 27  1  0  0  0  0
 12 13  1  0  0  0  0
 12 28  1  0  0  0  0
 12 29  1  0  0  0  0
 13 14  1  0  0  0  0
 13 30  1  0  0  0  0
 13 31  1  0  0  0  0
 14 15  1  0  0  0  0
 14 32  1  0  0  0  0
 14 33  1  0  0  0  0
 15 16  1  0  0  0  0
 15 34  1  0  0  0  0
 15 35  1  0  0  0  0
 16 36  1  0  0  0  0
 16 37  1  0  0  0  0
 17 18  1  0  0  0  0
M  CHG  1   9  -1
M  END
> <s_m_source_file>
AV-unprocessed.smi

> <i_m_source_file_index>
802

> <i_lp_mmshare_version>
43012

> <i_f3d_flags>
0

> <s_epik_input>
W0NIM11jMVtjSF1jKG9uMSlbQ0gyXVMoPU8pKD1PKVtOSF1bQ0gyXVtDSF0yW0NIMl1bQ0gyXVtDSDJdW0NIMl1bQ0gyXTI=

> <s_epik_cmdline>
J2VwaWtfcHl0aG9uJywgJy1waCcsICc3LjAnLCAnLXRuJywgJzgnLCAnLW1hJywgJzIwMCcsICctbWV0YWxfYmluZGluZycsICctaW1hZScsICc8aW5maWxlLm1hZT4nLCAnLW9tYWUnLCAnPG91dGZpbGUubWFlPic=

> <r_lp_tautomer_probability>
1

> <r_epik_Ionization_Penalty>
5.54077

> <r_epik_Ionization_Penalty_Charging>
5.54077

> <r_epik_Ionization_Penalty_Neutral>
8.84355e-10

> <r_epik_State_Penalty>
5.54071

> <r_epik_Charging_Adjusted_Penalty>
11.0815

> <i_epik_Tot_Q>
-1

> <i_epik_Tot_abs_Q>
1

> <r_epik_Metal_State_Penalty>
1.54279

> <b_epik_Metal_Only>
1

> <s_lp_Force_Field>
OPLS_2005

> <r_lp_Energy>
6.62566

> <b_lp_Chiralities_Consistent>
1

> <s_lp_Variant>
AV-unprocessed.smi:802-2

> <Gold.Version>
5.8.1

> <Gold.Id.Protein>
6NUR|6NUR_protein|mol2

> <Gold.PLP.Fitness>
45.0439

> <Gold.PLP.PLP>
-38.8546

> <Gold.PLP.part.hbond>
-3.5160

> <Gold.PLP.part.metal>
0.0000

> <Gold.PLP.part.buried>
-4.1290

> <Gold.PLP.part.nonpolar>
-31.3399

> <Gold.PLP.part.repulsive>
0.2007

> <Gold.PLP.ligand.clash>
0.0000

> <Gold.PLP.ligand.torsion>
1.9038

> <Gold.PLP.Chemscore.Hbond>
3.0000

> <Gold.PLP.Chemscore.CHOScore>
0.0000

> <Gold.PLP.Chemscore.Metal>
0.0000

> <Gold.Chemscore.Hbonds>
donor molecule, donor type, donor heavy atom, donor atom, acceptor molecule, acceptor atom, score
      P1  H  7989  7998       L1    17  1.00
      P1  H  7997  8009       L1     9  2.00

> <Gold.PLP.Chemscore.Internal.Correction>
0.9969

> <Gold.Rescore>
     Score         DG    S(hbond)    S(metal)    S(lipo)     H(rot)  DE(clash)    DE(int)     intcor
     17.08     -19.10       1.53        0.00     105.35       1.50       0.02       2.00       ----

> <Gold.Chemscore.Fitness>
17.0780

> <Gold.Chemscore.DG>
-19.0979

> <Gold.Chemscore.ZeroCoef>
-5.4800

> <Gold.Chemscore.Hbond>
1.5333

> <Gold.Chemscore.Metal>
0.0000

> <Gold.Chemscore.Lipo>
105.3453

> <Gold.Chemscore.Internal_Hbond>
0.0000

> <Gold.Chemscore.DEClash>
0.0207

> <Gold.Chemscore.DEInternal>
1.9992

> <Gold.Chemscore.Rot>
1.4956

> <Gold.Chemscore.Internal.Correction>
   9.000000E+99

> <Gold.Chemscore.Hbonds>
donor molecule, donor type, donor heavy atom, donor atom, acceptor molecule, acceptor atom, score
      P1  H  7989  7998       L1    17  0.10
      P1  H  7997  8009       L1     9  0.82

> <Gold.Chemscore.Hbond.Weighted>
-5.1213

> <Gold.Chemscore.Metal.Weighted>
-0.0000

> <Gold.Chemscore.Lipo.Weighted>
-12.3254

> <Gold.Chemscore.Internal_Hbond.Weighted>
0.0000

> <Gold.Chemscore.DEClash.Weighted>
0.0207

> <Gold.Chemscore.DEInternal.Weighted>
1.9992

> <Gold.Chemscore.Rot.Weighted>
3.8287

> <Gold.Chemscore.Internal.Correction.Weighted>
   9.000000E+99

> <Gold.Protein.RotatedTorsions>
[ 6907 6896 6895 6894 ] final  -22.37 input  -60.11 | X-H torsion
[ 7974 7965 7964 7962 ] final  123.08 input  175.53 | X-H torsion
[ 8008 7997 7996 7995 ] final  158.74 input   59.86 | X-H torsion
[ 10167 10162 10161 10158 ] final  107.62 input  -65.29 | X-H torsion
[ 10718 10713 10712 10709 ] final  118.48 input   66.30 | X-H torsion
[ 10763 10752 10751 10750 ] final   67.71 input  -60.55 | X-H torsion
[ 11005 11000 10999 10996 ] final  -46.69 input  -57.11 | X-H torsion

> <Gold.Protein.ActiveResidues>
 VAL166  LYS551  ARG553  GLY616  TRP617  ASP618  TYR619  PRO620  LYS621  CYS622 
 ASP623  PHE694  ASN695  SER759  ASP760  ASP761  ALA762  ILE779  LEU786  VAL792 
 PHE793  MET794  SER795  GLU796  ALA797  LYS798  CYS799  TRP800  GLU811  SER814 

> <Gold.Protein.RotatedAtoms>
  151.2197  135.0513  159.8944 H   0  0  0  0  0  0  0  0  0  0  0  0  # atno 6907 bound_to 6896
  152.5416  134.0655  159.8181 H   0  0  0  0  0  0  0  0  0  0  0  0  # atno 6908 bound_to 6896
  151.0819  133.5335  159.2652 H   0  0  0  0  0  0  0  0  0  0  0  0  # atno 6909 bound_to 6896
  145.1001  139.3525  143.4816 H   0  0  0  0  0  0  0  0  0  0  0  0  # atno 7974 bound_to 7965
  156.2283  140.1850  156.7306 H   0  0  0  0  0  0  0  0  0  0  0  0  # atno 8008 bound_to 7997
  154.5979  140.0640  156.9357 H   0  0  0  0  0  0  0  0  0  0  0  0  # atno 8009 bound_to 7997
  155.2224  140.3308  155.4316 H   0  0  0  0  0  0  0  0  0  0  0  0  # atno 8010 bound_to 7997
  139.6912  144.7107  151.1345 H   0  0  0  0  0  0  0  0  0  0  0  0  # atno 10167 bound_to 10162
  157.6027  131.1048  150.7762 H   0  0  0  0  0  0  0  0  0  0  0  0  # atno 10718 bound_to 10713
  153.0199  135.5274  154.7022 H   0  0  0  0  0  0  0  0  0  0  0  0  # atno 10763 bound_to 10752
  154.6128  135.2880  155.0416 H   0  0  0  0  0  0  0  0  0  0  0  0  # atno 10764 bound_to 10752
  154.1431  135.6575  153.4999 H   0  0  0  0  0  0  0  0  0  0  0  0  # atno 10765 bound_to 10752
  141.0594  133.6714  156.3191 H   0  0  0  0  0  0  0  0  0  0  0  0  # atno 11005 bound_to 11000
  146.3530  140.0874  142.8614 LP  0  0  0  0  0  0  0  0  0  0  0  0  # atno 17320 bound_to 7965
  145.0966  140.9319  143.4737 LP  0  0  0  0  0  0  0  0  0  0  0  0  # atno 17321 bound_to 7965
  140.7683  143.5556  150.9155 LP  0  0  0  0  0  0  0  0  0  0  0  0  # atno 17342 bound_to 10162
  139.9234  143.6579  152.3092 LP  0  0  0  0  0  0  0  0  0  0  0  0  # atno 17343 bound_to 10162
  156.8158  130.4967  149.5350 LP  0  0  0  0  0  0  0  0  0  0  0  0  # atno 17370 bound_to 10713
  156.1105  130.6036  151.0039 LP  0  0  0  0  0  0  0  0  0  0  0  0  # atno 17371 bound_to 10713
  140.5898  134.5662  157.5497 LP  0  0  0  0  0  0  0  0  0  0  0  0  # atno 17394 bound_to 11000
  139.9419  134.7771  156.0657 LP  0  0  0  0  0  0  0  0  0  0  0  0  # atno 17395 bound_to 11000

$$$$
