AV-unprocessed.smi:671|AV-procd|sdf|3284|dock1
  -GOLD-   22720 0243D 1   1.00000     0.00000
 Structure written by MMmdl.
 50 51  0  0  0  0  0  0  0  0  2 V2000
  149.0116  141.3950  154.4861 C   0  0  0  0  0  0  0  0  0  0  0  0
  149.9120  141.5479  155.6655 C   0  0  0  0  0  0  0  0  0  0  0  0
  150.1954  142.7348  156.2660 N   0  3  0  0  0  0  0  0  0  0  0  0
  151.0354  142.5457  157.2938 N   0  0  0  0  0  0  0  0  0  0  0  0
  151.4633  143.7037  158.0792 C   0  0  0  0  0  0  0  0  0  0  0  0
  151.3396  141.2225  157.4155 C   0  0  0  0  0  0  0  0  0  0  0  0
  152.2454  140.6518  158.4571 C   0  0  0  0  0  0  0  0  0  0  0  0
  150.6288  140.5877  156.3889 C   0  0  0  0  0  0  0  0  0  0  0  0
  150.6364  139.1109  156.1075 C   0  0  0  0  0  0  0  0  0  0  0  0
  151.0880  138.7643  154.6712 C   0  0  1  0  0  0  0  0  0  0  0  0
  152.5979  138.9606  154.4622 C   0  0  0  0  0  0  0  0  0  0  0  0
  150.7468  137.3753  154.3565 N   0  0  0  0  0  0  0  0  0  0  0  0
  151.2039  136.2494  154.9345 C   0  0  0  0  0  0  0  0  0  0  0  0
  152.0223  136.2799  155.8512 O   0  0  0  0  0  0  0  0  0  0  0  0
  150.7020  135.1114  154.4241 N   0  0  0  0  0  0  0  0  0  0  0  0
  151.0219  133.7574  154.8777 C   0  0  1  0  0  0  0  0  0  0  0  0
  150.7122  133.6303  156.3756 C   0  0  0  0  0  0  0  0  0  0  0  0
  149.3223  133.0044  156.4416 C   0  0  0  0  0  0  0  0  0  0  0  0
  149.2928  132.0302  155.2671 C   0  0  0  0  0  0  0  0  0  0  0  0
  150.1904  132.6451  154.1779 C   0  0  1  0  0  0  0  0  0  0  0  0
  149.3893  133.0713  152.9323 C   0  0  0  0  0  0  0  0  0  0  0  0
  149.5824  141.0596  153.6199 H   0  0  0  0  0  0  0  0  0  0  0  0
  148.5332  142.3439  154.2414 H   0  0  0  0  0  0  0  0  0  0  0  0
  148.2346  140.6601  154.6971 H   0  0  0  0  0  0  0  0  0  0  0  0
  152.4683  143.5318  158.4648 H   0  0  0  0  0  0  0  0  0  0  0  0
  150.7721  143.8442  158.9104 H   0  0  0  0  0  0  0  0  0  0  0  0
  151.4694  144.5960  157.4518 H   0  0  0  0  0  0  0  0  0  0  0  0
  152.4260  139.5940  158.2728 H   0  0  0  0  0  0  0  0  0  0  0  0
  151.7969  140.7587  159.4448 H   0  0  0  0  0  0  0  0  0  0  0  0
  153.2057  141.1673  158.4499 H   0  0  0  0  0  0  0  0  0  0  0  0
  151.2788  138.5940  156.8215 H   0  0  0  0  0  0  0  0  0  0  0  0
  149.6374  138.7120  156.2859 H   0  0  0  0  0  0  0  0  0  0  0  0
  150.5792  139.4227  153.9655 H   0  0  0  0  0  0  0  0  0  0  0  0
  152.8945  139.9960  154.6309 H   0  0  0  0  0  0  0  0  0  0  0  0
  152.8882  138.7037  153.4429 H   0  0  0  0  0  0  0  0  0  0  0  0
  153.1777  138.3329  155.1399 H   0  0  0  0  0  0  0  0  0  0  0  0
  150.0935  137.2494  153.5966 H   0  0  0  0  0  0  0  0  0  0  0  0
  150.0441  135.1878  153.6628 H   0  0  0  0  0  0  0  0  0  0  0  0
  152.0875  133.5744  154.7272 H   0  0  0  0  0  0  0  0  0  0  0  0
  151.4316  132.9517  156.8365 H   0  0  0  0  0  0  0  0  0  0  0  0
  150.7720  134.5772  156.9144 H   0  0  0  0  0  0  0  0  0  0  0  0
  149.1264  132.5164  157.3968 H   0  0  0  0  0  0  0  0  0  0  0  0
  148.5620  133.7724  156.2974 H   0  0  0  0  0  0  0  0  0  0  0  0
  149.7115  131.0737  155.5829 H   0  0  0  0  0  0  0  0  0  0  0  0
  148.2750  131.8370  154.9257 H   0  0  0  0  0  0  0  0  0  0  0  0
  150.8841  131.8686  153.8523 H   0  0  0  0  0  0  0  0  0  0  0  0
  148.6449  133.8315  153.1716 H   0  0  0  0  0  0  0  0  0  0  0  0
  148.8610  132.2200  152.5025 H   0  0  0  0  0  0  0  0  0  0  0  0
  150.0447  133.4691  152.1572 H   0  0  0  0  0  0  0  0  0  0  0  0
  149.8604  143.6597  156.0267 H   0  0  0  0  0  0  0  0  0  0  0  0
  1  2  1  0  0  0  0
  1 22  1  0  0  0  0
  1 23  1  0  0  0  0
  1 24  1  0  0  0  0
  2  8  1  0  0  0  0
  2  3  2  0  0  0  0
  3  4  1  0  0  0  0
  3 50  1  0  0  0  0
  4  5  1  0  0  0  0
  4  6  1  0  0  0  0
  5 25  1  0  0  0  0
  5 26  1  0  0  0  0
  5 27  1  0  0  0  0
  6  7  1  0  0  0  0
  6  8  2  0  0  0  0
  7 28  1  0  0  0  0
  7 29  1  0  0  0  0
  7 30  1  0  0  0  0
  8  9  1  0  0  0  0
  9 10  1  0  0  0  0
  9 31  1  0  0  0  0
  9 32  1  0  0  0  0
 10 11  1  0  0  0  0
 10 12  1  0  0  0  0
 10 33  1  0  0  0  0
 11 34  1  0  0  0  0
 11 35  1  0  0  0  0
 11 36  1  0  0  0  0
 12 13  1  0  0  0  0
 12 37  1  0  0  0  0
 13 14  2  0  0  0  0
 13 15  1  0  0  0  0
 15 16  1  0  0  0  0
 15 38  1  0  0  0  0
 16 20  1  0  0  0  0
 16 17  1  0  0  0  0
 16 39  1  0  0  0  0
 17 18  1  0  0  0  0
 17 40  1  0  0  0  0
 17 41  1  0  0  0  0
 18 19  1  0  0  0  0
 18 42  1  0  0  0  0
 18 43  1  0  0  0  0
 19 20  1  0  0  0  0
 19 44  1  0  0  0  0
 19 45  1  0  0  0  0
 20 21  1  0  0  0  0
 20 46  1  0  0  0  0
 21 47  1  0  0  0  0
 21 48  1  0  0  0  0
 21 49  1  0  0  0  0
M  CHG  1   3   1
M  END
> <s_m_source_file>
AV-unprocessed.smi

> <i_m_source_file_index>
671

> <i_lp_mmshare_version>
43012

> <i_f3d_flags>
0

> <s_epik_input>
W0NIM11jMW5uKFtDSDNdKWMoW0NIM10pYzFbQ0gyXVtDQEhdKFtDSDNdKVtOSF1DKD1PKVtOSF1bQ0BASF0yW0NIMl1bQ0gyXVtDSDJdW0NASF0yW0NIM10=

> <s_epik_cmdline>
J2VwaWtfcHl0aG9uJywgJy1waCcsICc3LjAnLCAnLXRuJywgJzgnLCAnLW1hJywgJzIwMCcsICctbWV0YWxfYmluZGluZycsICctaW1hZScsICc8aW5maWxlLm1hZT4nLCAnLW9tYWUnLCAnPG91dGZpbGUubWFlPic=

> <r_lp_tautomer_probability>
1

> <r_epik_Ionization_Penalty>
2.28705

> <r_epik_Ionization_Penalty_Charging>
2.28698

> <r_epik_Ionization_Penalty_Neutral>
6.23157e-05

> <r_epik_State_Penalty>
2.43671

> <r_epik_Charging_Adjusted_Penalty>
4.72369

> <i_epik_Tot_Q>
1

> <i_epik_Tot_abs_Q>
1

> <r_epik_Metal_State_Penalty>
2.44911

> <b_epik_Metal_Only>
0

> <s_lp_Force_Field>
OPLS_2005

> <r_lp_Energy>
36.9698

> <b_lp_Chiralities_Consistent>
1

> <s_lp_Variant>
AV-unprocessed.smi:671-12

> <Gold.Version>
5.8.1

> <Gold.Id.Protein>
6NUR|6NUR_protein|mol2

> <Gold.PLP.Fitness>
53.7257

> <Gold.PLP.PLP>
-39.7682

> <Gold.PLP.part.hbond>
-4.6707

> <Gold.PLP.part.metal>
0.0000

> <Gold.PLP.part.buried>
-5.4500

> <Gold.PLP.part.nonpolar>
-31.3410

> <Gold.PLP.part.repulsive>
0.2748

> <Gold.PLP.ligand.clash>
0.0000

> <Gold.PLP.ligand.torsion>
0.1283

> <Gold.PLP.Chemscore.Hbond>
4.6967

> <Gold.PLP.Chemscore.CHOScore>
0.0000

> <Gold.PLP.Chemscore.Metal>
0.0000

> <Gold.Chemscore.Hbonds>
donor molecule, donor type, donor heavy atom, donor atom, acceptor molecule, acceptor atom, score
      L1  H     3    50       P1  8028  1.76
      L1  H    12    37       P1  7948  0.41
      L1  H    15    38       P1  7948  0.09
      P1  H 10752 10765       L1    14  0.30

> <Gold.PLP.Chemscore.Internal.Correction>
0.1239

> <Gold.Rescore>
     Score         DG    S(hbond)    S(metal)    S(lipo)     H(rot)  DE(clash)    DE(int)     intcor
     20.15     -21.20       2.81        0.00      87.20       1.51       0.21       0.85       ----

> <Gold.Chemscore.Fitness>
20.1468

> <Gold.Chemscore.DG>
-21.2010

> <Gold.Chemscore.ZeroCoef>
-5.4800

> <Gold.Chemscore.Hbond>
2.8062

> <Gold.Chemscore.Metal>
0.0000

> <Gold.Chemscore.Lipo>
87.2044

> <Gold.Chemscore.Internal_Hbond>
0.0000

> <Gold.Chemscore.DEClash>
0.2071

> <Gold.Chemscore.DEInternal>
0.8470

> <Gold.Chemscore.Rot>
1.5057

> <Gold.Chemscore.Internal.Correction>
   9.000000E+99

> <Gold.Chemscore.Hbonds>
donor molecule, donor type, donor heavy atom, donor atom, acceptor molecule, acceptor atom, score
      L1  H     3    50       P1  8028  0.85
      L1  H    12    37       P1  7948  0.12

> <Gold.Chemscore.Hbond.Weighted>
-9.3727

> <Gold.Chemscore.Metal.Weighted>
-0.0000

> <Gold.Chemscore.Lipo.Weighted>
-10.2029

> <Gold.Chemscore.Internal_Hbond.Weighted>
0.0000

> <Gold.Chemscore.DEClash.Weighted>
0.2071

> <Gold.Chemscore.DEInternal.Weighted>
0.8470

> <Gold.Chemscore.Rot.Weighted>
3.8547

> <Gold.Chemscore.Internal.Correction.Weighted>
   9.000000E+99

> <Gold.Protein.RotatedTorsions>
[ 6907 6896 6895 6894 ] final   90.89 input  -60.11 | X-H torsion
[ 7974 7965 7964 7962 ] final  -89.90 input  175.53 | X-H torsion
[ 8008 7997 7996 7995 ] final  -81.10 input   59.86 | X-H torsion
[ 10167 10162 10161 10158 ] final -114.02 input  -65.29 | X-H torsion
[ 10718 10713 10712 10709 ] final -167.46 input   66.30 | X-H torsion
[ 10763 10752 10751 10750 ] final -166.57 input  -60.55 | X-H torsion
[ 11005 11000 10999 10996 ] final -116.02 input  -57.11 | X-H torsion

> <Gold.Protein.ActiveResidues>
 VAL166  LYS551  ARG553  GLY616  TRP617  ASP618  TYR619  PRO620  LYS621  CYS622 
 ASP623  PHE694  ASN695  SER759  ASP760  ASP761  ALA762  ILE779  LEU786  VAL792 
 PHE793  MET794  SER795  GLU796  ALA797  LYS798  CYS799  TRP800  GLU811  SER814 

> <Gold.Protein.RotatedAtoms>
  152.5447  134.1741  159.8608 H   0  0  0  0  0  0  0  0  0  0  0  0  # atno 6907 bound_to 6896
  151.1749  133.4754  159.2601 H   0  0  0  0  0  0  0  0  0  0  0  0  # atno 6908 bound_to 6896
  151.1237  135.0104  159.8605 H   0  0  0  0  0  0  0  0  0  0  0  0  # atno 6909 bound_to 6896
  145.4337  140.9557  143.2114 H   0  0  0  0  0  0  0  0  0  0  0  0  # atno 7974 bound_to 7965
  154.5949  140.0653  156.9289 H   0  0  0  0  0  0  0  0  0  0  0  0  # atno 8008 bound_to 7997
  155.2231  140.3331  155.4294 H   0  0  0  0  0  0  0  0  0  0  0  0  # atno 8009 bound_to 7997
  156.2280  140.1828  156.7298 H   0  0  0  0  0  0  0  0  0  0  0  0  # atno 8010 bound_to 7997
  140.1055  143.4574  152.1785 H   0  0  0  0  0  0  0  0  0  0  0  0  # atno 10167 bound_to 10162
  156.6827  130.9128  151.3059 H   0  0  0  0  0  0  0  0  0  0  0  0  # atno 10718 bound_to 10713
  154.6820  135.2956  154.9600 H   0  0  0  0  0  0  0  0  0  0  0  0  # atno 10763 bound_to 10752
  154.0592  135.6634  153.4813 H   0  0  0  0  0  0  0  0  0  0  0  0  # atno 10764 bound_to 10752
  153.0553  135.5148  154.7867 H   0  0  0  0  0  0  0  0  0  0  0  0  # atno 10765 bound_to 10752
  141.0450  133.9777  157.2933 H   0  0  0  0  0  0  0  0  0  0  0  0  # atno 11005 bound_to 11000
  144.8166  139.5865  143.7005 LP  0  0  0  0  0  0  0  0  0  0  0  0  # atno 17320 bound_to 7965
  146.2594  139.6375  142.9373 LP  0  0  0  0  0  0  0  0  0  0  0  0  # atno 17321 bound_to 7965
  139.5648  144.7428  151.4054 LP  0  0  0  0  0  0  0  0  0  0  0  0  # atno 17342 bound_to 10162
  140.6954  143.7760  150.7319 LP  0  0  0  0  0  0  0  0  0  0  0  0  # atno 17343 bound_to 10162
  157.7038  130.9362  150.0866 LP  0  0  0  0  0  0  0  0  0  0  0  0  # atno 17370 bound_to 10713
  156.1856  130.3652  149.8977 LP  0  0  0  0  0  0  0  0  0  0  0  0  # atno 17371 bound_to 10713
  139.9304  135.0200  156.8382 LP  0  0  0  0  0  0  0  0  0  0  0  0  # atno 17394 bound_to 11000
  140.6164  134.0034  155.7599 LP  0  0  0  0  0  0  0  0  0  0  0  0  # atno 17395 bound_to 11000

$$$$
