AV-unprocessed.smi:1768|AV-procd|sdf|7145|dock5
  -GOLD-   22720 8383D 1   1.00000     0.00000
 Structure written by MMmdl.
 33 34  0  0  0  0  0  0  0  0  1 V2000
  151.5762  140.6614  157.1396 C   0  0  0  0  0  0  0  0  0  0  0  0
  151.0603  139.6895  156.1340 C   0  0  0  0  0  0  0  0  0  0  0  0
  150.9540  139.9791  154.8314 N   0  0  0  0  0  0  0  0  0  0  0  0
  150.4502  138.9158  154.0953 N   0  0  0  0  0  0  0  0  0  0  0  0
  150.1899  137.8519  154.8677 C   0  0  0  0  0  0  0  0  0  0  0  0
  149.6672  136.6270  154.3753 N   0  0  0  0  0  0  0  0  0  0  0  0
  149.4002  135.4996  155.0575 C   0  0  0  0  0  0  0  0  0  0  0  0
  149.5729  135.3429  156.2664 O   0  0  0  0  0  0  0  0  0  0  0  0
  148.9131  134.5500  154.2452 N   0  0  0  0  0  0  0  0  0  0  0  0
  148.4924  133.2099  154.6485 C   0  0  2  0  0  0  0  0  0  0  0  0
  149.6690  132.5101  155.3460 C   0  0  0  0  0  0  0  0  0  0  0  0
  147.9985  132.4372  153.4102 C   0  0  1  0  0  0  0  0  0  0  0  0
  147.3433  131.0887  153.7158 C   0  0  0  0  0  0  0  0  0  0  0  0
  146.3890  130.8740  152.5503 C   0  0  0  0  0  0  0  0  0  0  0  0
  146.3268  132.2390  151.8604 C   0  0  0  0  0  0  0  0  0  0  0  0
  146.9422  133.1377  152.7710 O   0  0  0  0  0  0  0  0  0  0  0  0
  150.5420  138.0670  156.5740 S   0  0  0  0  0  0  0  0  0  0  0  0
  151.8747  141.5933  156.6580 H   0  0  0  0  0  0  0  0  0  0  0  0
  152.4413  140.2416  157.6531 H   0  0  0  0  0  0  0  0  0  0  0  0
  150.8029  140.8806  157.8760 H   0  0  0  0  0  0  0  0  0  0  0  0
  149.4697  136.6078  153.3860 H   0  0  0  0  0  0  0  0  0  0  0  0
  148.8081  134.7763  153.2672 H   0  0  0  0  0  0  0  0  0  0  0  0
  147.6699  133.2710  155.3633 H   0  0  0  0  0  0  0  0  0  0  0  0
  149.3876  131.5190  155.7016 H   0  0  0  0  0  0  0  0  0  0  0  0
  150.0060  133.0814  156.2118 H   0  0  0  0  0  0  0  0  0  0  0  0
  150.5183  132.3938  154.6721 H   0  0  0  0  0  0  0  0  0  0  0  0
  148.8120  132.2999  152.6946 H   0  0  0  0  0  0  0  0  0  0  0  0
  148.0713  130.2835  153.8190 H   0  0  0  0  0  0  0  0  0  0  0  0
  146.7735  131.1471  154.6443 H   0  0  0  0  0  0  0  0  0  0  0  0
  146.7552  130.1097  151.8640 H   0  0  0  0  0  0  0  0  0  0  0  0
  145.4076  130.5613  152.9088 H   0  0  0  0  0  0  0  0  0  0  0  0
  146.8970  132.2254  150.9302 H   0  0  0  0  0  0  0  0  0  0  0  0
  145.3071  132.5478  151.6304 H   0  0  0  0  0  0  0  0  0  0  0  0
  1  2  1  0  0  0  0
  1 18  1  0  0  0  0
  1 19  1  0  0  0  0
  1 20  1  0  0  0  0
  2 17  1  0  0  0  0
  2  3  2  0  0  0  0
  3  4  1  0  0  0  0
  4  5  2  0  0  0  0
  5  6  1  0  0  0  0
  5 17  1  0  0  0  0
  6  7  1  0  0  0  0
  6 21  1  0  0  0  0
  7  8  2  0  0  0  0
  7  9  1  0  0  0  0
  9 10  1  0  0  0  0
  9 22  1  0  0  0  0
 10 11  1  0  0  0  0
 10 12  1  0  0  0  0
 10 23  1  0  0  0  0
 11 24  1  0  0  0  0
 11 25  1  0  0  0  0
 11 26  1  0  0  0  0
 12 16  1  0  0  0  0
 12 13  1  0  0  0  0
 12 27  1  0  0  0  0
 13 14  1  0  0  0  0
 13 28  1  0  0  0  0
 13 29  1  0  0  0  0
 14 15  1  0  0  0  0
 14 30  1  0  0  0  0
 14 31  1  0  0  0  0
 15 16  1  0  0  0  0
 15 32  1  0  0  0  0
 15 33  1  0  0  0  0
M  END
> <s_m_source_file>
AV-unprocessed.smi

> <i_m_source_file_index>
1768

> <i_lp_mmshare_version>
43012

> <i_f3d_flags>
0

> <s_epik_input>
W0NIM11jMW5uYyhzMSlbTkhdQyg9TylbTkhdW0NASF0oW0NIM10pW0NAQEhdMltDSDJdW0NIMl1bQ0gyXU8y

> <s_epik_cmdline>
J2VwaWtfcHl0aG9uJywgJy1waCcsICc3LjAnLCAnLXRuJywgJzgnLCAnLW1hJywgJzIwMCcsICctbWV0YWxfYmluZGluZycsICctaW1hZScsICc8aW5maWxlLm1hZT4nLCAnLW9tYWUnLCAnPG91dGZpbGUubWFlPic=

> <r_lp_tautomer_probability>
1

> <r_epik_Ionization_Penalty>
0.000523083

> <r_epik_Ionization_Penalty_Charging>
0

> <r_epik_Ionization_Penalty_Neutral>
0.000523083

> <r_epik_State_Penalty>
-0

> <r_epik_Charging_Adjusted_Penalty>
0

> <i_epik_Tot_Q>
0

> <i_epik_Tot_abs_Q>
0

> <r_epik_Metal_State_Penalty>
0.223408

> <b_epik_Metal_Only>
0

> <s_lp_Force_Field>
OPLS_2005

> <r_lp_Energy>
16.8898

> <b_lp_Chiralities_Consistent>
1

> <s_lp_Variant>
AV-unprocessed.smi:1768-3

> <Gold.Version>
5.8.1

> <Gold.Id.Protein>
6NUR|6NUR_protein|mol2

> <Gold.PLP.Fitness>
32.9964

> <Gold.PLP.PLP>
-24.7273

> <Gold.PLP.part.hbond>
-3.6281

> <Gold.PLP.part.metal>
0.0000

> <Gold.PLP.part.buried>
-3.9116

> <Gold.PLP.part.nonpolar>
-18.6676

> <Gold.PLP.part.repulsive>
0.4845

> <Gold.PLP.ligand.clash>
0.0000

> <Gold.PLP.ligand.torsion>
0.0388

> <Gold.PLP.Chemscore.Hbond>
2.7752

> <Gold.PLP.Chemscore.CHOScore>
0.0000

> <Gold.PLP.Chemscore.Metal>
0.0000

> <Gold.Chemscore.Hbonds>
donor molecule, donor type, donor heavy atom, donor atom, acceptor molecule, acceptor atom, score
      L1  H     6    21       P1  7948  1.00
      L1  H     9    22       P1  7948  0.93
      P1  H  7989  7998       L1     3  0.85

> <Gold.PLP.Chemscore.Internal.Correction>
0.0210

> <Gold.Rescore>
     Score         DG    S(hbond)    S(metal)    S(lipo)     H(rot)  DE(clash)    DE(int)     intcor
     11.54     -13.09       1.65        0.00      46.18       1.29       0.00       1.54       ----

> <Gold.Chemscore.Fitness>
11.5439

> <Gold.Chemscore.DG>
-13.0856

> <Gold.Chemscore.ZeroCoef>
-5.4800

> <Gold.Chemscore.Hbond>
1.6496

> <Gold.Chemscore.Metal>
0.0000

> <Gold.Chemscore.Lipo>
46.1791

> <Gold.Chemscore.Internal_Hbond>
0.0000

> <Gold.Chemscore.DEClash>
0.0029

> <Gold.Chemscore.DEInternal>
1.5388

> <Gold.Chemscore.Rot>
1.2919

> <Gold.Chemscore.Internal.Correction>
   9.000000E+99

> <Gold.Chemscore.Hbonds>
donor molecule, donor type, donor heavy atom, donor atom, acceptor molecule, acceptor atom, score
      L1  H     6    21       P1  7948  0.78
      L1  H     9    22       P1  7948  0.27
      P1  H  7989  7998       L1     3  0.15

> <Gold.Chemscore.Hbond.Weighted>
-5.5098

> <Gold.Chemscore.Metal.Weighted>
-0.0000

> <Gold.Chemscore.Lipo.Weighted>
-5.4030

> <Gold.Chemscore.Internal_Hbond.Weighted>
0.0000

> <Gold.Chemscore.DEClash.Weighted>
0.0029

> <Gold.Chemscore.DEInternal.Weighted>
1.5388

> <Gold.Chemscore.Rot.Weighted>
3.3072

> <Gold.Chemscore.Internal.Correction.Weighted>
   9.000000E+99

> <Gold.Protein.RotatedTorsions>
[ 6907 6896 6895 6894 ] final  110.06 input  -60.11 | X-H torsion
[ 7974 7965 7964 7962 ] final   33.89 input  175.53 | X-H torsion
[ 8008 7997 7996 7995 ] final   58.54 input   59.86 | X-H torsion
[ 10167 10162 10161 10158 ] final  100.40 input  -65.29 | X-H torsion
[ 10718 10713 10712 10709 ] final  147.25 input   66.30 | X-H torsion
[ 10763 10752 10751 10750 ] final -126.14 input  -60.55 | X-H torsion
[ 11005 11000 10999 10996 ] final  155.38 input  -57.11 | X-H torsion

> <Gold.Protein.ActiveResidues>
 VAL166  LYS551  ARG553  GLY616  TRP617  ASP618  TYR619  PRO620  LYS621  CYS622 
 ASP623  PHE694  ASN695  SER759  ASP760  ASP761  ALA762  ILE779  LEU786  VAL792 
 PHE793  MET794  SER795  GLU796  ALA797  LYS798  CYS799  TRP800  GLU811  SER814 

> <Gold.Protein.RotatedAtoms>
  152.5038  133.8855  159.7367 H   0  0  0  0  0  0  0  0  0  0  0  0  # atno 6907 bound_to 6896
  150.9306  133.6762  159.2818 H   0  0  0  0  0  0  0  0  0  0  0  0  # atno 6908 bound_to 6896
  151.4108  135.0989  159.9637 H   0  0  0  0  0  0  0  0  0  0  0  0  # atno 6909 bound_to 6896
  146.1390  139.6339  142.9176 H   0  0  0  0  0  0  0  0  0  0  0  0  # atno 7974 bound_to 7965
  155.5516  140.3486  155.4470 H   0  0  0  0  0  0  0  0  0  0  0  0  # atno 8008 bound_to 7997
  156.0579  140.1333  157.0001 H   0  0  0  0  0  0  0  0  0  0  0  0  # atno 8009 bound_to 7997
  154.4465  140.0991  156.6458 H   0  0  0  0  0  0  0  0  0  0  0  0  # atno 8010 bound_to 7997
  139.7530  144.6978  151.0403 H   0  0  0  0  0  0  0  0  0  0  0  0  # atno 10167 bound_to 10162
  157.3233  131.0908  151.1223 H   0  0  0  0  0  0  0  0  0  0  0  0  # atno 10718 bound_to 10713
  154.8743  135.4006  154.3382 H   0  0  0  0  0  0  0  0  0  0  0  0  # atno 10763 bound_to 10752
  153.4185  135.7022  153.6315 H   0  0  0  0  0  0  0  0  0  0  0  0  # atno 10764 bound_to 10752
  153.4988  135.3732  155.2499 H   0  0  0  0  0  0  0  0  0  0  0  0  # atno 10765 bound_to 10752
  140.1576  134.8631  157.2534 H   0  0  0  0  0  0  0  0  0  0  0  0  # atno 11005 bound_to 11000
  145.5090  141.0436  143.2498 LP  0  0  0  0  0  0  0  0  0  0  0  0  # atno 17320 bound_to 7965
  144.7771  139.6606  143.7170 LP  0  0  0  0  0  0  0  0  0  0  0  0  # atno 17321 bound_to 7965
  140.7800  143.4786  151.0049 LP  0  0  0  0  0  0  0  0  0  0  0  0  # atno 17342 bound_to 10162
  139.8473  143.7484  152.3179 LP  0  0  0  0  0  0  0  0  0  0  0  0  # atno 17343 bound_to 10162
  157.2499  130.6609  149.5927 LP  0  0  0  0  0  0  0  0  0  0  0  0  # atno 17370 bound_to 10713
  155.9688  130.4541  150.5839 LP  0  0  0  0  0  0  0  0  0  0  0  0  # atno 17371 bound_to 10713
  140.2528  134.3662  155.7435 LP  0  0  0  0  0  0  0  0  0  0  0  0  # atno 17394 bound_to 11000
  141.2206  133.7326  156.8962 LP  0  0  0  0  0  0  0  0  0  0  0  0  # atno 17395 bound_to 11000

$$$$
