AV-unprocessed.smi:3303|AV-procd|sdf|12667|dock3
  -GOLD-   2272019 03D 1   1.00000     0.00000
 Structure written by MMmdl.
 45 46  0  0  0  0  0  0  0  0  3 V2000
  151.9327  140.2808  156.5345 C   0  0  0  0  0  0  0  0  0  0  0  0
  150.4568  140.4514  156.9527 C   0  0  2  0  0  0  0  0  0  0  0  0
  149.6440  139.1750  156.6510 C   0  0  0  0  0  0  0  0  0  0  0  0
  149.4349  138.9949  155.1905 N   0  3  1  0  0  0  0  0  0  0  0  0
  148.8529  137.6759  154.8528 C   0  0  0  0  0  0  0  0  0  0  0  0
  148.7549  140.1510  154.5366 C   0  0  1  0  0  0  0  0  0  0  0  0
  147.2558  140.2658  154.8895 C   0  0  0  0  0  0  0  0  0  0  0  0
  149.5235  141.4607  154.8198 C   0  0  0  0  0  0  0  0  0  0  0  0
  149.7583  141.6832  156.3300 C   0  0  2  0  0  0  0  0  0  0  0  0
  150.5167  142.9256  156.6092 N   0  3  0  0  0  0  0  0  0  0  0  0
  150.8700  143.1493  158.0268 C   0  0  0  0  0  0  0  0  0  0  0  0
  152.3671  142.9058  158.2624 C   0  0  0  0  0  0  0  0  0  0  0  0
  152.7100  142.8203  159.7375 C   0  0  0  0  0  0  0  0  0  0  0  0
  153.5440  141.7925  160.2267 C   0  0  0  0  0  0  0  0  0  0  0  0
  153.8294  141.7604  161.6057 C   0  0  0  0  0  0  0  0  0  0  0  0
  153.2711  142.7501  162.4371 C   0  0  0  0  0  0  0  0  0  0  0  0
  152.4493  143.7331  161.8507 C   0  0  0  0  0  0  0  0  0  0  0  0
  152.1696  143.7734  160.5297 N   0  0  0  0  0  0  0  0  0  0  0  0
  152.0406  140.1263  155.4611 H   0  0  0  0  0  0  0  0  0  0  0  0
  152.3785  139.4190  157.0319 H   0  0  0  0  0  0  0  0  0  0  0  0
  152.5330  141.1487  156.8067 H   0  0  0  0  0  0  0  0  0  0  0  0
  150.4559  140.5855  158.0356 H   0  0  0  0  0  0  0  0  0  0  0  0
  150.1654  138.3055  157.0541 H   0  0  0  0  0  0  0  0  0  0  0  0
  148.6800  139.2116  157.1599 H   0  0  0  0  0  0  0  0  0  0  0  0
  147.8801  137.5336  155.3246 H   0  0  0  0  0  0  0  0  0  0  0  0
  149.5093  136.8747  155.1938 H   0  0  0  0  0  0  0  0  0  0  0  0
  148.7343  137.5684  153.7741 H   0  0  0  0  0  0  0  0  0  0  0  0
  148.8105  139.9801  153.4605 H   0  0  0  0  0  0  0  0  0  0  0  0
  146.8096  141.1284  154.3941 H   0  0  0  0  0  0  0  0  0  0  0  0
  147.0857  140.3836  155.9591 H   0  0  0  0  0  0  0  0  0  0  0  0
  146.6946  139.3921  154.5588 H   0  0  0  0  0  0  0  0  0  0  0  0
  150.4813  141.4363  154.2991 H   0  0  0  0  0  0  0  0  0  0  0  0
  148.9752  142.2971  154.3865 H   0  0  0  0  0  0  0  0  0  0  0  0
  148.7897  141.7876  156.8208 H   0  0  0  0  0  0  0  0  0  0  0  0
  151.3828  142.8788  156.0912 H   0  0  0  0  0  0  0  0  0  0  0  0
  150.6148  144.1692  158.3140 H   0  0  0  0  0  0  0  0  0  0  0  0
  150.2833  142.4791  158.6565 H   0  0  0  0  0  0  0  0  0  0  0  0
  152.6773  141.9839  157.7681 H   0  0  0  0  0  0  0  0  0  0  0  0
  152.9537  143.7077  157.8114 H   0  0  0  0  0  0  0  0  0  0  0  0
  153.9588  141.0464  159.5651 H   0  0  0  0  0  0  0  0  0  0  0  0
  154.4653  140.9907  162.0178 H   0  0  0  0  0  0  0  0  0  0  0  0
  153.4691  142.7570  163.4988 H   0  0  0  0  0  0  0  0  0  0  0  0
  152.0047  144.5070  162.4586 H   0  0  0  0  0  0  0  0  0  0  0  0
  149.9872  143.7168  156.2715 H   0  0  0  0  0  0  0  0  0  0  0  0
  150.3627  138.9782  154.7909 H   0  0  0  0  0  0  0  0  0  0  0  0
  1  2  1  0  0  0  0
  1 19  1  0  0  0  0
  1 20  1  0  0  0  0
  1 21  1  0  0  0  0
  2  9  1  0  0  0  0
  2  3  1  0  0  0  0
  2 22  1  0  0  0  0
  3  4  1  0  0  0  0
  3 23  1  0  0  0  0
  3 24  1  0  0  0  0
  4  5  1  0  0  0  0
  4  6  1  0  0  0  0
  4 45  1  0  0  0  0
  5 25  1  0  0  0  0
  5 26  1  0  0  0  0
  5 27  1  0  0  0  0
  6  7  1  0  0  0  0
  6  8  1  0  0  0  0
  6 28  1  0  0  0  0
  7 29  1  0  0  0  0
  7 30  1  0  0  0  0
  7 31  1  0  0  0  0
  8  9  1  0  0  0  0
  8 32  1  0  0  0  0
  8 33  1  0  0  0  0
  9 10  1  0  0  0  0
  9 34  1  0  0  0  0
 10 11  1  0  0  0  0
 10 35  1  0  0  0  0
 10 44  1  0  0  0  0
 11 12  1  0  0  0  0
 11 36  1  0  0  0  0
 11 37  1  0  0  0  0
 12 13  1  0  0  0  0
 12 38  1  0  0  0  0
 12 39  1  0  0  0  0
 13 18  1  0  0  0  0
 13 14  2  0  0  0  0
 14 15  1  0  0  0  0
 14 40  1  0  0  0  0
 15 16  2  0  0  0  0
 15 41  1  0  0  0  0
 16 17  1  0  0  0  0
 16 42  1  0  0  0  0
 17 18  2  0  0  0  0
 17 43  1  0  0  0  0
M  CHG  1   4   1
M  CHG  1  10   1
M  END
> <s_m_source_file>
AV-unprocessed.smi

> <i_m_source_file_index>
3303

> <i_lp_mmshare_version>
43012

> <i_f3d_flags>
0

> <s_epik_input>
W0NIM11bQ0BASF0xW0NIMl1OKFtDSDNdKVtDQEBIXShbQ0gzXSlbQ0gyXVtDQEhdMVtOSF1bQ0gyXVtDSDJdYzJbY0hdW2NIXVtjSF1bY0hdbjI=

> <s_epik_cmdline>
J2VwaWtfcHl0aG9uJywgJy1waCcsICc3LjAnLCAnLXRuJywgJzgnLCAnLW1hJywgJzIwMCcsICctbWV0YWxfYmluZGluZycsICctaW1hZScsICc8aW5maWxlLm1hZT4nLCAnLW9tYWUnLCAnPG91dGZpbGUubWFlPic=

> <r_epik_Ionization_Penalty>
0.0769462

> <r_epik_Ionization_Penalty_Charging>
0.0759813

> <r_epik_Ionization_Penalty_Neutral>
0.000964829

> <r_epik_State_Penalty>
0.0654373

> <r_epik_Charging_Adjusted_Penalty>
0.141419

> <i_epik_Tot_Q>
2

> <i_epik_Tot_abs_Q>
2

> <r_epik_Metal_State_Penalty>
0.0656439

> <b_epik_Metal_Only>
0

> <s_lp_Force_Field>
OPLS_2005

> <r_lp_Energy>
31.612

> <b_lp_Chiralities_Consistent>
1

> <s_lp_Variant>
AV-unprocessed.smi:3303-11

> <Gold.Version>
5.8.1

> <Gold.Id.Protein>
6NUR|6NUR_protein|mol2

> <Gold.PLP.Fitness>
43.1054

> <Gold.PLP.PLP>
-38.2116

> <Gold.PLP.part.hbond>
-1.0000

> <Gold.PLP.part.metal>
0.0000

> <Gold.PLP.part.buried>
-4.6038

> <Gold.PLP.part.nonpolar>
-32.8529

> <Gold.PLP.part.repulsive>
0.1714

> <Gold.PLP.ligand.clash>
0.0000

> <Gold.PLP.ligand.torsion>
0.5614

> <Gold.PLP.Chemscore.Hbond>
2.0000

> <Gold.PLP.Chemscore.CHOScore>
0.0000

> <Gold.PLP.Chemscore.Metal>
0.0000

> <Gold.Chemscore.Hbonds>
donor molecule, donor type, donor heavy atom, donor atom, acceptor molecule, acceptor atom, score
      L1  H    10    44       P1  8028  2.00

> <Gold.PLP.Chemscore.Internal.Correction>
0.0166

> <Gold.Rescore>
     Score         DG    S(hbond)    S(metal)    S(lipo)     H(rot)  DE(clash)    DE(int)     intcor
     18.84     -19.62       0.99        0.00     122.60       1.37       0.29       0.49       ----

> <Gold.Chemscore.Fitness>
18.8350

> <Gold.Chemscore.DG>
-19.6163

> <Gold.Chemscore.ZeroCoef>
-5.4800

> <Gold.Chemscore.Hbond>
0.9912

> <Gold.Chemscore.Metal>
0.0000

> <Gold.Chemscore.Lipo>
122.5985

> <Gold.Chemscore.Internal_Hbond>
0.0000

> <Gold.Chemscore.DEClash>
0.2871

> <Gold.Chemscore.DEInternal>
0.4942

> <Gold.Chemscore.Rot>
1.3744

> <Gold.Chemscore.Internal.Correction>
   9.000000E+99

> <Gold.Chemscore.Hbonds>
donor molecule, donor type, donor heavy atom, donor atom, acceptor molecule, acceptor atom, score
      L1  H    10    44       P1  8028  0.99

> <Gold.Chemscore.Hbond.Weighted>
-3.3107

> <Gold.Chemscore.Metal.Weighted>
-0.0000

> <Gold.Chemscore.Lipo.Weighted>
-14.3440

> <Gold.Chemscore.Internal_Hbond.Weighted>
0.0000

> <Gold.Chemscore.DEClash.Weighted>
0.2871

> <Gold.Chemscore.DEInternal.Weighted>
0.4942

> <Gold.Chemscore.Rot.Weighted>
3.5185

> <Gold.Chemscore.Internal.Correction.Weighted>
   9.000000E+99

> <Gold.Protein.RotatedTorsions>
[ 6907 6896 6895 6894 ] final  -96.49 input  -60.11 | X-H torsion
[ 7974 7965 7964 7962 ] final  -65.23 input  175.53 | X-H torsion
[ 8008 7997 7996 7995 ] final  -54.67 input   59.86 | X-H torsion
[ 10167 10162 10161 10158 ] final  109.62 input  -65.29 | X-H torsion
[ 10718 10713 10712 10709 ] final   30.02 input   66.30 | X-H torsion
[ 10763 10752 10751 10750 ] final -113.11 input  -60.55 | X-H torsion
[ 11005 11000 10999 10996 ] final  107.13 input  -57.11 | X-H torsion

> <Gold.Protein.ActiveResidues>
 VAL166  LYS551  ARG553  GLY616  TRP617  ASP618  TYR619  PRO620  LYS621  CYS622 
 ASP623  PHE694  ASN695  SER759  ASP760  ASP761  ALA762  ILE779  LEU786  VAL792 
 PHE793  MET794  SER795  GLU796  ALA797  LYS798  CYS799  TRP800  GLU811  SER814 

> <Gold.Protein.RotatedAtoms>
  150.6990  134.1495  159.4134 H   0  0  0  0  0  0  0  0  0  0  0  0  # atno 6907 bound_to 6896
  151.9478  135.0181  160.0549 H   0  0  0  0  0  0  0  0  0  0  0  0  # atno 6908 bound_to 6896
  152.2037  133.4825  159.5109 H   0  0  0  0  0  0  0  0  0  0  0  0  # atno 6909 bound_to 6896
  145.7568  140.8881  143.0451 H   0  0  0  0  0  0  0  0  0  0  0  0  # atno 7974 bound_to 7965
  154.4170  140.1171  156.5352 H   0  0  0  0  0  0  0  0  0  0  0  0  # atno 8008 bound_to 7997
  155.6564  140.3496  155.4747 H   0  0  0  0  0  0  0  0  0  0  0  0  # atno 8009 bound_to 7997
  155.9749  140.1149  157.0768 H   0  0  0  0  0  0  0  0  0  0  0  0  # atno 8010 bound_to 7997
  139.6752  144.7122  151.1614 H   0  0  0  0  0  0  0  0  0  0  0  0  # atno 10167 bound_to 10162
  157.2542  130.7129  149.6420 H   0  0  0  0  0  0  0  0  0  0  0  0  # atno 10718 bound_to 10713
  154.8381  135.4466  154.1298 H   0  0  0  0  0  0  0  0  0  0  0  0  # atno 10763 bound_to 10752
  153.2511  135.6926  153.7684 H   0  0  0  0  0  0  0  0  0  0  0  0  # atno 10764 bound_to 10752
  153.6996  135.3374  155.3197 H   0  0  0  0  0  0  0  0  0  0  0  0  # atno 10765 bound_to 10752
  139.8824  134.9391  156.5773 H   0  0  0  0  0  0  0  0  0  0  0  0  # atno 11005 bound_to 11000
  144.6838  139.9668  143.7481 LP  0  0  0  0  0  0  0  0  0  0  0  0  # atno 17320 bound_to 7965
  146.0303  139.3329  143.0759 LP  0  0  0  0  0  0  0  0  0  0  0  0  # atno 17321 bound_to 7965
  140.7633  143.5782  150.8923 LP  0  0  0  0  0  0  0  0  0  0  0  0  # atno 17342 bound_to 10162
  139.9451  143.6337  152.3044 LP  0  0  0  0  0  0  0  0  0  0  0  0  # atno 17343 bound_to 10162
  155.9665  130.4418  150.5355 LP  0  0  0  0  0  0  0  0  0  0  0  0  # atno 17370 bound_to 10713
  157.3246  131.0688  151.1907 LP  0  0  0  0  0  0  0  0  0  0  0  0  # atno 17371 bound_to 10713
  140.8054  133.8472  155.8763 LP  0  0  0  0  0  0  0  0  0  0  0  0  # atno 17394 bound_to 11000
  140.9555  134.1723  157.4695 LP  0  0  0  0  0  0  0  0  0  0  0  0  # atno 17395 bound_to 11000

$$$$
