AV-unprocessed.smi:101|AV-procd|sdf|921|dock8
  -GOLD-   2262017423D 1   1.00000     0.00000
 Structure written by MMmdl.
 44 46  0  0  0  0  0  0  0  0  1 V2000
  145.8465  143.5693  159.2757 C   0  0  0  0  0  0  0  0  0  0  0  0
  145.5217  142.4697  158.2778 C   0  0  0  0  0  0  0  0  0  0  0  0
  146.4425  141.9832  157.4066 C   0  0  0  0  0  0  0  0  0  0  0  0
  146.1757  140.9784  156.4833 N   0  0  0  0  0  0  0  0  0  0  0  0
  147.2290  140.4409  155.5293 C   0  0  2  0  0  0  0  0  0  0  0  0
  148.4092  140.1822  156.2303 O   0  0  0  0  0  0  0  0  0  0  0  0
  149.3803  141.1753  155.9214 C   0  0  1  0  0  0  0  0  0  0  0  0
  150.7940  140.6900  156.2650 C   0  0  0  0  0  0  0  0  0  0  0  0
  151.4518  141.7245  156.9768 O   0  0  0  0  0  0  0  0  0  0  0  0
  151.8936  141.5151  158.2301 C   0  0  0  0  0  0  0  0  0  0  0  0
  152.2274  140.4097  158.6613 O   0  0  0  0  0  0  0  0  0  0  0  0
  151.9323  142.7652  159.0430 C   0  0  0  0  0  0  0  0  0  0  0  0
  152.2433  142.6872  160.4206 C   0  0  0  0  0  0  0  0  0  0  0  0
  152.2832  143.8505  161.2138 C   0  0  0  0  0  0  0  0  0  0  0  0
  152.0140  145.1061  160.6386 C   0  0  0  0  0  0  0  0  0  0  0  0
  151.7050  145.1974  159.2690 C   0  0  0  0  0  0  0  0  0  0  0  0
  151.6636  144.0353  158.4742 C   0  0  0  0  0  0  0  0  0  0  0  0
  149.1057  141.4768  154.4466 C   0  0  1  0  0  0  0  0  0  0  0  0
  149.6773  140.4865  153.6112 O   0  0  0  0  0  0  0  0  0  0  0  0
  147.5837  141.4241  154.3826 C   0  0  2  0  0  0  0  0  0  0  0  0
  147.0605  142.7295  154.5626 O   0  0  0  0  0  0  0  0  0  0  0  0
  144.8841  140.4151  156.4340 C   0  0  0  0  0  0  0  0  0  0  0  0
  144.5771  139.5265  155.6400 O   0  0  0  0  0  0  0  0  0  0  0  0
  143.9384  140.9146  157.3271 N   0  0  0  0  0  0  0  0  0  0  0  0
  144.1619  141.9230  158.2673 C   0  0  0  0  0  0  0  0  0  0  0  0
  143.2441  142.2811  159.0035 O   0  0  0  0  0  0  0  0  0  0  0  0
  143.0124  140.5141  157.2920 H   0  0  0  0  0  0  0  0  0  0  0  0
  146.8875  143.8866  159.2053 H   0  0  0  0  0  0  0  0  0  0  0  0
  145.6718  143.2236  160.2951 H   0  0  0  0  0  0  0  0  0  0  0  0
  145.2179  144.4424  159.0975 H   0  0  0  0  0  0  0  0  0  0  0  0
  147.4319  142.4115  157.4500 H   0  0  0  0  0  0  0  0  0  0  0  0
  146.8436  139.4832  155.1739 H   0  0  0  0  0  0  0  0  0  0  0  0
  149.1602  142.0774  156.4946 H   0  0  0  0  0  0  0  0  0  0  0  0
  150.7559  139.7734  156.8556 H   0  0  0  0  0  0  0  0  0  0  0  0
  151.3516  140.4776  155.3521 H   0  0  0  0  0  0  0  0  0  0  0  0
  152.4524  141.7341  160.8850 H   0  0  0  0  0  0  0  0  0  0  0  0
  152.5199  143.7784  162.2652 H   0  0  0  0  0  0  0  0  0  0  0  0
  152.0436  145.9978  161.2474 H   0  0  0  0  0  0  0  0  0  0  0  0
  151.4988  146.1606  158.8259 H   0  0  0  0  0  0  0  0  0  0  0  0
  151.4220  144.1418  157.4265 H   0  0  0  0  0  0  0  0  0  0  0  0
  149.5079  142.4455  154.1461 H   0  0  0  0  0  0  0  0  0  0  0  0
  149.3546  140.6102  152.7316 H   0  0  0  0  0  0  0  0  0  0  0  0
  147.2181  141.0333  153.4319 H   0  0  0  0  0  0  0  0  0  0  0  0
  147.7775  143.3109  154.7661 H   0  0  0  0  0  0  0  0  0  0  0  0
  1  2  1  0  0  0  0
  1 28  1  0  0  0  0
  1 29  1  0  0  0  0
  1 30  1  0  0  0  0
  2 25  1  0  0  0  0
  2  3  2  0  0  0  0
  3  4  1  0  0  0  0
  3 31  1  0  0  0  0
  4  5  1  0  0  0  0
  4 22  1  0  0  0  0
  5 20  1  0  0  0  0
  5  6  1  0  0  0  0
  5 32  1  0  0  0  0
  6  7  1  0  0  0  0
  7  8  1  0  0  0  0
  7 18  1  0  0  0  0
  7 33  1  0  0  0  0
  8  9  1  0  0  0  0
  8 34  1  0  0  0  0
  8 35  1  0  0  0  0
  9 10  1  0  0  0  0
 10 11  2  0  0  0  0
 10 12  1  0  0  0  0
 12 17  1  0  0  0  0
 12 13  2  0  0  0  0
 13 14  1  0  0  0  0
 13 36  1  0  0  0  0
 14 15  2  0  0  0  0
 14 37  1  0  0  0  0
 15 16  1  0  0  0  0
 15 38  1  0  0  0  0
 16 17  2  0  0  0  0
 16 39  1  0  0  0  0
 17 40  1  0  0  0  0
 18 19  1  0  0  0  0
 18 20  1  0  0  0  0
 18 41  1  0  0  0  0
 19 42  1  0  0  0  0
 20 21  1  0  0  0  0
 20 43  1  0  0  0  0
 21 44  1  0  0  0  0
 22 23  2  0  0  0  0
 22 24  1  0  0  0  0
 24 27  1  0  0  0  0
 24 25  1  0  0  0  0
 25 26  2  0  0  0  0
M  END
> <s_m_source_file>
AV-unprocessed.smi

> <i_m_source_file_index>
101

> <i_lp_mmshare_version>
43012

> <i_f3d_flags>
0

> <s_epik_input>
Tz1jMVtuSF1jKD1PKW4oW2NIXWMxW0NIM10pW0NAQEhdMk9bQ0BIXShbQ0BASF0oW09IXSlbQ0BIXTJbT0hdKVtDSDJdT0MoPU8pYzNbY0hdW2NIXVtjSF1bY0hdW2NIXTM=

> <s_epik_cmdline>
J2VwaWtfcHl0aG9uJywgJy1waCcsICc3LjAnLCAnLXRuJywgJzgnLCAnLW1hJywgJzIwMCcsICctbWV0YWxfYmluZGluZycsICctaW1hZScsICc8aW5maWxlLm1hZT4nLCAnLW9tYWUnLCAnPG91dGZpbGUubWFlPic=

> <r_lp_tautomer_probability>
0.999537

> <r_epik_Ionization_Penalty>
0.00263537

> <r_epik_Ionization_Penalty_Charging>
0.00263428

> <r_epik_Ionization_Penalty_Neutral>
1.09111e-06

> <r_epik_State_Penalty>
0.00183335

> <r_epik_Charging_Adjusted_Penalty>
0.00446763

> <i_epik_Tot_Q>
0

> <i_epik_Tot_abs_Q>
0

> <r_epik_Metal_State_Penalty>
1.00528

> <b_epik_Metal_Only>
0

> <s_epik_Chemistry_Notes>
This compound has an ester and may undergo hydrolysis at high or low pH. This compound contains an acetal/aminal-like group ( X-CH(R)-Y where X, Y are N, S, or O) that may be acid/base labile, releasing an aldehyde.

> <s_lp_Force_Field>
OPLS_2005

> <r_lp_Energy>
37.3052

> <b_lp_Chiralities_Consistent>
1

> <s_lp_Variant>
AV-unprocessed.smi:101-9

> <Gold.Version>
5.8.1

> <Gold.Id.Protein>
6NUR|6NUR_protein|mol2

> <Gold.PLP.Fitness>
46.7520

> <Gold.PLP.PLP>
-42.2385

> <Gold.PLP.part.hbond>
-3.0205

> <Gold.PLP.part.metal>
0.0000

> <Gold.PLP.part.buried>
-4.7801

> <Gold.PLP.part.nonpolar>
-33.8279

> <Gold.PLP.part.repulsive>
0.1743

> <Gold.PLP.ligand.clash>
0.0000

> <Gold.PLP.ligand.torsion>
1.7263

> <Gold.PLP.Chemscore.Hbond>
2.6080

> <Gold.PLP.Chemscore.CHOScore>
0.0000

> <Gold.PLP.Chemscore.Metal>
0.0000

> <Gold.Chemscore.Hbonds>
donor molecule, donor type, donor heavy atom, donor atom, acceptor molecule, acceptor atom, score
      L1  H    19    42       P1  7957  0.82
      L1  H    21    44       P1  8028  1.00
      P1  H  7989  7998       L1    19  0.51

> <Gold.PLP.Chemscore.Internal.Correction>
0.1420

> <Gold.Rescore>
     Score         DG    S(hbond)    S(metal)    S(lipo)     H(rot)  DE(clash)    DE(int)     intcor
     12.30     -15.13       1.87        0.00     101.79       3.32       0.10       2.73       ----

> <Gold.Chemscore.Fitness>
12.3030

> <Gold.Chemscore.DG>
-15.1272

> <Gold.Chemscore.ZeroCoef>
-5.4800

> <Gold.Chemscore.Hbond>
1.8651

> <Gold.Chemscore.Metal>
0.0000

> <Gold.Chemscore.Lipo>
101.7925

> <Gold.Chemscore.Internal_Hbond>
0.0000

> <Gold.Chemscore.DEClash>
0.0987

> <Gold.Chemscore.DEInternal>
2.7255

> <Gold.Chemscore.Rot>
3.3172

> <Gold.Chemscore.Internal.Correction>
   9.000000E+99

> <Gold.Chemscore.Hbonds>
donor molecule, donor type, donor heavy atom, donor atom, acceptor molecule, acceptor atom, score
      L1  H    19    42       P1  7957  0.81
      L1  H    21    44       P1  8028  0.59
      P1  H  7989  7998       L1    19  0.12

> <Gold.Chemscore.Hbond.Weighted>
-6.2295

> <Gold.Chemscore.Metal.Weighted>
-0.0000

> <Gold.Chemscore.Lipo.Weighted>
-11.9097

> <Gold.Chemscore.Internal_Hbond.Weighted>
0.0000

> <Gold.Chemscore.DEClash.Weighted>
0.0987

> <Gold.Chemscore.DEInternal.Weighted>
2.7255

> <Gold.Chemscore.Rot.Weighted>
8.4920

> <Gold.Chemscore.Internal.Correction.Weighted>
   9.000000E+99

> <Gold.Protein.RotatedTorsions>
[ 6907 6896 6895 6894 ] final -161.61 input  -60.11 | X-H torsion
[ 7974 7965 7964 7962 ] final -121.80 input  175.53 | X-H torsion
[ 8008 7997 7996 7995 ] final  171.06 input   59.86 | X-H torsion
[ 10167 10162 10161 10158 ] final -107.38 input  -65.29 | X-H torsion
[ 10718 10713 10712 10709 ] final   35.87 input   66.30 | X-H torsion
[ 10763 10752 10751 10750 ] final  101.25 input  -60.55 | X-H torsion
[ 11005 11000 10999 10996 ] final    4.57 input  -57.11 | X-H torsion

> <Gold.Protein.ActiveResidues>
 VAL166  LYS551  ARG553  GLY616  TRP617  ASP618  TYR619  PRO620  LYS621  CYS622 
 ASP623  PHE694  ASN695  SER759  ASP760  ASP761  ALA762  ILE779  LEU786  VAL792 
 PHE793  MET794  SER795  GLU796  ALA797  LYS798  CYS799  TRP800  GLU811  SER814 

> <Gold.Protein.RotatedAtoms>
  151.3673  133.3867  159.2695 H   0  0  0  0  0  0  0  0  0  0  0  0  # atno 6907 bound_to 6896
  150.9678  134.9057  159.7780 H   0  0  0  0  0  0  0  0  0  0  0  0  # atno 6908 bound_to 6896
  152.5173  134.3635  159.9345 H   0  0  0  0  0  0  0  0  0  0  0  0  # atno 6909 bound_to 6896
  145.0364  140.8109  143.4293 H   0  0  0  0  0  0  0  0  0  0  0  0  # atno 7974 bound_to 7965
  156.1307  140.1521  156.9070 H   0  0  0  0  0  0  0  0  0  0  0  0  # atno 8008 bound_to 7997
  154.4906  140.0852  156.7627 H   0  0  0  0  0  0  0  0  0  0  0  0  # atno 8009 bound_to 7997
  155.4262  140.3425  155.4278 H   0  0  0  0  0  0  0  0  0  0  0  0  # atno 8010 bound_to 7997
  140.1775  143.3993  152.1307 H   0  0  0  0  0  0  0  0  0  0  0  0  # atno 10167 bound_to 10162
  157.3280  130.7483  149.6828 H   0  0  0  0  0  0  0  0  0  0  0  0  # atno 10718 bound_to 10713
  153.3243  135.4051  155.1443 H   0  0  0  0  0  0  0  0  0  0  0  0  # atno 10763 bound_to 10752
  154.8608  135.3595  154.5554 H   0  0  0  0  0  0  0  0  0  0  0  0  # atno 10764 bound_to 10752
  153.5989  135.7071  153.5451 H   0  0  0  0  0  0  0  0  0  0  0  0  # atno 10765 bound_to 10752
  140.5804  134.0018  155.8045 H   0  0  0  0  0  0  0  0  0  0  0  0  # atno 11005 bound_to 11000
  145.1704  139.2407  143.5345 LP  0  0  0  0  0  0  0  0  0  0  0  0  # atno 17320 bound_to 7965
  146.3504  140.1453  142.8593 LP  0  0  0  0  0  0  0  0  0  0  0  0  # atno 17321 bound_to 7965
  139.5310  144.7159  151.5055 LP  0  0  0  0  0  0  0  0  0  0  0  0  # atno 17342 bound_to 10162
  140.6541  143.8635  150.6817 LP  0  0  0  0  0  0  0  0  0  0  0  0  # atno 17343 bound_to 10162
  155.9692  130.4203  150.4419 LP  0  0  0  0  0  0  0  0  0  0  0  0  # atno 17370 bound_to 10713
  157.2446  131.0533  151.2416 LP  0  0  0  0  0  0  0  0  0  0  0  0  # atno 17371 bound_to 10713
  141.1000  133.9784  157.3096 LP  0  0  0  0  0  0  0  0  0  0  0  0  # atno 17394 bound_to 11000
  139.9320  135.0199  156.8431 LP  0  0  0  0  0  0  0  0  0  0  0  0  # atno 17395 bound_to 11000

$$$$
