AV-unprocessed.smi:184|AV-procd|sdf|1461|dock6
  -GOLD-   2262019273D 1   1.00000     0.00000
 Structure written by MMmdl.
 54 58  0  0  0  0  0  0  0  0  1 V2000
  150.6192  141.4619  155.4943 O   0  0  0  0  0  0  0  0  0  0  0  0
  150.8004  141.7372  156.6779 C   0  0  0  0  0  0  0  0  0  0  0  0
  151.8655  140.9674  157.4800 C   0  0  0  0  0  0  0  0  0  0  0  0
  151.9239  141.3283  158.9064 N   0  0  0  0  0  0  0  0  0  0  0  0
  152.7942  140.6530  159.7013 C   0  0  0  0  0  0  0  0  0  0  0  0
  153.0837  141.1370  160.9384 N   0  0  0  0  0  0  0  0  0  0  0  0
  153.9303  140.4843  161.7395 C   0  0  0  0  0  0  0  0  0  0  0  0
  154.5934  139.3510  161.5054 N   0  0  0  0  0  0  0  0  0  0  0  0
  154.3175  138.8641  160.2624 C   0  0  0  0  0  0  0  0  0  0  0  0
  153.4401  139.4471  159.3041 C   0  0  0  0  0  0  0  0  0  0  0  0
  153.4314  138.6778  158.1460 N   0  0  0  0  0  0  0  0  0  0  0  0
  154.2425  137.6905  158.4109 C   0  0  0  0  0  0  0  0  0  0  0  0
  154.8132  137.7189  159.6633 N   0  0  0  0  0  0  0  0  0  0  0  0
  155.7515  136.7521  160.2151 C   0  0  0  0  0  0  0  0  0  0  0  0
  155.0800  135.6019  161.0144 C   0  0  0  0  0  0  0  0  0  0  0  0
  154.1944  134.9322  160.1355 O   0  0  0  0  0  0  0  0  0  0  0  0
  156.1126  134.5651  161.5003 C   0  0  0  0  0  0  0  0  0  0  0  0
  156.9268  135.0906  162.6968 C   0  0  0  0  0  0  0  0  0  0  0  0
  156.0507  135.4776  163.7499 O   0  0  0  0  0  0  0  0  0  0  0  0
  155.1703  136.5339  163.3824 C   0  0  0  0  0  0  0  0  0  0  0  0
  154.2569  136.0770  162.2313 C   0  0  0  0  0  0  0  0  0  0  0  0
  151.6023  142.7066  159.2817 C   0  0  1  0  0  0  0  0  0  0  0  0
  152.7045  143.6900  158.8168 C   0  0  0  0  0  0  0  0  0  0  0  0
  152.3187  145.1509  159.0902 C   0  0  0  0  0  0  0  0  0  0  0  0
  150.9738  145.4953  158.4338 C   0  0  0  0  0  0  0  0  0  0  0  0
  149.8665  144.5525  158.9309 C   0  0  0  0  0  0  0  0  0  0  0  0
  150.2146  143.0688  158.7011 C   0  0  1  0  0  0  0  0  0  0  0  0
  150.1011  142.7096  157.2874 N   0  0  0  0  0  0  0  0  0  0  0  0
  151.6622  139.8996  157.3879 H   0  0  0  0  0  0  0  0  0  0  0  0
  152.8302  141.1549  157.0065 H   0  0  0  0  0  0  0  0  0  0  0  0
  154.1004  140.9338  162.7067 H   0  0  0  0  0  0  0  0  0  0  0  0
  154.4473  136.9071  157.6957 H   0  0  0  0  0  0  0  0  0  0  0  0
  156.3347  136.3426  159.3888 H   0  0  0  0  0  0  0  0  0  0  0  0
  156.4624  137.2934  160.8387 H   0  0  0  0  0  0  0  0  0  0  0  0
  154.4409  135.1384  159.2468 H   0  0  0  0  0  0  0  0  0  0  0  0
  155.5995  133.6542  161.8133 H   0  0  0  0  0  0  0  0  0  0  0  0
  156.7796  134.2751  160.6875 H   0  0  0  0  0  0  0  0  0  0  0  0
  157.5901  134.3087  163.0663 H   0  0  0  0  0  0  0  0  0  0  0  0
  157.5624  135.9288  162.4102 H   0  0  0  0  0  0  0  0  0  0  0  0
  154.5679  136.8045  164.2497 H   0  0  0  0  0  0  0  0  0  0  0  0
  155.7444  137.4194  163.1098 H   0  0  0  0  0  0  0  0  0  0  0  0
  153.5612  136.8705  161.9586 H   0  0  0  0  0  0  0  0  0  0  0  0
  153.6400  135.2546  162.5970 H   0  0  0  0  0  0  0  0  0  0  0  0
  151.5266  142.7990  160.3644 H   0  0  0  0  0  0  0  0  0  0  0  0
  153.6445  143.4602  159.3197 H   0  0  0  0  0  0  0  0  0  0  0  0
  152.8960  143.5733  157.7497 H   0  0  0  0  0  0  0  0  0  0  0  0
  152.2583  145.3200  160.1659 H   0  0  0  0  0  0  0  0  0  0  0  0
  153.0966  145.8162  158.7147 H   0  0  0  0  0  0  0  0  0  0  0  0
  150.7069  146.5291  158.6543 H   0  0  0  0  0  0  0  0  0  0  0  0
  151.0636  145.4241  157.3490 H   0  0  0  0  0  0  0  0  0  0  0  0
  149.7121  144.7207  159.9976 H   0  0  0  0  0  0  0  0  0  0  0  0
  148.9205  144.7980  158.4470 H   0  0  0  0  0  0  0  0  0  0  0  0
  149.4641  142.4674  159.2168 H   0  0  0  0  0  0  0  0  0  0  0  0
  149.4192  143.2146  156.7400 H   0  0  0  0  0  0  0  0  0  0  0  0
  1  2  2  0  0  0  0
  2 28  1  0  0  0  0
  2  3  1  0  0  0  0
  3  4  1  0  0  0  0
  3 29  1  0  0  0  0
  3 30  1  0  0  0  0
  4  5  1  0  0  0  0
  4 22  1  0  0  0  0
  5 10  1  0  0  0  0
  5  6  2  0  0  0  0
  6  7  1  0  0  0  0
  7  8  2  0  0  0  0
  7 31  1  0  0  0  0
  8  9  1  0  0  0  0
  9 13  1  0  0  0  0
  9 10  2  0  0  0  0
 10 11  1  0  0  0  0
 11 12  2  0  0  0  0
 12 13  1  0  0  0  0
 12 32  1  0  0  0  0
 13 14  1  0  0  0  0
 14 15  1  0  0  0  0
 14 33  1  0  0  0  0
 14 34  1  0  0  0  0
 15 21  1  0  0  0  0
 15 16  1  0  0  0  0
 15 17  1  0  0  0  0
 16 35  1  0  0  0  0
 17 18  1  0  0  0  0
 17 36  1  0  0  0  0
 17 37  1  0  0  0  0
 18 19  1  0  0  0  0
 18 38  1  0  0  0  0
 18 39  1  0  0  0  0
 19 20  1  0  0  0  0
 20 21  1  0  0  0  0
 20 40  1  0  0  0  0
 20 41  1  0  0  0  0
 21 42  1  0  0  0  0
 21 43  1  0  0  0  0
 22 27  1  0  0  0  0
 22 23  1  0  0  0  0
 22 44  1  0  0  0  0
 23 24  1  0  0  0  0
 23 45  1  0  0  0  0
 23 46  1  0  0  0  0
 24 25  1  0  0  0  0
 24 47  1  0  0  0  0
 24 48  1  0  0  0  0
 25 26  1  0  0  0  0
 25 49  1  0  0  0  0
 25 50  1  0  0  0  0
 26 27  1  0  0  0  0
 26 51  1  0  0  0  0
 26 52  1  0  0  0  0
 27 28  1  0  0  0  0
 27 53  1  0  0  0  0
 28 54  1  0  0  0  0
M  END
> <s_m_source_file>
AV-unprocessed.smi

> <i_m_source_file_index>
184

> <i_lp_mmshare_version>
43012

> <i_f3d_flags>
0

> <s_epik_input>
W0NIMl0xW0NIMl1bQ0gyXVtDSDJdW0NASF0oW0NASF0xMilbTkhdQyg9TylbQ0gyXU4yYyhuW2NIXW4zKWMoYzM0KW5bY0hdbjRbQ0gyXUM1KFtPSF0pW0NIMl1bQ0gyXU9bQ0gyXVtDSDJdNQ==

> <s_epik_cmdline>
J2VwaWtfcHl0aG9uJywgJy1waCcsICc3LjAnLCAnLXRuJywgJzgnLCAnLW1hJywgJzIwMCcsICctbWV0YWxfYmluZGluZycsICctaW1hZScsICc8aW5maWxlLm1hZT4nLCAnLW9tYWUnLCAnPG91dGZpbGUubWFlPic=

> <r_lp_tautomer_probability>
1

> <r_epik_Ionization_Penalty>
0.000822761

> <r_epik_Ionization_Penalty_Charging>
0

> <r_epik_Ionization_Penalty_Neutral>
0.000822761

> <r_epik_State_Penalty>
0.000403048

> <r_epik_Charging_Adjusted_Penalty>
0.000403048

> <i_epik_Tot_Q>
0

> <i_epik_Tot_abs_Q>
0

> <r_epik_Metal_State_Penalty>
-0

> <b_epik_Metal_Only>
0

> <s_lp_Force_Field>
OPLS_2005

> <r_lp_Energy>
37.4229

> <b_lp_Chiralities_Consistent>
1

> <s_lp_Variant>
AV-unprocessed.smi:184-1

> <Gold.Version>
5.8.1

> <Gold.Id.Protein>
6NUR|6NUR_protein|mol2

> <Gold.PLP.Fitness>
43.6744

> <Gold.PLP.PLP>
-35.7848

> <Gold.PLP.part.hbond>
-4.0000

> <Gold.PLP.part.metal>
0.0000

> <Gold.PLP.part.buried>
-2.6629

> <Gold.PLP.part.nonpolar>
-27.4645

> <Gold.PLP.part.repulsive>
0.1102

> <Gold.PLP.ligand.clash>
0.0000

> <Gold.PLP.ligand.torsion>
0.4688

> <Gold.PLP.Chemscore.Hbond>
2.8773

> <Gold.PLP.Chemscore.CHOScore>
0.0000

> <Gold.PLP.Chemscore.Metal>
0.0000

> <Gold.Chemscore.Hbonds>
donor molecule, donor type, donor heavy atom, donor atom, acceptor molecule, acceptor atom, score
      L1  H    28    54       P1  8028  1.00
      P1  H  6896  6907       L1    16  1.00
      P1  H  7989  7998       L1     1  0.17
      P1  H  7997  8009       L1    11  0.46

> <Gold.PLP.Chemscore.Internal.Correction>
0.1954

> <Gold.Rescore>
     Score         DG    S(hbond)    S(metal)    S(lipo)     H(rot)  DE(clash)    DE(int)     intcor
     16.49     -20.16       2.59        0.00      91.57       1.83       1.80       1.87       ----

> <Gold.Chemscore.Fitness>
16.4860

> <Gold.Chemscore.DG>
-20.1565

> <Gold.Chemscore.ZeroCoef>
-5.4800

> <Gold.Chemscore.Hbond>
2.5858

> <Gold.Chemscore.Metal>
0.0000

> <Gold.Chemscore.Lipo>
91.5655

> <Gold.Chemscore.Internal_Hbond>
0.0000

> <Gold.Chemscore.DEClash>
1.8007

> <Gold.Chemscore.DEInternal>
1.8698

> <Gold.Chemscore.Rot>
1.8255

> <Gold.Chemscore.Internal.Correction>
   9.000000E+99

> <Gold.Chemscore.Hbonds>
donor molecule, donor type, donor heavy atom, donor atom, acceptor molecule, acceptor atom, score
      L1  H    28    54       P1  8028  0.95
      P1  H  6896  6907       L1    16  0.40
      P1  H  7989  7998       L1     1  0.17
      P1  H  7997  8009       L1    11  0.09

> <Gold.Chemscore.Hbond.Weighted>
-8.6365

> <Gold.Chemscore.Metal.Weighted>
-0.0000

> <Gold.Chemscore.Lipo.Weighted>
-10.7132

> <Gold.Chemscore.Internal_Hbond.Weighted>
0.0000

> <Gold.Chemscore.DEClash.Weighted>
1.8007

> <Gold.Chemscore.DEInternal.Weighted>
1.8698

> <Gold.Chemscore.Rot.Weighted>
4.6732

> <Gold.Chemscore.Internal.Correction.Weighted>
   9.000000E+99

> <Gold.Protein.RotatedTorsions>
[ 6907 6896 6895 6894 ] final   63.82 input  -60.11 | X-H torsion
[ 7974 7965 7964 7962 ] final  142.38 input  175.53 | X-H torsion
[ 8008 7997 7996 7995 ] final  177.30 input   59.86 | X-H torsion
[ 10167 10162 10161 10158 ] final  121.07 input  -65.29 | X-H torsion
[ 10718 10713 10712 10709 ] final   72.39 input   66.30 | X-H torsion
[ 10763 10752 10751 10750 ] final   21.32 input  -60.55 | X-H torsion
[ 11005 11000 10999 10996 ] final   11.24 input  -57.11 | X-H torsion

> <Gold.Protein.ActiveResidues>
 VAL166  LYS551  ARG553  GLY616  TRP617  ASP618  TYR619  PRO620  LYS621  CYS622 
 ASP623  PHE694  ASN695  SER759  ASP760  ASP761  ALA762  ILE779  LEU786  VAL792 
 PHE793  MET794  SER795  GLU796  ALA797  LYS798  CYS799  TRP800  GLU811  SER814 

> <Gold.Protein.RotatedAtoms>
  152.4283  134.5826  159.9951 H   0  0  0  0  0  0  0  0  0  0  0  0  # atno 6907 bound_to 6896
  151.5956  133.3356  159.3044 H   0  0  0  0  0  0  0  0  0  0  0  0  # atno 6908 bound_to 6896
  150.8174  134.7400  159.6807 H   0  0  0  0  0  0  0  0  0  0  0  0  # atno 6909 bound_to 6896
  144.9013  139.5419  143.5752 H   0  0  0  0  0  0  0  0  0  0  0  0  # atno 7974 bound_to 7965
  156.0672  140.1362  156.9872 H   0  0  0  0  0  0  0  0  0  0  0  0  # atno 8008 bound_to 7997
  154.4512  140.0979  156.6676 H   0  0  0  0  0  0  0  0  0  0  0  0  # atno 8009 bound_to 7997
  155.5285  140.3458  155.4423 H   0  0  0  0  0  0  0  0  0  0  0  0  # atno 8010 bound_to 7997
  139.5942  144.7036  151.3216 H   0  0  0  0  0  0  0  0  0  0  0  0  # atno 10167 bound_to 10162
  157.6498  130.9576  150.0922 H   0  0  0  0  0  0  0  0  0  0  0  0  # atno 10718 bound_to 10713
  153.1005  135.6671  153.9682 H   0  0  0  0  0  0  0  0  0  0  0  0  # atno 10763 bound_to 10752
  153.9254  135.3010  155.3448 H   0  0  0  0  0  0  0  0  0  0  0  0  # atno 10764 bound_to 10752
  154.7425  135.5073  153.9222 H   0  0  0  0  0  0  0  0  0  0  0  0  # atno 10765 bound_to 10752
  140.5055  134.0704  155.7804 H   0  0  0  0  0  0  0  0  0  0  0  0  # atno 11005 bound_to 11000
  146.3110  139.7746  142.9020 LP  0  0  0  0  0  0  0  0  0  0  0  0  # atno 17320 bound_to 7965
  145.3611  141.0326  143.3284 LP  0  0  0  0  0  0  0  0  0  0  0  0  # atno 17321 bound_to 7965
  140.7198  143.7166  150.7728 LP  0  0  0  0  0  0  0  0  0  0  0  0  # atno 17342 bound_to 10162
  140.0729  143.5043  152.2570 LP  0  0  0  0  0  0  0  0  0  0  0  0  # atno 17343 bound_to 10162
  156.1868  130.3652  149.8962 LP  0  0  0  0  0  0  0  0  0  0  0  0  # atno 17370 bound_to 10713
  156.6901  130.8892  151.3587 LP  0  0  0  0  0  0  0  0  0  0  0  0  # atno 17371 bound_to 10713
  141.1413  133.9133  157.2319 LP  0  0  0  0  0  0  0  0  0  0  0  0  # atno 17394 bound_to 11000
  139.9689  135.0134  156.9459 LP  0  0  0  0  0  0  0  0  0  0  0  0  # atno 17395 bound_to 11000

$$$$
