AV-unprocessed.smi:753|AV-procd|sdf|3603|dock3
  -GOLD-   22720 0593D 1   1.00000     0.00000
 Structure written by MMmdl.
 44 46  0  0  0  0  0  0  0  0  2 V2000
  145.8620  150.8424  157.9469 C   0  0  0  0  0  0  0  0  0  0  0  0
  145.4575  149.4093  158.2201 C   0  0  0  0  0  0  0  0  0  0  0  0
  145.0891  148.5187  157.1887 C   0  0  0  0  0  0  0  0  0  0  0  0
  144.7192  147.1981  157.5191 C   0  0  0  0  0  0  0  0  0  0  0  0
  144.7266  146.7948  158.8725 C   0  0  0  0  0  0  0  0  0  0  0  0
  144.3248  145.3854  159.2596 C   0  0  0  0  0  0  0  0  0  0  0  0
  145.3916  144.7005  160.1288 C   0  0  0  0  0  0  0  0  0  0  0  0
  146.6928  144.6989  159.4726 N   0  0  0  0  0  0  0  0  0  0  0  0
  147.8630  144.4497  160.0843 C   0  0  0  0  0  0  0  0  0  0  0  0
  147.9591  144.1986  161.2843 O   0  0  0  0  0  0  0  0  0  0  0  0
  148.9379  144.4900  159.2776 N   0  0  0  0  0  0  0  0  0  0  0  0
  150.3402  144.2652  159.6358 C   0  0  2  0  0  0  0  0  0  0  0  0
  151.2787  145.3968  159.1527 C   0  0  0  0  0  0  0  0  0  0  0  0
  152.2910  144.6480  158.2663 C   0  0  1  0  0  0  0  0  0  0  0  0
  153.1863  143.7542  159.1465 C   0  0  0  0  0  0  0  0  0  0  0  0
  152.2306  142.6196  159.5654 C   0  0  0  0  0  0  0  0  0  0  0  0
  150.9059  143.0328  158.8972 C   0  0  2  0  0  0  0  0  0  0  0  0
  151.4001  143.6224  157.5792 C   0  0  0  0  0  0  0  0  0  0  0  0
  145.1051  147.7284  159.8606 C   0  0  0  0  0  0  0  0  0  0  0  0
  145.4514  148.9845  159.5037 N   0  3  0  0  0  0  0  0  0  0  0  0
  145.8818  151.0485  156.8763 H   0  0  0  0  0  0  0  0  0  0  0  0
  146.8554  151.0416  158.3501 H   0  0  0  0  0  0  0  0  0  0  0  0
  145.1567  151.5308  158.4134 H   0  0  0  0  0  0  0  0  0  0  0  0
  145.0872  148.8401  156.1574 H   0  0  0  0  0  0  0  0  0  0  0  0
  144.4307  146.5054  156.7416 H   0  0  0  0  0  0  0  0  0  0  0  0
  143.3710  145.4216  159.7882 H   0  0  0  0  0  0  0  0  0  0  0  0
  144.1509  144.8041  158.3528 H   0  0  0  0  0  0  0  0  0  0  0  0
  145.4921  145.2249  161.0794 H   0  0  0  0  0  0  0  0  0  0  0  0
  145.0935  143.6780  160.3678 H   0  0  0  0  0  0  0  0  0  0  0  0
  146.7078  144.8958  158.4822 H   0  0  0  0  0  0  0  0  0  0  0  0
  148.7638  144.7041  158.3061 H   0  0  0  0  0  0  0  0  0  0  0  0
  150.4150  144.1199  160.7152 H   0  0  0  0  0  0  0  0  0  0  0  0
  150.7403  146.1422  158.5650 H   0  0  0  0  0  0  0  0  0  0  0  0
  151.7605  145.9160  159.9819 H   0  0  0  0  0  0  0  0  0  0  0  0
  152.8483  145.2995  157.5928 H   0  0  0  0  0  0  0  0  0  0  0  0
  154.0249  143.3570  158.5730 H   0  0  0  0  0  0  0  0  0  0  0  0
  153.5922  144.2943  160.0028 H   0  0  0  0  0  0  0  0  0  0  0  0
  152.5791  141.6623  159.1752 H   0  0  0  0  0  0  0  0  0  0  0  0
  152.1425  142.5252  160.6484 H   0  0  0  0  0  0  0  0  0  0  0  0
  150.1981  142.2087  158.7989 H   0  0  0  0  0  0  0  0  0  0  0  0
  150.6072  144.0707  156.9781 H   0  0  0  0  0  0  0  0  0  0  0  0
  151.9535  142.9090  156.9658 H   0  0  0  0  0  0  0  0  0  0  0  0
  145.1374  147.5118  160.9186 H   0  0  0  0  0  0  0  0  0  0  0  0
  145.7191  149.6427  160.2358 H   0  0  0  0  0  0  0  0  0  0  0  0
  1  2  1  0  0  0  0
  1 21  1  0  0  0  0
  1 22  1  0  0  0  0
  1 23  1  0  0  0  0
  2 20  1  0  0  0  0
  2  3  2  0  0  0  0
  3  4  1  0  0  0  0
  3 24  1  0  0  0  0
  4  5  2  0  0  0  0
  4 25  1  0  0  0  0
  5  6  1  0  0  0  0
  5 19  1  0  0  0  0
  6  7  1  0  0  0  0
  6 26  1  0  0  0  0
  6 27  1  0  0  0  0
  7  8  1  0  0  0  0
  7 28  1  0  0  0  0
  7 29  1  0  0  0  0
  8  9  1  0  0  0  0
  8 30  1  0  0  0  0
  9 10  2  0  0  0  0
  9 11  1  0  0  0  0
 11 12  1  0  0  0  0
 11 31  1  0  0  0  0
 12 17  1  0  0  0  0
 12 13  1  0  0  0  0
 12 32  1  0  0  0  0
 13 14  1  0  0  0  0
 13 33  1  0  0  0  0
 13 34  1  0  0  0  0
 14 18  1  0  0  0  0
 14 15  1  0  0  0  0
 14 35  1  0  0  0  0
 15 16  1  0  0  0  0
 15 36  1  0  0  0  0
 15 37  1  0  0  0  0
 16 17  1  0  0  0  0
 16 38  1  0  0  0  0
 16 39  1  0  0  0  0
 17 18  1  0  0  0  0
 17 40  1  0  0  0  0
 18 41  1  0  0  0  0
 18 42  1  0  0  0  0
 19 20  2  0  0  0  0
 19 43  1  0  0  0  0
 20 44  1  0  0  0  0
M  CHG  1  20   1
M  END
> <s_m_source_file>
AV-unprocessed.smi

> <i_m_source_file_index>
753

> <i_lp_mmshare_version>
43012

> <i_f3d_flags>
0

> <s_epik_input>
W0NIM11jMVtjSF1bY0hdYyhbY0hdbjEpW0NIMl1bQ0gyXVtOSF1DKD1PKVtOSF1bQ0BIXShbQ0gyXVtDQEBIXTIzKVtDQEBIXShbQ0gyXTMpW0NIMl1bQ0gyXTI=

> <s_epik_cmdline>
J2VwaWtfcHl0aG9uJywgJy1waCcsICc3LjAnLCAnLXRuJywgJzgnLCAnLW1hJywgJzIwMCcsICctbWV0YWxfYmluZGluZycsICctaW1hZScsICc8aW5maWxlLm1hZT4nLCAnLW9tYWUnLCAnPG91dGZpbGUubWFlPic=

> <r_epik_Ionization_Penalty>
1.41708

> <r_epik_Ionization_Penalty_Charging>
1.41702

> <r_epik_Ionization_Penalty_Neutral>
5.73163e-05

> <r_epik_State_Penalty>
1.50048

> <r_epik_Charging_Adjusted_Penalty>
2.9175

> <i_epik_Tot_Q>
1

> <i_epik_Tot_abs_Q>
1

> <r_epik_Metal_State_Penalty>
1.55295

> <b_epik_Metal_Only>
0

> <s_lp_Force_Field>
OPLS_2005

> <r_lp_Energy>
57.028

> <b_lp_Chiralities_Consistent>
1

> <s_lp_Variant>
AV-unprocessed.smi:753-5

> <Gold.Version>
5.8.1

> <Gold.Id.Protein>
6NUR|6NUR_protein|mol2

> <Gold.PLP.Fitness>
53.8986

> <Gold.PLP.PLP>
-46.6014

> <Gold.PLP.part.hbond>
-3.0000

> <Gold.PLP.part.metal>
0.0000

> <Gold.PLP.part.buried>
-5.8271

> <Gold.PLP.part.nonpolar>
-39.5231

> <Gold.PLP.part.repulsive>
0.5166

> <Gold.PLP.ligand.clash>
0.0000

> <Gold.PLP.ligand.torsion>
0.1914

> <Gold.PLP.Chemscore.Hbond>
2.5520

> <Gold.PLP.Chemscore.CHOScore>
0.0000

> <Gold.PLP.Chemscore.Metal>
0.0000

> <Gold.Chemscore.Hbonds>
donor molecule, donor type, donor heavy atom, donor atom, acceptor molecule, acceptor atom, score
      L1  H     8    30       P1  8029  0.72
      L1  H    11    31       P1  8029  0.82
      P1  H  6933  6944       L1    10  1.00

> <Gold.PLP.Chemscore.Internal.Correction>
0.0241

> <Gold.Rescore>
     Score         DG    S(hbond)    S(metal)    S(lipo)     H(rot)  DE(clash)    DE(int)     intcor
     23.85     -24.13       2.15        0.00     130.82       1.50       0.10       0.18       ----

> <Gold.Chemscore.Fitness>
23.8525

> <Gold.Chemscore.DG>
-24.1294

> <Gold.Chemscore.ZeroCoef>
-5.4800

> <Gold.Chemscore.Hbond>
2.1526

> <Gold.Chemscore.Metal>
0.0000

> <Gold.Chemscore.Lipo>
130.8248

> <Gold.Chemscore.Internal_Hbond>
0.0000

> <Gold.Chemscore.DEClash>
0.0969

> <Gold.Chemscore.DEInternal>
0.1800

> <Gold.Chemscore.Rot>
1.5027

> <Gold.Chemscore.Internal.Correction>
   9.000000E+99

> <Gold.Chemscore.Hbonds>
donor molecule, donor type, donor heavy atom, donor atom, acceptor molecule, acceptor atom, score
      L1  H     8    30       P1  8029  0.70
      L1  H    11    31       P1  8029  0.49
      P1  H  6933  6944       L1    10  0.64

> <Gold.Chemscore.Hbond.Weighted>
-7.1897

> <Gold.Chemscore.Metal.Weighted>
-0.0000

> <Gold.Chemscore.Lipo.Weighted>
-15.3065

> <Gold.Chemscore.Internal_Hbond.Weighted>
0.0000

> <Gold.Chemscore.DEClash.Weighted>
0.0969

> <Gold.Chemscore.DEInternal.Weighted>
0.1800

> <Gold.Chemscore.Rot.Weighted>
3.8468

> <Gold.Chemscore.Internal.Correction.Weighted>
   9.000000E+99

> <Gold.Protein.RotatedTorsions>
[ 6907 6896 6895 6894 ] final    8.89 input  -60.11 | X-H torsion
[ 7974 7965 7964 7962 ] final  -60.20 input  175.53 | X-H torsion
[ 8008 7997 7996 7995 ] final   -7.90 input   59.86 | X-H torsion
[ 10167 10162 10161 10158 ] final   76.65 input  -65.29 | X-H torsion
[ 10718 10713 10712 10709 ] final  -35.85 input   66.30 | X-H torsion
[ 10763 10752 10751 10750 ] final  128.28 input  -60.55 | X-H torsion
[ 11005 11000 10999 10996 ] final   56.56 input  -57.11 | X-H torsion

> <Gold.Protein.ActiveResidues>
 VAL166  LYS551  ARG553  GLY616  TRP617  ASP618  TYR619  PRO620  LYS621  CYS622 
 ASP623  PHE694  ASN695  SER759  ASP760  ASP761  ALA762  ILE779  LEU786  VAL792 
 PHE793  MET794  SER795  GLU796  ALA797  LYS798  CYS799  TRP800  GLU811  SER814 

> <Gold.Protein.RotatedAtoms>
  151.7133  135.0908  160.0271 H   0  0  0  0  0  0  0  0  0  0  0  0  # atno 6907 bound_to 6896
  152.3648  133.6338  159.6050 H   0  0  0  0  0  0  0  0  0  0  0  0  # atno 6908 bound_to 6896
  150.7630  133.9282  159.3460 H   0  0  0  0  0  0  0  0  0  0  0  0  # atno 6909 bound_to 6896
  145.8183  140.8556  143.0146 H   0  0  0  0  0  0  0  0  0  0  0  0  # atno 7974 bound_to 7965
  154.5793  140.2395  155.8076 H   0  0  0  0  0  0  0  0  0  0  0  0  # atno 8008 bound_to 7997
  156.2167  140.3010  155.9813 H   0  0  0  0  0  0  0  0  0  0  0  0  # atno 8009 bound_to 7997
  155.2569  140.0413  157.2983 H   0  0  0  0  0  0  0  0  0  0  0  0  # atno 8010 bound_to 7997
  139.9900  144.5764  150.7826 H   0  0  0  0  0  0  0  0  0  0  0  0  # atno 10167 bound_to 10162
  156.3338  130.4283  149.7849 H   0  0  0  0  0  0  0  0  0  0  0  0  # atno 10718 bound_to 10713
  153.7230  135.3250  155.3270 H   0  0  0  0  0  0  0  0  0  0  0  0  # atno 10763 bound_to 10752
  154.8350  135.4504  154.1199 H   0  0  0  0  0  0  0  0  0  0  0  0  # atno 10764 bound_to 10752
  153.2324  135.6961  153.7955 H   0  0  0  0  0  0  0  0  0  0  0  0  # atno 10765 bound_to 10752
  140.0520  134.5723  155.9252 H   0  0  0  0  0  0  0  0  0  0  0  0  # atno 11005 bound_to 11000
  144.6750  140.0496  143.7479 LP  0  0  0  0  0  0  0  0  0  0  0  0  # atno 17320 bound_to 7965
  145.9702  139.2864  143.1103 LP  0  0  0  0  0  0  0  0  0  0  0  0  # atno 17321 bound_to 7965
  140.7458  143.2881  151.3406 LP  0  0  0  0  0  0  0  0  0  0  0  0  # atno 17342 bound_to 10162
  139.6347  144.0653  152.2506 LP  0  0  0  0  0  0  0  0  0  0  0  0  # atno 17343 bound_to 10162
  156.5111  130.8172  151.3169 LP  0  0  0  0  0  0  0  0  0  0  0  0  # atno 17370 bound_to 10713
  157.7435  130.9913  150.2598 LP  0  0  0  0  0  0  0  0  0  0  0  0  # atno 17371 bound_to 10713
  141.1934  133.6579  156.5549 LP  0  0  0  0  0  0  0  0  0  0  0  0  # atno 17394 bound_to 11000
  140.3903  134.7446  157.4717 LP  0  0  0  0  0  0  0  0  0  0  0  0  # atno 17395 bound_to 11000

$$$$
