AV-unprocessed.smi:2695|AV-procd|sdf|10408|dock10
  -GOLD-   2272014443D 1   1.00000     0.00000
 Structure written by MMmdl.
 41 42  0  0  0  0  0  0  0  0  2 V2000
  150.2489  135.3390  155.6902 C   0  0  0  0  0  0  0  0  0  0  0  0
  150.0765  136.8475  155.8231 C   0  0  0  0  0  0  0  0  0  0  0  0
  150.9911  137.6900  155.2943 C   0  0  0  0  0  0  0  0  0  0  0  0
  150.8475  139.0689  155.3747 C   0  0  0  0  0  0  0  0  0  0  0  0
  151.6931  139.8530  154.8903 O   0  5  0  0  0  0  0  0  0  0  0  0
  149.7057  139.5231  156.0213 C   0  0  0  0  0  0  0  0  0  0  0  0
  148.6815  138.6653  156.6043 C   0  0  0  0  0  0  0  0  0  0  0  0
  147.6799  139.1240  157.1570 O   0  0  0  0  0  0  0  0  0  0  0  0
  148.9216  137.3280  156.4965 N   0  0  0  0  0  0  0  0  0  0  0  0
  147.9578  136.3874  157.1120 C   0  0  0  0  0  0  0  0  0  0  0  0
  148.5260  135.6497  158.3332 C   0  0  0  0  0  0  0  0  0  0  0  0
  149.7327  135.6696  158.5783 O   0  0  0  0  0  0  0  0  0  0  0  0
  147.6286  135.0167  159.1035 N   0  0  0  0  0  0  0  0  0  0  0  0
  147.9227  134.2645  160.3240 C   0  0  1  0  0  0  0  0  0  0  0  0
  147.2778  134.9983  161.5275 C   0  0  0  0  0  0  0  0  0  0  0  0
  145.8368  135.4638  161.2757 C   0  0  0  0  0  0  0  0  0  0  0  0
  145.5618  136.5297  162.3401 C   0  0  0  0  0  0  0  0  0  0  0  0
  146.9326  137.0734  162.7651 C   0  0  0  0  0  0  0  0  0  0  0  0
  147.9756  136.2951  161.9555 C   0  0  0  0  0  0  0  0  0  0  0  0
  147.4515  132.7991  160.1570 C   0  0  0  0  0  0  0  0  0  0  0  0
  148.0524  132.2339  159.1096 F   0  0  0  0  0  0  0  0  0  0  0  0
  147.7594  132.0757  161.2327 F   0  0  0  0  0  0  0  0  0  0  0  0
  146.1322  132.7508  159.9685 F   0  0  0  0  0  0  0  0  0  0  0  0
  151.0258  135.1022  154.9628 H   0  0  0  0  0  0  0  0  0  0  0  0
  149.3366  134.8539  155.3436 H   0  0  0  0  0  0  0  0  0  0  0  0
  150.5472  134.9017  156.6432 H   0  0  0  0  0  0  0  0  0  0  0  0
  151.8552  137.2780  154.7925 H   0  0  0  0  0  0  0  0  0  0  0  0
  149.5528  140.5899  156.1045 H   0  0  0  0  0  0  0  0  0  0  0  0
  147.0263  136.8716  157.3989 H   0  0  0  0  0  0  0  0  0  0  0  0
  147.6364  135.6503  156.3733 H   0  0  0  0  0  0  0  0  0  0  0  0
  146.6603  135.0523  158.8196 H   0  0  0  0  0  0  0  0  0  0  0  0
  149.0028  134.2562  160.4828 H   0  0  0  0  0  0  0  0  0  0  0  0
  147.2637  134.3249  162.3863 H   0  0  0  0  0  0  0  0  0  0  0  0
  145.7619  135.9145  160.2847 H   0  0  0  0  0  0  0  0  0  0  0  0
  145.1162  134.6463  161.3191 H   0  0  0  0  0  0  0  0  0  0  0  0
  144.9102  137.3158  161.9574 H   0  0  0  0  0  0  0  0  0  0  0  0
  145.0613  136.0810  163.1991 H   0  0  0  0  0  0  0  0  0  0  0  0
  147.0171  138.1467  162.5921 H   0  0  0  0  0  0  0  0  0  0  0  0
  147.0812  136.9031  163.8323 H   0  0  0  0  0  0  0  0  0  0  0  0
  148.8809  136.1134  162.5352 H   0  0  0  0  0  0  0  0  0  0  0  0
  148.2569  136.8742  161.0746 H   0  0  0  0  0  0  0  0  0  0  0  0
  1  2  1  0  0  0  0
  1 24  1  0  0  0  0
  1 25  1  0  0  0  0
  1 26  1  0  0  0  0
  2  9  1  0  0  0  0
  2  3  2  0  0  0  0
  3  4  1  0  0  0  0
  3 27  1  0  0  0  0
  4  5  1  0  0  0  0
  4  6  2  0  0  0  0
  6  7  1  0  0  0  0
  6 28  1  0  0  0  0
  7  8  2  0  0  0  0
  7  9  1  0  0  0  0
  9 10  1  0  0  0  0
 10 11  1  0  0  0  0
 10 29  1  0  0  0  0
 10 30  1  0  0  0  0
 11 12  2  0  0  0  0
 11 13  1  0  0  0  0
 13 14  1  0  0  0  0
 13 31  1  0  0  0  0
 14 15  1  0  0  0  0
 14 20  1  0  0  0  0
 14 32  1  0  0  0  0
 15 19  1  0  0  0  0
 15 16  1  0  0  0  0
 15 33  1  0  0  0  0
 16 17  1  0  0  0  0
 16 34  1  0  0  0  0
 16 35  1  0  0  0  0
 17 18  1  0  0  0  0
 17 36  1  0  0  0  0
 17 37  1  0  0  0  0
 18 19  1  0  0  0  0
 18 38  1  0  0  0  0
 18 39  1  0  0  0  0
 19 40  1  0  0  0  0
 19 41  1  0  0  0  0
 20 21  1  0  0  0  0
 20 22  1  0  0  0  0
 20 23  1  0  0  0  0
M  CHG  1   5  -1
M  END
> <s_m_source_file>
AV-unprocessed.smi

> <i_m_source_file_index>
2695

> <i_lp_mmshare_version>
43012

> <i_f3d_flags>
0

> <s_epik_input>
W0NIM11jMVtjSF1jKFtPSF0pW2NIXWMoPU8pbjFbQ0gyXUMoPU8pW05IXVtDQEBIXShDKEYpKEYpRilbQ0hdMltDSDJdW0NIMl1bQ0gyXVtDSDJdMg==

> <s_epik_cmdline>
J2VwaWtfcHl0aG9uJywgJy1waCcsICc3LjAnLCAnLXRuJywgJzgnLCAnLW1hJywgJzIwMCcsICctbWV0YWxfYmluZGluZycsICctaW1hZScsICc8aW5maWxlLm1hZT4nLCAnLW9tYWUnLCAnPG91dGZpbGUubWFlPic=

> <r_lp_tautomer_probability>
1

> <r_epik_Ionization_Penalty>
0.176977

> <r_epik_Ionization_Penalty_Charging>
0.176977

> <r_epik_Ionization_Penalty_Neutral>
1.44272e-07

> <r_epik_State_Penalty>
0.160849

> <r_epik_Charging_Adjusted_Penalty>
0.337826

> <i_epik_Tot_Q>
-1

> <i_epik_Tot_abs_Q>
1

> <r_epik_Metal_State_Penalty>
0.16085

> <b_epik_Metal_Only>
0

> <s_lp_Force_Field>
OPLS_2005

> <r_lp_Energy>
41.7446

> <b_lp_Chiralities_Consistent>
1

> <s_lp_Variant>
AV-unprocessed.smi:2695-2

> <Gold.Version>
5.8.1

> <Gold.Id.Protein>
6NUR|6NUR_protein|mol2

> <Gold.PLP.Fitness>
34.2701

> <Gold.PLP.PLP>
-28.9553

> <Gold.PLP.part.hbond>
-2.0000

> <Gold.PLP.part.metal>
0.0000

> <Gold.PLP.part.buried>
-3.4498

> <Gold.PLP.part.nonpolar>
-23.0193

> <Gold.PLP.part.repulsive>
0.1200

> <Gold.PLP.ligand.clash>
0.0000

> <Gold.PLP.ligand.torsion>
0.4916

> <Gold.PLP.Chemscore.Hbond>
2.0000

> <Gold.PLP.Chemscore.CHOScore>
0.0000

> <Gold.PLP.Chemscore.Metal>
0.0000

> <Gold.Chemscore.Hbonds>
donor molecule, donor type, donor heavy atom, donor atom, acceptor molecule, acceptor atom, score
      P1  H  6896  6907       L1    12  1.00
      P1  H  7989  7998       L1     5  1.00

> <Gold.PLP.Chemscore.Internal.Correction>
0.2979

> <Gold.Rescore>
     Score         DG    S(hbond)    S(metal)    S(lipo)     H(rot)  DE(clash)    DE(int)     intcor
     15.73     -16.44       2.00        0.00      75.01       1.75       0.00       0.71       ----

> <Gold.Chemscore.Fitness>
15.7262

> <Gold.Chemscore.DG>
-16.4362

> <Gold.Chemscore.ZeroCoef>
-5.4800

> <Gold.Chemscore.Hbond>
1.9970

> <Gold.Chemscore.Metal>
0.0000

> <Gold.Chemscore.Lipo>
75.0077

> <Gold.Chemscore.Internal_Hbond>
0.0000

> <Gold.Chemscore.DEClash>
0.0000

> <Gold.Chemscore.DEInternal>
0.7100

> <Gold.Chemscore.Rot>
1.7539

> <Gold.Chemscore.Internal.Correction>
   9.000000E+99

> <Gold.Chemscore.Hbonds>
donor molecule, donor type, donor heavy atom, donor atom, acceptor molecule, acceptor atom, score
      P1  H  6896  6907       L1    12  1.00
      P1  H  7989  7998       L1     5  0.97

> <Gold.Chemscore.Hbond.Weighted>
-6.6701

> <Gold.Chemscore.Metal.Weighted>
-0.0000

> <Gold.Chemscore.Lipo.Weighted>
-8.7759

> <Gold.Chemscore.Internal_Hbond.Weighted>
0.0000

> <Gold.Chemscore.DEClash.Weighted>
0.0000

> <Gold.Chemscore.DEInternal.Weighted>
0.7100

> <Gold.Chemscore.Rot.Weighted>
4.4899

> <Gold.Chemscore.Internal.Correction.Weighted>
   9.000000E+99

> <Gold.Protein.RotatedTorsions>
[ 6907 6896 6895 6894 ] final  -66.59 input  -60.11 | X-H torsion
[ 7974 7965 7964 7962 ] final  140.59 input  175.53 | X-H torsion
[ 8008 7997 7996 7995 ] final  174.51 input   59.86 | X-H torsion
[ 10167 10162 10161 10158 ] final   21.67 input  -65.29 | X-H torsion
[ 10718 10713 10712 10709 ] final    4.40 input   66.30 | X-H torsion
[ 10763 10752 10751 10750 ] final  -83.86 input  -60.55 | X-H torsion
[ 11005 11000 10999 10996 ] final -108.43 input  -57.11 | X-H torsion

> <Gold.Protein.ActiveResidues>
 VAL166  LYS551  ARG553  GLY616  TRP617  ASP618  TYR619  PRO620  LYS621  CYS622 
 ASP623  PHE694  ASN695  SER759  ASP760  ASP761  ALA762  ILE779  LEU786  VAL792 
 PHE793  MET794  SER795  GLU796  ALA797  LYS798  CYS799  TRP800  GLU811  SER814 

> <Gold.Protein.RotatedAtoms>
  150.7457  134.6000  159.6031 H   0  0  0  0  0  0  0  0  0  0  0  0  # atno 6907 bound_to 6896
  152.3364  134.7190  160.0285 H   0  0  0  0  0  0  0  0  0  0  0  0  # atno 6908 bound_to 6896
  151.7657  133.3301  159.3466 H   0  0  0  0  0  0  0  0  0  0  0  0  # atno 6909 bound_to 6896
  144.9172  139.5214  143.5680 H   0  0  0  0  0  0  0  0  0  0  0  0  # atno 7974 bound_to 7965
  156.0967  140.1432  156.9522 H   0  0  0  0  0  0  0  0  0  0  0  0  # atno 8008 bound_to 7997
  154.4676  140.0921  156.7106 H   0  0  0  0  0  0  0  0  0  0  0  0  # atno 8009 bound_to 7997
  155.4830  140.3445  155.4345 H   0  0  0  0  0  0  0  0  0  0  0  0  # atno 8010 bound_to 7997
  140.5409  143.9679  150.6518 H   0  0  0  0  0  0  0  0  0  0  0  0  # atno 10167 bound_to 10162
  156.8921  130.5691  149.5649 H   0  0  0  0  0  0  0  0  0  0  0  0  # atno 10718 bound_to 10713
  154.5927  135.5541  153.7294 H   0  0  0  0  0  0  0  0  0  0  0  0  # atno 10763 bound_to 10752
  153.0123  135.6347  154.1826 H   0  0  0  0  0  0  0  0  0  0  0  0  # atno 10764 bound_to 10752
  154.1767  135.2889  155.3044 H   0  0  0  0  0  0  0  0  0  0  0  0  # atno 10765 bound_to 10752
  141.0902  133.9068  157.2093 H   0  0  0  0  0  0  0  0  0  0  0  0  # atno 11005 bound_to 11000
  146.3188  139.8025  142.8962 LP  0  0  0  0  0  0  0  0  0  0  0  0  # atno 17320 bound_to 7965
  145.3355  141.0276  143.3422 LP  0  0  0  0  0  0  0  0  0  0  0  0  # atno 17321 bound_to 7965
  140.3079  143.3217  152.0907 LP  0  0  0  0  0  0  0  0  0  0  0  0  # atno 17342 bound_to 10162
  139.4988  144.6655  151.6367 LP  0  0  0  0  0  0  0  0  0  0  0  0  # atno 17343 bound_to 10162
  156.0624  130.5674  150.9219 LP  0  0  0  0  0  0  0  0  0  0  0  0  # atno 17370 bound_to 10713
  157.6077  131.0938  150.8850 LP  0  0  0  0  0  0  0  0  0  0  0  0  # atno 17371 bound_to 10713
  139.9727  135.0123  156.9552 LP  0  0  0  0  0  0  0  0  0  0  0  0  # atno 17394 bound_to 11000
  140.5269  134.0851  155.7306 LP  0  0  0  0  0  0  0  0  0  0  0  0  # atno 17395 bound_to 11000

$$$$
