AV-unprocessed.smi:2748|AV-procd|sdf|10581|dock1
  -GOLD-   2272015 33D 1   1.00000     0.00000
 Structure written by MMmdl.
 30 32  0  0  0  0  0  0  0  0  1 V2000
  146.8351  139.6134  152.4785 O   0  0  0  0  0  0  0  0  0  0  0  0
  147.7822  139.8541  153.2246 C   0  0  0  0  0  0  0  0  0  0  0  0
  148.7875  138.8990  153.4031 N   0  0  0  0  0  0  0  0  0  0  0  0
  149.9102  139.0442  154.2186 C   0  0  0  0  0  0  0  0  0  0  0  0
  150.7387  138.1364  154.2904 O   0  0  0  0  0  0  0  0  0  0  0  0
  150.0286  140.2616  154.9275 N   0  0  0  0  0  0  0  0  0  0  0  0
  151.1892  140.4470  155.7631 C   0  0  0  0  0  0  0  0  0  0  0  0
  150.8367  140.6125  157.2541 C   0  0  2  0  0  0  0  0  0  0  0  0
  150.1140  141.9538  157.5500 C   0  0  0  0  0  0  0  0  0  0  0  0
  151.0466  142.5962  158.5159 C   0  0  0  0  0  0  0  0  0  0  0  0
  150.9261  143.8469  159.1454 C   0  0  0  0  0  0  0  0  0  0  0  0
  151.9563  144.2431  160.0268 C   0  0  0  0  0  0  0  0  0  0  0  0
  153.0674  143.3964  160.2577 C   0  0  0  0  0  0  0  0  0  0  0  0
  153.1624  142.1437  159.6104 C   0  0  0  0  0  0  0  0  0  0  0  0
  152.1291  141.7634  158.7360 C   0  0  0  0  0  0  0  0  0  0  0  0
  152.0504  140.5960  158.0312 O   0  0  0  0  0  0  0  0  0  0  0  0
  149.0606  141.2419  154.7730 C   0  0  0  0  0  0  0  0  0  0  0  0
  147.9748  141.0938  153.9761 C   0  0  0  0  0  0  0  0  0  0  0  0
  146.8115  142.3627  153.8336 Cl  0  0  0  0  0  0  0  0  0  0  0  0
  148.6951  138.0315  152.8949 H   0  0  0  0  0  0  0  0  0  0  0  0
  151.8242  139.5733  155.6060 H   0  0  0  0  0  0  0  0  0  0  0  0
  151.7443  141.3003  155.3676 H   0  0  0  0  0  0  0  0  0  0  0  0
  150.2081  139.7871  157.5909 H   0  0  0  0  0  0  0  0  0  0  0  0
  149.9968  142.5775  156.6631 H   0  0  0  0  0  0  0  0  0  0  0  0
  149.1361  141.7980  158.0065 H   0  0  0  0  0  0  0  0  0  0  0  0
  150.0743  144.4847  158.9609 H   0  0  0  0  0  0  0  0  0  0  0  0
  151.8963  145.1983  160.5274 H   0  0  0  0  0  0  0  0  0  0  0  0
  153.8484  143.7103  160.9346 H   0  0  0  0  0  0  0  0  0  0  0  0
  154.0075  141.4941  159.7836 H   0  0  0  0  0  0  0  0  0  0  0  0
  149.1758  142.1730  155.3095 H   0  0  0  0  0  0  0  0  0  0  0  0
  1  2  2  0  0  0  0
  2 18  1  0  0  0  0
  2  3  1  0  0  0  0
  3 20  1  0  0  0  0
  3  4  1  0  0  0  0
  4  5  2  0  0  0  0
  4  6  1  0  0  0  0
  6  7  1  0  0  0  0
  6 17  1  0  0  0  0
  7  8  1  0  0  0  0
  7 21  1  0  0  0  0
  7 22  1  0  0  0  0
  8 16  1  0  0  0  0
  8  9  1  0  0  0  0
  8 23  1  0  0  0  0
  9 10  1  0  0  0  0
  9 24  1  0  0  0  0
  9 25  1  0  0  0  0
 10 15  2  0  0  0  0
 10 11  1  0  0  0  0
 11 12  2  0  0  0  0
 11 26  1  0  0  0  0
 12 13  1  0  0  0  0
 12 27  1  0  0  0  0
 13 14  2  0  0  0  0
 13 28  1  0  0  0  0
 14 15  1  0  0  0  0
 14 29  1  0  0  0  0
 15 16  1  0  0  0  0
 17 18  2  0  0  0  0
 17 30  1  0  0  0  0
 18 19  1  0  0  0  0
M  END
> <s_m_source_file>
AV-unprocessed.smi

> <i_m_source_file_index>
2748

> <i_lp_mmshare_version>
43012

> <i_f3d_flags>
0

> <s_epik_input>
Tz1jMVtuSF1jKD1PKW4oW2NIXWMxQ2wpW0NIMl1bQ0BIXShbQ0gyXTIpT2MoYzIzKVtjSF1bY0hdW2NIXVtjSF0z

> <s_epik_cmdline>
J2VwaWtfcHl0aG9uJywgJy1waCcsICc3LjAnLCAnLXRuJywgJzgnLCAnLW1hJywgJzIwMCcsICctbWV0YWxfYmluZGluZycsICctaW1hZScsICc8aW5maWxlLm1hZT4nLCAnLW9tYWUnLCAnPG91dGZpbGUubWFlPic=

> <r_lp_tautomer_probability>
0.999537

> <r_epik_Ionization_Penalty>
0.0203523

> <r_epik_Ionization_Penalty_Charging>
0.0203523

> <r_epik_Ionization_Penalty_Neutral>
0

> <r_epik_State_Penalty>
0.0163078

> <r_epik_Charging_Adjusted_Penalty>
0.0366602

> <i_epik_Tot_Q>
0

> <i_epik_Tot_abs_Q>
0

> <r_epik_Metal_State_Penalty>
1.99317

> <b_epik_Metal_Only>
0

> <s_lp_Force_Field>
OPLS_2005

> <r_lp_Energy>
20.6728

> <b_lp_Chiralities_Consistent>
1

> <s_lp_Variant>
AV-unprocessed.smi:2748-1

> <Gold.Version>
5.8.1

> <Gold.Id.Protein>
6NUR|6NUR_protein|mol2

> <Gold.PLP.Fitness>
46.6592

> <Gold.PLP.PLP>
-41.2981

> <Gold.PLP.part.hbond>
-2.0000

> <Gold.PLP.part.metal>
0.0000

> <Gold.PLP.part.buried>
-3.7840

> <Gold.PLP.part.nonpolar>
-36.3253

> <Gold.PLP.part.repulsive>
0.6167

> <Gold.PLP.ligand.clash>
0.0000

> <Gold.PLP.ligand.torsion>
0.0515

> <Gold.PLP.Chemscore.Hbond>
0.9913

> <Gold.PLP.Chemscore.CHOScore>
0.8294

> <Gold.PLP.Chemscore.Metal>
0.0000

> <Gold.Chemscore.Hbonds>
donor molecule, donor type, donor heavy atom, donor atom, acceptor molecule, acceptor atom, score
      L1  H     3    20       P1  7948  0.91
      L1  C    17    30       P1  8028  0.87

> <Gold.PLP.Chemscore.Internal.Correction>
0.0020

> <Gold.Rescore>
     Score         DG    S(hbond)    S(metal)    S(lipo)     H(rot)  DE(clash)    DE(int)     intcor
     17.31     -17.48       0.96        0.00     103.96       1.31       0.01       0.15       ----

> <Gold.Chemscore.Fitness>
17.3146

> <Gold.Chemscore.DG>
-17.4761

> <Gold.Chemscore.ZeroCoef>
-5.4800

> <Gold.Chemscore.Hbond>
0.9560

> <Gold.Chemscore.Metal>
0.0000

> <Gold.Chemscore.Lipo>
103.9646

> <Gold.Chemscore.Internal_Hbond>
0.0000

> <Gold.Chemscore.DEClash>
0.0115

> <Gold.Chemscore.DEInternal>
0.1500

> <Gold.Chemscore.Rot>
1.3129

> <Gold.Chemscore.Internal.Correction>
   9.000000E+99

> <Gold.Chemscore.Hbonds>
donor molecule, donor type, donor heavy atom, donor atom, acceptor molecule, acceptor atom, score
      L1  H     3    20       P1  7948  0.87

> <Gold.Chemscore.Hbond.Weighted>
-3.1932

> <Gold.Chemscore.Metal.Weighted>
-0.0000

> <Gold.Chemscore.Lipo.Weighted>
-12.1639

> <Gold.Chemscore.Internal_Hbond.Weighted>
0.0000

> <Gold.Chemscore.DEClash.Weighted>
0.0115

> <Gold.Chemscore.DEInternal.Weighted>
0.1500

> <Gold.Chemscore.Rot.Weighted>
3.3610

> <Gold.Chemscore.Internal.Correction.Weighted>
   9.000000E+99

> <Gold.Protein.RotatedTorsions>
[ 6907 6896 6895 6894 ] final   56.68 input  -60.11 | X-H torsion
[ 7974 7965 7964 7962 ] final   -6.65 input  175.53 | X-H torsion
[ 8008 7997 7996 7995 ] final -127.01 input   59.86 | X-H torsion
[ 10167 10162 10161 10158 ] final   54.12 input  -65.29 | X-H torsion
[ 10718 10713 10712 10709 ] final  143.87 input   66.30 | X-H torsion
[ 10763 10752 10751 10750 ] final  177.40 input  -60.55 | X-H torsion
[ 11005 11000 10999 10996 ] final -156.08 input  -57.11 | X-H torsion

> <Gold.Protein.ActiveResidues>
 VAL166  LYS551  ARG553  GLY616  TRP617  ASP618  TYR619  PRO620  LYS621  CYS622 
 ASP623  PHE694  ASN695  SER759  ASP760  ASP761  ALA762  ILE779  LEU786  VAL792 
 PHE793  MET794  SER795  GLU796  ALA797  LYS798  CYS799  TRP800  GLU811  SER814 

> <Gold.Protein.RotatedAtoms>
  152.3659  134.6805  160.0191 H   0  0  0  0  0  0  0  0  0  0  0  0  # atno 6907 bound_to 6896
  151.7113  133.3307  159.3299 H   0  0  0  0  0  0  0  0  0  0  0  0  # atno 6908 bound_to 6896
  150.7638  134.6464  159.6309 H   0  0  0  0  0  0  0  0  0  0  0  0  # atno 6909 bound_to 6896
  146.2326  140.2201  142.8337 H   0  0  0  0  0  0  0  0  0  0  0  0  # atno 7974 bound_to 7965
  155.2391  140.0428  157.2972 H   0  0  0  0  0  0  0  0  0  0  0  0  # atno 8008 bound_to 7997
  154.5839  140.2408  155.7984 H   0  0  0  0  0  0  0  0  0  0  0  0  # atno 8009 bound_to 7997
  156.2213  140.2969  155.9967 H   0  0  0  0  0  0  0  0  0  0  0  0  # atno 8010 bound_to 7997
  140.2335  144.3661  150.6406 H   0  0  0  0  0  0  0  0  0  0  0  0  # atno 10167 bound_to 10162
  157.3639  131.0969  151.0890 H   0  0  0  0  0  0  0  0  0  0  0  0  # atno 10718 bound_to 10713
  154.4939  135.2780  155.1475 H   0  0  0  0  0  0  0  0  0  0  0  0  # atno 10763 bound_to 10752
  154.3135  135.6224  153.5480 H   0  0  0  0  0  0  0  0  0  0  0  0  # atno 10764 bound_to 10752
  152.9892  135.5725  154.5367 H   0  0  0  0  0  0  0  0  0  0  0  0  # atno 10765 bound_to 10752
  140.6794  134.4161  157.5227 H   0  0  0  0  0  0  0  0  0  0  0  0  # atno 11005 bound_to 11000
  144.9638  140.8302  143.5497 LP  0  0  0  0  0  0  0  0  0  0  0  0  # atno 17320 bound_to 7965
  145.2175  139.2175  143.5110 LP  0  0  0  0  0  0  0  0  0  0  0  0  # atno 17321 bound_to 7965
  140.6167  143.2173  151.6777 LP  0  0  0  0  0  0  0  0  0  0  0  0  # atno 17342 bound_to 10162
  139.5102  144.3552  152.0614 LP  0  0  0  0  0  0  0  0  0  0  0  0  # atno 17343 bound_to 10162
  157.2020  130.6399  149.5742 LP  0  0  0  0  0  0  0  0  0  0  0  0  # atno 17370 bound_to 10713
  155.9742  130.4688  150.6372 LP  0  0  0  0  0  0  0  0  0  0  0  0  # atno 17371 bound_to 10713
  139.8956  134.8678  156.2123 LP  0  0  0  0  0  0  0  0  0  0  0  0  # atno 17394 bound_to 11000
  141.0329  133.6979  156.1462 LP  0  0  0  0  0  0  0  0  0  0  0  0  # atno 17395 bound_to 11000

$$$$
