AV-unprocessed.smi:2445|AV-procd|sdf|9635|dock4
  -GOLD-   2272013273D 1   1.00000     0.00000
 Structure written by MMmdl.
 40 41  0  0  0  0  0  0  0  0  1 V2000
  139.5250  136.8994  153.6386 C   0  0  0  0  0  0  0  0  0  0  0  0
  140.9116  136.4242  153.3654 C   0  0  0  0  0  0  0  0  0  0  0  0
  141.3670  135.1293  153.3412 C   0  0  0  0  0  0  0  0  0  0  0  0
  142.7283  135.0151  153.0509 N   0  0  0  0  0  0  0  0  0  0  0  0
  143.3096  136.2017  152.8527 C   0  0  0  0  0  0  0  0  0  0  0  0
  144.7654  136.3757  152.5416 C   0  0  2  0  0  0  0  0  0  0  0  0
  145.1316  135.8228  151.1571 C   0  0  0  0  0  0  0  0  0  0  0  0
  145.6947  135.8566  153.6617 C   0  0  0  0  0  0  0  0  0  0  0  0
  147.0025  136.5064  153.6659 N   0  0  0  0  0  0  0  0  0  0  0  0
  147.5586  137.1126  154.7231 C   0  0  0  0  0  0  0  0  0  0  0  0
  147.0121  137.2225  155.8204 O   0  0  0  0  0  0  0  0  0  0  0  0
  148.7851  137.5707  154.4386 N   0  0  0  0  0  0  0  0  0  0  0  0
  149.6776  138.2609  155.3702 C   0  0  1  0  0  0  0  0  0  0  0  0
  151.1058  137.7329  155.2345 C   0  0  0  0  0  0  0  0  0  0  0  0
  151.9471  138.9811  154.9795 C   0  0  0  0  0  0  0  0  0  0  0  0
  151.0384  139.8755  154.3613 O   0  0  0  0  0  0  0  0  0  0  0  0
  149.8110  139.7682  155.0660 C   0  0  1  0  0  0  0  0  0  0  0  0
  148.6732  140.4292  154.2710 C   0  0  0  0  0  0  0  0  0  0  0  0
  142.1948  137.5535  153.0210 S   0  0  0  0  0  0  0  0  0  0  0  0
  138.8625  136.0655  153.8713 H   0  0  0  0  0  0  0  0  0  0  0  0
  139.1184  137.4211  152.7723 H   0  0  0  0  0  0  0  0  0  0  0  0
  139.5114  137.5866  154.4846 H   0  0  0  0  0  0  0  0  0  0  0  0
  140.7940  134.2313  153.5188 H   0  0  0  0  0  0  0  0  0  0  0  0
  144.9288  137.4526  152.4809 H   0  0  0  0  0  0  0  0  0  0  0  0
  144.5266  136.2861  150.3770 H   0  0  0  0  0  0  0  0  0  0  0  0
  144.9733  134.7450  151.1065 H   0  0  0  0  0  0  0  0  0  0  0  0
  146.1783  136.0162  150.9215 H   0  0  0  0  0  0  0  0  0  0  0  0
  145.2377  136.0526  154.6323 H   0  0  0  0  0  0  0  0  0  0  0  0
  145.8140  134.7742  153.5914 H   0  0  0  0  0  0  0  0  0  0  0  0
  147.5313  136.4671  152.8068 H   0  0  0  0  0  0  0  0  0  0  0  0
  149.1375  137.4273  153.5035 H   0  0  0  0  0  0  0  0  0  0  0  0
  149.3333  138.1394  156.3987 H   0  0  0  0  0  0  0  0  0  0  0  0
  151.4375  137.1927  156.1216 H   0  0  0  0  0  0  0  0  0  0  0  0
  151.1958  137.0539  154.3850 H   0  0  0  0  0  0  0  0  0  0  0  0
  152.2986  139.4113  155.9187 H   0  0  0  0  0  0  0  0  0  0  0  0
  152.8129  138.7844  154.3471 H   0  0  0  0  0  0  0  0  0  0  0  0
  149.9299  140.3022  156.0108 H   0  0  0  0  0  0  0  0  0  0  0  0
  147.7193  140.3177  154.7871 H   0  0  0  0  0  0  0  0  0  0  0  0
  148.5729  139.9981  153.2745 H   0  0  0  0  0  0  0  0  0  0  0  0
  148.8600  141.4959  154.1473 H   0  0  0  0  0  0  0  0  0  0  0  0
  1  2  1  0  0  0  0
  1 20  1  0  0  0  0
  1 21  1  0  0  0  0
  1 22  1  0  0  0  0
  2 19  1  0  0  0  0
  2  3  2  0  0  0  0
  3  4  1  0  0  0  0
  3 23  1  0  0  0  0
  4  5  2  0  0  0  0
  5  6  1  0  0  0  0
  5 19  1  0  0  0  0
  6  7  1  0  0  0  0
  6  8  1  0  0  0  0
  6 24  1  0  0  0  0
  7 25  1  0  0  0  0
  7 26  1  0  0  0  0
  7 27  1  0  0  0  0
  8  9  1  0  0  0  0
  8 28  1  0  0  0  0
  8 29  1  0  0  0  0
  9 10  1  0  0  0  0
  9 30  1  0  0  0  0
 10 11  2  0  0  0  0
 10 12  1  0  0  0  0
 12 13  1  0  0  0  0
 12 31  1  0  0  0  0
 13 17  1  0  0  0  0
 13 14  1  0  0  0  0
 13 32  1  0  0  0  0
 14 15  1  0  0  0  0
 14 33  1  0  0  0  0
 14 34  1  0  0  0  0
 15 16  1  0  0  0  0
 15 35  1  0  0  0  0
 15 36  1  0  0  0  0
 16 17  1  0  0  0  0
 17 18  1  0  0  0  0
 17 37  1  0  0  0  0
 18 38  1  0  0  0  0
 18 39  1  0  0  0  0
 18 40  1  0  0  0  0
M  END
> <s_m_source_file>
AV-unprocessed.smi

> <i_m_source_file_index>
2445

> <i_lp_mmshare_version>
43012

> <i_f3d_flags>
0

> <s_epik_input>
W0NIM11jMVtjSF1uYyhzMSlbQ0BIXShbQ0gzXSlbQ0gyXVtOSF1DKD1PKVtOSF1bQ0BASF0yW0NIMl1bQ0gyXU9bQ0BIXTJbQ0gzXQ==

> <s_epik_cmdline>
J2VwaWtfcHl0aG9uJywgJy1waCcsICc3LjAnLCAnLXRuJywgJzgnLCAnLW1hJywgJzIwMCcsICctbWV0YWxfYmluZGluZycsICctaW1hZScsICc8aW5maWxlLm1hZT4nLCAnLW9tYWUnLCAnPG91dGZpbGUubWFlPic=

> <r_epik_Ionization_Penalty>
0.000649483

> <r_epik_Ionization_Penalty_Charging>
0

> <r_epik_Ionization_Penalty_Neutral>
0.000649483

> <r_epik_State_Penalty>
0.000379895

> <r_epik_Charging_Adjusted_Penalty>
0.000379895

> <i_epik_Tot_Q>
0

> <i_epik_Tot_abs_Q>
0

> <r_epik_Metal_State_Penalty>
-0

> <b_epik_Metal_Only>
0

> <s_lp_Force_Field>
OPLS_2005

> <r_lp_Energy>
6.16207

> <b_lp_Chiralities_Consistent>
1

> <s_lp_Variant>
AV-unprocessed.smi:2445-3

> <Gold.Version>
5.8.1

> <Gold.Id.Protein>
6NUR|6NUR_protein|mol2

> <Gold.PLP.Fitness>
40.6624

> <Gold.PLP.PLP>
-32.8465

> <Gold.PLP.part.hbond>
-3.0000

> <Gold.PLP.part.metal>
0.0000

> <Gold.PLP.part.buried>
-5.9277

> <Gold.PLP.part.nonpolar>
-25.1985

> <Gold.PLP.part.repulsive>
0.3200

> <Gold.PLP.ligand.clash>
0.0000

> <Gold.PLP.ligand.torsion>
0.4528

> <Gold.PLP.Chemscore.Hbond>
2.8640

> <Gold.PLP.Chemscore.CHOScore>
0.0000

> <Gold.PLP.Chemscore.Metal>
0.0000

> <Gold.Chemscore.Hbonds>
donor molecule, donor type, donor heavy atom, donor atom, acceptor molecule, acceptor atom, score
      L1  H     9    30       P1  7948  1.00
      L1  H    12    31       P1  7948  0.88
      P1  H  7989  7998       L1    16  0.78

> <Gold.PLP.Chemscore.Internal.Correction>
0.1296

> <Gold.Rescore>
     Score         DG    S(hbond)    S(metal)    S(lipo)     H(rot)  DE(clash)    DE(int)     intcor
     19.08     -19.63       2.92        0.00      70.98       1.53       0.03       0.52       ----

> <Gold.Chemscore.Fitness>
19.0812

> <Gold.Chemscore.DG>
-19.6298

> <Gold.Chemscore.ZeroCoef>
-5.4800

> <Gold.Chemscore.Hbond>
2.9249

> <Gold.Chemscore.Metal>
0.0000

> <Gold.Chemscore.Lipo>
70.9755

> <Gold.Chemscore.Internal_Hbond>
0.0000

> <Gold.Chemscore.DEClash>
0.0279

> <Gold.Chemscore.DEInternal>
0.5207

> <Gold.Chemscore.Rot>
1.5325

> <Gold.Chemscore.Internal.Correction>
   9.000000E+99

> <Gold.Chemscore.Hbonds>
donor molecule, donor type, donor heavy atom, donor atom, acceptor molecule, acceptor atom, score
      L1  H     9    30       P1  7948  0.98
      L1  H    12    31       P1  7948  0.81
      P1  H  7989  7998       L1    16  0.70

> <Gold.Chemscore.Hbond.Weighted>
-9.7690

> <Gold.Chemscore.Metal.Weighted>
-0.0000

> <Gold.Chemscore.Lipo.Weighted>
-8.3041

> <Gold.Chemscore.Internal_Hbond.Weighted>
0.0000

> <Gold.Chemscore.DEClash.Weighted>
0.0279

> <Gold.Chemscore.DEInternal.Weighted>
0.5207

> <Gold.Chemscore.Rot.Weighted>
3.9233

> <Gold.Chemscore.Internal.Correction.Weighted>
   9.000000E+99

> <Gold.Protein.RotatedTorsions>
[ 6907 6896 6895 6894 ] final   -9.14 input  -60.11 | X-H torsion
[ 7974 7965 7964 7962 ] final    9.58 input  175.53 | X-H torsion
[ 8008 7997 7996 7995 ] final -178.96 input   59.86 | X-H torsion
[ 10167 10162 10161 10158 ] final   62.93 input  -65.29 | X-H torsion
[ 10718 10713 10712 10709 ] final  177.38 input   66.30 | X-H torsion
[ 10763 10752 10751 10750 ] final    1.81 input  -60.55 | X-H torsion
[ 11005 11000 10999 10996 ] final -175.32 input  -57.11 | X-H torsion

> <Gold.Protein.ActiveResidues>
 VAL166  LYS551  ARG553  GLY616  TRP617  ASP618  TYR619  PRO620  LYS621  CYS622 
 ASP623  PHE694  ASN695  SER759  ASP760  ASP761  ALA762  ILE779  LEU786  VAL792 
 PHE793  MET794  SER795  GLU796  ALA797  LYS798  CYS799  TRP800  GLU811  SER814 

> <Gold.Protein.RotatedAtoms>
  151.4225  135.0999  159.9617 H   0  0  0  0  0  0  0  0  0  0  0  0  # atno 6907 bound_to 6896
  152.4984  133.8694  159.7301 H   0  0  0  0  0  0  0  0  0  0  0  0  # atno 6908 bound_to 6896
  150.9213  133.6819  159.2859 H   0  0  0  0  0  0  0  0  0  0  0  0  # atno 6909 bound_to 6896
  146.2401  139.9762  142.8441 H   0  0  0  0  0  0  0  0  0  0  0  0  # atno 7974 bound_to 7965
  156.0250  140.1269  157.0318 H   0  0  0  0  0  0  0  0  0  0  0  0  # atno 8008 bound_to 7997
  154.4326  140.1061  156.6087 H   0  0  0  0  0  0  0  0  0  0  0  0  # atno 8009 bound_to 7997
  155.5890  140.3469  155.4563 H   0  0  0  0  0  0  0  0  0  0  0  0  # atno 8010 bound_to 7997
  140.1386  144.4575  150.6824 H   0  0  0  0  0  0  0  0  0  0  0  0  # atno 10167 bound_to 10162
  156.9062  130.9895  151.3028 H   0  0  0  0  0  0  0  0  0  0  0  0  # atno 10718 bound_to 10713
  153.3033  135.6957  153.7183 H   0  0  0  0  0  0  0  0  0  0  0  0  # atno 10763 bound_to 10752
  153.6088  135.3448  155.2972 H   0  0  0  0  0  0  0  0  0  0  0  0  # atno 10764 bound_to 10752
  154.8556  135.4358  154.2151 H   0  0  0  0  0  0  0  0  0  0  0  0  # atno 10765 bound_to 10752
  140.4646  134.6222  157.4857 H   0  0  0  0  0  0  0  0  0  0  0  0  # atno 11005 bound_to 11000
  145.1634  140.9684  143.4363 LP  0  0  0  0  0  0  0  0  0  0  0  0  # atno 17320 bound_to 7965
  145.0095  139.3523  143.6127 LP  0  0  0  0  0  0  0  0  0  0  0  0  # atno 17321 bound_to 7965
  140.6774  143.2311  151.5471 LP  0  0  0  0  0  0  0  0  0  0  0  0  # atno 17342 bound_to 10162
  139.5483  144.2461  152.1484 LP  0  0  0  0  0  0  0  0  0  0  0  0  # atno 17343 bound_to 10162
  157.5996  130.8502  149.8781 LP  0  0  0  0  0  0  0  0  0  0  0  0  # atno 17370 bound_to 10713
  156.0558  130.3709  150.1095 LP  0  0  0  0  0  0  0  0  0  0  0  0  # atno 17371 bound_to 10713
  139.9923  134.6965  155.9668 LP  0  0  0  0  0  0  0  0  0  0  0  0  # atno 17394 bound_to 11000
  141.1605  133.6539  156.4303 LP  0  0  0  0  0  0  0  0  0  0  0  0  # atno 17395 bound_to 11000

$$$$
