AV-unprocessed.smi:34|AV-procd|sdf|232|dock3
  -GOLD-   2262015563D 1   1.00000     0.00000
 Structure written by MMmdl.
 54 58  0  0  0  0  0  0  0  0  2 V2000
  150.8771  142.1905  155.3620 O   0  0  0  0  0  0  0  0  0  0  0  0
  150.9866  141.9332  156.5627 C   0  0  0  0  0  0  0  0  0  0  0  0
  150.9461  140.7152  157.1604 N   0  5  0  0  0  0  0  0  0  0  0  0
  151.2283  139.6112  156.4518 C   0  0  0  0  0  0  0  0  0  0  0  0
  151.8294  139.7108  155.2387 N   0  0  0  0  0  0  0  0  0  0  0  0
  152.1050  138.6106  154.5290 C   0  0  0  0  0  0  0  0  0  0  0  0
  151.8649  137.3329  154.8361 N   0  0  0  0  0  0  0  0  0  0  0  0
  151.2529  137.2164  156.0499 C   0  0  0  0  0  0  0  0  0  0  0  0
  150.9037  138.3026  156.9050 C   0  0  0  0  0  0  0  0  0  0  0  0
  150.2933  137.8420  158.0623 N   0  0  0  0  0  0  0  0  0  0  0  0
  150.3023  136.5260  157.8652 C   0  0  0  0  0  0  0  0  0  0  0  0
  150.8456  136.0710  156.7189 N   0  0  0  0  0  0  0  0  0  0  0  0
  150.9680  134.6403  156.2926 C   0  0  1  0  0  0  0  0  0  0  0  0
  150.3325  133.8110  157.2217 O   0  0  0  0  0  0  0  0  0  0  0  0
  149.5701  132.7918  156.5674 C   0  0  1  0  0  0  0  0  0  0  0  0
  148.0754  133.0510  156.8157 C   0  0  0  0  0  0  0  0  0  0  0  0
  147.9260  133.7680  158.0304 O   0  0  0  0  0  0  0  0  0  0  0  0
  147.9387  133.1130  159.2076 C   0  0  0  0  0  0  0  0  0  0  0  0
  148.0997  131.8951  159.3106 O   0  0  0  0  0  0  0  0  0  0  0  0
  147.7335  134.0171  160.3757 C   0  0  0  0  0  0  0  0  0  0  0  0
  147.6168  133.4605  161.6707 C   0  0  0  0  0  0  0  0  0  0  0  0
  147.4178  134.2892  162.7922 C   0  0  0  0  0  0  0  0  0  0  0  0
  147.3311  135.6844  162.6318 C   0  0  0  0  0  0  0  0  0  0  0  0
  147.4449  136.2503  161.3486 C   0  0  0  0  0  0  0  0  0  0  0  0
  147.6451  135.4233  160.2260 C   0  0  0  0  0  0  0  0  0  0  0  0
  149.9797  132.8992  155.0946 C   0  0  1  0  0  0  0  0  0  0  0  0
  149.0718  132.4606  154.2206 F   0  0  0  0  0  0  0  0  0  0  0  0
  150.3442  134.3614  154.9191 C   0  0  1  0  0  0  0  0  0  0  0  0
  149.2193  135.1745  154.6334 O   0  0  0  0  0  0  0  0  0  0  0  0
  151.1225  143.0717  157.5389 C   0  0  0  0  0  0  0  0  0  0  0  0
  150.2307  143.1673  158.6318 C   0  0  0  0  0  0  0  0  0  0  0  0
  150.3242  144.2384  159.5418 C   0  0  0  0  0  0  0  0  0  0  0  0
  151.3046  145.2320  159.3633 C   0  0  0  0  0  0  0  0  0  0  0  0
  152.1894  145.1555  158.2714 C   0  0  0  0  0  0  0  0  0  0  0  0
  152.0969  144.0846  157.3611 C   0  0  0  0  0  0  0  0  0  0  0  0
  152.5869  138.7773  153.5770 H   0  0  0  0  0  0  0  0  0  0  0  0
  149.8917  135.8505  158.6011 H   0  0  0  0  0  0  0  0  0  0  0  0
  152.0388  134.4326  156.3136 H   0  0  0  0  0  0  0  0  0  0  0  0
  149.8398  131.8117  156.9626 H   0  0  0  0  0  0  0  0  0  0  0  0
  147.6365  133.6047  155.9860 H   0  0  0  0  0  0  0  0  0  0  0  0
  147.5361  132.1067  156.8970 H   0  0  0  0  0  0  0  0  0  0  0  0
  147.6780  132.3919  161.8177 H   0  0  0  0  0  0  0  0  0  0  0  0
  147.3306  133.8529  163.7762 H   0  0  0  0  0  0  0  0  0  0  0  0
  147.1766  136.3196  163.4913 H   0  0  0  0  0  0  0  0  0  0  0  0
  147.3777  137.3210  161.2240 H   0  0  0  0  0  0  0  0  0  0  0  0
  147.7250  135.8896  159.2549 H   0  0  0  0  0  0  0  0  0  0  0  0
  150.8726  132.2934  154.9345 H   0  0  0  0  0  0  0  0  0  0  0  0
  151.0892  134.5101  154.1368 H   0  0  0  0  0  0  0  0  0  0  0  0
  149.1970  135.3429  153.7036 H   0  0  0  0  0  0  0  0  0  0  0  0
  149.4702  142.4146  158.7819 H   0  0  0  0  0  0  0  0  0  0  0  0
  149.6414  144.2982  160.3763 H   0  0  0  0  0  0  0  0  0  0  0  0
  151.3759  146.0536  160.0604 H   0  0  0  0  0  0  0  0  0  0  0  0
  152.9382  145.9205  158.1287 H   0  0  0  0  0  0  0  0  0  0  0  0
  152.7792  144.0512  156.5241 H   0  0  0  0  0  0  0  0  0  0  0  0
  1  2  2  0  0  0  0
  2  3  1  0  0  0  0
  2 30  1  0  0  0  0
  3  4  1  0  0  0  0
  4  9  1  0  0  0  0
  4  5  2  0  0  0  0
  5  6  1  0  0  0  0
  6  7  2  0  0  0  0
  6 36  1  0  0  0  0
  7  8  1  0  0  0  0
  8 12  1  0  0  0  0
  8  9  2  0  0  0  0
  9 10  1  0  0  0  0
 10 11  2  0  0  0  0
 11 12  1  0  0  0  0
 11 37  1  0  0  0  0
 12 13  1  0  0  0  0
 13 28  1  0  0  0  0
 13 14  1  0  0  0  0
 13 38  1  0  0  0  0
 14 15  1  0  0  0  0
 15 16  1  0  0  0  0
 15 26  1  0  0  0  0
 15 39  1  0  0  0  0
 16 17  1  0  0  0  0
 16 40  1  0  0  0  0
 16 41  1  0  0  0  0
 17 18  1  0  0  0  0
 18 19  2  0  0  0  0
 18 20  1  0  0  0  0
 20 25  1  0  0  0  0
 20 21  2  0  0  0  0
 21 22  1  0  0  0  0
 21 42  1  0  0  0  0
 22 23  2  0  0  0  0
 22 43  1  0  0  0  0
 23 24  1  0  0  0  0
 23 44  1  0  0  0  0
 24 25  2  0  0  0  0
 24 45  1  0  0  0  0
 25 46  1  0  0  0  0
 26 27  1  0  0  0  0
 26 28  1  0  0  0  0
 26 47  1  0  0  0  0
 28 29  1  0  0  0  0
 28 48  1  0  0  0  0
 29 49  1  0  0  0  0
 30 35  1  0  0  0  0
 30 31  2  0  0  0  0
 31 32  1  0  0  0  0
 31 50  1  0  0  0  0
 32 33  2  0  0  0  0
 32 51  1  0  0  0  0
 33 34  1  0  0  0  0
 33 52  1  0  0  0  0
 34 35  2  0  0  0  0
 34 53  1  0  0  0  0
 35 54  1  0  0  0  0
M  CHG  1   3  -1
M  END
> <s_m_source_file>
AV-unprocessed.smi

> <i_m_source_file_index>
34

> <i_lp_mmshare_version>
43012

> <i_f3d_flags>
0

> <s_epik_input>
W2NIXTFbY0hdW2NIXVtjSF1bY0hdYzFDKD1PKVtOSF1jKG5bY0hdbjIpYyhjMjMpbltjSF1uM1tDQEBIXTRPW0NASF0oW0NAQEhdKEYpW0NASF00W09IXSlbQ0gyXU9DKD1PKWM1W2NIXVtjSF1bY0hdW2NIXVtjSF01

> <s_epik_cmdline>
J2VwaWtfcHl0aG9uJywgJy1waCcsICc3LjAnLCAnLXRuJywgJzgnLCAnLW1hJywgJzIwMCcsICctbWV0YWxfYmluZGluZycsICctaW1hZScsICc8aW5maWxlLm1hZT4nLCAnLW9tYWUnLCAnPG91dGZpbGUubWFlPic=

> <r_lp_tautomer_probability>
1

> <r_epik_Ionization_Penalty>
4.33227

> <r_epik_Ionization_Penalty_Charging>
3.41027

> <r_epik_Ionization_Penalty_Neutral>
0.922001

> <r_epik_State_Penalty>
3.41358

> <r_epik_Charging_Adjusted_Penalty>
6.82385

> <i_epik_Tot_Q>
-1

> <i_epik_Tot_abs_Q>
1

> <r_epik_Metal_State_Penalty>
0.496292

> <b_epik_Metal_Only>
1

> <s_epik_Chemistry_Notes>
This compound has an ester and may undergo hydrolysis at high or low pH. This compound contains an acetal/aminal-like group ( X-CH(R)-Y where X, Y are N, S, or O) that may be acid/base labile, releasing an aldehyde.

> <s_lp_Force_Field>
OPLS_2005

> <r_lp_Energy>
54.2336

> <b_lp_Chiralities_Consistent>
1

> <s_lp_Variant>
AV-unprocessed.smi:34-18

> <Gold.Version>
5.8.1

> <Gold.Id.Protein>
6NUR|6NUR_protein|mol2

> <Gold.PLP.Fitness>
64.2250

> <Gold.PLP.PLP>
-56.8680

> <Gold.PLP.part.hbond>
-5.0000

> <Gold.PLP.part.metal>
0.0000

> <Gold.PLP.part.buried>
-6.0374

> <Gold.PLP.part.nonpolar>
-46.4436

> <Gold.PLP.part.repulsive>
0.2763

> <Gold.PLP.ligand.clash>
0.0000

> <Gold.PLP.ligand.torsion>
1.7326

> <Gold.PLP.Chemscore.Hbond>
3.3036

> <Gold.PLP.Chemscore.CHOScore>
0.0000

> <Gold.PLP.Chemscore.Metal>
0.0000

> <Gold.Chemscore.Hbonds>
donor molecule, donor type, donor heavy atom, donor atom, acceptor molecule, acceptor atom, score
      L1  H    29    49       P1  7948  1.00
      P1  H  6896  6907       L1    14  0.77
      P1  H  7989  7998       L1     5  0.49
      P1  H 10752 10764       L1     7  0.92

> <Gold.PLP.Chemscore.Internal.Correction>
0.9114

> <Gold.Rescore>
     Score         DG    S(hbond)    S(metal)    S(lipo)     H(rot)  DE(clash)    DE(int)     intcor
     15.97     -20.42       2.07        0.00     127.66       2.69       1.33       3.12       ----

> <Gold.Chemscore.Fitness>
15.9699

> <Gold.Chemscore.DG>
-20.4199

> <Gold.Chemscore.ZeroCoef>
-5.4800

> <Gold.Chemscore.Hbond>
2.0663

> <Gold.Chemscore.Metal>
0.0000

> <Gold.Chemscore.Lipo>
127.6594

> <Gold.Chemscore.Internal_Hbond>
0.0000

> <Gold.Chemscore.DEClash>
1.3333

> <Gold.Chemscore.DEInternal>
3.1168

> <Gold.Chemscore.Rot>
2.6944

> <Gold.Chemscore.Internal.Correction>
   9.000000E+99

> <Gold.Chemscore.Hbonds>
donor molecule, donor type, donor heavy atom, donor atom, acceptor molecule, acceptor atom, score
      L1  H    29    49       P1  7948  0.42
      P1  H  6896  6907       L1    14  0.72
      P1  H  7989  7998       L1     5  0.03
      P1  H 10752 10764       L1     7  0.62

> <Gold.Chemscore.Hbond.Weighted>
-6.9013

> <Gold.Chemscore.Metal.Weighted>
-0.0000

> <Gold.Chemscore.Lipo.Weighted>
-14.9361

> <Gold.Chemscore.Internal_Hbond.Weighted>
0.0000

> <Gold.Chemscore.DEClash.Weighted>
1.3333

> <Gold.Chemscore.DEInternal.Weighted>
3.1168

> <Gold.Chemscore.Rot.Weighted>
6.8975

> <Gold.Chemscore.Internal.Correction.Weighted>
   9.000000E+99

> <Gold.Protein.RotatedTorsions>
[ 6907 6896 6895 6894 ] final -122.64 input  -60.11 | X-H torsion
[ 7974 7965 7964 7962 ] final  143.60 input  175.53 | X-H torsion
[ 8008 7997 7996 7995 ] final   66.12 input   59.86 | X-H torsion
[ 10167 10162 10161 10158 ] final   56.21 input  -65.29 | X-H torsion
[ 10718 10713 10712 10709 ] final  154.73 input   66.30 | X-H torsion
[ 10763 10752 10751 10750 ] final  -69.52 input  -60.55 | X-H torsion
[ 11005 11000 10999 10996 ] final -142.29 input  -57.11 | X-H torsion

> <Gold.Protein.ActiveResidues>
 VAL166  LYS551  ARG553  GLY616  TRP617  ASP618  TYR619  PRO620  LYS621  CYS622 
 ASP623  PHE694  ASN695  SER759  ASP760  ASP761  ALA762  ILE779  LEU786  VAL792 
 PHE793  MET794  SER795  GLU796  ALA797  LYS798  CYS799  TRP800  GLU811  SER814 

> <Gold.Protein.RotatedAtoms>
  150.8595  133.7665  159.2997 H   0  0  0  0  0  0  0  0  0  0  0  0  # atno 6907 bound_to 6896
  151.5312  135.1067  159.9912 H   0  0  0  0  0  0  0  0  0  0  0  0  # atno 6908 bound_to 6896
  152.4615  133.7789  159.6895 H   0  0  0  0  0  0  0  0  0  0  0  0  # atno 6909 bound_to 6896
  144.8907  139.5562  143.5800 H   0  0  0  0  0  0  0  0  0  0  0  0  # atno 7974 bound_to 7965
  155.6725  140.3497  155.4823 H   0  0  0  0  0  0  0  0  0  0  0  0  # atno 8008 bound_to 7997
  155.9676  140.1149  157.0863 H   0  0  0  0  0  0  0  0  0  0  0  0  # atno 8009 bound_to 7997
  154.4158  140.1163  156.5250 H   0  0  0  0  0  0  0  0  0  0  0  0  # atno 8010 bound_to 7997
  140.2112  144.3887  150.6488 H   0  0  0  0  0  0  0  0  0  0  0  0  # atno 10167 bound_to 10162
  157.2277  131.0732  151.1873 H   0  0  0  0  0  0  0  0  0  0  0  0  # atno 10718 bound_to 10713
  154.4045  135.6023  153.5916 H   0  0  0  0  0  0  0  0  0  0  0  0  # atno 10763 bound_to 10752
  152.9789  135.5914  154.4144 H   0  0  0  0  0  0  0  0  0  0  0  0  # atno 10764 bound_to 10752
  154.3947  135.2842  155.2111 H   0  0  0  0  0  0  0  0  0  0  0  0  # atno 10765 bound_to 10752
  140.8240  134.2597  157.4887 H   0  0  0  0  0  0  0  0  0  0  0  0  # atno 11005 bound_to 11000
  146.3052  139.7556  142.9061 LP  0  0  0  0  0  0  0  0  0  0  0  0  # atno 17320 bound_to 7965
  145.3788  141.0355  143.3189 LP  0  0  0  0  0  0  0  0  0  0  0  0  # atno 17321 bound_to 7965
  140.6322  143.2189  151.6471 LP  0  0  0  0  0  0  0  0  0  0  0  0  # atno 17342 bound_to 10162
  139.5179  144.3300  152.0835 LP  0  0  0  0  0  0  0  0  0  0  0  0  # atno 17343 bound_to 10162
  157.3510  130.7082  149.6441 LP  0  0  0  0  0  0  0  0  0  0  0  0  # atno 17370 bound_to 10713
  155.9677  130.4252  150.4645 LP  0  0  0  0  0  0  0  0  0  0  0  0  # atno 17371 bound_to 10713
  139.8707  134.9550  156.4194 LP  0  0  0  0  0  0  0  0  0  0  0  0  # atno 17394 bound_to 11000
  140.9069  133.7739  155.9745 LP  0  0  0  0  0  0  0  0  0  0  0  0  # atno 17395 bound_to 11000

$$$$
