AV-unprocessed.smi:503|AV-procd|sdf|2746|dock1
  -GOLD-   2262023213D 1   1.00000     0.00000
 Structure written by MMmdl.
 44 45  0  0  0  0  0  0  0  0  1 V2000
  152.6614  140.0555  156.0537 O   0  0  0  0  0  0  0  0  0  0  0  0
  151.7397  140.0512  156.8711 C   0  0  0  0  0  0  0  0  0  0  0  0
  151.9793  139.6348  158.3295 C   0  0  0  0  0  0  0  0  0  0  0  0
  152.4626  140.7345  159.1815 N   0  0  0  0  0  0  0  0  0  0  0  0
  151.7840  141.9653  159.0849 C   0  0  0  0  0  0  0  0  0  0  0  0
  152.1299  143.0516  159.8024 C   0  0  0  0  0  0  0  0  0  0  0  0
  151.3399  144.3489  159.7229 C   0  0  0  0  0  0  0  0  0  0  0  0
  150.0454  144.1374  159.9620 F   0  0  0  0  0  0  0  0  0  0  0  0
  151.7945  145.2111  160.6313 F   0  0  0  0  0  0  0  0  0  0  0  0
  151.4571  144.9135  158.5204 F   0  0  0  0  0  0  0  0  0  0  0  0
  153.2367  142.8895  160.7246 C   0  0  0  0  0  0  0  0  0  0  0  0
  153.8881  141.7154  160.8392 C   0  0  0  0  0  0  0  0  0  0  0  0
  153.5111  140.5483  160.0384 C   0  0  0  0  0  0  0  0  0  0  0  0
  154.0999  139.4711  160.1329 O   0  0  0  0  0  0  0  0  0  0  0  0
  150.4777  140.3829  156.5583 N   0  0  0  0  0  0  0  0  0  0  0  0
  150.0083  140.8027  155.2394 C   0  0  0  0  0  0  0  0  0  0  0  0
  148.5505  141.2978  155.3568 C   0  0  0  0  0  0  0  0  0  0  0  0
  147.8270  141.5614  154.0207 C   0  0  0  0  0  0  0  0  0  0  0  0
  146.8273  140.4620  153.6062 C   0  0  0  0  0  0  0  0  0  0  0  0
  147.4207  139.1014  153.1863 C   0  0  0  0  0  0  0  0  0  0  0  0
  148.0633  138.2944  154.3333 C   0  0  0  0  0  0  0  0  0  0  0  0
  149.6028  138.3358  154.3922 C   0  0  0  0  0  0  0  0  0  0  0  0
  150.2731  139.7076  154.1790 C   0  0  0  0  0  0  0  0  0  0  0  0
  151.0575  139.2175  158.7398 H   0  0  0  0  0  0  0  0  0  0  0  0
  152.6916  138.8086  158.3346 H   0  0  0  0  0  0  0  0  0  0  0  0
  150.9531  141.9660  158.3942 H   0  0  0  0  0  0  0  0  0  0  0  0
  153.5511  143.7250  161.3325 H   0  0  0  0  0  0  0  0  0  0  0  0
  154.7088  141.6316  161.5366 H   0  0  0  0  0  0  0  0  0  0  0  0
  149.7852  140.3437  157.2923 H   0  0  0  0  0  0  0  0  0  0  0  0
  150.5948  141.6718  154.9346 H   0  0  0  0  0  0  0  0  0  0  0  0
  147.9568  140.6320  155.9817 H   0  0  0  0  0  0  0  0  0  0  0  0
  148.5753  142.2346  155.9155 H   0  0  0  0  0  0  0  0  0  0  0  0
  147.2526  142.4812  154.1368 H   0  0  0  0  0  0  0  0  0  0  0  0
  148.5329  141.7743  153.2181 H   0  0  0  0  0  0  0  0  0  0  0  0
  146.1018  140.3104  154.4063 H   0  0  0  0  0  0  0  0  0  0  0  0
  146.2494  140.8430  152.7635 H   0  0  0  0  0  0  0  0  0  0  0  0
  146.5953  138.5072  152.7927 H   0  0  0  0  0  0  0  0  0  0  0  0
  148.1066  139.2151  152.3468 H   0  0  0  0  0  0  0  0  0  0  0  0
  147.6326  138.5815  155.2911 H   0  0  0  0  0  0  0  0  0  0  0  0
  147.7779  137.2486  154.2150 H   0  0  0  0  0  0  0  0  0  0  0  0
  149.9368  137.9030  155.3358 H   0  0  0  0  0  0  0  0  0  0  0  0
  149.9821  137.6671  153.6185 H   0  0  0  0  0  0  0  0  0  0  0  0
  150.0378  140.0858  153.1857 H   0  0  0  0  0  0  0  0  0  0  0  0
  151.3497  139.5359  154.1412 H   0  0  0  0  0  0  0  0  0  0  0  0
  1  2  2  0  0  0  0
  2  3  1  0  0  0  0
  2 15  1  0  0  0  0
  3  4  1  0  0  0  0
  3 24  1  0  0  0  0
  3 25  1  0  0  0  0
  4 13  1  0  0  0  0
  4  5  1  0  0  0  0
  5  6  2  0  0  0  0
  5 26  1  0  0  0  0
  6  7  1  0  0  0  0
  6 11  1  0  0  0  0
  7  8  1  0  0  0  0
  7  9  1  0  0  0  0
  7 10  1  0  0  0  0
 11 12  2  0  0  0  0
 11 27  1  0  0  0  0
 12 13  1  0  0  0  0
 12 28  1  0  0  0  0
 13 14  2  0  0  0  0
 15 16  1  0  0  0  0
 15 29  1  0  0  0  0
 16 23  1  0  0  0  0
 16 17  1  0  0  0  0
 16 30  1  0  0  0  0
 17 18  1  0  0  0  0
 17 31  1  0  0  0  0
 17 32  1  0  0  0  0
 18 19  1  0  0  0  0
 18 33  1  0  0  0  0
 18 34  1  0  0  0  0
 19 20  1  0  0  0  0
 19 35  1  0  0  0  0
 19 36  1  0  0  0  0
 20 21  1  0  0  0  0
 20 37  1  0  0  0  0
 20 38  1  0  0  0  0
 21 22  1  0  0  0  0
 21 39  1  0  0  0  0
 21 40  1  0  0  0  0
 22 23  1  0  0  0  0
 22 41  1  0  0  0  0
 22 42  1  0  0  0  0
 23 43  1  0  0  0  0
 23 44  1  0  0  0  0
M  END
> <s_m_source_file>
AV-unprocessed.smi

> <i_m_source_file_index>
503

> <i_lp_mmshare_version>
43012

> <i_f3d_flags>
0

> <s_epik_input>
Tz1jMVtjSF1bY0hdYyhDKEYpKEYpRilbY0hdbjFbQ0gyXUMoPU8pW05IXVtDSF0yW0NIMl1bQ0gyXVtDSDJdW0NIMl1bQ0gyXVtDSDJdW0NIMl0y

> <s_epik_cmdline>
J2VwaWtfcHl0aG9uJywgJy1waCcsICc3LjAnLCAnLXRuJywgJzgnLCAnLW1hJywgJzIwMCcsICctbWV0YWxfYmluZGluZycsICctaW1hZScsICc8aW5maWxlLm1hZT4nLCAnLW9tYWUnLCAnPG91dGZpbGUubWFlPic=

> <r_lp_tautomer_probability>
1

> <r_epik_Ionization_Penalty>
3.93819e-08

> <r_epik_Ionization_Penalty_Charging>
1.9167e-08

> <r_epik_Ionization_Penalty_Neutral>
2.02148e-08

> <r_epik_State_Penalty>
-0

> <r_epik_Charging_Adjusted_Penalty>
1.9167e-08

> <i_epik_Tot_Q>
0

> <i_epik_Tot_abs_Q>
0

> <r_epik_Metal_State_Penalty>
-0

> <b_epik_Metal_Only>
0

> <s_lp_Force_Field>
OPLS_2005

> <r_lp_Energy>
31.4462

> <b_lp_Chiralities_Consistent>
1

> <s_lp_Variant>
AV-unprocessed.smi:503-1

> <Gold.Version>
5.8.1

> <Gold.Id.Protein>
6NUR|6NUR_protein|mol2

> <Gold.PLP.Fitness>
53.0900

> <Gold.PLP.PLP>
-51.7274

> <Gold.PLP.part.hbond>
-1.0000

> <Gold.PLP.part.metal>
0.0000

> <Gold.PLP.part.buried>
-4.0864

> <Gold.PLP.part.nonpolar>
-46.2408

> <Gold.PLP.part.repulsive>
0.0367

> <Gold.PLP.ligand.clash>
0.5556

> <Gold.PLP.ligand.torsion>
0.6190

> <Gold.PLP.Chemscore.Hbond>
1.0000

> <Gold.PLP.Chemscore.CHOScore>
0.0000

> <Gold.PLP.Chemscore.Metal>
0.0000

> <Gold.Chemscore.Hbonds>
donor molecule, donor type, donor heavy atom, donor atom, acceptor molecule, acceptor atom, score
      P1  H  7997  8008       L1     1  1.00

> <Gold.PLP.Chemscore.Internal.Correction>
0.1562

> <Gold.Rescore>
     Score         DG    S(hbond)    S(metal)    S(lipo)     H(rot)  DE(clash)    DE(int)     intcor
     17.12     -17.88       1.00        0.00     110.52       1.51       0.32       0.45       ----

> <Gold.Chemscore.Fitness>
17.1165

> <Gold.Chemscore.DG>
-17.8775

> <Gold.Chemscore.ZeroCoef>
-5.4800

> <Gold.Chemscore.Hbond>
0.9998

> <Gold.Chemscore.Metal>
0.0000

> <Gold.Chemscore.Lipo>
110.5249

> <Gold.Chemscore.Internal_Hbond>
0.0000

> <Gold.Chemscore.DEClash>
0.3156

> <Gold.Chemscore.DEInternal>
0.4454

> <Gold.Chemscore.Rot>
1.5131

> <Gold.Chemscore.Internal.Correction>
   9.000000E+99

> <Gold.Chemscore.Hbonds>
donor molecule, donor type, donor heavy atom, donor atom, acceptor molecule, acceptor atom, score
      P1  H  7997  8008       L1     1  0.99

> <Gold.Chemscore.Hbond.Weighted>
-3.3395

> <Gold.Chemscore.Metal.Weighted>
-0.0000

> <Gold.Chemscore.Lipo.Weighted>
-12.9314

> <Gold.Chemscore.Internal_Hbond.Weighted>
0.0000

> <Gold.Chemscore.DEClash.Weighted>
0.3156

> <Gold.Chemscore.DEInternal.Weighted>
0.4454

> <Gold.Chemscore.Rot.Weighted>
3.8734

> <Gold.Chemscore.Internal.Correction.Weighted>
   9.000000E+99

> <Gold.Protein.RotatedTorsions>
[ 6907 6896 6895 6894 ] final  -22.19 input  -60.11 | X-H torsion
[ 7974 7965 7964 7962 ] final  -23.06 input  175.53 | X-H torsion
[ 8008 7997 7996 7995 ] final  -28.35 input   59.86 | X-H torsion
[ 10167 10162 10161 10158 ] final  -31.01 input  -65.29 | X-H torsion
[ 10718 10713 10712 10709 ] final  -38.82 input   66.30 | X-H torsion
[ 10763 10752 10751 10750 ] final   99.70 input  -60.55 | X-H torsion
[ 11005 11000 10999 10996 ] final  -34.15 input  -57.11 | X-H torsion

> <Gold.Protein.ActiveResidues>
 VAL166  LYS551  ARG553  GLY616  TRP617  ASP618  TYR619  PRO620  LYS621  CYS622 
 ASP623  PHE694  ASN695  SER759  ASP760  ASP761  ALA762  ILE779  LEU786  VAL792 
 PHE793  MET794  SER795  GLU796  ALA797  LYS798  CYS799  TRP800  GLU811  SER814 

> <Gold.Protein.RotatedAtoms>
  151.2222  135.0523  159.8954 H   0  0  0  0  0  0  0  0  0  0  0  0  # atno 6907 bound_to 6896
  152.5414  134.0628  159.8169 H   0  0  0  0  0  0  0  0  0  0  0  0  # atno 6908 bound_to 6896
  151.0795  133.5353  159.2653 H   0  0  0  0  0  0  0  0  0  0  0  0  # atno 6909 bound_to 6896
  146.1638  140.4565  142.8560 H   0  0  0  0  0  0  0  0  0  0  0  0  # atno 7974 bound_to 7965
  154.4336  140.1847  156.1076 H   0  0  0  0  0  0  0  0  0  0  0  0  # atno 8008 bound_to 7997
  156.0243  140.3337  155.7046 H   0  0  0  0  0  0  0  0  0  0  0  0  # atno 8009 bound_to 7997
  155.5931  140.0633  157.2744 H   0  0  0  0  0  0  0  0  0  0  0  0  # atno 8010 bound_to 7997
  140.7242  143.3804  151.1612 H   0  0  0  0  0  0  0  0  0  0  0  0  # atno 10167 bound_to 10162
  156.2994  130.4238  149.8158 H   0  0  0  0  0  0  0  0  0  0  0  0  # atno 10718 bound_to 10713
  153.3047  135.4104  155.1283 H   0  0  0  0  0  0  0  0  0  0  0  0  # atno 10763 bound_to 10752
  154.8559  135.3550  154.5805 H   0  0  0  0  0  0  0  0  0  0  0  0  # atno 10764 bound_to 10752
  153.6231  135.7063  153.5361 H   0  0  0  0  0  0  0  0  0  0  0  0  # atno 10765 bound_to 10752
  140.9693  133.7119  156.1497 H   0  0  0  0  0  0  0  0  0  0  0  0  # atno 11005 bound_to 11000
  144.8064  140.6307  143.6444 LP  0  0  0  0  0  0  0  0  0  0  0  0  # atno 17320 bound_to 7965
  145.4519  139.1522  143.3914 LP  0  0  0  0  0  0  0  0  0  0  0  0  # atno 17321 bound_to 7965
  139.7391  143.8952  152.3044 LP  0  0  0  0  0  0  0  0  0  0  0  0  # atno 17342 bound_to 10162
  139.8767  144.7039  150.8925 LP  0  0  0  0  0  0  0  0  0  0  0  0  # atno 17343 bound_to 10162
  156.5542  130.8355  151.3309 LP  0  0  0  0  0  0  0  0  0  0  0  0  # atno 17370 bound_to 10713
  157.7364  130.9778  150.2133 LP  0  0  0  0  0  0  0  0  0  0  0  0  # atno 17371 bound_to 10713
  140.7352  134.4210  157.5561 LP  0  0  0  0  0  0  0  0  0  0  0  0  # atno 17394 bound_to 11000
  139.8906  134.8800  156.2361 LP  0  0  0  0  0  0  0  0  0  0  0  0  # atno 17395 bound_to 11000

$$$$
