AV-unprocessed.smi:1006|AV-procd|sdf|4396|dock1
  -GOLD-   22720 2323D 1   1.00000     0.00000
 Structure written by MMmdl.
 47 49  0  0  0  0  0  0  0  0  3 V2000
  146.8560  139.0223  151.2874 C   0  0  0  0  0  0  0  0  0  0  0  0
  147.4590  139.4158  152.6191 C   0  0  0  0  0  0  0  0  0  0  0  0
  147.1138  140.6176  153.2702 C   0  0  0  0  0  0  0  0  0  0  0  0
  147.7389  140.8735  154.5030 C   0  0  0  0  0  0  0  0  0  0  0  0
  147.4585  142.0345  155.2187 N   0  0  0  0  0  0  0  0  0  0  0  0
  148.6263  140.0098  155.0354 N   0  0  0  0  0  0  0  0  0  0  0  0
  148.9089  138.8849  154.3646 C   0  0  0  0  0  0  0  0  0  0  0  0
  150.0663  137.7142  155.0533 S   0  0  0  0  0  0  0  0  0  0  0  0
  151.6397  138.2032  154.2792 C   0  0  0  0  0  0  0  0  0  0  0  0
  152.4349  139.1781  155.1632 C   0  0  2  0  0  0  0  0  0  0  0  0
  153.7011  138.6151  155.4478 O   0  0  0  0  0  0  0  0  0  0  0  0
  151.6981  139.5004  156.4778 C   0  0  0  0  0  0  0  0  0  0  0  0
  151.3257  140.9186  156.5898 N   0  0  0  0  0  0  0  0  0  0  0  0
  150.6775  141.7178  155.6991 C   0  0  0  0  0  0  0  0  0  0  0  0
  150.5648  142.9530  156.2605 N   0  3  0  0  0  0  0  0  0  0  0  0
  151.1493  142.9437  157.5287 C   0  0  0  0  0  0  0  0  0  0  0  0
  151.2812  143.9519  158.4762 C   0  0  0  0  0  0  0  0  0  0  0  0
  151.9375  143.6209  159.6830 C   0  0  0  0  0  0  0  0  0  0  0  0
  152.0981  144.6997  160.7405 C   0  0  0  0  0  0  0  0  0  0  0  0
  152.4377  142.3119  159.9066 C   0  0  0  0  0  0  0  0  0  0  0  0
  153.1454  141.9679  161.2062 C   0  0  0  0  0  0  0  0  0  0  0  0
  152.2925  141.3005  158.9303 C   0  0  0  0  0  0  0  0  0  0  0  0
  151.6413  141.6419  157.7470 C   0  0  0  0  0  0  0  0  0  0  0  0
  148.3534  138.5679  153.1861 N   0  3  0  0  0  0  0  0  0  0  0  0
  146.3669  139.8735  150.8124 H   0  0  0  0  0  0  0  0  0  0  0  0
  146.1141  138.2357  151.4266 H   0  0  0  0  0  0  0  0  0  0  0  0
  147.6270  138.6542  150.6097 H   0  0  0  0  0  0  0  0  0  0  0  0
  146.4017  141.3083  152.8417 H   0  0  0  0  0  0  0  0  0  0  0  0
  146.8031  142.7227  154.8773 H   0  0  0  0  0  0  0  0  0  0  0  0
  147.8802  142.2132  156.1190 H   0  0  0  0  0  0  0  0  0  0  0  0
  152.2262  137.3001  154.1066 H   0  0  0  0  0  0  0  0  0  0  0  0
  151.4461  138.6528  153.3043 H   0  0  0  0  0  0  0  0  0  0  0  0
  152.5961  140.1070  154.6143 H   0  0  0  0  0  0  0  0  0  0  0  0
  153.6419  137.6768  155.3495 H   0  0  0  0  0  0  0  0  0  0  0  0
  150.7734  138.9246  156.5336 H   0  0  0  0  0  0  0  0  0  0  0  0
  152.2889  139.2103  157.3467 H   0  0  0  0  0  0  0  0  0  0  0  0
  150.3177  141.4258  154.7230 H   0  0  0  0  0  0  0  0  0  0  0  0
  150.8998  144.9468  158.2980 H   0  0  0  0  0  0  0  0  0  0  0  0
  151.5810  144.4159  161.6573 H   0  0  0  0  0  0  0  0  0  0  0  0
  151.6844  145.6514  160.4054 H   0  0  0  0  0  0  0  0  0  0  0  0
  153.1518  144.8581  160.9710 H   0  0  0  0  0  0  0  0  0  0  0  0
  153.4531  140.9221  161.2282 H   0  0  0  0  0  0  0  0  0  0  0  0
  152.4873  142.1391  162.0586 H   0  0  0  0  0  0  0  0  0  0  0  0
  154.0388  142.5802  161.3291 H   0  0  0  0  0  0  0  0  0  0  0  0
  152.6796  140.3069  159.0996 H   0  0  0  0  0  0  0  0  0  0  0  0
  148.5971  137.6977  152.7127 H   0  0  0  0  0  0  0  0  0  0  0  0
  150.1218  143.7428  155.8087 H   0  0  0  0  0  0  0  0  0  0  0  0
  1  2  1  0  0  0  0
  1 25  1  0  0  0  0
  1 26  1  0  0  0  0
  1 27  1  0  0  0  0
  2 24  1  0  0  0  0
  2  3  2  0  0  0  0
  3  4  1  0  0  0  0
  3 28  1  0  0  0  0
  4  5  1  0  0  0  0
  4  6  2  0  0  0  0
  5 29  1  0  0  0  0
  5 30  1  0  0  0  0
  6  7  1  0  0  0  0
  7  8  1  0  0  0  0
  7 24  2  0  0  0  0
  8  9  1  0  0  0  0
  9 10  1  0  0  0  0
  9 31  1  0  0  0  0
  9 32  1  0  0  0  0
 10 11  1  0  0  0  0
 10 12  1  0  0  0  0
 10 33  1  0  0  0  0
 11 34  1  0  0  0  0
 12 13  1  0  0  0  0
 12 35  1  0  0  0  0
 12 36  1  0  0  0  0
 13 23  1  0  0  0  0
 13 14  1  0  0  0  0
 14 15  2  0  0  0  0
 14 37  1  0  0  0  0
 15 16  1  0  0  0  0
 15 47  1  0  0  0  0
 16 23  2  0  0  0  0
 16 17  1  0  0  0  0
 17 18  2  0  0  0  0
 17 38  1  0  0  0  0
 18 19  1  0  0  0  0
 18 20  1  0  0  0  0
 19 39  1  0  0  0  0
 19 40  1  0  0  0  0
 19 41  1  0  0  0  0
 20 21  1  0  0  0  0
 20 22  2  0  0  0  0
 21 42  1  0  0  0  0
 21 43  1  0  0  0  0
 21 44  1  0  0  0  0
 22 23  1  0  0  0  0
 22 45  1  0  0  0  0
 24 46  1  0  0  0  0
M  CHG  1  15   1
M  CHG  1  24   1
M  END
> <s_m_source_file>
AV-unprocessed.smi

> <i_m_source_file_index>
1006

> <i_lp_mmshare_version>
43012

> <i_f3d_flags>
0

> <s_epik_input>
W0NIM11jMVtjSF1jKFtOSDJdKW5jKG4xKVNbQ0gyXVtDQEhdKFtPSF0pW0NIMl1uKFtjSF1uMiljKGMyMylbY0hdYyhbQ0gzXSljKFtjSF0zKVtDSDNd

> <s_epik_cmdline>
J2VwaWtfcHl0aG9uJywgJy1waCcsICc3LjAnLCAnLXRuJywgJzgnLCAnLW1hJywgJzIwMCcsICctbWV0YWxfYmluZGluZycsICctaW1hZScsICc8aW5maWxlLm1hZT4nLCAnLW9tYWUnLCAnPG91dGZpbGUubWFlPic=

> <r_lp_tautomer_probability>
0.999762

> <r_epik_Ionization_Penalty>
1.50932

> <r_epik_Ionization_Penalty_Charging>
1.50929

> <r_epik_Ionization_Penalty_Neutral>
3.48853e-05

> <r_epik_State_Penalty>
1.56619

> <r_epik_Charging_Adjusted_Penalty>
3.07548

> <i_epik_Tot_Q>
2

> <i_epik_Tot_abs_Q>
2

> <r_epik_Metal_State_Penalty>
1.82892

> <b_epik_Metal_Only>
0

> <s_lp_Force_Field>
OPLS_2005

> <r_lp_Energy>
18.0663

> <b_lp_Chiralities_Consistent>
1

> <s_lp_Variant>
AV-unprocessed.smi:1006-7

> <Gold.Version>
5.8.1

> <Gold.Id.Protein>
6NUR|6NUR_protein|mol2

> <Gold.PLP.Fitness>
63.5762

> <Gold.PLP.PLP>
-53.8969

> <Gold.PLP.part.hbond>
-4.7890

> <Gold.PLP.part.metal>
0.0000

> <Gold.PLP.part.buried>
-2.7940

> <Gold.PLP.part.nonpolar>
-46.1758

> <Gold.PLP.part.repulsive>
0.2814

> <Gold.PLP.ligand.clash>
0.0000

> <Gold.PLP.ligand.torsion>
2.1706

> <Gold.PLP.Chemscore.Hbond>
4.6624

> <Gold.PLP.Chemscore.CHOScore>
0.0000

> <Gold.PLP.Chemscore.Metal>
0.0000

> <Gold.Chemscore.Hbonds>
donor molecule, donor type, donor heavy atom, donor atom, acceptor molecule, acceptor atom, score
      L1  H    15    47       P1  8028  2.00
      L1  H    24    46       P1  7948  2.00
      P1  H  7997  8009       L1    11  0.56

> <Gold.PLP.Chemscore.Internal.Correction>
0.0333

> <Gold.Rescore>
     Score         DG    S(hbond)    S(metal)    S(lipo)     H(rot)  DE(clash)    DE(int)     intcor
     18.39     -20.63       2.13        0.00     133.55       2.96       0.15       2.09       ----

> <Gold.Chemscore.Fitness>
18.3886

> <Gold.Chemscore.DG>
-20.6282

> <Gold.Chemscore.ZeroCoef>
-5.4800

> <Gold.Chemscore.Hbond>
2.1256

> <Gold.Chemscore.Metal>
0.0000

> <Gold.Chemscore.Lipo>
133.5535

> <Gold.Chemscore.Internal_Hbond>
0.0000

> <Gold.Chemscore.DEClash>
0.1520

> <Gold.Chemscore.DEInternal>
2.0876

> <Gold.Chemscore.Rot>
2.9599

> <Gold.Chemscore.Internal.Correction>
   9.000000E+99

> <Gold.Chemscore.Hbonds>
donor molecule, donor type, donor heavy atom, donor atom, acceptor molecule, acceptor atom, score
      L1  H    15    47       P1  8028  0.93
      L1  H    24    46       P1  7948  1.00
      P1  H  7997  8009       L1    11  0.08

> <Gold.Chemscore.Hbond.Weighted>
-7.0996

> <Gold.Chemscore.Metal.Weighted>
-0.0000

> <Gold.Chemscore.Lipo.Weighted>
-15.6258

> <Gold.Chemscore.Internal_Hbond.Weighted>
0.0000

> <Gold.Chemscore.DEClash.Weighted>
0.1520

> <Gold.Chemscore.DEInternal.Weighted>
2.0876

> <Gold.Chemscore.Rot.Weighted>
7.5772

> <Gold.Chemscore.Internal.Correction.Weighted>
   9.000000E+99

> <Gold.Protein.RotatedTorsions>
[ 6907 6896 6895 6894 ] final   47.02 input  -60.11 | X-H torsion
[ 7974 7965 7964 7962 ] final   27.83 input  175.53 | X-H torsion
[ 8008 7997 7996 7995 ] final -127.95 input   59.86 | X-H torsion
[ 10167 10162 10161 10158 ] final  138.76 input  -65.29 | X-H torsion
[ 10718 10713 10712 10709 ] final  -57.55 input   66.30 | X-H torsion
[ 10763 10752 10751 10750 ] final -140.59 input  -60.55 | X-H torsion
[ 11005 11000 10999 10996 ] final -113.11 input  -57.11 | X-H torsion

> <Gold.Protein.ActiveResidues>
 VAL166  LYS551  ARG553  GLY616  TRP617  ASP618  TYR619  PRO620  LYS621  CYS622 
 ASP623  PHE694  ASN695  SER759  ASP760  ASP761  ALA762  ILE779  LEU786  VAL792 
 PHE793  MET794  SER795  GLU796  ALA797  LYS798  CYS799  TRP800  GLU811  SER814 

> <Gold.Protein.RotatedAtoms>
  152.2632  134.8012  160.0426 H   0  0  0  0  0  0  0  0  0  0  0  0  # atno 6907 bound_to 6896
  151.8651  133.3459  159.3724 H   0  0  0  0  0  0  0  0  0  0  0  0  # atno 6908 bound_to 6896
  150.7124  134.5095  159.5645 H   0  0  0  0  0  0  0  0  0  0  0  0  # atno 6909 bound_to 6896
  146.1763  139.7138  142.8932 H   0  0  0  0  0  0  0  0  0  0  0  0  # atno 7974 bound_to 7965
  155.2546  140.0433  157.2990 H   0  0  0  0  0  0  0  0  0  0  0  0  # atno 8008 bound_to 7997
  154.5748  140.2384  155.8109 H   0  0  0  0  0  0  0  0  0  0  0  0  # atno 8009 bound_to 7997
  156.2149  140.2987  155.9825 H   0  0  0  0  0  0  0  0  0  0  0  0  # atno 8010 bound_to 7997
  139.5100  144.6334  151.5758 H   0  0  0  0  0  0  0  0  0  0  0  0  # atno 10167 bound_to 10162
  156.1202  130.4167  150.0456 H   0  0  0  0  0  0  0  0  0  0  0  0  # atno 10718 bound_to 10713
  154.8573  135.3549  154.5732 H   0  0  0  0  0  0  0  0  0  0  0  0  # atno 10763 bound_to 10752
  153.6345  135.7001  153.5268 H   0  0  0  0  0  0  0  0  0  0  0  0  # atno 10764 bound_to 10752
  153.3022  135.4203  155.1222 H   0  0  0  0  0  0  0  0  0  0  0  0  # atno 10765 bound_to 10752
  141.0634  133.9498  157.2624 H   0  0  0  0  0  0  0  0  0  0  0  0  # atno 11005 bound_to 11000
  145.4203  141.0406  143.2967 LP  0  0  0  0  0  0  0  0  0  0  0  0  # atno 17320 bound_to 7965
  144.8241  139.5740  143.6973 LP  0  0  0  0  0  0  0  0  0  0  0  0  # atno 17321 bound_to 7965
  140.6075  143.9497  150.6429 LP  0  0  0  0  0  0  0  0  0  0  0  0  # atno 17342 bound_to 10162
  140.2729  143.3443  152.1221 LP  0  0  0  0  0  0  0  0  0  0  0  0  # atno 17343 bound_to 10162
  156.8396  130.9421  151.3632 LP  0  0  0  0  0  0  0  0  0  0  0  0  # atno 17370 bound_to 10713
  157.6386  130.8787  149.9405 LP  0  0  0  0  0  0  0  0  0  0  0  0  # atno 17371 bound_to 10713
  139.9454  135.0185  156.8835 LP  0  0  0  0  0  0  0  0  0  0  0  0  # atno 17394 bound_to 11000
  140.5822  134.0341  155.7468 LP  0  0  0  0  0  0  0  0  0  0  0  0  # atno 17395 bound_to 11000

$$$$
