AV-unprocessed.smi:2975|AV-procd|sdf|11358|dock9
  -GOLD-   2272016273D 1   1.00000     0.00000
 Structure written by MMmdl.
 40 42  0  0  0  0  0  0  0  0  2 V2000
  151.2341  136.6562  155.8231 C   0  0  0  0  0  0  0  0  0  0  0  0
  151.7197  137.8030  154.9269 C   0  0  1  0  0  0  0  0  0  0  0  0
  152.3464  137.2493  153.7887 O   0  0  0  0  0  0  0  0  0  0  0  0
  150.5831  138.7056  154.5570 C   0  0  0  0  0  0  0  0  0  0  0  0
  149.5591  138.3824  153.7163 N   0  3  0  0  0  0  0  0  0  0  0  0
  148.6615  139.4459  153.6290 C   0  0  0  0  0  0  0  0  0  0  0  0
  147.4795  139.5829  152.9078 C   0  0  0  0  0  0  0  0  0  0  0  0
  146.7906  140.8054  153.0487 C   0  0  0  0  0  0  0  0  0  0  0  0
  147.2807  141.8319  153.8820 C   0  0  0  0  0  0  0  0  0  0  0  0
  148.4812  141.6811  154.6075 C   0  0  0  0  0  0  0  0  0  0  0  0
  149.1584  140.4705  154.4598 C   0  0  0  0  0  0  0  0  0  0  0  0
  150.3483  139.9742  155.0063 N   0  0  0  0  0  0  0  0  0  0  0  0
  151.1144  140.8198  155.9335 C   0  0  0  0  0  0  0  0  0  0  0  0
  150.2300  141.3937  157.0465 C   0  0  0  0  0  0  0  0  0  0  0  0
  150.8952  142.5086  157.6221 O   0  0  0  0  0  0  0  0  0  0  0  0
  151.7846  142.2791  158.6508 C   0  0  0  0  0  0  0  0  0  0  0  0
  152.2305  140.9912  159.0437 C   0  0  0  0  0  0  0  0  0  0  0  0
  153.1459  140.8456  160.1044 C   0  0  0  0  0  0  0  0  0  0  0  0
  153.6243  141.9794  160.7861 C   0  0  0  0  0  0  0  0  0  0  0  0
  153.1852  143.2608  160.4062 C   0  0  0  0  0  0  0  0  0  0  0  0
  152.2710  143.4079  159.3448 C   0  0  0  0  0  0  0  0  0  0  0  0
  151.8572  144.6476  158.9886 F   0  0  0  0  0  0  0  0  0  0  0  0
  150.7800  137.0375  156.7378 H   0  0  0  0  0  0  0  0  0  0  0  0
  152.0602  136.0064  156.1133 H   0  0  0  0  0  0  0  0  0  0  0  0
  150.4900  136.0415  155.3155 H   0  0  0  0  0  0  0  0  0  0  0  0
  152.4757  138.3754  155.4633 H   0  0  0  0  0  0  0  0  0  0  0  0
  151.6786  137.0105  153.1639 H   0  0  0  0  0  0  0  0  0  0  0  0
  147.1009  138.7962  152.2715 H   0  0  0  0  0  0  0  0  0  0  0  0
  145.8674  140.9580  152.5085 H   0  0  0  0  0  0  0  0  0  0  0  0
  146.7242  142.7540  153.9672 H   0  0  0  0  0  0  0  0  0  0  0  0
  148.8443  142.4738  155.2446 H   0  0  0  0  0  0  0  0  0  0  0  0
  151.9158  140.2172  156.3601 H   0  0  0  0  0  0  0  0  0  0  0  0
  151.6029  141.6162  155.3717 H   0  0  0  0  0  0  0  0  0  0  0  0
  149.2668  141.7007  156.6357 H   0  0  0  0  0  0  0  0  0  0  0  0
  150.0518  140.6292  157.8039 H   0  0  0  0  0  0  0  0  0  0  0  0
  151.8858  140.0970  158.5472 H   0  0  0  0  0  0  0  0  0  0  0  0
  153.4818  139.8610  160.3953 H   0  0  0  0  0  0  0  0  0  0  0  0
  154.3260  141.8666  161.5995 H   0  0  0  0  0  0  0  0  0  0  0  0
  153.5501  144.1328  160.9283 H   0  0  0  0  0  0  0  0  0  0  0  0
  149.4840  137.4918  153.2415 H   0  0  0  0  0  0  0  0  0  0  0  0
  1  2  1  0  0  0  0
  1 23  1  0  0  0  0
  1 24  1  0  0  0  0
  1 25  1  0  0  0  0
  2  3  1  0  0  0  0
  2  4  1  0  0  0  0
  2 26  1  0  0  0  0
  3 27  1  0  0  0  0
  4 12  1  0  0  0  0
  4  5  2  0  0  0  0
  5  6  1  0  0  0  0
  5 40  1  0  0  0  0
  6 11  2  0  0  0  0
  6  7  1  0  0  0  0
  7  8  2  0  0  0  0
  7 28  1  0  0  0  0
  8  9  1  0  0  0  0
  8 29  1  0  0  0  0
  9 10  2  0  0  0  0
  9 30  1  0  0  0  0
 10 11  1  0  0  0  0
 10 31  1  0  0  0  0
 11 12  1  0  0  0  0
 12 13  1  0  0  0  0
 13 14  1  0  0  0  0
 13 32  1  0  0  0  0
 13 33  1  0  0  0  0
 14 15  1  0  0  0  0
 14 34  1  0  0  0  0
 14 35  1  0  0  0  0
 15 16  1  0  0  0  0
 16 21  1  0  0  0  0
 16 17  2  0  0  0  0
 17 18  1  0  0  0  0
 17 36  1  0  0  0  0
 18 19  2  0  0  0  0
 18 37  1  0  0  0  0
 19 20  1  0  0  0  0
 19 38  1  0  0  0  0
 20 21  2  0  0  0  0
 20 39  1  0  0  0  0
 21 22  1  0  0  0  0
M  CHG  1   5   1
M  END
> <s_m_source_file>
AV-unprocessed.smi

> <i_m_source_file_index>
2975

> <i_lp_mmshare_version>
43012

> <i_f3d_flags>
0

> <s_epik_input>
W2NIXTFbY0hdW2NIXVtjSF1jKGMxMiluKGMobjIpW0NASF0oW0NIM10pW09IXSlbQ0gyXVtDSDJdT2MzW2NIXVtjSF1bY0hdW2NIXWMzRg==

> <s_epik_cmdline>
J2VwaWtfcHl0aG9uJywgJy1waCcsICc3LjAnLCAnLXRuJywgJzgnLCAnLW1hJywgJzIwMCcsICctbWV0YWxfYmluZGluZycsICctaW1hZScsICc8aW5maWxlLm1hZT4nLCAnLW9tYWUnLCAnPG91dGZpbGUubWFlPic=

> <r_lp_tautomer_probability>
1

> <r_epik_Ionization_Penalty>
1.61121

> <r_epik_Ionization_Penalty_Charging>
1.61119

> <r_epik_Ionization_Penalty_Neutral>
2.92192e-05

> <r_epik_State_Penalty>
1.71016

> <r_epik_Charging_Adjusted_Penalty>
3.32134

> <i_epik_Tot_Q>
1

> <i_epik_Tot_abs_Q>
1

> <r_epik_Metal_State_Penalty>
5.76893

> <b_epik_Metal_Only>
0

> <s_lp_Force_Field>
OPLS_2005

> <r_lp_Energy>
20.882

> <b_lp_Chiralities_Consistent>
1

> <s_lp_Variant>
AV-unprocessed.smi:2975-4

> <Gold.Version>
5.8.1

> <Gold.Id.Protein>
6NUR|6NUR_protein|mol2

> <Gold.PLP.Fitness>
63.2483

> <Gold.PLP.PLP>
-52.7310

> <Gold.PLP.part.hbond>
-4.0000

> <Gold.PLP.part.metal>
0.0000

> <Gold.PLP.part.buried>
1.3826

> <Gold.PLP.part.nonpolar>
-49.5626

> <Gold.PLP.part.repulsive>
0.1604

> <Gold.PLP.ligand.clash>
0.0000

> <Gold.PLP.ligand.torsion>
0.6106

> <Gold.PLP.Chemscore.Hbond>
3.9040

> <Gold.PLP.Chemscore.CHOScore>
0.0000

> <Gold.PLP.Chemscore.Metal>
0.0000

> <Gold.Chemscore.Hbonds>
donor molecule, donor type, donor heavy atom, donor atom, acceptor molecule, acceptor atom, score
      L1  H     3    27       P1  7949  0.96
      L1  H     5    40       P1  7948  2.00
      P1  H 10752 10764       L1     3  0.82

> <Gold.PLP.Chemscore.Internal.Correction>
0.0266

> <Gold.Rescore>
     Score         DG    S(hbond)    S(metal)    S(lipo)     H(rot)  DE(clash)    DE(int)     intcor
     20.16     -21.96       2.26        0.00     126.19       2.28       1.25       0.56       ----

> <Gold.Chemscore.Fitness>
20.1550

> <Gold.Chemscore.DG>
-21.9627

> <Gold.Chemscore.ZeroCoef>
-5.4800

> <Gold.Chemscore.Hbond>
2.2600

> <Gold.Chemscore.Metal>
0.0000

> <Gold.Chemscore.Lipo>
126.1934

> <Gold.Chemscore.Internal_Hbond>
0.0000

> <Gold.Chemscore.DEClash>
1.2457

> <Gold.Chemscore.DEInternal>
0.5620

> <Gold.Chemscore.Rot>
2.2774

> <Gold.Chemscore.Internal.Correction>
   9.000000E+99

> <Gold.Chemscore.Hbonds>
donor molecule, donor type, donor heavy atom, donor atom, acceptor molecule, acceptor atom, score
      L1  H     3    27       P1  7949  0.83
      L1  H     5    40       P1  7948  0.90
      P1  H 10752 10764       L1     3  0.15

> <Gold.Chemscore.Hbond.Weighted>
-7.5483

> <Gold.Chemscore.Metal.Weighted>
-0.0000

> <Gold.Chemscore.Lipo.Weighted>
-14.7646

> <Gold.Chemscore.Internal_Hbond.Weighted>
0.0000

> <Gold.Chemscore.DEClash.Weighted>
1.2457

> <Gold.Chemscore.DEInternal.Weighted>
0.5620

> <Gold.Chemscore.Rot.Weighted>
5.8302

> <Gold.Chemscore.Internal.Correction.Weighted>
   9.000000E+99

> <Gold.Protein.RotatedTorsions>
[ 6907 6896 6895 6894 ] final   19.96 input  -60.11 | X-H torsion
[ 7974 7965 7964 7962 ] final -137.62 input  175.53 | X-H torsion
[ 8008 7997 7996 7995 ] final -100.46 input   59.86 | X-H torsion
[ 10167 10162 10161 10158 ] final    8.03 input  -65.29 | X-H torsion
[ 10718 10713 10712 10709 ] final -153.50 input   66.30 | X-H torsion
[ 10763 10752 10751 10750 ] final  -97.40 input  -60.55 | X-H torsion
[ 11005 11000 10999 10996 ] final  131.94 input  -57.11 | X-H torsion

> <Gold.Protein.ActiveResidues>
 VAL166  LYS551  ARG553  GLY616  TRP617  ASP618  TYR619  PRO620  LYS621  CYS622 
 ASP623  PHE694  ASN695  SER759  ASP760  ASP761  ALA762  ILE779  LEU786  VAL792 
 PHE793  MET794  SER795  GLU796  ALA797  LYS798  CYS799  TRP800  GLU811  SER814 

> <Gold.Protein.RotatedAtoms>
  151.8890  135.0424  160.0495 H   0  0  0  0  0  0  0  0  0  0  0  0  # atno 6907 bound_to 6896
  152.2451  133.5163  159.5301 H   0  0  0  0  0  0  0  0  0  0  0  0  # atno 6908 bound_to 6896
  150.7066  134.0952  159.3988 H   0  0  0  0  0  0  0  0  0  0  0  0  # atno 6909 bound_to 6896
  144.8826  140.6529  143.5196 H   0  0  0  0  0  0  0  0  0  0  0  0  # atno 7974 bound_to 7965
  154.8290  140.0441  157.1463 H   0  0  0  0  0  0  0  0  0  0  0  0  # atno 8008 bound_to 7997
  154.9174  140.3022  155.5214 H   0  0  0  0  0  0  0  0  0  0  0  0  # atno 8009 bound_to 7997
  156.2985  140.2347  156.4220 H   0  0  0  0  0  0  0  0  0  0  0  0  # atno 8010 bound_to 7997
  140.6338  143.7933  150.7331 H   0  0  0  0  0  0  0  0  0  0  0  0  # atno 10167 bound_to 10162
  156.4867  130.8328  151.2553 H   0  0  0  0  0  0  0  0  0  0  0  0  # atno 10718 bound_to 10713
  154.7324  135.5048  153.8986 H   0  0  0  0  0  0  0  0  0  0  0  0  # atno 10763 bound_to 10752
  153.0963  135.6673  153.9766 H   0  0  0  0  0  0  0  0  0  0  0  0  # atno 10764 bound_to 10752
  153.9564  135.3052  155.3415 H   0  0  0  0  0  0  0  0  0  0  0  0  # atno 10765 bound_to 10752
  139.9760  134.9563  156.9510 H   0  0  0  0  0  0  0  0  0  0  0  0  # atno 11005 bound_to 11000
  145.3926  139.1613  143.4221 LP  0  0  0  0  0  0  0  0  0  0  0  0  # atno 17320 bound_to 7965
  146.3004  140.4017  142.8706 LP  0  0  0  0  0  0  0  0  0  0  0  0  # atno 17321 bound_to 7965
  140.1550  143.4324  152.2105 LP  0  0  0  0  0  0  0  0  0  0  0  0  # atno 17342 bound_to 10162
  139.5550  144.7366  151.4322 LP  0  0  0  0  0  0  0  0  0  0  0  0  # atno 17343 bound_to 10162
  157.7478  131.0027  150.3010 LP  0  0  0  0  0  0  0  0  0  0  0  0  # atno 17370 bound_to 10713
  156.3467  130.3824  149.7363 LP  0  0  0  0  0  0  0  0  0  0  0  0  # atno 17371 bound_to 10713
  140.5194  134.0923  155.7288 LP  0  0  0  0  0  0  0  0  0  0  0  0  # atno 17394 bound_to 11000
  141.1437  133.9093  157.2266 LP  0  0  0  0  0  0  0  0  0  0  0  0  # atno 17395 bound_to 11000

$$$$
