AV-unprocessed.smi:2668|AV-procd|sdf|10338|dock2
  -GOLD-   2272014363D 1   1.00000     0.00000
 Structure written by MMmdl.
 54 55  0  0  0  0  0  0  0  0  3 V2000
  145.6774  135.4077  150.5809 C   0  0  0  0  0  0  0  0  0  0  0  0
  144.8546  136.3177  151.4163 N   0  3  0  0  0  0  0  0  0  0  0  0
  143.8119  135.5456  152.1373 C   0  0  0  0  0  0  0  0  0  0  0  0
  145.6595  137.2155  152.3062 C   0  0  2  0  0  0  0  0  0  0  0  0
  144.8677  137.6618  153.5566 C   0  0  0  0  0  0  0  0  0  0  0  0
  145.6706  138.6266  154.4454 C   0  0  0  0  0  0  0  0  0  0  0  0
  146.0951  139.8415  153.6905 N   0  3  1  0  0  0  0  0  0  0  0  0
  146.6632  140.9618  154.5274 C   0  0  0  0  0  0  0  0  0  0  0  0
  146.6699  142.2801  153.7121 C   0  0  0  0  0  0  0  0  0  0  0  0
  145.7378  141.2230  155.7438 C   0  0  0  0  0  0  0  0  0  0  0  0
  148.1115  140.6326  154.9999 C   0  0  0  0  0  0  0  0  0  0  0  0
  148.7472  141.7237  155.7374 N   0  0  0  0  0  0  0  0  0  0  0  0
  149.6850  141.5794  156.6851 C   0  0  0  0  0  0  0  0  0  0  0  0
  150.1103  140.4855  157.0554 O   0  0  0  0  0  0  0  0  0  0  0  0
  150.0923  142.7722  157.1509 N   0  0  0  0  0  0  0  0  0  0  0  0
  151.0599  143.0474  158.1550 C   0  0  0  0  0  0  0  0  0  0  0  0
  151.6097  144.3284  158.4054 C   0  0  0  0  0  0  0  0  0  0  0  0
  152.5769  144.4666  159.4195 C   0  0  0  0  0  0  0  0  0  0  0  0
  152.9646  143.3207  160.1407 C   0  0  0  0  0  0  0  0  0  0  0  0
  152.4594  142.0918  159.9039 N   0  0  0  0  0  0  0  0  0  0  0  0
  151.5329  141.9668  158.9300 C   0  0  0  0  0  0  0  0  0  0  0  0
  146.9122  139.4425  152.5081 C   0  0  0  0  0  0  0  0  0  0  0  0
  146.1357  138.4941  151.5790 C   0  0  0  0  0  0  0  0  0  0  0  0
  146.3470  134.8069  151.1976 H   0  0  0  0  0  0  0  0  0  0  0  0
  146.2713  135.9552  149.8503 H   0  0  0  0  0  0  0  0  0  0  0  0
  145.0474  134.7267  150.0074 H   0  0  0  0  0  0  0  0  0  0  0  0
  144.2470  134.9659  152.9525 H   0  0  0  0  0  0  0  0  0  0  0  0
  143.3034  134.8525  151.4661 H   0  0  0  0  0  0  0  0  0  0  0  0
  143.0374  136.1940  152.5444 H   0  0  0  0  0  0  0  0  0  0  0  0
  146.5391  136.6584  152.6338 H   0  0  0  0  0  0  0  0  0  0  0  0
  143.9331  138.1371  153.2549 H   0  0  0  0  0  0  0  0  0  0  0  0
  144.5970  136.8054  154.1727 H   0  0  0  0  0  0  0  0  0  0  0  0
  145.0389  138.8811  155.2936 H   0  0  0  0  0  0  0  0  0  0  0  0
  146.5422  138.1082  154.8458 H   0  0  0  0  0  0  0  0  0  0  0  0
  146.8748  143.1446  154.3447 H   0  0  0  0  0  0  0  0  0  0  0  0
  145.7062  142.4575  153.2332 H   0  0  0  0  0  0  0  0  0  0  0  0
  147.4380  142.2897  152.9392 H   0  0  0  0  0  0  0  0  0  0  0  0
  145.9838  142.1587  156.2471 H   0  0  0  0  0  0  0  0  0  0  0  0
  145.8180  140.4464  156.5039 H   0  0  0  0  0  0  0  0  0  0  0  0
  144.6924  141.2925  155.4412 H   0  0  0  0  0  0  0  0  0  0  0  0
  148.1310  139.7241  155.6023 H   0  0  0  0  0  0  0  0  0  0  0  0
  148.7535  140.4325  154.1427 H   0  0  0  0  0  0  0  0  0  0  0  0
  148.4602  142.6615  155.4971 H   0  0  0  0  0  0  0  0  0  0  0  0
  149.7063  143.5844  156.6919 H   0  0  0  0  0  0  0  0  0  0  0  0
  151.3241  145.1991  157.8362 H   0  0  0  0  0  0  0  0  0  0  0  0
  153.0159  145.4295  159.6357 H   0  0  0  0  0  0  0  0  0  0  0  0
  153.7050  143.3921  160.9236 H   0  0  0  0  0  0  0  0  0  0  0  0
  151.1532  140.9685  158.7670 H   0  0  0  0  0  0  0  0  0  0  0  0
  147.2042  140.3049  151.9128 H   0  0  0  0  0  0  0  0  0  0  0  0
  147.8327  138.9574  152.8348 H   0  0  0  0  0  0  0  0  0  0  0  0
  146.7942  138.2467  150.7471 H   0  0  0  0  0  0  0  0  0  0  0  0
  145.2799  139.0209  151.1540 H   0  0  0  0  0  0  0  0  0  0  0  0
  144.3601  136.9160  150.7694 H   0  0  0  0  0  0  0  0  0  0  0  0
  145.2436  140.2268  153.3073 H   0  0  0  0  0  0  0  0  0  0  0  0
  1  2  1  0  0  0  0
  1 24  1  0  0  0  0
  1 25  1  0  0  0  0
  1 26  1  0  0  0  0
  2  3  1  0  0  0  0
  2  4  1  0  0  0  0
  2 53  1  0  0  0  0
  3 27  1  0  0  0  0
  3 28  1  0  0  0  0
  3 29  1  0  0  0  0
  4 23  1  0  0  0  0
  4  5  1  0  0  0  0
  4 30  1  0  0  0  0
  5  6  1  0  0  0  0
  5 31  1  0  0  0  0
  5 32  1  0  0  0  0
  6  7  1  0  0  0  0
  6 33  1  0  0  0  0
  6 34  1  0  0  0  0
  7  8  1  0  0  0  0
  7 22  1  0  0  0  0
  7 54  1  0  0  0  0
  8  9  1  0  0  0  0
  8 10  1  0  0  0  0
  8 11  1  0  0  0  0
  9 35  1  0  0  0  0
  9 36  1  0  0  0  0
  9 37  1  0  0  0  0
 10 38  1  0  0  0  0
 10 39  1  0  0  0  0
 10 40  1  0  0  0  0
 11 12  1  0  0  0  0
 11 41  1  0  0  0  0
 11 42  1  0  0  0  0
 12 13  1  0  0  0  0
 12 43  1  0  0  0  0
 13 14  2  0  0  0  0
 13 15  1  0  0  0  0
 15 16  1  0  0  0  0
 15 44  1  0  0  0  0
 16 21  1  0  0  0  0
 16 17  2  0  0  0  0
 17 18  1  0  0  0  0
 17 45  1  0  0  0  0
 18 19  2  0  0  0  0
 18 46  1  0  0  0  0
 19 20  1  0  0  0  0
 19 47  1  0  0  0  0
 20 21  2  0  0  0  0
 21 48  1  0  0  0  0
 22 23  1  0  0  0  0
 22 49  1  0  0  0  0
 22 50  1  0  0  0  0
 23 51  1  0  0  0  0
 23 52  1  0  0  0  0
M  CHG  1   2   1
M  CHG  1   7   1
M  END
> <s_m_source_file>
AV-unprocessed.smi

> <i_m_source_file_index>
2668

> <i_lp_mmshare_version>
43012

> <i_f3d_flags>
0

> <s_epik_input>
W0NIM11OKFtDSDNdKVtDSF0xW0NIMl1bQ0gyXU4oW0NIMl1bQ0gyXTEpQyhbQ0gzXSkoW0NIM10pW0NIMl1bTkhdQyg9TylbTkhdYzJbY0hdW2NIXVtjSF1uW2NIXTI=

> <s_epik_cmdline>
J2VwaWtfcHl0aG9uJywgJy1waCcsICc3LjAnLCAnLXRuJywgJzgnLCAnLW1hJywgJzIwMCcsICctbWV0YWxfYmluZGluZycsICctaW1hZScsICc8aW5maWxlLm1hZT4nLCAnLW9tYWUnLCAnPG91dGZpbGUubWFlPic=

> <r_epik_Ionization_Penalty>
0.210461

> <r_epik_Ionization_Penalty_Charging>
0.206231

> <r_epik_Ionization_Penalty_Neutral>
0.00422959

> <r_epik_State_Penalty>
0.176025

> <r_epik_Charging_Adjusted_Penalty>
0.382256

> <i_epik_Tot_Q>
2

> <i_epik_Tot_abs_Q>
2

> <r_epik_Metal_State_Penalty>
0.176152

> <b_epik_Metal_Only>
0

> <s_lp_Force_Field>
OPLS_2005

> <r_lp_Energy>
43.7891

> <b_lp_Chiralities_Consistent>
1

> <s_lp_Variant>
AV-unprocessed.smi:2668-1

> <Gold.Version>
5.8.1

> <Gold.Id.Protein>
6NUR|6NUR_protein|mol2

> <Gold.PLP.Fitness>
52.9820

> <Gold.PLP.PLP>
-40.2873

> <Gold.PLP.part.hbond>
-4.0000

> <Gold.PLP.part.metal>
0.0000

> <Gold.PLP.part.buried>
-2.2512

> <Gold.PLP.part.nonpolar>
-33.5711

> <Gold.PLP.part.repulsive>
0.1738

> <Gold.PLP.ligand.clash>
0.0000

> <Gold.PLP.ligand.torsion>
1.1062

> <Gold.PLP.Chemscore.Hbond>
4.8810

> <Gold.PLP.Chemscore.CHOScore>
0.0000

> <Gold.PLP.Chemscore.Metal>
0.0000

> <Gold.Chemscore.Hbonds>
donor molecule, donor type, donor heavy atom, donor atom, acceptor molecule, acceptor atom, score
      L1  H     2    53       P1 10171  1.00
      L1  H     7    54       P1 10175  2.00
      L1  H    12    43       P1  8028  0.78
      L1  H    15    44       P1  8028  1.00

> <Gold.PLP.Chemscore.Internal.Correction>
0.2644

> <Gold.Rescore>
     Score         DG    S(hbond)    S(metal)    S(lipo)     H(rot)  DE(clash)    DE(int)     intcor
     22.99     -27.93       3.86        0.00     118.62       1.69       2.72       2.23       ----

> <Gold.Chemscore.Fitness>
22.9863

> <Gold.Chemscore.DG>
-27.9298

> <Gold.Chemscore.ZeroCoef>
-5.4800

> <Gold.Chemscore.Hbond>
3.8599

> <Gold.Chemscore.Metal>
0.0000

> <Gold.Chemscore.Lipo>
118.6166

> <Gold.Chemscore.Internal_Hbond>
0.0000

> <Gold.Chemscore.DEClash>
2.7182

> <Gold.Chemscore.DEInternal>
2.2254

> <Gold.Chemscore.Rot>
1.6877

> <Gold.Chemscore.Internal.Correction>
   9.000000E+99

> <Gold.Chemscore.Hbonds>
donor molecule, donor type, donor heavy atom, donor atom, acceptor molecule, acceptor atom, score
      L1  H     2    53       P1 10171  0.97
      L1  H     7    54       P1 10175  1.00
      L1  H    12    43       P1  8028  0.75
      L1  H    15    44       P1  8028  1.00

> <Gold.Chemscore.Hbond.Weighted>
-12.8922

> <Gold.Chemscore.Metal.Weighted>
-0.0000

> <Gold.Chemscore.Lipo.Weighted>
-13.8781

> <Gold.Chemscore.Internal_Hbond.Weighted>
0.0000

> <Gold.Chemscore.DEClash.Weighted>
2.7182

> <Gold.Chemscore.DEInternal.Weighted>
2.2254

> <Gold.Chemscore.Rot.Weighted>
4.3205

> <Gold.Chemscore.Internal.Correction.Weighted>
   9.000000E+99

> <Gold.Protein.RotatedTorsions>
[ 6907 6896 6895 6894 ] final  154.75 input  -60.11 | X-H torsion
[ 7974 7965 7964 7962 ] final  -81.33 input  175.53 | X-H torsion
[ 8008 7997 7996 7995 ] final -167.96 input   59.86 | X-H torsion
[ 10167 10162 10161 10158 ] final  174.11 input  -65.29 | X-H torsion
[ 10718 10713 10712 10709 ] final   81.39 input   66.30 | X-H torsion
[ 10763 10752 10751 10750 ] final  -47.86 input  -60.55 | X-H torsion
[ 11005 11000 10999 10996 ] final -107.11 input  -57.11 | X-H torsion

> <Gold.Protein.ActiveResidues>
 VAL166  LYS551  ARG553  GLY616  TRP617  ASP618  TYR619  PRO620  LYS621  CYS622 
 ASP623  PHE694  ASN695  SER759  ASP760  ASP761  ALA762  ILE779  LEU786  VAL792 
 PHE793  MET794  SER795  GLU796  ALA797  LYS798  CYS799  TRP800  GLU811  SER814 

> <Gold.Protein.RotatedAtoms>
  152.0541  133.4032  159.4389 H   0  0  0  0  0  0  0  0  0  0  0  0  # atno 6907 bound_to 6896
  150.6869  134.3275  159.4822 H   0  0  0  0  0  0  0  0  0  0  0  0  # atno 6908 bound_to 6896
  152.1088  134.9289  160.0618 H   0  0  0  0  0  0  0  0  0  0  0  0  # atno 6909 bound_to 6896
  145.5480  140.9500  143.1514 H   0  0  0  0  0  0  0  0  0  0  0  0  # atno 7974 bound_to 7965
  155.8849  140.1015  157.1459 H   0  0  0  0  0  0  0  0  0  0  0  0  # atno 8008 bound_to 7997
  154.4009  140.1322  156.4307 H   0  0  0  0  0  0  0  0  0  0  0  0  # atno 8009 bound_to 7997
  155.7600  140.3463  155.5195 H   0  0  0  0  0  0  0  0  0  0  0  0  # atno 8010 bound_to 7997
  139.5130  144.3184  152.0225 H   0  0  0  0  0  0  0  0  0  0  0  0  # atno 10167 bound_to 10162
  157.6831  131.0001  150.2219 H   0  0  0  0  0  0  0  0  0  0  0  0  # atno 10718 bound_to 10713
  154.0683  135.6608  153.4821 H   0  0  0  0  0  0  0  0  0  0  0  0  # atno 10763 bound_to 10752
  153.0400  135.5151  154.7592 H   0  0  0  0  0  0  0  0  0  0  0  0  # atno 10764 bound_to 10752
  154.6649  135.3020  154.9785 H   0  0  0  0  0  0  0  0  0  0  0  0  # atno 10765 bound_to 10752
  141.0970  133.8952  157.1937 H   0  0  0  0  0  0  0  0  0  0  0  0  # atno 11005 bound_to 11000
  144.7543  139.7113  143.7260 LP  0  0  0  0  0  0  0  0  0  0  0  0  # atno 17320 bound_to 7965
  146.1936  139.5190  142.9789 LP  0  0  0  0  0  0  0  0  0  0  0  0  # atno 17321 bound_to 7965
  140.2627  144.4050  150.6180 LP  0  0  0  0  0  0  0  0  0  0  0  0  # atno 17342 bound_to 10162
  140.6146  143.2171  151.6818 LP  0  0  0  0  0  0  0  0  0  0  0  0  # atno 17343 bound_to 10162
  156.2869  130.3740  149.7880 LP  0  0  0  0  0  0  0  0  0  0  0  0  # atno 17370 bound_to 10713
  156.5551  130.8359  151.3312 LP  0  0  0  0  0  0  0  0  0  0  0  0  # atno 17371 bound_to 10713
  139.9810  135.0098  156.9750 LP  0  0  0  0  0  0  0  0  0  0  0  0  # atno 17394 bound_to 11000
  140.5114  134.0998  155.7271 LP  0  0  0  0  0  0  0  0  0  0  0  0  # atno 17395 bound_to 11000

$$$$
