AV-unprocessed.smi:516|AV-procd|sdf|2784|dock2
  -GOLD-   2262023253D 1   1.00000     0.00000
 Structure written by MMmdl.
 44 46  0  0  0  0  0  0  0  0  1 V2000
  145.6020  136.6009  152.0238 C   0  0  0  0  0  0  0  0  0  0  0  0
  145.3529  137.0616  153.3401 O   0  0  0  0  0  0  0  0  0  0  0  0
  145.9349  136.2273  154.3267 C   0  0  0  0  0  0  0  0  0  0  0  0
  145.2595  134.8521  154.2708 C   0  0  0  0  0  0  0  0  0  0  0  0
  145.7173  134.0725  153.1278 N   0  0  0  0  0  0  0  0  0  0  0  0
  146.9676  133.5957  152.8943 C   0  0  0  0  0  0  0  0  0  0  0  0
  148.1156  133.8261  153.8308 C   0  0  0  0  0  0  0  0  0  0  0  0
  148.6223  132.6071  154.4585 N   0  0  0  0  0  0  0  0  0  0  0  0
  148.9068  131.5513  153.4891 C   0  0  0  0  0  0  0  0  0  0  0  0
  149.4580  130.2853  154.1684 C   0  0  0  0  0  0  0  0  0  0  0  0
  150.6183  130.6138  154.9258 O   0  0  0  0  0  0  0  0  0  0  0  0
  150.3672  131.6085  155.9133 C   0  0  0  0  0  0  0  0  0  0  0  0
  149.8244  132.8789  155.2371 C   0  0  0  0  0  0  0  0  0  0  0  0
  147.0909  132.9101  151.7526 N   0  0  0  0  0  0  0  0  0  0  0  0
  145.8122  132.9593  151.2171 C   0  0  0  0  0  0  0  0  0  0  0  0
  144.9759  133.6584  152.0234 C   0  0  0  0  0  0  0  0  0  0  0  0
  143.5643  133.8836  151.6919 C   0  0  0  0  0  0  0  0  0  0  0  0
  142.7951  134.5250  152.4043 O   0  0  0  0  0  0  0  0  0  0  0  0
  143.2003  133.3154  150.5164 N   0  0  0  0  0  0  0  0  0  0  0  0
  143.9884  132.5945  149.6602 C   0  0  0  0  0  0  0  0  0  0  0  0
  143.5045  132.1396  148.6242 O   0  0  0  0  0  0  0  0  0  0  0  0
  145.3049  132.4120  150.0063 N   0  0  0  0  0  0  0  0  0  0  0  0
  146.2317  131.6562  149.1615 C   0  0  0  0  0  0  0  0  0  0  0  0
  142.2376  133.4393  150.2392 H   0  0  0  0  0  0  0  0  0  0  0  0
  145.1355  137.2748  151.3053 H   0  0  0  0  0  0  0  0  0  0  0  0
  145.1862  135.6043  151.8697 H   0  0  0  0  0  0  0  0  0  0  0  0
  146.6716  136.5710  151.8123 H   0  0  0  0  0  0  0  0  0  0  0  0
  147.0069  136.1293  154.1484 H   0  0  0  0  0  0  0  0  0  0  0  0
  145.8034  136.6710  155.3149 H   0  0  0  0  0  0  0  0  0  0  0  0
  145.4579  134.3015  155.1897 H   0  0  0  0  0  0  0  0  0  0  0  0
  144.1761  134.9576  154.2196 H   0  0  0  0  0  0  0  0  0  0  0  0
  148.9180  134.3296  153.2893 H   0  0  0  0  0  0  0  0  0  0  0  0
  147.7836  134.5255  154.5989 H   0  0  0  0  0  0  0  0  0  0  0  0
  148.0032  131.2904  152.9376 H   0  0  0  0  0  0  0  0  0  0  0  0
  149.6288  131.9093  152.7536 H   0  0  0  0  0  0  0  0  0  0  0  0
  148.7054  129.8382  154.8196 H   0  0  0  0  0  0  0  0  0  0  0  0
  149.7207  129.5371  153.4205 H   0  0  0  0  0  0  0  0  0  0  0  0
  149.6571  131.2296  156.6500 H   0  0  0  0  0  0  0  0  0  0  0  0
  151.2942  131.8271  156.4436 H   0  0  0  0  0  0  0  0  0  0  0  0
  150.5957  133.3021  154.5915 H   0  0  0  0  0  0  0  0  0  0  0  0
  149.6098  133.6284  155.9996 H   0  0  0  0  0  0  0  0  0  0  0  0
  145.7827  131.2641  148.2484 H   0  0  0  0  0  0  0  0  0  0  0  0
  146.6330  130.8082  149.7172 H   0  0  0  0  0  0  0  0  0  0  0  0
  147.0683  132.2907  148.8673 H   0  0  0  0  0  0  0  0  0  0  0  0
  1  2  1  0  0  0  0
  1 25  1  0  0  0  0
  1 26  1  0  0  0  0
  1 27  1  0  0  0  0
  2  3  1  0  0  0  0
  3  4  1  0  0  0  0
  3 28  1  0  0  0  0
  3 29  1  0  0  0  0
  4  5  1  0  0  0  0
  4 30  1  0  0  0  0
  4 31  1  0  0  0  0
  5 16  1  0  0  0  0
  5  6  1  0  0  0  0
  6  7  1  0  0  0  0
  6 14  2  0  0  0  0
  7  8  1  0  0  0  0
  7 32  1  0  0  0  0
  7 33  1  0  0  0  0
  8 13  1  0  0  0  0
  8  9  1  0  0  0  0
  9 10  1  0  0  0  0
  9 34  1  0  0  0  0
  9 35  1  0  0  0  0
 10 11  1  0  0  0  0
 10 36  1  0  0  0  0
 10 37  1  0  0  0  0
 11 12  1  0  0  0  0
 12 13  1  0  0  0  0
 12 38  1  0  0  0  0
 12 39  1  0  0  0  0
 13 40  1  0  0  0  0
 13 41  1  0  0  0  0
 14 15  1  0  0  0  0
 15 22  1  0  0  0  0
 15 16  2  0  0  0  0
 16 17  1  0  0  0  0
 17 18  2  0  0  0  0
 17 19  1  0  0  0  0
 19 24  1  0  0  0  0
 19 20  1  0  0  0  0
 20 21  2  0  0  0  0
 20 22  1  0  0  0  0
 22 23  1  0  0  0  0
 23 42  1  0  0  0  0
 23 43  1  0  0  0  0
 23 44  1  0  0  0  0
M  END
> <s_m_source_file>
AV-unprocessed.smi

> <i_m_source_file_index>
516

> <i_lp_mmshare_version>
43012

> <i_f3d_flags>
0

> <s_epik_input>
W0NIM11uMWMoPU8pW25IXWMoPU8pYyhjMTIpbihbQ0gyXVtDSDJdT1tDSDNdKWMobjIpW0NIMl1OM1tDSDJdW0NIMl1PW0NIMl1bQ0gyXTM=

> <s_epik_cmdline>
J2VwaWtfcHl0aG9uJywgJy1waCcsICc3LjAnLCAnLXRuJywgJzgnLCAnLW1hJywgJzIwMCcsICctbWV0YWxfYmluZGluZycsICctaW1hZScsICc8aW5maWxlLm1hZT4nLCAnLW9tYWUnLCAnPG91dGZpbGUubWFlPic=

> <r_epik_Ionization_Penalty>
0.0972048

> <r_epik_Ionization_Penalty_Charging>
0.000199653

> <r_epik_Ionization_Penalty_Neutral>
0.0970052

> <r_epik_State_Penalty>
0.0871068

> <r_epik_Charging_Adjusted_Penalty>
0.0873064

> <i_epik_Tot_Q>
0

> <i_epik_Tot_abs_Q>
0

> <r_epik_Metal_State_Penalty>
0.236525

> <b_epik_Metal_Only>
0

> <s_lp_Force_Field>
OPLS_2005

> <r_lp_Energy>
41.4517

> <b_lp_Chiralities_Consistent>
1

> <s_lp_Variant>
AV-unprocessed.smi:516-1

> <Gold.Version>
5.8.1

> <Gold.Id.Protein>
6NUR|6NUR_protein|mol2

> <Gold.PLP.Fitness>
40.4283

> <Gold.PLP.PLP>
-35.3940

> <Gold.PLP.part.hbond>
-2.0000

> <Gold.PLP.part.metal>
0.0000

> <Gold.PLP.part.buried>
-6.2244

> <Gold.PLP.part.nonpolar>
-28.5275

> <Gold.PLP.part.repulsive>
0.9466

> <Gold.PLP.ligand.clash>
0.0000

> <Gold.PLP.ligand.torsion>
0.1588

> <Gold.PLP.Chemscore.Hbond>
1.7680

> <Gold.PLP.Chemscore.CHOScore>
0.0000

> <Gold.PLP.Chemscore.Metal>
0.0000

> <Gold.Chemscore.Hbonds>
donor molecule, donor type, donor heavy atom, donor atom, acceptor molecule, acceptor atom, score
      L1  H    19    24       P1 10186  1.00
      P1  H 10785 10796       L1    21  0.77

> <Gold.PLP.Chemscore.Internal.Correction>
0.0480

> <Gold.Rescore>
     Score         DG    S(hbond)    S(metal)    S(lipo)     H(rot)  DE(clash)    DE(int)     intcor
      9.78     -12.26       1.84        0.00      50.24       2.04       0.21       2.27       ----

> <Gold.Chemscore.Fitness>
9.7807

> <Gold.Chemscore.DG>
-12.2620

> <Gold.Chemscore.ZeroCoef>
-5.4800

> <Gold.Chemscore.Hbond>
1.8371

> <Gold.Chemscore.Metal>
0.0000

> <Gold.Chemscore.Lipo>
50.2393

> <Gold.Chemscore.Internal_Hbond>
0.0000

> <Gold.Chemscore.DEClash>
0.2092

> <Gold.Chemscore.DEInternal>
2.2721

> <Gold.Chemscore.Rot>
2.0437

> <Gold.Chemscore.Internal.Correction>
   9.000000E+99

> <Gold.Chemscore.Hbonds>
donor molecule, donor type, donor heavy atom, donor atom, acceptor molecule, acceptor atom, score
      L1  H    19    24       P1 10186  0.94
      P1  H 10785 10796       L1    21  0.61

> <Gold.Chemscore.Hbond.Weighted>
-6.1359

> <Gold.Chemscore.Metal.Weighted>
-0.0000

> <Gold.Chemscore.Lipo.Weighted>
-5.8780

> <Gold.Chemscore.Internal_Hbond.Weighted>
0.0000

> <Gold.Chemscore.DEClash.Weighted>
0.2092

> <Gold.Chemscore.DEInternal.Weighted>
2.2721

> <Gold.Chemscore.Rot.Weighted>
5.2319

> <Gold.Chemscore.Internal.Correction.Weighted>
   9.000000E+99

> <Gold.Protein.RotatedTorsions>
[ 6907 6896 6895 6894 ] final  -51.07 input  -60.11 | X-H torsion
[ 7974 7965 7964 7962 ] final  -72.02 input  175.53 | X-H torsion
[ 8008 7997 7996 7995 ] final  140.90 input   59.86 | X-H torsion
[ 10167 10162 10161 10158 ] final  126.30 input  -65.29 | X-H torsion
[ 10718 10713 10712 10709 ] final -134.19 input   66.30 | X-H torsion
[ 10763 10752 10751 10750 ] final -157.52 input  -60.55 | X-H torsion
[ 11005 11000 10999 10996 ] final  157.33 input  -57.11 | X-H torsion

> <Gold.Protein.ActiveResidues>
 VAL166  LYS551  ARG553  GLY616  TRP617  ASP618  TYR619  PRO620  LYS621  CYS622 
 ASP623  PHE694  ASN695  SER759  ASP760  ASP761  ALA762  ILE779  LEU786  VAL792 
 PHE793  MET794  SER795  GLU796  ALA797  LYS798  CYS799  TRP800  GLU811  SER814 

> <Gold.Protein.RotatedAtoms>
  150.8647  134.8007  159.7109 H   0  0  0  0  0  0  0  0  0  0  0  0  # atno 6907 bound_to 6896
  152.4672  134.5043  159.9744 H   0  0  0  0  0  0  0  0  0  0  0  0  # atno 6908 bound_to 6896
  151.5141  133.3441  159.2925 H   0  0  0  0  0  0  0  0  0  0  0  0  # atno 6909 bound_to 6896
  145.6705  140.9222  143.0885 H   0  0  0  0  0  0  0  0  0  0  0  0  # atno 7974 bound_to 7965
  156.2973  140.2329  156.4477 H   0  0  0  0  0  0  0  0  0  0  0  0  # atno 8008 bound_to 7997
  154.8129  140.0442  157.1376 H   0  0  0  0  0  0  0  0  0  0  0  0  # atno 8009 bound_to 7997
  154.9403  140.3028  155.5128 H   0  0  0  0  0  0  0  0  0  0  0  0  # atno 8010 bound_to 7997
  139.5638  144.6899  151.3966 H   0  0  0  0  0  0  0  0  0  0  0  0  # atno 10167 bound_to 10162
  156.2528  130.7163  151.1069 H   0  0  0  0  0  0  0  0  0  0  0  0  # atno 10718 bound_to 10713
  154.7629  135.3123  154.8342 H   0  0  0  0  0  0  0  0  0  0  0  0  # atno 10763 bound_to 10752
  153.9098  135.6807  153.4755 H   0  0  0  0  0  0  0  0  0  0  0  0  # atno 10764 bound_to 10752
  153.1232  135.4813  154.9161 H   0  0  0  0  0  0  0  0  0  0  0  0  # atno 10765 bound_to 10752
  140.1760  134.8510  157.2746 H   0  0  0  0  0  0  0  0  0  0  0  0  # atno 11005 bound_to 11000
  144.7058  139.8566  143.7430 LP  0  0  0  0  0  0  0  0  0  0  0  0  # atno 17320 bound_to 7965
  146.1049  139.4048  143.0324 LP  0  0  0  0  0  0  0  0  0  0  0  0  # atno 17321 bound_to 7965
  140.6921  143.7838  150.7270 LP  0  0  0  0  0  0  0  0  0  0  0  0  # atno 17342 bound_to 10162
  140.1323  143.4515  152.2246 LP  0  0  0  0  0  0  0  0  0  0  0  0  # atno 17343 bound_to 10162
  157.7221  131.0675  150.6091 LP  0  0  0  0  0  0  0  0  0  0  0  0  # atno 17370 bound_to 10713
  156.6173  130.4396  149.5836 LP  0  0  0  0  0  0  0  0  0  0  0  0  # atno 17371 bound_to 10713
  140.2322  134.3895  155.7516 LP  0  0  0  0  0  0  0  0  0  0  0  0  # atno 17394 bound_to 11000
  141.2220  133.7221  156.8659 LP  0  0  0  0  0  0  0  0  0  0  0  0  # atno 17395 bound_to 11000

$$$$
