AV-unprocessed.smi:1692|AV-procd|sdf|6778|dock1
  -GOLD-   22720 7533D 1   1.00000     0.00000
 Structure written by MMmdl.
 46 47  0  0  0  0  0  0  0  0  2 V2000
  149.3546  140.3545  155.6057 C   0  0  0  0  0  0  0  0  0  0  0  0
  149.7270  139.3566  154.4945 C   0  0  2  0  0  0  0  0  0  0  0  0
  149.3332  137.9018  154.8162 C   0  0  0  0  0  0  0  0  0  0  0  0
  150.2304  137.3164  155.8406 N   0  3  1  0  0  0  0  0  0  0  0  0
  149.8341  135.9357  156.2138 C   0  0  0  0  0  0  0  0  0  0  0  0
  150.5530  134.8657  155.3693 C   0  0  0  0  0  0  0  0  0  0  0  0
  149.6448  133.7057  154.9195 C   0  0  0  0  0  0  0  0  0  0  0  0
  148.7599  134.0739  153.8170 N   0  0  0  0  0  0  0  0  0  0  0  0
  147.7250  133.3437  153.3751 C   0  0  0  0  0  0  0  0  0  0  0  0
  147.4255  132.2439  153.8410 O   0  0  0  0  0  0  0  0  0  0  0  0
  147.0804  133.9656  152.3722 N   0  0  0  0  0  0  0  0  0  0  0  0
  145.9535  133.5079  151.6377 C   0  0  0  0  0  0  0  0  0  0  0  0
  145.7717  132.1063  151.6311 C   0  0  0  0  0  0  0  0  0  0  0  0
  144.6830  131.5520  150.9305 C   0  0  0  0  0  0  0  0  0  0  0  0
  143.8019  132.4148  150.2547 C   0  0  0  0  0  0  0  0  0  0  0  0
  144.0530  133.7980  150.3134 C   0  0  0  0  0  0  0  0  0  0  0  0
  145.0956  134.3313  150.9847 N   0  0  0  0  0  0  0  0  0  0  0  0
  151.6445  137.4311  155.4093 C   0  0  0  0  0  0  0  0  0  0  0  0
  152.0022  138.9006  155.1225 C   0  0  1  0  0  0  0  0  0  0  0  0
  153.4293  139.0495  154.5830 C   0  0  0  0  0  0  0  0  0  0  0  0
  151.1089  139.4265  154.1444 O   0  0  0  0  0  0  0  0  0  0  0  0
  148.2753  140.3768  155.7585 H   0  0  0  0  0  0  0  0  0  0  0  0
  149.6694  141.3644  155.3424 H   0  0  0  0  0  0  0  0  0  0  0  0
  149.8109  140.1005  156.5619 H   0  0  0  0  0  0  0  0  0  0  0  0
  149.1758  139.6590  153.6036 H   0  0  0  0  0  0  0  0  0  0  0  0
  148.2971  137.8659  155.1556 H   0  0  0  0  0  0  0  0  0  0  0  0
  149.3890  137.2968  153.9095 H   0  0  0  0  0  0  0  0  0  0  0  0
  150.0932  135.7765  157.2606 H   0  0  0  0  0  0  0  0  0  0  0  0
  148.7509  135.8254  156.1440 H   0  0  0  0  0  0  0  0  0  0  0  0
  150.9704  135.3232  154.4730 H   0  0  0  0  0  0  0  0  0  0  0  0
  151.4016  134.4675  155.9271 H   0  0  0  0  0  0  0  0  0  0  0  0
  150.2439  132.8296  154.6652 H   0  0  0  0  0  0  0  0  0  0  0  0
  149.0124  133.4035  155.7547 H   0  0  0  0  0  0  0  0  0  0  0  0
  148.9334  134.9655  153.3759 H   0  0  0  0  0  0  0  0  0  0  0  0
  147.4326  134.8725  152.1041 H   0  0  0  0  0  0  0  0  0  0  0  0
  146.4590  131.4575  152.1548 H   0  0  0  0  0  0  0  0  0  0  0  0
  144.5283  130.4832  150.9121 H   0  0  0  0  0  0  0  0  0  0  0  0
  142.9562  132.0276  149.7059 H   0  0  0  0  0  0  0  0  0  0  0  0
  143.4005  134.4947  149.8081 H   0  0  0  0  0  0  0  0  0  0  0  0
  152.3104  137.0447  156.1801 H   0  0  0  0  0  0  0  0  0  0  0  0
  151.8033  136.8228  154.5173 H   0  0  0  0  0  0  0  0  0  0  0  0
  151.9273  139.4827  156.0412 H   0  0  0  0  0  0  0  0  0  0  0  0
  154.1611  138.6702  155.2967 H   0  0  0  0  0  0  0  0  0  0  0  0
  153.6652  140.0963  154.3904 H   0  0  0  0  0  0  0  0  0  0  0  0
  153.5580  138.5024  153.6486 H   0  0  0  0  0  0  0  0  0  0  0  0
  150.1227  137.8838  156.6693 H   0  0  0  0  0  0  0  0  0  0  0  0
  1  2  1  0  0  0  0
  1 22  1  0  0  0  0
  1 23  1  0  0  0  0
  1 24  1  0  0  0  0
  2 21  1  0  0  0  0
  2  3  1  0  0  0  0
  2 25  1  0  0  0  0
  3  4  1  0  0  0  0
  3 26  1  0  0  0  0
  3 27  1  0  0  0  0
  4  5  1  0  0  0  0
  4 18  1  0  0  0  0
  4 46  1  0  0  0  0
  5  6  1  0  0  0  0
  5 28  1  0  0  0  0
  5 29  1  0  0  0  0
  6  7  1  0  0  0  0
  6 30  1  0  0  0  0
  6 31  1  0  0  0  0
  7  8  1  0  0  0  0
  7 32  1  0  0  0  0
  7 33  1  0  0  0  0
  8  9  1  0  0  0  0
  8 34  1  0  0  0  0
  9 10  2  0  0  0  0
  9 11  1  0  0  0  0
 11 12  1  0  0  0  0
 11 35  1  0  0  0  0
 12 17  1  0  0  0  0
 12 13  2  0  0  0  0
 13 14  1  0  0  0  0
 13 36  1  0  0  0  0
 14 15  2  0  0  0  0
 14 37  1  0  0  0  0
 15 16  1  0  0  0  0
 15 38  1  0  0  0  0
 16 17  2  0  0  0  0
 16 39  1  0  0  0  0
 18 19  1  0  0  0  0
 18 40  1  0  0  0  0
 18 41  1  0  0  0  0
 19 20  1  0  0  0  0
 19 21  1  0  0  0  0
 19 42  1  0  0  0  0
 20 43  1  0  0  0  0
 20 44  1  0  0  0  0
 20 45  1  0  0  0  0
M  CHG  1   4   1
M  END
> <s_m_source_file>
AV-unprocessed.smi

> <i_m_source_file_index>
1692

> <i_lp_mmshare_version>
43012

> <i_f3d_flags>
0

> <s_epik_input>
W0NIM11bQ0BASF0xW0NIMl1OKFtDSDJdW0NASF0oTzEpW0NIM10pW0NIMl1bQ0gyXVtDSDJdW05IXUMoPU8pW05IXWMyW2NIXVtjSF1bY0hdW2NIXW4y

> <s_epik_cmdline>
J2VwaWtfcHl0aG9uJywgJy1waCcsICc3LjAnLCAnLXRuJywgJzgnLCAnLW1hJywgJzIwMCcsICctbWV0YWxfYmluZGluZycsICctaW1hZScsICc8aW5maWxlLm1hZT4nLCAnLW9tYWUnLCAnPG91dGZpbGUubWFlPic=

> <r_epik_Ionization_Penalty>
0.270538

> <r_epik_Ionization_Penalty_Charging>
0.270496

> <r_epik_Ionization_Penalty_Neutral>
4.22978e-05

> <r_epik_State_Penalty>
0.262618

> <r_epik_Charging_Adjusted_Penalty>
0.533114

> <i_epik_Tot_Q>
1

> <i_epik_Tot_abs_Q>
1

> <r_epik_Metal_State_Penalty>
0.262618

> <b_epik_Metal_Only>
0

> <s_lp_Force_Field>
OPLS_2005

> <r_lp_Energy>
21.1516

> <b_lp_Chiralities_Consistent>
1

> <s_lp_Variant>
AV-unprocessed.smi:1692-1

> <Gold.Version>
5.8.1

> <Gold.Id.Protein>
6NUR|6NUR_protein|mol2

> <Gold.PLP.Fitness>
44.7385

> <Gold.PLP.PLP>
-34.4939

> <Gold.PLP.part.hbond>
-3.0000

> <Gold.PLP.part.metal>
0.0000

> <Gold.PLP.part.buried>
-2.8159

> <Gold.PLP.part.nonpolar>
-29.8388

> <Gold.PLP.part.repulsive>
0.4515

> <Gold.PLP.ligand.clash>
0.0000

> <Gold.PLP.ligand.torsion>
0.8973

> <Gold.PLP.Chemscore.Hbond>
3.0000

> <Gold.PLP.Chemscore.CHOScore>
1.0000

> <Gold.PLP.Chemscore.Metal>
0.0000

> <Gold.Chemscore.Hbonds>
donor molecule, donor type, donor heavy atom, donor atom, acceptor molecule, acceptor atom, score
      L1  H     8    34       P1  7948  1.00
      L1  H    11    35       P1  7948  1.00
      P1  H  7989  7998       L1    21  1.00
      L1  C    16    39       P1 10186  1.00

> <Gold.PLP.Chemscore.Internal.Correction>
0.0392

> <Gold.Rescore>
     Score         DG    S(hbond)    S(metal)    S(lipo)     H(rot)  DE(clash)    DE(int)     intcor
     15.33     -18.83       2.29        0.00      87.66       1.78       1.29       2.21       ----

> <Gold.Chemscore.Fitness>
15.3328

> <Gold.Chemscore.DG>
-18.8278

> <Gold.Chemscore.ZeroCoef>
-5.4800

> <Gold.Chemscore.Hbond>
2.2910

> <Gold.Chemscore.Metal>
0.0000

> <Gold.Chemscore.Lipo>
87.6611

> <Gold.Chemscore.Internal_Hbond>
0.0000

> <Gold.Chemscore.DEClash>
1.2850

> <Gold.Chemscore.DEInternal>
2.2101

> <Gold.Chemscore.Rot>
1.7814

> <Gold.Chemscore.Internal.Correction>
   9.000000E+99

> <Gold.Chemscore.Hbonds>
donor molecule, donor type, donor heavy atom, donor atom, acceptor molecule, acceptor atom, score
      L1  H     8    34       P1  7948  0.34
      L1  H    11    35       P1  7948  0.83
      P1  H  7989  7998       L1    21  0.80

> <Gold.Chemscore.Hbond.Weighted>
-7.6518

> <Gold.Chemscore.Metal.Weighted>
-0.0000

> <Gold.Chemscore.Lipo.Weighted>
-10.2563

> <Gold.Chemscore.Internal_Hbond.Weighted>
0.0000

> <Gold.Chemscore.DEClash.Weighted>
1.2850

> <Gold.Chemscore.DEInternal.Weighted>
2.2101

> <Gold.Chemscore.Rot.Weighted>
4.5603

> <Gold.Chemscore.Internal.Correction.Weighted>
   9.000000E+99

> <Gold.Protein.RotatedTorsions>
[ 6907 6896 6895 6894 ] final  -55.65 input  -60.11 | X-H torsion
[ 7974 7965 7964 7962 ] final -137.59 input  175.53 | X-H torsion
[ 8008 7997 7996 7995 ] final  112.51 input   59.86 | X-H torsion
[ 10167 10162 10161 10158 ] final  170.44 input  -65.29 | X-H torsion
[ 10718 10713 10712 10709 ] final  127.29 input   66.30 | X-H torsion
[ 10763 10752 10751 10750 ] final -106.31 input  -60.55 | X-H torsion
[ 11005 11000 10999 10996 ] final -167.89 input  -57.11 | X-H torsion

> <Gold.Protein.ActiveResidues>
 VAL166  LYS551  ARG553  GLY616  TRP617  ASP618  TYR619  PRO620  LYS621  CYS622 
 ASP623  PHE694  ASN695  SER759  ASP760  ASP761  ALA762  ILE779  LEU786  VAL792 
 PHE793  MET794  SER795  GLU796  ALA797  LYS798  CYS799  TRP800  GLU811  SER814 

> <Gold.Protein.RotatedAtoms>
  150.8234  134.7453  159.6791 H   0  0  0  0  0  0  0  0  0  0  0  0  # atno 6907 bound_to 6896
  152.4347  134.5706  159.9930 H   0  0  0  0  0  0  0  0  0  0  0  0  # atno 6908 bound_to 6896
  151.5884  133.3332  159.3058 H   0  0  0  0  0  0  0  0  0  0  0  0  # atno 6909 bound_to 6896
  144.8829  140.6533  143.5194 H   0  0  0  0  0  0  0  0  0  0  0  0  # atno 7974 bound_to 7965
  156.2197  140.2998  155.9923 H   0  0  0  0  0  0  0  0  0  0  0  0  # atno 8008 bound_to 7997
  155.2514  140.0426  157.3004 H   0  0  0  0  0  0  0  0  0  0  0  0  # atno 8009 bound_to 7997
  154.5821  140.2378  155.8046 H   0  0  0  0  0  0  0  0  0  0  0  0  # atno 8010 bound_to 7997
  139.5018  144.3596  151.9838 H   0  0  0  0  0  0  0  0  0  0  0  0  # atno 10167 bound_to 10162
  157.5345  131.1098  150.8956 H   0  0  0  0  0  0  0  0  0  0  0  0  # atno 10718 bound_to 10713
  154.8004  135.4717  154.0261 H   0  0  0  0  0  0  0  0  0  0  0  0  # atno 10763 bound_to 10752
  153.1771  135.6834  153.8534 H   0  0  0  0  0  0  0  0  0  0  0  0  # atno 10764 bound_to 10752
  153.8097  135.3218  155.3377 H   0  0  0  0  0  0  0  0  0  0  0  0  # atno 10765 bound_to 10752
  140.5482  134.5455  157.5116 H   0  0  0  0  0  0  0  0  0  0  0  0  # atno 11005 bound_to 11000
  145.3921  139.1614  143.4223 LP  0  0  0  0  0  0  0  0  0  0  0  0  # atno 17320 bound_to 7965
  146.3006  140.4011  142.8705 LP  0  0  0  0  0  0  0  0  0  0  0  0  # atno 17321 bound_to 7965
  140.3033  144.3622  150.6054 LP  0  0  0  0  0  0  0  0  0  0  0  0  # atno 17342 bound_to 10162
  140.5857  143.2170  151.7347 LP  0  0  0  0  0  0  0  0  0  0  0  0  # atno 17343 bound_to 10162
  156.9527  130.5426  149.5283 LP  0  0  0  0  0  0  0  0  0  0  0  0  # atno 17370 bound_to 10713
  156.0448  130.5526  150.8856 LP  0  0  0  0  0  0  0  0  0  0  0  0  # atno 17371 bound_to 10713
  139.9469  134.7686  156.0541 LP  0  0  0  0  0  0  0  0  0  0  0  0  # atno 17394 bound_to 11000
  141.1187  133.6619  156.3160 LP  0  0  0  0  0  0  0  0  0  0  0  0  # atno 17395 bound_to 11000

$$$$
