AV-unprocessed.smi:1831|AV-procd|sdf|7456|dock10
  -GOLD-   22720 9143D 1   1.00000     0.00000
 Structure written by MMmdl.
 41 42  0  0  0  0  0  0  0  0  2 V2000
  152.8710  143.2144  160.2608 C   0  0  0  0  0  0  0  0  0  0  0  0
  152.0731  142.7052  159.1093 C   0  0  0  0  0  0  0  0  0  0  0  0
  152.3070  141.5198  158.5318 N   0  0  0  0  0  0  0  0  0  0  0  0
  151.4377  141.2634  157.4798 N   0  0  0  0  0  0  0  0  0  0  0  0
  150.5724  142.2639  157.2922 C   0  0  0  0  0  0  0  0  0  0  0  0
  149.6215  142.1368  156.2488 N   0  0  0  0  0  0  0  0  0  0  0  0
  149.6277  141.2648  155.2277 C   0  0  0  0  0  0  0  0  0  0  0  0
  150.4837  140.4022  155.0324 O   0  0  0  0  0  0  0  0  0  0  0  0
  148.5662  141.4462  154.4282 N   0  0  0  0  0  0  0  0  0  0  0  0
  148.2810  140.6873  153.2139 C   0  0  0  0  0  0  0  0  0  0  0  0
  147.2222  139.5916  153.4465 C   0  0  2  0  0  0  0  0  0  0  0  0
  147.6459  138.4595  154.3808 C   0  0  0  0  0  0  0  0  0  0  0  0
  146.7051  137.3293  153.9815 C   0  0  0  0  0  0  0  0  0  0  0  0
  146.5801  137.4343  152.5109 N   0  3  1  0  0  0  0  0  0  0  0  0
  145.3618  136.8119  151.9195 C   0  0  0  0  0  0  0  0  0  0  0  0
  144.0901  137.1883  152.7037 C   0  0  0  0  0  0  0  0  0  0  0  0
  145.4932  135.2777  151.8650 C   0  0  0  0  0  0  0  0  0  0  0  0
  146.7986  138.8617  152.1608 C   0  0  0  0  0  0  0  0  0  0  0  0
  150.7511  143.6241  158.4005 S   0  0  0  0  0  0  0  0  0  0  0  0
  153.4323  142.4044  160.7277 H   0  0  0  0  0  0  0  0  0  0  0  0
  152.2103  143.6551  161.0074 H   0  0  0  0  0  0  0  0  0  0  0  0
  153.5722  143.9759  159.9192 H   0  0  0  0  0  0  0  0  0  0  0  0
  148.8530  142.7905  156.2824 H   0  0  0  0  0  0  0  0  0  0  0  0
  147.9145  142.1795  154.6672 H   0  0  0  0  0  0  0  0  0  0  0  0
  147.9152  141.3914  152.4660 H   0  0  0  0  0  0  0  0  0  0  0  0
  149.1958  140.2571  152.8024 H   0  0  0  0  0  0  0  0  0  0  0  0
  146.3297  140.0535  153.8725 H   0  0  0  0  0  0  0  0  0  0  0  0
  148.6788  138.1677  154.1843 H   0  0  0  0  0  0  0  0  0  0  0  0
  147.5628  138.7239  155.4356 H   0  0  0  0  0  0  0  0  0  0  0  0
  147.0813  136.3532  154.2898 H   0  0  0  0  0  0  0  0  0  0  0  0
  145.7305  137.4833  154.4482 H   0  0  0  0  0  0  0  0  0  0  0  0
  145.2514  137.1846  150.8999 H   0  0  0  0  0  0  0  0  0  0  0  0
  143.2142  136.6886  152.2884 H   0  0  0  0  0  0  0  0  0  0  0  0
  143.8868  138.2586  152.6667 H   0  0  0  0  0  0  0  0  0  0  0  0
  144.1692  136.8970  153.7516 H   0  0  0  0  0  0  0  0  0  0  0  0
  144.5935  134.8239  151.4482 H   0  0  0  0  0  0  0  0  0  0  0  0
  145.6424  134.8581  152.8606 H   0  0  0  0  0  0  0  0  0  0  0  0
  146.3264  134.9558  151.2409 H   0  0  0  0  0  0  0  0  0  0  0  0
  145.9028  139.3299  151.7510 H   0  0  0  0  0  0  0  0  0  0  0  0
  147.5743  138.9105  151.3957 H   0  0  0  0  0  0  0  0  0  0  0  0
  147.3738  136.9356  152.1347 H   0  0  0  0  0  0  0  0  0  0  0  0
  1  2  1  0  0  0  0
  1 20  1  0  0  0  0
  1 21  1  0  0  0  0
  1 22  1  0  0  0  0
  2 19  1  0  0  0  0
  2  3  2  0  0  0  0
  3  4  1  0  0  0  0
  4  5  2  0  0  0  0
  5  6  1  0  0  0  0
  5 19  1  0  0  0  0
  6  7  1  0  0  0  0
  6 23  1  0  0  0  0
  7  8  2  0  0  0  0
  7  9  1  0  0  0  0
  9 10  1  0  0  0  0
  9 24  1  0  0  0  0
 10 11  1  0  0  0  0
 10 25  1  0  0  0  0
 10 26  1  0  0  0  0
 11 18  1  0  0  0  0
 11 12  1  0  0  0  0
 11 27  1  0  0  0  0
 12 13  1  0  0  0  0
 12 28  1  0  0  0  0
 12 29  1  0  0  0  0
 13 14  1  0  0  0  0
 13 30  1  0  0  0  0
 13 31  1  0  0  0  0
 14 15  1  0  0  0  0
 14 18  1  0  0  0  0
 14 41  1  0  0  0  0
 15 16  1  0  0  0  0
 15 17  1  0  0  0  0
 15 32  1  0  0  0  0
 16 33  1  0  0  0  0
 16 34  1  0  0  0  0
 16 35  1  0  0  0  0
 17 36  1  0  0  0  0
 17 37  1  0  0  0  0
 17 38  1  0  0  0  0
 18 39  1  0  0  0  0
 18 40  1  0  0  0  0
M  CHG  1  14   1
M  END
> <s_m_source_file>
AV-unprocessed.smi

> <i_m_source_file_index>
1831

> <i_lp_mmshare_version>
43012

> <i_f3d_flags>
0

> <s_epik_input>
W0NIM11jMW5uYyhzMSlbTkhdQyg9TylbTkhdW0NIMl1bQ0BASF0yW0NIMl1bQ0gyXU4oW0NIMl0yKVtDSF0oW0NIM10pW0NIM10=

> <s_epik_cmdline>
J2VwaWtfcHl0aG9uJywgJy1waCcsICc3LjAnLCAnLXRuJywgJzgnLCAnLW1hJywgJzIwMCcsICctbWV0YWxfYmluZGluZycsICctaW1hZScsICc8aW5maWxlLm1hZT4nLCAnLW9tYWUnLCAnPG91dGZpbGUubWFlPic=

> <r_lp_tautomer_probability>
1

> <r_epik_Ionization_Penalty>
0.00080807

> <r_epik_Ionization_Penalty_Charging>
0.000218981

> <r_epik_Ionization_Penalty_Neutral>
0.00058909

> <r_epik_State_Penalty>
-0

> <r_epik_Charging_Adjusted_Penalty>
0.000218981

> <i_epik_Tot_Q>
1

> <i_epik_Tot_abs_Q>
1

> <r_epik_Metal_State_Penalty>
0.236062

> <b_epik_Metal_Only>
0

> <s_lp_Force_Field>
OPLS_2005

> <r_lp_Energy>
28.9112

> <b_lp_Chiralities_Consistent>
1

> <s_lp_Variant>
AV-unprocessed.smi:1831-1

> <Gold.Version>
5.8.1

> <Gold.Id.Protein>
6NUR|6NUR_protein|mol2

> <Gold.PLP.Fitness>
41.3339

> <Gold.PLP.PLP>
-31.5346

> <Gold.PLP.part.hbond>
-3.0000

> <Gold.PLP.part.metal>
0.0000

> <Gold.PLP.part.buried>
0.6432

> <Gold.PLP.part.nonpolar>
-29.1675

> <Gold.PLP.part.repulsive>
0.3951

> <Gold.PLP.ligand.clash>
0.0000

> <Gold.PLP.ligand.torsion>
0.5168

> <Gold.PLP.Chemscore.Hbond>
3.6027

> <Gold.PLP.Chemscore.CHOScore>
0.0000

> <Gold.PLP.Chemscore.Metal>
0.0000

> <Gold.Chemscore.Hbonds>
donor molecule, donor type, donor heavy atom, donor atom, acceptor molecule, acceptor atom, score
      L1  H     6    23       P1  8028  0.54
      L1  H    14    41       P1  7948  2.00
      P1  H  7989  7998       L1     8  1.00

> <Gold.PLP.Chemscore.Internal.Correction>
0.0250

> <Gold.Rescore>
     Score         DG    S(hbond)    S(metal)    S(lipo)     H(rot)  DE(clash)    DE(int)     intcor
     14.52     -17.97       2.28        0.00      75.28       1.54       1.66       1.79       ----

> <Gold.Chemscore.Fitness>
14.5178

> <Gold.Chemscore.DG>
-17.9677

> <Gold.Chemscore.ZeroCoef>
-5.4800

> <Gold.Chemscore.Hbond>
2.2820

> <Gold.Chemscore.Metal>
0.0000

> <Gold.Chemscore.Lipo>
75.2756

> <Gold.Chemscore.Internal_Hbond>
0.0000

> <Gold.Chemscore.DEClash>
1.6565

> <Gold.Chemscore.DEInternal>
1.7934

> <Gold.Chemscore.Rot>
1.5396

> <Gold.Chemscore.Internal.Correction>
   9.000000E+99

> <Gold.Chemscore.Hbonds>
donor molecule, donor type, donor heavy atom, donor atom, acceptor molecule, acceptor atom, score
      L1  H     6    23       P1  8028  0.50
      L1  H    14    41       P1  7948  1.00
      P1  H  7989  7998       L1     8  0.75

> <Gold.Chemscore.Hbond.Weighted>
-7.6218

> <Gold.Chemscore.Metal.Weighted>
-0.0000

> <Gold.Chemscore.Lipo.Weighted>
-8.8072

> <Gold.Chemscore.Internal_Hbond.Weighted>
0.0000

> <Gold.Chemscore.DEClash.Weighted>
1.6565

> <Gold.Chemscore.DEInternal.Weighted>
1.7934

> <Gold.Chemscore.Rot.Weighted>
3.9413

> <Gold.Chemscore.Internal.Correction.Weighted>
   9.000000E+99

> <Gold.Protein.RotatedTorsions>
[ 6907 6896 6895 6894 ] final -137.77 input  -60.11 | X-H torsion
[ 7974 7965 7964 7962 ] final   -9.71 input  175.53 | X-H torsion
[ 8008 7997 7996 7995 ] final  -72.44 input   59.86 | X-H torsion
[ 10167 10162 10161 10158 ] final   38.91 input  -65.29 | X-H torsion
[ 10718 10713 10712 10709 ] final -101.76 input   66.30 | X-H torsion
[ 10763 10752 10751 10750 ] final  -82.25 input  -60.55 | X-H torsion
[ 11005 11000 10999 10996 ] final  -22.84 input  -57.11 | X-H torsion

> <Gold.Protein.ActiveResidues>
 VAL166  LYS551  ARG553  GLY616  TRP617  ASP618  TYR619  PRO620  LYS621  CYS622 
 ASP623  PHE694  ASN695  SER759  ASP760  ASP761  ALA762  ILE779  LEU786  VAL792 
 PHE793  MET794  SER795  GLU796  ALA797  LYS798  CYS799  TRP800  GLU811  SER814 

> <Gold.Protein.RotatedAtoms>
  151.0267  133.5828  159.2665 H   0  0  0  0  0  0  0  0  0  0  0  0  # atno 6907 bound_to 6896
  151.2924  135.0745  159.9219 H   0  0  0  0  0  0  0  0  0  0  0  0  # atno 6908 bound_to 6896
  152.5335  133.9962  159.7928 H   0  0  0  0  0  0  0  0  0  0  0  0  # atno 6909 bound_to 6896
  146.2243  140.2657  142.8354 H   0  0  0  0  0  0  0  0  0  0  0  0  # atno 7974 bound_to 7965
  154.5166  140.0797  156.8093 H   0  0  0  0  0  0  0  0  0  0  0  0  # atno 8008 bound_to 7997
  155.3666  140.3421  155.4224 H   0  0  0  0  0  0  0  0  0  0  0  0  # atno 8009 bound_to 7997
  156.1635  140.1596  156.8559 H   0  0  0  0  0  0  0  0  0  0  0  0  # atno 8010 bound_to 7997
  140.3890  144.1877  150.6130 H   0  0  0  0  0  0  0  0  0  0  0  0  # atno 10167 bound_to 10162
  156.0205  130.5388  150.7010 H   0  0  0  0  0  0  0  0  0  0  0  0  # atno 10718 bound_to 10713
  154.5734  135.5598  153.7117 H   0  0  0  0  0  0  0  0  0  0  0  0  # atno 10763 bound_to 10752
  153.0056  135.6302  154.2082 H   0  0  0  0  0  0  0  0  0  0  0  0  # atno 10764 bound_to 10752
  154.2022  135.2877  155.2967 H   0  0  0  0  0  0  0  0  0  0  0  0  # atno 10765 bound_to 10752
  140.8695  133.7730  156.0170 H   0  0  0  0  0  0  0  0  0  0  0  0  # atno 11005 bound_to 11000
  144.9306  140.7970  143.5692 LP  0  0  0  0  0  0  0  0  0  0  0  0  # atno 17320 bound_to 7965
  145.2600  139.1996  143.4897 LP  0  0  0  0  0  0  0  0  0  0  0  0  # atno 17321 bound_to 7965
  140.4859  143.2363  151.8889 LP  0  0  0  0  0  0  0  0  0  0  0  0  # atno 17342 bound_to 10162
  139.4790  144.5219  151.8789 LP  0  0  0  0  0  0  0  0  0  0  0  0  # atno 17343 bound_to 10162
  157.4670  131.0889  151.0684 LP  0  0  0  0  0  0  0  0  0  0  0  0  # atno 17370 bound_to 10713
  157.1155  130.6040  149.5492 LP  0  0  0  0  0  0  0  0  0  0  0  0  # atno 17371 bound_to 10713
  140.8589  134.2864  157.5243 LP  0  0  0  0  0  0  0  0  0  0  0  0  # atno 17394 bound_to 11000
  139.8711  134.9508  156.4065 LP  0  0  0  0  0  0  0  0  0  0  0  0  # atno 17395 bound_to 11000

$$$$
