AV-unprocessed.smi:34|AV-procd|sdf|225|dock6
  -GOLD-   2262015543D 1   1.00000     0.00000
 Structure written by MMmdl.
 55 59  0  0  0  0  0  0  0  0  1 V2000
  152.2666  140.0972  158.4057 O   0  0  0  0  0  0  0  0  0  0  0  0
  151.6546  141.0923  158.0164 C   0  0  0  0  0  0  0  0  0  0  0  0
  150.7807  141.0578  156.8566 N   0  0  0  0  0  0  0  0  0  0  0  0
  150.4416  139.9906  156.0957 C   0  0  0  0  0  0  0  0  0  0  0  0
  150.7427  139.9130  154.7728 N   0  0  0  0  0  0  0  0  0  0  0  0
  150.3868  138.8381  154.0638 C   0  0  0  0  0  0  0  0  0  0  0  0
  149.7367  137.7478  154.4741 N   0  0  0  0  0  0  0  0  0  0  0  0
  149.4292  137.8164  155.8015 C   0  0  0  0  0  0  0  0  0  0  0  0
  149.7451  138.8965  156.6724 C   0  0  0  0  0  0  0  0  0  0  0  0
  149.2798  138.6205  157.9516 N   0  0  0  0  0  0  0  0  0  0  0  0
  148.7249  137.4437  157.8391 C   0  0  0  0  0  0  0  0  0  0  0  0
  148.7670  136.8872  156.5797 N   0  0  0  0  0  0  0  0  0  0  0  0
  148.2222  135.5585  156.1498 C   0  0  2  0  0  0  0  0  0  0  0  0
  146.8578  135.5427  156.4427 O   0  0  0  0  0  0  0  0  0  0  0  0
  146.5173  134.3335  157.1085 C   0  0  2  0  0  0  0  0  0  0  0  0
  145.3051  134.5619  158.0191 C   0  0  0  0  0  0  0  0  0  0  0  0
  144.7508  133.3124  158.3967 O   0  0  0  0  0  0  0  0  0  0  0  0
  143.4163  133.1307  158.3682 C   0  0  0  0  0  0  0  0  0  0  0  0
  142.6253  133.9556  157.9062 O   0  0  0  0  0  0  0  0  0  0  0  0
  142.9957  131.8255  158.9545 C   0  0  0  0  0  0  0  0  0  0  0  0
  141.6172  131.5383  159.0894 C   0  0  0  0  0  0  0  0  0  0  0  0
  141.1899  130.3148  159.6406 C   0  0  0  0  0  0  0  0  0  0  0  0
  142.1358  129.3634  160.0642 C   0  0  0  0  0  0  0  0  0  0  0  0
  143.5101  129.6373  159.9365 C   0  0  0  0  0  0  0  0  0  0  0  0
  143.9395  130.8603  159.3853 C   0  0  0  0  0  0  0  0  0  0  0  0
  147.7932  133.9372  157.8491 C   0  0  1  0  0  0  0  0  0  0  0  0
  147.8410  132.6241  158.0776 F   0  0  0  0  0  0  0  0  0  0  0  0
  148.8834  134.3724  156.8864 C   0  0  2  0  0  0  0  0  0  0  0  0
  150.0799  134.6868  157.5763 O   0  0  0  0  0  0  0  0  0  0  0  0
  151.8340  142.4333  158.6671 C   0  0  0  0  0  0  0  0  0  0  0  0
  151.5707  143.6140  157.9367 C   0  0  0  0  0  0  0  0  0  0  0  0
  151.7524  144.8769  158.5333 C   0  0  0  0  0  0  0  0  0  0  0  0
  152.2047  144.9704  159.8629 C   0  0  0  0  0  0  0  0  0  0  0  0
  152.4806  143.7998  160.5942 C   0  0  0  0  0  0  0  0  0  0  0  0
  152.3007  142.5362  159.9984 C   0  0  0  0  0  0  0  0  0  0  0  0
  150.3565  141.9365  156.5981 H   0  0  0  0  0  0  0  0  0  0  0  0
  150.6629  138.8534  153.0199 H   0  0  0  0  0  0  0  0  0  0  0  0
  148.2639  136.9460  158.6798 H   0  0  0  0  0  0  0  0  0  0  0  0
  148.3856  135.5325  155.0718 H   0  0  0  0  0  0  0  0  0  0  0  0
  146.2846  133.5917  156.3423 H   0  0  0  0  0  0  0  0  0  0  0  0
  145.5970  135.1307  158.9031 H   0  0  0  0  0  0  0  0  0  0  0  0
  144.5488  135.1439  157.4910 H   0  0  0  0  0  0  0  0  0  0  0  0
  140.8721  132.2534  158.7713 H   0  0  0  0  0  0  0  0  0  0  0  0
  140.1344  130.1068  159.7384 H   0  0  0  0  0  0  0  0  0  0  0  0
  141.8079  128.4251  160.4867 H   0  0  0  0  0  0  0  0  0  0  0  0
  144.2374  128.9085  160.2624 H   0  0  0  0  0  0  0  0  0  0  0  0
  145.0017  131.0389  159.3029 H   0  0  0  0  0  0  0  0  0  0  0  0
  147.8710  134.4547  158.8060 H   0  0  0  0  0  0  0  0  0  0  0  0
  149.0724  133.5881  156.1520 H   0  0  0  0  0  0  0  0  0  0  0  0
  150.8134  134.4293  157.0393 H   0  0  0  0  0  0  0  0  0  0  0  0
  151.2237  143.5599  156.9147 H   0  0  0  0  0  0  0  0  0  0  0  0
  151.5455  145.7745  157.9695 H   0  0  0  0  0  0  0  0  0  0  0  0
  152.3438  145.9391  160.3198 H   0  0  0  0  0  0  0  0  0  0  0  0
  152.8334  143.8708  161.6127 H   0  0  0  0  0  0  0  0  0  0  0  0
  152.5288  141.6515  160.5747 H   0  0  0  0  0  0  0  0  0  0  0  0
  1  2  2  0  0  0  0
  2  3  1  0  0  0  0
  2 30  1  0  0  0  0
  3  4  1  0  0  0  0
  3 36  1  0  0  0  0
  4  9  1  0  0  0  0
  4  5  2  0  0  0  0
  5  6  1  0  0  0  0
  6  7  2  0  0  0  0
  6 37  1  0  0  0  0
  7  8  1  0  0  0  0
  8 12  1  0  0  0  0
  8  9  2  0  0  0  0
  9 10  1  0  0  0  0
 10 11  2  0  0  0  0
 11 12  1  0  0  0  0
 11 38  1  0  0  0  0
 12 13  1  0  0  0  0
 13 28  1  0  0  0  0
 13 14  1  0  0  0  0
 13 39  1  0  0  0  0
 14 15  1  0  0  0  0
 15 16  1  0  0  0  0
 15 26  1  0  0  0  0
 15 40  1  0  0  0  0
 16 17  1  0  0  0  0
 16 41  1  0  0  0  0
 16 42  1  0  0  0  0
 17 18  1  0  0  0  0
 18 19  2  0  0  0  0
 18 20  1  0  0  0  0
 20 25  1  0  0  0  0
 20 21  2  0  0  0  0
 21 22  1  0  0  0  0
 21 43  1  0  0  0  0
 22 23  2  0  0  0  0
 22 44  1  0  0  0  0
 23 24  1  0  0  0  0
 23 45  1  0  0  0  0
 24 25  2  0  0  0  0
 24 46  1  0  0  0  0
 25 47  1  0  0  0  0
 26 27  1  0  0  0  0
 26 28  1  0  0  0  0
 26 48  1  0  0  0  0
 28 29  1  0  0  0  0
 28 49  1  0  0  0  0
 29 50  1  0  0  0  0
 30 35  1  0  0  0  0
 30 31  2  0  0  0  0
 31 32  1  0  0  0  0
 31 51  1  0  0  0  0
 32 33  2  0  0  0  0
 32 52  1  0  0  0  0
 33 34  1  0  0  0  0
 33 53  1  0  0  0  0
 34 35  2  0  0  0  0
 34 54  1  0  0  0  0
 35 55  1  0  0  0  0
M  END
> <s_m_source_file>
AV-unprocessed.smi

> <i_m_source_file_index>
34

> <i_lp_mmshare_version>
43012

> <i_f3d_flags>
0

> <s_epik_input>
W2NIXTFbY0hdW2NIXVtjSF1bY0hdYzFDKD1PKVtOSF1jKG5bY0hdbjIpYyhjMjMpbltjSF1uM1tDQEBIXTRPW0NASF0oW0NAQEhdKEYpW0NASF00W09IXSlbQ0gyXU9DKD1PKWM1W2NIXVtjSF1bY0hdW2NIXVtjSF01

> <s_epik_cmdline>
J2VwaWtfcHl0aG9uJywgJy1waCcsICc3LjAnLCAnLXRuJywgJzgnLCAnLW1hJywgJzIwMCcsICctbWV0YWxfYmluZGluZycsICctaW1hZScsICc8aW5maWxlLm1hZT4nLCAnLW9tYWUnLCAnPG91dGZpbGUubWFlPic=

> <r_lp_tautomer_probability>
1

> <r_epik_Ionization_Penalty>
0.00257489

> <r_epik_Ionization_Penalty_Charging>
0

> <r_epik_Ionization_Penalty_Neutral>
0.00257489

> <r_epik_State_Penalty>
0.00519398

> <r_epik_Charging_Adjusted_Penalty>
0.00519398

> <i_epik_Tot_Q>
0

> <i_epik_Tot_abs_Q>
0

> <r_epik_Metal_State_Penalty>
0.335891

> <b_epik_Metal_Only>
0

> <s_epik_Chemistry_Notes>
This compound has an ester and may undergo hydrolysis at high or low pH. This compound contains an acetal/aminal-like group ( X-CH(R)-Y where X, Y are N, S, or O) that may be acid/base labile, releasing an aldehyde.

> <s_lp_Force_Field>
OPLS_2005

> <r_lp_Energy>
52.3036

> <b_lp_Chiralities_Consistent>
1

> <s_lp_Variant>
AV-unprocessed.smi:34-11

> <Gold.Version>
5.8.1

> <Gold.Id.Protein>
6NUR|6NUR_protein|mol2

> <Gold.PLP.Fitness>
55.3007

> <Gold.PLP.PLP>
-46.4440

> <Gold.PLP.part.hbond>
-3.0000

> <Gold.PLP.part.metal>
0.0000

> <Gold.PLP.part.buried>
-9.3563

> <Gold.PLP.part.nonpolar>
-35.1203

> <Gold.PLP.part.repulsive>
0.4158

> <Gold.PLP.ligand.clash>
0.0000

> <Gold.PLP.ligand.torsion>
1.3273

> <Gold.PLP.Chemscore.Hbond>
2.8160

> <Gold.PLP.Chemscore.CHOScore>
0.9951

> <Gold.PLP.Chemscore.Metal>
0.0000

> <Gold.Chemscore.Hbonds>
donor molecule, donor type, donor heavy atom, donor atom, acceptor molecule, acceptor atom, score
      P1  H  6896  6908       L1    29  0.80
      P1  H  7989  7998       L1     5  1.00
      P1  H 11000 11005       L1    19  1.00
      L1  C     6    37       P1  7957  1.00

> <Gold.PLP.Chemscore.Internal.Correction>
0.0779

> <Gold.Rescore>
     Score         DG    S(hbond)    S(metal)    S(lipo)     H(rot)  DE(clash)    DE(int)     intcor
     17.90     -19.28       2.32        0.00     111.23       2.72       0.16       1.22       ----

> <Gold.Chemscore.Fitness>
17.8986

> <Gold.Chemscore.DG>
-19.2769

> <Gold.Chemscore.ZeroCoef>
-5.4800

> <Gold.Chemscore.Hbond>
2.3202

> <Gold.Chemscore.Metal>
0.0000

> <Gold.Chemscore.Lipo>
111.2349

> <Gold.Chemscore.Internal_Hbond>
0.0000

> <Gold.Chemscore.DEClash>
0.1590

> <Gold.Chemscore.DEInternal>
1.2193

> <Gold.Chemscore.Rot>
2.7215

> <Gold.Chemscore.Internal.Correction>
   9.000000E+99

> <Gold.Chemscore.Hbonds>
donor molecule, donor type, donor heavy atom, donor atom, acceptor molecule, acceptor atom, score
      P1  H  6896  6908       L1    29  0.31
      P1  H  7989  7998       L1     5  0.26
      P1  H 11000 11005       L1    19  0.99

> <Gold.Chemscore.Hbond.Weighted>
-7.7495

> <Gold.Chemscore.Metal.Weighted>
-0.0000

> <Gold.Chemscore.Lipo.Weighted>
-13.0145

> <Gold.Chemscore.Internal_Hbond.Weighted>
0.0000

> <Gold.Chemscore.DEClash.Weighted>
0.1590

> <Gold.Chemscore.DEInternal.Weighted>
1.2193

> <Gold.Chemscore.Rot.Weighted>
6.9670

> <Gold.Chemscore.Internal.Correction.Weighted>
   9.000000E+99

> <Gold.Protein.RotatedTorsions>
[ 6907 6896 6895 6894 ] final  146.76 input  -60.11 | X-H torsion
[ 7974 7965 7964 7962 ] final  -74.50 input  175.53 | X-H torsion
[ 8008 7997 7996 7995 ] final  154.36 input   59.86 | X-H torsion
[ 10167 10162 10161 10158 ] final   82.25 input  -65.29 | X-H torsion
[ 10718 10713 10712 10709 ] final -145.98 input   66.30 | X-H torsion
[ 10763 10752 10751 10750 ] final   86.96 input  -60.55 | X-H torsion
[ 11005 11000 10999 10996 ] final -103.60 input  -57.11 | X-H torsion

> <Gold.Protein.ActiveResidues>
 VAL166  LYS551  ARG553  GLY616  TRP617  ASP618  TYR619  PRO620  LYS621  CYS622 
 ASP623  PHE694  ASN695  SER759  ASP760  ASP761  ALA762  ILE779  LEU786  VAL792 
 PHE793  MET794  SER795  GLU796  ALA797  LYS798  CYS799  TRP800  GLU811  SER814 

> <Gold.Protein.RotatedAtoms>
  152.1636  133.4598  159.4873 H   0  0  0  0  0  0  0  0  0  0  0  0  # atno 6907 bound_to 6896
  150.6910  134.2040  159.4342 H   0  0  0  0  0  0  0  0  0  0  0  0  # atno 6908 bound_to 6896
  151.9944  134.9962  160.0613 H   0  0  0  0  0  0  0  0  0  0  0  0  # atno 6909 bound_to 6896
  145.6383  140.9318  143.1050 H   0  0  0  0  0  0  0  0  0  0  0  0  # atno 7974 bound_to 7965
  156.2535  140.1969  156.6634 H   0  0  0  0  0  0  0  0  0  0  0  0  # atno 8008 bound_to 7997
  154.6447  140.0579  156.9912 H   0  0  0  0  0  0  0  0  0  0  0  0  # atno 8009 bound_to 7997
  155.1509  140.3251  155.4434 H   0  0  0  0  0  0  0  0  0  0  0  0  # atno 8010 bound_to 7997
  139.9308  144.6153  150.8347 H   0  0  0  0  0  0  0  0  0  0  0  0  # atno 10167 bound_to 10162
  156.3892  130.7877  151.2077 H   0  0  0  0  0  0  0  0  0  0  0  0  # atno 10718 bound_to 10713
  153.1622  135.4561  154.9787 H   0  0  0  0  0  0  0  0  0  0  0  0  # atno 10763 bound_to 10752
  154.7906  135.3219  154.7789 H   0  0  0  0  0  0  0  0  0  0  0  0  # atno 10764 bound_to 10752
  153.8277  135.6941  153.4873 H   0  0  0  0  0  0  0  0  0  0  0  0  # atno 10765 bound_to 10752
  141.1138  133.8654  157.1506 H   0  0  0  0  0  0  0  0  0  0  0  0  # atno 11005 bound_to 11000
  144.7167  139.8171  143.7396 LP  0  0  0  0  0  0  0  0  0  0  0  0  # atno 17320 bound_to 7965
  146.1302  139.4335  143.0174 LP  0  0  0  0  0  0  0  0  0  0  0  0  # atno 17321 bound_to 7965
  140.7638  143.3232  151.2575 LP  0  0  0  0  0  0  0  0  0  0  0  0  # atno 17342 bound_to 10162
  139.6784  143.9897  152.2794 LP  0  0  0  0  0  0  0  0  0  0  0  0  # atno 17343 bound_to 10162
  157.7498  131.0320  150.4209 LP  0  0  0  0  0  0  0  0  0  0  0  0  # atno 17370 bound_to 10713
  156.4468  130.4003  149.6662 LP  0  0  0  0  0  0  0  0  0  0  0  0  # atno 17371 bound_to 10713
  140.0048  135.0013  157.0268 LP  0  0  0  0  0  0  0  0  0  0  0  0  # atno 17394 bound_to 11000
  140.4702  134.1395  155.7202 LP  0  0  0  0  0  0  0  0  0  0  0  0  # atno 17395 bound_to 11000

$$$$
