AV-unprocessed.smi:1349|AV-procd|sdf|5518|dock10
  -GOLD-   22720 5103D 1   1.00000     0.00000
 Structure written by MMmdl.
 42 44  0  0  0  0  0  0  0  0  1 V2000
  152.5701  140.0538  155.1041 O   0  0  0  0  0  0  0  0  0  0  0  0
  152.2196  138.6985  155.2920 C   0  0  0  0  0  0  0  0  0  0  0  0
  151.3637  138.5286  156.5556 C   0  0  0  0  0  0  0  0  0  0  0  0
  152.1364  138.8042  157.8568 C   0  0  0  0  0  0  0  0  0  0  0  0
  152.1256  140.2573  158.2364 C   0  0  0  0  0  0  0  0  0  0  0  0
  151.6685  141.1801  157.3879 N   0  0  0  0  0  0  0  0  0  0  0  0
  151.8417  142.3565  158.0879 C   0  0  0  0  0  0  0  0  0  0  0  0
  151.5588  143.6924  157.7234 C   0  0  0  0  0  0  0  0  0  0  0  0
  151.8258  144.7486  158.6189 C   0  0  0  0  0  0  0  0  0  0  0  0
  152.3776  144.4843  159.8891 C   0  0  0  0  0  0  0  0  0  0  0  0
  152.6650  143.1598  160.2722 C   0  0  0  0  0  0  0  0  0  0  0  0
  152.3972  142.1088  159.3740 C   0  0  0  0  0  0  0  0  0  0  0  0
  152.5557  140.7271  159.4387 N   0  0  0  0  0  0  0  0  0  0  0  0
  153.0756  139.9990  160.5899 C   0  0  0  0  0  0  0  0  0  0  0  0
  154.5318  139.5545  160.3979 C   0  0  0  0  0  0  0  0  0  0  0  0
  155.2293  139.6038  161.6354 O   0  0  0  0  0  0  0  0  0  0  0  0
  154.9080  138.6711  162.5994 C   0  0  0  0  0  0  0  0  0  0  0  0
  155.5187  138.8141  163.8630 C   0  0  0  0  0  0  0  0  0  0  0  0
  155.2473  137.9056  164.9041 C   0  0  0  0  0  0  0  0  0  0  0  0
  154.3554  136.8388  164.6918 C   0  0  0  0  0  0  0  0  0  0  0  0
  153.7377  136.6831  163.4372 C   0  0  0  0  0  0  0  0  0  0  0  0
  154.0108  137.5915  162.3957 C   0  0  0  0  0  0  0  0  0  0  0  0
  152.1026  140.5762  155.7378 H   0  0  0  0  0  0  0  0  0  0  0  0
  151.6625  138.3633  154.4168 H   0  0  0  0  0  0  0  0  0  0  0  0
  153.1241  138.0922  155.3510 H   0  0  0  0  0  0  0  0  0  0  0  0
  150.4872  139.1734  156.4971 H   0  0  0  0  0  0  0  0  0  0  0  0
  150.9814  137.5075  156.5808 H   0  0  0  0  0  0  0  0  0  0  0  0
  151.6915  138.2357  158.6742 H   0  0  0  0  0  0  0  0  0  0  0  0
  153.1544  138.4355  157.7597 H   0  0  0  0  0  0  0  0  0  0  0  0
  151.1359  143.9042  156.7526 H   0  0  0  0  0  0  0  0  0  0  0  0
  151.6061  145.7660  158.3297 H   0  0  0  0  0  0  0  0  0  0  0  0
  152.5799  145.2985  160.5696 H   0  0  0  0  0  0  0  0  0  0  0  0
  153.0874  142.9549  161.2446 H   0  0  0  0  0  0  0  0  0  0  0  0
  153.0149  140.6564  161.4576 H   0  0  0  0  0  0  0  0  0  0  0  0
  152.4349  139.1520  160.8272 H   0  0  0  0  0  0  0  0  0  0  0  0
  154.5520  138.5420  159.9916 H   0  0  0  0  0  0  0  0  0  0  0  0
  155.0125  140.2156  159.6753 H   0  0  0  0  0  0  0  0  0  0  0  0
  156.2064  139.6272  164.0384 H   0  0  0  0  0  0  0  0  0  0  0  0
  155.7241  138.0279  165.8653 H   0  0  0  0  0  0  0  0  0  0  0  0
  154.1457  136.1411  165.4892 H   0  0  0  0  0  0  0  0  0  0  0  0
  153.0523  135.8650  163.2725 H   0  0  0  0  0  0  0  0  0  0  0  0
  153.5168  137.4369  161.4488 H   0  0  0  0  0  0  0  0  0  0  0  0
  1  2  1  0  0  0  0
  1 23  1  0  0  0  0
  2  3  1  0  0  0  0
  2 24  1  0  0  0  0
  2 25  1  0  0  0  0
  3  4  1  0  0  0  0
  3 26  1  0  0  0  0
  3 27  1  0  0  0  0
  4  5  1  0  0  0  0
  4 28  1  0  0  0  0
  4 29  1  0  0  0  0
  5 13  1  0  0  0  0
  5  6  2  0  0  0  0
  6  7  1  0  0  0  0
  7 12  2  0  0  0  0
  7  8  1  0  0  0  0
  8  9  2  0  0  0  0
  8 30  1  0  0  0  0
  9 10  1  0  0  0  0
  9 31  1  0  0  0  0
 10 11  2  0  0  0  0
 10 32  1  0  0  0  0
 11 12  1  0  0  0  0
 11 33  1  0  0  0  0
 12 13  1  0  0  0  0
 13 14  1  0  0  0  0
 14 15  1  0  0  0  0
 14 34  1  0  0  0  0
 14 35  1  0  0  0  0
 15 16  1  0  0  0  0
 15 36  1  0  0  0  0
 15 37  1  0  0  0  0
 16 17  1  0  0  0  0
 17 22  1  0  0  0  0
 17 18  2  0  0  0  0
 18 19  1  0  0  0  0
 18 38  1  0  0  0  0
 19 20  2  0  0  0  0
 19 39  1  0  0  0  0
 20 21  1  0  0  0  0
 20 40  1  0  0  0  0
 21 22  2  0  0  0  0
 21 41  1  0  0  0  0
 22 42  1  0  0  0  0
M  END
> <s_m_source_file>
AV-unprocessed.smi

> <i_m_source_file_index>
1349

> <i_lp_mmshare_version>
43012

> <i_f3d_flags>
0

> <s_epik_input>
W09IXVtDSDJdW0NIMl1bQ0gyXWMobjEpbihjKGMxMilbY0hdW2NIXVtjSF1bY0hdMilbQ0gyXVtDSDJdT2MzW2NIXVtjSF1bY0hdW2NIXVtjSF0z

> <s_epik_cmdline>
J2VwaWtfcHl0aG9uJywgJy1waCcsICc3LjAnLCAnLXRuJywgJzgnLCAnLW1hJywgJzIwMCcsICctbWV0YWxfYmluZGluZycsICctaW1hZScsICc8aW5maWxlLm1hZT4nLCAnLW9tYWUnLCAnPG91dGZpbGUubWFlPic=

> <r_lp_tautomer_probability>
1

> <r_epik_Ionization_Penalty>
0.159315

> <r_epik_Ionization_Penalty_Charging>
0

> <r_epik_Ionization_Penalty_Neutral>
0.159315

> <r_epik_State_Penalty>
0.148622

> <r_epik_Charging_Adjusted_Penalty>
0.148622

> <i_epik_Tot_Q>
0

> <i_epik_Tot_abs_Q>
0

> <r_epik_Metal_State_Penalty>
0.0001689

> <b_epik_Metal_Only>
0

> <s_lp_Force_Field>
OPLS_2005

> <r_lp_Energy>
15.4549

> <b_lp_Chiralities_Consistent>
1

> <s_lp_Variant>
AV-unprocessed.smi:1349-1

> <Gold.Version>
5.8.1

> <Gold.Id.Protein>
6NUR|6NUR_protein|mol2

> <Gold.PLP.Fitness>
49.6406

> <Gold.PLP.PLP>
-47.0350

> <Gold.PLP.part.hbond>
-1.9677

> <Gold.PLP.part.metal>
0.0000

> <Gold.PLP.part.buried>
-4.1726

> <Gold.PLP.part.nonpolar>
-41.9835

> <Gold.PLP.part.repulsive>
0.0067

> <Gold.PLP.ligand.clash>
0.0000

> <Gold.PLP.ligand.torsion>
0.7928

> <Gold.PLP.Chemscore.Hbond>
1.3615

> <Gold.PLP.Chemscore.CHOScore>
0.0000

> <Gold.PLP.Chemscore.Metal>
0.0000

> <Gold.Chemscore.Hbonds>
donor molecule, donor type, donor heavy atom, donor atom, acceptor molecule, acceptor atom, score
      P1  H  7989  7998       L1     1  0.40
      P1  H  7997  8009       L1     1  0.96

> <Gold.PLP.Chemscore.Internal.Correction>
0.1067

> <Gold.Rescore>
     Score         DG    S(hbond)    S(metal)    S(lipo)     H(rot)  DE(clash)    DE(int)     intcor
     15.95     -19.06       0.75        0.00     147.57       2.42       0.90       2.20       ----

> <Gold.Chemscore.Fitness>
15.9542

> <Gold.Chemscore.DG>
-19.0554

> <Gold.Chemscore.ZeroCoef>
-5.4800

> <Gold.Chemscore.Hbond>
0.7501

> <Gold.Chemscore.Metal>
0.0000

> <Gold.Chemscore.Lipo>
147.5684

> <Gold.Chemscore.Internal_Hbond>
0.0000

> <Gold.Chemscore.DEClash>
0.9029

> <Gold.Chemscore.DEInternal>
2.1983

> <Gold.Chemscore.Rot>
2.4201

> <Gold.Chemscore.Internal.Correction>
   9.000000E+99

> <Gold.Chemscore.Hbonds>
donor molecule, donor type, donor heavy atom, donor atom, acceptor molecule, acceptor atom, score
      P1  H  7989  7998       L1     1  0.04
      P1  H  7997  8009       L1     1  0.12

> <Gold.Chemscore.Hbond.Weighted>
-2.5053

> <Gold.Chemscore.Metal.Weighted>
-0.0000

> <Gold.Chemscore.Lipo.Weighted>
-17.2655

> <Gold.Chemscore.Internal_Hbond.Weighted>
0.0000

> <Gold.Chemscore.DEClash.Weighted>
0.9029

> <Gold.Chemscore.DEInternal.Weighted>
2.1983

> <Gold.Chemscore.Rot.Weighted>
6.1954

> <Gold.Chemscore.Internal.Correction.Weighted>
   9.000000E+99

> <Gold.Protein.RotatedTorsions>
[ 6907 6896 6895 6894 ] final  -29.83 input  -60.11 | X-H torsion
[ 7974 7965 7964 7962 ] final    2.72 input  175.53 | X-H torsion
[ 8008 7997 7996 7995 ] final -132.45 input   59.86 | X-H torsion
[ 10167 10162 10161 10158 ] final  -45.24 input  -65.29 | X-H torsion
[ 10718 10713 10712 10709 ] final   49.25 input   66.30 | X-H torsion
[ 10763 10752 10751 10750 ] final   42.18 input  -60.55 | X-H torsion
[ 11005 11000 10999 10996 ] final   67.32 input  -57.11 | X-H torsion

> <Gold.Protein.ActiveResidues>
 VAL166  LYS551  ARG553  GLY616  TRP617  ASP618  TYR619  PRO620  LYS621  CYS622 
 ASP623  PHE694  ASN695  SER759  ASP760  ASP761  ALA762  ILE779  LEU786  VAL792 
 PHE793  MET794  SER795  GLU796  ALA797  LYS798  CYS799  TRP800  GLU811  SER814 

> <Gold.Protein.RotatedAtoms>
  151.1139  135.0042  159.8506 H   0  0  0  0  0  0  0  0  0  0  0  0  # atno 6907 bound_to 6896
  152.5444  134.1803  159.8643 H   0  0  0  0  0  0  0  0  0  0  0  0  # atno 6908 bound_to 6896
  151.1856  133.4654  159.2627 H   0  0  0  0  0  0  0  0  0  0  0  0  # atno 6909 bound_to 6896
  146.2444  140.0793  142.8358 H   0  0  0  0  0  0  0  0  0  0  0  0  # atno 7974 bound_to 7965
  155.3291  140.0466  157.3042 H   0  0  0  0  0  0  0  0  0  0  0  0  # atno 8008 bound_to 7997
  154.5338  140.2265  155.8724 H   0  0  0  0  0  0  0  0  0  0  0  0  # atno 8009 bound_to 7997
  156.1815  140.3073  155.9163 H   0  0  0  0  0  0  0  0  0  0  0  0  # atno 8010 bound_to 7997
  140.6865  143.2889  151.3611 H   0  0  0  0  0  0  0  0  0  0  0  0  # atno 10167 bound_to 10162
  157.4768  130.8290  149.8049 H   0  0  0  0  0  0  0  0  0  0  0  0  # atno 10718 bound_to 10713
  152.9889  135.6139  154.2908 H   0  0  0  0  0  0  0  0  0  0  0  0  # atno 10763 bound_to 10752
  154.2633  135.2781  155.2771 H   0  0  0  0  0  0  0  0  0  0  0  0  # atno 10764 bound_to 10752
  154.5187  135.5821  153.6720 H   0  0  0  0  0  0  0  0  0  0  0  0  # atno 10765 bound_to 10752
  139.9778  134.6794  156.0321 H   0  0  0  0  0  0  0  0  0  0  0  0  # atno 11005 bound_to 11000
  145.0747  140.9179  143.4861 LP  0  0  0  0  0  0  0  0  0  0  0  0  # atno 17320 bound_to 7965
  145.0934  139.2873  143.5723 LP  0  0  0  0  0  0  0  0  0  0  0  0  # atno 17321 bound_to 7965
  139.6229  144.0871  152.2408 LP  0  0  0  0  0  0  0  0  0  0  0  0  # atno 17342 bound_to 10162
  140.0321  144.6072  150.7479 LP  0  0  0  0  0  0  0  0  0  0  0  0  # atno 17343 bound_to 10162
  156.0101  130.3837  150.2294 LP  0  0  0  0  0  0  0  0  0  0  0  0  # atno 17370 bound_to 10713
  157.0479  131.0054  151.3263 LP  0  0  0  0  0  0  0  0  0  0  0  0  # atno 17371 bound_to 10713
  141.1453  133.6557  156.3850 LP  0  0  0  0  0  0  0  0  0  0  0  0  # atno 17394 bound_to 11000
  140.5159  134.6351  157.5301 LP  0  0  0  0  0  0  0  0  0  0  0  0  # atno 17395 bound_to 11000

$$$$
