AV-unprocessed.smi:2228|AV-procd|sdf|9026|dock2
  -GOLD-   2272012233D 1   1.00000     0.00000
 Structure written by MMmdl.
 40 41  0  0  0  0  0  0  0  0  1 V2000
  153.7189  141.7231  160.5988 C   0  0  0  0  0  0  0  0  0  0  0  0
  153.4829  142.6033  159.5106 O   0  0  0  0  0  0  0  0  0  0  0  0
  152.1706  143.1482  159.4925 C   0  0  1  0  0  0  0  0  0  0  0  0
  151.8987  143.8753  160.8121 C   0  0  0  0  0  0  0  0  0  0  0  0
  150.8667  144.9378  160.4511 C   0  0  0  0  0  0  0  0  0  0  0  0
  151.3060  145.4224  159.0692 C   0  0  0  0  0  0  0  0  0  0  0  0
  151.9710  144.2109  158.3878 C   0  0  2  0  0  0  0  0  0  0  0  0
  151.1235  143.6851  157.3204 N   0  0  0  0  0  0  0  0  0  0  0  0
  151.1878  142.4428  156.8213 C   0  0  0  0  0  0  0  0  0  0  0  0
  152.0032  141.6001  157.1972 O   0  0  0  0  0  0  0  0  0  0  0  0
  150.2517  142.2527  155.8749 N   0  0  0  0  0  0  0  0  0  0  0  0
  149.9760  141.0707  155.1378 C   0  0  0  0  0  0  0  0  0  0  0  0
  148.6634  140.9788  154.6231 C   0  0  0  0  0  0  0  0  0  0  0  0
  148.2869  139.8426  153.8791 C   0  0  0  0  0  0  0  0  0  0  0  0
  146.8848  139.7239  153.3192 C   0  0  0  0  0  0  0  0  0  0  0  0
  149.2385  138.8267  153.6680 C   0  0  0  0  0  0  0  0  0  0  0  0
  150.5256  138.9974  154.2144 C   0  0  0  0  0  0  0  0  0  0  0  0
  151.5992  137.9469  154.0227 C   0  0  0  0  0  0  0  0  0  0  0  0
  150.8846  140.0860  154.9277 N   0  0  0  0  0  0  0  0  0  0  0  0
  154.7508  141.3740  160.5667 H   0  0  0  0  0  0  0  0  0  0  0  0
  153.0711  140.8468  160.5575 H   0  0  0  0  0  0  0  0  0  0  0  0
  153.5644  142.2257  161.5542 H   0  0  0  0  0  0  0  0  0  0  0  0
  151.4340  142.3472  159.3967 H   0  0  0  0  0  0  0  0  0  0  0  0
  151.5569  143.2032  161.5999 H   0  0  0  0  0  0  0  0  0  0  0  0
  152.8090  144.3636  161.1638 H   0  0  0  0  0  0  0  0  0  0  0  0
  149.8773  144.4833  160.3870 H   0  0  0  0  0  0  0  0  0  0  0  0
  150.8184  145.7440  161.1836 H   0  0  0  0  0  0  0  0  0  0  0  0
  150.4755  145.8410  158.4987 H   0  0  0  0  0  0  0  0  0  0  0  0
  152.0447  146.2166  159.1858 H   0  0  0  0  0  0  0  0  0  0  0  0
  152.9410  144.5188  157.9924 H   0  0  0  0  0  0  0  0  0  0  0  0
  150.4255  144.3119  156.9476 H   0  0  0  0  0  0  0  0  0  0  0  0
  149.6552  143.0403  155.6700 H   0  0  0  0  0  0  0  0  0  0  0  0
  147.9487  141.7705  154.7970 H   0  0  0  0  0  0  0  0  0  0  0  0
  146.7329  138.7612  152.8303 H   0  0  0  0  0  0  0  0  0  0  0  0
  146.7031  140.5108  152.5870 H   0  0  0  0  0  0  0  0  0  0  0  0
  146.1487  139.8202  154.1176 H   0  0  0  0  0  0  0  0  0  0  0  0
  148.9892  137.9410  153.1020 H   0  0  0  0  0  0  0  0  0  0  0  0
  151.1973  137.0544  153.5427 H   0  0  0  0  0  0  0  0  0  0  0  0
  152.0223  137.6534  154.9839 H   0  0  0  0  0  0  0  0  0  0  0  0
  152.4027  138.3382  153.3981 H   0  0  0  0  0  0  0  0  0  0  0  0
  1  2  1  0  0  0  0
  1 20  1  0  0  0  0
  1 21  1  0  0  0  0
  1 22  1  0  0  0  0
  2  3  1  0  0  0  0
  3  7  1  0  0  0  0
  3  4  1  0  0  0  0
  3 23  1  0  0  0  0
  4  5  1  0  0  0  0
  4 24  1  0  0  0  0
  4 25  1  0  0  0  0
  5  6  1  0  0  0  0
  5 26  1  0  0  0  0
  5 27  1  0  0  0  0
  6  7  1  0  0  0  0
  6 28  1  0  0  0  0
  6 29  1  0  0  0  0
  7  8  1  0  0  0  0
  7 30  1  0  0  0  0
  8  9  1  0  0  0  0
  8 31  1  0  0  0  0
  9 10  2  0  0  0  0
  9 11  1  0  0  0  0
 11 12  1  0  0  0  0
 11 32  1  0  0  0  0
 12 19  1  0  0  0  0
 12 13  2  0  0  0  0
 13 14  1  0  0  0  0
 13 33  1  0  0  0  0
 14 15  1  0  0  0  0
 14 16  2  0  0  0  0
 15 34  1  0  0  0  0
 15 35  1  0  0  0  0
 15 36  1  0  0  0  0
 16 17  1  0  0  0  0
 16 37  1  0  0  0  0
 17 18  1  0  0  0  0
 17 19  2  0  0  0  0
 18 38  1  0  0  0  0
 18 39  1  0  0  0  0
 18 40  1  0  0  0  0
M  END
> <s_m_source_file>
AV-unprocessed.smi

> <i_m_source_file_index>
2228

> <i_lp_mmshare_version>
43012

> <i_f3d_flags>
0

> <s_epik_input>
W0NIM11PW0NAQEhdMVtDSDJdW0NIMl1bQ0gyXVtDQEhdMVtOSF1DKD1PKVtOSF1jMltjSF1jKFtDSDNdKVtjSF1jKG4yKVtDSDNd

> <s_epik_cmdline>
J2VwaWtfcHl0aG9uJywgJy1waCcsICc3LjAnLCAnLXRuJywgJzgnLCAnLW1hJywgJzIwMCcsICctbWV0YWxfYmluZGluZycsICctaW1hZScsICc8aW5maWxlLm1hZT4nLCAnLW9tYWUnLCAnPG91dGZpbGUubWFlPic=

> <r_lp_tautomer_probability>
1

> <r_epik_Ionization_Penalty>
0.000275391

> <r_epik_Ionization_Penalty_Charging>
0

> <r_epik_Ionization_Penalty_Neutral>
0.000275391

> <r_epik_State_Penalty>
-0

> <r_epik_Charging_Adjusted_Penalty>
0

> <i_epik_Tot_Q>
0

> <i_epik_Tot_abs_Q>
0

> <r_epik_Metal_State_Penalty>
-0

> <b_epik_Metal_Only>
0

> <s_lp_Force_Field>
OPLS_2005

> <r_lp_Energy>
19.8708

> <b_lp_Chiralities_Consistent>
1

> <s_lp_Variant>
AV-unprocessed.smi:2228-4

> <Gold.Version>
5.8.1

> <Gold.Id.Protein>
6NUR|6NUR_protein|mol2

> <Gold.PLP.Fitness>
48.3872

> <Gold.PLP.PLP>
-41.6677

> <Gold.PLP.part.hbond>
-3.0000

> <Gold.PLP.part.metal>
0.0000

> <Gold.PLP.part.buried>
-0.7742

> <Gold.PLP.part.nonpolar>
-38.7571

> <Gold.PLP.part.repulsive>
0.1896

> <Gold.PLP.ligand.clash>
0.0000

> <Gold.PLP.ligand.torsion>
0.4233

> <Gold.PLP.Chemscore.Hbond>
2.5200

> <Gold.PLP.Chemscore.CHOScore>
0.0000

> <Gold.PLP.Chemscore.Metal>
0.0000

> <Gold.Chemscore.Hbonds>
donor molecule, donor type, donor heavy atom, donor atom, acceptor molecule, acceptor atom, score
      L1  H     8    31       P1  8028  1.00
      L1  H    11    32       P1  8028  1.00
      P1  H  7989  7998       L1    19  0.49

> <Gold.PLP.Chemscore.Internal.Correction>
0.0061

> <Gold.Rescore>
     Score         DG    S(hbond)    S(metal)    S(lipo)     H(rot)  DE(clash)    DE(int)     intcor
     16.14     -21.82       1.91        0.00     111.81       1.21       1.50       4.18       ----

> <Gold.Chemscore.Fitness>
16.1420

> <Gold.Chemscore.DG>
-21.8225

> <Gold.Chemscore.ZeroCoef>
-5.4800

> <Gold.Chemscore.Hbond>
1.9053

> <Gold.Chemscore.Metal>
0.0000

> <Gold.Chemscore.Lipo>
111.8074

> <Gold.Chemscore.Internal_Hbond>
0.0000

> <Gold.Chemscore.DEClash>
1.5029

> <Gold.Chemscore.DEInternal>
4.1775

> <Gold.Chemscore.Rot>
1.2119

> <Gold.Chemscore.Internal.Correction>
   9.000000E+99

> <Gold.Chemscore.Hbonds>
donor molecule, donor type, donor heavy atom, donor atom, acceptor molecule, acceptor atom, score
      L1  H     8    31       P1  8028  0.85
      L1  H    11    32       P1  8028  1.00
      P1  H  7989  7998       L1    19  0.01

> <Gold.Chemscore.Hbond.Weighted>
-6.3636

> <Gold.Chemscore.Metal.Weighted>
-0.0000

> <Gold.Chemscore.Lipo.Weighted>
-13.0815

> <Gold.Chemscore.Internal_Hbond.Weighted>
0.0000

> <Gold.Chemscore.DEClash.Weighted>
1.5029

> <Gold.Chemscore.DEInternal.Weighted>
4.1775

> <Gold.Chemscore.Rot.Weighted>
3.1026

> <Gold.Chemscore.Internal.Correction.Weighted>
   9.000000E+99

> <Gold.Protein.RotatedTorsions>
[ 6907 6896 6895 6894 ] final  -42.40 input  -60.11 | X-H torsion
[ 7974 7965 7964 7962 ] final  -28.08 input  175.53 | X-H torsion
[ 8008 7997 7996 7995 ] final  -19.90 input   59.86 | X-H torsion
[ 10167 10162 10161 10158 ] final -100.78 input  -65.29 | X-H torsion
[ 10718 10713 10712 10709 ] final  -67.24 input   66.30 | X-H torsion
[ 10763 10752 10751 10750 ] final    0.09 input  -60.55 | X-H torsion
[ 11005 11000 10999 10996 ] final  -48.66 input  -57.11 | X-H torsion

> <Gold.Protein.ActiveResidues>
 VAL166  LYS551  ARG553  GLY616  TRP617  ASP618  TYR619  PRO620  LYS621  CYS622 
 ASP623  PHE694  ASN695  SER759  ASP760  ASP761  ALA762  ILE779  LEU786  VAL792 
 PHE793  MET794  SER795  GLU796  ALA797  LYS798  CYS799  TRP800  GLU811  SER814 

> <Gold.Protein.RotatedAtoms>
  150.9556  134.8951  159.7698 H   0  0  0  0  0  0  0  0  0  0  0  0  # atno 6907 bound_to 6896
  152.5137  134.3744  159.9339 H   0  0  0  0  0  0  0  0  0  0  0  0  # atno 6908 bound_to 6896
  151.3758  133.3798  159.2739 H   0  0  0  0  0  0  0  0  0  0  0  0  # atno 6909 bound_to 6896
  146.1313  140.5236  142.8692 H   0  0  0  0  0  0  0  0  0  0  0  0  # atno 7974 bound_to 7965
  154.4805  140.2076  155.9774 H   0  0  0  0  0  0  0  0  0  0  0  0  # atno 8008 bound_to 7997
  156.1158  140.3221  155.8106 H   0  0  0  0  0  0  0  0  0  0  0  0  # atno 8009 bound_to 7997
  155.4555  140.0520  157.2987 H   0  0  0  0  0  0  0  0  0  0  0  0  # atno 8010 bound_to 7997
  140.2483  143.3490  152.0738 H   0  0  0  0  0  0  0  0  0  0  0  0  # atno 10167 bound_to 10162
  156.0568  130.4275  150.1826 H   0  0  0  0  0  0  0  0  0  0  0  0  # atno 10718 bound_to 10713
  153.3252  135.6971  153.6996 H   0  0  0  0  0  0  0  0  0  0  0  0  # atno 10763 bound_to 10752
  153.5820  135.3496  155.2879 H   0  0  0  0  0  0  0  0  0  0  0  0  # atno 10764 bound_to 10752
  154.8606  135.4297  154.2426 H   0  0  0  0  0  0  0  0  0  0  0  0  # atno 10765 bound_to 10752
  141.0714  133.6678  156.3473 H   0  0  0  0  0  0  0  0  0  0  0  0  # atno 11005 bound_to 11000
  144.7694  140.5603  143.6681 LP  0  0  0  0  0  0  0  0  0  0  0  0  # atno 17320 bound_to 7965
  145.5254  139.1476  143.3529 LP  0  0  0  0  0  0  0  0  0  0  0  0  # atno 17321 bound_to 7965
  139.5054  144.6795  151.6044 LP  0  0  0  0  0  0  0  0  0  0  0  0  # atno 17342 bound_to 10162
  140.6060  143.9523  150.6419 LP  0  0  0  0  0  0  0  0  0  0  0  0  # atno 17343 bound_to 10162
  156.9901  130.9891  151.3417 LP  0  0  0  0  0  0  0  0  0  0  0  0  # atno 17370 bound_to 10713
  157.5544  130.8204  149.8186 LP  0  0  0  0  0  0  0  0  0  0  0  0  # atno 17371 bound_to 10713
  140.5666  134.5881  157.5447 LP  0  0  0  0  0  0  0  0  0  0  0  0  # atno 17394 bound_to 11000
  139.9527  134.7589  156.0412 LP  0  0  0  0  0  0  0  0  0  0  0  0  # atno 17395 bound_to 11000

$$$$
