AV-unprocessed.smi:390|AV-procd|sdf|2478|dock10
  -GOLD-   2262022423D 1   1.00000     0.00000
 Structure written by MMmdl.
 31 32  0  0  0  0  0  0  0  0  1 V2000
  155.7762  140.6614  161.9172 N   0  0  0  0  0  0  0  0  0  0  0  0
  154.8636  140.8024  161.2197 C   0  0  0  0  0  0  0  0  0  0  0  0
  153.7539  141.0003  160.3475 C   0  0  0  0  0  0  0  0  0  0  0  0
  153.2562  142.2309  160.0982 C   0  0  0  0  0  0  0  0  0  0  0  0
  152.1868  142.4492  159.2539 N   0  0  0  0  0  0  0  0  0  0  0  0
  151.5804  143.7450  159.1359 C   0  0  0  0  0  0  0  0  0  0  0  0
  151.4178  144.3935  157.7750 C   0  0  0  0  0  0  0  0  0  0  0  0
  152.4430  144.9255  158.7465 C   0  0  0  0  0  0  0  0  0  0  0  0
  151.5100  141.3577  158.6669 C   0  0  0  0  0  0  0  0  0  0  0  0
  150.4882  141.5230  157.9951 O   0  0  0  0  0  0  0  0  0  0  0  0
  152.0482  140.0691  158.9029 N   0  0  0  0  0  0  0  0  0  0  0  0
  151.3712  138.9285  158.3003 C   0  0  0  0  0  0  0  0  0  0  0  0
  151.6922  138.7101  156.8129 C   0  0  0  0  0  0  0  0  0  0  0  0
  152.6956  139.2225  156.3095 O   0  0  0  0  0  0  0  0  0  0  0  0
  150.8057  137.9383  156.1523 N   0  0  0  0  0  0  0  0  0  0  0  0
  150.8374  137.5831  154.8532 C   0  0  0  0  0  0  0  0  0  0  0  0
  149.6485  137.1475  154.4325 N   0  0  0  0  0  0  0  0  0  0  0  0
  151.8163  137.6362  154.1085 O   0  0  0  0  0  0  0  0  0  0  0  0
  153.1663  139.8101  159.7367 C   0  0  0  0  0  0  0  0  0  0  0  0
  153.5820  138.6662  159.9319 O   0  0  0  0  0  0  0  0  0  0  0  0
  153.7153  143.0842  160.5765 H   0  0  0  0  0  0  0  0  0  0  0  0
  150.7901  143.9530  159.8551 H   0  0  0  0  0  0  0  0  0  0  0  0
  151.7906  143.8606  156.9022 H   0  0  0  0  0  0  0  0  0  0  0  0
  150.5239  144.9912  157.6085 H   0  0  0  0  0  0  0  0  0  0  0  0
  152.2337  145.8796  159.2258 H   0  0  0  0  0  0  0  0  0  0  0  0
  153.4903  144.7413  158.5142 H   0  0  0  0  0  0  0  0  0  0  0  0
  151.6262  138.0411  158.8819 H   0  0  0  0  0  0  0  0  0  0  0  0
  150.2983  139.0609  158.4486 H   0  0  0  0  0  0  0  0  0  0  0  0
  150.0306  137.5883  156.6954 H   0  0  0  0  0  0  0  0  0  0  0  0
  148.8631  137.1139  155.0654 H   0  0  0  0  0  0  0  0  0  0  0  0
  149.5403  136.8508  153.4732 H   0  0  0  0  0  0  0  0  0  0  0  0
  1  2  3  0  0  0  0
  2  3  1  0  0  0  0
  3 19  1  0  0  0  0
  3  4  2  0  0  0  0
  4  5  1  0  0  0  0
  4 21  1  0  0  0  0
  5  6  1  0  0  0  0
  5  9  1  0  0  0  0
  6  8  1  0  0  0  0
  6  7  1  0  0  0  0
  6 22  1  0  0  0  0
  7  8  1  0  0  0  0
  7 23  1  0  0  0  0
  7 24  1  0  0  0  0
  8 25  1  0  0  0  0
  8 26  1  0  0  0  0
  9 10  2  0  0  0  0
  9 11  1  0  0  0  0
 11 12  1  0  0  0  0
 11 19  1  0  0  0  0
 12 13  1  0  0  0  0
 12 27  1  0  0  0  0
 12 28  1  0  0  0  0
 13 14  2  0  0  0  0
 13 15  1  0  0  0  0
 15 16  1  0  0  0  0
 15 29  1  0  0  0  0
 16 17  1  0  0  0  0
 16 18  2  0  0  0  0
 17 30  1  0  0  0  0
 17 31  1  0  0  0  0
 19 20  2  0  0  0  0
M  END
> <s_m_source_file>
AV-unprocessed.smi

> <i_m_source_file_index>
390

> <i_lp_mmshare_version>
43012

> <i_f3d_flags>
0

> <s_epik_input>
TiNDYzFbY0hdbihbQ0hdMltDSDJdW0NIMl0yKWMoPU8pbihjMT1PKVtDSDJdQyg9TylbTkhdQyg9TylbTkgyXQ==

> <s_epik_cmdline>
J2VwaWtfcHl0aG9uJywgJy1waCcsICc3LjAnLCAnLXRuJywgJzgnLCAnLW1hJywgJzIwMCcsICctbWV0YWxfYmluZGluZycsICctaW1hZScsICc8aW5maWxlLm1hZT4nLCAnLW9tYWUnLCAnPG91dGZpbGUubWFlPic=

> <r_lp_tautomer_probability>
1

> <r_epik_Ionization_Penalty>
3.12406e-05

> <r_epik_Ionization_Penalty_Charging>
4.21484e-11

> <r_epik_Ionization_Penalty_Neutral>
3.12406e-05

> <r_epik_State_Penalty>
-0

> <r_epik_Charging_Adjusted_Penalty>
4.21484e-11

> <i_epik_Tot_Q>
0

> <i_epik_Tot_abs_Q>
0

> <r_epik_Metal_State_Penalty>
-0

> <b_epik_Metal_Only>
0

> <s_lp_Force_Field>
OPLS_2005

> <r_lp_Energy>
30.8642

> <b_lp_Chiralities_Consistent>
1

> <s_lp_Variant>
AV-unprocessed.smi:390-1

> <Gold.Version>
5.8.1

> <Gold.Id.Protein>
6NUR|6NUR_protein|mol2

> <Gold.PLP.Fitness>
47.7722

> <Gold.PLP.PLP>
-40.5172

> <Gold.PLP.part.hbond>
-4.1314

> <Gold.PLP.part.metal>
0.0000

> <Gold.PLP.part.buried>
-5.4649

> <Gold.PLP.part.nonpolar>
-32.3529

> <Gold.PLP.part.repulsive>
0.2682

> <Gold.PLP.ligand.clash>
0.0000

> <Gold.PLP.ligand.torsion>
0.7021

> <Gold.PLP.Chemscore.Hbond>
2.8160

> <Gold.PLP.Chemscore.CHOScore>
0.0000

> <Gold.PLP.Chemscore.Metal>
0.0000

> <Gold.Chemscore.Hbonds>
donor molecule, donor type, donor heavy atom, donor atom, acceptor molecule, acceptor atom, score
      L1  H    17    31       P1  7948  1.00
      P1  H  7997  8009       L1    14  1.00
      P1  H 10752 10765       L1    18  0.33

> <Gold.PLP.Chemscore.Internal.Correction>
0.2113

> <Gold.Rescore>
     Score         DG    S(hbond)    S(metal)    S(lipo)     H(rot)  DE(clash)    DE(int)     intcor
     11.02     -13.70       1.97        0.00      59.82       2.09       0.19       2.49       ----

> <Gold.Chemscore.Fitness>
11.0211

> <Gold.Chemscore.DG>
-13.7038

> <Gold.Chemscore.ZeroCoef>
-5.4800

> <Gold.Chemscore.Hbond>
1.9697

> <Gold.Chemscore.Metal>
0.0000

> <Gold.Chemscore.Lipo>
59.8167

> <Gold.Chemscore.Internal_Hbond>
0.0000

> <Gold.Chemscore.DEClash>
0.1941

> <Gold.Chemscore.DEInternal>
2.4886

> <Gold.Chemscore.Rot>
2.0913

> <Gold.Chemscore.Internal.Correction>
   9.000000E+99

> <Gold.Chemscore.Hbonds>
donor molecule, donor type, donor heavy atom, donor atom, acceptor molecule, acceptor atom, score
      L1  H    17    31       P1  7948  0.78
      P1  H  7997  8009       L1    14  1.00
      P1  H 10752 10765       L1    18  0.30

> <Gold.Chemscore.Hbond.Weighted>
-6.5790

> <Gold.Chemscore.Metal.Weighted>
-0.0000

> <Gold.Chemscore.Lipo.Weighted>
-6.9986

> <Gold.Chemscore.Internal_Hbond.Weighted>
0.0000

> <Gold.Chemscore.DEClash.Weighted>
0.1941

> <Gold.Chemscore.DEInternal.Weighted>
2.4886

> <Gold.Chemscore.Rot.Weighted>
5.3537

> <Gold.Chemscore.Internal.Correction.Weighted>
   9.000000E+99

> <Gold.Protein.RotatedTorsions>
[ 6907 6896 6895 6894 ] final  -81.46 input  -60.11 | X-H torsion
[ 7974 7965 7964 7962 ] final  130.21 input  175.53 | X-H torsion
[ 8008 7997 7996 7995 ] final -166.50 input   59.86 | X-H torsion
[ 10167 10162 10161 10158 ] final   98.70 input  -65.29 | X-H torsion
[ 10718 10713 10712 10709 ] final   64.27 input   66.30 | X-H torsion
[ 10763 10752 10751 10750 ] final  140.61 input  -60.55 | X-H torsion
[ 11005 11000 10999 10996 ] final   18.43 input  -57.11 | X-H torsion

> <Gold.Protein.ActiveResidues>
 VAL166  LYS551  ARG553  GLY616  TRP617  ASP618  TYR619  PRO620  LYS621  CYS622 
 ASP623  PHE694  ASN695  SER759  ASP760  ASP761  ALA762  ILE779  LEU786  VAL792 
 PHE793  MET794  SER795  GLU796  ALA797  LYS798  CYS799  TRP800  GLU811  SER814 

> <Gold.Protein.RotatedAtoms>
  150.6912  134.3814  159.5035 H   0  0  0  0  0  0  0  0  0  0  0  0  # atno 6907 bound_to 6896
  152.1615  134.8905  160.0550 H   0  0  0  0  0  0  0  0  0  0  0  0  # atno 6908 bound_to 6896
  151.9965  133.3775  159.4202 H   0  0  0  0  0  0  0  0  0  0  0  0  # atno 6909 bound_to 6896
  145.0203  139.4138  143.5200 H   0  0  0  0  0  0  0  0  0  0  0  0  # atno 7974 bound_to 7965
  155.8647  140.0983  157.1590 H   0  0  0  0  0  0  0  0  0  0  0  0  # atno 8008 bound_to 7997
  154.3993  140.1358  156.4066 H   0  0  0  0  0  0  0  0  0  0  0  0  # atno 8009 bound_to 7997
  155.7818  140.3458  155.5304 H   0  0  0  0  0  0  0  0  0  0  0  0  # atno 8010 bound_to 7997
  139.7685  144.6930  151.0190 H   0  0  0  0  0  0  0  0  0  0  0  0  # atno 10167 bound_to 10162
  157.6028  130.9151  149.9824 H   0  0  0  0  0  0  0  0  0  0  0  0  # atno 10718 bound_to 10713
  153.9255  135.2996  155.3447 H   0  0  0  0  0  0  0  0  0  0  0  0  # atno 10763 bound_to 10752
  154.7554  135.4960  153.9368 H   0  0  0  0  0  0  0  0  0  0  0  0  # atno 10764 bound_to 10752
  153.1119  135.6761  153.9589 H   0  0  0  0  0  0  0  0  0  0  0  0  # atno 10765 bound_to 10752
  140.4249  134.1480  155.7675 H   0  0  0  0  0  0  0  0  0  0  0  0  # atno 11005 bound_to 11000
  146.3484  139.9697  142.8707 LP  0  0  0  0  0  0  0  0  0  0  0  0  # atno 17320 bound_to 7965
  145.1904  140.9809  143.4214 LP  0  0  0  0  0  0  0  0  0  0  0  0  # atno 17321 bound_to 7965
  140.7812  143.4615  151.0271 LP  0  0  0  0  0  0  0  0  0  0  0  0  # atno 17342 bound_to 10162
  139.8300  143.7704  152.3179 LP  0  0  0  0  0  0  0  0  0  0  0  0  # atno 17343 bound_to 10162
  156.1106  130.3650  150.0055 LP  0  0  0  0  0  0  0  0  0  0  0  0  # atno 17370 bound_to 10713
  156.8154  130.9340  151.3643 LP  0  0  0  0  0  0  0  0  0  0  0  0  # atno 17371 bound_to 10713
  141.1769  133.8495  157.1391 LP  0  0  0  0  0  0  0  0  0  0  0  0  # atno 17394 bound_to 11000
  140.0174  134.9961  157.0522 LP  0  0  0  0  0  0  0  0  0  0  0  0  # atno 17395 bound_to 11000

$$$$
