AV-unprocessed.smi:2923|AV-procd|sdf|11206|dock2
  -GOLD-   2272016 93D 1   1.00000     0.00000
 Structure written by MMmdl.
 47 49  0  0  0  0  0  0  0  0  2 V2000
  144.7329  131.5060  150.8406 C   0  0  0  0  0  0  0  0  0  0  0  0
  144.3572  132.7865  150.2517 N   0  0  0  0  0  0  0  0  0  0  0  0
  143.7152  132.8356  148.9445 C   0  0  0  0  0  0  0  0  0  0  0  0
  144.5953  133.9827  150.9627 C   0  0  0  0  0  0  0  0  0  0  0  0
  145.7581  134.2051  151.7399 C   0  0  0  0  0  0  0  0  0  0  0  0
  145.9222  135.4277  152.4223 C   0  0  0  0  0  0  0  0  0  0  0  0
  144.9283  136.4245  152.3325 C   0  0  0  0  0  0  0  0  0  0  0  0
  145.1532  137.6380  153.0401 N   0  0  0  0  0  0  0  0  0  0  0  0
  145.9236  137.8662  154.1181 C   0  0  0  0  0  0  0  0  0  0  0  0
  146.6037  137.0249  154.7039 O   0  0  0  0  0  0  0  0  0  0  0  0
  145.8617  139.1519  154.4881 N   0  0  0  0  0  0  0  0  0  0  0  0
  146.5763  139.7346  155.6255 C   0  0  2  0  0  0  0  0  0  0  0  0
  146.3587  141.2592  155.7700 C   0  0  2  0  0  0  0  0  0  0  0  0
  145.3106  142.0215  154.9955 C   0  0  0  0  0  0  0  0  0  0  0  0
  146.1048  142.5878  153.8152 C   0  0  0  0  0  0  0  0  0  0  0  0
  147.2605  141.7574  153.7221 O   0  0  0  0  0  0  0  0  0  0  0  0
  147.6832  141.4526  155.0493 C   0  0  2  0  0  0  0  0  0  0  0  0
  148.0775  139.9871  155.3261 C   0  0  0  0  0  0  0  0  0  0  0  0
  148.9971  139.8087  156.5382 C   0  0  0  0  0  0  0  0  0  0  0  0
  148.7379  139.2262  154.1682 C   0  0  0  0  0  0  0  0  0  0  0  0
  143.7863  136.1563  151.5397 C   0  0  0  0  0  0  0  0  0  0  0  0
  143.6700  134.9711  150.9022 N   0  3  0  0  0  0  0  0  0  0  0  0
  144.1899  131.3394  151.7715 H   0  0  0  0  0  0  0  0  0  0  0  0
  145.8024  131.4792  151.0522 H   0  0  0  0  0  0  0  0  0  0  0  0
  144.5060  130.6777  150.1689 H   0  0  0  0  0  0  0  0  0  0  0  0
  144.3160  133.4164  148.2440 H   0  0  0  0  0  0  0  0  0  0  0  0
  142.7272  133.2910  149.0191 H   0  0  0  0  0  0  0  0  0  0  0  0
  143.5898  131.8365  148.5264 H   0  0  0  0  0  0  0  0  0  0  0  0
  146.5312  133.4561  151.8254 H   0  0  0  0  0  0  0  0  0  0  0  0
  146.8107  135.5941  153.0139 H   0  0  0  0  0  0  0  0  0  0  0  0
  144.6761  138.4460  152.6677 H   0  0  0  0  0  0  0  0  0  0  0  0
  145.2758  139.7778  153.9548 H   0  0  0  0  0  0  0  0  0  0  0  0
  146.4242  139.1978  156.5637 H   0  0  0  0  0  0  0  0  0  0  0  0
  146.4356  141.5620  156.8155 H   0  0  0  0  0  0  0  0  0  0  0  0
  144.4993  141.3791  154.6551 H   0  0  0  0  0  0  0  0  0  0  0  0
  144.8629  142.8214  155.5857 H   0  0  0  0  0  0  0  0  0  0  0  0
  145.5349  142.5877  152.8859 H   0  0  0  0  0  0  0  0  0  0  0  0
  146.4197  143.6117  154.0229 H   0  0  0  0  0  0  0  0  0  0  0  0
  148.3246  142.2172  155.4905 H   0  0  0  0  0  0  0  0  0  0  0  0
  149.9889  140.2229  156.3537 H   0  0  0  0  0  0  0  0  0  0  0  0
  149.1206  138.7562  156.7954 H   0  0  0  0  0  0  0  0  0  0  0  0
  148.6009  140.3104  157.4216 H   0  0  0  0  0  0  0  0  0  0  0  0
  149.7638  139.5577  154.0053 H   0  0  0  0  0  0  0  0  0  0  0  0
  148.2105  139.3698  153.2250 H   0  0  0  0  0  0  0  0  0  0  0  0
  148.7661  138.1535  154.3625 H   0  0  0  0  0  0  0  0  0  0  0  0
  142.9602  136.8312  151.3785 H   0  0  0  0  0  0  0  0  0  0  0  0
  142.8331  134.8118  150.3409 H   0  0  0  0  0  0  0  0  0  0  0  0
  1  2  1  0  0  0  0
  1 23  1  0  0  0  0
  1 24  1  0  0  0  0
  1 25  1  0  0  0  0
  2  3  1  0  0  0  0
  2  4  1  0  0  0  0
  3 26  1  0  0  0  0
  3 27  1  0  0  0  0
  3 28  1  0  0  0  0
  4 22  1  0  0  0  0
  4  5  2  0  0  0  0
  5  6  1  0  0  0  0
  5 29  1  0  0  0  0
  6  7  2  0  0  0  0
  6 30  1  0  0  0  0
  7  8  1  0  0  0  0
  7 21  1  0  0  0  0
  8  9  1  0  0  0  0
  8 31  1  0  0  0  0
  9 10  2  0  0  0  0
  9 11  1  0  0  0  0
 11 12  1  0  0  0  0
 11 32  1  0  0  0  0
 12 18  1  0  0  0  0
 12 13  1  0  0  0  0
 12 33  1  0  0  0  0
 13 17  1  0  0  0  0
 13 14  1  0  0  0  0
 13 34  1  0  0  0  0
 14 15  1  0  0  0  0
 14 35  1  0  0  0  0
 14 36  1  0  0  0  0
 15 16  1  0  0  0  0
 15 37  1  0  0  0  0
 15 38  1  0  0  0  0
 16 17  1  0  0  0  0
 17 18  1  0  0  0  0
 17 39  1  0  0  0  0
 18 19  1  0  0  0  0
 18 20  1  0  0  0  0
 19 40  1  0  0  0  0
 19 41  1  0  0  0  0
 19 42  1  0  0  0  0
 20 43  1  0  0  0  0
 20 44  1  0  0  0  0
 20 45  1  0  0  0  0
 21 22  2  0  0  0  0
 21 46  1  0  0  0  0
 22 47  1  0  0  0  0
M  CHG  1  22   1
M  END
> <s_m_source_file>
AV-unprocessed.smi

> <i_m_source_file_index>
2923

> <i_lp_mmshare_version>
43012

> <i_f3d_flags>
0

> <s_epik_input>
W0NIM11OKFtDSDNdKWMxW2NIXVtjSF1jKFtjSF1uMSlbTkhdQyg9TylbTkhdW0NASF0yQyhbQ0gzXSkoW0NIM10pW0NAQEhdKFtDQEhdMjMpT1tDSDJdW0NIMl0z

> <s_epik_cmdline>
J2VwaWtfcHl0aG9uJywgJy1waCcsICc3LjAnLCAnLXRuJywgJzgnLCAnLW1hJywgJzIwMCcsICctbWV0YWxfYmluZGluZycsICctaW1hZScsICc8aW5maWxlLm1hZT4nLCAnLW9tYWUnLCAnPG91dGZpbGUubWFlPic=

> <r_lp_tautomer_probability>
0.999994

> <r_epik_Ionization_Penalty>
0.252205

> <r_epik_Ionization_Penalty_Charging>
0.252185

> <r_epik_Ionization_Penalty_Neutral>
1.99479e-05

> <r_epik_State_Penalty>
0.243573

> <r_epik_Charging_Adjusted_Penalty>
0.495758

> <i_epik_Tot_Q>
1

> <i_epik_Tot_abs_Q>
1

> <r_epik_Metal_State_Penalty>
0.534372

> <b_epik_Metal_Only>
0

> <s_lp_Force_Field>
OPLS_2005

> <r_lp_Energy>
46.9132

> <b_lp_Chiralities_Consistent>
1

> <s_lp_Variant>
AV-unprocessed.smi:2923-5

> <Gold.Version>
5.8.1

> <Gold.Id.Protein>
6NUR|6NUR_protein|mol2

> <Gold.PLP.Fitness>
36.5177

> <Gold.PLP.PLP>
-29.0752

> <Gold.PLP.part.hbond>
-1.8280

> <Gold.PLP.part.metal>
0.0000

> <Gold.PLP.part.buried>
-2.8538

> <Gold.PLP.part.nonpolar>
-25.2509

> <Gold.PLP.part.repulsive>
0.2628

> <Gold.PLP.ligand.clash>
0.0000

> <Gold.PLP.ligand.torsion>
0.8117

> <Gold.PLP.Chemscore.Hbond>
2.9588

> <Gold.PLP.Chemscore.CHOScore>
0.0000

> <Gold.PLP.Chemscore.Metal>
0.0000

> <Gold.Chemscore.Hbonds>
donor molecule, donor type, donor heavy atom, donor atom, acceptor molecule, acceptor atom, score
      L1  H     8    31       P1 10175  0.46
      L1  H    11    32       P1 10175  0.37
      L1  H    22    47       P1 10186  2.00

> <Gold.PLP.Chemscore.Internal.Correction>
0.1896

> <Gold.Rescore>
     Score         DG    S(hbond)    S(metal)    S(lipo)     H(rot)  DE(clash)    DE(int)     intcor
     14.79     -18.52       2.08        0.00      73.99       1.00       1.88       1.85       ----

> <Gold.Chemscore.Fitness>
14.7886

> <Gold.Chemscore.DG>
-18.5244

> <Gold.Chemscore.ZeroCoef>
-5.4800

> <Gold.Chemscore.Hbond>
2.0802

> <Gold.Chemscore.Metal>
0.0000

> <Gold.Chemscore.Lipo>
73.9865

> <Gold.Chemscore.Internal_Hbond>
0.0000

> <Gold.Chemscore.DEClash>
1.8840

> <Gold.Chemscore.DEInternal>
1.8518

> <Gold.Chemscore.Rot>
1.0000

> <Gold.Chemscore.Internal.Correction>
   9.000000E+99

> <Gold.Chemscore.Hbonds>
donor molecule, donor type, donor heavy atom, donor atom, acceptor molecule, acceptor atom, score
      L1  H     8    31       P1 10175  0.46
      L1  H    11    32       P1 10175  0.37
      L1  H    22    47       P1 10186  0.29

> <Gold.Chemscore.Hbond.Weighted>
-6.9480

> <Gold.Chemscore.Metal.Weighted>
-0.0000

> <Gold.Chemscore.Lipo.Weighted>
-8.6564

> <Gold.Chemscore.Internal_Hbond.Weighted>
0.0000

> <Gold.Chemscore.DEClash.Weighted>
1.8840

> <Gold.Chemscore.DEInternal.Weighted>
1.8518

> <Gold.Chemscore.Rot.Weighted>
2.5600

> <Gold.Chemscore.Internal.Correction.Weighted>
   9.000000E+99

> <Gold.Protein.RotatedTorsions>
[ 6907 6896 6895 6894 ] final  -44.76 input  -60.11 | X-H torsion
[ 7974 7965 7964 7962 ] final  -22.87 input  175.53 | X-H torsion
[ 8008 7997 7996 7995 ] final  113.33 input   59.86 | X-H torsion
[ 10167 10162 10161 10158 ] final   64.18 input  -65.29 | X-H torsion
[ 10718 10713 10712 10709 ] final  168.87 input   66.30 | X-H torsion
[ 10763 10752 10751 10750 ] final  -83.47 input  -60.55 | X-H torsion
[ 11005 11000 10999 10996 ] final   79.77 input  -57.11 | X-H torsion

> <Gold.Protein.ActiveResidues>
 VAL166  LYS551  ARG553  GLY616  TRP617  ASP618  TYR619  PRO620  LYS621  CYS622 
 ASP623  PHE694  ASN695  SER759  ASP760  ASP761  ALA762  ILE779  LEU786  VAL792 
 PHE793  MET794  SER795  GLU796  ALA797  LYS798  CYS799  TRP800  GLU811  SER814 

> <Gold.Protein.RotatedAtoms>
  150.9293  134.8709  159.7540 H   0  0  0  0  0  0  0  0  0  0  0  0  # atno 6907 bound_to 6896
  152.5030  134.4103  159.9456 H   0  0  0  0  0  0  0  0  0  0  0  0  # atno 6908 bound_to 6896
  151.4131  133.3681  159.2781 H   0  0  0  0  0  0  0  0  0  0  0  0  # atno 6909 bound_to 6896
  146.1650  140.4538  142.8556 H   0  0  0  0  0  0  0  0  0  0  0  0  # atno 7974 bound_to 7965
  156.2251  140.2982  156.0046 H   0  0  0  0  0  0  0  0  0  0  0  0  # atno 8008 bound_to 7997
  155.2379  140.0421  157.2988 H   0  0  0  0  0  0  0  0  0  0  0  0  # atno 8009 bound_to 7997
  154.5902  140.2399  155.7939 H   0  0  0  0  0  0  0  0  0  0  0  0  # atno 8010 bound_to 7997
  140.1250  144.4696  150.6898 H   0  0  0  0  0  0  0  0  0  0  0  0  # atno 10167 bound_to 10162
  157.0308  131.0259  151.2745 H   0  0  0  0  0  0  0  0  0  0  0  0  # atno 10718 bound_to 10713
  154.5881  135.5555  153.7251 H   0  0  0  0  0  0  0  0  0  0  0  0  # atno 10763 bound_to 10752
  153.0106  135.6336  154.1888 H   0  0  0  0  0  0  0  0  0  0  0  0  # atno 10764 bound_to 10752
  154.1829  135.2886  155.3026 H   0  0  0  0  0  0  0  0  0  0  0  0  # atno 10765 bound_to 10752
  139.9160  134.7868  156.1822 H   0  0  0  0  0  0  0  0  0  0  0  0  # atno 11005 bound_to 11000
  144.8080  140.6334  143.6434 LP  0  0  0  0  0  0  0  0  0  0  0  0  # atno 17320 bound_to 7965
  145.4491  139.1526  143.3928 LP  0  0  0  0  0  0  0  0  0  0  0  0  # atno 17321 bound_to 7965
  140.6850  143.2345  151.5284 LP  0  0  0  0  0  0  0  0  0  0  0  0  # atno 17342 bound_to 10162
  139.5549  144.2301  152.1595 LP  0  0  0  0  0  0  0  0  0  0  0  0  # atno 17343 bound_to 10162
  157.5179  130.7979  149.7776 LP  0  0  0  0  0  0  0  0  0  0  0  0  # atno 17370 bound_to 10713
  156.0070  130.3851  150.2396 LP  0  0  0  0  0  0  0  0  0  0  0  0  # atno 17371 bound_to 10713
  141.0635  133.6830  156.1999 LP  0  0  0  0  0  0  0  0  0  0  0  0  # atno 17394 bound_to 11000
  140.6622  134.4956  157.5584 LP  0  0  0  0  0  0  0  0  0  0  0  0  # atno 17395 bound_to 11000

$$$$
