AV-unprocessed.smi:1762|AV-procd|sdf|7108|dock2
  -GOLD-   22720 8333D 1   1.00000     0.00000
 Structure written by MMmdl.
 53 54  0  0  0  0  0  0  0  0  2 V2000
  142.7467  143.1419  157.8623 C   0  0  0  0  0  0  0  0  0  0  0  0
  143.8388  143.6956  156.9399 C   0  0  1  0  0  0  0  0  0  0  0  0
  144.8285  142.6065  156.4824 C   0  0  0  0  0  0  0  0  0  0  0  0
  145.8356  143.1124  155.5417 N   0  0  0  0  0  0  0  0  0  0  0  0
  146.8168  142.0721  155.1227 C   0  0  1  0  0  0  0  0  0  0  0  0
  147.6545  141.5178  156.2994 C   0  0  0  0  0  0  0  0  0  0  0  0
  147.1166  140.8639  157.1937 O   0  0  0  0  0  0  0  0  0  0  0  0
  148.9646  141.8116  156.3003 N   0  0  0  0  0  0  0  0  0  0  0  0
  149.9070  141.4024  157.3345 C   0  0  0  0  0  0  0  0  0  0  0  0
  151.3012  142.0074  157.0982 C   0  0  0  0  0  0  0  0  0  0  0  0
  151.5544  143.2224  157.9688 C   0  0  0  0  0  0  0  0  0  0  0  0
  152.4787  143.1998  159.0359 C   0  0  0  0  0  0  0  0  0  0  0  0
  152.6730  144.3667  159.8042 C   0  0  0  0  0  0  0  0  0  0  0  0
  151.9412  145.5303  159.4888 C   0  0  0  0  0  0  0  0  0  0  0  0
  151.0328  145.4978  158.4111 C   0  0  0  0  0  0  0  0  0  0  0  0
  150.8742  144.3603  157.6990 N   0  3  0  0  0  0  0  0  0  0  0  0
  146.2183  140.9026  154.2708 C   0  0  0  0  0  0  0  0  0  0  0  0
  145.6058  139.7662  155.1131 C   0  0  0  0  0  0  0  0  0  0  0  0
  147.2063  140.3290  153.2351 C   0  0  0  0  0  0  0  0  0  0  0  0
  145.1381  143.7741  154.4251 C   0  0  0  0  0  0  0  0  0  0  0  0
  144.1431  144.8514  154.8976 C   0  0  1  0  0  0  0  0  0  0  0  0
  143.3603  145.4711  153.7347 C   0  0  0  0  0  0  0  0  0  0  0  0
  143.2118  144.2657  155.7982 O   0  0  0  0  0  0  0  0  0  0  0  0
  143.1780  142.7070  158.7642 H   0  0  0  0  0  0  0  0  0  0  0  0
  142.1624  142.3682  157.3634 H   0  0  0  0  0  0  0  0  0  0  0  0
  142.0604  143.9311  158.1702 H   0  0  0  0  0  0  0  0  0  0  0  0
  144.3802  144.4783  157.4742 H   0  0  0  0  0  0  0  0  0  0  0  0
  145.3014  142.2150  157.3806 H   0  0  0  0  0  0  0  0  0  0  0  0
  144.2795  141.7795  156.0286 H   0  0  0  0  0  0  0  0  0  0  0  0
  147.5333  142.5718  154.4670 H   0  0  0  0  0  0  0  0  0  0  0  0
  149.3301  142.3560  155.5322 H   0  0  0  0  0  0  0  0  0  0  0  0
  149.5269  141.6900  158.3164 H   0  0  0  0  0  0  0  0  0  0  0  0
  149.9648  140.3137  157.3308 H   0  0  0  0  0  0  0  0  0  0  0  0
  152.0719  141.2609  157.2951 H   0  0  0  0  0  0  0  0  0  0  0  0
  151.4162  142.2966  156.0527 H   0  0  0  0  0  0  0  0  0  0  0  0
  153.0338  142.3012  159.2634 H   0  0  0  0  0  0  0  0  0  0  0  0
  153.3754  144.3697  160.6251 H   0  0  0  0  0  0  0  0  0  0  0  0
  152.0756  146.4343  160.0646 H   0  0  0  0  0  0  0  0  0  0  0  0
  150.4332  146.3408  158.0994 H   0  0  0  0  0  0  0  0  0  0  0  0
  145.4147  141.3135  153.6621 H   0  0  0  0  0  0  0  0  0  0  0  0
  146.3628  139.2251  155.6802 H   0  0  0  0  0  0  0  0  0  0  0  0
  145.1005  139.0411  154.4748 H   0  0  0  0  0  0  0  0  0  0  0  0
  144.8664  140.1433  155.8197 H   0  0  0  0  0  0  0  0  0  0  0  0
  148.0212  139.7780  153.7056 H   0  0  0  0  0  0  0  0  0  0  0  0
  147.6436  141.1216  152.6273 H   0  0  0  0  0  0  0  0  0  0  0  0
  146.7010  139.6404  152.5575 H   0  0  0  0  0  0  0  0  0  0  0  0
  145.8399  144.2698  153.7556 H   0  0  0  0  0  0  0  0  0  0  0  0
  144.6116  143.0273  153.8279 H   0  0  0  0  0  0  0  0  0  0  0  0
  144.6849  145.6455  155.4143 H   0  0  0  0  0  0  0  0  0  0  0  0
  144.0308  145.9487  153.0201 H   0  0  0  0  0  0  0  0  0  0  0  0
  142.6643  146.2295  154.0944 H   0  0  0  0  0  0  0  0  0  0  0  0
  142.7830  144.7162  153.2003 H   0  0  0  0  0  0  0  0  0  0  0  0
  150.2117  144.3599  156.9231 H   0  0  0  0  0  0  0  0  0  0  0  0
  1  2  1  0  0  0  0
  1 24  1  0  0  0  0
  1 25  1  0  0  0  0
  1 26  1  0  0  0  0
  2 23  1  0  0  0  0
  2  3  1  0  0  0  0
  2 27  1  0  0  0  0
  3  4  1  0  0  0  0
  3 28  1  0  0  0  0
  3 29  1  0  0  0  0
  4  5  1  0  0  0  0
  4 20  1  0  0  0  0
  5  6  1  0  0  0  0
  5 17  1  0  0  0  0
  5 30  1  0  0  0  0
  6  7  2  0  0  0  0
  6  8  1  0  0  0  0
  8  9  1  0  0  0  0
  8 31  1  0  0  0  0
  9 10  1  0  0  0  0
  9 32  1  0  0  0  0
  9 33  1  0  0  0  0
 10 11  1  0  0  0  0
 10 34  1  0  0  0  0
 10 35  1  0  0  0  0
 11 16  1  0  0  0  0
 11 12  2  0  0  0  0
 12 13  1  0  0  0  0
 12 36  1  0  0  0  0
 13 14  2  0  0  0  0
 13 37  1  0  0  0  0
 14 15  1  0  0  0  0
 14 38  1  0  0  0  0
 15 16  2  0  0  0  0
 15 39  1  0  0  0  0
 16 53  1  0  0  0  0
 17 18  1  0  0  0  0
 17 19  1  0  0  0  0
 17 40  1  0  0  0  0
 18 41  1  0  0  0  0
 18 42  1  0  0  0  0
 18 43  1  0  0  0  0
 19 44  1  0  0  0  0
 19 45  1  0  0  0  0
 19 46  1  0  0  0  0
 20 21  1  0  0  0  0
 20 47  1  0  0  0  0
 20 48  1  0  0  0  0
 21 22  1  0  0  0  0
 21 23  1  0  0  0  0
 21 49  1  0  0  0  0
 22 50  1  0  0  0  0
 22 51  1  0  0  0  0
 22 52  1  0  0  0  0
M  CHG  1  16   1
M  END
> <s_m_source_file>
AV-unprocessed.smi

> <i_m_source_file_index>
1762

> <i_lp_mmshare_version>
43012

> <i_f3d_flags>
0

> <s_epik_input>
W0NIM11bQ0BASF0xW0NIMl1OKFtDSDJdW0NASF0oTzEpW0NIM10pW0NAQEhdKFtDSF0oW0NIM10pW0NIM10pQyg9TylbTkhdW0NIMl1bQ0gyXWMyW2NIXVtjSF1bY0hdW2NIXW4y

> <s_epik_cmdline>
J2VwaWtfcHl0aG9uJywgJy1waCcsICc3LjAnLCAnLXRuJywgJzgnLCAnLW1hJywgJzIwMCcsICctbWV0YWxfYmluZGluZycsICctaW1hZScsICc8aW5maWxlLm1hZT4nLCAnLW9tYWUnLCAnPG91dGZpbGUubWFlPic=

> <r_epik_Ionization_Penalty>
1.86475

> <r_epik_Ionization_Penalty_Charging>
1.85347

> <r_epik_Ionization_Penalty_Neutral>
0.0112771

> <r_epik_State_Penalty>
1.99714

> <r_epik_Charging_Adjusted_Penalty>
3.85061

> <i_epik_Tot_Q>
1

> <i_epik_Tot_abs_Q>
1

> <r_epik_Metal_State_Penalty>
2.02271

> <b_epik_Metal_Only>
0

> <s_lp_Force_Field>
OPLS_2005

> <r_lp_Energy>
32.1869

> <b_lp_Chiralities_Consistent>
1

> <s_lp_Variant>
AV-unprocessed.smi:1762-10

> <Gold.Version>
5.8.1

> <Gold.Id.Protein>
6NUR|6NUR_protein|mol2

> <Gold.PLP.Fitness>
41.3776

> <Gold.PLP.PLP>
-36.7158

> <Gold.PLP.part.hbond>
-1.9840

> <Gold.PLP.part.metal>
0.0000

> <Gold.PLP.part.buried>
-4.4347

> <Gold.PLP.part.nonpolar>
-30.6737

> <Gold.PLP.part.repulsive>
0.2986

> <Gold.PLP.ligand.clash>
0.0000

> <Gold.PLP.ligand.torsion>
1.0023

> <Gold.PLP.Chemscore.Hbond>
2.0801

> <Gold.PLP.Chemscore.CHOScore>
0.0000

> <Gold.PLP.Chemscore.Metal>
0.0000

> <Gold.Chemscore.Hbonds>
donor molecule, donor type, donor heavy atom, donor atom, acceptor molecule, acceptor atom, score
      L1  H     8    31       P1  8028  0.02
      L1  H    16    53       P1  8028  2.00

> <Gold.PLP.Chemscore.Internal.Correction>
0.4263

> <Gold.Rescore>
     Score         DG    S(hbond)    S(metal)    S(lipo)     H(rot)  DE(clash)    DE(int)     intcor
     14.18     -18.07       1.06        0.00     114.89       1.72       0.86       3.03       ----

> <Gold.Chemscore.Fitness>
14.1823

> <Gold.Chemscore.DG>
-18.0714

> <Gold.Chemscore.ZeroCoef>
-5.4800

> <Gold.Chemscore.Hbond>
1.0616

> <Gold.Chemscore.Metal>
0.0000

> <Gold.Chemscore.Lipo>
114.8903

> <Gold.Chemscore.Internal_Hbond>
0.0000

> <Gold.Chemscore.DEClash>
0.8561

> <Gold.Chemscore.DEInternal>
3.0330

> <Gold.Chemscore.Rot>
1.7174

> <Gold.Chemscore.Internal.Correction>
   9.000000E+99

> <Gold.Chemscore.Hbonds>
donor molecule, donor type, donor heavy atom, donor atom, acceptor molecule, acceptor atom, score
      L1  H     8    31       P1  8028  0.03
      L1  H    16    53       P1  8028  0.88

> <Gold.Chemscore.Hbond.Weighted>
-3.5458

> <Gold.Chemscore.Metal.Weighted>
-0.0000

> <Gold.Chemscore.Lipo.Weighted>
-13.4422

> <Gold.Chemscore.Internal_Hbond.Weighted>
0.0000

> <Gold.Chemscore.DEClash.Weighted>
0.8561

> <Gold.Chemscore.DEInternal.Weighted>
3.0330

> <Gold.Chemscore.Rot.Weighted>
4.3966

> <Gold.Chemscore.Internal.Correction.Weighted>
   9.000000E+99

> <Gold.Protein.RotatedTorsions>
[ 6907 6896 6895 6894 ] final   51.56 input  -60.11 | X-H torsion
[ 7974 7965 7964 7962 ] final  -99.00 input  175.53 | X-H torsion
[ 8008 7997 7996 7995 ] final  -13.89 input   59.86 | X-H torsion
[ 10167 10162 10161 10158 ] final -112.73 input  -65.29 | X-H torsion
[ 10718 10713 10712 10709 ] final  -36.27 input   66.30 | X-H torsion
[ 10763 10752 10751 10750 ] final   83.51 input  -60.55 | X-H torsion
[ 11005 11000 10999 10996 ] final -148.62 input  -57.11 | X-H torsion

> <Gold.Protein.ActiveResidues>
 VAL166  LYS551  ARG553  GLY616  TRP617  ASP618  TYR619  PRO620  LYS621  CYS622 
 ASP623  PHE694  ASN695  SER759  ASP760  ASP761  ALA762  ILE779  LEU786  VAL792 
 PHE793  MET794  SER795  GLU796  ALA797  LYS798  CYS799  TRP800  GLU811  SER814 

> <Gold.Protein.RotatedAtoms>
  152.3139  134.7463  160.0329 H   0  0  0  0  0  0  0  0  0  0  0  0  # atno 6907 bound_to 6896
  151.7934  133.3356  159.3514 H   0  0  0  0  0  0  0  0  0  0  0  0  # atno 6908 bound_to 6896
  150.7334  134.5751  159.5955 H   0  0  0  0  0  0  0  0  0  0  0  0  # atno 6909 bound_to 6896
  145.3133  140.9405  143.2757 H   0  0  0  0  0  0  0  0  0  0  0  0  # atno 7974 bound_to 7965
  154.5255  140.2237  155.8899 H   0  0  0  0  0  0  0  0  0  0  0  0  # atno 8008 bound_to 7997
  156.1708  140.3122  155.8935 H   0  0  0  0  0  0  0  0  0  0  0  0  # atno 8009 bound_to 7997
  155.3562  140.0458  157.3037 H   0  0  0  0  0  0  0  0  0  0  0  0  # atno 8010 bound_to 7997
  140.1196  143.4455  152.1700 H   0  0  0  0  0  0  0  0  0  0  0  0  # atno 10167 bound_to 10162
  156.3288  130.4276  149.7892 H   0  0  0  0  0  0  0  0  0  0  0  0  # atno 10718 bound_to 10713
  153.1298  135.4688  154.9330 H   0  0  0  0  0  0  0  0  0  0  0  0  # atno 10763 bound_to 10752
  154.7653  135.3143  154.8300 H   0  0  0  0  0  0  0  0  0  0  0  0  # atno 10764 bound_to 10752
  153.8845  135.6891  153.4818 H   0  0  0  0  0  0  0  0  0  0  0  0  # atno 10765 bound_to 10752
  140.7593  134.3317  157.5106 H   0  0  0  0  0  0  0  0  0  0  0  0  # atno 11005 bound_to 11000
  144.8998  139.4664  143.6638 LP  0  0  0  0  0  0  0  0  0  0  0  0  # atno 17320 bound_to 7965
  146.3110  139.7745  142.9020 LP  0  0  0  0  0  0  0  0  0  0  0  0  # atno 17321 bound_to 7965
  139.5576  144.7383  151.4249 LP  0  0  0  0  0  0  0  0  0  0  0  0  # atno 17342 bound_to 10162
  140.6880  143.7929  150.7213 LP  0  0  0  0  0  0  0  0  0  0  0  0  # atno 17343 bound_to 10162
  156.5172  130.8198  151.3190 LP  0  0  0  0  0  0  0  0  0  0  0  0  # atno 17370 bound_to 10713
  157.7426  130.9895  150.2531 LP  0  0  0  0  0  0  0  0  0  0  0  0  # atno 17371 bound_to 10713
  139.8773  134.9192  156.3220 LP  0  0  0  0  0  0  0  0  0  0  0  0  # atno 17394 bound_to 11000
  140.9678  133.7347  156.0492 LP  0  0  0  0  0  0  0  0  0  0  0  0  # atno 17395 bound_to 11000

$$$$
