AV-unprocessed.smi:3046|AV-procd|sdf|11615|dock8
  -GOLD-   2272016593D 1   1.00000     0.00000
 Structure written by MMmdl.
 38 38  0  0  0  0  0  0  0  0  2 V2000
  152.1505  138.0559  154.4722 C   0  0  0  0  0  0  0  0  0  0  0  0
  150.9124  138.2812  154.9363 C   0  0  0  0  0  0  0  0  0  0  0  0
  149.7957  138.9142  154.1296 C   0  0  0  0  0  0  0  0  0  0  0  0
  148.6760  137.9964  153.9584 N   0  0  0  0  0  0  0  0  0  0  0  0
  147.4404  138.1861  154.4470 C   0  0  0  0  0  0  0  0  0  0  0  0
  147.1134  139.1857  155.0879 O   0  0  0  0  0  0  0  0  0  0  0  0
  146.4176  137.0773  154.1660 C   0  0  2  0  0  0  0  0  0  0  0  0
  146.9213  135.7437  154.7390 C   0  0  0  0  0  0  0  0  0  0  0  0
  146.1634  136.9254  152.7140 N   0  3  0  0  0  0  0  0  0  0  0  0
  145.0708  136.0015  152.3204 C   0  0  1  0  0  0  0  0  0  0  0  0
  143.6873  136.5951  152.6364 C   0  0  0  0  0  0  0  0  0  0  0  0
  145.1862  135.6591  150.8219 C   0  0  0  0  0  0  0  0  0  0  0  0
  145.1233  134.2288  150.5763 N   0  0  0  0  0  0  0  0  0  0  0  0
  144.1505  133.5166  149.9063 C   0  0  0  0  0  0  0  0  0  0  0  0
  144.5156  132.2013  149.9386 C   0  0  0  0  0  0  0  0  0  0  0  0
  145.7432  132.2079  150.6582 C   0  0  0  0  0  0  0  0  0  0  0  0
  146.1029  133.4227  151.0408 N   0  0  0  0  0  0  0  0  0  0  0  0
  152.4291  138.3190  153.4620 H   0  0  0  0  0  0  0  0  0  0  0  0
  152.9042  137.6037  155.1001 H   0  0  0  0  0  0  0  0  0  0  0  0
  150.6754  138.0076  155.9545 H   0  0  0  0  0  0  0  0  0  0  0  0
  149.4669  139.8284  154.6263 H   0  0  0  0  0  0  0  0  0  0  0  0
  150.1640  139.2047  153.1453 H   0  0  0  0  0  0  0  0  0  0  0  0
  148.8580  137.1518  153.4354 H   0  0  0  0  0  0  0  0  0  0  0  0
  145.4809  137.3232  154.6692 H   0  0  0  0  0  0  0  0  0  0  0  0
  147.0961  135.8124  155.8135 H   0  0  0  0  0  0  0  0  0  0  0  0
  147.8551  135.4318  154.2690 H   0  0  0  0  0  0  0  0  0  0  0  0
  146.1902  134.9504  154.5792 H   0  0  0  0  0  0  0  0  0  0  0  0
  146.0080  137.8365  152.3057 H   0  0  0  0  0  0  0  0  0  0  0  0
  145.1821  135.0711  152.8794 H   0  0  0  0  0  0  0  0  0  0  0  0
  142.8909  135.9336  152.2939 H   0  0  0  0  0  0  0  0  0  0  0  0
  143.5481  137.5607  152.1485 H   0  0  0  0  0  0  0  0  0  0  0  0
  143.5430  136.7359  153.7072 H   0  0  0  0  0  0  0  0  0  0  0  0
  144.3729  136.1277  150.2662 H   0  0  0  0  0  0  0  0  0  0  0  0
  146.1142  136.0528  150.4033 H   0  0  0  0  0  0  0  0  0  0  0  0
  143.2884  133.9986  149.4687 H   0  0  0  0  0  0  0  0  0  0  0  0
  143.9871  131.3616  149.5119 H   0  0  0  0  0  0  0  0  0  0  0  0
  146.3781  131.3723  150.9136 H   0  0  0  0  0  0  0  0  0  0  0  0
  147.0089  136.5439  152.3133 H   0  0  0  0  0  0  0  0  0  0  0  0
  1  2  2  0  0  0  0
  1 18  1  0  0  0  0
  1 19  1  0  0  0  0
  2  3  1  0  0  0  0
  2 20  1  0  0  0  0
  3  4  1  0  0  0  0
  3 21  1  0  0  0  0
  3 22  1  0  0  0  0
  4  5  1  0  0  0  0
  4 23  1  0  0  0  0
  5  6  2  0  0  0  0
  5  7  1  0  0  0  0
  7  8  1  0  0  0  0
  7  9  1  0  0  0  0
  7 24  1  0  0  0  0
  8 25  1  0  0  0  0
  8 26  1  0  0  0  0
  8 27  1  0  0  0  0
  9 10  1  0  0  0  0
  9 28  1  0  0  0  0
  9 38  1  0  0  0  0
 10 11  1  0  0  0  0
 10 12  1  0  0  0  0
 10 29  1  0  0  0  0
 11 30  1  0  0  0  0
 11 31  1  0  0  0  0
 11 32  1  0  0  0  0
 12 13  1  0  0  0  0
 12 33  1  0  0  0  0
 12 34  1  0  0  0  0
 13 17  1  0  0  0  0
 13 14  1  0  0  0  0
 14 15  2  0  0  0  0
 14 35  1  0  0  0  0
 15 16  1  0  0  0  0
 15 36  1  0  0  0  0
 16 17  2  0  0  0  0
 16 37  1  0  0  0  0
M  CHG  1   9   1
M  END
> <s_m_source_file>
AV-unprocessed.smi

> <i_m_source_file_index>
3046

> <i_lp_mmshare_version>
43012

> <i_f3d_flags>
0

> <s_epik_input>
W0NIMl09W0NIXVtDSDJdW05IXUMoPU8pW0NASF0oW0NIM10pW05IXVtDQEhdKFtDSDNdKVtDSDJdbjFbY0hdW2NIXVtjSF1uMQ==

> <s_epik_cmdline>
J2VwaWtfcHl0aG9uJywgJy1waCcsICc3LjAnLCAnLXRuJywgJzgnLCAnLW1hJywgJzIwMCcsICctbWV0YWxfYmluZGluZycsICctaW1hZScsICc8aW5maWxlLm1hZT4nLCAnLW9tYWUnLCAnPG91dGZpbGUubWFlPic=

> <r_lp_tautomer_probability>
1

> <r_epik_Ionization_Penalty>
0.132961

> <r_epik_Ionization_Penalty_Charging>
0.132956

> <r_epik_Ionization_Penalty_Neutral>
5.00268e-06

> <r_epik_State_Penalty>
0.122332

> <r_epik_Charging_Adjusted_Penalty>
0.255288

> <i_epik_Tot_Q>
1

> <i_epik_Tot_abs_Q>
1

> <r_epik_Metal_State_Penalty>
0.122338

> <b_epik_Metal_Only>
0

> <s_lp_Force_Field>
OPLS_2005

> <r_lp_Energy>
6.26821

> <b_lp_Chiralities_Consistent>
1

> <s_lp_Variant>
AV-unprocessed.smi:3046-3

> <Gold.Version>
5.8.1

> <Gold.Id.Protein>
6NUR|6NUR_protein|mol2

> <Gold.PLP.Fitness>
43.4485

> <Gold.PLP.PLP>
-30.0124

> <Gold.PLP.part.hbond>
-2.0000

> <Gold.PLP.part.metal>
0.0000

> <Gold.PLP.part.buried>
-3.6808

> <Gold.PLP.part.nonpolar>
-24.4576

> <Gold.PLP.part.repulsive>
0.2619

> <Gold.PLP.ligand.clash>
0.0000

> <Gold.PLP.ligand.torsion>
0.8480

> <Gold.PLP.Chemscore.Hbond>
3.0000

> <Gold.PLP.Chemscore.CHOScore>
1.9928

> <Gold.PLP.Chemscore.Metal>
0.0000

> <Gold.Chemscore.Hbonds>
donor molecule, donor type, donor heavy atom, donor atom, acceptor molecule, acceptor atom, score
      L1  H     4    23       P1  7948  1.00
      L1  H     9    38       P1  7948  2.00
      L1  C    14    35       P1 10186  1.00
      L1  C    16    37       P1 10747  0.52

> <Gold.PLP.Chemscore.Internal.Correction>
0.1538

> <Gold.Rescore>
     Score         DG    S(hbond)    S(metal)    S(lipo)     H(rot)  DE(clash)    DE(int)     intcor
     13.72     -14.57       1.98        0.00      70.75       2.26       0.13       0.72       ----

> <Gold.Chemscore.Fitness>
13.7162

> <Gold.Chemscore.DG>
-14.5671

> <Gold.Chemscore.ZeroCoef>
-5.4800

> <Gold.Chemscore.Hbond>
1.9765

> <Gold.Chemscore.Metal>
0.0000

> <Gold.Chemscore.Lipo>
70.7499

> <Gold.Chemscore.Internal_Hbond>
0.0000

> <Gold.Chemscore.DEClash>
0.1293

> <Gold.Chemscore.DEInternal>
0.7217

> <Gold.Chemscore.Rot>
2.2626

> <Gold.Chemscore.Internal.Correction>
   9.000000E+99

> <Gold.Chemscore.Hbonds>
donor molecule, donor type, donor heavy atom, donor atom, acceptor molecule, acceptor atom, score
      L1  H     4    23       P1  7948  0.95
      L1  H     9    38       P1  7948  0.95

> <Gold.Chemscore.Hbond.Weighted>
-6.6016

> <Gold.Chemscore.Metal.Weighted>
-0.0000

> <Gold.Chemscore.Lipo.Weighted>
-8.2777

> <Gold.Chemscore.Internal_Hbond.Weighted>
0.0000

> <Gold.Chemscore.DEClash.Weighted>
0.1293

> <Gold.Chemscore.DEInternal.Weighted>
0.7217

> <Gold.Chemscore.Rot.Weighted>
5.7922

> <Gold.Chemscore.Internal.Correction.Weighted>
   9.000000E+99

> <Gold.Protein.RotatedTorsions>
[ 6907 6896 6895 6894 ] final  -24.90 input  -60.11 | X-H torsion
[ 7974 7965 7964 7962 ] final   84.55 input  175.53 | X-H torsion
[ 8008 7997 7996 7995 ] final  -32.45 input   59.86 | X-H torsion
[ 10167 10162 10161 10158 ] final  115.90 input  -65.29 | X-H torsion
[ 10718 10713 10712 10709 ] final -140.00 input   66.30 | X-H torsion
[ 10763 10752 10751 10750 ] final  179.29 input  -60.55 | X-H torsion
[ 11005 11000 10999 10996 ] final  -44.91 input  -57.11 | X-H torsion

> <Gold.Protein.ActiveResidues>
 VAL166  LYS551  ARG553  GLY616  TRP617  ASP618  TYR619  PRO620  LYS621  CYS622 
 ASP623  PHE694  ASN695  SER759  ASP760  ASP761  ALA762  ILE779  LEU786  VAL792 
 PHE793  MET794  SER795  GLU796  ALA797  LYS798  CYS799  TRP800  GLU811  SER814 

> <Gold.Protein.RotatedAtoms>
  151.1829  135.0369  159.8799 H   0  0  0  0  0  0  0  0  0  0  0  0  # atno 6907 bound_to 6896
  152.5444  134.1042  159.8341 H   0  0  0  0  0  0  0  0  0  0  0  0  # atno 6908 bound_to 6896
  151.1161  133.5090  159.2636 H   0  0  0  0  0  0  0  0  0  0  0  0  # atno 6909 bound_to 6896
  145.5972  139.2347  143.2266 H   0  0  0  0  0  0  0  0  0  0  0  0  # atno 7974 bound_to 7965
  154.4180  140.1737  156.1729 H   0  0  0  0  0  0  0  0  0  0  0  0  # atno 8008 bound_to 7997
  155.9746  140.3383  155.6582 H   0  0  0  0  0  0  0  0  0  0  0  0  # atno 8009 bound_to 7997
  155.6581  140.0698  157.2554 H   0  0  0  0  0  0  0  0  0  0  0  0  # atno 8010 bound_to 7997
  139.6284  144.7111  151.2483 H   0  0  0  0  0  0  0  0  0  0  0  0  # atno 10167 bound_to 10162
  156.3173  130.7514  151.1604 H   0  0  0  0  0  0  0  0  0  0  0  0  # atno 10718 bound_to 10713
  154.5188  135.2792  155.1280 H   0  0  0  0  0  0  0  0  0  0  0  0  # atno 10763 bound_to 10752
  154.2846  135.6279  153.5364 H   0  0  0  0  0  0  0  0  0  0  0  0  # atno 10764 bound_to 10752
  152.9933  135.5659  154.5672 H   0  0  0  0  0  0  0  0  0  0  0  0  # atno 10765 bound_to 10752
  141.0481  133.6753  156.2939 H   0  0  0  0  0  0  0  0  0  0  0  0  # atno 11005 bound_to 11000
  146.1603  140.6798  142.9280 LP  0  0  0  0  0  0  0  0  0  0  0  0  # atno 17320 bound_to 7965
  144.7325  140.4714  143.6927 LP  0  0  0  0  0  0  0  0  0  0  0  0  # atno 17321 bound_to 7965
  140.7425  143.6525  150.8236 LP  0  0  0  0  0  0  0  0  0  0  0  0  # atno 17342 bound_to 10162
  140.0146  143.5606  152.2825 LP  0  0  0  0  0  0  0  0  0  0  0  0  # atno 17343 bound_to 10162
  157.7404  131.0517  150.5167 LP  0  0  0  0  0  0  0  0  0  0  0  0  # atno 17370 bound_to 10713
  156.5315  130.4186  149.6199 LP  0  0  0  0  0  0  0  0  0  0  0  0  # atno 17371 bound_to 10713
  140.6107  134.5461  157.5533 LP  0  0  0  0  0  0  0  0  0  0  0  0  # atno 17394 bound_to 11000
  139.9328  134.7931  156.0883 LP  0  0  0  0  0  0  0  0  0  0  0  0  # atno 17395 bound_to 11000

$$$$
