AV-unprocessed.smi:2789|AV-procd|sdf|10764|dock1
  -GOLD-   2272015193D 1   1.00000     0.00000
 Structure written by MMmdl.
 35 36  0  0  0  0  0  0  0  0  1 V2000
  144.7264  135.3138  155.3930 C   0  0  0  0  0  0  0  0  0  0  0  0
  145.3617  135.9096  154.2736 O   0  0  0  0  0  0  0  0  0  0  0  0
  144.4567  136.3237  153.2533 C   0  0  2  0  0  0  0  0  0  0  0  0
  143.7463  135.0616  152.7585 C   0  0  0  0  0  0  0  0  0  0  0  0
  144.6955  134.4762  151.7179 C   0  0  0  0  0  0  0  0  0  0  0  0
  145.2721  135.6983  151.0024 C   0  0  0  0  0  0  0  0  0  0  0  0
  145.2099  136.8617  152.0115 C   0  0  2  0  0  0  0  0  0  0  0  0
  146.5527  137.3470  152.3240 N   0  0  0  0  0  0  0  0  0  0  0  0
  146.8307  138.4308  153.0618 C   0  0  0  0  0  0  0  0  0  0  0  0
  145.9668  139.1581  153.5523 O   0  0  0  0  0  0  0  0  0  0  0  0
  148.1579  138.5937  153.1980 N   0  0  0  0  0  0  0  0  0  0  0  0
  148.8318  139.5686  153.8644 C   0  0  0  0  0  0  0  0  0  0  0  0
  148.4476  140.8581  154.1143 C   0  0  0  0  0  0  0  0  0  0  0  0
  149.5611  141.3779  154.8340 C   0  0  0  0  0  0  0  0  0  0  0  0
  150.5313  140.4888  155.0040 N   0  0  0  0  0  0  0  0  0  0  0  0
  150.0857  139.3649  154.4019 N   0  0  0  0  0  0  0  0  0  0  0  0
  150.9201  138.1785  154.4060 C   0  0  0  0  0  0  0  0  0  0  0  0
  145.4725  135.0607  156.1460 H   0  0  0  0  0  0  0  0  0  0  0  0
  144.2122  134.3955  155.1070 H   0  0  0  0  0  0  0  0  0  0  0  0
  144.0034  135.9906  155.8487 H   0  0  0  0  0  0  0  0  0  0  0  0
  143.7305  137.0481  153.6279 H   0  0  0  0  0  0  0  0  0  0  0  0
  143.5146  134.3610  153.5614 H   0  0  0  0  0  0  0  0  0  0  0  0
  142.8061  135.3349  152.2775 H   0  0  0  0  0  0  0  0  0  0  0  0
  145.4963  133.9312  152.2190 H   0  0  0  0  0  0  0  0  0  0  0  0
  144.1984  133.7859  151.0358 H   0  0  0  0  0  0  0  0  0  0  0  0
  146.2785  135.5040  150.6291 H   0  0  0  0  0  0  0  0  0  0  0  0
  144.6529  135.9379  150.1370 H   0  0  0  0  0  0  0  0  0  0  0  0
  144.6229  137.6623  151.5568 H   0  0  0  0  0  0  0  0  0  0  0  0
  147.3238  136.8015  151.9685 H   0  0  0  0  0  0  0  0  0  0  0  0
  148.7377  137.8944  152.7581 H   0  0  0  0  0  0  0  0  0  0  0  0
  147.5344  141.3632  153.8382 H   0  0  0  0  0  0  0  0  0  0  0  0
  149.6943  142.3715  155.2361 H   0  0  0  0  0  0  0  0  0  0  0  0
  150.5066  137.4140  153.7484 H   0  0  0  0  0  0  0  0  0  0  0  0
  150.9813  137.7784  155.4183 H   0  0  0  0  0  0  0  0  0  0  0  0
  151.9232  138.4306  154.0608 H   0  0  0  0  0  0  0  0  0  0  0  0
  1  2  1  0  0  0  0
  1 18  1  0  0  0  0
  1 19  1  0  0  0  0
  1 20  1  0  0  0  0
  2  3  1  0  0  0  0
  3  7  1  0  0  0  0
  3  4  1  0  0  0  0
  3 21  1  0  0  0  0
  4  5  1  0  0  0  0
  4 22  1  0  0  0  0
  4 23  1  0  0  0  0
  5  6  1  0  0  0  0
  5 24  1  0  0  0  0
  5 25  1  0  0  0  0
  6  7  1  0  0  0  0
  6 26  1  0  0  0  0
  6 27  1  0  0  0  0
  7  8  1  0  0  0  0
  7 28  1  0  0  0  0
  8  9  1  0  0  0  0
  8 29  1  0  0  0  0
  9 10  2  0  0  0  0
  9 11  1  0  0  0  0
 11 12  1  0  0  0  0
 11 30  1  0  0  0  0
 12 16  1  0  0  0  0
 12 13  2  0  0  0  0
 13 14  1  0  0  0  0
 13 31  1  0  0  0  0
 14 15  2  0  0  0  0
 14 32  1  0  0  0  0
 15 16  1  0  0  0  0
 16 17  1  0  0  0  0
 17 33  1  0  0  0  0
 17 34  1  0  0  0  0
 17 35  1  0  0  0  0
M  END
> <s_m_source_file>
AV-unprocessed.smi

> <i_m_source_file_index>
2789

> <i_lp_mmshare_version>
43012

> <i_f3d_flags>
0

> <s_epik_input>
W0NIM11PW0NAQEhdMVtDSDJdW0NIMl1bQ0gyXVtDQEhdMVtOSF1DKD1PKVtOSF1jMltjSF1bY0hdbm4yW0NIM10=

> <s_epik_cmdline>
J2VwaWtfcHl0aG9uJywgJy1waCcsICc3LjAnLCAnLXRuJywgJzgnLCAnLW1hJywgJzIwMCcsICctbWV0YWxfYmluZGluZycsICctaW1hZScsICc8aW5maWxlLm1hZT4nLCAnLW9tYWUnLCAnPG91dGZpbGUubWFlPic=

> <r_lp_tautomer_probability>
1

> <r_epik_Ionization_Penalty>
4.40608e-05

> <r_epik_Ionization_Penalty_Charging>
0

> <r_epik_Ionization_Penalty_Neutral>
4.40608e-05

> <r_epik_State_Penalty>
-0

> <r_epik_Charging_Adjusted_Penalty>
0

> <i_epik_Tot_Q>
0

> <i_epik_Tot_abs_Q>
0

> <r_epik_Metal_State_Penalty>
-0

> <b_epik_Metal_Only>
0

> <s_lp_Force_Field>
OPLS_2005

> <r_lp_Energy>
23.3685

> <b_lp_Chiralities_Consistent>
1

> <s_lp_Variant>
AV-unprocessed.smi:2789-3

> <Gold.Version>
5.8.1

> <Gold.Id.Protein>
6NUR|6NUR_protein|mol2

> <Gold.PLP.Fitness>
37.4019

> <Gold.PLP.PLP>
-27.1673

> <Gold.PLP.part.hbond>
-4.0000

> <Gold.PLP.part.metal>
0.0000

> <Gold.PLP.part.buried>
-1.7582

> <Gold.PLP.part.nonpolar>
-23.5341

> <Gold.PLP.part.repulsive>
1.8296

> <Gold.PLP.ligand.clash>
0.0000

> <Gold.PLP.ligand.torsion>
0.2239

> <Gold.PLP.Chemscore.Hbond>
2.5500

> <Gold.PLP.Chemscore.CHOScore>
1.0000

> <Gold.PLP.Chemscore.Metal>
0.0000

> <Gold.Chemscore.Hbonds>
donor molecule, donor type, donor heavy atom, donor atom, acceptor molecule, acceptor atom, score
      L1  H     8    29       P1  7948  1.00
      L1  H    11    30       P1  7948  1.00
      P1  H  7989  7998       L1    15  0.55
      L1  C    14    32       P1  8028  1.00

> <Gold.PLP.Chemscore.Internal.Correction>
0.0325

> <Gold.Rescore>
     Score         DG    S(hbond)    S(metal)    S(lipo)     H(rot)  DE(clash)    DE(int)     intcor
     13.08     -14.05       1.96        0.00      45.08       1.27       0.05       0.92       ----

> <Gold.Chemscore.Fitness>
13.0807

> <Gold.Chemscore.DG>
-14.0507

> <Gold.Chemscore.ZeroCoef>
-5.4800

> <Gold.Chemscore.Hbond>
1.9612

> <Gold.Chemscore.Metal>
0.0000

> <Gold.Chemscore.Lipo>
45.0820

> <Gold.Chemscore.Internal_Hbond>
0.0000

> <Gold.Chemscore.DEClash>
0.0451

> <Gold.Chemscore.DEInternal>
0.9249

> <Gold.Chemscore.Rot>
1.2712

> <Gold.Chemscore.Internal.Correction>
   9.000000E+99

> <Gold.Chemscore.Hbonds>
donor molecule, donor type, donor heavy atom, donor atom, acceptor molecule, acceptor atom, score
      L1  H     8    29       P1  7948  0.99
      L1  H    11    30       P1  7948  0.96
      P1  H  7989  7998       L1    15  0.01

> <Gold.Chemscore.Hbond.Weighted>
-6.5505

> <Gold.Chemscore.Metal.Weighted>
-0.0000

> <Gold.Chemscore.Lipo.Weighted>
-5.2746

> <Gold.Chemscore.Internal_Hbond.Weighted>
0.0000

> <Gold.Chemscore.DEClash.Weighted>
0.0451

> <Gold.Chemscore.DEInternal.Weighted>
0.9249

> <Gold.Chemscore.Rot.Weighted>
3.2544

> <Gold.Chemscore.Internal.Correction.Weighted>
   9.000000E+99

> <Gold.Protein.RotatedTorsions>
[ 6907 6896 6895 6894 ] final   51.56 input  -60.11 | X-H torsion
[ 7974 7965 7964 7962 ] final  -28.12 input  175.53 | X-H torsion
[ 8008 7997 7996 7995 ] final  -62.23 input   59.86 | X-H torsion
[ 10167 10162 10161 10158 ] final -163.52 input  -65.29 | X-H torsion
[ 10718 10713 10712 10709 ] final -136.70 input   66.30 | X-H torsion
[ 10763 10752 10751 10750 ] final -161.09 input  -60.55 | X-H torsion
[ 11005 11000 10999 10996 ] final  -82.60 input  -57.11 | X-H torsion

> <Gold.Protein.ActiveResidues>
 VAL166  LYS551  ARG553  GLY616  TRP617  ASP618  TYR619  PRO620  LYS621  CYS622 
 ASP623  PHE694  ASN695  SER759  ASP760  ASP761  ALA762  ILE779  LEU786  VAL792 
 PHE793  MET794  SER795  GLU796  ALA797  LYS798  CYS799  TRP800  GLU811  SER814 

> <Gold.Protein.RotatedAtoms>
  152.3139  134.7463  160.0329 H   0  0  0  0  0  0  0  0  0  0  0  0  # atno 6907 bound_to 6896
  151.7934  133.3356  159.3514 H   0  0  0  0  0  0  0  0  0  0  0  0  # atno 6908 bound_to 6896
  150.7334  134.5751  159.5955 H   0  0  0  0  0  0  0  0  0  0  0  0  # atno 6909 bound_to 6896
  146.1310  140.5241  142.8693 H   0  0  0  0  0  0  0  0  0  0  0  0  # atno 7974 bound_to 7965
  154.4489  140.1000  156.6555 H   0  0  0  0  0  0  0  0  0  0  0  0  # atno 8008 bound_to 7997
  155.5351  140.3482  155.4416 H   0  0  0  0  0  0  0  0  0  0  0  0  # atno 8009 bound_to 7997
  156.0637  140.1332  156.9900 H   0  0  0  0  0  0  0  0  0  0  0  0  # atno 8010 bound_to 7997
  139.6315  144.0431  152.2019 H   0  0  0  0  0  0  0  0  0  0  0  0  # atno 10167 bound_to 10162
  156.2799  130.7314  151.1308 H   0  0  0  0  0  0  0  0  0  0  0  0  # atno 10718 bound_to 10713
  154.7334  135.3051  154.8853 H   0  0  0  0  0  0  0  0  0  0  0  0  # atno 10763 bound_to 10752
  153.9689  135.6744  153.4750 H   0  0  0  0  0  0  0  0  0  0  0  0  # atno 10764 bound_to 10752
  153.0939  135.4945  154.8665 H   0  0  0  0  0  0  0  0  0  0  0  0  # atno 10765 bound_to 10752
  141.1662  133.7252  156.8596 H   0  0  0  0  0  0  0  0  0  0  0  0  # atno 11005 bound_to 11000
  144.7691  140.5597  143.6682 LP  0  0  0  0  0  0  0  0  0  0  0  0  # atno 17320 bound_to 7965
  145.5259  139.1476  143.3526 LP  0  0  0  0  0  0  0  0  0  0  0  0  # atno 17321 bound_to 7965
  140.0098  144.6232  150.7657 LP  0  0  0  0  0  0  0  0  0  0  0  0  # atno 17342 bound_to 10162
  140.7441  143.2856  151.3473 LP  0  0  0  0  0  0  0  0  0  0  0  0  # atno 17343 bound_to 10162
  157.7311  131.0611  150.5694 LP  0  0  0  0  0  0  0  0  0  0  0  0  # atno 17370 bound_to 10713
  156.5799  130.4301  149.5982 LP  0  0  0  0  0  0  0  0  0  0  0  0  # atno 17371 bound_to 10713
  140.1858  134.9001  157.3002 LP  0  0  0  0  0  0  0  0  0  0  0  0  # atno 17394 bound_to 11000
  140.2345  134.3870  155.7507 LP  0  0  0  0  0  0  0  0  0  0  0  0  # atno 17395 bound_to 11000

$$$$
