AV-unprocessed.smi:3184|AV-procd|sdf|12164|dock6
  -GOLD-   2272018 03D 1   1.00000     0.00000
 Structure written by MMmdl.
 34 35  0  0  0  0  0  0  0  0  1 V2000
  149.6605  138.7031  156.5520 C   0  0  0  0  0  0  0  0  0  0  0  0
  150.8255  139.5033  155.9528 C   0  0  1  0  0  0  0  0  0  0  0  0
  150.5777  139.8529  154.4730 C   0  0  0  0  0  0  0  0  0  0  0  0
  149.2055  140.2593  154.2291 N   0  0  0  0  0  0  0  0  0  0  0  0
  148.2170  139.5285  153.5838 C   0  0  0  0  0  0  0  0  0  0  0  0
  147.0879  140.3160  153.5763 C   0  0  0  0  0  0  0  0  0  0  0  0
  147.3566  141.5273  154.2094 N   0  0  0  0  0  0  0  0  0  0  0  0
  148.6286  141.4198  154.5703 C   0  0  0  0  0  0  0  0  0  0  0  0
  151.0275  140.7271  156.7257 N   0  0  0  0  0  0  0  0  0  0  0  0
  151.9941  140.9353  157.6361 C   0  0  0  0  0  0  0  0  0  0  0  0
  152.8018  140.0677  157.9701 O   0  0  0  0  0  0  0  0  0  0  0  0
  152.0101  142.1880  158.1410 N   0  0  0  0  0  0  0  0  0  0  0  0
  151.2839  143.3493  157.6175 C   0  0  0  0  0  0  0  0  0  0  0  0
  151.4749  144.4600  158.6505 C   0  0  0  0  0  0  0  0  0  0  0  0
  152.7728  144.0941  159.3561 C   0  0  0  0  0  0  0  0  0  0  0  0
  152.8071  142.5666  159.3065 C   0  0  0  0  0  0  0  0  0  0  0  0
  149.4982  137.7762  156.0011 H   0  0  0  0  0  0  0  0  0  0  0  0
  148.7311  139.2730  156.5258 H   0  0  0  0  0  0  0  0  0  0  0  0
  149.8596  138.4370  157.5907 H   0  0  0  0  0  0  0  0  0  0  0  0
  151.7188  138.8779  156.0022 H   0  0  0  0  0  0  0  0  0  0  0  0
  151.2309  140.6701  154.1645 H   0  0  0  0  0  0  0  0  0  0  0  0
  150.8137  139.0033  153.8303 H   0  0  0  0  0  0  0  0  0  0  0  0
  148.3953  138.5385  153.1909 H   0  0  0  0  0  0  0  0  0  0  0  0
  146.1109  140.1062  153.1667 H   0  0  0  0  0  0  0  0  0  0  0  0
  149.1555  142.2073  155.0893 H   0  0  0  0  0  0  0  0  0  0  0  0
  150.4067  141.4970  156.5226 H   0  0  0  0  0  0  0  0  0  0  0  0
  151.7201  143.6395  156.6603 H   0  0  0  0  0  0  0  0  0  0  0  0
  150.2248  143.1393  157.4612 H   0  0  0  0  0  0  0  0  0  0  0  0
  151.5014  145.4541  158.2031 H   0  0  0  0  0  0  0  0  0  0  0  0
  150.6529  144.4382  159.3673 H   0  0  0  0  0  0  0  0  0  0  0  0
  153.6178  144.4970  158.7962 H   0  0  0  0  0  0  0  0  0  0  0  0
  152.8280  144.4855  160.3724 H   0  0  0  0  0  0  0  0  0  0  0  0
  152.3486  142.1432  160.2012 H   0  0  0  0  0  0  0  0  0  0  0  0
  153.8316  142.1962  159.2429 H   0  0  0  0  0  0  0  0  0  0  0  0
  1  2  1  0  0  0  0
  1 17  1  0  0  0  0
  1 18  1  0  0  0  0
  1 19  1  0  0  0  0
  2  3  1  0  0  0  0
  2  9  1  0  0  0  0
  2 20  1  0  0  0  0
  3  4  1  0  0  0  0
  3 21  1  0  0  0  0
  3 22  1  0  0  0  0
  4  8  1  0  0  0  0
  4  5  1  0  0  0  0
  5  6  2  0  0  0  0
  5 23  1  0  0  0  0
  6  7  1  0  0  0  0
  6 24  1  0  0  0  0
  7  8  2  0  0  0  0
  8 25  1  0  0  0  0
  9 10  1  0  0  0  0
  9 26  1  0  0  0  0
 10 11  2  0  0  0  0
 10 12  1  0  0  0  0
 12 16  1  0  0  0  0
 12 13  1  0  0  0  0
 13 14  1  0  0  0  0
 13 27  1  0  0  0  0
 13 28  1  0  0  0  0
 14 15  1  0  0  0  0
 14 29  1  0  0  0  0
 14 30  1  0  0  0  0
 15 16  1  0  0  0  0
 15 31  1  0  0  0  0
 15 32  1  0  0  0  0
 16 33  1  0  0  0  0
 16 34  1  0  0  0  0
M  END
> <s_m_source_file>
AV-unprocessed.smi

> <i_m_source_file_index>
3184

> <i_lp_mmshare_version>
43012

> <i_f3d_flags>
0

> <s_epik_input>
W2NIXTFuW2NIXVtjSF1uMVtDSDJdW0NAQEhdKFtDSDNdKVtOSF1DKD1PKU4yW0NIMl1bQ0gyXVtDSDJdW0NIMl0y

> <s_epik_cmdline>
J2VwaWtfcHl0aG9uJywgJy1waCcsICc3LjAnLCAnLXRuJywgJzgnLCAnLW1hJywgJzIwMCcsICctbWV0YWxfYmluZGluZycsICctaW1hZScsICc8aW5maWxlLm1hZT4nLCAnLW9tYWUnLCAnPG91dGZpbGUubWFlPic=

> <r_lp_tautomer_probability>
1

> <r_epik_Ionization_Penalty>
0.625774

> <r_epik_Ionization_Penalty_Charging>
0.625709

> <r_epik_Ionization_Penalty_Neutral>
6.46152e-05

> <r_epik_State_Penalty>
0.642123

> <r_epik_Charging_Adjusted_Penalty>
1.26783

> <i_epik_Tot_Q>
0

> <i_epik_Tot_abs_Q>
0

> <r_epik_Metal_State_Penalty>
0.307922

> <b_epik_Metal_Only>
0

> <s_lp_Force_Field>
OPLS_2005

> <r_lp_Energy>
35.7196

> <b_lp_Chiralities_Consistent>
1

> <s_lp_Variant>
AV-unprocessed.smi:3184-4

> <Gold.Version>
5.8.1

> <Gold.Id.Protein>
6NUR|6NUR_protein|mol2

> <Gold.PLP.Fitness>
39.1982

> <Gold.PLP.PLP>
-30.2572

> <Gold.PLP.part.hbond>
-1.0000

> <Gold.PLP.part.metal>
0.0000

> <Gold.PLP.part.buried>
1.2785

> <Gold.PLP.part.nonpolar>
-30.2733

> <Gold.PLP.part.repulsive>
0.2339

> <Gold.PLP.ligand.clash>
0.0000

> <Gold.PLP.ligand.torsion>
0.6102

> <Gold.PLP.Chemscore.Hbond>
0.9913

> <Gold.PLP.Chemscore.CHOScore>
2.3906

> <Gold.PLP.Chemscore.Metal>
0.0000

> <Gold.Chemscore.Hbonds>
donor molecule, donor type, donor heavy atom, donor atom, acceptor molecule, acceptor atom, score
      P1  H  7997  8008       L1    11  1.00
      L1  C     5    23       P1  7948  0.58
      L1  C     5    23       P1  7957  0.01
      L1  C     6    24       P1 10175  0.95
      L1  C     8    25       P1  8028  0.87

> <Gold.PLP.Chemscore.Internal.Correction>
0.0159

> <Gold.Rescore>
     Score         DG    S(hbond)    S(metal)    S(lipo)     H(rot)  DE(clash)    DE(int)     intcor
     12.43     -13.15       0.94        0.00      73.66       1.60       0.28       0.44       ----

> <Gold.Chemscore.Fitness>
12.4318

> <Gold.Chemscore.DG>
-13.1454

> <Gold.Chemscore.ZeroCoef>
-5.4800

> <Gold.Chemscore.Hbond>
0.9417

> <Gold.Chemscore.Metal>
0.0000

> <Gold.Chemscore.Lipo>
73.6627

> <Gold.Chemscore.Internal_Hbond>
0.0000

> <Gold.Chemscore.DEClash>
0.2753

> <Gold.Chemscore.DEInternal>
0.4383

> <Gold.Chemscore.Rot>
1.6009

> <Gold.Chemscore.Internal.Correction>
   9.000000E+99

> <Gold.Chemscore.Hbonds>
donor molecule, donor type, donor heavy atom, donor atom, acceptor molecule, acceptor atom, score
      P1  H  7997  8008       L1    11  0.82

> <Gold.Chemscore.Hbond.Weighted>
-3.1452

> <Gold.Chemscore.Metal.Weighted>
-0.0000

> <Gold.Chemscore.Lipo.Weighted>
-8.6185

> <Gold.Chemscore.Internal_Hbond.Weighted>
0.0000

> <Gold.Chemscore.DEClash.Weighted>
0.2753

> <Gold.Chemscore.DEInternal.Weighted>
0.4383

> <Gold.Chemscore.Rot.Weighted>
4.0983

> <Gold.Chemscore.Internal.Correction.Weighted>
   9.000000E+99

> <Gold.Protein.RotatedTorsions>
[ 6907 6896 6895 6894 ] final  -44.13 input  -60.11 | X-H torsion
[ 7974 7965 7964 7962 ] final   88.37 input  175.53 | X-H torsion
[ 8008 7997 7996 7995 ] final  -75.18 input   59.86 | X-H torsion
[ 10167 10162 10161 10158 ] final   43.03 input  -65.29 | X-H torsion
[ 10718 10713 10712 10709 ] final  -84.45 input   66.30 | X-H torsion
[ 10763 10752 10751 10750 ] final   92.36 input  -60.55 | X-H torsion
[ 11005 11000 10999 10996 ] final  174.13 input  -57.11 | X-H torsion

> <Gold.Protein.ActiveResidues>
 VAL166  LYS551  ARG553  GLY616  TRP617  ASP618  TYR619  PRO620  LYS621  CYS622 
 ASP623  PHE694  ASN695  SER759  ASP760  ASP761  ALA762  ILE779  LEU786  VAL792 
 PHE793  MET794  SER795  GLU796  ALA797  LYS798  CYS799  TRP800  GLU811  SER814 

> <Gold.Protein.RotatedAtoms>
  150.9363  134.8775  159.7583 H   0  0  0  0  0  0  0  0  0  0  0  0  # atno 6907 bound_to 6896
  152.5060  134.4007  159.9425 H   0  0  0  0  0  0  0  0  0  0  0  0  # atno 6908 bound_to 6896
  151.4030  133.3711  159.2769 H   0  0  0  0  0  0  0  0  0  0  0  0  # atno 6909 bound_to 6896
  145.5466  139.2292  143.2536 H   0  0  0  0  0  0  0  0  0  0  0  0  # atno 7974 bound_to 7965
  154.5394  140.0748  156.8484 H   0  0  0  0  0  0  0  0  0  0  0  0  # atno 8008 bound_to 7997
  155.3211  140.3396  155.4223 H   0  0  0  0  0  0  0  0  0  0  0  0  # atno 8009 bound_to 7997
  156.1860  140.1669  156.8171 H   0  0  0  0  0  0  0  0  0  0  0  0  # atno 8010 bound_to 7997
  140.3484  144.2381  150.6148 H   0  0  0  0  0  0  0  0  0  0  0  0  # atno 10167 bound_to 10162
  156.0006  130.4698  150.4411 H   0  0  0  0  0  0  0  0  0  0  0  0  # atno 10718 bound_to 10713
  153.2183  135.4364  155.0460 H   0  0  0  0  0  0  0  0  0  0  0  0  # atno 10763 bound_to 10752
  154.8237  135.3350  154.6965 H   0  0  0  0  0  0  0  0  0  0  0  0  # atno 10764 bound_to 10752
  153.7398  135.7005  153.5025 H   0  0  0  0  0  0  0  0  0  0  0  0  # atno 10765 bound_to 10752
  140.3480  134.7219  157.4248 H   0  0  0  0  0  0  0  0  0  0  0  0  # atno 11005 bound_to 11000
  146.1945  140.6288  142.9130 LP  0  0  0  0  0  0  0  0  0  0  0  0  # atno 17320 bound_to 7965
  144.7550  140.5285  143.6775 LP  0  0  0  0  0  0  0  0  0  0  0  0  # atno 17321 bound_to 7965
  140.5242  143.2258  151.8341 LP  0  0  0  0  0  0  0  0  0  0  0  0  # atno 17342 bound_to 10162
  139.4830  144.4800  151.9319 LP  0  0  0  0  0  0  0  0  0  0  0  0  # atno 17343 bound_to 10162
  157.2452  131.0534  151.2412 LP  0  0  0  0  0  0  0  0  0  0  0  0  # atno 17370 bound_to 10713
  157.3581  130.7117  149.6484 LP  0  0  0  0  0  0  0  0  0  0  0  0  # atno 17371 bound_to 10713
  140.0726  134.5841  155.8625 LP  0  0  0  0  0  0  0  0  0  0  0  0  # atno 17394 bound_to 11000
  141.2020  133.6622  156.5982 LP  0  0  0  0  0  0  0  0  0  0  0  0  # atno 17395 bound_to 11000

$$$$
