AV-unprocessed.smi:2528|AV-procd|sdf|9954|dock2
  -GOLD-   2272013593D 1   1.00000     0.00000
 Structure written by MMmdl.
 44 46  0  0  0  0  0  0  0  0  2 V2000
  151.1900  140.0770  158.2842 O   0  0  0  0  0  0  0  0  0  0  0  0
  152.3134  139.7195  158.6396 C   0  0  0  0  0  0  0  0  0  0  0  0
  152.9405  138.6509  158.1267 N   0  0  0  0  0  0  0  0  0  0  0  0
  152.3905  137.7825  157.0914 C   0  0  0  0  0  0  0  0  0  0  0  0
  152.6551  138.3429  155.6752 C   0  0  2  0  0  0  0  0  0  0  0  0
  152.1630  139.7905  155.4888 C   0  0  0  0  0  0  0  0  0  0  0  0
  150.6851  139.8541  155.4078 N   0  3  1  0  0  0  0  0  0  0  0  0
  150.1926  141.2481  155.2663 C   0  0  0  0  0  0  0  0  0  0  0  0
  148.6571  141.2979  155.2679 C   0  0  0  0  0  0  0  0  0  0  0  0
  148.0854  140.4033  154.1614 C   0  0  0  0  0  0  0  0  0  0  0  0
  148.6223  138.9743  154.3156 C   0  0  0  0  0  0  0  0  0  0  0  0
  150.1643  138.9509  154.3457 C   0  0  2  0  0  0  0  0  0  0  0  0
  150.6910  137.5205  154.5679 C   0  0  0  0  0  0  0  0  0  0  0  0
  152.1126  137.5172  154.6441 O   0  0  0  0  0  0  0  0  0  0  0  0
  153.0684  140.3320  159.5685 N   0  0  0  0  0  0  0  0  0  0  0  0
  152.7475  141.4792  160.3426 C   0  0  0  0  0  0  0  0  0  0  0  0
  153.2501  141.4702  161.6634 C   0  0  0  0  0  0  0  0  0  0  0  0
  152.9845  142.5612  162.5135 C   0  0  0  0  0  0  0  0  0  0  0  0
  152.2216  143.6347  162.0206 C   0  0  0  0  0  0  0  0  0  0  0  0
  151.7595  143.5654  160.6935 C   0  0  0  0  0  0  0  0  0  0  0  0
  152.0129  142.5207  159.8769 N   0  0  0  0  0  0  0  0  0  0  0  0
  153.8624  138.4260  158.4716 H   0  0  0  0  0  0  0  0  0  0  0  0
  152.8173  136.7875  157.2126 H   0  0  0  0  0  0  0  0  0  0  0  0
  151.3173  137.6630  157.2496 H   0  0  0  0  0  0  0  0  0  0  0  0
  153.7349  138.3505  155.5223 H   0  0  0  0  0  0  0  0  0  0  0  0
  152.5199  140.4167  156.3077 H   0  0  0  0  0  0  0  0  0  0  0  0
  152.5865  140.2025  154.5713 H   0  0  0  0  0  0  0  0  0  0  0  0
  150.5770  141.8552  156.0868 H   0  0  0  0  0  0  0  0  0  0  0  0
  150.5795  141.6812  154.3423 H   0  0  0  0  0  0  0  0  0  0  0  0
  148.2791  140.9715  156.2378 H   0  0  0  0  0  0  0  0  0  0  0  0
  148.3163  142.3246  155.1315 H   0  0  0  0  0  0  0  0  0  0  0  0
  146.9956  140.4043  154.2008 H   0  0  0  0  0  0  0  0  0  0  0  0
  148.3642  140.8000  153.1842 H   0  0  0  0  0  0  0  0  0  0  0  0
  148.2270  138.5374  155.2339 H   0  0  0  0  0  0  0  0  0  0  0  0
  148.2550  138.3545  153.4969 H   0  0  0  0  0  0  0  0  0  0  0  0
  150.5371  139.3100  153.3845 H   0  0  0  0  0  0  0  0  0  0  0  0
  150.2588  137.0754  155.4641 H   0  0  0  0  0  0  0  0  0  0  0  0
  150.3932  136.8813  153.7364 H   0  0  0  0  0  0  0  0  0  0  0  0
  153.9761  139.9291  159.7479 H   0  0  0  0  0  0  0  0  0  0  0  0
  153.8342  140.6371  162.0266 H   0  0  0  0  0  0  0  0  0  0  0  0
  153.3592  142.5726  163.5264 H   0  0  0  0  0  0  0  0  0  0  0  0
  151.9966  144.4884  162.6426 H   0  0  0  0  0  0  0  0  0  0  0  0
  151.1706  144.3686  160.2764 H   0  0  0  0  0  0  0  0  0  0  0  0
  150.3284  139.5072  156.2867 H   0  0  0  0  0  0  0  0  0  0  0  0
  1  2  2  0  0  0  0
  2  3  1  0  0  0  0
  2 15  1  0  0  0  0
  3  4  1  0  0  0  0
  3 22  1  0  0  0  0
  4  5  1  0  0  0  0
  4 23  1  0  0  0  0
  4 24  1  0  0  0  0
  5 14  1  0  0  0  0
  5  6  1  0  0  0  0
  5 25  1  0  0  0  0
  6  7  1  0  0  0  0
  6 26  1  0  0  0  0
  6 27  1  0  0  0  0
  7 12  1  0  0  0  0
  7  8  1  0  0  0  0
  7 44  1  0  0  0  0
  8  9  1  0  0  0  0
  8 28  1  0  0  0  0
  8 29  1  0  0  0  0
  9 10  1  0  0  0  0
  9 30  1  0  0  0  0
  9 31  1  0  0  0  0
 10 11  1  0  0  0  0
 10 32  1  0  0  0  0
 10 33  1  0  0  0  0
 11 12  1  0  0  0  0
 11 34  1  0  0  0  0
 11 35  1  0  0  0  0
 12 13  1  0  0  0  0
 12 36  1  0  0  0  0
 13 14  1  0  0  0  0
 13 37  1  0  0  0  0
 13 38  1  0  0  0  0
 15 16  1  0  0  0  0
 15 39  1  0  0  0  0
 16 21  1  0  0  0  0
 16 17  2  0  0  0  0
 17 18  1  0  0  0  0
 17 40  1  0  0  0  0
 18 19  2  0  0  0  0
 18 41  1  0  0  0  0
 19 20  1  0  0  0  0
 19 42  1  0  0  0  0
 20 21  2  0  0  0  0
 20 43  1  0  0  0  0
M  CHG  1   7   1
M  END
> <s_m_source_file>
AV-unprocessed.smi

> <i_m_source_file_index>
2528

> <i_lp_mmshare_version>
43012

> <i_f3d_flags>
0

> <s_epik_input>
bjFbY0hdW2NIXVtjSF1bY0hdYzFbTkhdQyg9TylbTkhdW0NIMl1bQ0BIXShbQ0gyXTIpT1tDSDJdW0NAQEhdKE4yMylbQ0gyXVtDSDJdW0NIMl1bQ0gyXTM=

> <s_epik_cmdline>
J2VwaWtfcHl0aG9uJywgJy1waCcsICc3LjAnLCAnLXRuJywgJzgnLCAnLW1hJywgJzIwMCcsICctbWV0YWxfYmluZGluZycsICctaW1hZScsICc8aW5maWxlLm1hZT4nLCAnLW9tYWUnLCAnPG91dGZpbGUubWFlPic=

> <r_epik_Ionization_Penalty>
0.0932337

> <r_epik_Ionization_Penalty_Charging>
0.0931942

> <r_epik_Ionization_Penalty_Neutral>
3.9565e-05

> <r_epik_State_Penalty>
0.0834605

> <r_epik_Charging_Adjusted_Penalty>
0.176655

> <i_epik_Tot_Q>
1

> <i_epik_Tot_abs_Q>
1

> <r_epik_Metal_State_Penalty>
0.0834607

> <b_epik_Metal_Only>
0

> <s_lp_Force_Field>
OPLS_2005

> <r_lp_Energy>
28.0782

> <b_lp_Chiralities_Consistent>
1

> <s_lp_Variant>
AV-unprocessed.smi:2528-7

> <Gold.Version>
5.8.1

> <Gold.Id.Protein>
6NUR|6NUR_protein|mol2

> <Gold.PLP.Fitness>
43.4262

> <Gold.PLP.PLP>
-41.7882

> <Gold.PLP.part.hbond>
-1.0000

> <Gold.PLP.part.metal>
0.0000

> <Gold.PLP.part.buried>
-5.5955

> <Gold.PLP.part.nonpolar>
-35.5493

> <Gold.PLP.part.repulsive>
0.3972

> <Gold.PLP.ligand.clash>
0.0000

> <Gold.PLP.ligand.torsion>
0.4340

> <Gold.PLP.Chemscore.Hbond>
0.8320

> <Gold.PLP.Chemscore.CHOScore>
0.0000

> <Gold.PLP.Chemscore.Metal>
0.0000

> <Gold.Chemscore.Hbonds>
donor molecule, donor type, donor heavy atom, donor atom, acceptor molecule, acceptor atom, score
      P1  H 10752 10763       L1    14  0.74

> <Gold.PLP.Chemscore.Internal.Correction>
0.0102

> <Gold.Rescore>
     Score         DG    S(hbond)    S(metal)    S(lipo)     H(rot)  DE(clash)    DE(int)     intcor
     15.33     -16.62       0.82        0.00      99.83       1.29       0.01       1.27       ----

> <Gold.Chemscore.Fitness>
15.3333

> <Gold.Chemscore.DG>
-16.6163

> <Gold.Chemscore.ZeroCoef>
-5.4800

> <Gold.Chemscore.Hbond>
0.8237

> <Gold.Chemscore.Metal>
0.0000

> <Gold.Chemscore.Lipo>
99.8300

> <Gold.Chemscore.Internal_Hbond>
0.0000

> <Gold.Chemscore.DEClash>
0.0149

> <Gold.Chemscore.DEInternal>
1.2681

> <Gold.Chemscore.Rot>
1.2870

> <Gold.Chemscore.Internal.Correction>
   9.000000E+99

> <Gold.Chemscore.Hbonds>
donor molecule, donor type, donor heavy atom, donor atom, acceptor molecule, acceptor atom, score
      P1  H 10752 10763       L1    14  0.60

> <Gold.Chemscore.Hbond.Weighted>
-2.7510

> <Gold.Chemscore.Metal.Weighted>
-0.0000

> <Gold.Chemscore.Lipo.Weighted>
-11.6801

> <Gold.Chemscore.Internal_Hbond.Weighted>
0.0000

> <Gold.Chemscore.DEClash.Weighted>
0.0149

> <Gold.Chemscore.DEInternal.Weighted>
1.2681

> <Gold.Chemscore.Rot.Weighted>
3.2948

> <Gold.Chemscore.Internal.Correction.Weighted>
   9.000000E+99

> <Gold.Protein.RotatedTorsions>
[ 6907 6896 6895 6894 ] final  -46.81 input  -60.11 | X-H torsion
[ 7974 7965 7964 7962 ] final   -9.39 input  175.53 | X-H torsion
[ 8008 7997 7996 7995 ] final  -40.13 input   59.86 | X-H torsion
[ 10167 10162 10161 10158 ] final   49.06 input  -65.29 | X-H torsion
[ 10718 10713 10712 10709 ] final  -28.71 input   66.30 | X-H torsion
[ 10763 10752 10751 10750 ] final   46.46 input  -60.55 | X-H torsion
[ 11005 11000 10999 10996 ] final  -70.48 input  -57.11 | X-H torsion

> <Gold.Protein.ActiveResidues>
 VAL166  LYS551  ARG553  GLY616  TRP617  ASP618  TYR619  PRO620  LYS621  CYS622 
 ASP623  PHE694  ASN695  SER759  ASP760  ASP761  ALA762  ILE779  LEU786  VAL792 
 PHE793  MET794  SER795  GLU796  ALA797  LYS798  CYS799  TRP800  GLU811  SER814 

> <Gold.Protein.RotatedAtoms>
  150.9073  134.8489  159.7401 H   0  0  0  0  0  0  0  0  0  0  0  0  # atno 6907 bound_to 6896
  152.4925  134.4412  159.9554 H   0  0  0  0  0  0  0  0  0  0  0  0  # atno 6908 bound_to 6896
  151.4457  133.3592  159.2823 H   0  0  0  0  0  0  0  0  0  0  0  0  # atno 6909 bound_to 6896
  146.2253  140.2609  142.8351 H   0  0  0  0  0  0  0  0  0  0  0  0  # atno 7974 bound_to 7965
  154.4015  140.1533  156.2976 H   0  0  0  0  0  0  0  0  0  0  0  0  # atno 8008 bound_to 7997
  155.8729  140.3448  155.5812 H   0  0  0  0  0  0  0  0  0  0  0  0  # atno 8009 bound_to 7997
  155.7754  140.0836  157.2077 H   0  0  0  0  0  0  0  0  0  0  0  0  # atno 8010 bound_to 7997
  140.2868  144.3093  150.6250 H   0  0  0  0  0  0  0  0  0  0  0  0  # atno 10167 bound_to 10162
  156.4217  130.4428  149.7179 H   0  0  0  0  0  0  0  0  0  0  0  0  # atno 10718 bound_to 10713
  152.9810  135.6007  154.3603 H   0  0  0  0  0  0  0  0  0  0  0  0  # atno 10763 bound_to 10752
  154.3285  135.2769  155.2486 H   0  0  0  0  0  0  0  0  0  0  0  0  # atno 10764 bound_to 10752
  154.4620  135.5963  153.6318 H   0  0  0  0  0  0  0  0  0  0  0  0  # atno 10765 bound_to 10752
  141.1575  133.6791  156.6758 H   0  0  0  0  0  0  0  0  0  0  0  0  # atno 11005 bound_to 11000
  144.9340  140.8007  143.5671 LP  0  0  0  0  0  0  0  0  0  0  0  0  # atno 17320 bound_to 7965
  145.2555  139.2014  143.4920 LP  0  0  0  0  0  0  0  0  0  0  0  0  # atno 17321 bound_to 7965
  140.5766  143.2176  151.7504 LP  0  0  0  0  0  0  0  0  0  0  0  0  # atno 17342 bound_to 10162
  139.4948  144.4141  152.0049 LP  0  0  0  0  0  0  0  0  0  0  0  0  # atno 17343 bound_to 10162
  156.4117  130.7725  151.2738 LP  0  0  0  0  0  0  0  0  0  0  0  0  # atno 17370 bound_to 10713
  157.7508  131.0209  150.3729 LP  0  0  0  0  0  0  0  0  0  0  0  0  # atno 17371 bound_to 10713
  140.3140  134.8063  157.4199 LP  0  0  0  0  0  0  0  0  0  0  0  0  # atno 17394 bound_to 11000
  140.1154  134.5290  155.8229 LP  0  0  0  0  0  0  0  0  0  0  0  0  # atno 17395 bound_to 11000

$$$$
