AV-unprocessed.smi:1356|AV-procd|sdf|5545|dock2
  -GOLD-   22720 5133D 1   1.00000     0.00000
 Structure written by MMmdl.
 42 43  0  0  0  0  0  0  0  0  2 V2000
  148.9227  131.4955  155.5359 C   0  0  0  0  0  0  0  0  0  0  0  0
  148.5190  132.1898  154.2469 C   0  0  1  0  0  0  0  0  0  0  0  0
  147.3558  133.1521  154.2191 C   0  0  0  0  0  0  0  0  0  0  0  0
  148.7579  133.6661  153.9565 C   0  0  1  0  0  0  0  0  0  0  0  0
  149.3903  134.5436  154.9917 C   0  0  0  0  0  0  0  0  0  0  0  0
  149.6406  134.1727  156.1394 O   0  0  0  0  0  0  0  0  0  0  0  0
  149.6564  135.7840  154.5582 N   0  0  0  0  0  0  0  0  0  0  0  0
  150.2727  136.8238  155.3705 C   0  0  0  0  0  0  0  0  0  0  0  0
  150.3504  138.1478  154.5938 C   0  0  0  0  0  0  0  0  0  0  0  0
  150.8834  139.2836  155.4686 C   0  0  0  0  0  0  0  0  0  0  0  0
  151.9626  139.8129  155.2045 O   0  0  0  0  0  0  0  0  0  0  0  0
  150.1271  139.6364  156.5192 N   0  0  0  0  0  0  0  0  0  0  0  0
  150.4848  140.6443  157.5137 C   0  0  0  0  0  0  0  0  0  0  0  0
  151.0612  141.9344  156.8919 C   0  0  0  0  0  0  0  0  0  0  0  0
  151.4166  143.0010  157.9139 C   0  0  0  0  0  0  0  0  0  0  0  0
  152.2213  142.7227  159.0408 C   0  0  0  0  0  0  0  0  0  0  0  0
  152.5018  143.7547  159.9599 C   0  0  0  0  0  0  0  0  0  0  0  0
  151.9754  145.0430  159.7317 C   0  0  0  0  0  0  0  0  0  0  0  0
  151.1801  145.2662  158.5890 C   0  0  0  0  0  0  0  0  0  0  0  0
  150.9325  144.2507  157.7325 N   0  3  0  0  0  0  0  0  0  0  0  0
  148.6022  132.0567  156.4132 H   0  0  0  0  0  0  0  0  0  0  0  0
  150.0053  131.3729  155.5727 H   0  0  0  0  0  0  0  0  0  0  0  0
  148.4623  130.5087  155.5834 H   0  0  0  0  0  0  0  0  0  0  0  0
  148.6353  131.5446  153.3783 H   0  0  0  0  0  0  0  0  0  0  0  0
  146.6798  133.1090  153.3677 H   0  0  0  0  0  0  0  0  0  0  0  0
  146.8791  133.3953  155.1670 H   0  0  0  0  0  0  0  0  0  0  0  0
  149.0074  133.9034  152.9232 H   0  0  0  0  0  0  0  0  0  0  0  0
  149.4241  136.0182  153.6037 H   0  0  0  0  0  0  0  0  0  0  0  0
  149.6890  136.9580  156.2833 H   0  0  0  0  0  0  0  0  0  0  0  0
  151.2704  136.4980  155.6701 H   0  0  0  0  0  0  0  0  0  0  0  0
  151.0080  138.0384  153.7305 H   0  0  0  0  0  0  0  0  0  0  0  0
  149.3651  138.4105  154.2054 H   0  0  0  0  0  0  0  0  0  0  0  0
  149.2487  139.1560  156.6521 H   0  0  0  0  0  0  0  0  0  0  0  0
  149.6232  140.8758  158.1418 H   0  0  0  0  0  0  0  0  0  0  0  0
  151.2312  140.1959  158.1699 H   0  0  0  0  0  0  0  0  0  0  0  0
  151.9544  141.6958  156.3132 H   0  0  0  0  0  0  0  0  0  0  0  0
  150.3475  142.3484  156.1787 H   0  0  0  0  0  0  0  0  0  0  0  0
  152.6130  141.7289  159.2042 H   0  0  0  0  0  0  0  0  0  0  0  0
  153.1120  143.5597  160.8298 H   0  0  0  0  0  0  0  0  0  0  0  0
  152.1783  145.8479  160.4231 H   0  0  0  0  0  0  0  0  0  0  0  0
  150.7373  146.2186  158.3367 H   0  0  0  0  0  0  0  0  0  0  0  0
  150.3533  144.4350  156.9129 H   0  0  0  0  0  0  0  0  0  0  0  0
  1  2  1  0  0  0  0
  1 21  1  0  0  0  0
  1 22  1  0  0  0  0
  1 23  1  0  0  0  0
  2  4  1  0  0  0  0
  2  3  1  0  0  0  0
  2 24  1  0  0  0  0
  3  4  1  0  0  0  0
  3 25  1  0  0  0  0
  3 26  1  0  0  0  0
  4  5  1  0  0  0  0
  4 27  1  0  0  0  0
  5  6  2  0  0  0  0
  5  7  1  0  0  0  0
  7  8  1  0  0  0  0
  7 28  1  0  0  0  0
  8  9  1  0  0  0  0
  8 29  1  0  0  0  0
  8 30  1  0  0  0  0
  9 10  1  0  0  0  0
  9 31  1  0  0  0  0
  9 32  1  0  0  0  0
 10 11  2  0  0  0  0
 10 12  1  0  0  0  0
 12 13  1  0  0  0  0
 12 33  1  0  0  0  0
 13 14  1  0  0  0  0
 13 34  1  0  0  0  0
 13 35  1  0  0  0  0
 14 15  1  0  0  0  0
 14 36  1  0  0  0  0
 14 37  1  0  0  0  0
 15 20  1  0  0  0  0
 15 16  2  0  0  0  0
 16 17  1  0  0  0  0
 16 38  1  0  0  0  0
 17 18  2  0  0  0  0
 17 39  1  0  0  0  0
 18 19  1  0  0  0  0
 18 40  1  0  0  0  0
 19 20  2  0  0  0  0
 19 41  1  0  0  0  0
 20 42  1  0  0  0  0
M  CHG  1  20   1
M  END
> <s_m_source_file>
AV-unprocessed.smi

> <i_m_source_file_index>
1356

> <i_lp_mmshare_version>
43012

> <i_f3d_flags>
0

> <s_epik_input>
W0NIM11bQ0BASF0xW0NIMl1bQ0BIXTFDKD1PKVtOSF1bQ0gyXVtDSDJdQyg9TylbTkhdW0NIMl1bQ0gyXWMyW2NIXVtjSF1bY0hdW2NIXW4y

> <s_epik_cmdline>
J2VwaWtfcHl0aG9uJywgJy1waCcsICc3LjAnLCAnLXRuJywgJzgnLCAnLW1hJywgJzIwMCcsICctbWV0YWxfYmluZGluZycsICctaW1hZScsICc8aW5maWxlLm1hZT4nLCAnLW9tYWUnLCAnPG91dGZpbGUubWFlPic=

> <r_epik_Ionization_Penalty>
1.86966

> <r_epik_Ionization_Penalty_Charging>
1.86966

> <r_epik_Ionization_Penalty_Neutral>
5.0403e-08

> <r_epik_State_Penalty>
1.98858

> <r_epik_Charging_Adjusted_Penalty>
3.85824

> <i_epik_Tot_Q>
1

> <i_epik_Tot_abs_Q>
1

> <r_epik_Metal_State_Penalty>
2.01347

> <b_epik_Metal_Only>
0

> <s_lp_Force_Field>
OPLS_2005

> <r_lp_Energy>
15.5699

> <b_lp_Chiralities_Consistent>
1

> <s_lp_Variant>
AV-unprocessed.smi:1356-6

> <Gold.Version>
5.8.1

> <Gold.Id.Protein>
6NUR|6NUR_protein|mol2

> <Gold.PLP.Fitness>
56.2355

> <Gold.PLP.PLP>
-44.8012

> <Gold.PLP.part.hbond>
-3.7759

> <Gold.PLP.part.metal>
0.0000

> <Gold.PLP.part.buried>
-5.8573

> <Gold.PLP.part.nonpolar>
-36.2873

> <Gold.PLP.part.repulsive>
0.1960

> <Gold.PLP.ligand.clash>
0.0000

> <Gold.PLP.ligand.torsion>
0.2529

> <Gold.PLP.Chemscore.Hbond>
3.8960

> <Gold.PLP.Chemscore.CHOScore>
0.0000

> <Gold.PLP.Chemscore.Metal>
0.0000

> <Gold.Chemscore.Hbonds>
donor molecule, donor type, donor heavy atom, donor atom, acceptor molecule, acceptor atom, score
      L1  H     7    28       P1  7948  1.00
      L1  H    20    42       P1  8028  2.00
      P1  H  7989  7998       L1    11  0.90

> <Gold.PLP.Chemscore.Internal.Correction>
0.2521

> <Gold.Rescore>
     Score         DG    S(hbond)    S(metal)    S(lipo)     H(rot)  DE(clash)    DE(int)     intcor
     17.67     -20.84       2.78        0.00     102.65       2.31       0.01       3.15       ----

> <Gold.Chemscore.Fitness>
17.6719

> <Gold.Chemscore.DG>
-20.8402

> <Gold.Chemscore.ZeroCoef>
-5.4800

> <Gold.Chemscore.Hbond>
2.7768

> <Gold.Chemscore.Metal>
0.0000

> <Gold.Chemscore.Lipo>
102.6457

> <Gold.Chemscore.Internal_Hbond>
0.0000

> <Gold.Chemscore.DEClash>
0.0133

> <Gold.Chemscore.DEInternal>
3.1549

> <Gold.Chemscore.Rot>
2.3140

> <Gold.Chemscore.Internal.Correction>
   9.000000E+99

> <Gold.Chemscore.Hbonds>
donor molecule, donor type, donor heavy atom, donor atom, acceptor molecule, acceptor atom, score
      L1  H     7    28       P1  7948  0.60
      L1  H    20    42       P1  8028  0.88
      P1  H  7989  7998       L1    11  0.46

> <Gold.Chemscore.Hbond.Weighted>
-9.2744

> <Gold.Chemscore.Metal.Weighted>
-0.0000

> <Gold.Chemscore.Lipo.Weighted>
-12.0095

> <Gold.Chemscore.Internal_Hbond.Weighted>
0.0000

> <Gold.Chemscore.DEClash.Weighted>
0.0133

> <Gold.Chemscore.DEInternal.Weighted>
3.1549

> <Gold.Chemscore.Rot.Weighted>
5.9238

> <Gold.Chemscore.Internal.Correction.Weighted>
   9.000000E+99

> <Gold.Protein.RotatedTorsions>
[ 6907 6896 6895 6894 ] final -103.48 input  -60.11 | X-H torsion
[ 7974 7965 7964 7962 ] final  172.86 input  175.53 | X-H torsion
[ 8008 7997 7996 7995 ] final  -38.18 input   59.86 | X-H torsion
[ 10167 10162 10161 10158 ] final   72.47 input  -65.29 | X-H torsion
[ 10718 10713 10712 10709 ] final   38.07 input   66.30 | X-H torsion
[ 10763 10752 10751 10750 ] final  103.88 input  -60.55 | X-H torsion
[ 11005 11000 10999 10996 ] final  -15.01 input  -57.11 | X-H torsion

> <Gold.Protein.ActiveResidues>
 VAL166  LYS551  ARG553  GLY616  TRP617  ASP618  TYR619  PRO620  LYS621  CYS622 
 ASP623  PHE694  ASN695  SER759  ASP760  ASP761  ALA762  ILE779  LEU786  VAL792 
 PHE793  MET794  SER795  GLU796  ALA797  LYS798  CYS799  TRP800  GLU811  SER814 

> <Gold.Protein.RotatedAtoms>
  150.7242  134.0423  159.3769 H   0  0  0  0  0  0  0  0  0  0  0  0  # atno 6907 bound_to 6896
  151.8396  135.0592  160.0456 H   0  0  0  0  0  0  0  0  0  0  0  0  # atno 6908 bound_to 6896
  152.2872  133.5490  159.5571 H   0  0  0  0  0  0  0  0  0  0  0  0  # atno 6909 bound_to 6896
  144.7257  139.9562  143.6433 H   0  0  0  0  0  0  0  0  0  0  0  0  # atno 7974 bound_to 7965
  154.4041  140.1585  156.2657 H   0  0  0  0  0  0  0  0  0  0  0  0  # atno 8008 bound_to 7997
  155.8997  140.3434  155.5995 H   0  0  0  0  0  0  0  0  0  0  0  0  # atno 8009 bound_to 7997
  155.7462  140.0799  157.2213 H   0  0  0  0  0  0  0  0  0  0  0  0  # atno 8010 bound_to 7997
  140.0350  144.5435  150.7478 H   0  0  0  0  0  0  0  0  0  0  0  0  # atno 10167 bound_to 10162
  157.3545  130.7616  149.7002 H   0  0  0  0  0  0  0  0  0  0  0  0  # atno 10718 bound_to 10713
  153.3585  135.3962  155.1701 H   0  0  0  0  0  0  0  0  0  0  0  0  # atno 10763 bound_to 10752
  154.8675  135.3674  154.5129 H   0  0  0  0  0  0  0  0  0  0  0  0  # atno 10764 bound_to 10752
  153.5587  135.7081  153.5618 H   0  0  0  0  0  0  0  0  0  0  0  0  # atno 10765 bound_to 10752
  140.7923  133.8278  155.9391 H   0  0  0  0  0  0  0  0  0  0  0  0  # atno 11005 bound_to 11000
  146.0673  139.3663  143.0544 LP  0  0  0  0  0  0  0  0  0  0  0  0  # atno 17320 bound_to 7965
  145.8014  140.9769  143.0997 LP  0  0  0  0  0  0  0  0  0  0  0  0  # atno 17321 bound_to 7965
  140.7285  143.2663  151.4034 LP  0  0  0  0  0  0  0  0  0  0  0  0  # atno 17342 bound_to 10162
  139.6051  144.1214  152.2240 LP  0  0  0  0  0  0  0  0  0  0  0  0  # atno 17343 bound_to 10162
  155.9727  130.4131  150.4066 LP  0  0  0  0  0  0  0  0  0  0  0  0  # atno 17370 bound_to 10713
  157.2134  131.0466  151.2586 LP  0  0  0  0  0  0  0  0  0  0  0  0  # atno 17371 bound_to 10713
  140.9377  134.1940  157.4819 LP  0  0  0  0  0  0  0  0  0  0  0  0  # atno 17394 bound_to 11000
  139.8730  134.9859  156.5302 LP  0  0  0  0  0  0  0  0  0  0  0  0  # atno 17395 bound_to 11000

$$$$
