AV-unprocessed.smi:767|AV-procd|sdf|3659|dock7
  -GOLD-   22720 1 73D 1   1.00000     0.00000
 Structure written by MMmdl.
 47 49  0  0  0  0  0  0  0  0  1 V2000
  144.7189  131.8675  149.1598 C   0  0  0  0  0  0  0  0  0  0  0  0
  145.5859  132.3030  150.3226 C   0  0  0  0  0  0  0  0  0  0  0  0
  145.9835  131.3791  151.3117 C   0  0  0  0  0  0  0  0  0  0  0  0
  146.7859  131.8383  152.3733 C   0  0  0  0  0  0  0  0  0  0  0  0
  147.1627  133.1967  152.4039 C   0  0  0  0  0  0  0  0  0  0  0  0
  148.0434  133.7364  153.5176 C   0  0  0  0  0  0  0  0  0  0  0  0
  147.3926  134.8850  154.3145 C   0  0  0  0  0  0  0  0  0  0  0  0
  148.2711  136.0411  154.4623 N   0  0  0  0  0  0  0  0  0  0  0  0
  148.4486  136.7354  155.5941 C   0  0  0  0  0  0  0  0  0  0  0  0
  147.8628  136.4989  156.6507 O   0  0  0  0  0  0  0  0  0  0  0  0
  149.3580  137.7054  155.4384 N   0  0  0  0  0  0  0  0  0  0  0  0
  149.8065  138.6123  156.4958 C   0  0  2  0  0  0  0  0  0  0  0  0
  149.0702  139.9711  156.4685 C   0  0  2  0  0  0  0  0  0  0  0  0
  147.8484  140.2246  155.6191 C   0  0  0  0  0  0  0  0  0  0  0  0
  148.4342  140.8887  154.3694 C   0  0  0  0  0  0  0  0  0  0  0  0
  149.8131  140.5243  154.3714 O   0  0  0  0  0  0  0  0  0  0  0  0
  150.2680  140.5359  155.7228 C   0  0  2  0  0  0  0  0  0  0  0  0
  151.1379  139.3397  156.1620 C   0  0  0  0  0  0  0  0  0  0  0  0
  152.0191  139.6218  157.3822 C   0  0  0  0  0  0  0  0  0  0  0  0
  152.0644  138.7473  155.0918 C   0  0  0  0  0  0  0  0  0  0  0  0
  146.7085  134.0386  151.3674 C   0  0  0  0  0  0  0  0  0  0  0  0
  145.9366  133.6080  150.3463 N   0  0  0  0  0  0  0  0  0  0  0  0
  144.7170  130.7822  149.0566 H   0  0  0  0  0  0  0  0  0  0  0  0
  145.0835  132.2949  148.2251 H   0  0  0  0  0  0  0  0  0  0  0  0
  143.6915  132.1985  149.3122 H   0  0  0  0  0  0  0  0  0  0  0  0
  145.6837  130.3427  151.2602 H   0  0  0  0  0  0  0  0  0  0  0  0
  147.1113  131.1569  153.1453 H   0  0  0  0  0  0  0  0  0  0  0  0
  148.2998  132.9192  154.1924 H   0  0  0  0  0  0  0  0  0  0  0  0
  148.9861  134.0776  153.0882 H   0  0  0  0  0  0  0  0  0  0  0  0
  146.4989  135.2262  153.7916 H   0  0  0  0  0  0  0  0  0  0  0  0
  147.0614  134.5324  155.2924 H   0  0  0  0  0  0  0  0  0  0  0  0
  148.8054  136.3122  153.6500 H   0  0  0  0  0  0  0  0  0  0  0  0
  149.7927  137.8133  154.5336 H   0  0  0  0  0  0  0  0  0  0  0  0
  149.7994  138.1631  157.4908 H   0  0  0  0  0  0  0  0  0  0  0  0
  149.0004  140.3932  157.4724 H   0  0  0  0  0  0  0  0  0  0  0  0
  147.3215  139.3038  155.3702 H   0  0  0  0  0  0  0  0  0  0  0  0
  147.1333  140.8831  156.1129 H   0  0  0  0  0  0  0  0  0  0  0  0
  147.9385  140.5694  153.4526 H   0  0  0  0  0  0  0  0  0  0  0  0
  148.3546  141.9744  154.4409 H   0  0  0  0  0  0  0  0  0  0  0  0
  150.5878  141.5197  156.0693 H   0  0  0  0  0  0  0  0  0  0  0  0
  152.8178  140.3258  157.1467 H   0  0  0  0  0  0  0  0  0  0  0  0
  152.4833  138.7097  157.7590 H   0  0  0  0  0  0  0  0  0  0  0  0
  151.4446  140.0521  158.2033 H   0  0  0  0  0  0  0  0  0  0  0  0
  152.8962  139.4156  154.8679 H   0  0  0  0  0  0  0  0  0  0  0  0
  151.5460  138.5684  154.1498 H   0  0  0  0  0  0  0  0  0  0  0  0
  152.4862  137.7954  155.4150 H   0  0  0  0  0  0  0  0  0  0  0  0
  146.9757  135.0851  151.3538 H   0  0  0  0  0  0  0  0  0  0  0  0
  1  2  1  0  0  0  0
  1 23  1  0  0  0  0
  1 24  1  0  0  0  0
  1 25  1  0  0  0  0
  2 22  1  0  0  0  0
  2  3  2  0  0  0  0
  3  4  1  0  0  0  0
  3 26  1  0  0  0  0
  4  5  2  0  0  0  0
  4 27  1  0  0  0  0
  5  6  1  0  0  0  0
  5 21  1  0  0  0  0
  6  7  1  0  0  0  0
  6 28  1  0  0  0  0
  6 29  1  0  0  0  0
  7  8  1  0  0  0  0
  7 30  1  0  0  0  0
  7 31  1  0  0  0  0
  8  9  1  0  0  0  0
  8 32  1  0  0  0  0
  9 10  2  0  0  0  0
  9 11  1  0  0  0  0
 11 12  1  0  0  0  0
 11 33  1  0  0  0  0
 12 18  1  0  0  0  0
 12 13  1  0  0  0  0
 12 34  1  0  0  0  0
 13 17  1  0  0  0  0
 13 14  1  0  0  0  0
 13 35  1  0  0  0  0
 14 15  1  0  0  0  0
 14 36  1  0  0  0  0
 14 37  1  0  0  0  0
 15 16  1  0  0  0  0
 15 38  1  0  0  0  0
 15 39  1  0  0  0  0
 16 17  1  0  0  0  0
 17 18  1  0  0  0  0
 17 40  1  0  0  0  0
 18 19  1  0  0  0  0
 18 20  1  0  0  0  0
 19 41  1  0  0  0  0
 19 42  1  0  0  0  0
 19 43  1  0  0  0  0
 20 44  1  0  0  0  0
 20 45  1  0  0  0  0
 20 46  1  0  0  0  0
 21 22  2  0  0  0  0
 21 47  1  0  0  0  0
M  END
> <s_m_source_file>
AV-unprocessed.smi

> <i_m_source_file_index>
767

> <i_lp_mmshare_version>
43012

> <i_f3d_flags>
0

> <s_epik_input>
W0NIM11jMVtjSF1bY0hdYyhbY0hdbjEpW0NIMl1bQ0gyXVtOSF1DKD1PKVtOSF1bQ0BIXTJDKFtDSDNdKShbQ0gzXSlbQ0BIXShbQ0BASF0yMylPW0NIMl1bQ0gyXTM=

> <s_epik_cmdline>
J2VwaWtfcHl0aG9uJywgJy1waCcsICc3LjAnLCAnLXRuJywgJzgnLCAnLW1hJywgJzIwMCcsICctbWV0YWxfYmluZGluZycsICctaW1hZScsICc8aW5maWxlLm1hZT4nLCAnLW9tYWUnLCAnPG91dGZpbGUubWFlPic=

> <r_epik_Ionization_Penalty>
0.0567523

> <r_epik_Ionization_Penalty_Charging>
0

> <r_epik_Ionization_Penalty_Neutral>
0.0567523

> <r_epik_State_Penalty>
0.0489186

> <r_epik_Charging_Adjusted_Penalty>
0.0489186

> <i_epik_Tot_Q>
0

> <i_epik_Tot_abs_Q>
0

> <r_epik_Metal_State_Penalty>
0.044622

> <b_epik_Metal_Only>
0

> <s_lp_Force_Field>
OPLS_2005

> <r_lp_Energy>
34.1608

> <b_lp_Chiralities_Consistent>
1

> <s_lp_Variant>
AV-unprocessed.smi:767-3

> <Gold.Version>
5.8.1

> <Gold.Id.Protein>
6NUR|6NUR_protein|mol2

> <Gold.PLP.Fitness>
38.8552

> <Gold.PLP.PLP>
-31.1922

> <Gold.PLP.part.hbond>
-2.0000

> <Gold.PLP.part.metal>
0.0000

> <Gold.PLP.part.buried>
-3.8592

> <Gold.PLP.part.nonpolar>
-26.0256

> <Gold.PLP.part.repulsive>
0.5247

> <Gold.PLP.ligand.clash>
0.0000

> <Gold.PLP.ligand.torsion>
0.7306

> <Gold.PLP.Chemscore.Hbond>
1.9760

> <Gold.PLP.Chemscore.CHOScore>
1.0000

> <Gold.PLP.Chemscore.Metal>
0.0000

> <Gold.Chemscore.Hbonds>
donor molecule, donor type, donor heavy atom, donor atom, acceptor molecule, acceptor atom, score
      L1  H     8    32       P1  7948  0.94
      P1  H  7989  7998       L1    16  0.70
      L1  C    21    47       P1  7948  1.00

> <Gold.PLP.Chemscore.Internal.Correction>
0.1961

> <Gold.Rescore>
     Score         DG    S(hbond)    S(metal)    S(lipo)     H(rot)  DE(clash)    DE(int)     intcor
     17.71     -18.73       1.79        0.00      94.00       1.45       0.05       0.97       ----

> <Gold.Chemscore.Fitness>
17.7121

> <Gold.Chemscore.DG>
-18.7317

> <Gold.Chemscore.ZeroCoef>
-5.4800

> <Gold.Chemscore.Hbond>
1.7858

> <Gold.Chemscore.Metal>
0.0000

> <Gold.Chemscore.Lipo>
94.0037

> <Gold.Chemscore.Internal_Hbond>
0.0000

> <Gold.Chemscore.DEClash>
0.0465

> <Gold.Chemscore.DEInternal>
0.9731

> <Gold.Chemscore.Rot>
1.4497

> <Gold.Chemscore.Internal.Correction>
   9.000000E+99

> <Gold.Chemscore.Hbonds>
donor molecule, donor type, donor heavy atom, donor atom, acceptor molecule, acceptor atom, score
      L1  H     8    32       P1  7948  0.91
      P1  H  7989  7998       L1    16  0.13

> <Gold.Chemscore.Hbond.Weighted>
-5.9645

> <Gold.Chemscore.Metal.Weighted>
-0.0000

> <Gold.Chemscore.Lipo.Weighted>
-10.9984

> <Gold.Chemscore.Internal_Hbond.Weighted>
0.0000

> <Gold.Chemscore.DEClash.Weighted>
0.0465

> <Gold.Chemscore.DEInternal.Weighted>
0.9731

> <Gold.Chemscore.Rot.Weighted>
3.7112

> <Gold.Chemscore.Internal.Correction.Weighted>
   9.000000E+99

> <Gold.Protein.RotatedTorsions>
[ 6907 6896 6895 6894 ] final  -86.16 input  -60.11 | X-H torsion
[ 7974 7965 7964 7962 ] final -105.12 input  175.53 | X-H torsion
[ 8008 7997 7996 7995 ] final -130.51 input   59.86 | X-H torsion
[ 10167 10162 10161 10158 ] final    7.27 input  -65.29 | X-H torsion
[ 10718 10713 10712 10709 ] final   81.27 input   66.30 | X-H torsion
[ 10763 10752 10751 10750 ] final   -3.50 input  -60.55 | X-H torsion
[ 11005 11000 10999 10996 ] final  -23.19 input  -57.11 | X-H torsion

> <Gold.Protein.ActiveResidues>
 VAL166  LYS551  ARG553  GLY616  TRP617  ASP618  TYR619  PRO620  LYS621  CYS622 
 ASP623  PHE694  ASN695  SER759  ASP760  ASP761  ALA762  ILE779  LEU786  VAL792 
 PHE793  MET794  SER795  GLU796  ALA797  LYS798  CYS799  TRP800  GLU811  SER814 

> <Gold.Protein.RotatedAtoms>
  150.6867  134.3094  159.4739 H   0  0  0  0  0  0  0  0  0  0  0  0  # atno 6907 bound_to 6896
  152.0981  134.9358  160.0579 H   0  0  0  0  0  0  0  0  0  0  0  0  # atno 6908 bound_to 6896
  152.0648  133.4044  159.4470 H   0  0  0  0  0  0  0  0  0  0  0  0  # atno 6909 bound_to 6896
  145.2345  140.9183  143.3185 H   0  0  0  0  0  0  0  0  0  0  0  0  # atno 7974 bound_to 7965
  155.2970  140.0451  157.3027 H   0  0  0  0  0  0  0  0  0  0  0  0  # atno 8008 bound_to 7997
  154.5508  140.2317  155.8455 H   0  0  0  0  0  0  0  0  0  0  0  0  # atno 8009 bound_to 7997
  156.1965  140.3037  155.9445 H   0  0  0  0  0  0  0  0  0  0  0  0  # atno 8010 bound_to 7997
  140.6381  143.7838  150.7389 H   0  0  0  0  0  0  0  0  0  0  0  0  # atno 10167 bound_to 10162
  157.6828  130.9996  150.2202 H   0  0  0  0  0  0  0  0  0  0  0  0  # atno 10718 bound_to 10713
  153.3723  135.6995  153.6628 H   0  0  0  0  0  0  0  0  0  0  0  0  # atno 10763 bound_to 10752
  153.5274  135.3599  155.2660 H   0  0  0  0  0  0  0  0  0  0  0  0  # atno 10764 bound_to 10752
  154.8682  135.4172  154.3003 H   0  0  0  0  0  0  0  0  0  0  0  0  # atno 10765 bound_to 10752
  140.8728  133.7708  156.0207 H   0  0  0  0  0  0  0  0  0  0  0  0  # atno 11005 bound_to 11000
  144.9646  139.3944  143.6339 LP  0  0  0  0  0  0  0  0  0  0  0  0  # atno 17320 bound_to 7965
  146.3344  139.8715  142.8839 LP  0  0  0  0  0  0  0  0  0  0  0  0  # atno 17321 bound_to 7965
  140.1464  143.4396  152.2160 LP  0  0  0  0  0  0  0  0  0  0  0  0  # atno 17342 bound_to 10162
  139.5591  144.7393  151.4207 LP  0  0  0  0  0  0  0  0  0  0  0  0  # atno 17343 bound_to 10162
  156.2855  130.3739  149.7893 LP  0  0  0  0  0  0  0  0  0  0  0  0  # atno 17370 bound_to 10713
  156.5568  130.8366  151.3317 LP  0  0  0  0  0  0  0  0  0  0  0  0  # atno 17371 bound_to 10713
  140.8553  134.2905  157.5258 LP  0  0  0  0  0  0  0  0  0  0  0  0  # atno 17394 bound_to 11000
  139.8713  134.9490  156.4012 LP  0  0  0  0  0  0  0  0  0  0  0  0  # atno 17395 bound_to 11000

$$$$
