AV-unprocessed.smi:2976|AV-procd|sdf|11359|dock6
  -GOLD-   2272016273D 1   1.00000     0.00000
 Structure written by MMmdl.
 40 41  0  0  0  0  0  0  0  0  1 V2000
  149.5925  140.9202  154.7690 C   0  0  0  0  0  0  0  0  0  0  0  0
  150.4300  139.8333  155.4660 C   0  0  2  0  0  0  0  0  0  0  0  0
  150.7861  138.7217  154.4569 C   0  0  0  0  0  0  0  0  0  0  0  0
  151.6358  137.6124  155.0916 C   0  0  0  0  0  0  0  0  0  0  0  0
  150.9384  137.0200  156.3256 C   0  0  0  0  0  0  0  0  0  0  0  0
  150.5813  138.1047  157.3588 C   0  0  1  0  0  0  0  0  0  0  0  0
  151.8074  138.6254  157.9667 N   0  0  0  0  0  0  0  0  0  0  0  0
  152.5258  138.0391  158.9367 C   0  0  0  0  0  0  0  0  0  0  0  0
  152.2492  136.9415  159.4214 O   0  0  0  0  0  0  0  0  0  0  0  0
  153.7528  138.8151  159.4310 C   0  0  0  0  0  0  0  0  0  0  0  0
  153.3861  140.0794  160.0843 N   0  0  0  0  0  0  0  0  0  0  0  0
  152.6061  140.9154  159.3049 N   0  0  0  0  0  0  0  0  0  0  0  0
  152.2390  142.0584  159.7732 C   0  0  0  0  0  0  0  0  0  0  0  0
  152.6108  142.5043  161.0978 C   0  0  0  0  0  0  0  0  0  0  0  0
  152.0881  144.0488  161.6714 Cl  0  0  0  0  0  0  0  0  0  0  0  0
  153.3704  141.6744  161.8559 C   0  0  0  0  0  0  0  0  0  0  0  0
  153.8543  142.1370  163.4515 Cl  0  0  0  0  0  0  0  0  0  0  0  0
  153.8071  140.3635  161.3557 C   0  0  0  0  0  0  0  0  0  0  0  0
  154.4929  139.5800  162.0143 O   0  0  0  0  0  0  0  0  0  0  0  0
  149.7273  139.2322  156.7155 C   0  0  1  0  0  0  0  0  0  0  0  0
  149.3119  140.3003  157.7479 C   0  0  0  0  0  0  0  0  0  0  0  0
  148.6086  140.5439  154.4876 H   0  0  0  0  0  0  0  0  0  0  0  0
  150.0849  141.2711  153.8617 H   0  0  0  0  0  0  0  0  0  0  0  0
  149.4502  141.7917  155.4075 H   0  0  0  0  0  0  0  0  0  0  0  0
  151.3613  140.3018  155.7883 H   0  0  0  0  0  0  0  0  0  0  0  0
  149.8713  138.2874  154.0511 H   0  0  0  0  0  0  0  0  0  0  0  0
  151.3253  139.1465  153.6093 H   0  0  0  0  0  0  0  0  0  0  0  0
  151.8241  136.8263  154.3597 H   0  0  0  0  0  0  0  0  0  0  0  0
  152.6117  138.0119  155.3697 H   0  0  0  0  0  0  0  0  0  0  0  0
  150.0270  136.5104  156.0101 H   0  0  0  0  0  0  0  0  0  0  0  0
  151.5697  136.2562  156.7816 H   0  0  0  0  0  0  0  0  0  0  0  0
  149.9810  137.6216  158.1318 H   0  0  0  0  0  0  0  0  0  0  0  0
  152.1203  139.5265  157.6360 H   0  0  0  0  0  0  0  0  0  0  0  0
  154.3016  138.1730  160.1222 H   0  0  0  0  0  0  0  0  0  0  0  0
  154.4393  139.0087  158.6042 H   0  0  0  0  0  0  0  0  0  0  0  0
  151.6274  142.7513  159.1951 H   0  0  0  0  0  0  0  0  0  0  0  0
  148.8033  138.7643  156.3720 H   0  0  0  0  0  0  0  0  0  0  0  0
  150.1547  140.9248  158.0445 H   0  0  0  0  0  0  0  0  0  0  0  0
  148.9079  139.8373  158.6483 H   0  0  0  0  0  0  0  0  0  0  0  0
  148.5353  140.9569  157.3566 H   0  0  0  0  0  0  0  0  0  0  0  0
  1  2  1  0  0  0  0
  1 22  1  0  0  0  0
  1 23  1  0  0  0  0
  1 24  1  0  0  0  0
  2 20  1  0  0  0  0
  2  3  1  0  0  0  0
  2 25  1  0  0  0  0
  3  4  1  0  0  0  0
  3 26  1  0  0  0  0
  3 27  1  0  0  0  0
  4  5  1  0  0  0  0
  4 28  1  0  0  0  0
  4 29  1  0  0  0  0
  5  6  1  0  0  0  0
  5 30  1  0  0  0  0
  5 31  1  0  0  0  0
  6  7  1  0  0  0  0
  6 20  1  0  0  0  0
  6 32  1  0  0  0  0
  7  8  1  0  0  0  0
  7 33  1  0  0  0  0
  8  9  2  0  0  0  0
  8 10  1  0  0  0  0
 10 11  1  0  0  0  0
 10 34  1  0  0  0  0
 10 35  1  0  0  0  0
 11 18  1  0  0  0  0
 11 12  1  0  0  0  0
 12 13  2  0  0  0  0
 13 14  1  0  0  0  0
 13 36  1  0  0  0  0
 14 15  1  0  0  0  0
 14 16  2  0  0  0  0
 16 17  1  0  0  0  0
 16 18  1  0  0  0  0
 18 19  2  0  0  0  0
 20 21  1  0  0  0  0
 20 37  1  0  0  0  0
 21 38  1  0  0  0  0
 21 39  1  0  0  0  0
 21 40  1  0  0  0  0
M  END
> <s_m_source_file>
AV-unprocessed.smi

> <i_m_source_file_index>
2976

> <i_lp_mmshare_version>
43012

> <i_f3d_flags>
0

> <s_epik_input>
W0NIM11bQ0BASF0xW0NIMl1bQ0gyXVtDSDJdW0NASF0oW0NASF0xW0NIM10pW05IXUMoPU8pW0NIMl1uMm5bY0hdYyhDbCljKENsKWMyPU8=

> <s_epik_cmdline>
J2VwaWtfcHl0aG9uJywgJy1waCcsICc3LjAnLCAnLXRuJywgJzgnLCAnLW1hJywgJzIwMCcsICctbWV0YWxfYmluZGluZycsICctaW1hZScsICc8aW5maWxlLm1hZT4nLCAnLW9tYWUnLCAnPG91dGZpbGUubWFlPic=

> <r_lp_tautomer_probability>
1

> <r_epik_Ionization_Penalty>
1.90777e-08

> <r_epik_Ionization_Penalty_Charging>
3.07942e-11

> <r_epik_Ionization_Penalty_Neutral>
1.90469e-08

> <r_epik_State_Penalty>
-0

> <r_epik_Charging_Adjusted_Penalty>
3.07942e-11

> <i_epik_Tot_Q>
0

> <i_epik_Tot_abs_Q>
0

> <r_epik_Metal_State_Penalty>
-0

> <b_epik_Metal_Only>
0

> <s_lp_Force_Field>
OPLS_2005

> <r_lp_Energy>
25.2962

> <b_lp_Chiralities_Consistent>
1

> <s_lp_Variant>
AV-unprocessed.smi:2976-1

> <Gold.Version>
5.8.1

> <Gold.Id.Protein>
6NUR|6NUR_protein|mol2

> <Gold.PLP.Fitness>
41.2002

> <Gold.PLP.PLP>
-38.9408

> <Gold.PLP.part.hbond>
-1.0000

> <Gold.PLP.part.metal>
0.0000

> <Gold.PLP.part.buried>
-4.3691

> <Gold.PLP.part.nonpolar>
-34.3850

> <Gold.PLP.part.repulsive>
0.0543

> <Gold.PLP.ligand.clash>
0.0000

> <Gold.PLP.ligand.torsion>
0.3373

> <Gold.PLP.Chemscore.Hbond>
0.9750

> <Gold.PLP.Chemscore.CHOScore>
0.0000

> <Gold.PLP.Chemscore.Metal>
0.0000

> <Gold.Chemscore.Hbonds>
donor molecule, donor type, donor heavy atom, donor atom, acceptor molecule, acceptor atom, score
      P1  H  6896  6907       L1     9  1.00

> <Gold.PLP.Chemscore.Internal.Correction>
0.0090

> <Gold.Rescore>
     Score         DG    S(hbond)    S(metal)    S(lipo)     H(rot)  DE(clash)    DE(int)     intcor
     14.37     -16.24       0.95        0.00      97.40       1.49       0.11       1.75       ----

> <Gold.Chemscore.Fitness>
14.3750

> <Gold.Chemscore.DG>
-16.2384

> <Gold.Chemscore.ZeroCoef>
-5.4800

> <Gold.Chemscore.Hbond>
0.9487

> <Gold.Chemscore.Metal>
0.0000

> <Gold.Chemscore.Lipo>
97.3958

> <Gold.Chemscore.Internal_Hbond>
0.0000

> <Gold.Chemscore.DEClash>
0.1091

> <Gold.Chemscore.DEInternal>
1.7543

> <Gold.Chemscore.Rot>
1.4866

> <Gold.Chemscore.Internal.Correction>
   9.000000E+99

> <Gold.Chemscore.Hbonds>
donor molecule, donor type, donor heavy atom, donor atom, acceptor molecule, acceptor atom, score
      P1  H  6896  6907       L1     9  0.98

> <Gold.Chemscore.Hbond.Weighted>
-3.1688

> <Gold.Chemscore.Metal.Weighted>
-0.0000

> <Gold.Chemscore.Lipo.Weighted>
-11.3953

> <Gold.Chemscore.Internal_Hbond.Weighted>
0.0000

> <Gold.Chemscore.DEClash.Weighted>
0.1091

> <Gold.Chemscore.DEInternal.Weighted>
1.7543

> <Gold.Chemscore.Rot.Weighted>
3.8057

> <Gold.Chemscore.Internal.Correction.Weighted>
   9.000000E+99

> <Gold.Protein.RotatedTorsions>
[ 6907 6896 6895 6894 ] final   11.44 input  -60.11 | X-H torsion
[ 7974 7965 7964 7962 ] final  -68.50 input  175.53 | X-H torsion
[ 8008 7997 7996 7995 ] final   -2.29 input   59.86 | X-H torsion
[ 10167 10162 10161 10158 ] final -147.64 input  -65.29 | X-H torsion
[ 10718 10713 10712 10709 ] final    0.08 input   66.30 | X-H torsion
[ 10763 10752 10751 10750 ] final  106.56 input  -60.55 | X-H torsion
[ 11005 11000 10999 10996 ] final  -55.22 input  -57.11 | X-H torsion

> <Gold.Protein.ActiveResidues>
 VAL166  LYS551  ARG553  GLY616  TRP617  ASP618  TYR619  PRO620  LYS621  CYS622 
 ASP623  PHE694  ASN695  SER759  ASP760  ASP761  ALA762  ILE779  LEU786  VAL792 
 PHE793  MET794  SER795  GLU796  ALA797  LYS798  CYS799  TRP800  GLU811  SER814 

> <Gold.Protein.RotatedAtoms>
  151.7543  135.0825  160.0335 H   0  0  0  0  0  0  0  0  0  0  0  0  # atno 6907 bound_to 6896
  152.3396  133.6047  159.5875 H   0  0  0  0  0  0  0  0  0  0  0  0  # atno 6908 bound_to 6896
  150.7471  133.9659  159.3572 H   0  0  0  0  0  0  0  0  0  0  0  0  # atno 6909 bound_to 6896
  145.7157  140.9060  143.0657 H   0  0  0  0  0  0  0  0  0  0  0  0  # atno 7974 bound_to 7965
  154.6374  140.2538  155.7362 H   0  0  0  0  0  0  0  0  0  0  0  0  # atno 8008 bound_to 7997
  156.2511  140.2894  156.0672 H   0  0  0  0  0  0  0  0  0  0  0  0  # atno 8009 bound_to 7997
  155.1650  140.0385  157.2841 H   0  0  0  0  0  0  0  0  0  0  0  0  # atno 8010 bound_to 7997
  139.7604  143.8385  152.2606 H   0  0  0  0  0  0  0  0  0  0  0  0  # atno 10167 bound_to 10162
  156.8281  130.5479  149.5690 H   0  0  0  0  0  0  0  0  0  0  0  0  # atno 10718 bound_to 10713
  153.3946  135.3873  155.1946 H   0  0  0  0  0  0  0  0  0  0  0  0  # atno 10763 bound_to 10752
  154.8723  135.3756  154.4694 H   0  0  0  0  0  0  0  0  0  0  0  0  # atno 10764 bound_to 10752
  153.5185  135.7087  153.5805 H   0  0  0  0  0  0  0  0  0  0  0  0  # atno 10765 bound_to 10752
  141.1064  133.6613  156.4438 H   0  0  0  0  0  0  0  0  0  0  0  0  # atno 11005 bound_to 11000
  144.6930  139.9135  143.7464 LP  0  0  0  0  0  0  0  0  0  0  0  0  # atno 17320 bound_to 7965
  146.0672  139.3662  143.0545 LP  0  0  0  0  0  0  0  0  0  0  0  0  # atno 17321 bound_to 7965
  139.8390  144.7219  150.9355 LP  0  0  0  0  0  0  0  0  0  0  0  0  # atno 17342 bound_to 10162
  140.7806  143.4001  151.1164 LP  0  0  0  0  0  0  0  0  0  0  0  0  # atno 17343 bound_to 10162
  156.0950  130.5925  150.9797 LP  0  0  0  0  0  0  0  0  0  0  0  0  # atno 17370 bound_to 10713
  157.6421  131.0909  150.8229 LP  0  0  0  0  0  0  0  0  0  0  0  0  # atno 17371 bound_to 10713
  140.4892  134.6592  157.5203 LP  0  0  0  0  0  0  0  0  0  0  0  0  # atno 17394 bound_to 11000
  139.9936  134.6947  155.9648 LP  0  0  0  0  0  0  0  0  0  0  0  0  # atno 17395 bound_to 11000

$$$$
