AV-unprocessed.smi:891|AV-procd|sdf|4063|dock1
  -GOLD-   22720 1553D 1   1.00000     0.00000
 Structure written by MMmdl.
 38 38  0  0  0  0  0  0  0  0  1 V2000
  151.2465  145.5604  160.0498 C   0  0  0  0  0  0  0  0  0  0  0  0
  151.8621  144.2127  159.8114 C   0  0  0  0  0  0  0  0  0  0  0  0
  151.7129  143.6077  158.6429 N   0  0  0  0  0  0  0  0  0  0  0  0
  152.3639  142.4217  158.7616 N   0  0  0  0  0  0  0  0  0  0  0  0
  152.3242  141.4880  157.6440 C   0  0  0  0  0  0  0  0  0  0  0  0
  150.8796  141.2705  157.1921 C   0  0  0  0  0  0  0  0  0  0  0  0
  150.0558  140.7856  157.9668 O   0  0  0  0  0  0  0  0  0  0  0  0
  150.6108  141.5811  155.9149 N   0  0  0  0  0  0  0  0  0  0  0  0
  149.4227  141.1761  155.1719 C   0  0  0  0  0  0  0  0  0  0  0  0
  149.6869  139.8829  154.3682 C   0  0  2  0  0  0  0  0  0  0  0  0
  148.3566  139.1768  154.0558 C   0  0  0  0  0  0  0  0  0  0  0  0
  150.6850  138.9354  155.0788 C   0  0  0  0  0  0  0  0  0  0  0  0
  151.9472  138.6256  154.2593 C   0  0  0  0  0  0  0  0  0  0  0  0
  151.9834  137.2494  153.9474 O   0  0  0  0  0  0  0  0  0  0  0  0
  152.9512  142.2731  160.0106 C   0  0  0  0  0  0  0  0  0  0  0  0
  153.7284  141.0667  160.4283 C   0  0  0  0  0  0  0  0  0  0  0  0
  152.6313  143.4099  160.6916 C   0  0  0  0  0  0  0  0  0  0  0  0
  153.0612  143.7923  162.3189 Cl  0  0  0  0  0  0  0  0  0  0  0  0
  151.9814  146.3534  159.9122 H   0  0  0  0  0  0  0  0  0  0  0  0
  150.8586  145.6384  161.0655 H   0  0  0  0  0  0  0  0  0  0  0  0
  150.4185  145.7500  159.3660 H   0  0  0  0  0  0  0  0  0  0  0  0
  152.9192  141.8856  156.8202 H   0  0  0  0  0  0  0  0  0  0  0  0
  152.7779  140.5412  157.9373 H   0  0  0  0  0  0  0  0  0  0  0  0
  151.3523  142.0016  155.3742 H   0  0  0  0  0  0  0  0  0  0  0  0
  148.5626  141.0397  155.8297 H   0  0  0  0  0  0  0  0  0  0  0  0
  149.1649  141.9906  154.4943 H   0  0  0  0  0  0  0  0  0  0  0  0
  150.1303  140.1812  153.4170 H   0  0  0  0  0  0  0  0  0  0  0  0
  147.8744  138.8209  154.9666 H   0  0  0  0  0  0  0  0  0  0  0  0
  148.4988  138.3207  153.3967 H   0  0  0  0  0  0  0  0  0  0  0  0
  147.6620  139.8526  153.5562 H   0  0  0  0  0  0  0  0  0  0  0  0
  151.0157  139.3800  156.0162 H   0  0  0  0  0  0  0  0  0  0  0  0
  150.1807  138.0077  155.3532 H   0  0  0  0  0  0  0  0  0  0  0  0
  151.9679  139.1956  153.3309 H   0  0  0  0  0  0  0  0  0  0  0  0
  152.8445  138.8801  154.8243 H   0  0  0  0  0  0  0  0  0  0  0  0
  151.7292  137.1384  153.0439 H   0  0  0  0  0  0  0  0  0  0  0  0
  154.2925  141.2630  161.3399 H   0  0  0  0  0  0  0  0  0  0  0  0
  154.4401  140.7686  159.6591 H   0  0  0  0  0  0  0  0  0  0  0  0
  153.0635  140.2263  160.6252 H   0  0  0  0  0  0  0  0  0  0  0  0
  1  2  1  0  0  0  0
  1 19  1  0  0  0  0
  1 20  1  0  0  0  0
  1 21  1  0  0  0  0
  2 17  1  0  0  0  0
  2  3  2  0  0  0  0
  3  4  1  0  0  0  0
  4  5  1  0  0  0  0
  4 15  1  0  0  0  0
  5  6  1  0  0  0  0
  5 22  1  0  0  0  0
  5 23  1  0  0  0  0
  6  7  2  0  0  0  0
  6  8  1  0  0  0  0
  8  9  1  0  0  0  0
  8 24  1  0  0  0  0
  9 10  1  0  0  0  0
  9 25  1  0  0  0  0
  9 26  1  0  0  0  0
 10 11  1  0  0  0  0
 10 12  1  0  0  0  0
 10 27  1  0  0  0  0
 11 28  1  0  0  0  0
 11 29  1  0  0  0  0
 11 30  1  0  0  0  0
 12 13  1  0  0  0  0
 12 31  1  0  0  0  0
 12 32  1  0  0  0  0
 13 14  1  0  0  0  0
 13 33  1  0  0  0  0
 13 34  1  0  0  0  0
 14 35  1  0  0  0  0
 15 16  1  0  0  0  0
 15 17  2  0  0  0  0
 16 36  1  0  0  0  0
 16 37  1  0  0  0  0
 16 38  1  0  0  0  0
 17 18  1  0  0  0  0
M  END
> <s_m_source_file>
AV-unprocessed.smi

> <i_m_source_file_index>
891

> <i_lp_mmshare_version>
43012

> <i_f3d_flags>
0

> <s_epik_input>
W0NIM11jMW5uKGMoW0NIM10pYzFDbClbQ0gyXUMoPU8pW05IXVtDSDJdW0NASF0oW0NIM10pW0NIMl1bQ0gyXVtPSF0=

> <s_epik_cmdline>
J2VwaWtfcHl0aG9uJywgJy1waCcsICc3LjAnLCAnLXRuJywgJzgnLCAnLW1hJywgJzIwMCcsICctbWV0YWxfYmluZGluZycsICctaW1hZScsICc8aW5maWxlLm1hZT4nLCAnLW9tYWUnLCAnPG91dGZpbGUubWFlPic=

> <r_lp_tautomer_probability>
1

> <r_epik_Ionization_Penalty>
4.9564e-06

> <r_epik_Ionization_Penalty_Charging>
0

> <r_epik_Ionization_Penalty_Neutral>
4.9564e-06

> <r_epik_State_Penalty>
-0

> <r_epik_Charging_Adjusted_Penalty>
0

> <i_epik_Tot_Q>
0

> <i_epik_Tot_abs_Q>
0

> <r_epik_Metal_State_Penalty>
-0

> <b_epik_Metal_Only>
0

> <s_lp_Force_Field>
OPLS_2005

> <r_lp_Energy>
6.31297

> <b_lp_Chiralities_Consistent>
1

> <s_lp_Variant>
AV-unprocessed.smi:891-1

> <Gold.Version>
5.8.1

> <Gold.Id.Protein>
6NUR|6NUR_protein|mol2

> <Gold.PLP.Fitness>
45.8769

> <Gold.PLP.PLP>
-42.9105

> <Gold.PLP.part.hbond>
-2.0000

> <Gold.PLP.part.metal>
0.0000

> <Gold.PLP.part.buried>
-7.1114

> <Gold.PLP.part.nonpolar>
-33.7123

> <Gold.PLP.part.repulsive>
0.1787

> <Gold.PLP.ligand.clash>
0.0000

> <Gold.PLP.ligand.torsion>
1.6300

> <Gold.PLP.Chemscore.Hbond>
2.0000

> <Gold.PLP.Chemscore.CHOScore>
0.0000

> <Gold.PLP.Chemscore.Metal>
0.0000

> <Gold.Chemscore.Hbonds>
donor molecule, donor type, donor heavy atom, donor atom, acceptor molecule, acceptor atom, score
      L1  H    14    35       P1  7949  1.00
      P1  H 10752 10764       L1    14  0.75

> <Gold.PLP.Chemscore.Internal.Correction>
0.2263

> <Gold.Rescore>
     Score         DG    S(hbond)    S(metal)    S(lipo)     H(rot)  DE(clash)    DE(int)     intcor
     14.27     -15.99       1.48        0.00     105.09       2.62       0.04       1.68       ----

> <Gold.Chemscore.Fitness>
14.2691

> <Gold.Chemscore.DG>
-15.9861

> <Gold.Chemscore.ZeroCoef>
-5.4800

> <Gold.Chemscore.Hbond>
1.4759

> <Gold.Chemscore.Metal>
0.0000

> <Gold.Chemscore.Lipo>
105.0925

> <Gold.Chemscore.Internal_Hbond>
0.0000

> <Gold.Chemscore.DEClash>
0.0412

> <Gold.Chemscore.DEInternal>
1.6758

> <Gold.Chemscore.Rot>
2.6247

> <Gold.Chemscore.Internal.Correction>
   9.000000E+99

> <Gold.Chemscore.Hbonds>
donor molecule, donor type, donor heavy atom, donor atom, acceptor molecule, acceptor atom, score
      L1  H    14    35       P1  7949  0.90
      P1  H 10752 10764       L1    14  0.45

> <Gold.Chemscore.Hbond.Weighted>
-4.9295

> <Gold.Chemscore.Metal.Weighted>
-0.0000

> <Gold.Chemscore.Lipo.Weighted>
-12.2958

> <Gold.Chemscore.Internal_Hbond.Weighted>
0.0000

> <Gold.Chemscore.DEClash.Weighted>
0.0412

> <Gold.Chemscore.DEInternal.Weighted>
1.6758

> <Gold.Chemscore.Rot.Weighted>
6.7192

> <Gold.Chemscore.Internal.Correction.Weighted>
   9.000000E+99

> <Gold.Protein.RotatedTorsions>
[ 6907 6896 6895 6894 ] final   79.41 input  -60.11 | X-H torsion
[ 7974 7965 7964 7962 ] final  143.49 input  175.53 | X-H torsion
[ 8008 7997 7996 7995 ] final  -83.09 input   59.86 | X-H torsion
[ 10167 10162 10161 10158 ] final    8.47 input  -65.29 | X-H torsion
[ 10718 10713 10712 10709 ] final  -23.89 input   66.30 | X-H torsion
[ 10763 10752 10751 10750 ] final  -64.52 input  -60.55 | X-H torsion
[ 11005 11000 10999 10996 ] final  165.64 input  -57.11 | X-H torsion

> <Gold.Protein.ActiveResidues>
 VAL166  LYS551  ARG553  GLY616  TRP617  ASP618  TYR619  PRO620  LYS621  CYS622 
 ASP623  PHE694  ASN695  SER759  ASP760  ASP761  ALA762  ILE779  LEU786  VAL792 
 PHE793  MET794  SER795  GLU796  ALA797  LYS798  CYS799  TRP800  GLU811  SER814 

> <Gold.Protein.RotatedAtoms>
  152.5197  134.3516  159.9252 H   0  0  0  0  0  0  0  0  0  0  0  0  # atno 6907 bound_to 6896
  151.3467  133.3935  159.2684 H   0  0  0  0  0  0  0  0  0  0  0  0  # atno 6908 bound_to 6896
  150.9760  134.9143  159.7874 H   0  0  0  0  0  0  0  0  0  0  0  0  # atno 6909 bound_to 6896
  144.8916  139.5549  143.5795 H   0  0  0  0  0  0  0  0  0  0  0  0  # atno 7974 bound_to 7965
  154.6155  140.0624  156.9548 H   0  0  0  0  0  0  0  0  0  0  0  0  # atno 8008 bound_to 7997
  155.1903  140.3306  155.4341 H   0  0  0  0  0  0  0  0  0  0  0  0  # atno 8009 bound_to 7997
  156.2401  140.1882  156.6994 H   0  0  0  0  0  0  0  0  0  0  0  0  # atno 8010 bound_to 7997
  140.6312  143.7989  150.7298 H   0  0  0  0  0  0  0  0  0  0  0  0  # atno 10167 bound_to 10162
  156.4850  130.4553  149.6789 H   0  0  0  0  0  0  0  0  0  0  0  0  # atno 10718 bound_to 10713
  154.3313  135.6176  153.5553 H   0  0  0  0  0  0  0  0  0  0  0  0  # atno 10763 bound_to 10752
  152.9811  135.5747  154.4958 H   0  0  0  0  0  0  0  0  0  0  0  0  # atno 10764 bound_to 10752
  154.4645  135.2857  155.1665 H   0  0  0  0  0  0  0  0  0  0  0  0  # atno 10765 bound_to 10752
  140.2583  134.7923  157.3566 H   0  0  0  0  0  0  0  0  0  0  0  0  # atno 11005 bound_to 11000
  146.3057  139.7573  142.9058 LP  0  0  0  0  0  0  0  0  0  0  0  0  # atno 17320 bound_to 7965
  145.3772  141.0352  143.3198 LP  0  0  0  0  0  0  0  0  0  0  0  0  # atno 17321 bound_to 7965
  140.1600  143.4283  152.2073 LP  0  0  0  0  0  0  0  0  0  0  0  0  # atno 17342 bound_to 10162
  139.5526  144.7349  151.4389 LP  0  0  0  0  0  0  0  0  0  0  0  0  # atno 17343 bound_to 10162
  156.3483  130.7418  151.2374 LP  0  0  0  0  0  0  0  0  0  0  0  0  # atno 17370 bound_to 10713
  157.7479  131.0384  150.4502 LP  0  0  0  0  0  0  0  0  0  0  0  0  # atno 17371 bound_to 10713
  140.1490  134.4874  155.7975 LP  0  0  0  0  0  0  0  0  0  0  0  0  # atno 17394 bound_to 11000
  141.2193  133.6855  156.7345 LP  0  0  0  0  0  0  0  0  0  0  0  0  # atno 17395 bound_to 11000

$$$$
