AV-unprocessed.smi:2492|AV-procd|sdf|9815|dock1
  -GOLD-   2272013443D 1   1.00000     0.00000
 Structure written by MMmdl.
 32 33  0  0  0  0  0  0  0  0  2 V2000
  145.9602  134.2018  150.8796 C   0  0  0  0  0  0  0  0  0  0  0  0
  146.3854  132.6289  151.6733 S   0  0  0  0  0  0  0  0  0  0  0  0
  147.8629  133.1318  152.6018 C   0  0  2  0  0  0  0  0  0  0  0  0
  148.4389  131.9994  153.4474 C   0  0  0  0  0  0  0  0  0  0  0  0
  149.3150  132.7093  154.4814 C   0  0  0  0  0  0  0  0  0  0  0  0
  148.6764  134.0941  154.7041 C   0  0  1  0  0  0  0  0  0  0  0  0
  149.6814  135.1505  154.6037 N   0  0  0  0  0  0  0  0  0  0  0  0
  150.6759  135.3768  155.4746 C   0  0  0  0  0  0  0  0  0  0  0  0
  150.7951  134.6602  156.4711 O   0  0  0  0  0  0  0  0  0  0  0  0
  151.4679  136.4198  155.1375 N   0  5  0  0  0  0  0  0  0  0  0  0
  150.9199  137.6086  154.8367 C   0  0  0  0  0  0  0  0  0  0  0  0
  149.6173  137.8579  154.6951 N   0  0  0  0  0  0  0  0  0  0  0  0
  149.6164  139.1880  154.4126 C   0  0  0  0  0  0  0  0  0  0  0  0
  148.3686  139.9631  154.1619 C   0  0  0  0  0  0  0  0  0  0  0  0
  150.8049  139.7722  154.3798 N   0  0  0  0  0  0  0  0  0  0  0  0
  151.6844  138.7189  154.6676 O   0  0  0  0  0  0  0  0  0  0  0  0
  147.5887  134.2404  153.6210 C   0  0  0  0  0  0  0  0  0  0  0  0
  145.0871  134.0745  150.2397 H   0  0  0  0  0  0  0  0  0  0  0  0
  146.7893  134.5556  150.2670 H   0  0  0  0  0  0  0  0  0  0  0  0
  145.7303  134.9604  151.6278 H   0  0  0  0  0  0  0  0  0  0  0  0
  148.6262  133.4682  151.8983 H   0  0  0  0  0  0  0  0  0  0  0  0
  147.6344  131.4668  153.9570 H   0  0  0  0  0  0  0  0  0  0  0  0
  148.9961  131.2735  152.8547 H   0  0  0  0  0  0  0  0  0  0  0  0
  149.3937  132.1389  155.4074 H   0  0  0  0  0  0  0  0  0  0  0  0
  150.3250  132.8107  154.0805 H   0  0  0  0  0  0  0  0  0  0  0  0
  148.2142  134.1266  155.6924 H   0  0  0  0  0  0  0  0  0  0  0  0
  149.6222  135.7610  153.8020 H   0  0  0  0  0  0  0  0  0  0  0  0
  148.1191  140.5656  155.0354 H   0  0  0  0  0  0  0  0  0  0  0  0
  147.5345  139.2920  153.9546 H   0  0  0  0  0  0  0  0  0  0  0  0
  148.4969  140.6260  153.3059 H   0  0  0  0  0  0  0  0  0  0  0  0
  147.5699  135.2276  153.1575 H   0  0  0  0  0  0  0  0  0  0  0  0
  146.6111  134.0851  154.0794 H   0  0  0  0  0  0  0  0  0  0  0  0
  1  2  1  0  0  0  0
  1 18  1  0  0  0  0
  1 19  1  0  0  0  0
  1 20  1  0  0  0  0
  2  3  1  0  0  0  0
  3 17  1  0  0  0  0
  3  4  1  0  0  0  0
  3 21  1  0  0  0  0
  4  5  1  0  0  0  0
  4 22  1  0  0  0  0
  4 23  1  0  0  0  0
  5  6  1  0  0  0  0
  5 24  1  0  0  0  0
  5 25  1  0  0  0  0
  6  7  1  0  0  0  0
  6 17  1  0  0  0  0
  6 26  1  0  0  0  0
  7  8  1  0  0  0  0
  7 27  1  0  0  0  0
  8  9  2  0  0  0  0
  8 10  1  0  0  0  0
 10 11  1  0  0  0  0
 11 16  1  0  0  0  0
 11 12  2  0  0  0  0
 12 13  1  0  0  0  0
 13 14  1  0  0  0  0
 13 15  2  0  0  0  0
 14 28  1  0  0  0  0
 14 29  1  0  0  0  0
 14 30  1  0  0  0  0
 15 16  1  0  0  0  0
 17 31  1  0  0  0  0
 17 32  1  0  0  0  0
M  CHG  1  10  -1
M  END
> <s_m_source_file>
AV-unprocessed.smi

> <i_m_source_file_index>
2492

> <i_lp_mmshare_version>
43012

> <i_f3d_flags>
0

> <s_epik_input>
W0NIM11TW0NAQEhdMVtDSDJdW0NIMl1bQ0BIXShbQ0gyXTEpW05IXUMoPU8pW05IXWMybmMoW0NIM10pbm8y

> <s_epik_cmdline>
J2VwaWtfcHl0aG9uJywgJy1waCcsICc3LjAnLCAnLXRuJywgJzgnLCAnLW1hJywgJzIwMCcsICctbWV0YWxfYmluZGluZycsICctaW1hZScsICc8aW5maWxlLm1hZT4nLCAnLW9tYWUnLCAnPG91dGZpbGUubWFlPic=

> <r_lp_tautomer_probability>
1

> <r_epik_Ionization_Penalty>
6.26454

> <r_epik_Ionization_Penalty_Charging>
6.26445

> <r_epik_Ionization_Penalty_Neutral>
9.05726e-05

> <r_epik_State_Penalty>
6.26444

> <r_epik_Charging_Adjusted_Penalty>
12.5289

> <i_epik_Tot_Q>
-1

> <i_epik_Tot_abs_Q>
1

> <r_epik_Metal_State_Penalty>
2.20125

> <b_epik_Metal_Only>
1

> <s_lp_Force_Field>
OPLS_2005

> <r_lp_Energy>
10.5247

> <b_lp_Chiralities_Consistent>
1

> <s_lp_Variant>
AV-unprocessed.smi:2492-5

> <Gold.Version>
5.8.1

> <Gold.Id.Protein>
6NUR|6NUR_protein|mol2

> <Gold.PLP.Fitness>
38.5435

> <Gold.PLP.PLP>
-27.5816

> <Gold.PLP.part.hbond>
-3.0172

> <Gold.PLP.part.metal>
0.0000

> <Gold.PLP.part.buried>
-2.4840

> <Gold.PLP.part.nonpolar>
-23.2534

> <Gold.PLP.part.repulsive>
0.5844

> <Gold.PLP.ligand.clash>
0.0000

> <Gold.PLP.ligand.torsion>
0.5317

> <Gold.PLP.Chemscore.Hbond>
4.0000

> <Gold.PLP.Chemscore.CHOScore>
0.0000

> <Gold.PLP.Chemscore.Metal>
0.0000

> <Gold.Chemscore.Hbonds>
donor molecule, donor type, donor heavy atom, donor atom, acceptor molecule, acceptor atom, score
      L1  H     7    27       P1  7948  0.91
      P1  H  7989  7998       L1    15  1.00
      P1  H 10752 10763       L1    10  2.00

> <Gold.PLP.Chemscore.Internal.Correction>
0.0254

> <Gold.Rescore>
     Score         DG    S(hbond)    S(metal)    S(lipo)     H(rot)  DE(clash)    DE(int)     intcor
     13.73     -15.75       2.71        0.00      38.35       1.27       0.01       2.01       ----

> <Gold.Chemscore.Fitness>
13.7265

> <Gold.Chemscore.DG>
-15.7518

> <Gold.Chemscore.ZeroCoef>
-5.4800

> <Gold.Chemscore.Hbond>
2.7063

> <Gold.Chemscore.Metal>
0.0000

> <Gold.Chemscore.Lipo>
38.3485

> <Gold.Chemscore.Internal_Hbond>
0.0000

> <Gold.Chemscore.DEClash>
0.0111

> <Gold.Chemscore.DEInternal>
2.0142

> <Gold.Chemscore.Rot>
1.2712

> <Gold.Chemscore.Internal.Correction>
   9.000000E+99

> <Gold.Chemscore.Hbonds>
donor molecule, donor type, donor heavy atom, donor atom, acceptor molecule, acceptor atom, score
      L1  H     7    27       P1  7948  0.21
      P1  H  7989  7998       L1    15  0.60
      P1  H 10752 10763       L1    10  0.30

> <Gold.Chemscore.Hbond.Weighted>
-9.0392

> <Gold.Chemscore.Metal.Weighted>
-0.0000

> <Gold.Chemscore.Lipo.Weighted>
-4.4868

> <Gold.Chemscore.Internal_Hbond.Weighted>
0.0000

> <Gold.Chemscore.DEClash.Weighted>
0.0111

> <Gold.Chemscore.DEInternal.Weighted>
2.0142

> <Gold.Chemscore.Rot.Weighted>
3.2542

> <Gold.Chemscore.Internal.Correction.Weighted>
   9.000000E+99

> <Gold.Protein.RotatedTorsions>
[ 6907 6896 6895 6894 ] final  118.80 input  -60.11 | X-H torsion
[ 7974 7965 7964 7962 ] final -148.20 input  175.53 | X-H torsion
[ 8008 7997 7996 7995 ] final -154.29 input   59.86 | X-H torsion
[ 10167 10162 10161 10158 ] final  175.43 input  -65.29 | X-H torsion
[ 10718 10713 10712 10709 ] final -167.92 input   66.30 | X-H torsion
[ 10763 10752 10751 10750 ] final   61.51 input  -60.55 | X-H torsion
[ 11005 11000 10999 10996 ] final -126.52 input  -57.11 | X-H torsion

> <Gold.Protein.ActiveResidues>
 VAL166  LYS551  ARG553  GLY616  TRP617  ASP618  TYR619  PRO620  LYS621  CYS622 
 ASP623  PHE694  ASN695  SER759  ASP760  ASP761  ALA762  ILE779  LEU786  VAL792 
 PHE793  MET794  SER795  GLU796  ALA797  LYS798  CYS799  TRP800  GLU811  SER814 

> <Gold.Protein.RotatedAtoms>
  152.4518  133.7643  159.6763 H   0  0  0  0  0  0  0  0  0  0  0  0  # atno 6907 bound_to 6896
  150.8432  133.7893  159.3059 H   0  0  0  0  0  0  0  0  0  0  0  0  # atno 6908 bound_to 6896
  151.5512  135.1070  160.0002 H   0  0  0  0  0  0  0  0  0  0  0  0  # atno 6909 bound_to 6896
  144.8044  140.5228  143.5685 H   0  0  0  0  0  0  0  0  0  0  0  0  # atno 7974 bound_to 7965
  155.6840  140.0747  157.2473 H   0  0  0  0  0  0  0  0  0  0  0  0  # atno 8008 bound_to 7997
  154.4100  140.1676  156.2066 H   0  0  0  0  0  0  0  0  0  0  0  0  # atno 8009 bound_to 7997
  155.9510  140.3377  155.6410 H   0  0  0  0  0  0  0  0  0  0  0  0  # atno 8010 bound_to 7997
  139.5177  144.3033  152.0359 H   0  0  0  0  0  0  0  0  0  0  0  0  # atno 10167 bound_to 10162
  156.6894  130.9153  151.3067 H   0  0  0  0  0  0  0  0  0  0  0  0  # atno 10718 bound_to 10713
  152.9953  135.5498  154.6045 H   0  0  0  0  0  0  0  0  0  0  0  0  # atno 10763 bound_to 10752
  154.5379  135.2818  155.1124 H   0  0  0  0  0  0  0  0  0  0  0  0  # atno 10764 bound_to 10752
  154.2413  135.6416  153.5261 H   0  0  0  0  0  0  0  0  0  0  0  0  # atno 10765 bound_to 10752
  140.9675  134.0852  157.3905 H   0  0  0  0  0  0  0  0  0  0  0  0  # atno 11005 bound_to 11000
  145.5473  139.1476  143.3414 LP  0  0  0  0  0  0  0  0  0  0  0  0  # atno 17320 bound_to 7965
  146.2333  140.5612  142.8966 LP  0  0  0  0  0  0  0  0  0  0  0  0  # atno 17321 bound_to 7965
  140.2479  144.4200  150.6233 LP  0  0  0  0  0  0  0  0  0  0  0  0  # atno 17342 bound_to 10162
  140.6245  143.2180  151.6626 LP  0  0  0  0  0  0  0  0  0  0  0  0  # atno 17343 bound_to 10162
  157.7014  130.9337  150.0798 LP  0  0  0  0  0  0  0  0  0  0  0  0  # atno 17370 bound_to 10713
  156.1809  130.3650  149.9037 LP  0  0  0  0  0  0  0  0  0  0  0  0  # atno 17371 bound_to 10713
  139.8900  135.0109  156.6710 LP  0  0  0  0  0  0  0  0  0  0  0  0  # atno 17394 bound_to 11000
  140.7378  133.9004  155.8256 LP  0  0  0  0  0  0  0  0  0  0  0  0  # atno 17395 bound_to 11000

$$$$
