AV-unprocessed.smi:786|AV-procd|sdf|3722|dock5
  -GOLD-   22720 1143D 1   1.00000     0.00000
 Structure written by MMmdl.
 40 41  0  0  0  0  0  0  0  0  2 V2000
  147.1231  136.8677  154.8191 O   0  0  0  0  0  0  0  0  0  0  0  0
  146.4706  137.6557  153.7629 S   0  0  0  0  0  0  0  0  0  0  0  0
  145.0879  138.1257  153.9379 O   0  0  0  0  0  0  0  0  0  0  0  0
  147.5709  139.0734  153.3106 C   0  0  0  0  0  0  0  0  0  0  0  0
  148.6315  139.3905  154.3843 C   0  0  0  0  0  0  0  0  0  0  0  0
  148.9416  140.8956  154.4377 C   0  0  0  0  0  0  0  0  0  0  0  0
  150.0378  141.1936  155.4739 C   0  0  0  0  0  0  0  0  0  0  0  0
  151.2096  140.4449  155.1717 O   0  0  0  0  0  0  0  0  0  0  0  0
  150.9966  139.0386  155.2210 C   0  0  0  0  0  0  0  0  0  0  0  0
  149.9530  138.6279  154.1695 C   0  0  0  0  0  0  0  0  0  0  0  0
  146.5166  136.6927  152.3297 N   0  0  0  0  0  0  0  0  0  0  0  0
  145.3863  136.7609  151.4029 C   0  0  0  0  0  0  0  0  0  0  0  0
  144.3124  135.7238  151.7681 C   0  0  0  0  0  0  0  0  0  0  0  0
  144.6399  134.3456  151.2270 C   0  0  0  0  0  0  0  0  0  0  0  0
  145.8609  133.6985  151.5156 C   0  0  0  0  0  0  0  0  0  0  0  0
  146.1075  132.4192  150.9754 C   0  0  0  0  0  0  0  0  0  0  0  0
  145.1295  131.8146  150.1586 C   0  0  0  0  0  0  0  0  0  0  0  0
  143.9284  132.5067  149.9013 C   0  0  0  0  0  0  0  0  0  0  0  0
  143.7294  133.7311  150.4373 N   0  3  0  0  0  0  0  0  0  0  0  0
  148.0565  138.8349  152.3640 H   0  0  0  0  0  0  0  0  0  0  0  0
  146.9294  139.9345  153.1224 H   0  0  0  0  0  0  0  0  0  0  0  0
  148.2223  139.1113  155.3565 H   0  0  0  0  0  0  0  0  0  0  0  0
  149.2686  141.2418  153.4564 H   0  0  0  0  0  0  0  0  0  0  0  0
  148.0410  141.4592  154.6834 H   0  0  0  0  0  0  0  0  0  0  0  0
  150.2859  142.2549  155.4613 H   0  0  0  0  0  0  0  0  0  0  0  0
  149.6941  140.9594  156.4826 H   0  0  0  0  0  0  0  0  0  0  0  0
  151.9427  138.5333  155.0265 H   0  0  0  0  0  0  0  0  0  0  0  0
  150.6781  138.7431  156.2218 H   0  0  0  0  0  0  0  0  0  0  0  0
  149.8002  137.5507  154.2128 H   0  0  0  0  0  0  0  0  0  0  0  0
  150.3451  138.8415  153.1744 H   0  0  0  0  0  0  0  0  0  0  0  0
  146.7438  135.7241  152.5545 H   0  0  0  0  0  0  0  0  0  0  0  0
  144.9640  137.7650  151.4461 H   0  0  0  0  0  0  0  0  0  0  0  0
  145.7442  136.6106  150.3834 H   0  0  0  0  0  0  0  0  0  0  0  0
  144.1946  135.6552  152.8495 H   0  0  0  0  0  0  0  0  0  0  0  0
  143.3435  136.0367  151.3763 H   0  0  0  0  0  0  0  0  0  0  0  0
  146.6013  134.1759  152.1414 H   0  0  0  0  0  0  0  0  0  0  0  0
  147.0361  131.9086  151.1849 H   0  0  0  0  0  0  0  0  0  0  0  0
  145.2986  130.8350  149.7354 H   0  0  0  0  0  0  0  0  0  0  0  0
  143.1274  132.1210  149.2877 H   0  0  0  0  0  0  0  0  0  0  0  0
  142.8529  134.2136  150.2374 H   0  0  0  0  0  0  0  0  0  0  0  0
  1  2  2  0  0  0  0
  2  3  2  0  0  0  0
  2  4  1  0  0  0  0
  2 11  1  0  0  0  0
  4  5  1  0  0  0  0
  4 20  1  0  0  0  0
  4 21  1  0  0  0  0
  5 10  1  0  0  0  0
  5  6  1  0  0  0  0
  5 22  1  0  0  0  0
  6  7  1  0  0  0  0
  6 23  1  0  0  0  0
  6 24  1  0  0  0  0
  7  8  1  0  0  0  0
  7 25  1  0  0  0  0
  7 26  1  0  0  0  0
  8  9  1  0  0  0  0
  9 10  1  0  0  0  0
  9 27  1  0  0  0  0
  9 28  1  0  0  0  0
 10 29  1  0  0  0  0
 10 30  1  0  0  0  0
 11 12  1  0  0  0  0
 11 31  1  0  0  0  0
 12 13  1  0  0  0  0
 12 32  1  0  0  0  0
 12 33  1  0  0  0  0
 13 14  1  0  0  0  0
 13 34  1  0  0  0  0
 13 35  1  0  0  0  0
 14 19  1  0  0  0  0
 14 15  2  0  0  0  0
 15 16  1  0  0  0  0
 15 36  1  0  0  0  0
 16 17  2  0  0  0  0
 16 37  1  0  0  0  0
 17 18  1  0  0  0  0
 17 38  1  0  0  0  0
 18 19  2  0  0  0  0
 18 39  1  0  0  0  0
 19 40  1  0  0  0  0
M  CHG  1  19   1
M  END
> <s_m_source_file>
AV-unprocessed.smi

> <i_m_source_file_index>
786

> <i_lp_mmshare_version>
43012

> <i_f3d_flags>
0

> <s_epik_input>
W0NIMl0xW0NIMl1PW0NIMl1bQ0gyXVtDSF0xW0NIMl1TKD1PKSg9TylbTkhdW0NIMl1bQ0gyXWMyW2NIXVtjSF1bY0hdW2NIXW4y

> <s_epik_cmdline>
J2VwaWtfcHl0aG9uJywgJy1waCcsICc3LjAnLCAnLXRuJywgJzgnLCAnLW1hJywgJzIwMCcsICctbWV0YWxfYmluZGluZycsICctaW1hZScsICc8aW5maWxlLm1hZT4nLCAnLW9tYWUnLCAnPG91dGZpbGUubWFlPic=

> <r_epik_Ionization_Penalty>
1.99786

> <r_epik_Ionization_Penalty_Charging>
1.99784

> <r_epik_Ionization_Penalty_Neutral>
1.9654e-05

> <r_epik_State_Penalty>
2.12638

> <r_epik_Charging_Adjusted_Penalty>
4.12422

> <i_epik_Tot_Q>
1

> <i_epik_Tot_abs_Q>
1

> <r_epik_Metal_State_Penalty>
2.17464

> <b_epik_Metal_Only>
0

> <s_lp_Force_Field>
OPLS_2005

> <r_lp_Energy>
11.1046

> <b_lp_Chiralities_Consistent>
1

> <s_lp_Variant>
AV-unprocessed.smi:786-2

> <Gold.Version>
5.8.1

> <Gold.Id.Protein>
6NUR|6NUR_protein|mol2

> <Gold.PLP.Fitness>
41.9317

> <Gold.PLP.PLP>
-35.3578

> <Gold.PLP.part.hbond>
-2.8106

> <Gold.PLP.part.metal>
0.0000

> <Gold.PLP.part.buried>
-2.3636

> <Gold.PLP.part.nonpolar>
-30.8338

> <Gold.PLP.part.repulsive>
0.2676

> <Gold.PLP.ligand.clash>
0.0000

> <Gold.PLP.ligand.torsion>
1.3156

> <Gold.PLP.Chemscore.Hbond>
2.9920

> <Gold.PLP.Chemscore.CHOScore>
0.0000

> <Gold.PLP.Chemscore.Metal>
0.0000

> <Gold.Chemscore.Hbonds>
donor molecule, donor type, donor heavy atom, donor atom, acceptor molecule, acceptor atom, score
      L1  H    19    40       P1 10186  2.00
      P1  H  7989  7998       L1     8  0.98

> <Gold.PLP.Chemscore.Internal.Correction>
0.2292

> <Gold.Rescore>
     Score         DG    S(hbond)    S(metal)    S(lipo)     H(rot)  DE(clash)    DE(int)     intcor
     14.20     -16.70       1.49        0.00      95.73       1.94       1.07       1.42       ----

> <Gold.Chemscore.Fitness>
14.2038

> <Gold.Chemscore.DG>
-16.6959

> <Gold.Chemscore.ZeroCoef>
-5.4800

> <Gold.Chemscore.Hbond>
1.4935

> <Gold.Chemscore.Metal>
0.0000

> <Gold.Chemscore.Lipo>
95.7313

> <Gold.Chemscore.Internal_Hbond>
0.0000

> <Gold.Chemscore.DEClash>
1.0745

> <Gold.Chemscore.DEInternal>
1.4176

> <Gold.Chemscore.Rot>
1.9426

> <Gold.Chemscore.Internal.Correction>
   9.000000E+99

> <Gold.Chemscore.Hbonds>
donor molecule, donor type, donor heavy atom, donor atom, acceptor molecule, acceptor atom, score
      L1  H    19    40       P1 10186  0.88
      P1  H  7989  7998       L1     8  0.34

> <Gold.Chemscore.Hbond.Weighted>
-4.9884

> <Gold.Chemscore.Metal.Weighted>
-0.0000

> <Gold.Chemscore.Lipo.Weighted>
-11.2006

> <Gold.Chemscore.Internal_Hbond.Weighted>
0.0000

> <Gold.Chemscore.DEClash.Weighted>
1.0745

> <Gold.Chemscore.DEInternal.Weighted>
1.4176

> <Gold.Chemscore.Rot.Weighted>
4.9731

> <Gold.Chemscore.Internal.Correction.Weighted>
   9.000000E+99

> <Gold.Protein.RotatedTorsions>
[ 6907 6896 6895 6894 ] final   97.82 input  -60.11 | X-H torsion
[ 7974 7965 7964 7962 ] final -125.45 input  175.53 | X-H torsion
[ 8008 7997 7996 7995 ] final -132.15 input   59.86 | X-H torsion
[ 10167 10162 10161 10158 ] final -149.77 input  -65.29 | X-H torsion
[ 10718 10713 10712 10709 ] final -112.71 input   66.30 | X-H torsion
[ 10763 10752 10751 10750 ] final  130.60 input  -60.55 | X-H torsion
[ 11005 11000 10999 10996 ] final   84.29 input  -57.11 | X-H torsion

> <Gold.Protein.ActiveResidues>
 VAL166  LYS551  ARG553  GLY616  TRP617  ASP618  TYR619  PRO620  LYS621  CYS622 
 ASP623  PHE694  ASN695  SER759  ASP760  ASP761  ALA762  ILE779  LEU786  VAL792 
 PHE793  MET794  SER795  GLU796  ALA797  LYS798  CYS799  TRP800  GLU811  SER814 

> <Gold.Protein.RotatedAtoms>
  152.5418  134.0675  159.8179 H   0  0  0  0  0  0  0  0  0  0  0  0  # atno 6907 bound_to 6896
  151.0794  133.5394  159.2629 H   0  0  0  0  0  0  0  0  0  0  0  0  # atno 6908 bound_to 6896
  151.2227  135.0533  159.9010 H   0  0  0  0  0  0  0  0  0  0  0  0  # atno 6909 bound_to 6896
  144.9975  140.7790  143.4516 H   0  0  0  0  0  0  0  0  0  0  0  0  # atno 7974 bound_to 7965
  155.3242  140.0463  157.3040 H   0  0  0  0  0  0  0  0  0  0  0  0  # atno 8008 bound_to 7997
  154.5363  140.2273  155.8682 H   0  0  0  0  0  0  0  0  0  0  0  0  # atno 8009 bound_to 7997
  156.1838  140.3067  155.9206 H   0  0  0  0  0  0  0  0  0  0  0  0  # atno 8010 bound_to 7997
  139.7413  143.8658  152.2563 H   0  0  0  0  0  0  0  0  0  0  0  0  # atno 10167 bound_to 10162
  156.0722  130.5934  150.8545 H   0  0  0  0  0  0  0  0  0  0  0  0  # atno 10718 bound_to 10713
  153.7606  135.3196  155.3336 H   0  0  0  0  0  0  0  0  0  0  0  0  # atno 10763 bound_to 10752
  154.8231  135.4589  154.0841 H   0  0  0  0  0  0  0  0  0  0  0  0  # atno 10764 bound_to 10752
  153.2071  135.6930  153.8243 H   0  0  0  0  0  0  0  0  0  0  0  0  # atno 10765 bound_to 10752
  139.9005  134.8206  156.2425 H   0  0  0  0  0  0  0  0  0  0  0  0  # atno 11005 bound_to 11000
  145.2199  139.2164  143.5098 LP  0  0  0  0  0  0  0  0  0  0  0  0  # atno 17320 bound_to 7965
  146.3445  140.2055  142.8589 LP  0  0  0  0  0  0  0  0  0  0  0  0  # atno 17321 bound_to 7965
  139.8609  144.7117  150.9100 LP  0  0  0  0  0  0  0  0  0  0  0  0  # atno 17342 bound_to 10162
  140.7786  143.3818  151.1463 LP  0  0  0  0  0  0  0  0  0  0  0  0  # atno 17343 bound_to 10162
  157.5799  131.0946  150.9287 LP  0  0  0  0  0  0  0  0  0  0  0  0  # atno 17370 bound_to 10713
  156.9485  130.5411  149.5282 LP  0  0  0  0  0  0  0  0  0  0  0  0  # atno 17371 bound_to 10713
  141.0276  133.7006  156.1374 LP  0  0  0  0  0  0  0  0  0  0  0  0  # atno 17394 bound_to 11000
  140.7144  134.4427  157.5579 LP  0  0  0  0  0  0  0  0  0  0  0  0  # atno 17395 bound_to 11000

$$$$
