AV-unprocessed.smi:395|AV-procd|sdf|2486|dock9
  -GOLD-   2262022433D 1   1.00000     0.00000
 Structure written by MMmdl.
 34 35  0  0  0  0  0  0  0  0  1 V2000
  149.0886  132.7441  153.4913 C   0  0  0  0  0  0  0  0  0  0  0  0
  148.8509  133.9343  154.0696 C   0  0  0  0  0  0  0  0  0  0  0  0
  149.8141  134.7386  154.9322 C   0  0  0  0  0  0  0  0  0  0  0  0
  150.2242  136.0099  154.3416 N   0  0  0  0  0  0  0  0  0  0  0  0
  151.1604  136.8289  154.8446 C   0  0  0  0  0  0  0  0  0  0  0  0
  151.8079  136.5700  155.8600 O   0  0  0  0  0  0  0  0  0  0  0  0
  151.3936  138.1379  154.0757 C   0  0  0  0  0  0  0  0  0  0  0  0
  150.7912  139.3125  154.7431 N   0  0  0  0  0  0  0  0  0  0  0  0
  151.5297  139.9837  155.7510 C   0  0  0  0  0  0  0  0  0  0  0  0
  152.6688  139.6230  156.0519 O   0  0  0  0  0  0  0  0  0  0  0  0
  150.8408  141.0980  156.3980 C   0  0  0  0  0  0  0  0  0  0  0  0
  151.5373  141.7772  157.4400 C   0  0  0  0  0  0  0  0  0  0  0  0
  152.0809  142.3353  158.2959 N   0  0  0  0  0  0  0  0  0  0  0  0
  149.5952  141.4566  156.0245 C   0  0  0  0  0  0  0  0  0  0  0  0
  148.9099  140.8153  155.0158 N   0  0  0  0  0  0  0  0  0  0  0  0
  147.5300  141.1066  154.7464 C   0  0  0  0  0  0  0  0  0  0  0  0
  147.0250  141.1733  153.3183 C   0  0  0  0  0  0  0  0  0  0  0  0
  147.1690  142.4392  154.1276 C   0  0  0  0  0  0  0  0  0  0  0  0
  149.4746  139.6880  154.3804 C   0  0  0  0  0  0  0  0  0  0  0  0
  148.8391  139.0410  153.5437 O   0  0  0  0  0  0  0  0  0  0  0  0
  150.0339  132.2321  153.5947 H   0  0  0  0  0  0  0  0  0  0  0  0
  148.3265  132.2617  152.8977 H   0  0  0  0  0  0  0  0  0  0  0  0
  147.8808  134.3865  153.9234 H   0  0  0  0  0  0  0  0  0  0  0  0
  149.3618  134.9024  155.9116 H   0  0  0  0  0  0  0  0  0  0  0  0
  150.7071  134.1369  155.1006 H   0  0  0  0  0  0  0  0  0  0  0  0
  149.7436  136.2980  153.5015 H   0  0  0  0  0  0  0  0  0  0  0  0
  152.4678  138.2599  153.9311 H   0  0  0  0  0  0  0  0  0  0  0  0
  150.9995  138.0384  153.0625 H   0  0  0  0  0  0  0  0  0  0  0  0
  149.1147  142.2811  156.5316 H   0  0  0  0  0  0  0  0  0  0  0  0
  146.8240  140.7196  155.4792 H   0  0  0  0  0  0  0  0  0  0  0  0
  147.7383  141.0162  152.5113 H   0  0  0  0  0  0  0  0  0  0  0  0
  146.0179  140.8095  153.1265 H   0  0  0  0  0  0  0  0  0  0  0  0
  146.2569  142.9214  154.4732 H   0  0  0  0  0  0  0  0  0  0  0  0
  147.9780  143.1145  153.8556 H   0  0  0  0  0  0  0  0  0  0  0  0
  1  2  2  0  0  0  0
  1 21  1  0  0  0  0
  1 22  1  0  0  0  0
  2  3  1  0  0  0  0
  2 23  1  0  0  0  0
  3  4  1  0  0  0  0
  3 24  1  0  0  0  0
  3 25  1  0  0  0  0
  4  5  1  0  0  0  0
  4 26  1  0  0  0  0
  5  6  2  0  0  0  0
  5  7  1  0  0  0  0
  7  8  1  0  0  0  0
  7 27  1  0  0  0  0
  7 28  1  0  0  0  0
  8 19  1  0  0  0  0
  8  9  1  0  0  0  0
  9 10  2  0  0  0  0
  9 11  1  0  0  0  0
 11 12  1  0  0  0  0
 11 14  2  0  0  0  0
 12 13  3  0  0  0  0
 14 15  1  0  0  0  0
 14 29  1  0  0  0  0
 15 16  1  0  0  0  0
 15 19  1  0  0  0  0
 16 18  1  0  0  0  0
 16 17  1  0  0  0  0
 16 30  1  0  0  0  0
 17 18  1  0  0  0  0
 17 31  1  0  0  0  0
 17 32  1  0  0  0  0
 18 33  1  0  0  0  0
 18 34  1  0  0  0  0
 19 20  2  0  0  0  0
M  END
> <s_m_source_file>
AV-unprocessed.smi

> <i_m_source_file_index>
395

> <i_lp_mmshare_version>
43012

> <i_f3d_flags>
0

> <s_epik_input>
W0NIMl09W0NIXVtDSDJdW05IXUMoPU8pW0NIMl1uMWMoPU8pYyhDI04pW2NIXW4oYzE9TylbQ0hdMltDSDJdW0NIMl0y

> <s_epik_cmdline>
J2VwaWtfcHl0aG9uJywgJy1waCcsICc3LjAnLCAnLXRuJywgJzgnLCAnLW1hJywgJzIwMCcsICctbWV0YWxfYmluZGluZycsICctaW1hZScsICc8aW5maWxlLm1hZT4nLCAnLW9tYWUnLCAnPG91dGZpbGUubWFlPic=

> <r_lp_tautomer_probability>
1

> <r_epik_Ionization_Penalty>
1.93471e-08

> <r_epik_Ionization_Penalty_Charging>
8.01404e-11

> <r_epik_Ionization_Penalty_Neutral>
1.9267e-08

> <r_epik_State_Penalty>
-0

> <r_epik_Charging_Adjusted_Penalty>
8.01404e-11

> <i_epik_Tot_Q>
0

> <i_epik_Tot_abs_Q>
0

> <r_epik_Metal_State_Penalty>
-0

> <b_epik_Metal_Only>
0

> <s_lp_Force_Field>
OPLS_2005

> <r_lp_Energy>
28.6083

> <b_lp_Chiralities_Consistent>
1

> <s_lp_Variant>
AV-unprocessed.smi:395-1

> <Gold.Version>
5.8.1

> <Gold.Id.Protein>
6NUR|6NUR_protein|mol2

> <Gold.PLP.Fitness>
48.9207

> <Gold.PLP.PLP>
-38.9476

> <Gold.PLP.part.hbond>
-3.9267

> <Gold.PLP.part.metal>
0.0000

> <Gold.PLP.part.buried>
-3.0261

> <Gold.PLP.part.nonpolar>
-32.2876

> <Gold.PLP.part.repulsive>
2.8568

> <Gold.PLP.ligand.clash>
0.0000

> <Gold.PLP.ligand.torsion>
0.8567

> <Gold.PLP.Chemscore.Hbond>
3.0000

> <Gold.PLP.Chemscore.CHOScore>
0.8240

> <Gold.PLP.Chemscore.Metal>
0.0000

> <Gold.Chemscore.Hbonds>
donor molecule, donor type, donor heavy atom, donor atom, acceptor molecule, acceptor atom, score
      L1  H     4    26       P1  7948  1.00
      P1  H  7997  8010       L1    10  1.00
      P1  H 10752 10765       L1     6  0.99
      L1  C    14    29       P1  8028  0.78

> <Gold.PLP.Chemscore.Internal.Correction>
0.2146

> <Gold.Rescore>
     Score         DG    S(hbond)    S(metal)    S(lipo)     H(rot)  DE(clash)    DE(int)     intcor
     12.43     -14.80       2.59        0.00      51.28       2.09       0.05       2.32       ----

> <Gold.Chemscore.Fitness>
12.4298

> <Gold.Chemscore.DG>
-14.7966

> <Gold.Chemscore.ZeroCoef>
-5.4800

> <Gold.Chemscore.Hbond>
2.5939

> <Gold.Chemscore.Metal>
0.0000

> <Gold.Chemscore.Lipo>
51.2808

> <Gold.Chemscore.Internal_Hbond>
0.0000

> <Gold.Chemscore.DEClash>
0.0496

> <Gold.Chemscore.DEInternal>
2.3173

> <Gold.Chemscore.Rot>
2.0886

> <Gold.Chemscore.Internal.Correction>
   9.000000E+99

> <Gold.Chemscore.Hbonds>
donor molecule, donor type, donor heavy atom, donor atom, acceptor molecule, acceptor atom, score
      L1  H     4    26       P1  7948  0.25
      P1  H  7997  8010       L1    10  1.00
      P1  H 10752 10765       L1     6  0.32

> <Gold.Chemscore.Hbond.Weighted>
-8.6636

> <Gold.Chemscore.Metal.Weighted>
-0.0000

> <Gold.Chemscore.Lipo.Weighted>
-5.9999

> <Gold.Chemscore.Internal_Hbond.Weighted>
0.0000

> <Gold.Chemscore.DEClash.Weighted>
0.0496

> <Gold.Chemscore.DEInternal.Weighted>
2.3173

> <Gold.Chemscore.Rot.Weighted>
5.3469

> <Gold.Chemscore.Internal.Correction.Weighted>
   9.000000E+99

> <Gold.Protein.RotatedTorsions>
[ 6907 6896 6895 6894 ] final  -17.35 input  -60.11 | X-H torsion
[ 7974 7965 7964 7962 ] final -173.85 input  175.53 | X-H torsion
[ 8008 7997 7996 7995 ] final   89.53 input   59.86 | X-H torsion
[ 10167 10162 10161 10158 ] final   -6.37 input  -65.29 | X-H torsion
[ 10718 10713 10712 10709 ] final  -83.92 input   66.30 | X-H torsion
[ 10763 10752 10751 10750 ] final -141.26 input  -60.55 | X-H torsion
[ 11005 11000 10999 10996 ] final  155.96 input  -57.11 | X-H torsion

> <Gold.Protein.ActiveResidues>
 VAL166  LYS551  ARG553  GLY616  TRP617  ASP618  TYR619  PRO620  LYS621  CYS622 
 ASP623  PHE694  ASN695  SER759  ASP760  ASP761  ALA762  ILE779  LEU786  VAL792 
 PHE793  MET794  SER795  GLU796  ALA797  LYS798  CYS799  TRP800  GLU811  SER814 

> <Gold.Protein.RotatedAtoms>
  151.2947  135.0752  159.9216 H   0  0  0  0  0  0  0  0  0  0  0  0  # atno 6907 bound_to 6896
  152.5309  133.9895  159.7854 H   0  0  0  0  0  0  0  0  0  0  0  0  # atno 6908 bound_to 6896
  151.0172  133.5859  159.2706 H   0  0  0  0  0  0  0  0  0  0  0  0  # atno 6909 bound_to 6896
  144.7135  140.1561  143.6380 H   0  0  0  0  0  0  0  0  0  0  0  0  # atno 7974 bound_to 7965
  156.0010  140.3359  155.6846 H   0  0  0  0  0  0  0  0  0  0  0  0  # atno 8008 bound_to 7997
  155.6290  140.0683  157.2672 H   0  0  0  0  0  0  0  0  0  0  0  0  # atno 8009 bound_to 7997
  154.4249  140.1763  156.1440 H   0  0  0  0  0  0  0  0  0  0  0  0  # atno 8010 bound_to 7997
  140.6994  143.6202  150.8619 H   0  0  0  0  0  0  0  0  0  0  0  0  # atno 10167 bound_to 10162
  156.0012  130.4681  150.4331 H   0  0  0  0  0  0  0  0  0  0  0  0  # atno 10718 bound_to 10713
  154.8551  135.3529  154.5839 H   0  0  0  0  0  0  0  0  0  0  0  0  # atno 10763 bound_to 10752
  153.6449  135.6996  153.5233 H   0  0  0  0  0  0  0  0  0  0  0  0  # atno 10764 bound_to 10752
  153.2940  135.4226  155.1152 H   0  0  0  0  0  0  0  0  0  0  0  0  # atno 10765 bound_to 10752
  140.1631  134.8596  157.2598 H   0  0  0  0  0  0  0  0  0  0  0  0  # atno 11005 bound_to 11000
  145.9073  139.2466  143.1458 LP  0  0  0  0  0  0  0  0  0  0  0  0  # atno 17320 bound_to 7965
  145.9751  140.8728  143.0142 LP  0  0  0  0  0  0  0  0  0  0  0  0  # atno 17321 bound_to 7965
  139.9923  143.5833  152.2906 LP  0  0  0  0  0  0  0  0  0  0  0  0  # atno 17342 bound_to 10162
  139.6493  144.7660  151.2180 LP  0  0  0  0  0  0  0  0  0  0  0  0  # atno 17343 bound_to 10162
  157.2378  131.0518  151.2454 LP  0  0  0  0  0  0  0  0  0  0  0  0  # atno 17370 bound_to 10713
  157.3649  130.7151  149.6526 LP  0  0  0  0  0  0  0  0  0  0  0  0  # atno 17371 bound_to 10713
  140.2466  134.3732  155.7459 LP  0  0  0  0  0  0  0  0  0  0  0  0  # atno 17394 bound_to 11000
  141.2211  133.7294  156.8872 LP  0  0  0  0  0  0  0  0  0  0  0  0  # atno 17395 bound_to 11000

$$$$
