AV-unprocessed.smi:3236|AV-procd|sdf|12362|dock5
  -GOLD-   2272018223D 1   1.00000     0.00000
 Structure written by MMmdl.
 40 41  0  0  0  0  0  0  0  0  1 V2000
  151.8387  145.2973  158.7800 C   0  0  0  0  0  0  0  0  0  0  0  0
  151.6969  143.9123  159.4260 C   0  0  0  0  0  0  0  0  0  0  0  0
  152.7995  143.6557  160.4759 C   0  0  0  0  0  0  0  0  0  0  0  0
  152.7043  142.2285  161.0450 C   0  0  0  0  0  0  0  0  0  0  0  0
  152.7836  141.2707  159.9336 N   0  0  0  0  0  0  0  0  0  0  0  0
  153.8236  140.4387  159.6808 C   0  0  0  0  0  0  0  0  0  0  0  0
  153.8465  139.7004  158.6936 O   0  0  0  0  0  0  0  0  0  0  0  0
  155.0158  140.4214  160.6533 C   0  0  0  0  0  0  0  0  0  0  0  0
  154.6439  140.0213  162.0160 N   0  0  0  0  0  0  0  0  0  0  0  0
  155.8090  140.0047  162.8891 C   0  0  0  0  0  0  0  0  0  0  0  0
  155.5343  139.1356  164.1279 C   0  0  0  0  0  0  0  0  0  0  0  0
  154.9829  137.8371  163.7837 N   0  0  0  0  0  0  0  0  0  0  0  0
  154.3111  136.9489  164.5968 C   0  0  0  0  0  0  0  0  0  0  0  0
  153.9893  135.8632  163.8338 C   0  0  0  0  0  0  0  0  0  0  0  0
  154.5139  136.1845  162.5507 C   0  0  0  0  0  0  0  0  0  0  0  0
  155.1063  137.3677  162.5230 N   0  0  0  0  0  0  0  0  0  0  0  0
  151.6328  141.3993  159.0302 C   0  0  0  0  0  0  0  0  0  0  0  0
  151.6722  142.7886  158.3679 C   0  0  0  0  0  0  0  0  0  0  0  0
  152.7809  145.3882  158.2389 H   0  0  0  0  0  0  0  0  0  0  0  0
  151.8091  146.0859  159.5323 H   0  0  0  0  0  0  0  0  0  0  0  0
  151.0296  145.4855  158.0739 H   0  0  0  0  0  0  0  0  0  0  0  0
  150.7387  143.8910  159.9471 H   0  0  0  0  0  0  0  0  0  0  0  0
  153.7823  143.7992  160.0244 H   0  0  0  0  0  0  0  0  0  0  0  0
  152.7213  144.3824  161.2852 H   0  0  0  0  0  0  0  0  0  0  0  0
  153.4683  142.0847  161.8069 H   0  0  0  0  0  0  0  0  0  0  0  0
  151.7529  142.0973  161.5626 H   0  0  0  0  0  0  0  0  0  0  0  0
  155.7724  139.7333  160.2732 H   0  0  0  0  0  0  0  0  0  0  0  0
  155.4536  141.4202  160.6845 H   0  0  0  0  0  0  0  0  0  0  0  0
  154.2031  139.1126  162.0258 H   0  0  0  0  0  0  0  0  0  0  0  0
  156.6607  139.5976  162.3424 H   0  0  0  0  0  0  0  0  0  0  0  0
  156.0739  141.0194  163.1901 H   0  0  0  0  0  0  0  0  0  0  0  0
  156.4475  138.9890  164.7062 H   0  0  0  0  0  0  0  0  0  0  0  0
  154.8284  139.6426  164.7872 H   0  0  0  0  0  0  0  0  0  0  0  0
  154.1235  137.1597  165.6394 H   0  0  0  0  0  0  0  0  0  0  0  0
  153.4619  134.9743  164.1455 H   0  0  0  0  0  0  0  0  0  0  0  0
  154.4821  135.5968  161.6452 H   0  0  0  0  0  0  0  0  0  0  0  0
  151.6062  140.6251  158.2623 H   0  0  0  0  0  0  0  0  0  0  0  0
  150.7107  141.2811  159.6010 H   0  0  0  0  0  0  0  0  0  0  0  0
  150.8088  142.9099  157.7129 H   0  0  0  0  0  0  0  0  0  0  0  0
  152.5559  142.8596  157.7316 H   0  0  0  0  0  0  0  0  0  0  0  0
  1  2  1  0  0  0  0
  1 19  1  0  0  0  0
  1 20  1  0  0  0  0
  1 21  1  0  0  0  0
  2 18  1  0  0  0  0
  2  3  1  0  0  0  0
  2 22  1  0  0  0  0
  3  4  1  0  0  0  0
  3 23  1  0  0  0  0
  3 24  1  0  0  0  0
  4  5  1  0  0  0  0
  4 25  1  0  0  0  0
  4 26  1  0  0  0  0
  5  6  1  0  0  0  0
  5 17  1  0  0  0  0
  6  7  2  0  0  0  0
  6  8  1  0  0  0  0
  8  9  1  0  0  0  0
  8 27  1  0  0  0  0
  8 28  1  0  0  0  0
  9 10  1  0  0  0  0
  9 29  1  0  0  0  0
 10 11  1  0  0  0  0
 10 30  1  0  0  0  0
 10 31  1  0  0  0  0
 11 12  1  0  0  0  0
 11 32  1  0  0  0  0
 11 33  1  0  0  0  0
 12 16  1  0  0  0  0
 12 13  1  0  0  0  0
 13 14  2  0  0  0  0
 13 34  1  0  0  0  0
 14 15  1  0  0  0  0
 14 35  1  0  0  0  0
 15 16  2  0  0  0  0
 15 36  1  0  0  0  0
 17 18  1  0  0  0  0
 17 37  1  0  0  0  0
 17 38  1  0  0  0  0
 18 39  1  0  0  0  0
 18 40  1  0  0  0  0
M  END
> <s_m_source_file>
AV-unprocessed.smi

> <i_m_source_file_index>
3236

> <i_lp_mmshare_version>
43012

> <i_f3d_flags>
0

> <s_epik_input>
W0NIM11bQ0hdMVtDSDJdW0NIMl1OKFtDSDJdW0NIMl0xKUMoPU8pW0NIMl1bTkhdW0NIMl1bQ0gyXW4yW2NIXVtjSF1bY0hdbjI=

> <s_epik_cmdline>
J2VwaWtfcHl0aG9uJywgJy1waCcsICc3LjAnLCAnLXRuJywgJzgnLCAnLW1hJywgJzIwMCcsICctbWV0YWxfYmluZGluZycsICctaW1hZScsICc8aW5maWxlLm1hZT4nLCAnLW9tYWUnLCAnPG91dGZpbGUubWFlPic=

> <r_lp_tautomer_probability>
1

> <r_epik_Ionization_Penalty>
0.778591

> <r_epik_Ionization_Penalty_Charging>
0

> <r_epik_Ionization_Penalty_Neutral>
0.778591

> <r_epik_State_Penalty>
0.806071

> <r_epik_Charging_Adjusted_Penalty>
0.806071

> <i_epik_Tot_Q>
0

> <i_epik_Tot_abs_Q>
0

> <r_epik_Metal_State_Penalty>
0.80479

> <b_epik_Metal_Only>
0

> <s_lp_Force_Field>
OPLS_2005

> <r_lp_Energy>
26.1059

> <b_lp_Chiralities_Consistent>
1

> <s_lp_Variant>
AV-unprocessed.smi:3236-2

> <Gold.Version>
5.8.1

> <Gold.Id.Protein>
6NUR|6NUR_protein|mol2

> <Gold.PLP.Fitness>
44.6992

> <Gold.PLP.PLP>
-42.4141

> <Gold.PLP.part.hbond>
-1.0000

> <Gold.PLP.part.metal>
0.0000

> <Gold.PLP.part.buried>
-4.5946

> <Gold.PLP.part.nonpolar>
-36.9622

> <Gold.PLP.part.repulsive>
0.0000

> <Gold.PLP.ligand.clash>
0.0000

> <Gold.PLP.ligand.torsion>
0.3752

> <Gold.PLP.Chemscore.Hbond>
1.0000

> <Gold.PLP.Chemscore.CHOScore>
0.0000

> <Gold.PLP.Chemscore.Metal>
0.0000

> <Gold.Chemscore.Hbonds>
donor molecule, donor type, donor heavy atom, donor atom, acceptor molecule, acceptor atom, score
      P1  H  7997  8010       L1     7  1.00

> <Gold.PLP.Chemscore.Internal.Correction>
0.0356

> <Gold.Rescore>
     Score         DG    S(hbond)    S(metal)    S(lipo)     H(rot)  DE(clash)    DE(int)     intcor
     17.11     -17.54       0.99        0.00     112.61       1.73       0.03       0.40       ----

> <Gold.Chemscore.Fitness>
17.1124

> <Gold.Chemscore.DG>
-17.5445

> <Gold.Chemscore.ZeroCoef>
-5.4800

> <Gold.Chemscore.Hbond>
0.9929

> <Gold.Chemscore.Metal>
0.0000

> <Gold.Chemscore.Lipo>
112.6141

> <Gold.Chemscore.Internal_Hbond>
0.0000

> <Gold.Chemscore.DEClash>
0.0315

> <Gold.Chemscore.DEInternal>
0.4006

> <Gold.Chemscore.Rot>
1.7296

> <Gold.Chemscore.Internal.Correction>
   9.000000E+99

> <Gold.Chemscore.Hbonds>
donor molecule, donor type, donor heavy atom, donor atom, acceptor molecule, acceptor atom, score
      P1  H  7997  8010       L1     7  0.99

> <Gold.Chemscore.Hbond.Weighted>
-3.3164

> <Gold.Chemscore.Metal.Weighted>
-0.0000

> <Gold.Chemscore.Lipo.Weighted>
-13.1758

> <Gold.Chemscore.Internal_Hbond.Weighted>
0.0000

> <Gold.Chemscore.DEClash.Weighted>
0.0315

> <Gold.Chemscore.DEInternal.Weighted>
0.4006

> <Gold.Chemscore.Rot.Weighted>
4.4278

> <Gold.Chemscore.Internal.Correction.Weighted>
   9.000000E+99

> <Gold.Protein.RotatedTorsions>
[ 6907 6896 6895 6894 ] final  171.24 input  -60.11 | X-H torsion
[ 7974 7965 7964 7962 ] final -170.51 input  175.53 | X-H torsion
[ 8008 7997 7996 7995 ] final   15.12 input   59.86 | X-H torsion
[ 10167 10162 10161 10158 ] final   29.46 input  -65.29 | X-H torsion
[ 10718 10713 10712 10709 ] final   19.52 input   66.30 | X-H torsion
[ 10763 10752 10751 10750 ] final  -44.07 input  -60.55 | X-H torsion
[ 11005 11000 10999 10996 ] final   -0.53 input  -57.11 | X-H torsion

> <Gold.Protein.ActiveResidues>
 VAL166  LYS551  ARG553  GLY616  TRP617  ASP618  TYR619  PRO620  LYS621  CYS622 
 ASP623  PHE694  ASN695  SER759  ASP760  ASP761  ALA762  ILE779  LEU786  VAL792 
 PHE793  MET794  SER795  GLU796  ALA797  LYS798  CYS799  TRP800  GLU811  SER814 

> <Gold.Protein.RotatedAtoms>
  151.8034  133.3373  159.3533 H   0  0  0  0  0  0  0  0  0  0  0  0  # atno 6907 bound_to 6896
  150.7350  134.5732  159.5910 H   0  0  0  0  0  0  0  0  0  0  0  0  # atno 6908 bound_to 6896
  152.3127  134.7479  160.0384 H   0  0  0  0  0  0  0  0  0  0  0  0  # atno 6909 bound_to 6896
  144.7169  140.2061  143.6333 H   0  0  0  0  0  0  0  0  0  0  0  0  # atno 7974 bound_to 7965
  154.8582  140.2940  155.5556 H   0  0  0  0  0  0  0  0  0  0  0  0  # atno 8008 bound_to 7997
  156.3019  140.2483  156.3484 H   0  0  0  0  0  0  0  0  0  0  0  0  # atno 8009 bound_to 7997
  154.8947  140.0393  157.1848 H   0  0  0  0  0  0  0  0  0  0  0  0  # atno 8010 bound_to 7997
  140.4763  144.0685  150.6252 H   0  0  0  0  0  0  0  0  0  0  0  0  # atno 10167 bound_to 10162
  157.1116  130.6511  149.5899 H   0  0  0  0  0  0  0  0  0  0  0  0  # atno 10718 bound_to 10713
  154.0060  135.6687  153.4762 H   0  0  0  0  0  0  0  0  0  0  0  0  # atno 10763 bound_to 10752
  153.0641  135.5011  154.8157 H   0  0  0  0  0  0  0  0  0  0  0  0  # atno 10764 bound_to 10752
  154.7024  135.3081  154.9285 H   0  0  0  0  0  0  0  0  0  0  0  0  # atno 10765 bound_to 10752
  140.6373  133.9521  155.8306 H   0  0  0  0  0  0  0  0  0  0  0  0  # atno 11005 bound_to 11000
  145.8634  139.2234  143.1703 LP  0  0  0  0  0  0  0  0  0  0  0  0  # atno 17320 bound_to 7965
  146.0152  140.8399  142.9951 LP  0  0  0  0  0  0  0  0  0  0  0  0  # atno 17321 bound_to 7965
  140.3914  143.2750  152.0056 LP  0  0  0  0  0  0  0  0  0  0  0  0  # atno 17342 bound_to 10162
  139.4826  144.6074  151.7496 LP  0  0  0  0  0  0  0  0  0  0  0  0  # atno 17343 bound_to 10162
  155.9849  130.4876  150.7006 LP  0  0  0  0  0  0  0  0  0  0  0  0  # atno 17370 bound_to 10713
  157.4554  131.0877  151.0802 LP  0  0  0  0  0  0  0  0  0  0  0  0  # atno 17371 bound_to 10713
  141.0632  134.0315  157.3629 LP  0  0  0  0  0  0  0  0  0  0  0  0  # atno 17394 bound_to 11000
  139.9093  135.0187  156.7625 LP  0  0  0  0  0  0  0  0  0  0  0  0  # atno 17395 bound_to 11000

$$$$
