AV-unprocessed.smi:99|AV-procd|sdf|874|dock5
  -GOLD-   2262017343D 1   1.00000     0.00000
 Structure written by MMmdl.
 53 56  0  0  0  0  0  0  0  0  1 V2000
  144.1971  136.0211  154.1638 O   0  0  0  0  0  0  0  0  0  0  0  0
  145.0354  135.1252  154.0425 C   0  0  0  0  0  0  0  0  0  0  0  0
  146.0108  134.8905  154.9421 O   0  0  0  0  0  0  0  0  0  0  0  0
  146.2325  135.8072  156.0009 C   0  0  0  0  0  0  0  0  0  0  0  0
  147.4408  135.3497  156.8238 C   0  0  1  0  0  0  0  0  0  0  0  0
  148.6292  135.4900  156.0607 O   0  0  0  0  0  0  0  0  0  0  0  0
  149.7164  135.6610  156.9148 C   0  0  1  0  0  0  0  0  0  0  0  0
  150.6080  136.7268  156.3126 N   0  0  0  0  0  0  0  0  0  0  0  0
  150.1555  137.5112  155.2601 C   0  0  0  0  0  0  0  0  0  0  0  0
  150.9114  138.4688  154.6734 C   0  0  0  0  0  0  0  0  0  0  0  0
  152.2722  138.7230  155.1357 C   0  0  0  0  0  0  0  0  0  0  0  0
  153.0338  139.5663  154.6673 O   0  0  0  0  0  0  0  0  0  0  0  0
  152.6850  137.9133  156.1980 N   0  0  0  0  0  0  0  0  0  0  0  0
  151.9142  136.9248  156.8129 C   0  0  0  0  0  0  0  0  0  0  0  0
  152.3793  136.2801  157.7517 O   0  0  0  0  0  0  0  0  0  0  0  0
  149.1782  136.0391  158.3131 C   0  0  1  0  0  0  0  0  0  0  0  0
  149.7400  137.2153  158.8670 O   0  0  0  0  0  0  0  0  0  0  0  0
  147.6881  136.2207  158.0552 C   0  0  2  0  0  0  0  0  0  0  0  0
  146.9237  135.7240  159.1468 O   0  0  0  0  0  0  0  0  0  0  0  0
  146.9612  136.3356  160.3500 C   0  0  0  0  0  0  0  0  0  0  0  0
  147.7490  137.2404  160.6335 O   0  0  0  0  0  0  0  0  0  0  0  0
  145.9472  135.8008  161.3036 C   0  0  0  0  0  0  0  0  0  0  0  0
  145.9563  134.4229  161.6230 C   0  0  0  0  0  0  0  0  0  0  0  0
  145.0089  133.8870  162.5167 C   0  0  0  0  0  0  0  0  0  0  0  0
  144.0398  134.7227  163.1015 C   0  0  0  0  0  0  0  0  0  0  0  0
  144.0199  136.0952  162.7920 C   0  0  0  0  0  0  0  0  0  0  0  0
  144.9674  136.6333  161.8991 C   0  0  0  0  0  0  0  0  0  0  0  0
  145.0750  134.1866  152.8842 C   0  0  0  0  0  0  0  0  0  0  0  0
  143.9014  133.9758  152.1231 C   0  0  0  0  0  0  0  0  0  0  0  0
  143.9074  133.0949  151.0243 C   0  0  0  0  0  0  0  0  0  0  0  0
  145.0874  132.4141  150.6725 C   0  0  0  0  0  0  0  0  0  0  0  0
  146.2620  132.6166  151.4201 C   0  0  0  0  0  0  0  0  0  0  0  0
  146.2578  133.4968  152.5197 C   0  0  0  0  0  0  0  0  0  0  0  0
  153.6195  138.0570  156.5523 H   0  0  0  0  0  0  0  0  0  0  0  0
  146.3954  136.8143  155.6141 H   0  0  0  0  0  0  0  0  0  0  0  0
  145.3438  135.8365  156.6327 H   0  0  0  0  0  0  0  0  0  0  0  0
  147.3396  134.3042  157.1216 H   0  0  0  0  0  0  0  0  0  0  0  0
  150.2779  134.7258  156.9263 H   0  0  0  0  0  0  0  0  0  0  0  0
  149.1522  137.3607  154.8878 H   0  0  0  0  0  0  0  0  0  0  0  0
  150.5074  139.0507  153.8577 H   0  0  0  0  0  0  0  0  0  0  0  0
  149.3564  135.1946  158.9806 H   0  0  0  0  0  0  0  0  0  0  0  0
  149.2102  137.9525  158.6045 H   0  0  0  0  0  0  0  0  0  0  0  0
  147.4612  137.2597  157.8096 H   0  0  0  0  0  0  0  0  0  0  0  0
  146.6898  133.7608  161.1857 H   0  0  0  0  0  0  0  0  0  0  0  0
  145.0255  132.8331  162.7526 H   0  0  0  0  0  0  0  0  0  0  0  0
  143.3127  134.3112  163.7861 H   0  0  0  0  0  0  0  0  0  0  0  0
  143.2755  136.7371  163.2397 H   0  0  0  0  0  0  0  0  0  0  0  0
  144.9227  137.6905  161.6819 H   0  0  0  0  0  0  0  0  0  0  0  0
  142.9829  134.4870  152.3740 H   0  0  0  0  0  0  0  0  0  0  0  0
  143.0050  132.9417  150.4510 H   0  0  0  0  0  0  0  0  0  0  0  0
  145.0915  131.7381  149.8303 H   0  0  0  0  0  0  0  0  0  0  0  0
  147.1685  132.0953  151.1498 H   0  0  0  0  0  0  0  0  0  0  0  0
  147.1769  133.6294  153.0716 H   0  0  0  0  0  0  0  0  0  0  0  0
  1  2  2  0  0  0  0
  2  3  1  0  0  0  0
  2 28  1  0  0  0  0
  3  4  1  0  0  0  0
  4  5  1  0  0  0  0
  4 35  1  0  0  0  0
  4 36  1  0  0  0  0
  5 18  1  0  0  0  0
  5  6  1  0  0  0  0
  5 37  1  0  0  0  0
  6  7  1  0  0  0  0
  7  8  1  0  0  0  0
  7 16  1  0  0  0  0
  7 38  1  0  0  0  0
  8 14  1  0  0  0  0
  8  9  1  0  0  0  0
  9 10  2  0  0  0  0
  9 39  1  0  0  0  0
 10 11  1  0  0  0  0
 10 40  1  0  0  0  0
 11 12  2  0  0  0  0
 11 13  1  0  0  0  0
 13 34  1  0  0  0  0
 13 14  1  0  0  0  0
 14 15  2  0  0  0  0
 16 17  1  0  0  0  0
 16 18  1  0  0  0  0
 16 41  1  0  0  0  0
 17 42  1  0  0  0  0
 18 19  1  0  0  0  0
 18 43  1  0  0  0  0
 19 20  1  0  0  0  0
 20 21  2  0  0  0  0
 20 22  1  0  0  0  0
 22 27  1  0  0  0  0
 22 23  2  0  0  0  0
 23 24  1  0  0  0  0
 23 44  1  0  0  0  0
 24 25  2  0  0  0  0
 24 45  1  0  0  0  0
 25 26  1  0  0  0  0
 25 46  1  0  0  0  0
 26 27  2  0  0  0  0
 26 47  1  0  0  0  0
 27 48  1  0  0  0  0
 28 33  1  0  0  0  0
 28 29  2  0  0  0  0
 29 30  1  0  0  0  0
 29 49  1  0  0  0  0
 30 31  2  0  0  0  0
 30 50  1  0  0  0  0
 31 32  1  0  0  0  0
 31 51  1  0  0  0  0
 32 33  2  0  0  0  0
 32 52  1  0  0  0  0
 33 53  1  0  0  0  0
M  END
> <s_m_source_file>
AV-unprocessed.smi

> <i_m_source_file_index>
99

> <i_lp_mmshare_version>
43012

> <i_f3d_flags>
0

> <s_epik_input>
W2NIXTFbY0hdW2NIXVtjSF1bY0hdYzFDKD1PKU9bQ0gyXVtDQEBIXTJPW0NAQEhdKG4zW2NIXVtjSF1jKD1PKVtuSF1jMz1PKVtDQEBIXShbT0hdKVtDQEhdMk9DKD1PKWM0W2NIXVtjSF1bY0hdW2NIXVtjSF00

> <s_epik_cmdline>
J2VwaWtfcHl0aG9uJywgJy1waCcsICc3LjAnLCAnLXRuJywgJzgnLCAnLW1hJywgJzIwMCcsICctbWV0YWxfYmluZGluZycsICctaW1hZScsICc8aW5maWxlLm1hZT4nLCAnLW9tYWUnLCAnPG91dGZpbGUubWFlPic=

> <r_lp_tautomer_probability>
1

> <r_epik_Ionization_Penalty>
0.00454555

> <r_epik_Ionization_Penalty_Charging>
0.0045191

> <r_epik_Ionization_Penalty_Neutral>
2.64449e-05

> <r_epik_State_Penalty>
-0

> <r_epik_Charging_Adjusted_Penalty>
0.0045191

> <i_epik_Tot_Q>
0

> <i_epik_Tot_abs_Q>
0

> <r_epik_Metal_State_Penalty>
1.27877

> <b_epik_Metal_Only>
0

> <s_epik_Chemistry_Notes>
This compound has an ester and may undergo hydrolysis at high or low pH. This compound contains an acetal/aminal-like group ( X-CH(R)-Y where X, Y are N, S, or O) that may be acid/base labile, releasing an aldehyde.

> <s_lp_Force_Field>
OPLS_2005

> <r_lp_Energy>
37.9182

> <b_lp_Chiralities_Consistent>
1

> <s_lp_Variant>
AV-unprocessed.smi:99-10

> <Gold.Version>
5.8.1

> <Gold.Id.Protein>
6NUR|6NUR_protein|mol2

> <Gold.PLP.Fitness>
47.7313

> <Gold.PLP.PLP>
-42.2819

> <Gold.PLP.part.hbond>
-4.5440

> <Gold.PLP.part.metal>
0.0000

> <Gold.PLP.part.buried>
-8.8367

> <Gold.PLP.part.nonpolar>
-29.0200

> <Gold.PLP.part.repulsive>
0.2942

> <Gold.PLP.ligand.clash>
0.0000

> <Gold.PLP.ligand.torsion>
1.7677

> <Gold.PLP.Chemscore.Hbond>
2.8270

> <Gold.PLP.Chemscore.CHOScore>
0.0000

> <Gold.PLP.Chemscore.Metal>
0.0000

> <Gold.Chemscore.Hbonds>
donor molecule, donor type, donor heavy atom, donor atom, acceptor molecule, acceptor atom, score
      P1  H  6931  6943       L1    21  0.70
      P1  H  6934  6947       L1    21  0.88
      P1  H  7989  7998       L1    12  0.22
      P1  H  7997  8008       L1    12  1.00

> <Gold.PLP.Chemscore.Internal.Correction>
0.5037

> <Gold.Rescore>
     Score         DG    S(hbond)    S(metal)    S(lipo)     H(rot)  DE(clash)    DE(int)     intcor
     12.65     -16.69       2.58        0.00      91.95       3.19       0.06       3.97       ----

> <Gold.Chemscore.Fitness>
12.6484

> <Gold.Chemscore.DG>
-16.6852

> <Gold.Chemscore.ZeroCoef>
-5.4800

> <Gold.Chemscore.Hbond>
2.5791

> <Gold.Chemscore.Metal>
0.0000

> <Gold.Chemscore.Lipo>
91.9499

> <Gold.Chemscore.Internal_Hbond>
0.0000

> <Gold.Chemscore.DEClash>
0.0646

> <Gold.Chemscore.DEInternal>
3.9722

> <Gold.Chemscore.Rot>
3.1903

> <Gold.Chemscore.Internal.Correction>
   9.000000E+99

> <Gold.Chemscore.Hbonds>
donor molecule, donor type, donor heavy atom, donor atom, acceptor molecule, acceptor atom, score
      P1  H  6931  6943       L1    21  0.67
      P1  H  6934  6947       L1    21  0.86
      P1  H  7989  7998       L1    12  0.10
      P1  H  7997  8008       L1    12  0.91

> <Gold.Chemscore.Hbond.Weighted>
-8.6142

> <Gold.Chemscore.Metal.Weighted>
-0.0000

> <Gold.Chemscore.Lipo.Weighted>
-10.7581

> <Gold.Chemscore.Internal_Hbond.Weighted>
0.0000

> <Gold.Chemscore.DEClash.Weighted>
0.0646

> <Gold.Chemscore.DEInternal.Weighted>
3.9722

> <Gold.Chemscore.Rot.Weighted>
8.1671

> <Gold.Chemscore.Internal.Correction.Weighted>
   9.000000E+99

> <Gold.Protein.RotatedTorsions>
[ 6907 6896 6895 6894 ] final    1.85 input  -60.11 | X-H torsion
[ 7974 7965 7964 7962 ] final  -16.87 input  175.53 | X-H torsion
[ 8008 7997 7996 7995 ] final    7.84 input   59.86 | X-H torsion
[ 10167 10162 10161 10158 ] final  158.63 input  -65.29 | X-H torsion
[ 10718 10713 10712 10709 ] final   62.72 input   66.30 | X-H torsion
[ 10763 10752 10751 10750 ] final    2.94 input  -60.55 | X-H torsion
[ 11005 11000 10999 10996 ] final    8.19 input  -57.11 | X-H torsion

> <Gold.Protein.ActiveResidues>
 VAL166  LYS551  ARG553  GLY616  TRP617  ASP618  TYR619  PRO620  LYS621  CYS622 
 ASP623  PHE694  ASN695  SER759  ASP760  ASP761  ALA762  ILE779  LEU786  VAL792 
 PHE793  MET794  SER795  GLU796  ALA797  LYS798  CYS799  TRP800  GLU811  SER814 

> <Gold.Protein.RotatedAtoms>
  151.5994  135.1048  160.0056 H   0  0  0  0  0  0  0  0  0  0  0  0  # atno 6907 bound_to 6896
  152.4265  133.7201  159.6539 H   0  0  0  0  0  0  0  0  0  0  0  0  # atno 6908 bound_to 6896
  150.8155  133.8273  159.3185 H   0  0  0  0  0  0  0  0  0  0  0  0  # atno 6909 bound_to 6896
  146.1967  140.3698  142.8438 H   0  0  0  0  0  0  0  0  0  0  0  0  # atno 7974 bound_to 7965
  154.7591  140.2781  155.6229 H   0  0  0  0  0  0  0  0  0  0  0  0  # atno 8008 bound_to 7997
  156.2912  140.2663  156.2291 H   0  0  0  0  0  0  0  0  0  0  0  0  # atno 8009 bound_to 7997
  155.0040  140.0372  157.2362 H   0  0  0  0  0  0  0  0  0  0  0  0  # atno 8010 bound_to 7997
  139.4828  144.4806  151.8449 H   0  0  0  0  0  0  0  0  0  0  0  0  # atno 10167 bound_to 10162
  157.5921  130.9066  149.9624 H   0  0  0  0  0  0  0  0  0  0  0  0  # atno 10718 bound_to 10713
  153.2894  135.6947  153.7308 H   0  0  0  0  0  0  0  0  0  0  0  0  # atno 10763 bound_to 10752
  153.6264  135.3418  155.3028 H   0  0  0  0  0  0  0  0  0  0  0  0  # atno 10764 bound_to 10752
  154.8519  135.4398  154.1972 H   0  0  0  0  0  0  0  0  0  0  0  0  # atno 10765 bound_to 10752
  140.5398  134.0385  155.7900 H   0  0  0  0  0  0  0  0  0  0  0  0  # atno 11005 bound_to 11000
  144.8596  140.7121  143.6116 LP  0  0  0  0  0  0  0  0  0  0  0  0  # atno 17320 bound_to 7965
  145.3618  139.1680  143.4379 LP  0  0  0  0  0  0  0  0  0  0  0  0  # atno 17321 bound_to 7965
  140.4282  144.2152  150.5887 LP  0  0  0  0  0  0  0  0  0  0  0  0  # atno 17342 bound_to 10162
  140.4806  143.2380  151.8960 LP  0  0  0  0  0  0  0  0  0  0  0  0  # atno 17343 bound_to 10162
  156.0977  130.3658  150.0276 LP  0  0  0  0  0  0  0  0  0  0  0  0  # atno 17370 bound_to 10713
  156.8397  130.9421  151.3632 LP  0  0  0  0  0  0  0  0  0  0  0  0  # atno 17371 bound_to 10713
  141.1234  133.9424  157.2685 LP  0  0  0  0  0  0  0  0  0  0  0  0  # atno 17394 bound_to 11000
  139.9510  135.0175  156.8993 LP  0  0  0  0  0  0  0  0  0  0  0  0  # atno 17395 bound_to 11000

$$$$
