AV-unprocessed.smi:540|AV-procd|sdf|2870|dock7
  -GOLD-   2262023363D 1   1.00000     0.00000
 Structure written by MMmdl.
 48 50  0  0  0  0  0  0  0  0  2 V2000
  148.0643  140.5647  154.0878 C   0  0  0  0  0  0  0  0  0  0  0  0
  148.7474  139.2158  153.8533 C   0  0  0  0  0  0  0  0  0  0  0  0
  150.1245  139.3499  154.1536 O   0  0  0  0  0  0  0  0  0  0  0  0
  150.3950  139.3194  155.5450 C   0  0  0  0  0  0  0  0  0  0  0  0
  151.8823  139.6111  155.7876 C   0  0  0  0  0  0  0  0  0  0  0  0
  152.2697  139.3393  157.1718 N   0  0  0  0  0  0  0  0  0  0  0  0
  152.2751  140.2027  158.2247 C   0  0  0  0  0  0  0  0  0  0  0  0
  151.8520  141.5290  158.1109 N   0  0  0  0  0  0  0  0  0  0  0  0
  150.6996  141.9405  157.3117 C   0  0  0  0  0  0  0  0  0  0  0  0
  149.7497  142.8422  158.1199 C   0  0  0  0  0  0  0  0  0  0  0  0
  150.4820  144.0910  158.6414 C   0  0  0  0  0  0  0  0  0  0  0  0
  149.5747  144.9602  159.5230 C   0  0  0  0  0  0  0  0  0  0  0  0
  151.7593  143.6602  159.3830 C   0  0  0  0  0  0  0  0  0  0  0  0
  152.6060  142.7177  158.5086 C   0  0  0  0  0  0  0  0  0  0  0  0
  152.7645  139.6956  159.3573 N   0  0  0  0  0  0  0  0  0  0  0  0
  153.0777  138.3922  159.0069 C   0  0  0  0  0  0  0  0  0  0  0  0
  152.7995  138.1529  157.6968 C   0  0  0  0  0  0  0  0  0  0  0  0
  153.0725  136.8599  157.0255 C   0  0  0  0  0  0  0  0  0  0  0  0
  152.8264  136.6929  155.8331 O   0  0  0  0  0  0  0  0  0  0  0  0
  153.6124  135.9353  157.8813 N   0  5  0  0  0  0  0  0  0  0  0  0
  153.9030  136.1355  159.2131 C   0  0  0  0  0  0  0  0  0  0  0  0
  154.3945  135.2481  159.9117 O   0  0  0  0  0  0  0  0  0  0  0  0
  153.6450  137.3506  159.7903 N   0  0  0  0  0  0  0  0  0  0  0  0
  153.9502  137.5946  161.2032 C   0  0  0  0  0  0  0  0  0  0  0  0
  146.9989  140.5076  153.8647 H   0  0  0  0  0  0  0  0  0  0  0  0
  148.4992  141.3372  153.4530 H   0  0  0  0  0  0  0  0  0  0  0  0
  148.1739  140.8829  155.1249 H   0  0  0  0  0  0  0  0  0  0  0  0
  148.2955  138.4529  154.4888 H   0  0  0  0  0  0  0  0  0  0  0  0
  148.6164  138.9052  152.8159 H   0  0  0  0  0  0  0  0  0  0  0  0
  149.7835  140.0636  156.0571 H   0  0  0  0  0  0  0  0  0  0  0  0
  150.1350  138.3436  155.9572 H   0  0  0  0  0  0  0  0  0  0  0  0
  152.4909  139.0256  155.1063 H   0  0  0  0  0  0  0  0  0  0  0  0
  152.1136  140.6421  155.5318 H   0  0  0  0  0  0  0  0  0  0  0  0
  151.0454  142.4572  156.4155 H   0  0  0  0  0  0  0  0  0  0  0  0
  150.1579  141.0576  156.9711 H   0  0  0  0  0  0  0  0  0  0  0  0
  148.9038  143.1364  157.4981 H   0  0  0  0  0  0  0  0  0  0  0  0
  149.3374  142.2754  158.9561 H   0  0  0  0  0  0  0  0  0  0  0  0
  150.7802  144.6893  157.7792 H   0  0  0  0  0  0  0  0  0  0  0  0
  149.2390  144.4154  160.4059 H   0  0  0  0  0  0  0  0  0  0  0  0
  148.6896  145.2844  158.9749 H   0  0  0  0  0  0  0  0  0  0  0  0
  150.0982  145.8542  159.8625 H   0  0  0  0  0  0  0  0  0  0  0  0
  152.3475  144.5371  159.6552 H   0  0  0  0  0  0  0  0  0  0  0  0
  151.4964  143.1621  160.3165 H   0  0  0  0  0  0  0  0  0  0  0  0
  153.5241  142.4329  159.0212 H   0  0  0  0  0  0  0  0  0  0  0  0
  152.9275  143.2438  157.6088 H   0  0  0  0  0  0  0  0  0  0  0  0
  153.4392  136.8696  161.8382 H   0  0  0  0  0  0  0  0  0  0  0  0
  153.6451  138.5866  161.5351 H   0  0  0  0  0  0  0  0  0  0  0  0
  155.0227  137.5058  161.3801 H   0  0  0  0  0  0  0  0  0  0  0  0
  1  2  1  0  0  0  0
  1 25  1  0  0  0  0
  1 26  1  0  0  0  0
  1 27  1  0  0  0  0
  2  3  1  0  0  0  0
  2 28  1  0  0  0  0
  2 29  1  0  0  0  0
  3  4  1  0  0  0  0
  4  5  1  0  0  0  0
  4 30  1  0  0  0  0
  4 31  1  0  0  0  0
  5  6  1  0  0  0  0
  5 32  1  0  0  0  0
  5 33  1  0  0  0  0
  6 17  1  0  0  0  0
  6  7  1  0  0  0  0
  7  8  1  0  0  0  0
  7 15  2  0  0  0  0
  8 14  1  0  0  0  0
  8  9  1  0  0  0  0
  9 10  1  0  0  0  0
  9 34  1  0  0  0  0
  9 35  1  0  0  0  0
 10 11  1  0  0  0  0
 10 36  1  0  0  0  0
 10 37  1  0  0  0  0
 11 12  1  0  0  0  0
 11 13  1  0  0  0  0
 11 38  1  0  0  0  0
 12 39  1  0  0  0  0
 12 40  1  0  0  0  0
 12 41  1  0  0  0  0
 13 14  1  0  0  0  0
 13 42  1  0  0  0  0
 13 43  1  0  0  0  0
 14 44  1  0  0  0  0
 14 45  1  0  0  0  0
 15 16  1  0  0  0  0
 16 23  1  0  0  0  0
 16 17  2  0  0  0  0
 17 18  1  0  0  0  0
 18 19  2  0  0  0  0
 18 20  1  0  0  0  0
 20 21  1  0  0  0  0
 21 22  2  0  0  0  0
 21 23  1  0  0  0  0
 23 24  1  0  0  0  0
 24 46  1  0  0  0  0
 24 47  1  0  0  0  0
 24 48  1  0  0  0  0
M  CHG  1  20  -1
M  END
> <s_m_source_file>
AV-unprocessed.smi

> <i_m_source_file_index>
540

> <i_lp_mmshare_version>
43012

> <i_f3d_flags>
0

> <s_epik_input>
W0NIM11uMWMoPU8pW25IXWMoPU8pYyhjMTIpbihbQ0gyXVtDSDJdT1tDSDJdW0NIM10pYyhuMilOM1tDSDJdW0NIMl1bQ0hdKFtDSDNdKVtDSDJdW0NIMl0z

> <s_epik_cmdline>
J2VwaWtfcHl0aG9uJywgJy1waCcsICc3LjAnLCAnLXRuJywgJzgnLCAnLW1hJywgJzIwMCcsICctbWV0YWxfYmluZGluZycsICctaW1hZScsICc8aW5maWxlLm1hZT4nLCAnLW9tYWUnLCAnPG91dGZpbGUubWFlPic=

> <r_lp_tautomer_probability>
1

> <r_epik_Ionization_Penalty>
5.11981

> <r_epik_Ionization_Penalty_Charging>
0.0737583

> <r_epik_Ionization_Penalty_Neutral>
5.04605

> <r_epik_State_Penalty>
5.03218

> <r_epik_Charging_Adjusted_Penalty>
5.10594

> <i_epik_Tot_Q>
-1

> <i_epik_Tot_abs_Q>
1

> <r_epik_Metal_State_Penalty>
1.14277

> <b_epik_Metal_Only>
1

> <s_lp_Force_Field>
OPLS_2005

> <r_lp_Energy>
41.1943

> <b_lp_Chiralities_Consistent>
1

> <s_lp_Variant>
AV-unprocessed.smi:540-2

> <Gold.Version>
5.8.1

> <Gold.Id.Protein>
6NUR|6NUR_protein|mol2

> <Gold.PLP.Fitness>
45.1868

> <Gold.PLP.PLP>
-39.3886

> <Gold.PLP.part.hbond>
-3.0000

> <Gold.PLP.part.metal>
0.0000

> <Gold.PLP.part.buried>
-1.9664

> <Gold.PLP.part.nonpolar>
-34.5142

> <Gold.PLP.part.repulsive>
0.1289

> <Gold.PLP.ligand.clash>
0.0000

> <Gold.PLP.ligand.torsion>
1.2380

> <Gold.PLP.Chemscore.Hbond>
2.5820

> <Gold.PLP.Chemscore.CHOScore>
0.0000

> <Gold.PLP.Chemscore.Metal>
0.0000

> <Gold.Chemscore.Hbonds>
donor molecule, donor type, donor heavy atom, donor atom, acceptor molecule, acceptor atom, score
      P1  H  6896  6907       L1    22  0.20
      P1  H  7989  7998       L1     3  0.50
      P1  H 10752 10765       L1    19  0.65

> <Gold.PLP.Chemscore.Internal.Correction>
0.5281

> <Gold.Rescore>
     Score         DG    S(hbond)    S(metal)    S(lipo)     H(rot)  DE(clash)    DE(int)     intcor
     15.66     -18.19       1.69        0.00      94.52       1.55       0.53       2.00       ----

> <Gold.Chemscore.Fitness>
15.6614

> <Gold.Chemscore.DG>
-18.1918

> <Gold.Chemscore.ZeroCoef>
-5.4800

> <Gold.Chemscore.Hbond>
1.6854

> <Gold.Chemscore.Metal>
0.0000

> <Gold.Chemscore.Lipo>
94.5243

> <Gold.Chemscore.Internal_Hbond>
0.0000

> <Gold.Chemscore.DEClash>
0.5298

> <Gold.Chemscore.DEInternal>
2.0005

> <Gold.Chemscore.Rot>
1.5534

> <Gold.Chemscore.Internal.Correction>
   9.000000E+99

> <Gold.Chemscore.Hbonds>
donor molecule, donor type, donor heavy atom, donor atom, acceptor molecule, acceptor atom, score
      P1  H  7989  7998       L1     3  0.15
      P1  H 10752 10765       L1    19  0.62

> <Gold.Chemscore.Hbond.Weighted>
-5.6292

> <Gold.Chemscore.Metal.Weighted>
-0.0000

> <Gold.Chemscore.Lipo.Weighted>
-11.0593

> <Gold.Chemscore.Internal_Hbond.Weighted>
0.0000

> <Gold.Chemscore.DEClash.Weighted>
0.5298

> <Gold.Chemscore.DEInternal.Weighted>
2.0005

> <Gold.Chemscore.Rot.Weighted>
3.9768

> <Gold.Chemscore.Internal.Correction.Weighted>
   9.000000E+99

> <Gold.Protein.RotatedTorsions>
[ 6907 6896 6895 6894 ] final   67.93 input  -60.11 | X-H torsion
[ 7974 7965 7964 7962 ] final -174.86 input  175.53 | X-H torsion
[ 8008 7997 7996 7995 ] final  144.36 input   59.86 | X-H torsion
[ 10167 10162 10161 10158 ] final -174.60 input  -65.29 | X-H torsion
[ 10718 10713 10712 10709 ] final -116.07 input   66.30 | X-H torsion
[ 10763 10752 10751 10750 ] final -158.11 input  -60.55 | X-H torsion
[ 11005 11000 10999 10996 ] final  116.87 input  -57.11 | X-H torsion

> <Gold.Protein.ActiveResidues>
 VAL166  LYS551  ARG553  GLY616  TRP617  ASP618  TYR619  PRO620  LYS621  CYS622 
 ASP623  PHE694  ASN695  SER759  ASP760  ASP761  ALA762  ILE779  LEU786  VAL792 
 PHE793  MET794  SER795  GLU796  ALA797  LYS798  CYS799  TRP800  GLU811  SER814 

> <Gold.Protein.RotatedAtoms>
  152.4586  134.5236  159.9789 H   0  0  0  0  0  0  0  0  0  0  0  0  # atno 6907 bound_to 6896
  151.5291  133.3446  159.2923 H   0  0  0  0  0  0  0  0  0  0  0  0  # atno 6908 bound_to 6896
  150.8539  134.7902  159.7093 H   0  0  0  0  0  0  0  0  0  0  0  0  # atno 6909 bound_to 6896
  144.7130  140.1408  143.6392 H   0  0  0  0  0  0  0  0  0  0  0  0  # atno 7974 bound_to 7965
  156.2910  140.2238  156.5041 H   0  0  0  0  0  0  0  0  0  0  0  0  # atno 8008 bound_to 7997
  154.7665  140.0469  157.1038 H   0  0  0  0  0  0  0  0  0  0  0  0  # atno 8009 bound_to 7997
  154.9927  140.3092  155.4903 H   0  0  0  0  0  0  0  0  0  0  0  0  # atno 8010 bound_to 7997
  139.5625  144.1835  152.1261 H   0  0  0  0  0  0  0  0  0  0  0  0  # atno 10167 bound_to 10162
  156.0938  130.6115  150.8988 H   0  0  0  0  0  0  0  0  0  0  0  0  # atno 10718 bound_to 10713
  154.7583  135.3111  154.8428 H   0  0  0  0  0  0  0  0  0  0  0  0  # atno 10763 bound_to 10752
  153.9195  135.6797  153.4752 H   0  0  0  0  0  0  0  0  0  0  0  0  # atno 10764 bound_to 10752
  153.1182  135.4835  154.9081 H   0  0  0  0  0  0  0  0  0  0  0  0  # atno 10765 bound_to 10752
  139.9055  134.9603  156.7264 H   0  0  0  0  0  0  0  0  0  0  0  0  # atno 11005 bound_to 11000
  145.9204  139.2542  143.1385 LP  0  0  0  0  0  0  0  0  0  0  0  0  # atno 17320 bound_to 7965
  145.9626  140.8823  143.0203 LP  0  0  0  0  0  0  0  0  0  0  0  0  # atno 17321 bound_to 7965
  140.1351  144.5253  150.6778 LP  0  0  0  0  0  0  0  0  0  0  0  0  # atno 17342 bound_to 10162
  140.6906  143.2374  151.5141 LP  0  0  0  0  0  0  0  0  0  0  0  0  # atno 17343 bound_to 10162
  157.6094  131.0937  150.8821 LP  0  0  0  0  0  0  0  0  0  0  0  0  # atno 17370 bound_to 10713
  156.8964  130.5231  149.5284 LP  0  0  0  0  0  0  0  0  0  0  0  0  # atno 17371 bound_to 10713
  140.6960  133.9348  155.7995 LP  0  0  0  0  0  0  0  0  0  0  0  0  # atno 17394 bound_to 11000
  141.0407  134.0625  157.3905 LP  0  0  0  0  0  0  0  0  0  0  0  0  # atno 17395 bound_to 11000

$$$$
