AV-unprocessed.smi:260|AV-procd|sdf|1981|dock7
  -GOLD-   2262021153D 1   1.00000     0.00000
 Structure written by MMmdl.
 53 56  0  0  0  0  0  0  0  0  1 V2000
  149.4470  133.4154  154.1975 C   0  0  0  0  0  0  0  0  0  0  0  0
  148.4891  134.4918  154.0021 N   0  0  0  0  0  0  0  0  0  0  0  0
  147.5075  134.8052  154.8634 C   0  0  0  0  0  0  0  0  0  0  0  0
  147.3304  134.1778  155.9087 O   0  0  0  0  0  0  0  0  0  0  0  0
  146.5769  135.9991  154.5213 C   0  0  1  0  0  0  0  0  0  0  0  0
  145.9515  135.7699  153.1315 C   0  0  0  0  0  0  0  0  0  0  0  0
  145.5069  136.1575  155.6158 C   0  0  0  0  0  0  0  0  0  0  0  0
  146.2111  136.9671  156.7103 C   0  0  0  0  0  0  0  0  0  0  0  0
  147.2225  137.7616  156.0240 N   0  0  0  0  0  0  0  0  0  0  0  0
  148.3205  138.2017  156.6976 C   0  0  0  0  0  0  0  0  0  0  0  0
  148.9381  137.3629  157.5718 N   0  0  0  0  0  0  0  0  0  0  0  0
  150.0117  137.7608  158.2595 C   0  0  0  0  0  0  0  0  0  0  0  0
  150.6336  138.9394  158.2245 N   0  0  0  0  0  0  0  0  0  0  0  0
  150.0337  139.7850  157.3398 C   0  0  0  0  0  0  0  0  0  0  0  0
  148.8873  139.5028  156.5414 C   0  0  0  0  0  0  0  0  0  0  0  0
  148.5841  140.6132  155.7590 N   0  0  0  0  0  0  0  0  0  0  0  0
  149.4891  141.4962  156.0805 C   0  0  0  0  0  0  0  0  0  0  0  0
  150.3999  141.0805  157.0231 N   0  0  0  0  0  0  0  0  0  0  0  0
  151.5097  141.8462  157.5619 C   0  0  0  0  0  0  0  0  0  0  0  0
  152.1449  141.1698  158.7920 C   0  0  1  0  0  0  0  0  0  0  0  0
  153.0892  140.1943  158.3931 O   0  0  0  0  0  0  0  0  0  0  0  0
  152.7883  142.1793  159.7633 C   0  0  1  0  0  0  0  0  0  0  0  0
  151.8770  143.2888  160.2952 C   0  0  0  0  0  0  0  0  0  0  0  0
  152.5929  143.6708  161.5713 C   0  0  0  0  0  0  0  0  0  0  0  0
  153.0786  142.3134  162.0738 C   0  0  0  0  0  0  0  0  0  0  0  0
  153.3449  141.5373  160.9085 O   0  0  0  0  0  0  0  0  0  0  0  0
  147.2684  137.3775  154.6125 C   0  0  0  0  0  0  0  0  0  0  0  0
  150.1496  133.3896  153.3646 H   0  0  0  0  0  0  0  0  0  0  0  0
  148.9416  132.4502  154.2485 H   0  0  0  0  0  0  0  0  0  0  0  0
  150.0138  133.5625  155.1177 H   0  0  0  0  0  0  0  0  0  0  0  0
  148.5854  135.0481  153.1645 H   0  0  0  0  0  0  0  0  0  0  0  0
  145.2852  136.5879  152.8560 H   0  0  0  0  0  0  0  0  0  0  0  0
  145.3639  134.8514  153.1005 H   0  0  0  0  0  0  0  0  0  0  0  0
  146.7183  135.7011  152.3589 H   0  0  0  0  0  0  0  0  0  0  0  0
  144.6610  136.7289  155.2308 H   0  0  0  0  0  0  0  0  0  0  0  0
  145.1111  135.2132  155.9925 H   0  0  0  0  0  0  0  0  0  0  0  0
  145.5079  137.5990  157.2532 H   0  0  0  0  0  0  0  0  0  0  0  0
  146.6899  136.2934  157.4224 H   0  0  0  0  0  0  0  0  0  0  0  0
  150.4318  137.0300  158.9347 H   0  0  0  0  0  0  0  0  0  0  0  0
  149.5200  142.4787  155.6324 H   0  0  0  0  0  0  0  0  0  0  0  0
  152.2505  141.9871  156.7738 H   0  0  0  0  0  0  0  0  0  0  0  0
  151.1416  142.8383  157.8254 H   0  0  0  0  0  0  0  0  0  0  0  0
  151.3625  140.6391  159.3359 H   0  0  0  0  0  0  0  0  0  0  0  0
  152.7837  139.3488  158.6844 H   0  0  0  0  0  0  0  0  0  0  0  0
  153.6271  142.6565  159.2539 H   0  0  0  0  0  0  0  0  0  0  0  0
  151.7696  144.1206  159.5986 H   0  0  0  0  0  0  0  0  0  0  0  0
  150.8814  142.9139  160.5343 H   0  0  0  0  0  0  0  0  0  0  0  0
  153.4436  144.3155  161.3461 H   0  0  0  0  0  0  0  0  0  0  0  0
  151.9516  144.1863  162.2867 H   0  0  0  0  0  0  0  0  0  0  0  0
  153.9599  142.3945  162.7104 H   0  0  0  0  0  0  0  0  0  0  0  0
  152.2922  141.8182  162.6452 H   0  0  0  0  0  0  0  0  0  0  0  0
  148.2646  137.3632  154.1714 H   0  0  0  0  0  0  0  0  0  0  0  0
  146.7011  138.1223  154.0533 H   0  0  0  0  0  0  0  0  0  0  0  0
  1  2  1  0  0  0  0
  1 28  1  0  0  0  0
  1 29  1  0  0  0  0
  1 30  1  0  0  0  0
  2  3  1  0  0  0  0
  2 31  1  0  0  0  0
  3  4  2  0  0  0  0
  3  5  1  0  0  0  0
  5 27  1  0  0  0  0
  5  6  1  0  0  0  0
  5  7  1  0  0  0  0
  6 32  1  0  0  0  0
  6 33  1  0  0  0  0
  6 34  1  0  0  0  0
  7  8  1  0  0  0  0
  7 35  1  0  0  0  0
  7 36  1  0  0  0  0
  8  9  1  0  0  0  0
  8 37  1  0  0  0  0
  8 38  1  0  0  0  0
  9 10  1  0  0  0  0
  9 27  1  0  0  0  0
 10 15  1  0  0  0  0
 10 11  2  0  0  0  0
 11 12  1  0  0  0  0
 12 13  2  0  0  0  0
 12 39  1  0  0  0  0
 13 14  1  0  0  0  0
 14 18  1  0  0  0  0
 14 15  2  0  0  0  0
 15 16  1  0  0  0  0
 16 17  2  0  0  0  0
 17 18  1  0  0  0  0
 17 40  1  0  0  0  0
 18 19  1  0  0  0  0
 19 20  1  0  0  0  0
 19 41  1  0  0  0  0
 19 42  1  0  0  0  0
 20 21  1  0  0  0  0
 20 22  1  0  0  0  0
 20 43  1  0  0  0  0
 21 44  1  0  0  0  0
 22 26  1  0  0  0  0
 22 23  1  0  0  0  0
 22 45  1  0  0  0  0
 23 24  1  0  0  0  0
 23 46  1  0  0  0  0
 23 47  1  0  0  0  0
 24 25  1  0  0  0  0
 24 48  1  0  0  0  0
 24 49  1  0  0  0  0
 25 26  1  0  0  0  0
 25 50  1  0  0  0  0
 25 51  1  0  0  0  0
 27 52  1  0  0  0  0
 27 53  1  0  0  0  0
M  END
> <s_m_source_file>
AV-unprocessed.smi

> <i_m_source_file_index>
260

> <i_lp_mmshare_version>
43012

> <i_f3d_flags>
0

> <s_epik_input>
W0NIM11bTkhdQyg9TylbQ0BAXTEoW0NIM10pW0NIMl1bQ0gyXU4oW0NIMl0xKWMobltjSF1uMiljKGMyMyluW2NIXW4zW0NIMl1bQ0BIXShbT0hdKVtDQEBIXTRbQ0gyXVtDSDJdW0NIMl1PNA==

> <s_epik_cmdline>
J2VwaWtfcHl0aG9uJywgJy1waCcsICc3LjAnLCAnLXRuJywgJzgnLCAnLW1hJywgJzIwMCcsICctbWV0YWxfYmluZGluZycsICctaW1hZScsICc8aW5maWxlLm1hZT4nLCAnLW9tYWUnLCAnPG91dGZpbGUubWFlPic=

> <r_lp_tautomer_probability>
1

> <r_epik_Ionization_Penalty>
0.00115068

> <r_epik_Ionization_Penalty_Charging>
0

> <r_epik_Ionization_Penalty_Neutral>
0.00115068

> <r_epik_State_Penalty>
0.000668876

> <r_epik_Charging_Adjusted_Penalty>
0.000668876

> <i_epik_Tot_Q>
0

> <i_epik_Tot_abs_Q>
0

> <r_epik_Metal_State_Penalty>
-0

> <b_epik_Metal_Only>
0

> <s_lp_Force_Field>
OPLS_2005

> <r_lp_Energy>
50.9621

> <b_lp_Chiralities_Consistent>
1

> <s_lp_Variant>
AV-unprocessed.smi:260-7

> <Gold.Version>
5.8.1

> <Gold.Id.Protein>
6NUR|6NUR_protein|mol2

> <Gold.PLP.Fitness>
39.2337

> <Gold.PLP.PLP>
-33.0152

> <Gold.PLP.part.hbond>
-2.0000

> <Gold.PLP.part.metal>
0.0000

> <Gold.PLP.part.buried>
-5.2802

> <Gold.PLP.part.nonpolar>
-25.0240

> <Gold.PLP.part.repulsive>
0.0643

> <Gold.PLP.ligand.clash>
0.0000

> <Gold.PLP.ligand.torsion>
1.5727

> <Gold.PLP.Chemscore.Hbond>
1.9760

> <Gold.PLP.Chemscore.CHOScore>
1.0000

> <Gold.PLP.Chemscore.Metal>
0.0000

> <Gold.Chemscore.Hbonds>
donor molecule, donor type, donor heavy atom, donor atom, acceptor molecule, acceptor atom, score
      L1  H     2    31       P1  7948  1.00
      P1  H  7997  8008       L1    21  0.98
      L1  C    17    40       P1  8028  1.00

> <Gold.PLP.Chemscore.Internal.Correction>
0.4359

> <Gold.Rescore>
     Score         DG    S(hbond)    S(metal)    S(lipo)     H(rot)  DE(clash)    DE(int)     intcor
     10.86     -14.00       1.96        0.00      72.13       2.53       0.09       3.05       ----

> <Gold.Chemscore.Fitness>
10.8636

> <Gold.Chemscore.DG>
-14.0033

> <Gold.Chemscore.ZeroCoef>
-5.4800

> <Gold.Chemscore.Hbond>
1.9613

> <Gold.Chemscore.Metal>
0.0000

> <Gold.Chemscore.Lipo>
72.1280

> <Gold.Chemscore.Internal_Hbond>
0.0000

> <Gold.Chemscore.DEClash>
0.0910

> <Gold.Chemscore.DEInternal>
3.0486

> <Gold.Chemscore.Rot>
2.5259

> <Gold.Chemscore.Internal.Correction>
   9.000000E+99

> <Gold.Chemscore.Hbonds>
donor molecule, donor type, donor heavy atom, donor atom, acceptor molecule, acceptor atom, score
      L1  H     2    31       P1  7948  0.70
      P1  H  7997  8008       L1    21  0.74

> <Gold.Chemscore.Hbond.Weighted>
-6.5507

> <Gold.Chemscore.Metal.Weighted>
-0.0000

> <Gold.Chemscore.Lipo.Weighted>
-8.4390

> <Gold.Chemscore.Internal_Hbond.Weighted>
0.0000

> <Gold.Chemscore.DEClash.Weighted>
0.0910

> <Gold.Chemscore.DEInternal.Weighted>
3.0486

> <Gold.Chemscore.Rot.Weighted>
6.4663

> <Gold.Chemscore.Internal.Correction.Weighted>
   9.000000E+99

> <Gold.Protein.RotatedTorsions>
[ 6907 6896 6895 6894 ] final  -27.69 input  -60.11 | X-H torsion
[ 7974 7965 7964 7962 ] final   73.33 input  175.53 | X-H torsion
[ 8008 7997 7996 7995 ] final  -84.52 input   59.86 | X-H torsion
[ 10167 10162 10161 10158 ] final  162.04 input  -65.29 | X-H torsion
[ 10718 10713 10712 10709 ] final   88.82 input   66.30 | X-H torsion
[ 10763 10752 10751 10750 ] final  127.83 input  -60.55 | X-H torsion
[ 11005 11000 10999 10996 ] final  -49.70 input  -57.11 | X-H torsion

> <Gold.Protein.ActiveResidues>
 VAL166  LYS551  ARG553  GLY616  TRP617  ASP618  TYR619  PRO620  LYS621  CYS622 
 ASP623  PHE694  ASN695  SER759  ASP760  ASP761  ALA762  ILE779  LEU786  VAL792 
 PHE793  MET794  SER795  GLU796  ALA797  LYS798  CYS799  TRP800  GLU811  SER814 

> <Gold.Protein.RotatedAtoms>
  151.1434  135.0191  159.8635 H   0  0  0  0  0  0  0  0  0  0  0  0  # atno 6907 bound_to 6896
  152.5452  134.1472  159.8514 H   0  0  0  0  0  0  0  0  0  0  0  0  # atno 6908 bound_to 6896
  151.1550  133.4836  159.2627 H   0  0  0  0  0  0  0  0  0  0  0  0  # atno 6909 bound_to 6896
  145.7422  139.2725  143.1480 H   0  0  0  0  0  0  0  0  0  0  0  0  # atno 7974 bound_to 7965
  154.6308  140.0604  156.9729 H   0  0  0  0  0  0  0  0  0  0  0  0  # atno 8008 bound_to 7997
  155.1669  140.3287  155.4382 H   0  0  0  0  0  0  0  0  0  0  0  0  # atno 8009 bound_to 7997
  156.2481  140.1921  156.6774 H   0  0  0  0  0  0  0  0  0  0  0  0  # atno 8010 bound_to 7997
  139.4856  144.4477  151.8870 H   0  0  0  0  0  0  0  0  0  0  0  0  # atno 10167 bound_to 10162
  157.6951  131.0309  150.3332 H   0  0  0  0  0  0  0  0  0  0  0  0  # atno 10718 bound_to 10713
  153.7157  135.3261  155.3256 H   0  0  0  0  0  0  0  0  0  0  0  0  # atno 10763 bound_to 10752
  154.8371  135.4487  154.1268 H   0  0  0  0  0  0  0  0  0  0  0  0  # atno 10764 bound_to 10752
  153.2375  135.6967  153.7900 H   0  0  0  0  0  0  0  0  0  0  0  0  # atno 10765 bound_to 10752
  141.0774  133.6662  156.3624 H   0  0  0  0  0  0  0  0  0  0  0  0  # atno 11005 bound_to 11000
  146.0437  140.8139  142.9816 LP  0  0  0  0  0  0  0  0  0  0  0  0  # atno 17320 bound_to 7965
  144.6868  140.2948  143.7272 LP  0  0  0  0  0  0  0  0  0  0  0  0  # atno 17321 bound_to 7965
  140.3932  144.2588  150.5898 LP  0  0  0  0  0  0  0  0  0  0  0  0  # atno 17342 bound_to 10162
  140.5126  143.2286  151.8511 LP  0  0  0  0  0  0  0  0  0  0  0  0  # atno 17343 bound_to 10162
  156.3803  130.3879  149.7107 LP  0  0  0  0  0  0  0  0  0  0  0  0  # atno 17370 bound_to 10713
  156.4492  130.7898  151.2919 LP  0  0  0  0  0  0  0  0  0  0  0  0  # atno 17371 bound_to 10713
  140.5543  134.5997  157.5416 LP  0  0  0  0  0  0  0  0  0  0  0  0  # atno 17394 bound_to 11000
  139.9587  134.7490  156.0285 LP  0  0  0  0  0  0  0  0  0  0  0  0  # atno 17395 bound_to 11000

$$$$
