AV-unprocessed.smi:320|AV-procd|sdf|2332|dock6
  -GOLD-   2262022233D 1   1.00000     0.00000
 Structure written by MMmdl.
 49 52  0  0  0  0  0  0  0  0  1 V2000
  147.5617  136.6856  156.6376 C   0  0  0  0  0  0  0  0  0  0  0  0
  148.9064  137.0578  157.2951 C   0  0  2  0  0  0  0  0  0  0  0  0
  148.7173  137.1054  158.7458 N   0  0  0  0  0  0  0  0  0  0  0  0
  148.4173  136.0632  159.5356 C   0  0  0  0  0  0  0  0  0  0  0  0
  148.2789  134.9135  159.1154 O   0  0  0  0  0  0  0  0  0  0  0  0
  148.2652  136.3820  161.0301 C   0  0  0  0  0  0  0  0  0  0  0  0
  147.0398  135.8246  161.6265 N   0  0  0  0  0  0  0  0  0  0  0  0
  146.9784  134.4243  161.7718 C   0  0  0  0  0  0  0  0  0  0  0  0
  145.9060  133.8112  162.2971 C   0  0  0  0  0  0  0  0  0  0  0  0
  144.7927  134.6269  162.7204 C   0  0  0  0  0  0  0  0  0  0  0  0
  144.8392  135.9671  162.5825 C   0  0  0  0  0  0  0  0  0  0  0  0
  146.0085  136.6413  162.0061 C   0  0  0  0  0  0  0  0  0  0  0  0
  146.0578  137.8645  161.8724 O   0  0  0  0  0  0  0  0  0  0  0  0
  149.5635  138.3759  156.7743 C   0  0  0  0  0  0  0  0  0  0  0  0
  149.8326  138.2540  155.2447 C   0  0  0  0  0  0  0  0  0  0  0  0
  150.4620  139.5480  154.6882 C   0  0  2  0  0  0  0  0  0  0  0  0
  151.8007  139.8168  155.4054 C   0  0  0  0  0  0  0  0  0  0  0  0
  151.5421  139.9773  156.9174 C   0  0  1  0  0  0  0  0  0  0  0  0
  150.5826  141.1618  157.1542 C   0  0  0  0  0  0  0  0  0  0  0  0
  149.2484  140.8862  156.4305 C   0  0  1  0  0  0  0  0  0  0  0  0
  149.5000  140.7301  154.9182 C   0  0  0  0  0  0  0  0  0  0  0  0
  148.6175  139.5925  156.9886 C   0  0  0  0  0  0  0  0  0  0  0  0
  150.9172  138.6814  157.4793 C   0  0  0  0  0  0  0  0  0  0  0  0
  147.6628  136.5177  155.5662 H   0  0  0  0  0  0  0  0  0  0  0  0
  146.8054  137.4547  156.7904 H   0  0  0  0  0  0  0  0  0  0  0  0
  147.1688  135.7600  157.0599 H   0  0  0  0  0  0  0  0  0  0  0  0
  149.6020  136.2487  157.0637 H   0  0  0  0  0  0  0  0  0  0  0  0
  148.8176  138.0104  159.1821 H   0  0  0  0  0  0  0  0  0  0  0  0
  149.1478  136.0060  161.5495 H   0  0  0  0  0  0  0  0  0  0  0  0
  148.2914  137.4645  161.1710 H   0  0  0  0  0  0  0  0  0  0  0  0
  147.8488  133.8870  161.4241 H   0  0  0  0  0  0  0  0  0  0  0  0
  145.8755  132.7361  162.3962 H   0  0  0  0  0  0  0  0  0  0  0  0
  143.9177  134.1606  163.1489 H   0  0  0  0  0  0  0  0  0  0  0  0
  143.9959  136.5612  162.9030 H   0  0  0  0  0  0  0  0  0  0  0  0
  150.4997  137.4183  155.0314 H   0  0  0  0  0  0  0  0  0  0  0  0
  148.9031  138.0404  154.7152 H   0  0  0  0  0  0  0  0  0  0  0  0
  150.6415  139.4320  153.6188 H   0  0  0  0  0  0  0  0  0  0  0  0
  152.4977  138.9972  155.2257 H   0  0  0  0  0  0  0  0  0  0  0  0
  152.2707  140.7155  155.0039 H   0  0  0  0  0  0  0  0  0  0  0  0
  152.4870  140.1716  157.4258 H   0  0  0  0  0  0  0  0  0  0  0  0
  150.4125  141.3033  158.2222 H   0  0  0  0  0  0  0  0  0  0  0  0
  151.0274  142.0876  156.7872 H   0  0  0  0  0  0  0  0  0  0  0  0
  148.5678  141.7216  156.5984 H   0  0  0  0  0  0  0  0  0  0  0  0
  149.9227  141.6479  154.5073 H   0  0  0  0  0  0  0  0  0  0  0  0
  148.5586  140.5610  154.3933 H   0  0  0  0  0  0  0  0  0  0  0  0
  147.6543  139.4120  156.5091 H   0  0  0  0  0  0  0  0  0  0  0  0
  148.4090  139.7411  158.0477 H   0  0  0  0  0  0  0  0  0  0  0  0
  150.7746  138.7906  158.5545 H   0  0  0  0  0  0  0  0  0  0  0  0
  151.6186  137.8568  157.3473 H   0  0  0  0  0  0  0  0  0  0  0  0
  1  2  1  0  0  0  0
  1 24  1  0  0  0  0
  1 25  1  0  0  0  0
  1 26  1  0  0  0  0
  2  3  1  0  0  0  0
  2 14  1  0  0  0  0
  2 27  1  0  0  0  0
  3  4  1  0  0  0  0
  3 28  1  0  0  0  0
  4  5  2  0  0  0  0
  4  6  1  0  0  0  0
  6  7  1  0  0  0  0
  6 29  1  0  0  0  0
  6 30  1  0  0  0  0
  7 12  1  0  0  0  0
  7  8  1  0  0  0  0
  8  9  2  0  0  0  0
  8 31  1  0  0  0  0
  9 10  1  0  0  0  0
  9 32  1  0  0  0  0
 10 11  2  0  0  0  0
 10 33  1  0  0  0  0
 11 12  1  0  0  0  0
 11 34  1  0  0  0  0
 12 13  2  0  0  0  0
 14 22  1  0  0  0  0
 14 23  1  0  0  0  0
 14 15  1  0  0  0  0
 15 16  1  0  0  0  0
 15 35  1  0  0  0  0
 15 36  1  0  0  0  0
 16 21  1  0  0  0  0
 16 17  1  0  0  0  0
 16 37  1  0  0  0  0
 17 18  1  0  0  0  0
 17 38  1  0  0  0  0
 17 39  1  0  0  0  0
 18 19  1  0  0  0  0
 18 23  1  0  0  0  0
 18 40  1  0  0  0  0
 19 20  1  0  0  0  0
 19 41  1  0  0  0  0
 19 42  1  0  0  0  0
 20 21  1  0  0  0  0
 20 22  1  0  0  0  0
 20 43  1  0  0  0  0
 21 44  1  0  0  0  0
 21 45  1  0  0  0  0
 22 46  1  0  0  0  0
 22 47  1  0  0  0  0
 23 48  1  0  0  0  0
 23 49  1  0  0  0  0
M  END
> <s_m_source_file>
AV-unprocessed.smi

> <i_m_source_file_index>
320

> <i_lp_mmshare_version>
43012

> <i_f3d_flags>
0

> <s_epik_input>
W0NIMl0xW0NAQEhdKFtDSDJdMilbQ0gyXVtDQEBIXShbQ0gyXTMpW0NIMl1bQ0BIXTFbQ0gyXUMyM1tDQEhdKFtDSDNdKVtOSF1DKD1PKVtDSDJdbjRbY0hdW2NIXVtjSF1bY0hdYzQ9Tw==

> <s_epik_cmdline>
J2VwaWtfcHl0aG9uJywgJy1waCcsICc3LjAnLCAnLXRuJywgJzgnLCAnLW1hJywgJzIwMCcsICctbWV0YWxfYmluZGluZycsICctaW1hZScsICc8aW5maWxlLm1hZT4nLCAnLW9tYWUnLCAnPG91dGZpbGUubWFlPic=

> <r_lp_tautomer_probability>
1

> <r_epik_Ionization_Penalty>
4.15949e-07

> <r_epik_Ionization_Penalty_Charging>
3.97363e-07

> <r_epik_Ionization_Penalty_Neutral>
1.85865e-08

> <r_epik_State_Penalty>
-0

> <r_epik_Charging_Adjusted_Penalty>
3.97363e-07

> <i_epik_Tot_Q>
0

> <i_epik_Tot_abs_Q>
0

> <r_epik_Metal_State_Penalty>
-0

> <b_epik_Metal_Only>
0

> <s_lp_Force_Field>
OPLS_2005

> <r_lp_Energy>
45.4177

> <b_lp_Chiralities_Consistent>
1

> <s_lp_Variant>
AV-unprocessed.smi:320-1

> <Gold.Version>
5.8.1

> <Gold.Id.Protein>
6NUR|6NUR_protein|mol2

> <Gold.PLP.Fitness>
42.0407

> <Gold.PLP.PLP>
-37.1890

> <Gold.PLP.part.hbond>
-2.0000

> <Gold.PLP.part.metal>
0.0000

> <Gold.PLP.part.buried>
-2.6662

> <Gold.PLP.part.nonpolar>
-32.3963

> <Gold.PLP.part.repulsive>
0.1735

> <Gold.PLP.ligand.clash>
0.0000

> <Gold.PLP.ligand.torsion>
0.3108

> <Gold.PLP.Chemscore.Hbond>
1.8073

> <Gold.PLP.Chemscore.CHOScore>
0.0000

> <Gold.PLP.Chemscore.Metal>
0.0000

> <Gold.Chemscore.Hbonds>
donor molecule, donor type, donor heavy atom, donor atom, acceptor molecule, acceptor atom, score
      P1  H  6934  6947       L1    13  0.74

> <Gold.PLP.Chemscore.Internal.Correction>
0.0516

> <Gold.Rescore>
     Score         DG    S(hbond)    S(metal)    S(lipo)     H(rot)  DE(clash)    DE(int)     intcor
     16.81     -17.88       1.84        0.00      86.75       1.52       0.69       0.38       ----

> <Gold.Chemscore.Fitness>
16.8100

> <Gold.Chemscore.DG>
-17.8824

> <Gold.Chemscore.ZeroCoef>
-5.4800

> <Gold.Chemscore.Hbond>
1.8397

> <Gold.Chemscore.Metal>
0.0000

> <Gold.Chemscore.Lipo>
86.7473

> <Gold.Chemscore.Internal_Hbond>
0.0000

> <Gold.Chemscore.DEClash>
0.6929

> <Gold.Chemscore.DEInternal>
0.3795

> <Gold.Chemscore.Rot>
1.5202

> <Gold.Chemscore.Internal.Correction>
   9.000000E+99

> <Gold.Chemscore.Hbonds>
donor molecule, donor type, donor heavy atom, donor atom, acceptor molecule, acceptor atom, score
      P1  H  6934  6947       L1    13  0.72

> <Gold.Chemscore.Hbond.Weighted>
-6.1446

> <Gold.Chemscore.Metal.Weighted>
-0.0000

> <Gold.Chemscore.Lipo.Weighted>
-10.1494

> <Gold.Chemscore.Internal_Hbond.Weighted>
0.0000

> <Gold.Chemscore.DEClash.Weighted>
0.6929

> <Gold.Chemscore.DEInternal.Weighted>
0.3795

> <Gold.Chemscore.Rot.Weighted>
3.8916

> <Gold.Chemscore.Internal.Correction.Weighted>
   9.000000E+99

> <Gold.Protein.RotatedTorsions>
[ 6907 6896 6895 6894 ] final  -84.41 input  -60.11 | X-H torsion
[ 7974 7965 7964 7962 ] final  101.55 input  175.53 | X-H torsion
[ 8008 7997 7996 7995 ] final  114.01 input   59.86 | X-H torsion
[ 10167 10162 10161 10158 ] final  163.55 input  -65.29 | X-H torsion
[ 10718 10713 10712 10709 ] final -136.30 input   66.30 | X-H torsion
[ 10763 10752 10751 10750 ] final  120.96 input  -60.55 | X-H torsion
[ 11005 11000 10999 10996 ] final -179.40 input  -57.11 | X-H torsion

> <Gold.Protein.ActiveResidues>
 VAL166  LYS551  ARG553  GLY616  TRP617  ASP618  TYR619  PRO620  LYS621  CYS622 
 ASP623  PHE694  ASN695  SER759  ASP760  ASP761  ALA762  ILE779  LEU786  VAL792 
 PHE793  MET794  SER795  GLU796  ALA797  LYS798  CYS799  TRP800  GLU811  SER814 

> <Gold.Protein.RotatedAtoms>
  150.6877  134.3363  159.4848 H   0  0  0  0  0  0  0  0  0  0  0  0  # atno 6907 bound_to 6896
  152.1222  134.9195  160.0572 H   0  0  0  0  0  0  0  0  0  0  0  0  # atno 6908 bound_to 6896
  152.0396  133.3937  159.4368 H   0  0  0  0  0  0  0  0  0  0  0  0  # atno 6909 bound_to 6896
  145.3709  139.2398  143.3456 H   0  0  0  0  0  0  0  0  0  0  0  0  # atno 7974 bound_to 7965
  156.2294  140.2968  156.0150 H   0  0  0  0  0  0  0  0  0  0  0  0  # atno 8008 bound_to 7997
  155.2266  140.0417  157.2973 H   0  0  0  0  0  0  0  0  0  0  0  0  # atno 8009 bound_to 7997
  154.5970  140.2417  155.7851 H   0  0  0  0  0  0  0  0  0  0  0  0  # atno 8010 bound_to 7997
  139.4875  144.4326  151.9052 H   0  0  0  0  0  0  0  0  0  0  0  0  # atno 10167 bound_to 10162
  156.2756  130.7291  151.1272 H   0  0  0  0  0  0  0  0  0  0  0  0  # atno 10718 bound_to 10713
  153.6067  135.3438  155.2964 H   0  0  0  0  0  0  0  0  0  0  0  0  # atno 10763 bound_to 10752
  154.8626  135.4240  154.2354 H   0  0  0  0  0  0  0  0  0  0  0  0  # atno 10764 bound_to 10752
  153.3195  135.7037  153.7115 H   0  0  0  0  0  0  0  0  0  0  0  0  # atno 10765 bound_to 10752
  140.4191  134.6622  157.4654 H   0  0  0  0  0  0  0  0  0  0  0  0  # atno 11005 bound_to 11000
  146.2886  140.4359  142.8748 LP  0  0  0  0  0  0  0  0  0  0  0  0  # atno 17320 bound_to 7965
  144.8577  140.7095  143.6127 LP  0  0  0  0  0  0  0  0  0  0  0  0  # atno 17321 bound_to 7965
  140.3774  144.2779  150.5912 LP  0  0  0  0  0  0  0  0  0  0  0  0  # atno 17342 bound_to 10162
  140.5264  143.2253  151.8308 LP  0  0  0  0  0  0  0  0  0  0  0  0  # atno 17343 bound_to 10162
  157.7298  131.0621  150.5756 LP  0  0  0  0  0  0  0  0  0  0  0  0  # atno 17370 bound_to 10713
  156.5857  130.4316  149.5958 LP  0  0  0  0  0  0  0  0  0  0  0  0  # atno 17371 bound_to 10713
  140.0213  134.6543  155.9236 LP  0  0  0  0  0  0  0  0  0  0  0  0  # atno 17394 bound_to 11000
  141.1791  133.6544  156.4947 LP  0  0  0  0  0  0  0  0  0  0  0  0  # atno 17395 bound_to 11000

$$$$
