AV-unprocessed.smi:3085|AV-procd|sdf|11761|dock2
  -GOLD-   2272017143D 1   1.00000     0.00000
 Structure written by MMmdl.
 27 28  0  0  0  0  0  0  0  0  3 V2000
  152.8339  142.4689  159.2644 C   0  0  0  0  0  0  0  0  0  0  0  0
  151.7658  141.3740  159.1793 C   0  0  0  0  0  0  0  0  0  0  0  0
  151.5890  140.8604  157.7671 C   0  0  0  0  0  0  0  0  0  0  0  0
  150.4851  140.9622  157.0333 N   0  0  0  0  0  0  0  0  0  0  0  0
  150.7544  140.3344  155.8802 C   0  0  0  0  0  0  0  0  0  0  0  0
  149.7920  140.2376  154.7148 C   0  0  1  0  0  0  0  0  0  0  0  0
  149.6431  138.7797  154.2380 C   0  0  0  0  0  0  0  0  0  0  0  0
  148.6938  138.7056  153.1106 N   0  3  0  0  0  0  0  0  0  0  0  0
  147.3947  139.3167  153.4524 C   0  0  0  0  0  0  0  0  0  0  0  0
  147.6059  140.7544  153.9556 C   0  0  0  0  0  0  0  0  0  0  0  0
  148.5046  140.7464  155.0589 O   0  0  0  0  0  0  0  0  0  0  0  0
  152.0077  139.8547  155.8810 N   0  0  0  0  0  0  0  0  0  0  0  0
  152.5044  140.1767  157.0577 N   0  5  0  0  0  0  0  0  0  0  0  0
  152.9412  142.8291  160.2875 H   0  0  0  0  0  0  0  0  0  0  0  0
  152.5736  143.3210  158.6359 H   0  0  0  0  0  0  0  0  0  0  0  0
  153.8045  142.0946  158.9376 H   0  0  0  0  0  0  0  0  0  0  0  0
  152.0336  140.5402  159.8289 H   0  0  0  0  0  0  0  0  0  0  0  0
  150.8096  141.7573  159.5370 H   0  0  0  0  0  0  0  0  0  0  0  0
  150.2017  140.8464  153.9065 H   0  0  0  0  0  0  0  0  0  0  0  0
  150.6061  138.3790  153.9204 H   0  0  0  0  0  0  0  0  0  0  0  0
  149.2839  138.1483  155.0520 H   0  0  0  0  0  0  0  0  0  0  0  0
  149.0896  139.2047  152.3267 H   0  0  0  0  0  0  0  0  0  0  0  0
  146.7485  139.3078  152.5746 H   0  0  0  0  0  0  0  0  0  0  0  0
  146.9056  138.7161  154.2204 H   0  0  0  0  0  0  0  0  0  0  0  0
  147.9935  141.3940  153.1610 H   0  0  0  0  0  0  0  0  0  0  0  0
  146.6565  141.1841  154.2757 H   0  0  0  0  0  0  0  0  0  0  0  0
  148.5553  137.7394  152.8510 H   0  0  0  0  0  0  0  0  0  0  0  0
  1  2  1  0  0  0  0
  1 14  1  0  0  0  0
  1 15  1  0  0  0  0
  1 16  1  0  0  0  0
  2  3  1  0  0  0  0
  2 17  1  0  0  0  0
  2 18  1  0  0  0  0
  3 13  1  0  0  0  0
  3  4  2  0  0  0  0
  4  5  1  0  0  0  0
  5  6  1  0  0  0  0
  5 12  2  0  0  0  0
  6 11  1  0  0  0  0
  6  7  1  0  0  0  0
  6 19  1  0  0  0  0
  7  8  1  0  0  0  0
  7 20  1  0  0  0  0
  7 21  1  0  0  0  0
  8  9  1  0  0  0  0
  8 22  1  0  0  0  0
  8 27  1  0  0  0  0
  9 10  1  0  0  0  0
  9 23  1  0  0  0  0
  9 24  1  0  0  0  0
 10 11  1  0  0  0  0
 10 25  1  0  0  0  0
 10 26  1  0  0  0  0
 12 13  1  0  0  0  0
M  CHG  1   8   1
M  CHG  1  13  -1
M  END
> <s_m_source_file>
AV-unprocessed.smi

> <i_m_source_file_index>
3085

> <i_lp_mmshare_version>
43012

> <i_f3d_flags>
0

> <s_epik_input>
W0NIM11bQ0gyXWMxbmMobltuSF0xKVtDQEBIXTJbQ0gyXVtOSF1bQ0gyXVtDSDJdTzI=

> <s_epik_cmdline>
J2VwaWtfcHl0aG9uJywgJy1waCcsICc3LjAnLCAnLXRuJywgJzgnLCAnLW1hJywgJzIwMCcsICctbWV0YWxfYmluZGluZycsICctaW1hZScsICc8aW5maWxlLm1hZT4nLCAnLW9tYWUnLCAnPG91dGZpbGUubWFlPic=

> <r_lp_tautomer_probability>
0.948284

> <r_epik_Ionization_Penalty>
5.24708

> <r_epik_Ionization_Penalty_Charging>
5.24708

> <r_epik_Ionization_Penalty_Neutral>
2.10756e-13

> <r_epik_State_Penalty>
3.12001

> <r_epik_Charging_Adjusted_Penalty>
8.36709

> <i_epik_Tot_Q>
0

> <i_epik_Tot_abs_Q>
2

> <r_epik_Metal_State_Penalty>
0.69864

> <b_epik_Metal_Only>
1

> <s_lp_Force_Field>
OPLS_2005

> <r_lp_Energy>
4.67027

> <b_lp_Chiralities_Consistent>
1

> <s_lp_Variant>
AV-unprocessed.smi:3085-12

> <Gold.Version>
5.8.1

> <Gold.Id.Protein>
6NUR|6NUR_protein|mol2

> <Gold.PLP.Fitness>
38.7304

> <Gold.PLP.PLP>
-23.9619

> <Gold.PLP.part.hbond>
-3.0000

> <Gold.PLP.part.metal>
0.0000

> <Gold.PLP.part.buried>
-2.5774

> <Gold.PLP.part.nonpolar>
-18.2314

> <Gold.PLP.part.repulsive>
0.2107

> <Gold.PLP.ligand.clash>
0.0000

> <Gold.PLP.ligand.torsion>
0.1236

> <Gold.PLP.Chemscore.Hbond>
5.0000

> <Gold.PLP.Chemscore.CHOScore>
0.0000

> <Gold.PLP.Chemscore.Metal>
0.0000

> <Gold.Chemscore.Hbonds>
donor molecule, donor type, donor heavy atom, donor atom, acceptor molecule, acceptor atom, score
      L1  H     8    22       P1  7957  0.96
      L1  H     8    27       P1  7948  2.00
      P1  H  7997  8010       L1    13  2.00

> <Gold.PLP.Chemscore.Internal.Correction>
0.0158

> <Gold.Rescore>
     Score         DG    S(hbond)    S(metal)    S(lipo)     H(rot)  DE(clash)    DE(int)     intcor
     16.57     -16.67       2.80        0.00      43.91       1.28       0.01       0.09       ----

> <Gold.Chemscore.Fitness>
16.5660

> <Gold.Chemscore.DG>
-16.6686

> <Gold.Chemscore.ZeroCoef>
-5.4800

> <Gold.Chemscore.Hbond>
2.7952

> <Gold.Chemscore.Metal>
0.0000

> <Gold.Chemscore.Lipo>
43.9144

> <Gold.Chemscore.Internal_Hbond>
0.0000

> <Gold.Chemscore.DEClash>
0.0118

> <Gold.Chemscore.DEInternal>
0.0908

> <Gold.Chemscore.Rot>
1.2833

> <Gold.Chemscore.Internal.Correction>
   9.000000E+99

> <Gold.Chemscore.Hbonds>
donor molecule, donor type, donor heavy atom, donor atom, acceptor molecule, acceptor atom, score
      L1  H     8    22       P1  7957  0.91
      L1  H     8    27       P1  7948  0.95
      P1  H  7997  8010       L1    13  0.29

> <Gold.Chemscore.Hbond.Weighted>
-9.3359

> <Gold.Chemscore.Metal.Weighted>
-0.0000

> <Gold.Chemscore.Lipo.Weighted>
-5.1380

> <Gold.Chemscore.Internal_Hbond.Weighted>
0.0000

> <Gold.Chemscore.DEClash.Weighted>
0.0118

> <Gold.Chemscore.DEInternal.Weighted>
0.0908

> <Gold.Chemscore.Rot.Weighted>
3.2853

> <Gold.Chemscore.Internal.Correction.Weighted>
   9.000000E+99

> <Gold.Protein.RotatedTorsions>
[ 6907 6896 6895 6894 ] final  125.46 input  -60.11 | X-H torsion
[ 7974 7965 7964 7962 ] final  -86.92 input  175.53 | X-H torsion
[ 8008 7997 7996 7995 ] final   57.15 input   59.86 | X-H torsion
[ 10167 10162 10161 10158 ] final  143.90 input  -65.29 | X-H torsion
[ 10718 10713 10712 10709 ] final -158.89 input   66.30 | X-H torsion
[ 10763 10752 10751 10750 ] final  135.89 input  -60.55 | X-H torsion
[ 11005 11000 10999 10996 ] final -136.32 input  -57.11 | X-H torsion

> <Gold.Protein.ActiveResidues>
 VAL166  LYS551  ARG553  GLY616  TRP617  ASP618  TYR619  PRO620  LYS621  CYS622 
 ASP623  PHE694  ASN695  SER759  ASP760  ASP761  ALA762  ILE779  LEU786  VAL792 
 PHE793  MET794  SER795  GLU796  ALA797  LYS798  CYS799  TRP800  GLU811  SER814 

> <Gold.Protein.RotatedAtoms>
  152.3990  133.6789  159.6300 H   0  0  0  0  0  0  0  0  0  0  0  0  # atno 6907 bound_to 6896
  150.7884  133.8824  159.3298 H   0  0  0  0  0  0  0  0  0  0  0  0  # atno 6908 bound_to 6896
  151.6594  135.0993  160.0228 H   0  0  0  0  0  0  0  0  0  0  0  0  # atno 6909 bound_to 6896
  145.4734  140.9559  143.1904 H   0  0  0  0  0  0  0  0  0  0  0  0  # atno 7974 bound_to 7965
  155.5291  140.3481  155.4422 H   0  0  0  0  0  0  0  0  0  0  0  0  # atno 8008 bound_to 7997
  156.0731  140.1368  156.9831 H   0  0  0  0  0  0  0  0  0  0  0  0  # atno 8009 bound_to 7997
  154.4539  140.0961  156.6674 H   0  0  0  0  0  0  0  0  0  0  0  0  # atno 8010 bound_to 7997
  139.4959  144.6009  151.6483 H   0  0  0  0  0  0  0  0  0  0  0  0  # atno 10167 bound_to 10162
  156.5604  130.8644  151.2808 H   0  0  0  0  0  0  0  0  0  0  0  0  # atno 10718 bound_to 10713
  153.8475  135.3083  155.3430 H   0  0  0  0  0  0  0  0  0  0  0  0  # atno 10763 bound_to 10752
  154.7906  135.4785  154.0047 H   0  0  0  0  0  0  0  0  0  0  0  0  # atno 10764 bound_to 10752
  153.1538  135.6848  153.8935 H   0  0  0  0  0  0  0  0  0  0  0  0  # atno 10765 bound_to 10752
  140.8816  134.1924  157.4587 H   0  0  0  0  0  0  0  0  0  0  0  0  # atno 11005 bound_to 11000
  144.7931  139.6288  143.7104 LP  0  0  0  0  0  0  0  0  0  0  0  0  # atno 17320 bound_to 7965
  146.2383  139.5950  142.9509 LP  0  0  0  0  0  0  0  0  0  0  0  0  # atno 17321 bound_to 7965
  140.5658  144.0192  150.6192 LP  0  0  0  0  0  0  0  0  0  0  0  0  # atno 17342 bound_to 10162
  140.3293  143.3088  152.0704 LP  0  0  0  0  0  0  0  0  0  0  0  0  # atno 17343 bound_to 10162
  157.7369  130.9787  150.2166 LP  0  0  0  0  0  0  0  0  0  0  0  0  # atno 17370 bound_to 10713
  156.2804  130.3732  149.7941 LP  0  0  0  0  0  0  0  0  0  0  0  0  # atno 17371 bound_to 10713
  139.8720  134.9820  156.5137 LP  0  0  0  0  0  0  0  0  0  0  0  0  # atno 17394 bound_to 11000
  140.8454  133.8173  155.9116 LP  0  0  0  0  0  0  0  0  0  0  0  0  # atno 17395 bound_to 11000

$$$$
