AV-unprocessed.smi:169|AV-procd|sdf|1401|dock4
  -GOLD-   2262019153D 1   1.00000     0.00000
 Structure written by MMmdl.
 56 60  0  0  0  0  0  0  0  0  2 V2000
  146.0025  134.0270  152.0274 C   0  0  0  0  0  0  0  0  0  0  0  0
  145.8829  134.7102  153.4004 C   0  0  0  0  0  0  0  0  0  0  0  0
  146.2142  136.1586  153.3784 N   0  3  1  0  0  0  0  0  0  0  0  0
  145.8802  136.8088  152.0621 C   0  0  0  0  0  0  0  0  0  0  0  0
  146.6770  138.1313  151.7610 C   0  0  0  0  0  0  0  0  0  0  0  0
  146.8884  139.0064  153.0133 C   0  0  3  0  0  0  0  0  0  0  0  0
  146.1526  140.1446  153.7295 C   0  0  0  0  0  0  0  0  0  0  0  0
  145.9049  139.4763  155.1234 C   0  0  0  0  0  0  0  0  0  0  0  0
  146.6391  138.0945  155.0575 C   0  0  1  0  0  0  0  0  0  0  0  0
  145.7357  136.8868  154.6125 C   0  0  0  0  0  0  0  0  0  0  0  0
  147.6544  138.3288  154.0430 N   0  0  0  0  0  0  0  0  0  0  0  0
  148.8771  138.8323  154.3703 C   0  0  0  0  0  0  0  0  0  0  0  0
  149.9757  138.0465  154.2185 N   0  0  0  0  0  0  0  0  0  0  0  0
  151.1912  138.5067  154.5260 C   0  0  0  0  0  0  0  0  0  0  0  0
  151.5341  139.7104  154.9848 N   0  0  0  0  0  0  0  0  0  0  0  0
  150.4430  140.5162  155.1221 C   0  0  0  0  0  0  0  0  0  0  0  0
  149.0913  140.1617  154.8437 C   0  0  0  0  0  0  0  0  0  0  0  0
  148.2631  141.2468  155.1089 N   0  0  0  0  0  0  0  0  0  0  0  0
  149.0738  142.1803  155.5242 C   0  0  0  0  0  0  0  0  0  0  0  0
  150.4051  141.8332  155.5469 N   0  0  0  0  0  0  0  0  0  0  0  0
  151.5210  142.6720  155.9617 C   0  0  0  0  0  0  0  0  0  0  0  0
  151.4291  143.2130  157.4096 C   0  0  0  0  0  0  0  0  0  0  0  0
  150.2408  144.1813  157.4784 C   0  0  0  0  0  0  0  0  0  0  0  0
  150.5068  145.3698  156.7613 O   0  0  0  0  0  0  0  0  0  0  0  0
  151.4980  142.1746  158.5437 C   0  0  0  0  0  0  0  0  0  0  0  0
  152.8846  142.4764  158.8059 O   0  0  0  0  0  0  0  0  0  0  0  0
  152.7355  143.7013  158.0575 C   0  0  0  0  0  0  0  0  0  0  0  0
  145.7373  132.9723  152.1033 H   0  0  0  0  0  0  0  0  0  0  0  0
  147.0190  134.0776  151.6374 H   0  0  0  0  0  0  0  0  0  0  0  0
  145.3359  134.4770  151.2916 H   0  0  0  0  0  0  0  0  0  0  0  0
  144.8698  134.5850  153.7843 H   0  0  0  0  0  0  0  0  0  0  0  0
  146.5336  134.2080  154.1172 H   0  0  0  0  0  0  0  0  0  0  0  0
  146.0697  136.1100  151.2465 H   0  0  0  0  0  0  0  0  0  0  0  0
  144.8082  137.0107  152.0359 H   0  0  0  0  0  0  0  0  0  0  0  0
  147.6571  137.8624  151.3657 H   0  0  0  0  0  0  0  0  0  0  0  0
  146.1834  138.6978  150.9696 H   0  0  0  0  0  0  0  0  0  0  0  0
  145.8520  138.6956  153.0712 H   0  0  0  0  0  0  0  0  0  0  0  0
  146.8165  141.0031  153.8393 H   0  0  0  0  0  0  0  0  0  0  0  0
  145.2398  140.5010  153.2417 H   0  0  0  0  0  0  0  0  0  0  0  0
  146.3389  140.0984  155.9072 H   0  0  0  0  0  0  0  0  0  0  0  0
  144.8437  139.3661  155.3479 H   0  0  0  0  0  0  0  0  0  0  0  0
  147.0633  137.8541  156.0324 H   0  0  0  0  0  0  0  0  0  0  0  0
  144.7014  137.2005  154.4647 H   0  0  0  0  0  0  0  0  0  0  0  0
  145.7052  136.1880  155.4493 H   0  0  0  0  0  0  0  0  0  0  0  0
  152.0055  137.8121  154.3813 H   0  0  0  0  0  0  0  0  0  0  0  0
  148.7186  143.1550  155.8250 H   0  0  0  0  0  0  0  0  0  0  0  0
  152.4315  142.0863  155.8302 H   0  0  0  0  0  0  0  0  0  0  0  0
  151.5964  143.4968  155.2519 H   0  0  0  0  0  0  0  0  0  0  0  0
  149.3357  143.7223  157.0795 H   0  0  0  0  0  0  0  0  0  0  0  0
  150.0196  144.4550  158.5105 H   0  0  0  0  0  0  0  0  0  0  0  0
  149.6835  145.7737  156.5326 H   0  0  0  0  0  0  0  0  0  0  0  0
  150.8678  142.4147  159.4019 H   0  0  0  0  0  0  0  0  0  0  0  0
  151.3381  141.1425  158.2371 H   0  0  0  0  0  0  0  0  0  0  0  0
  153.5518  143.8780  157.3585 H   0  0  0  0  0  0  0  0  0  0  0  0
  152.6053  144.5612  158.7170 H   0  0  0  0  0  0  0  0  0  0  0  0
  147.2227  136.1804  153.4368 H   0  0  0  0  0  0  0  0  0  0  0  0
  1  2  1  0  0  0  0
  1 28  1  0  0  0  0
  1 29  1  0  0  0  0
  1 30  1  0  0  0  0
  2  3  1  0  0  0  0
  2 31  1  0  0  0  0
  2 32  1  0  0  0  0
  3 10  1  0  0  0  0
  3  4  1  0  0  0  0
  3 56  1  0  0  0  0
  4  5  1  0  0  0  0
  4 33  1  0  0  0  0
  4 34  1  0  0  0  0
  5  6  1  0  0  0  0
  5 35  1  0  0  0  0
  5 36  1  0  0  0  0
  6 11  1  0  0  0  0
  6  7  1  0  0  0  0
  6 37  1  0  0  0  0
  7  8  1  0  0  0  0
  7 38  1  0  0  0  0
  7 39  1  0  0  0  0
  8  9  1  0  0  0  0
  8 40  1  0  0  0  0
  8 41  1  0  0  0  0
  9 10  1  0  0  0  0
  9 11  1  0  0  0  0
  9 42  1  0  0  0  0
 10 43  1  0  0  0  0
 10 44  1  0  0  0  0
 11 12  1  0  0  0  0
 12 17  1  0  0  0  0
 12 13  2  0  0  0  0
 13 14  1  0  0  0  0
 14 15  2  0  0  0  0
 14 45  1  0  0  0  0
 15 16  1  0  0  0  0
 16 20  1  0  0  0  0
 16 17  2  0  0  0  0
 17 18  1  0  0  0  0
 18 19  2  0  0  0  0
 19 20  1  0  0  0  0
 19 46  1  0  0  0  0
 20 21  1  0  0  0  0
 21 22  1  0  0  0  0
 21 47  1  0  0  0  0
 21 48  1  0  0  0  0
 22 27  1  0  0  0  0
 22 23  1  0  0  0  0
 22 25  1  0  0  0  0
 23 24  1  0  0  0  0
 23 49  1  0  0  0  0
 23 50  1  0  0  0  0
 24 51  1  0  0  0  0
 25 26  1  0  0  0  0
 25 52  1  0  0  0  0
 25 53  1  0  0  0  0
 26 27  1  0  0  0  0
 27 54  1  0  0  0  0
 27 55  1  0  0  0  0
M  CHG  1   3   1
M  END
> <s_m_source_file>
AV-unprocessed.smi

> <i_m_source_file_index>
169

> <i_lp_mmshare_version>
43012

> <i_f3d_flags>
0

> <s_epik_input>
W0NASF0xMltDSDJdW0NIMl1OKFtDSDJdW0NIM10pW0NIMl1bQ0BIXShbQ0gyXVtDSDJdMSlOMmMobltjSF1uMyljKGMzNCluW2NIXW40W0NIMl1DNShbQ0gyXVtPSF0pW0NIMl1PW0NIMl01

> <s_epik_cmdline>
J2VwaWtfcHl0aG9uJywgJy1waCcsICc3LjAnLCAnLXRuJywgJzgnLCAnLW1hJywgJzIwMCcsICctbWV0YWxfYmluZGluZycsICctaW1hZScsICc8aW5maWxlLm1hZT4nLCAnLW9tYWUnLCAnPG91dGZpbGUubWFlPic=

> <r_lp_tautomer_probability>
1

> <r_epik_Ionization_Penalty>
0.00274162

> <r_epik_Ionization_Penalty_Charging>
0.00243722

> <r_epik_Ionization_Penalty_Neutral>
0.000304399

> <r_epik_State_Penalty>
-0

> <r_epik_Charging_Adjusted_Penalty>
0.00243722

> <i_epik_Tot_Q>
1

> <i_epik_Tot_abs_Q>
1

> <r_epik_Metal_State_Penalty>
-0

> <b_epik_Metal_Only>
0

> <s_lp_Force_Field>
OPLS_2005

> <r_lp_Energy>
128.509

> <b_lp_Chiralities_Consistent>
1

> <s_lp_Variant>
AV-unprocessed.smi:169-4

> <Gold.Version>
5.8.1

> <Gold.Id.Protein>
6NUR|6NUR_protein|mol2

> <Gold.PLP.Fitness>
47.4206

> <Gold.PLP.PLP>
-36.7030

> <Gold.PLP.part.hbond>
-4.0000

> <Gold.PLP.part.metal>
0.0000

> <Gold.PLP.part.buried>
-2.5490

> <Gold.PLP.part.nonpolar>
-30.6666

> <Gold.PLP.part.repulsive>
0.9995

> <Gold.PLP.ligand.clash>
0.0000

> <Gold.PLP.ligand.torsion>
0.5458

> <Gold.PLP.Chemscore.Hbond>
3.1820

> <Gold.PLP.Chemscore.CHOScore>
0.6066

> <Gold.PLP.Chemscore.Metal>
0.0000

> <Gold.Chemscore.Hbonds>
donor molecule, donor type, donor heavy atom, donor atom, acceptor molecule, acceptor atom, score
      L1  H     3    56       P1  7948  0.31

> <Gold.PLP.Chemscore.Internal.Correction>
0.4432

> <Gold.Rescore>
     Score         DG    S(hbond)    S(metal)    S(lipo)     H(rot)  DE(clash)    DE(int)     intcor
      8.00     -13.35       1.40        0.00      84.64       2.62       2.05       3.30       ----

> <Gold.Chemscore.Fitness>
7.9977

> <Gold.Chemscore.DG>
-13.3459

> <Gold.Chemscore.ZeroCoef>
-5.4800

> <Gold.Chemscore.Hbond>
1.3991

> <Gold.Chemscore.Metal>
0.0000

> <Gold.Chemscore.Lipo>
84.6414

> <Gold.Chemscore.Internal_Hbond>
0.0000

> <Gold.Chemscore.DEClash>
2.0494

> <Gold.Chemscore.DEInternal>
3.2988

> <Gold.Chemscore.Rot>
2.6212

> <Gold.Chemscore.Internal.Correction>
   9.000000E+99

> <Gold.Chemscore.Hbonds>
donor molecule, donor type, donor heavy atom, donor atom, acceptor molecule, acceptor atom, score
      L1  H     3    56       P1  7948  0.16

> <Gold.Chemscore.Hbond.Weighted>
-4.6731

> <Gold.Chemscore.Metal.Weighted>
-0.0000

> <Gold.Chemscore.Lipo.Weighted>
-9.9030

> <Gold.Chemscore.Internal_Hbond.Weighted>
0.0000

> <Gold.Chemscore.DEClash.Weighted>
2.0494

> <Gold.Chemscore.DEInternal.Weighted>
3.2988

> <Gold.Chemscore.Rot.Weighted>
6.7102

> <Gold.Chemscore.Internal.Correction.Weighted>
   9.000000E+99

> <Gold.Protein.RotatedTorsions>
[ 6907 6896 6895 6894 ] final  -28.03 input  -60.11 | X-H torsion
[ 7974 7965 7964 7962 ] final  102.33 input  175.53 | X-H torsion
[ 8008 7997 7996 7995 ] final   66.86 input   59.86 | X-H torsion
[ 10167 10162 10161 10158 ] final -175.21 input  -65.29 | X-H torsion
[ 10718 10713 10712 10709 ] final  172.33 input   66.30 | X-H torsion
[ 10763 10752 10751 10750 ] final -179.87 input  -60.55 | X-H torsion
[ 11005 11000 10999 10996 ] final  146.72 input  -57.11 | X-H torsion

> <Gold.Protein.ActiveResidues>
 VAL166  LYS551  ARG553  GLY616  TRP617  ASP618  TYR619  PRO620  LYS621  CYS622 
 ASP623  PHE694  ASN695  SER759  ASP760  ASP761  ALA762  ILE779  LEU786  VAL792 
 PHE793  MET794  SER795  GLU796  ALA797  LYS798  CYS799  TRP800  GLU811  SER814 

> <Gold.Protein.RotatedAtoms>
  151.1387  135.0168  159.8615 H   0  0  0  0  0  0  0  0  0  0  0  0  # atno 6907 bound_to 6896
  152.5452  134.1525  159.8534 H   0  0  0  0  0  0  0  0  0  0  0  0  # atno 6908 bound_to 6896
  151.1598  133.4807  159.2627 H   0  0  0  0  0  0  0  0  0  0  0  0  # atno 6909 bound_to 6896
  145.3605  139.2419  143.3509 H   0  0  0  0  0  0  0  0  0  0  0  0  # atno 7974 bound_to 7965
  155.6839  140.3496  155.4866 H   0  0  0  0  0  0  0  0  0  0  0  0  # atno 8008 bound_to 7997
  155.9583  140.1132  157.0940 H   0  0  0  0  0  0  0  0  0  0  0  0  # atno 8009 bound_to 7997
  154.4137  140.1180  156.5131 H   0  0  0  0  0  0  0  0  0  0  0  0  # atno 8010 bound_to 7997
  139.5593  144.1910  152.1212 H   0  0  0  0  0  0  0  0  0  0  0  0  # atno 10167 bound_to 10162
  156.9805  131.0117  151.2883 H   0  0  0  0  0  0  0  0  0  0  0  0  # atno 10718 bound_to 10713
  154.5295  135.2799  155.1192 H   0  0  0  0  0  0  0  0  0  0  0  0  # atno 10763 bound_to 10752
  154.2718  135.6302  153.5317 H   0  0  0  0  0  0  0  0  0  0  0  0  # atno 10764 bound_to 10752
  152.9954  135.5630  154.5805 H   0  0  0  0  0  0  0  0  0  0  0  0  # atno 10765 bound_to 10752
  140.0816  134.9094  157.1510 H   0  0  0  0  0  0  0  0  0  0  0  0  # atno 11005 bound_to 11000
  146.2929  140.4238  142.8732 LP  0  0  0  0  0  0  0  0  0  0  0  0  # atno 17320 bound_to 7965
  144.8650  140.7192  143.6083 LP  0  0  0  0  0  0  0  0  0  0  0  0  # atno 17321 bound_to 7965
  140.1421  144.5193  150.6738 LP  0  0  0  0  0  0  0  0  0  0  0  0  # atno 17342 bound_to 10162
  140.6870  143.2355  151.5233 LP  0  0  0  0  0  0  0  0  0  0  0  0  # atno 17343 bound_to 10162
  157.5530  130.8195  149.8168 LP  0  0  0  0  0  0  0  0  0  0  0  0  # atno 17370 bound_to 10713
  156.0246  130.3784  150.1860 LP  0  0  0  0  0  0  0  0  0  0  0  0  # atno 17371 bound_to 10713
  140.3480  134.2631  155.7202 LP  0  0  0  0  0  0  0  0  0  0  0  0  # atno 17394 bound_to 11000
  141.2048  133.7875  157.0265 LP  0  0  0  0  0  0  0  0  0  0  0  0  # atno 17395 bound_to 11000

$$$$
