AV-unprocessed.smi:2145|AV-procd|sdf|8734|dock1
  -GOLD-   2272011503D 1   1.00000     0.00000
 Structure written by MMmdl.
 44 46  0  0  0  0  0  0  0  0  1 V2000
  142.8663  145.5844  154.5750 C   0  0  0  0  0  0  0  0  0  0  0  0
  144.0965  145.2288  153.7419 C   0  0  0  0  0  0  0  0  0  0  0  0
  144.3039  145.8494  152.6998 O   0  0  0  0  0  0  0  0  0  0  0  0
  144.9858  144.1424  154.2427 C   0  0  0  0  0  0  0  0  0  0  0  0
  145.8460  143.4775  153.3406 C   0  0  0  0  0  0  0  0  0  0  0  0
  146.6924  142.4449  153.7869 C   0  0  0  0  0  0  0  0  0  0  0  0
  146.6983  142.0484  155.1386 C   0  0  0  0  0  0  0  0  0  0  0  0
  147.5535  141.0254  155.4874 O   0  0  0  0  0  0  0  0  0  0  0  0
  148.7203  140.8247  154.7004 C   0  0  0  0  0  0  0  0  0  0  0  0
  149.9491  141.2225  155.5324 C   0  0  2  0  0  0  0  0  0  0  0  0
  151.0108  140.3484  155.2028 O   0  0  0  0  0  0  0  0  0  0  0  0
  149.6726  141.1306  157.0469 C   0  0  0  0  0  0  0  0  0  0  0  0
  150.8409  141.4567  157.8541 N   0  0  0  0  0  0  0  0  0  0  0  0
  151.8305  140.6240  158.2600 C   0  0  0  0  0  0  0  0  0  0  0  0
  151.8412  139.1737  157.8939 C   0  0  0  0  0  0  0  0  0  0  0  0
  152.7918  141.1781  158.9987 N   0  0  0  0  0  0  0  0  0  0  0  0
  152.3893  142.4975  159.0782 C   0  0  0  0  0  0  0  0  0  0  0  0
  152.9865  143.6018  159.7274 C   0  0  0  0  0  0  0  0  0  0  0  0
  152.3841  144.8757  159.6688 C   0  0  0  0  0  0  0  0  0  0  0  0
  151.1783  145.0632  158.9626 C   0  0  0  0  0  0  0  0  0  0  0  0
  150.5664  143.9762  158.3090 C   0  0  0  0  0  0  0  0  0  0  0  0
  151.1718  142.7065  158.3699 C   0  0  0  0  0  0  0  0  0  0  0  0
  145.8385  142.7149  156.0458 C   0  0  0  0  0  0  0  0  0  0  0  0
  144.9929  143.7502  155.6015 C   0  0  0  0  0  0  0  0  0  0  0  0
  143.1627  145.9155  155.5704 H   0  0  0  0  0  0  0  0  0  0  0  0
  142.2073  144.7218  154.6728 H   0  0  0  0  0  0  0  0  0  0  0  0
  142.3052  146.3900  154.1009 H   0  0  0  0  0  0  0  0  0  0  0  0
  145.8664  143.7513  152.2954 H   0  0  0  0  0  0  0  0  0  0  0  0
  147.3426  141.9488  153.0813 H   0  0  0  0  0  0  0  0  0  0  0  0
  148.7848  139.7657  154.4455 H   0  0  0  0  0  0  0  0  0  0  0  0
  148.6833  141.3918  153.7684 H   0  0  0  0  0  0  0  0  0  0  0  0
  150.2426  142.2422  155.2818 H   0  0  0  0  0  0  0  0  0  0  0  0
  150.7321  139.4617  155.3745 H   0  0  0  0  0  0  0  0  0  0  0  0
  148.8597  141.8016  157.3251 H   0  0  0  0  0  0  0  0  0  0  0  0
  149.3363  140.1269  157.3103 H   0  0  0  0  0  0  0  0  0  0  0  0
  152.6745  138.6635  158.3782 H   0  0  0  0  0  0  0  0  0  0  0  0
  151.9491  139.0593  156.8151 H   0  0  0  0  0  0  0  0  0  0  0  0
  150.9159  138.6930  158.2104 H   0  0  0  0  0  0  0  0  0  0  0  0
  153.9098  143.4683  160.2713 H   0  0  0  0  0  0  0  0  0  0  0  0
  152.8491  145.7126  160.1687 H   0  0  0  0  0  0  0  0  0  0  0  0
  150.7224  146.0416  158.9238 H   0  0  0  0  0  0  0  0  0  0  0  0
  149.6407  144.1153  157.7709 H   0  0  0  0  0  0  0  0  0  0  0  0
  145.8081  142.4510  157.0919 H   0  0  0  0  0  0  0  0  0  0  0  0
  144.3533  144.2306  156.3265 H   0  0  0  0  0  0  0  0  0  0  0  0
  1  2  1  0  0  0  0
  1 25  1  0  0  0  0
  1 26  1  0  0  0  0
  1 27  1  0  0  0  0
  2  3  2  0  0  0  0
  2  4  1  0  0  0  0
  4 24  1  0  0  0  0
  4  5  2  0  0  0  0
  5  6  1  0  0  0  0
  5 28  1  0  0  0  0
  6  7  2  0  0  0  0
  6 29  1  0  0  0  0
  7  8  1  0  0  0  0
  7 23  1  0  0  0  0
  8  9  1  0  0  0  0
  9 10  1  0  0  0  0
  9 30  1  0  0  0  0
  9 31  1  0  0  0  0
 10 11  1  0  0  0  0
 10 12  1  0  0  0  0
 10 32  1  0  0  0  0
 11 33  1  0  0  0  0
 12 13  1  0  0  0  0
 12 34  1  0  0  0  0
 12 35  1  0  0  0  0
 13 22  1  0  0  0  0
 13 14  1  0  0  0  0
 14 15  1  0  0  0  0
 14 16  2  0  0  0  0
 15 36  1  0  0  0  0
 15 37  1  0  0  0  0
 15 38  1  0  0  0  0
 16 17  1  0  0  0  0
 17 22  2  0  0  0  0
 17 18  1  0  0  0  0
 18 19  2  0  0  0  0
 18 39  1  0  0  0  0
 19 20  1  0  0  0  0
 19 40  1  0  0  0  0
 20 21  2  0  0  0  0
 20 41  1  0  0  0  0
 21 22  1  0  0  0  0
 21 42  1  0  0  0  0
 23 24  2  0  0  0  0
 23 43  1  0  0  0  0
 24 44  1  0  0  0  0
M  END
> <s_m_source_file>
AV-unprocessed.smi

> <i_m_source_file_index>
2145

> <i_lp_mmshare_version>
43012

> <i_f3d_flags>
0

> <s_epik_input>
W0NIM11DKD1PKWMxW2NIXVtjSF1jKFtjSF1bY0hdMSlPW0NIMl1bQ0BIXShbT0hdKVtDSDJdbihjKG4yKVtDSDNdKWMoYzIzKVtjSF1bY0hdW2NIXVtjSF0z

> <s_epik_cmdline>
J2VwaWtfcHl0aG9uJywgJy1waCcsICc3LjAnLCAnLXRuJywgJzgnLCAnLW1hJywgJzIwMCcsICctbWV0YWxfYmluZGluZycsICctaW1hZScsICc8aW5maWxlLm1hZT4nLCAnLW9tYWUnLCAnPG91dGZpbGUubWFlPic=

> <r_lp_tautomer_probability>
0.99995

> <r_epik_Ionization_Penalty>
0.109398

> <r_epik_Ionization_Penalty_Charging>
0

> <r_epik_Ionization_Penalty_Neutral>
0.109398

> <r_epik_State_Penalty>
0.0991698

> <r_epik_Charging_Adjusted_Penalty>
0.0991698

> <i_epik_Tot_Q>
0

> <i_epik_Tot_abs_Q>
0

> <r_epik_Metal_State_Penalty>
0.000107943

> <b_epik_Metal_Only>
0

> <s_lp_Force_Field>
OPLS_2005

> <r_lp_Energy>
22.0083

> <b_lp_Chiralities_Consistent>
1

> <s_lp_Variant>
AV-unprocessed.smi:2145-1

> <Gold.Version>
5.8.1

> <Gold.Id.Protein>
6NUR|6NUR_protein|mol2

> <Gold.PLP.Fitness>
52.9306

> <Gold.PLP.PLP>
-53.1264

> <Gold.PLP.part.hbond>
-3.0000

> <Gold.PLP.part.metal>
0.0000

> <Gold.PLP.part.buried>
-10.2864

> <Gold.PLP.part.nonpolar>
-40.3602

> <Gold.PLP.part.repulsive>
0.1968

> <Gold.PLP.ligand.clash>
0.0000

> <Gold.PLP.ligand.torsion>
1.7580

> <Gold.PLP.Chemscore.Hbond>
0.9920

> <Gold.PLP.Chemscore.CHOScore>
0.0000

> <Gold.PLP.Chemscore.Metal>
0.0000

> <Gold.Chemscore.Hbonds>
donor molecule, donor type, donor heavy atom, donor atom, acceptor molecule, acceptor atom, score
      P1  H  7989  7998       L1    11  1.00

> <Gold.PLP.Chemscore.Internal.Correction>
0.3443

> <Gold.Rescore>
     Score         DG    S(hbond)    S(metal)    S(lipo)     H(rot)  DE(clash)    DE(int)     intcor
     14.12     -17.38       0.80        0.00     127.38       2.22       1.42       1.84       ----

> <Gold.Chemscore.Fitness>
14.1247

> <Gold.Chemscore.DG>
-17.3818

> <Gold.Chemscore.ZeroCoef>
-5.4800

> <Gold.Chemscore.Hbond>
0.8010

> <Gold.Chemscore.Metal>
0.0000

> <Gold.Chemscore.Lipo>
127.3796

> <Gold.Chemscore.Internal_Hbond>
0.0000

> <Gold.Chemscore.DEClash>
1.4185

> <Gold.Chemscore.DEInternal>
1.8385

> <Gold.Chemscore.Rot>
2.2176

> <Gold.Chemscore.Internal.Correction>
   9.000000E+99

> <Gold.Chemscore.Hbonds>
donor molecule, donor type, donor heavy atom, donor atom, acceptor molecule, acceptor atom, score
      P1  H  7989  7998       L1    11  0.58

> <Gold.Chemscore.Hbond.Weighted>
-2.6753

> <Gold.Chemscore.Metal.Weighted>
-0.0000

> <Gold.Chemscore.Lipo.Weighted>
-14.9034

> <Gold.Chemscore.Internal_Hbond.Weighted>
0.0000

> <Gold.Chemscore.DEClash.Weighted>
1.4185

> <Gold.Chemscore.DEInternal.Weighted>
1.8385

> <Gold.Chemscore.Rot.Weighted>
5.6769

> <Gold.Chemscore.Internal.Correction.Weighted>
   9.000000E+99

> <Gold.Protein.RotatedTorsions>
[ 6907 6896 6895 6894 ] final -127.16 input  -60.11 | X-H torsion
[ 7974 7965 7964 7962 ] final  112.76 input  175.53 | X-H torsion
[ 8008 7997 7996 7995 ] final  161.53 input   59.86 | X-H torsion
[ 10167 10162 10161 10158 ] final  -47.72 input  -65.29 | X-H torsion
[ 10718 10713 10712 10709 ] final   29.02 input   66.30 | X-H torsion
[ 10763 10752 10751 10750 ] final  -64.86 input  -60.55 | X-H torsion
[ 11005 11000 10999 10996 ] final -162.50 input  -57.11 | X-H torsion

> <Gold.Protein.ActiveResidues>
 VAL166  LYS551  ARG553  GLY616  TRP617  ASP618  TYR619  PRO620  LYS621  CYS622 
 ASP623  PHE694  ASN695  SER759  ASP760  ASP761  ALA762  ILE779  LEU786  VAL792 
 PHE793  MET794  SER795  GLU796  ALA797  LYS798  CYS799  TRP800  GLU811  SER814 

> <Gold.Protein.RotatedAtoms>
  150.9044  133.7077  159.2870 H   0  0  0  0  0  0  0  0  0  0  0  0  # atno 6907 bound_to 6896
  151.4585  135.1035  159.9728 H   0  0  0  0  0  0  0  0  0  0  0  0  # atno 6908 bound_to 6896
  152.4895  133.8412  159.7209 H   0  0  0  0  0  0  0  0  0  0  0  0  # atno 6909 bound_to 6896
  145.2255  139.2843  143.4196 H   0  0  0  0  0  0  0  0  0  0  0  0  # atno 7974 bound_to 7965
  156.2097  140.1775  156.7723 H   0  0  0  0  0  0  0  0  0  0  0  0  # atno 8008 bound_to 7997
  154.5704  140.0683  156.8985 H   0  0  0  0  0  0  0  0  0  0  0  0  # atno 8009 bound_to 7997
  155.2683  140.3340  155.4270 H   0  0  0  0  0  0  0  0  0  0  0  0  # atno 8010 bound_to 7997
  140.6763  143.2772  151.3967 H   0  0  0  0  0  0  0  0  0  0  0  0  # atno 10167 bound_to 10162
  157.2411  130.7069  149.6359 H   0  0  0  0  0  0  0  0  0  0  0  0  # atno 10718 bound_to 10713
  154.3364  135.6166  153.5575 H   0  0  0  0  0  0  0  0  0  0  0  0  # atno 10763 bound_to 10752
  152.9807  135.5759  154.4903 H   0  0  0  0  0  0  0  0  0  0  0  0  # atno 10764 bound_to 10752
  154.4599  135.2855  155.1697 H   0  0  0  0  0  0  0  0  0  0  0  0  # atno 10765 bound_to 10752
  140.6085  134.4874  157.5213 H   0  0  0  0  0  0  0  0  0  0  0  0  # atno 11005 bound_to 11000
  146.3366  140.2573  142.8600 LP  0  0  0  0  0  0  0  0  0  0  0  0  # atno 17320 bound_to 7965
  144.9726  140.8383  143.5446 LP  0  0  0  0  0  0  0  0  0  0  0  0  # atno 17321 bound_to 7965
  139.6057  144.1202  152.2246 LP  0  0  0  0  0  0  0  0  0  0  0  0  # atno 17342 bound_to 10162
  140.0600  144.5864  150.7270 LP  0  0  0  0  0  0  0  0  0  0  0  0  # atno 17343 bound_to 10162
  155.9670  130.4458  150.5515 LP  0  0  0  0  0  0  0  0  0  0  0  0  # atno 17370 bound_to 10713
  157.3378  131.0711  151.1812 LP  0  0  0  0  0  0  0  0  0  0  0  0  # atno 17371 bound_to 10713
  139.9202  134.8164  156.1236 LP  0  0  0  0  0  0  0  0  0  0  0  0  # atno 17394 bound_to 11000
  141.0824  133.6748  156.2364 LP  0  0  0  0  0  0  0  0  0  0  0  0  # atno 17395 bound_to 11000

$$$$
