AV-unprocessed.smi:3282|AV-procd|sdf|12562|dock5
  -GOLD-   2272018483D 1   1.00000     0.00000
 Structure written by MMmdl.
 34 35  0  0  0  0  0  0  0  0  1 V2000
  152.1642  145.2219  158.9180 C   0  0  0  0  0  0  0  0  0  0  0  0
  151.6898  144.4476  160.1586 C   0  0  0  0  0  0  0  0  0  0  0  0
  152.4094  143.1036  160.3619 C   0  0  0  0  0  0  0  0  0  0  0  0
  153.1108  142.9282  161.3595 O   0  0  0  0  0  0  0  0  0  0  0  0
  152.2452  142.1453  159.4264 N   0  0  0  0  0  0  0  0  0  0  0  0
  152.8584  140.8227  159.5126 C   0  0  0  0  0  0  0  0  0  0  0  0
  152.2233  139.9914  158.3983 C   0  0  0  0  0  0  0  0  0  0  0  0
  151.7509  141.0180  157.3728 C   0  0  1  0  0  0  0  0  0  0  0  0
  150.5806  140.5458  156.6395 N   0  0  0  0  0  0  0  0  0  0  0  0
  150.6076  139.9556  155.4355 C   0  0  0  0  0  0  0  0  0  0  0  0
  151.6672  139.7517  154.8346 O   0  0  0  0  0  0  0  0  0  0  0  0
  149.3265  139.6012  155.0424 N   0  0  0  0  0  0  0  0  0  0  0  0
  148.4762  140.5363  154.7479 C   0  0  0  0  0  0  0  0  0  0  0  0
  148.5721  141.9252  154.7102 N   0  0  0  0  0  0  0  0  0  0  0  0
  147.3621  142.4244  154.3164 C   0  0  0  0  0  0  0  0  0  0  0  0
  146.5393  141.3997  154.1144 C   0  0  0  0  0  0  0  0  0  0  0  0
  147.1929  140.2317  154.3701 O   0  0  0  0  0  0  0  0  0  0  0  0
  151.4492  142.2707  158.2067 C   0  0  0  0  0  0  0  0  0  0  0  0
  151.6333  146.1701  158.8301 H   0  0  0  0  0  0  0  0  0  0  0  0
  151.9825  144.6582  158.0023 H   0  0  0  0  0  0  0  0  0  0  0  0
  153.2302  145.4464  158.9716 H   0  0  0  0  0  0  0  0  0  0  0  0
  151.8405  145.0689  161.0420 H   0  0  0  0  0  0  0  0  0  0  0  0
  150.6182  144.2634  160.0770 H   0  0  0  0  0  0  0  0  0  0  0  0
  153.9329  140.9199  159.3510 H   0  0  0  0  0  0  0  0  0  0  0  0
  152.7029  140.3605  160.4888 H   0  0  0  0  0  0  0  0  0  0  0  0
  152.9116  139.2592  157.9750 H   0  0  0  0  0  0  0  0  0  0  0  0
  151.3706  139.4457  158.8062 H   0  0  0  0  0  0  0  0  0  0  0  0
  152.5736  141.2280  156.6865 H   0  0  0  0  0  0  0  0  0  0  0  0
  149.6822  140.6710  157.0833 H   0  0  0  0  0  0  0  0  0  0  0  0
  149.3710  142.5034  154.9275 H   0  0  0  0  0  0  0  0  0  0  0  0
  147.2153  143.4900  154.2204 H   0  0  0  0  0  0  0  0  0  0  0  0
  145.5073  141.3382  153.8021 H   0  0  0  0  0  0  0  0  0  0  0  0
  150.3940  142.3149  158.4826 H   0  0  0  0  0  0  0  0  0  0  0  0
  151.6915  143.1757  157.6478 H   0  0  0  0  0  0  0  0  0  0  0  0
  1  2  1  0  0  0  0
  1 19  1  0  0  0  0
  1 20  1  0  0  0  0
  1 21  1  0  0  0  0
  2  3  1  0  0  0  0
  2 22  1  0  0  0  0
  2 23  1  0  0  0  0
  3  4  2  0  0  0  0
  3  5  1  0  0  0  0
  5 18  1  0  0  0  0
  5  6  1  0  0  0  0
  6  7  1  0  0  0  0
  6 24  1  0  0  0  0
  6 25  1  0  0  0  0
  7  8  1  0  0  0  0
  7 26  1  0  0  0  0
  7 27  1  0  0  0  0
  8  9  1  0  0  0  0
  8 18  1  0  0  0  0
  8 28  1  0  0  0  0
  9 29  1  0  0  0  0
  9 10  1  0  0  0  0
 10 12  1  0  0  0  0
 10 11  2  0  0  0  0
 12 13  2  0  0  0  0
 13 17  1  0  0  0  0
 13 14  1  0  0  0  0
 14 30  1  0  0  0  0
 14 15  1  0  0  0  0
 15 31  1  0  0  0  0
 15 16  2  0  0  0  0
 16 32  1  0  0  0  0
 16 17  1  0  0  0  0
 18 33  1  0  0  0  0
 18 34  1  0  0  0  0
M  END
> <s_m_source_file>
AV-unprocessed.smi

> <i_m_source_file_index>
3282

> <i_lp_mmshare_version>
43012

> <i_f3d_flags>
0

> <s_epik_input>
W0NIM11bQ0gyXUMoPU8pTjFbQ0gyXVtDSDJdW0NASF0oW0NIMl0xKVtOSF1DKD1PKVtOSF1jMm5bY0hdW2NIXW8y

> <s_epik_cmdline>
J2VwaWtfcHl0aG9uJywgJy1waCcsICc3LjAnLCAnLXRuJywgJzgnLCAnLW1hJywgJzIwMCcsICctbWV0YWxfYmluZGluZycsICctaW1hZScsICc8aW5maWxlLm1hZT4nLCAnLW9tYWUnLCAnPG91dGZpbGUubWFlPic=

> <r_lp_tautomer_probability>
0.107061

> <r_epik_Ionization_Penalty>
0.434703

> <r_epik_Ionization_Penalty_Charging>
0.434345

> <r_epik_Ionization_Penalty_Neutral>
0.000358141

> <r_epik_State_Penalty>
2.49584

> <r_epik_Charging_Adjusted_Penalty>
2.93019

> <i_epik_Tot_Q>
0

> <i_epik_Tot_abs_Q>
0

> <r_epik_Metal_State_Penalty>
4.06361

> <b_epik_Metal_Only>
0

> <s_lp_Force_Field>
OPLS_2005

> <r_lp_Energy>
50.3275

> <b_lp_Chiralities_Consistent>
1

> <s_lp_Variant>
AV-unprocessed.smi:3282-3

> <Gold.Version>
5.8.1

> <Gold.Id.Protein>
6NUR|6NUR_protein|mol2

> <Gold.PLP.Fitness>
42.6613

> <Gold.PLP.PLP>
-36.8021

> <Gold.PLP.part.hbond>
-2.0000

> <Gold.PLP.part.metal>
0.0000

> <Gold.PLP.part.buried>
-4.9336

> <Gold.PLP.part.nonpolar>
-29.5225

> <Gold.PLP.part.repulsive>
0.7994

> <Gold.PLP.ligand.clash>
0.0000

> <Gold.PLP.ligand.torsion>
1.0043

> <Gold.PLP.Chemscore.Hbond>
1.0044

> <Gold.PLP.Chemscore.CHOScore>
1.6149

> <Gold.PLP.Chemscore.Metal>
0.0000

> <Gold.Chemscore.Hbonds>
donor molecule, donor type, donor heavy atom, donor atom, acceptor molecule, acceptor atom, score
      L1  H    14    30       P1  8028  0.05
      P1  H  7989  7998       L1    11  1.00
      L1  C    15    31       P1  8028  0.52
      L1  C    16    32       P1 10175  1.00

> <Gold.PLP.Chemscore.Internal.Correction>
0.0099

> <Gold.Rescore>
     Score         DG    S(hbond)    S(metal)    S(lipo)     H(rot)  DE(clash)    DE(int)     intcor
     13.72     -14.72       1.60        0.00      62.33       1.32       0.04       0.96       ----

> <Gold.Chemscore.Fitness>
13.7202

> <Gold.Chemscore.DG>
-14.7211

> <Gold.Chemscore.ZeroCoef>
-5.4800

> <Gold.Chemscore.Hbond>
1.5951

> <Gold.Chemscore.Metal>
0.0000

> <Gold.Chemscore.Lipo>
62.3286

> <Gold.Chemscore.Internal_Hbond>
0.0000

> <Gold.Chemscore.DEClash>
0.0361

> <Gold.Chemscore.DEInternal>
0.9648

> <Gold.Chemscore.Rot>
1.3199

> <Gold.Chemscore.Internal.Correction>
   9.000000E+99

> <Gold.Chemscore.Hbonds>
donor molecule, donor type, donor heavy atom, donor atom, acceptor molecule, acceptor atom, score
      L1  H    14    30       P1  8028  0.05
      P1  H  7989  7998       L1    11  0.54

> <Gold.Chemscore.Hbond.Weighted>
-5.3276

> <Gold.Chemscore.Metal.Weighted>
-0.0000

> <Gold.Chemscore.Lipo.Weighted>
-7.2924

> <Gold.Chemscore.Internal_Hbond.Weighted>
0.0000

> <Gold.Chemscore.DEClash.Weighted>
0.0361

> <Gold.Chemscore.DEInternal.Weighted>
0.9648

> <Gold.Chemscore.Rot.Weighted>
3.3789

> <Gold.Chemscore.Internal.Correction.Weighted>
   9.000000E+99

> <Gold.Protein.RotatedTorsions>
[ 6907 6896 6895 6894 ] final -117.45 input  -60.11 | X-H torsion
[ 7974 7965 7964 7962 ] final  -68.76 input  175.53 | X-H torsion
[ 8008 7997 7996 7995 ] final   23.33 input   59.86 | X-H torsion
[ 10167 10162 10161 10158 ] final -137.84 input  -65.29 | X-H torsion
[ 10718 10713 10712 10709 ] final -170.40 input   66.30 | X-H torsion
[ 10763 10752 10751 10750 ] final  121.98 input  -60.55 | X-H torsion
[ 11005 11000 10999 10996 ] final   43.35 input  -57.11 | X-H torsion

> <Gold.Protein.ActiveResidues>
 VAL166  LYS551  ARG553  GLY616  TRP617  ASP618  TYR619  PRO620  LYS621  CYS622 
 ASP623  PHE694  ASN695  SER759  ASP760  ASP761  ALA762  ILE779  LEU786  VAL792 
 PHE793  MET794  SER795  GLU796  ALA797  LYS798  CYS799  TRP800  GLU811  SER814 

> <Gold.Protein.RotatedAtoms>
  150.8137  133.8375  159.3169 H   0  0  0  0  0  0  0  0  0  0  0  0  # atno 6907 bound_to 6896
  151.6153  135.1035  160.0099 H   0  0  0  0  0  0  0  0  0  0  0  0  # atno 6908 bound_to 6896
  152.4229  133.7106  159.6533 H   0  0  0  0  0  0  0  0  0  0  0  0  # atno 6909 bound_to 6896
  145.7123  140.9073  143.0674 H   0  0  0  0  0  0  0  0  0  0  0  0  # atno 7974 bound_to 7965
  154.9793  140.3100  155.4953 H   0  0  0  0  0  0  0  0  0  0  0  0  # atno 8008 bound_to 7997
  156.2955  140.2269  156.4830 H   0  0  0  0  0  0  0  0  0  0  0  0  # atno 8009 bound_to 7997
  154.7804  140.0446  157.1111 H   0  0  0  0  0  0  0  0  0  0  0  0  # atno 8010 bound_to 7997
  139.8537  143.7166  152.2656 H   0  0  0  0  0  0  0  0  0  0  0  0  # atno 10167 bound_to 10162
  156.7256  130.9286  151.3101 H   0  0  0  0  0  0  0  0  0  0  0  0  # atno 10718 bound_to 10713
  153.6225  135.3410  155.3015 H   0  0  0  0  0  0  0  0  0  0  0  0  # atno 10763 bound_to 10752
  154.8597  135.4276  154.2192 H   0  0  0  0  0  0  0  0  0  0  0  0  # atno 10764 bound_to 10752
  153.3068  135.7028  153.7225 H   0  0  0  0  0  0  0  0  0  0  0  0  # atno 10765 bound_to 10752
  140.1653  134.4289  155.8291 H   0  0  0  0  0  0  0  0  0  0  0  0  # atno 11005 bound_to 11000
  144.6938  139.9092  143.7462 LP  0  0  0  0  0  0  0  0  0  0  0  0  # atno 17320 bound_to 7965
  146.0701  139.3690  143.0528 LP  0  0  0  0  0  0  0  0  0  0  0  0  # atno 17321 bound_to 7965
  139.7440  144.7552  151.0608 LP  0  0  0  0  0  0  0  0  0  0  0  0  # atno 17342 bound_to 10162
  140.7784  143.4938  150.9859 LP  0  0  0  0  0  0  0  0  0  0  0  0  # atno 17343 bound_to 10162
  157.6880  130.9205  150.0438 LP  0  0  0  0  0  0  0  0  0  0  0  0  # atno 17370 bound_to 10713
  156.1564  130.3643  149.9362 LP  0  0  0  0  0  0  0  0  0  0  0  0  # atno 17371 bound_to 10713
  141.2213  133.6931  156.7667 LP  0  0  0  0  0  0  0  0  0  0  0  0  # atno 17394 bound_to 11000
  140.2441  134.8591  157.3602 LP  0  0  0  0  0  0  0  0  0  0  0  0  # atno 17395 bound_to 11000

$$$$
