AV-unprocessed.smi:3181|AV-procd|sdf|12135|dock5
  -GOLD-   2272017573D 1   1.00000     0.00000
 Structure written by MMmdl.
 42 43  0  0  0  0  0  0  0  0  2 V2000
  148.8342  141.5238  154.2029 C   0  0  0  0  0  0  0  0  0  0  0  0
  149.8259  141.2388  155.3428 C   0  0  2  0  0  0  0  0  0  0  0  0
  149.7517  139.7858  155.8547 C   0  0  0  0  0  0  0  0  0  0  0  0
  150.8009  138.9406  155.3150 N   0  0  0  0  0  0  0  0  0  0  0  0
  150.9238  137.6122  155.2932 C   0  0  0  0  0  0  0  0  0  0  0  0
  152.0374  137.1878  154.7131 N   0  0  0  0  0  0  0  0  0  0  0  0
  152.5972  138.3903  154.3848 C   0  0  0  0  0  0  0  0  0  0  0  0
  151.8967  139.4726  154.7252 N   0  0  0  0  0  0  0  0  0  0  0  0
  149.5816  142.1748  156.4636 N   0  3  0  0  0  0  0  0  0  0  0  0
  150.7381  142.4325  157.3503 C   0  0  2  0  0  0  0  0  0  0  0  0
  150.8733  141.2945  158.3774 C   0  0  0  0  0  0  0  0  0  0  0  0
  152.0344  141.5440  159.3530 C   0  0  0  0  0  0  0  0  0  0  0  0
  151.8889  142.9021  160.0669 C   0  0  1  0  0  0  0  0  0  0  0  0
  152.9984  143.1230  161.1080 C   0  0  0  0  0  0  0  0  0  0  0  0
  151.7553  144.0677  159.0535 C   0  0  1  0  0  0  0  0  0  0  0  0
  153.0608  144.4094  158.3071 C   0  0  0  0  0  0  0  0  0  0  0  0
  150.5954  143.7906  158.0738 C   0  0  0  0  0  0  0  0  0  0  0  0
  149.0384  140.9039  153.3297 H   0  0  0  0  0  0  0  0  0  0  0  0
  148.8975  142.5637  153.8806 H   0  0  0  0  0  0  0  0  0  0  0  0
  147.8064  141.3338  154.5137 H   0  0  0  0  0  0  0  0  0  0  0  0
  150.8304  141.4028  154.9497 H   0  0  0  0  0  0  0  0  0  0  0  0
  149.8251  139.7640  156.9430 H   0  0  0  0  0  0  0  0  0  0  0  0
  148.7886  139.3422  155.5977 H   0  0  0  0  0  0  0  0  0  0  0  0
  150.1840  136.9420  155.7060 H   0  0  0  0  0  0  0  0  0  0  0  0
  153.5491  138.4705  153.8807 H   0  0  0  0  0  0  0  0  0  0  0  0
  149.2623  143.0571  156.0898 H   0  0  0  0  0  0  0  0  0  0  0  0
  151.6377  142.4355  156.7328 H   0  0  0  0  0  0  0  0  0  0  0  0
  149.9451  141.1938  158.9422 H   0  0  0  0  0  0  0  0  0  0  0  0
  151.0260  140.3439  157.8651 H   0  0  0  0  0  0  0  0  0  0  0  0
  152.0638  140.7406  160.0899 H   0  0  0  0  0  0  0  0  0  0  0  0
  152.9833  141.4981  158.8176 H   0  0  0  0  0  0  0  0  0  0  0  0
  150.9526  142.8660  160.6263 H   0  0  0  0  0  0  0  0  0  0  0  0
  153.9900  143.0887  160.6567 H   0  0  0  0  0  0  0  0  0  0  0  0
  152.9662  142.3534  161.8796 H   0  0  0  0  0  0  0  0  0  0  0  0
  152.8870  144.0877  161.6035 H   0  0  0  0  0  0  0  0  0  0  0  0
  151.4846  144.9609  159.6185 H   0  0  0  0  0  0  0  0  0  0  0  0
  153.4575  143.5572  157.7566 H   0  0  0  0  0  0  0  0  0  0  0  0
  153.8363  144.7486  158.9937 H   0  0  0  0  0  0  0  0  0  0  0  0
  152.8998  145.2156  157.5911 H   0  0  0  0  0  0  0  0  0  0  0  0
  150.5251  144.6068  157.3544 H   0  0  0  0  0  0  0  0  0  0  0  0
  149.6552  143.8023  158.6277 H   0  0  0  0  0  0  0  0  0  0  0  0
  148.8402  141.7835  157.0270 H   0  0  0  0  0  0  0  0  0  0  0  0
  1  2  1  0  0  0  0
  1 18  1  0  0  0  0
  1 19  1  0  0  0  0
  1 20  1  0  0  0  0
  2  3  1  0  0  0  0
  2  9  1  0  0  0  0
  2 21  1  0  0  0  0
  3  4  1  0  0  0  0
  3 22  1  0  0  0  0
  3 23  1  0  0  0  0
  4  8  1  0  0  0  0
  4  5  1  0  0  0  0
  5  6  2  0  0  0  0
  5 24  1  0  0  0  0
  6  7  1  0  0  0  0
  7  8  2  0  0  0  0
  7 25  1  0  0  0  0
  9 10  1  0  0  0  0
  9 26  1  0  0  0  0
  9 42  1  0  0  0  0
 10 17  1  0  0  0  0
 10 11  1  0  0  0  0
 10 27  1  0  0  0  0
 11 12  1  0  0  0  0
 11 28  1  0  0  0  0
 11 29  1  0  0  0  0
 12 13  1  0  0  0  0
 12 30  1  0  0  0  0
 12 31  1  0  0  0  0
 13 14  1  0  0  0  0
 13 15  1  0  0  0  0
 13 32  1  0  0  0  0
 14 33  1  0  0  0  0
 14 34  1  0  0  0  0
 14 35  1  0  0  0  0
 15 16  1  0  0  0  0
 15 17  1  0  0  0  0
 15 36  1  0  0  0  0
 16 37  1  0  0  0  0
 16 38  1  0  0  0  0
 16 39  1  0  0  0  0
 17 40  1  0  0  0  0
 17 41  1  0  0  0  0
M  CHG  1   9   1
M  END
> <s_m_source_file>
AV-unprocessed.smi

> <i_m_source_file_index>
3181

> <i_lp_mmshare_version>
43012

> <i_f3d_flags>
0

> <s_epik_input>
bjFbY0hdbltjSF1uMVtDSDJdW0NAQEhdKFtDSDNdKVtOSF1bQ0BASF0yW0NIMl1bQ0gyXVtDQEBIXShbQ0gzXSlbQ0BASF0oW0NIM10pW0NIMl0y

> <s_epik_cmdline>
J2VwaWtfcHl0aG9uJywgJy1waCcsICc3LjAnLCAnLXRuJywgJzgnLCAnLW1hJywgJzIwMCcsICctbWV0YWxfYmluZGluZycsICctaW1hZScsICc8aW5maWxlLm1hZT4nLCAnLW9tYWUnLCAnPG91dGZpbGUubWFlPic=

> <r_lp_tautomer_probability>
1

> <r_epik_Ionization_Penalty>
0.000617007

> <r_epik_Ionization_Penalty_Charging>
0.000616215

> <r_epik_Ionization_Penalty_Neutral>
7.92544e-07

> <r_epik_State_Penalty>
0.000388807

> <r_epik_Charging_Adjusted_Penalty>
0.00100502

> <i_epik_Tot_Q>
1

> <i_epik_Tot_abs_Q>
1

> <r_epik_Metal_State_Penalty>
-0

> <b_epik_Metal_Only>
0

> <s_lp_Force_Field>
OPLS_2005

> <r_lp_Energy>
21.1585

> <b_lp_Chiralities_Consistent>
1

> <s_lp_Variant>
AV-unprocessed.smi:3181-1

> <Gold.Version>
5.8.1

> <Gold.Id.Protein>
6NUR|6NUR_protein|mol2

> <Gold.PLP.Fitness>
47.4828

> <Gold.PLP.PLP>
-38.2443

> <Gold.PLP.part.hbond>
-3.0000

> <Gold.PLP.part.metal>
0.0000

> <Gold.PLP.part.buried>
-3.5527

> <Gold.PLP.part.nonpolar>
-31.1852

> <Gold.PLP.part.repulsive>
0.2272

> <Gold.PLP.ligand.clash>
0.0000

> <Gold.PLP.ligand.torsion>
1.2500

> <Gold.PLP.Chemscore.Hbond>
3.9040

> <Gold.PLP.Chemscore.CHOScore>
0.0000

> <Gold.PLP.Chemscore.Metal>
0.0000

> <Gold.Chemscore.Hbonds>
donor molecule, donor type, donor heavy atom, donor atom, acceptor molecule, acceptor atom, score
      L1  H     9    26       P1  8028  2.00
      P1  H  7989  7998       L1     8  0.98
      P1  H 10752 10763       L1     6  0.91

> <Gold.PLP.Chemscore.Internal.Correction>
0.0265

> <Gold.Rescore>
     Score         DG    S(hbond)    S(metal)    S(lipo)     H(rot)  DE(clash)    DE(int)     intcor
     19.51     -20.71       2.78        0.00      97.04       2.11       0.11       1.10       ----

> <Gold.Chemscore.Fitness>
19.5060

> <Gold.Chemscore.DG>
-20.7137

> <Gold.Chemscore.ZeroCoef>
-5.4800

> <Gold.Chemscore.Hbond>
2.7787

> <Gold.Chemscore.Metal>
0.0000

> <Gold.Chemscore.Lipo>
97.0364

> <Gold.Chemscore.Internal_Hbond>
0.0000

> <Gold.Chemscore.DEClash>
0.1125

> <Gold.Chemscore.DEInternal>
1.0952

> <Gold.Chemscore.Rot>
2.1095

> <Gold.Chemscore.Internal.Correction>
   9.000000E+99

> <Gold.Chemscore.Hbonds>
donor molecule, donor type, donor heavy atom, donor atom, acceptor molecule, acceptor atom, score
      L1  H     9    26       P1  8028  1.00
      P1  H  7989  7998       L1     8  0.88
      P1  H 10752 10763       L1     6  0.87

> <Gold.Chemscore.Hbond.Weighted>
-9.2807

> <Gold.Chemscore.Metal.Weighted>
-0.0000

> <Gold.Chemscore.Lipo.Weighted>
-11.3533

> <Gold.Chemscore.Internal_Hbond.Weighted>
0.0000

> <Gold.Chemscore.DEClash.Weighted>
0.1125

> <Gold.Chemscore.DEInternal.Weighted>
1.0952

> <Gold.Chemscore.Rot.Weighted>
5.4003

> <Gold.Chemscore.Internal.Correction.Weighted>
   9.000000E+99

> <Gold.Protein.RotatedTorsions>
[ 6907 6896 6895 6894 ] final  -45.77 input  -60.11 | X-H torsion
[ 7974 7965 7964 7962 ] final -130.89 input  175.53 | X-H torsion
[ 8008 7997 7996 7995 ] final  -98.79 input   59.86 | X-H torsion
[ 10167 10162 10161 10158 ] final  146.08 input  -65.29 | X-H torsion
[ 10718 10713 10712 10709 ] final  162.62 input   66.30 | X-H torsion
[ 10763 10752 10751 10750 ] final   51.58 input  -60.55 | X-H torsion
[ 11005 11000 10999 10996 ] final -118.56 input  -57.11 | X-H torsion

> <Gold.Protein.ActiveResidues>
 VAL166  LYS551  ARG553  GLY616  TRP617  ASP618  TYR619  PRO620  LYS621  CYS622 
 ASP623  PHE694  ASN695  SER759  ASP760  ASP761  ALA762  ILE779  LEU786  VAL792 
 PHE793  MET794  SER795  GLU796  ALA797  LYS798  CYS799  TRP800  GLU811  SER814 

> <Gold.Protein.RotatedAtoms>
  150.9184  134.8601  159.7472 H   0  0  0  0  0  0  0  0  0  0  0  0  # atno 6907 bound_to 6896
  152.4980  134.4255  159.9504 H   0  0  0  0  0  0  0  0  0  0  0  0  # atno 6908 bound_to 6896
  151.4291  133.3636  159.2801 H   0  0  0  0  0  0  0  0  0  0  0  0  # atno 6909 bound_to 6896
  144.9431  140.7261  143.4834 H   0  0  0  0  0  0  0  0  0  0  0  0  # atno 7974 bound_to 7965
  154.8059  140.0452  157.1307 H   0  0  0  0  0  0  0  0  0  0  0  0  # atno 8008 bound_to 7997
  154.9424  140.3054  155.5094 H   0  0  0  0  0  0  0  0  0  0  0  0  # atno 8009 bound_to 7997
  156.2967  140.2303  156.4494 H   0  0  0  0  0  0  0  0  0  0  0  0  # atno 8010 bound_to 7997
  139.4914  144.5855  151.6786 H   0  0  0  0  0  0  0  0  0  0  0  0  # atno 10167 bound_to 10162
  157.1200  131.0490  151.2419 H   0  0  0  0  0  0  0  0  0  0  0  0  # atno 10718 bound_to 10713
  152.9786  135.5841  154.4438 H   0  0  0  0  0  0  0  0  0  0  0  0  # atno 10763 bound_to 10752
  154.4036  135.2769  155.2083 H   0  0  0  0  0  0  0  0  0  0  0  0  # atno 10764 bound_to 10752
  154.3903  135.6127  153.5894 H   0  0  0  0  0  0  0  0  0  0  0  0  # atno 10765 bound_to 10752
  141.0277  134.0029  157.3190 H   0  0  0  0  0  0  0  0  0  0  0  0  # atno 11005 bound_to 11000
  145.2960  139.1867  143.4715 LP  0  0  0  0  0  0  0  0  0  0  0  0  # atno 17320 bound_to 7965
  146.3293  140.2944  142.8617 LP  0  0  0  0  0  0  0  0  0  0  0  0  # atno 17321 bound_to 7965
  140.5471  144.0486  150.6111 LP  0  0  0  0  0  0  0  0  0  0  0  0  # atno 17342 bound_to 10162
  140.3527  143.2953  152.0469 LP  0  0  0  0  0  0  0  0  0  0  0  0  # atno 17343 bound_to 10162
  157.4485  130.7585  149.7130 LP  0  0  0  0  0  0  0  0  0  0  0  0  # atno 17370 bound_to 10713
  155.9831  130.4004  150.3383 LP  0  0  0  0  0  0  0  0  0  0  0  0  # atno 17371 bound_to 10713
  139.9187  135.0199  156.7980 LP  0  0  0  0  0  0  0  0  0  0  0  0  # atno 17394 bound_to 11000
  140.6462  133.9773  155.7732 LP  0  0  0  0  0  0  0  0  0  0  0  0  # atno 17395 bound_to 11000

$$$$
