AV-unprocessed.smi:1560|AV-procd|sdf|6277|dock8
  -GOLD-   22720 6473D 1   1.00000     0.00000
 Structure written by MMmdl.
 48 49  0  0  0  0  0  0  0  0  2 V2000
  146.8473  138.5260  156.9514 C   0  0  0  0  0  0  0  0  0  0  0  0
  148.1045  137.8396  156.3881 C   0  0  0  0  0  0  0  0  0  0  0  0
  149.0261  138.7366  155.5042 C   0  0  1  0  0  0  0  0  0  0  0  0
  150.1414  137.8225  154.9306 C   0  0  0  0  0  0  0  0  0  0  0  0
  148.2076  139.3366  154.3174 C   0  0  0  0  0  0  0  0  0  0  0  0
  147.6410  138.3227  153.4293 N   0  0  0  0  0  0  0  0  0  0  0  0
  146.3440  137.9893  153.3470 C   0  0  0  0  0  0  0  0  0  0  0  0
  145.4592  138.5486  153.9959 O   0  0  0  0  0  0  0  0  0  0  0  0
  145.9961  136.8478  152.3830 C   0  0  0  0  0  0  0  0  0  0  0  0
  144.7124  136.2123  152.7125 N   0  0  0  0  0  0  0  0  0  0  0  0
  143.5198  136.8969  152.5251 C   0  0  0  0  0  0  0  0  0  0  0  0
  142.3058  136.3720  152.8152 C   0  0  0  0  0  0  0  0  0  0  0  0
  142.1944  135.0212  153.3554 C   0  0  0  0  0  0  0  0  0  0  0  0
  141.1413  134.4591  153.6480 O   0  0  0  0  0  0  0  0  0  0  0  0
  143.4159  134.3658  153.5318 N   0  0  0  0  0  0  0  0  0  0  0  0
  144.6706  134.9007  153.2357 C   0  0  0  0  0  0  0  0  0  0  0  0
  145.6885  134.2374  153.4333 O   0  0  0  0  0  0  0  0  0  0  0  0
  149.6292  139.8356  156.3438 N   0  3  0  0  0  0  0  0  0  0  0  0
  150.2666  139.4105  157.6224 C   0  0  0  0  0  0  0  0  0  0  0  0
  150.6589  140.6373  158.4634 C   0  0  0  0  0  0  0  0  0  0  0  0
  151.5275  141.4776  157.7167 O   0  0  0  0  0  0  0  0  0  0  0  0
  150.9031  141.9629  156.5367 C   0  0  0  0  0  0  0  0  0  0  0  0
  150.5344  140.7793  155.6281 C   0  0  0  0  0  0  0  0  0  0  0  0
  143.3882  133.4281  153.9053 H   0  0  0  0  0  0  0  0  0  0  0  0
  146.2717  137.8245  157.5558 H   0  0  0  0  0  0  0  0  0  0  0  0
  146.1893  138.8862  156.1608 H   0  0  0  0  0  0  0  0  0  0  0  0
  147.0991  139.3706  157.5921 H   0  0  0  0  0  0  0  0  0  0  0  0
  148.6699  137.4598  157.2390 H   0  0  0  0  0  0  0  0  0  0  0  0
  147.8053  136.9449  155.8426 H   0  0  0  0  0  0  0  0  0  0  0  0
  149.7338  136.8987  154.5182 H   0  0  0  0  0  0  0  0  0  0  0  0
  150.8670  137.5396  155.6935 H   0  0  0  0  0  0  0  0  0  0  0  0
  150.6880  138.3030  154.1187 H   0  0  0  0  0  0  0  0  0  0  0  0
  147.4110  139.9880  154.6777 H   0  0  0  0  0  0  0  0  0  0  0  0
  148.8447  139.9648  153.6959 H   0  0  0  0  0  0  0  0  0  0  0  0
  148.2929  137.8118  152.8512 H   0  0  0  0  0  0  0  0  0  0  0  0
  145.9768  137.2542  151.3707 H   0  0  0  0  0  0  0  0  0  0  0  0
  146.7890  136.0967  152.3780 H   0  0  0  0  0  0  0  0  0  0  0  0
  143.5529  137.9027  152.1305 H   0  0  0  0  0  0  0  0  0  0  0  0
  141.4121  136.9554  152.6476 H   0  0  0  0  0  0  0  0  0  0  0  0
  149.5953  138.8019  158.2253 H   0  0  0  0  0  0  0  0  0  0  0  0
  151.1535  138.8095  157.4201 H   0  0  0  0  0  0  0  0  0  0  0  0
  149.7738  141.1943  158.7755 H   0  0  0  0  0  0  0  0  0  0  0  0
  151.1711  140.3206  159.3722 H   0  0  0  0  0  0  0  0  0  0  0  0
  150.0204  142.5527  156.7891 H   0  0  0  0  0  0  0  0  0  0  0  0
  151.5952  142.6298  156.0221 H   0  0  0  0  0  0  0  0  0  0  0  0
  151.4484  140.2704  155.3218 H   0  0  0  0  0  0  0  0  0  0  0  0
  150.0710  141.1766  154.7274 H   0  0  0  0  0  0  0  0  0  0  0  0
  148.8361  140.3951  156.6239 H   0  0  0  0  0  0  0  0  0  0  0  0
  1  2  1  0  0  0  0
  1 25  1  0  0  0  0
  1 26  1  0  0  0  0
  1 27  1  0  0  0  0
  2  3  1  0  0  0  0
  2 28  1  0  0  0  0
  2 29  1  0  0  0  0
  3  4  1  0  0  0  0
  3  5  1  0  0  0  0
  3 18  1  0  0  0  0
  4 30  1  0  0  0  0
  4 31  1  0  0  0  0
  4 32  1  0  0  0  0
  5  6  1  0  0  0  0
  5 33  1  0  0  0  0
  5 34  1  0  0  0  0
  6  7  1  0  0  0  0
  6 35  1  0  0  0  0
  7  8  2  0  0  0  0
  7  9  1  0  0  0  0
  9 10  1  0  0  0  0
  9 36  1  0  0  0  0
  9 37  1  0  0  0  0
 10 16  1  0  0  0  0
 10 11  1  0  0  0  0
 11 12  2  0  0  0  0
 11 38  1  0  0  0  0
 12 13  1  0  0  0  0
 12 39  1  0  0  0  0
 13 14  2  0  0  0  0
 13 15  1  0  0  0  0
 15 24  1  0  0  0  0
 15 16  1  0  0  0  0
 16 17  2  0  0  0  0
 18 23  1  0  0  0  0
 18 19  1  0  0  0  0
 18 48  1  0  0  0  0
 19 20  1  0  0  0  0
 19 40  1  0  0  0  0
 19 41  1  0  0  0  0
 20 21  1  0  0  0  0
 20 42  1  0  0  0  0
 20 43  1  0  0  0  0
 21 22  1  0  0  0  0
 22 23  1  0  0  0  0
 22 44  1  0  0  0  0
 22 45  1  0  0  0  0
 23 46  1  0  0  0  0
 23 47  1  0  0  0  0
M  CHG  1  18   1
M  END
> <s_m_source_file>
AV-unprocessed.smi

> <i_m_source_file_index>
1560

> <i_lp_mmshare_version>
43012

> <i_f3d_flags>
0

> <s_epik_input>
W0NIMl0xW0NIMl1PW0NIMl1bQ0gyXU4xW0NAQF0oW0NIM10pKFtDSDJdW0NIM10pW0NIMl1bTkhdQyg9TylbQ0gyXW4yW2NIXVtjSF1jKD1PKVtuSF1jMj1P

> <s_epik_cmdline>
J2VwaWtfcHl0aG9uJywgJy1waCcsICc3LjAnLCAnLXRuJywgJzgnLCAnLW1hJywgJzIwMCcsICctbWV0YWxfYmluZGluZycsICctaW1hZScsICc8aW5maWxlLm1hZT4nLCAnLW9tYWUnLCAnPG91dGZpbGUubWFlPic=

> <r_lp_tautomer_probability>
0.999537

> <r_epik_Ionization_Penalty>
0.523885

> <r_epik_Ionization_Penalty_Charging>
0.523885

> <r_epik_Ionization_Penalty_Neutral>
8.70177e-08

> <r_epik_State_Penalty>
0.572334

> <r_epik_Charging_Adjusted_Penalty>
1.09622

> <i_epik_Tot_Q>
1

> <i_epik_Tot_abs_Q>
1

> <r_epik_Metal_State_Penalty>
0.938906

> <b_epik_Metal_Only>
0

> <s_lp_Force_Field>
OPLS_2005

> <r_lp_Energy>
27.5913

> <b_lp_Chiralities_Consistent>
1

> <s_lp_Variant>
AV-unprocessed.smi:1560-3

> <Gold.Version>
5.8.1

> <Gold.Id.Protein>
6NUR|6NUR_protein|mol2

> <Gold.PLP.Fitness>
40.0945

> <Gold.PLP.PLP>
-26.2613

> <Gold.PLP.part.hbond>
-3.6777

> <Gold.PLP.part.metal>
0.0000

> <Gold.PLP.part.buried>
-5.4581

> <Gold.PLP.part.nonpolar>
-17.3312

> <Gold.PLP.part.repulsive>
1.0667

> <Gold.PLP.ligand.clash>
0.0000

> <Gold.PLP.ligand.torsion>
0.5606

> <Gold.PLP.Chemscore.Hbond>
2.9913

> <Gold.PLP.Chemscore.CHOScore>
1.9290

> <Gold.PLP.Chemscore.Metal>
0.0000

> <Gold.Chemscore.Hbonds>
donor molecule, donor type, donor heavy atom, donor atom, acceptor molecule, acceptor atom, score
      L1  H     6    35       P1  7948  1.00
      L1  H    15    24       P1 10957  1.00
      P1  H 11000 11005       L1    14  0.57
      L1  C    11    38       P1 10171  0.97
      L1  C    11    38       P1 10175  0.96

> <Gold.PLP.Chemscore.Internal.Correction>
0.1936

> <Gold.Rescore>
     Score         DG    S(hbond)    S(metal)    S(lipo)     H(rot)  DE(clash)    DE(int)     intcor
     12.49     -14.26       2.98        0.00      45.92       2.56       0.04       1.73       ----

> <Gold.Chemscore.Fitness>
12.4903

> <Gold.Chemscore.DG>
-14.2572

> <Gold.Chemscore.ZeroCoef>
-5.4800

> <Gold.Chemscore.Hbond>
2.9842

> <Gold.Chemscore.Metal>
0.0000

> <Gold.Chemscore.Lipo>
45.9183

> <Gold.Chemscore.Internal_Hbond>
0.0000

> <Gold.Chemscore.DEClash>
0.0410

> <Gold.Chemscore.DEInternal>
1.7260

> <Gold.Chemscore.Rot>
2.5634

> <Gold.Chemscore.Internal.Correction>
   9.000000E+99

> <Gold.Chemscore.Hbonds>
donor molecule, donor type, donor heavy atom, donor atom, acceptor molecule, acceptor atom, score
      L1  H     6    35       P1  7948  0.97
      L1  H    15    24       P1 10957  0.94
      P1  H 11000 11005       L1    14  0.56

> <Gold.Chemscore.Hbond.Weighted>
-9.9672

> <Gold.Chemscore.Metal.Weighted>
-0.0000

> <Gold.Chemscore.Lipo.Weighted>
-5.3724

> <Gold.Chemscore.Internal_Hbond.Weighted>
0.0000

> <Gold.Chemscore.DEClash.Weighted>
0.0410

> <Gold.Chemscore.DEInternal.Weighted>
1.7260

> <Gold.Chemscore.Rot.Weighted>
6.5624

> <Gold.Chemscore.Internal.Correction.Weighted>
   9.000000E+99

> <Gold.Protein.RotatedTorsions>
[ 6907 6896 6895 6894 ] final -168.52 input  -60.11 | X-H torsion
[ 7974 7965 7964 7962 ] final  106.96 input  175.53 | X-H torsion
[ 8008 7997 7996 7995 ] final   89.53 input   59.86 | X-H torsion
[ 10167 10162 10161 10158 ] final   43.93 input  -65.29 | X-H torsion
[ 10718 10713 10712 10709 ] final -116.48 input   66.30 | X-H torsion
[ 10763 10752 10751 10750 ] final -167.40 input  -60.55 | X-H torsion
[ 11005 11000 10999 10996 ] final   25.21 input  -57.11 | X-H torsion

> <Gold.Protein.ActiveResidues>
 VAL166  LYS551  ARG553  GLY616  TRP617  ASP618  TYR619  PRO620  LYS621  CYS622 
 ASP623  PHE694  ASN695  SER759  ASP760  ASP761  ALA762  ILE779  LEU786  VAL792 
 PHE793  MET794  SER795  GLU796  ALA797  LYS798  CYS799  TRP800  GLU811  SER814 

> <Gold.Protein.RotatedAtoms>
  151.4769  133.3555  159.2831 H   0  0  0  0  0  0  0  0  0  0  0  0  # atno 6907 bound_to 6896
  150.8923  134.8330  159.7313 H   0  0  0  0  0  0  0  0  0  0  0  0  # atno 6908 bound_to 6896
  152.4830  134.4680  159.9678 H   0  0  0  0  0  0  0  0  0  0  0  0  # atno 6909 bound_to 6896
  145.2998  139.2573  143.3820 H   0  0  0  0  0  0  0  0  0  0  0  0  # atno 7974 bound_to 7965
  156.0010  140.3359  155.6846 H   0  0  0  0  0  0  0  0  0  0  0  0  # atno 8008 bound_to 7997
  155.6290  140.0683  157.2673 H   0  0  0  0  0  0  0  0  0  0  0  0  # atno 8009 bound_to 7997
  154.4249  140.1763  156.1439 H   0  0  0  0  0  0  0  0  0  0  0  0  # atno 8010 bound_to 7997
  140.3394  144.2489  150.6157 H   0  0  0  0  0  0  0  0  0  0  0  0  # atno 10167 bound_to 10162
  156.0967  130.6138  150.9041 H   0  0  0  0  0  0  0  0  0  0  0  0  # atno 10718 bound_to 10713
  154.6736  135.2943  154.9709 H   0  0  0  0  0  0  0  0  0  0  0  0  # atno 10763 bound_to 10752
  154.0728  135.6615  153.4830 H   0  0  0  0  0  0  0  0  0  0  0  0  # atno 10764 bound_to 10752
  153.0502  135.5179  154.7743 H   0  0  0  0  0  0  0  0  0  0  0  0  # atno 10765 bound_to 10752
  140.3503  134.2236  155.7680 H   0  0  0  0  0  0  0  0  0  0  0  0  # atno 11005 bound_to 11000
  146.3156  140.3510  142.8656 LP  0  0  0  0  0  0  0  0  0  0  0  0  # atno 17320 bound_to 7965
  144.9103  140.7749  143.5812 LP  0  0  0  0  0  0  0  0  0  0  0  0  # atno 17321 bound_to 7965
  140.5323  143.2241  151.8219 LP  0  0  0  0  0  0  0  0  0  0  0  0  # atno 17342 bound_to 10162
  139.4843  144.4705  151.9431 LP  0  0  0  0  0  0  0  0  0  0  0  0  # atno 17343 bound_to 10162
  157.6129  131.0935  150.8763 LP  0  0  0  0  0  0  0  0  0  0  0  0  # atno 17370 bound_to 10713
  156.8900  130.5209  149.5286 LP  0  0  0  0  0  0  0  0  0  0  0  0  # atno 17371 bound_to 10713
  141.2014  133.7964  157.0443 LP  0  0  0  0  0  0  0  0  0  0  0  0  # atno 17394 bound_to 11000
  140.0708  134.9703  157.1464 LP  0  0  0  0  0  0  0  0  0  0  0  0  # atno 17395 bound_to 11000

$$$$
