AV-unprocessed.smi:861|AV-procd|sdf|3973|dock9
  -GOLD-   22720 1453D 1   1.00000     0.00000
 Structure written by MMmdl.
 45 46  0  0  0  0  0  0  0  0  3 V2000
  145.2186  143.7942  154.6610 C   0  0  0  0  0  0  0  0  0  0  0  0
  146.4773  142.9786  154.3200 C   0  0  0  0  0  0  0  0  0  0  0  0
  147.2419  143.6377  153.1618 C   0  0  0  0  0  0  0  0  0  0  0  0
  146.1624  141.5039  153.9935 C   0  0  0  0  0  0  0  0  0  0  0  0
  147.2893  140.5232  154.3711 C   0  0  0  0  0  0  0  0  0  0  0  0
  148.5725  140.8538  153.6951 N   0  3  2  0  0  0  0  0  0  0  0  0
  149.3524  139.6624  153.2795 C   0  0  0  0  0  0  0  0  0  0  0  0
  150.0866  139.0329  154.4764 C   0  0  0  0  0  0  0  0  0  0  0  0
  150.9205  140.0114  155.0856 O   0  0  0  0  0  0  0  0  0  0  0  0
  150.1820  141.1130  155.6048 C   0  0  1  0  0  0  0  0  0  0  0  0
  151.1698  142.0719  156.2932 C   0  0  0  0  0  0  0  0  0  0  0  0
  150.5009  143.1757  156.9699 N   0  0  0  0  0  0  0  0  0  0  0  0
  150.8656  143.5831  158.2616 C   0  0  0  0  0  0  0  0  0  0  0  0
  151.8930  142.9861  159.0296 C   0  0  0  0  0  0  0  0  0  0  0  0
  152.1532  143.5013  160.3110 C   0  0  0  0  0  0  0  0  0  0  0  0
  151.3689  144.5824  160.7503 C   0  0  0  0  0  0  0  0  0  0  0  0
  150.3903  145.1384  160.0020 N   0  0  0  0  0  0  0  0  0  0  0  0
  150.1657  144.6231  158.7804 N   0  3  0  0  0  0  0  0  0  0  0  0
  149.4401  141.8043  154.4387 C   0  0  0  0  0  0  0  0  0  0  0  0
  144.4955  143.7680  153.8453 H   0  0  0  0  0  0  0  0  0  0  0  0
  145.4696  144.8392  154.8460 H   0  0  0  0  0  0  0  0  0  0  0  0
  144.7256  143.4230  155.5588 H   0  0  0  0  0  0  0  0  0  0  0  0
  147.1338  142.9991  155.1910 H   0  0  0  0  0  0  0  0  0  0  0  0
  146.6439  143.6524  152.2498 H   0  0  0  0  0  0  0  0  0  0  0  0
  148.1679  143.1049  152.9439 H   0  0  0  0  0  0  0  0  0  0  0  0
  147.5078  144.6678  153.4011 H   0  0  0  0  0  0  0  0  0  0  0  0
  145.2383  141.2072  154.4916 H   0  0  0  0  0  0  0  0  0  0  0  0
  145.9621  141.4311  152.9251 H   0  0  0  0  0  0  0  0  0  0  0  0
  147.4195  140.4850  155.4523 H   0  0  0  0  0  0  0  0  0  0  0  0
  146.9851  139.5220  154.0668 H   0  0  0  0  0  0  0  0  0  0  0  0
  148.7114  138.9307  152.7862 H   0  0  0  0  0  0  0  0  0  0  0  0
  150.0849  139.9755  152.5342 H   0  0  0  0  0  0  0  0  0  0  0  0
  149.3832  138.6265  155.2047 H   0  0  0  0  0  0  0  0  0  0  0  0
  150.7083  138.2033  154.1393 H   0  0  0  0  0  0  0  0  0  0  0  0
  149.4617  140.7528  156.3401 H   0  0  0  0  0  0  0  0  0  0  0  0
  151.7586  141.5258  157.0309 H   0  0  0  0  0  0  0  0  0  0  0  0
  151.8859  142.4681  155.5731 H   0  0  0  0  0  0  0  0  0  0  0  0
  149.8614  143.7458  156.4342 H   0  0  0  0  0  0  0  0  0  0  0  0
  152.4761  142.1554  158.6617 H   0  0  0  0  0  0  0  0  0  0  0  0
  152.9260  143.0822  160.9383 H   0  0  0  0  0  0  0  0  0  0  0  0
  151.5291  145.0138  161.7276 H   0  0  0  0  0  0  0  0  0  0  0  0
  150.1705  142.2093  153.7367 H   0  0  0  0  0  0  0  0  0  0  0  0
  148.8667  142.6566  154.8014 H   0  0  0  0  0  0  0  0  0  0  0  0
  148.3035  141.3155  152.8375 H   0  0  0  0  0  0  0  0  0  0  0  0
  149.4274  145.0380  158.2113 H   0  0  0  0  0  0  0  0  0  0  0  0
  1  2  1  0  0  0  0
  1 20  1  0  0  0  0
  1 21  1  0  0  0  0
  1 22  1  0  0  0  0
  2  3  1  0  0  0  0
  2  4  1  0  0  0  0
  2 23  1  0  0  0  0
  3 24  1  0  0  0  0
  3 25  1  0  0  0  0
  3 26  1  0  0  0  0
  4  5  1  0  0  0  0
  4 27  1  0  0  0  0
  4 28  1  0  0  0  0
  5  6  1  0  0  0  0
  5 29  1  0  0  0  0
  5 30  1  0  0  0  0
  6 19  1  0  0  0  0
  6  7  1  0  0  0  0
  6 44  1  0  0  0  0
  7  8  1  0  0  0  0
  7 31  1  0  0  0  0
  7 32  1  0  0  0  0
  8  9  1  0  0  0  0
  8 33  1  0  0  0  0
  8 34  1  0  0  0  0
  9 10  1  0  0  0  0
 10 11  1  0  0  0  0
 10 19  1  0  0  0  0
 10 35  1  0  0  0  0
 11 12  1  0  0  0  0
 11 36  1  0  0  0  0
 11 37  1  0  0  0  0
 12 13  1  0  0  0  0
 12 38  1  0  0  0  0
 13 18  1  0  0  0  0
 13 14  2  0  0  0  0
 14 15  1  0  0  0  0
 14 39  1  0  0  0  0
 15 16  2  0  0  0  0
 15 40  1  0  0  0  0
 16 17  1  0  0  0  0
 16 41  1  0  0  0  0
 17 18  2  0  0  0  0
 18 45  1  0  0  0  0
 19 42  1  0  0  0  0
 19 43  1  0  0  0  0
M  CHG  1   6   1
M  CHG  1  18   1
M  END
> <s_m_source_file>
AV-unprocessed.smi

> <i_m_source_file_index>
861

> <i_lp_mmshare_version>
43012

> <i_f3d_flags>
0

> <s_epik_input>
W0NIM11bQ0hdKFtDSDNdKVtDSDJdW0NIMl1OMVtDSDJdW0NIMl1PW0NASF0oW0NIMl0xKVtDSDJdW05IXWMyW2NIXVtjSF1bY0hdbm4y

> <s_epik_cmdline>
J2VwaWtfcHl0aG9uJywgJy1waCcsICc3LjAnLCAnLXRuJywgJzgnLCAnLW1hJywgJzIwMCcsICctbWV0YWxfYmluZGluZycsICctaW1hZScsICc8aW5maWxlLm1hZT4nLCAnLW9tYWUnLCAnPG91dGZpbGUubWFlPic=

> <r_lp_tautomer_probability>
0.966961

> <r_epik_Ionization_Penalty>
2.478

> <r_epik_Ionization_Penalty_Charging>
2.47799

> <r_epik_Ionization_Penalty_Neutral>
3.15286e-06

> <r_epik_State_Penalty>
2.10794

> <r_epik_Charging_Adjusted_Penalty>
4.58594

> <i_epik_Tot_Q>
2

> <i_epik_Tot_abs_Q>
2

> <r_epik_Metal_State_Penalty>
2.11378

> <b_epik_Metal_Only>
0

> <s_lp_Force_Field>
OPLS_2005

> <r_lp_Energy>
36.5784

> <b_lp_Chiralities_Consistent>
1

> <s_lp_Variant>
AV-unprocessed.smi:861-8

> <Gold.Version>
5.8.1

> <Gold.Id.Protein>
6NUR|6NUR_protein|mol2

> <Gold.PLP.Fitness>
49.5203

> <Gold.PLP.PLP>
-36.2830

> <Gold.PLP.part.hbond>
-3.8715

> <Gold.PLP.part.metal>
0.0000

> <Gold.PLP.part.buried>
-5.0721

> <Gold.PLP.part.nonpolar>
-28.3538

> <Gold.PLP.part.repulsive>
0.5354

> <Gold.PLP.ligand.clash>
0.0000

> <Gold.PLP.ligand.torsion>
0.8982

> <Gold.PLP.Chemscore.Hbond>
5.0000

> <Gold.PLP.Chemscore.CHOScore>
0.0000

> <Gold.PLP.Chemscore.Metal>
0.0000

> <Gold.Chemscore.Hbonds>
donor molecule, donor type, donor heavy atom, donor atom, acceptor molecule, acceptor atom, score
      L1  H    12    38       P1  8028  2.00
      L1  H    18    45       P1  8029  2.00
      P1  H  7989  7998       L1     9  0.90

> <Gold.PLP.Chemscore.Internal.Correction>
0.0338

> <Gold.Rescore>
     Score         DG    S(hbond)    S(metal)    S(lipo)     H(rot)  DE(clash)    DE(int)     intcor
     16.03     -18.35       2.04        0.00      90.54       1.78       1.36       0.95       ----

> <Gold.Chemscore.Fitness>
16.0326

> <Gold.Chemscore.DG>
-18.3452

> <Gold.Chemscore.ZeroCoef>
-5.4800

> <Gold.Chemscore.Hbond>
2.0413

> <Gold.Chemscore.Metal>
0.0000

> <Gold.Chemscore.Lipo>
90.5415

> <Gold.Chemscore.Internal_Hbond>
0.0000

> <Gold.Chemscore.DEClash>
1.3624

> <Gold.Chemscore.DEInternal>
0.9502

> <Gold.Chemscore.Rot>
1.7759

> <Gold.Chemscore.Internal.Correction>
   9.000000E+99

> <Gold.Chemscore.Hbonds>
donor molecule, donor type, donor heavy atom, donor atom, acceptor molecule, acceptor atom, score
      L1  H    12    38       P1  8028  0.97
      L1  H    18    45       P1  8029  0.38
      P1  H  7989  7998       L1     9  0.05

> <Gold.Chemscore.Hbond.Weighted>
-6.8180

> <Gold.Chemscore.Metal.Weighted>
-0.0000

> <Gold.Chemscore.Lipo.Weighted>
-10.5934

> <Gold.Chemscore.Internal_Hbond.Weighted>
0.0000

> <Gold.Chemscore.DEClash.Weighted>
1.3624

> <Gold.Chemscore.DEInternal.Weighted>
0.9502

> <Gold.Chemscore.Rot.Weighted>
4.5462

> <Gold.Chemscore.Internal.Correction.Weighted>
   9.000000E+99

> <Gold.Protein.RotatedTorsions>
[ 6907 6896 6895 6894 ] final  178.72 input  -60.11 | X-H torsion
[ 7974 7965 7964 7962 ] final -110.12 input  175.53 | X-H torsion
[ 8008 7997 7996 7995 ] final -112.50 input   59.86 | X-H torsion
[ 10167 10162 10161 10158 ] final   42.65 input  -65.29 | X-H torsion
[ 10718 10713 10712 10709 ] final  -95.82 input   66.30 | X-H torsion
[ 10763 10752 10751 10750 ] final  134.32 input  -60.55 | X-H torsion
[ 11005 11000 10999 10996 ] final  113.57 input  -57.11 | X-H torsion

> <Gold.Protein.ActiveResidues>
 VAL166  LYS551  ARG553  GLY616  TRP617  ASP618  TYR619  PRO620  LYS621  CYS622 
 ASP623  PHE694  ASN695  SER759  ASP760  ASP761  ALA762  ILE779  LEU786  VAL792 
 PHE793  MET794  SER795  GLU796  ALA797  LYS798  CYS799  TRP800  GLU811  SER814 

> <Gold.Protein.RotatedAtoms>
  151.6833  133.3311  159.3224 H   0  0  0  0  0  0  0  0  0  0  0  0  # atno 6907 bound_to 6896
  150.7812  134.6762  159.6428 H   0  0  0  0  0  0  0  0  0  0  0  0  # atno 6908 bound_to 6896
  152.3870  134.6504  160.0174 H   0  0  0  0  0  0  0  0  0  0  0  0  # atno 6909 bound_to 6896
  145.1721  140.8930  143.3529 H   0  0  0  0  0  0  0  0  0  0  0  0  # atno 7974 bound_to 7965
  155.0062  140.0394  157.2381 H   0  0  0  0  0  0  0  0  0  0  0  0  # atno 8008 bound_to 7997
  154.7500  140.2765  155.6277 H   0  0  0  0  0  0  0  0  0  0  0  0  # atno 8009 bound_to 7997
  156.2883  140.2649  156.2251 H   0  0  0  0  0  0  0  0  0  0  0  0  # atno 8010 bound_to 7997
  140.3523  144.2334  150.6144 H   0  0  0  0  0  0  0  0  0  0  0  0  # atno 10167 bound_to 10162
  156.0050  130.5125  150.6134 H   0  0  0  0  0  0  0  0  0  0  0  0  # atno 10718 bound_to 10713
  153.8216  135.3115  155.3411 H   0  0  0  0  0  0  0  0  0  0  0  0  # atno 10763 bound_to 10752
  154.8010  135.4726  154.0279 H   0  0  0  0  0  0  0  0  0  0  0  0  # atno 10764 bound_to 10752
  153.1689  135.6874  153.8725 H   0  0  0  0  0  0  0  0  0  0  0  0  # atno 10765 bound_to 10752
  139.8956  134.9552  156.6759 H   0  0  0  0  0  0  0  0  0  0  0  0  # atno 11005 bound_to 11000
  145.0222  139.3414  143.6066 LP  0  0  0  0  0  0  0  0  0  0  0  0  # atno 17320 bound_to 7965
  146.3467  139.9527  142.8727 LP  0  0  0  0  0  0  0  0  0  0  0  0  # atno 17321 bound_to 7965
  140.5207  143.2266  151.8393 LP  0  0  0  0  0  0  0  0  0  0  0  0  # atno 17342 bound_to 10162
  139.4825  144.4840  151.9270 LP  0  0  0  0  0  0  0  0  0  0  0  0  # atno 17343 bound_to 10162
  157.3962  131.0803  151.1349 LP  0  0  0  0  0  0  0  0  0  0  0  0  # atno 17370 bound_to 10713
  157.2025  130.6401  149.5744 LP  0  0  0  0  0  0  0  0  0  0  0  0  # atno 17371 bound_to 10713
  140.7337  133.9037  155.8229 LP  0  0  0  0  0  0  0  0  0  0  0  0  # atno 17394 bound_to 11000
  141.0133  134.0991  157.4199 LP  0  0  0  0  0  0  0  0  0  0  0  0  # atno 17395 bound_to 11000

$$$$
