AV-unprocessed.smi:2340|AV-procd|sdf|9344|dock8
  -GOLD-   2272012563D 1   1.00000     0.00000
 Structure written by MMmdl.
 40 41  0  0  0  0  0  0  0  0  1 V2000
  145.4831  134.3980  150.4933 C   0  0  0  0  0  0  0  0  0  0  0  0
  145.9678  133.3781  151.4749 C   0  0  0  0  0  0  0  0  0  0  0  0
  145.4681  132.1146  151.6678 C   0  0  0  0  0  0  0  0  0  0  0  0
  146.3234  131.2628  152.9234 S   0  0  0  0  0  0  0  0  0  0  0  0
  147.3553  132.6747  153.1376 C   0  0  0  0  0  0  0  0  0  0  0  0
  148.4485  132.7550  154.1611 C   0  0  2  0  0  0  0  0  0  0  0  0
  148.6759  131.4082  154.8623 C   0  0  0  0  0  0  0  0  0  0  0  0
  148.2374  133.9077  155.1616 C   0  0  0  0  0  0  0  0  0  0  0  0
  148.4575  135.2046  154.5322 N   0  0  0  0  0  0  0  0  0  0  0  0
  148.5402  136.3674  155.1888 C   0  0  0  0  0  0  0  0  0  0  0  0
  148.4632  136.4761  156.4127 O   0  0  0  0  0  0  0  0  0  0  0  0
  148.7148  137.3962  154.3492 N   0  0  0  0  0  0  0  0  0  0  0  0
  148.8489  138.7929  154.7492 C   0  0  2  0  0  0  0  0  0  0  0  0
  147.8624  139.6786  154.0163 C   0  0  0  0  0  0  0  0  0  0  0  0
  148.5404  141.0411  154.0997 C   0  0  0  0  0  0  0  0  0  0  0  0
  149.9400  140.7810  154.0861 O   0  0  0  0  0  0  0  0  0  0  0  0
  150.1905  139.3957  154.3103 C   0  0  1  0  0  0  0  0  0  0  0  0
  151.3253  139.2231  155.3273 C   0  0  0  0  0  0  0  0  0  0  0  0
  147.0405  133.6820  152.3178 N   0  0  0  0  0  0  0  0  0  0  0  0
  144.5994  134.0487  149.9587 H   0  0  0  0  0  0  0  0  0  0  0  0
  146.2491  134.6247  149.7514 H   0  0  0  0  0  0  0  0  0  0  0  0
  145.2182  135.3304  150.9923 H   0  0  0  0  0  0  0  0  0  0  0  0
  144.6491  131.6354  151.1518 H   0  0  0  0  0  0  0  0  0  0  0  0
  149.3689  132.9776  153.6181 H   0  0  0  0  0  0  0  0  0  0  0  0
  148.9002  130.6233  154.1391 H   0  0  0  0  0  0  0  0  0  0  0  0
  147.7961  131.0992  155.4273 H   0  0  0  0  0  0  0  0  0  0  0  0
  149.5132  131.4656  155.5581 H   0  0  0  0  0  0  0  0  0  0  0  0
  147.2212  133.8656  155.5582 H   0  0  0  0  0  0  0  0  0  0  0  0
  148.9141  133.8027  156.0107 H   0  0  0  0  0  0  0  0  0  0  0  0
  148.5327  135.2163  153.5252 H   0  0  0  0  0  0  0  0  0  0  0  0
  148.7629  137.2000  153.3602 H   0  0  0  0  0  0  0  0  0  0  0  0
  148.7051  138.9180  155.8245 H   0  0  0  0  0  0  0  0  0  0  0  0
  147.7744  139.3753  152.9716 H   0  0  0  0  0  0  0  0  0  0  0  0
  146.8661  139.6712  154.4592 H   0  0  0  0  0  0  0  0  0  0  0  0
  148.2486  141.7044  153.2850 H   0  0  0  0  0  0  0  0  0  0  0  0
  148.2899  141.5304  155.0417 H   0  0  0  0  0  0  0  0  0  0  0  0
  150.4903  138.9694  153.3514 H   0  0  0  0  0  0  0  0  0  0  0  0
  151.5491  138.1692  155.4925 H   0  0  0  0  0  0  0  0  0  0  0  0
  151.0642  139.6654  156.2891 H   0  0  0  0  0  0  0  0  0  0  0  0
  152.2383  139.7033  154.9757 H   0  0  0  0  0  0  0  0  0  0  0  0
  1  2  1  0  0  0  0
  1 20  1  0  0  0  0
  1 21  1  0  0  0  0
  1 22  1  0  0  0  0
  2 19  1  0  0  0  0
  2  3  2  0  0  0  0
  3  4  1  0  0  0  0
  3 23  1  0  0  0  0
  4  5  1  0  0  0  0
  5  6  1  0  0  0  0
  5 19  2  0  0  0  0
  6  7  1  0  0  0  0
  6  8  1  0  0  0  0
  6 24  1  0  0  0  0
  7 25  1  0  0  0  0
  7 26  1  0  0  0  0
  7 27  1  0  0  0  0
  8  9  1  0  0  0  0
  8 28  1  0  0  0  0
  8 29  1  0  0  0  0
  9 10  1  0  0  0  0
  9 30  1  0  0  0  0
 10 11  2  0  0  0  0
 10 12  1  0  0  0  0
 12 13  1  0  0  0  0
 12 31  1  0  0  0  0
 13 17  1  0  0  0  0
 13 14  1  0  0  0  0
 13 32  1  0  0  0  0
 14 15  1  0  0  0  0
 14 33  1  0  0  0  0
 14 34  1  0  0  0  0
 15 16  1  0  0  0  0
 15 35  1  0  0  0  0
 15 36  1  0  0  0  0
 16 17  1  0  0  0  0
 17 18  1  0  0  0  0
 17 37  1  0  0  0  0
 18 38  1  0  0  0  0
 18 39  1  0  0  0  0
 18 40  1  0  0  0  0
M  END
> <s_m_source_file>
AV-unprocessed.smi

> <i_m_source_file_index>
2340

> <i_lp_mmshare_version>
43012

> <i_f3d_flags>
0

> <s_epik_input>
W0NIM11jMVtjSF1zYyhuMSlbQ0BIXShbQ0gzXSlbQ0gyXVtOSF1DKD1PKVtOSF1bQ0BASF0yW0NIMl1bQ0gyXU9bQ0BIXTJbQ0gzXQ==

> <s_epik_cmdline>
J2VwaWtfcHl0aG9uJywgJy1waCcsICc3LjAnLCAnLXRuJywgJzgnLCAnLW1hJywgJzIwMCcsICctbWV0YWxfYmluZGluZycsICctaW1hZScsICc8aW5maWxlLm1hZT4nLCAnLW9tYWUnLCAnPG91dGZpbGUubWFlPic=

> <r_epik_Ionization_Penalty>
0.00156622

> <r_epik_Ionization_Penalty_Charging>
0

> <r_epik_Ionization_Penalty_Neutral>
0.00156622

> <r_epik_State_Penalty>
0.00101902

> <r_epik_Charging_Adjusted_Penalty>
0.00101902

> <i_epik_Tot_Q>
0

> <i_epik_Tot_abs_Q>
0

> <r_epik_Metal_State_Penalty>
-0

> <b_epik_Metal_Only>
0

> <s_lp_Force_Field>
OPLS_2005

> <r_lp_Energy>
4.8577

> <b_lp_Chiralities_Consistent>
1

> <s_lp_Variant>
AV-unprocessed.smi:2340-1

> <Gold.Version>
5.8.1

> <Gold.Id.Protein>
6NUR|6NUR_protein|mol2

> <Gold.PLP.Fitness>
42.3985

> <Gold.PLP.PLP>
-33.8697

> <Gold.PLP.part.hbond>
-2.8257

> <Gold.PLP.part.metal>
0.0000

> <Gold.PLP.part.buried>
-4.1806

> <Gold.PLP.part.nonpolar>
-27.7082

> <Gold.PLP.part.repulsive>
0.3354

> <Gold.PLP.ligand.clash>
0.0000

> <Gold.PLP.ligand.torsion>
0.2316

> <Gold.PLP.Chemscore.Hbond>
2.9600

> <Gold.PLP.Chemscore.CHOScore>
0.0000

> <Gold.PLP.Chemscore.Metal>
0.0000

> <Gold.Chemscore.Hbonds>
donor molecule, donor type, donor heavy atom, donor atom, acceptor molecule, acceptor atom, score
      L1  H     9    30       P1  7948  0.99
      L1  H    12    31       P1  7948  1.00
      P1  H  7989  7998       L1    16  0.21

> <Gold.PLP.Chemscore.Internal.Correction>
0.1119

> <Gold.Rescore>
     Score         DG    S(hbond)    S(metal)    S(lipo)     H(rot)  DE(clash)    DE(int)     intcor
     18.06     -18.50       2.37        0.00      77.11       1.53       0.05       0.39       ----

> <Gold.Chemscore.Fitness>
18.0579

> <Gold.Chemscore.DG>
-18.5040

> <Gold.Chemscore.ZeroCoef>
-5.4800

> <Gold.Chemscore.Hbond>
2.3730

> <Gold.Chemscore.Metal>
0.0000

> <Gold.Chemscore.Lipo>
77.1054

> <Gold.Chemscore.Internal_Hbond>
0.0000

> <Gold.Chemscore.DEClash>
0.0529

> <Gold.Chemscore.DEInternal>
0.3932

> <Gold.Chemscore.Rot>
1.5325

> <Gold.Chemscore.Internal.Correction>
   9.000000E+99

> <Gold.Chemscore.Hbonds>
donor molecule, donor type, donor heavy atom, donor atom, acceptor molecule, acceptor atom, score
      L1  H     9    30       P1  7948  0.86
      L1  H    12    31       P1  7948  0.99

> <Gold.Chemscore.Hbond.Weighted>
-7.9259

> <Gold.Chemscore.Metal.Weighted>
-0.0000

> <Gold.Chemscore.Lipo.Weighted>
-9.0213

> <Gold.Chemscore.Internal_Hbond.Weighted>
0.0000

> <Gold.Chemscore.DEClash.Weighted>
0.0529

> <Gold.Chemscore.DEInternal.Weighted>
0.3932

> <Gold.Chemscore.Rot.Weighted>
3.9233

> <Gold.Chemscore.Internal.Correction.Weighted>
   9.000000E+99

> <Gold.Protein.RotatedTorsions>
[ 6907 6896 6895 6894 ] final   72.91 input  -60.11 | X-H torsion
[ 7974 7965 7964 7962 ] final  141.44 input  175.53 | X-H torsion
[ 8008 7997 7996 7995 ] final -118.29 input   59.86 | X-H torsion
[ 10167 10162 10161 10158 ] final   -5.92 input  -65.29 | X-H torsion
[ 10718 10713 10712 10709 ] final -134.36 input   66.30 | X-H torsion
[ 10763 10752 10751 10750 ] final  124.23 input  -60.55 | X-H torsion
[ 11005 11000 10999 10996 ] final   42.20 input  -57.11 | X-H torsion

> <Gold.Protein.ActiveResidues>
 VAL166  LYS551  ARG553  GLY616  TRP617  ASP618  TYR619  PRO620  LYS621  CYS622 
 ASP623  PHE694  ASN695  SER759  ASP760  ASP761  ALA762  ILE779  LEU786  VAL792 
 PHE793  MET794  SER795  GLU796  ALA797  LYS798  CYS799  TRP800  GLU811  SER814 

> <Gold.Protein.RotatedAtoms>
  152.4894  134.4501  159.9571 H   0  0  0  0  0  0  0  0  0  0  0  0  # atno 6907 bound_to 6896
  151.4491  133.3616  159.2800 H   0  0  0  0  0  0  0  0  0  0  0  0  # atno 6908 bound_to 6896
  150.9034  134.8471  159.7436 H   0  0  0  0  0  0  0  0  0  0  0  0  # atno 6909 bound_to 6896
  144.9096  139.5310  143.5715 H   0  0  0  0  0  0  0  0  0  0  0  0  # atno 7974 bound_to 7965
  155.0973  140.0395  157.2686 H   0  0  0  0  0  0  0  0  0  0  0  0  # atno 8008 bound_to 7997
  154.6786  140.2628  155.6907 H   0  0  0  0  0  0  0  0  0  0  0  0  # atno 8009 bound_to 7997
  156.2686  140.2783  156.1321 H   0  0  0  0  0  0  0  0  0  0  0  0  # atno 8010 bound_to 7997
  140.6979  143.6253  150.8573 H   0  0  0  0  0  0  0  0  0  0  0  0  # atno 10167 bound_to 10162
  156.2547  130.7174  151.1086 H   0  0  0  0  0  0  0  0  0  0  0  0  # atno 10718 bound_to 10713
  153.6581  135.3351  155.3119 H   0  0  0  0  0  0  0  0  0  0  0  0  # atno 10763 bound_to 10752
  154.8521  135.4357  154.1833 H   0  0  0  0  0  0  0  0  0  0  0  0  # atno 10764 bound_to 10752
  153.2792  135.7007  153.7477 H   0  0  0  0  0  0  0  0  0  0  0  0  # atno 10765 bound_to 10752
  140.1762  134.4161  155.8227 H   0  0  0  0  0  0  0  0  0  0  0  0  # atno 11005 bound_to 11000
  146.3152  139.7892  142.8989 LP  0  0  0  0  0  0  0  0  0  0  0  0  # atno 17320 bound_to 7965
  145.3476  141.0301  143.3357 LP  0  0  0  0  0  0  0  0  0  0  0  0  # atno 17321 bound_to 7965
  139.9973  143.5782  152.2888 LP  0  0  0  0  0  0  0  0  0  0  0  0  # atno 17342 bound_to 10162
  139.6459  144.7658  151.2245 LP  0  0  0  0  0  0  0  0  0  0  0  0  # atno 17343 bound_to 10162
  157.7228  131.0670  150.6063 LP  0  0  0  0  0  0  0  0  0  0  0  0  # atno 17370 bound_to 10713
  156.6146  130.4389  149.5845 LP  0  0  0  0  0  0  0  0  0  0  0  0  # atno 17371 bound_to 10713
  141.2220  133.6979  156.7850 LP  0  0  0  0  0  0  0  0  0  0  0  0  # atno 17394 bound_to 11000
  140.2320  134.8678  157.3486 LP  0  0  0  0  0  0  0  0  0  0  0  0  # atno 17395 bound_to 11000

$$$$
