AV-unprocessed.smi:226|AV-procd|sdf|1726|dock1
  -GOLD-   2262020213D 1   1.00000     0.00000
 Structure written by MMmdl.
 54 58  0  0  0  0  0  0  0  0  1 V2000
  150.4259  144.1476  160.8209 O   0  0  0  0  0  0  0  0  0  0  0  0
  150.0731  144.3676  159.6624 C   0  0  0  0  0  0  0  0  0  0  0  0
  148.9222  144.9899  159.3580 N   0  0  0  0  0  0  0  0  0  0  0  0
  147.9637  145.4798  160.2930 C   0  0  0  0  0  0  0  0  0  0  0  0
  147.5118  144.5399  161.3895 C   0  0  0  0  0  0  0  0  0  0  0  0
  146.5791  144.8705  160.2570 C   0  0  0  0  0  0  0  0  0  0  0  0
  150.9909  143.9295  158.5001 C   0  0  1  0  0  0  0  0  0  0  0  0
  152.3023  144.7336  158.4705 C   0  0  0  0  0  0  0  0  0  0  0  0
  153.2722  143.8992  159.3055 C   0  0  0  0  0  0  0  0  0  0  0  0
  152.8586  142.4616  158.9886 C   0  0  0  0  0  0  0  0  0  0  0  0
  151.4581  142.5413  158.5960 N   0  0  0  0  0  0  0  0  0  0  0  0
  150.7157  141.4616  158.2253 C   0  0  0  0  0  0  0  0  0  0  0  0
  149.4683  141.6781  157.7303 N   0  0  0  0  0  0  0  0  0  0  0  0
  148.6924  140.6567  157.3607 C   0  0  0  0  0  0  0  0  0  0  0  0
  148.9582  139.3517  157.4051 N   0  0  0  0  0  0  0  0  0  0  0  0
  150.2055  139.1180  157.9032 C   0  0  0  0  0  0  0  0  0  0  0  0
  151.1453  140.1035  158.3263 C   0  0  0  0  0  0  0  0  0  0  0  0
  152.3100  139.4746  158.7548 N   0  0  0  0  0  0  0  0  0  0  0  0
  152.0749  138.2022  158.5904 C   0  0  0  0  0  0  0  0  0  0  0  0
  150.8213  137.8963  158.1148 N   0  0  0  0  0  0  0  0  0  0  0  0
  150.3152  136.5893  157.8106 C   0  0  0  0  0  0  0  0  0  0  0  0
  150.9409  135.7377  156.7021 C   0  0  0  0  0  0  0  0  0  0  0  0
  149.5483  135.1947  156.3130 C   0  0  0  0  0  0  0  0  0  0  0  0
  149.2444  135.1988  154.8069 C   0  0  0  0  0  0  0  0  0  0  0  0
  149.5189  136.4588  154.2288 O   0  0  0  0  0  0  0  0  0  0  0  0
  149.1602  133.7991  156.8502 C   0  0  0  0  0  0  0  0  0  0  0  0
  149.5026  133.6066  158.2074 O   0  0  0  0  0  0  0  0  0  0  0  0
  148.9790  136.4076  157.0830 C   0  0  0  0  0  0  0  0  0  0  0  0
  148.7149  145.1326  158.3803 H   0  0  0  0  0  0  0  0  0  0  0  0
  148.0177  146.5341  160.5609 H   0  0  0  0  0  0  0  0  0  0  0  0
  147.9416  143.5401  161.4120 H   0  0  0  0  0  0  0  0  0  0  0  0
  147.2929  144.9740  162.3631 H   0  0  0  0  0  0  0  0  0  0  0  0
  145.7378  145.5259  160.4732 H   0  0  0  0  0  0  0  0  0  0  0  0
  146.3856  144.0932  159.5198 H   0  0  0  0  0  0  0  0  0  0  0  0
  150.4550  144.0948  157.5642 H   0  0  0  0  0  0  0  0  0  0  0  0
  152.6673  144.7982  157.4445 H   0  0  0  0  0  0  0  0  0  0  0  0
  152.2031  145.7542  158.8429 H   0  0  0  0  0  0  0  0  0  0  0  0
  154.3185  144.1008  159.0746 H   0  0  0  0  0  0  0  0  0  0  0  0
  153.1154  144.1060  160.3650 H   0  0  0  0  0  0  0  0  0  0  0  0
  153.4455  142.0682  158.1575 H   0  0  0  0  0  0  0  0  0  0  0  0
  153.0022  141.8163  159.8556 H   0  0  0  0  0  0  0  0  0  0  0  0
  147.7186  140.9240  156.9775 H   0  0  0  0  0  0  0  0  0  0  0  0
  152.8129  137.4478  158.8219 H   0  0  0  0  0  0  0  0  0  0  0  0
  150.3155  136.0463  158.7564 H   0  0  0  0  0  0  0  0  0  0  0  0
  151.3916  136.3481  155.9175 H   0  0  0  0  0  0  0  0  0  0  0  0
  151.6431  134.9835  157.0591 H   0  0  0  0  0  0  0  0  0  0  0  0
  149.8237  134.4364  154.2850 H   0  0  0  0  0  0  0  0  0  0  0  0
  148.1947  134.9702  154.6198 H   0  0  0  0  0  0  0  0  0  0  0  0
  149.6607  136.3389  153.3020 H   0  0  0  0  0  0  0  0  0  0  0  0
  148.0866  133.6334  156.7543 H   0  0  0  0  0  0  0  0  0  0  0  0
  149.6492  133.0105  156.2776 H   0  0  0  0  0  0  0  0  0  0  0  0
  149.1705  132.7663  158.4844 H   0  0  0  0  0  0  0  0  0  0  0  0
  148.1381  136.1816  157.7395 H   0  0  0  0  0  0  0  0  0  0  0  0
  148.7444  137.2506  156.4307 H   0  0  0  0  0  0  0  0  0  0  0  0
  1  2  2  0  0  0  0
  2  3  1  0  0  0  0
  2  7  1  0  0  0  0
  3  4  1  0  0  0  0
  3 29  1  0  0  0  0
  4  6  1  0  0  0  0
  4  5  1  0  0  0  0
  4 30  1  0  0  0  0
  5  6  1  0  0  0  0
  5 31  1  0  0  0  0
  5 32  1  0  0  0  0
  6 33  1  0  0  0  0
  6 34  1  0  0  0  0
  7 11  1  0  0  0  0
  7  8  1  0  0  0  0
  7 35  1  0  0  0  0
  8  9  1  0  0  0  0
  8 36  1  0  0  0  0
  8 37  1  0  0  0  0
  9 10  1  0  0  0  0
  9 38  1  0  0  0  0
  9 39  1  0  0  0  0
 10 11  1  0  0  0  0
 10 40  1  0  0  0  0
 10 41  1  0  0  0  0
 11 12  1  0  0  0  0
 12 17  1  0  0  0  0
 12 13  2  0  0  0  0
 13 14  1  0  0  0  0
 14 15  2  0  0  0  0
 14 42  1  0  0  0  0
 15 16  1  0  0  0  0
 16 20  1  0  0  0  0
 16 17  2  0  0  0  0
 17 18  1  0  0  0  0
 18 19  2  0  0  0  0
 19 20  1  0  0  0  0
 19 43  1  0  0  0  0
 20 21  1  0  0  0  0
 21 28  1  0  0  0  0
 21 22  1  0  0  0  0
 21 44  1  0  0  0  0
 22 23  1  0  0  0  0
 22 45  1  0  0  0  0
 22 46  1  0  0  0  0
 23 24  1  0  0  0  0
 23 26  1  0  0  0  0
 23 28  1  0  0  0  0
 24 25  1  0  0  0  0
 24 47  1  0  0  0  0
 24 48  1  0  0  0  0
 25 49  1  0  0  0  0
 26 27  1  0  0  0  0
 26 50  1  0  0  0  0
 26 51  1  0  0  0  0
 27 52  1  0  0  0  0
 28 53  1  0  0  0  0
 28 54  1  0  0  0  0
M  END
> <s_m_source_file>
AV-unprocessed.smi

> <i_m_source_file_index>
226

> <i_lp_mmshare_version>
43012

> <i_f3d_flags>
0

> <s_epik_input>
W0NIMl0xW0NIMl1bQ0hdMVtOSF1DKD1PKVtDQEBIXTJbQ0gyXVtDSDJdW0NIMl1OMmMobltjSF1uMyljKGMzNCluW2NIXW40W0NIXShbQ0gyXTUpW0NIMl1DNShbQ0gyXVtPSF0pW0NIMl1bT0hd

> <s_epik_cmdline>
J2VwaWtfcHl0aG9uJywgJy1waCcsICc3LjAnLCAnLXRuJywgJzgnLCAnLW1hJywgJzIwMCcsICctbWV0YWxfYmluZGluZycsICctaW1hZScsICc8aW5maWxlLm1hZT4nLCAnLW9tYWUnLCAnPG91dGZpbGUubWFlPic=

> <r_lp_tautomer_probability>
1

> <r_epik_Ionization_Penalty>
0.000818715

> <r_epik_Ionization_Penalty_Charging>
0

> <r_epik_Ionization_Penalty_Neutral>
0.000818715

> <r_epik_State_Penalty>
0.000426447

> <r_epik_Charging_Adjusted_Penalty>
0.000426447

> <i_epik_Tot_Q>
0

> <i_epik_Tot_abs_Q>
0

> <r_epik_Metal_State_Penalty>
-0

> <b_epik_Metal_Only>
0

> <s_lp_Force_Field>
OPLS_2005

> <r_lp_Energy>
62.928

> <b_lp_Chiralities_Consistent>
1

> <s_lp_Variant>
AV-unprocessed.smi:226-2

> <Gold.Version>
5.8.1

> <Gold.Id.Protein>
6NUR|6NUR_protein|mol2

> <Gold.PLP.Fitness>
50.9081

> <Gold.PLP.PLP>
-42.2927

> <Gold.PLP.part.hbond>
-4.0000

> <Gold.PLP.part.metal>
0.0000

> <Gold.PLP.part.buried>
-8.0958

> <Gold.PLP.part.nonpolar>
-29.6980

> <Gold.PLP.part.repulsive>
0.4834

> <Gold.PLP.ligand.clash>
0.0000

> <Gold.PLP.ligand.torsion>
0.4771

> <Gold.PLP.Chemscore.Hbond>
3.0000

> <Gold.PLP.Chemscore.CHOScore>
0.0000

> <Gold.PLP.Chemscore.Metal>
0.0000

> <Gold.Chemscore.Hbonds>
donor molecule, donor type, donor heavy atom, donor atom, acceptor molecule, acceptor atom, score
      L1  H     3    29       P1  8029  0.96
      L1  H    25    49       P1  7948  0.94
      P1  H  6896  6909       L1    27  1.00

> <Gold.PLP.Chemscore.Internal.Correction>
0.5695

> <Gold.Rescore>
     Score         DG    S(hbond)    S(metal)    S(lipo)     H(rot)  DE(clash)    DE(int)     intcor
     13.45     -15.95       2.83        0.00      85.79       3.52       0.03       2.47       ----

> <Gold.Chemscore.Fitness>
13.4483

> <Gold.Chemscore.DG>
-15.9467

> <Gold.Chemscore.ZeroCoef>
-5.4800

> <Gold.Chemscore.Hbond>
2.8298

> <Gold.Chemscore.Metal>
0.0000

> <Gold.Chemscore.Lipo>
85.7934

> <Gold.Chemscore.Internal_Hbond>
0.0000

> <Gold.Chemscore.DEClash>
0.0274

> <Gold.Chemscore.DEInternal>
2.4710

> <Gold.Chemscore.Rot>
3.5244

> <Gold.Chemscore.Internal.Correction>
   9.000000E+99

> <Gold.Chemscore.Hbonds>
donor molecule, donor type, donor heavy atom, donor atom, acceptor molecule, acceptor atom, score
      L1  H     3    29       P1  8029  0.86
      L1  H    25    49       P1  7948  0.26
      P1  H  6896  6909       L1    27  0.30

> <Gold.Chemscore.Hbond.Weighted>
-9.4514

> <Gold.Chemscore.Metal.Weighted>
-0.0000

> <Gold.Chemscore.Lipo.Weighted>
-10.0378

> <Gold.Chemscore.Internal_Hbond.Weighted>
0.0000

> <Gold.Chemscore.DEClash.Weighted>
0.0274

> <Gold.Chemscore.DEInternal.Weighted>
2.4710

> <Gold.Chemscore.Rot.Weighted>
9.0225

> <Gold.Chemscore.Internal.Correction.Weighted>
   9.000000E+99

> <Gold.Protein.RotatedTorsions>
[ 6907 6896 6895 6894 ] final    2.20 input  -60.11 | X-H torsion
[ 7974 7965 7964 7962 ] final  148.77 input  175.53 | X-H torsion
[ 8008 7997 7996 7995 ] final  110.35 input   59.86 | X-H torsion
[ 10167 10162 10161 10158 ] final -127.90 input  -65.29 | X-H torsion
[ 10718 10713 10712 10709 ] final   14.65 input   66.30 | X-H torsion
[ 10763 10752 10751 10750 ] final  140.44 input  -60.55 | X-H torsion
[ 11005 11000 10999 10996 ] final    6.12 input  -57.11 | X-H torsion

> <Gold.Protein.ActiveResidues>
 VAL166  LYS551  ARG553  GLY616  TRP617  ASP618  TYR619  PRO620  LYS621  CYS622 
 ASP623  PHE694  ASN695  SER759  ASP760  ASP761  ALA762  ILE779  LEU786  VAL792 
 PHE793  MET794  SER795  GLU796  ALA797  LYS798  CYS799  TRP800  GLU811  SER814 

> <Gold.Protein.RotatedAtoms>
  151.6050  135.1044  160.0068 H   0  0  0  0  0  0  0  0  0  0  0  0  # atno 6907 bound_to 6896
  152.4238  133.7157  159.6515 H   0  0  0  0  0  0  0  0  0  0  0  0  # atno 6908 bound_to 6896
  150.8126  133.8321  159.3197 H   0  0  0  0  0  0  0  0  0  0  0  0  # atno 6909 bound_to 6896
  144.8488  139.6196  143.5983 H   0  0  0  0  0  0  0  0  0  0  0  0  # atno 7974 bound_to 7965
  156.2046  140.3040  155.9600 H   0  0  0  0  0  0  0  0  0  0  0  0  # atno 8008 bound_to 7997
  155.2872  140.0440  157.3037 H   0  0  0  0  0  0  0  0  0  0  0  0  # atno 8009 bound_to 7997
  154.5616  140.2322  155.8335 H   0  0  0  0  0  0  0  0  0  0  0  0  # atno 8010 bound_to 7997
  139.9559  143.6003  152.2460 H   0  0  0  0  0  0  0  0  0  0  0  0  # atno 10167 bound_to 10162
  157.0422  130.6236  149.5753 H   0  0  0  0  0  0  0  0  0  0  0  0  # atno 10718 bound_to 10713
  153.9227  135.2999  155.3447 H   0  0  0  0  0  0  0  0  0  0  0  0  # atno 10763 bound_to 10752
  154.7567  135.4954  153.9391 H   0  0  0  0  0  0  0  0  0  0  0  0  # atno 10764 bound_to 10752
  153.1133  135.6764  153.9566 H   0  0  0  0  0  0  0  0  0  0  0  0  # atno 10765 bound_to 10752
  140.5630  134.0174  155.7979 H   0  0  0  0  0  0  0  0  0  0  0  0  # atno 11005 bound_to 11000
  146.2767  139.6771  142.9258 LP  0  0  0  0  0  0  0  0  0  0  0  0  # atno 17320 bound_to 7965
  145.4542  141.0430  143.2787 LP  0  0  0  0  0  0  0  0  0  0  0  0  # atno 17321 bound_to 7965
  139.6591  144.7662  151.1997 LP  0  0  0  0  0  0  0  0  0  0  0  0  # atno 17342 bound_to 10162
  140.7568  143.6038  150.8673 LP  0  0  0  0  0  0  0  0  0  0  0  0  # atno 17343 bound_to 10162
  156.0034  130.5117  150.7745 LP  0  0  0  0  0  0  0  0  0  0  0  0  # atno 17370 bound_to 10713
  157.5095  131.0924  151.0215 LP  0  0  0  0  0  0  0  0  0  0  0  0  # atno 17371 bound_to 10713
  141.1103  133.9628  157.2923 LP  0  0  0  0  0  0  0  0  0  0  0  0  # atno 17394 bound_to 11000
  139.9398  135.0192  156.8673 LP  0  0  0  0  0  0  0  0  0  0  0  0  # atno 17395 bound_to 11000

$$$$
