AV-unprocessed.smi:876|AV-procd|sdf|4021|dock6
  -GOLD-   22720 1513D 1   1.00000     0.00000
 Structure written by MMmdl.
 41 42  0  0  0  0  0  0  0  0  2 V2000
  151.7161  139.4697  155.5395 C   0  0  0  0  0  0  0  0  0  0  0  0
  150.6146  140.4233  155.5667 N   0  0  0  0  0  0  0  0  0  0  0  0
  150.7973  141.7406  156.1657 C   0  0  0  0  0  0  0  0  0  0  0  0
  149.3980  140.1080  154.9235 C   0  0  0  0  0  0  0  0  0  0  0  0
  148.6317  141.0578  154.2039 C   0  0  0  0  0  0  0  0  0  0  0  0
  147.4254  140.6682  153.5860 C   0  0  0  0  0  0  0  0  0  0  0  0
  146.9933  139.3228  153.6829 C   0  0  0  0  0  0  0  0  0  0  0  0
  145.7889  138.8278  153.1136 N   0  0  0  0  0  0  0  0  0  0  0  0
  145.4625  137.5580  152.8164 C   0  0  0  0  0  0  0  0  0  0  0  0
  146.1761  136.5747  153.0138 O   0  0  0  0  0  0  0  0  0  0  0  0
  144.2336  137.4845  152.2866 N   0  0  0  0  0  0  0  0  0  0  0  0
  143.5762  136.2497  151.8738 C   0  0  2  0  0  0  0  0  0  0  0  0
  143.5167  135.2753  153.0179 C   0  0  0  0  0  0  0  0  0  0  0  0
  144.1199  134.1213  152.7426 C   0  0  0  0  0  0  0  0  0  0  0  0
  144.7295  134.0926  151.3642 C   0  0  1  0  0  0  0  0  0  0  0  0
  144.2124  132.9234  150.5081 C   0  0  0  0  0  0  0  0  0  0  0  0
  142.8111  132.7965  150.6329 O   0  0  0  0  0  0  0  0  0  0  0  0
  144.3671  135.4827  150.7811 C   0  0  0  0  0  0  0  0  0  0  0  0
  147.7846  138.4211  154.4221 C   0  0  0  0  0  0  0  0  0  0  0  0
  148.9330  138.8370  154.9977 N   0  3  0  0  0  0  0  0  0  0  0  0
  142.5566  136.4559  151.5430 H   0  0  0  0  0  0  0  0  0  0  0  0
  145.8122  134.0163  151.4748 H   0  0  0  0  0  0  0  0  0  0  0  0
  152.0031  139.2436  154.5120 H   0  0  0  0  0  0  0  0  0  0  0  0
  151.4311  138.5410  156.0351 H   0  0  0  0  0  0  0  0  0  0  0  0
  152.5944  139.8635  156.0514 H   0  0  0  0  0  0  0  0  0  0  0  0
  150.0272  141.9339  156.9133 H   0  0  0  0  0  0  0  0  0  0  0  0
  150.7446  142.5183  155.4030 H   0  0  0  0  0  0  0  0  0  0  0  0
  151.7658  141.8209  156.6597 H   0  0  0  0  0  0  0  0  0  0  0  0
  148.9472  142.0869  154.1172 H   0  0  0  0  0  0  0  0  0  0  0  0
  146.8509  141.4155  153.0613 H   0  0  0  0  0  0  0  0  0  0  0  0
  145.0646  139.5156  152.9665 H   0  0  0  0  0  0  0  0  0  0  0  0
  143.7112  138.3399  152.1649 H   0  0  0  0  0  0  0  0  0  0  0  0
  143.0193  135.5087  153.9480 H   0  0  0  0  0  0  0  0  0  0  0  0
  144.1936  133.2834  153.4204 H   0  0  0  0  0  0  0  0  0  0  0  0
  144.4683  133.0669  149.4576 H   0  0  0  0  0  0  0  0  0  0  0  0
  144.6729  131.9882  150.8283 H   0  0  0  0  0  0  0  0  0  0  0  0
  142.4038  133.5393  150.2138 H   0  0  0  0  0  0  0  0  0  0  0  0
  143.7580  135.3882  149.8809 H   0  0  0  0  0  0  0  0  0  0  0  0
  145.2737  136.0137  150.4868 H   0  0  0  0  0  0  0  0  0  0  0  0
  147.5395  137.3786  154.5663 H   0  0  0  0  0  0  0  0  0  0  0  0
  149.4824  138.1536  155.5191 H   0  0  0  0  0  0  0  0  0  0  0  0
  1  2  1  0  0  0  0
  1 23  1  0  0  0  0
  1 24  1  0  0  0  0
  1 25  1  0  0  0  0
  2  3  1  0  0  0  0
  2  4  1  0  0  0  0
  3 26  1  0  0  0  0
  3 27  1  0  0  0  0
  3 28  1  0  0  0  0
  4 20  1  0  0  0  0
  4  5  2  0  0  0  0
  5  6  1  0  0  0  0
  5 29  1  0  0  0  0
  6  7  2  0  0  0  0
  6 30  1  0  0  0  0
  7  8  1  0  0  0  0
  7 19  1  0  0  0  0
  8  9  1  0  0  0  0
  8 31  1  0  0  0  0
  9 10  2  0  0  0  0
  9 11  1  0  0  0  0
 11 12  1  0  0  0  0
 11 32  1  0  0  0  0
 12 21  1  0  0  0  0
 12 18  1  0  0  0  0
 12 13  1  0  0  0  0
 13 14  2  0  0  0  0
 13 33  1  0  0  0  0
 14 15  1  0  0  0  0
 14 34  1  0  0  0  0
 15 22  1  0  0  0  0
 15 16  1  0  0  0  0
 15 18  1  0  0  0  0
 16 17  1  0  0  0  0
 16 35  1  0  0  0  0
 16 36  1  0  0  0  0
 17 37  1  0  0  0  0
 18 38  1  0  0  0  0
 18 39  1  0  0  0  0
 19 20  2  0  0  0  0
 19 40  1  0  0  0  0
 20 41  1  0  0  0  0
M  CHG  1  20   1
M  END
> <s_m_source_file>
AV-unprocessed.smi

> <i_m_source_file_index>
876

> <i_lp_mmshare_version>
43012

> <i_f3d_flags>
0

> <s_epik_input>
W0NIM11OKFtDSDNdKWMxW2NIXVtjSF1jKFtjSF1uMSlbTkhdQyg9TylbTkhdW0NAQEhdMltDSF09W0NIXVtDQEBIXShbQ0gyXTIpW0NIMl1bT0hd

> <s_epik_cmdline>
J2VwaWtfcHl0aG9uJywgJy1waCcsICc3LjAnLCAnLXRuJywgJzgnLCAnLW1hJywgJzIwMCcsICctbWV0YWxfYmluZGluZycsICctaW1hZScsICc8aW5maWxlLm1hZT4nLCAnLW9tYWUnLCAnPG91dGZpbGUubWFlPic=

> <r_lp_tautomer_probability>
0.999994

> <r_epik_Ionization_Penalty>
0.257994

> <r_epik_Ionization_Penalty_Charging>
0.257974

> <r_epik_Ionization_Penalty_Neutral>
1.95938e-05

> <r_epik_State_Penalty>
0.249586

> <r_epik_Charging_Adjusted_Penalty>
0.50756

> <i_epik_Tot_Q>
1

> <i_epik_Tot_abs_Q>
1

> <r_epik_Metal_State_Penalty>
0.538508

> <b_epik_Metal_Only>
0

> <s_lp_Force_Field>
OPLS_2005

> <r_lp_Energy>
26.2592

> <b_lp_Chiralities_Consistent>
1

> <s_lp_Variant>
AV-unprocessed.smi:876-3

> <Gold.Version>
5.8.1

> <Gold.Id.Protein>
6NUR|6NUR_protein|mol2

> <Gold.PLP.Fitness>
43.2947

> <Gold.PLP.PLP>
-36.4968

> <Gold.PLP.part.hbond>
-4.1059

> <Gold.PLP.part.metal>
0.0000

> <Gold.PLP.part.buried>
-3.7145

> <Gold.PLP.part.nonpolar>
-28.7226

> <Gold.PLP.part.repulsive>
1.1442

> <Gold.PLP.ligand.clash>
0.0000

> <Gold.PLP.ligand.torsion>
0.7399

> <Gold.PLP.Chemscore.Hbond>
2.7517

> <Gold.PLP.Chemscore.CHOScore>
0.0000

> <Gold.PLP.Chemscore.Metal>
0.0000

> <Gold.Chemscore.Hbonds>
donor molecule, donor type, donor heavy atom, donor atom, acceptor molecule, acceptor atom, score
      L1  H     8    31       P1 10175  1.00
      L1  H    11    32       P1 10175  0.76
      L1  H    17    37       P1 10186  1.00

> <Gold.PLP.Chemscore.Internal.Correction>
0.0228

> <Gold.Rescore>
     Score         DG    S(hbond)    S(metal)    S(lipo)     H(rot)  DE(clash)    DE(int)     intcor
     14.86     -18.55       2.85        0.00      70.19       1.82       0.34       3.35       ----

> <Gold.Chemscore.Fitness>
14.8605

> <Gold.Chemscore.DG>
-18.5501

> <Gold.Chemscore.ZeroCoef>
-5.4800

> <Gold.Chemscore.Hbond>
2.8494

> <Gold.Chemscore.Metal>
0.0000

> <Gold.Chemscore.Lipo>
70.1861

> <Gold.Chemscore.Internal_Hbond>
0.0000

> <Gold.Chemscore.DEClash>
0.3373

> <Gold.Chemscore.DEInternal>
3.3524

> <Gold.Chemscore.Rot>
1.8197

> <Gold.Chemscore.Internal.Correction>
   9.000000E+99

> <Gold.Chemscore.Hbonds>
donor molecule, donor type, donor heavy atom, donor atom, acceptor molecule, acceptor atom, score
      L1  H     8    31       P1 10175  1.00
      L1  H    11    32       P1 10175  0.72
      L1  H    17    37       P1 10186  0.97

> <Gold.Chemscore.Hbond.Weighted>
-9.5169

> <Gold.Chemscore.Metal.Weighted>
-0.0000

> <Gold.Chemscore.Lipo.Weighted>
-8.2118

> <Gold.Chemscore.Internal_Hbond.Weighted>
0.0000

> <Gold.Chemscore.DEClash.Weighted>
0.3373

> <Gold.Chemscore.DEInternal.Weighted>
3.3524

> <Gold.Chemscore.Rot.Weighted>
4.6585

> <Gold.Chemscore.Internal.Correction.Weighted>
   9.000000E+99

> <Gold.Protein.RotatedTorsions>
[ 6907 6896 6895 6894 ] final  124.80 input  -60.11 | X-H torsion
[ 7974 7965 7964 7962 ] final   21.85 input  175.53 | X-H torsion
[ 8008 7997 7996 7995 ] final  174.18 input   59.86 | X-H torsion
[ 10167 10162 10161 10158 ] final  -93.72 input  -65.29 | X-H torsion
[ 10718 10713 10712 10709 ] final  -96.89 input   66.30 | X-H torsion
[ 10763 10752 10751 10750 ] final   95.57 input  -60.55 | X-H torsion
[ 11005 11000 10999 10996 ] final   60.45 input  -57.11 | X-H torsion

> <Gold.Protein.ActiveResidues>
 VAL166  LYS551  ARG553  GLY616  TRP617  ASP618  TYR619  PRO620  LYS621  CYS622 
 ASP623  PHE694  ASN695  SER759  ASP760  ASP761  ALA762  ILE779  LEU786  VAL792 
 PHE793  MET794  SER795  GLU796  ALA797  LYS798  CYS799  TRP800  GLU811  SER814 

> <Gold.Protein.RotatedAtoms>
  152.4047  133.6870  159.6345 H   0  0  0  0  0  0  0  0  0  0  0  0  # atno 6907 bound_to 6896
  150.7933  133.8730  159.3273 H   0  0  0  0  0  0  0  0  0  0  0  0  # atno 6908 bound_to 6896
  151.6487  135.1006  160.0208 H   0  0  0  0  0  0  0  0  0  0  0  0  # atno 6909 bound_to 6896
  146.2054  139.7969  142.8730 H   0  0  0  0  0  0  0  0  0  0  0  0  # atno 7974 bound_to 7965
  156.1001  140.1441  156.9479 H   0  0  0  0  0  0  0  0  0  0  0  0  # atno 8008 bound_to 7997
  154.4697  140.0914  156.7157 H   0  0  0  0  0  0  0  0  0  0  0  0  # atno 8009 bound_to 7997
  155.4775  140.3444  155.4337 H   0  0  0  0  0  0  0  0  0  0  0  0  # atno 8010 bound_to 7997
  140.3217  143.3045  152.0038 H   0  0  0  0  0  0  0  0  0  0  0  0  # atno 10167 bound_to 10162
  156.0072  130.5171  150.6293 H   0  0  0  0  0  0  0  0  0  0  0  0  # atno 10718 bound_to 10713
  153.2548  135.4249  155.0834 H   0  0  0  0  0  0  0  0  0  0  0  0  # atno 10763 bound_to 10752
  154.8396  135.3434  154.6461 H   0  0  0  0  0  0  0  0  0  0  0  0  # atno 10764 bound_to 10752
  153.6882  135.7035  153.5154 H   0  0  0  0  0  0  0  0  0  0  0  0  # atno 10765 bound_to 10752
  140.0231  134.6124  155.9612 H   0  0  0  0  0  0  0  0  0  0  0  0  # atno 11005 bound_to 11000
  145.3338  141.0272  143.3431 LP  0  0  0  0  0  0  0  0  0  0  0  0  # atno 17320 bound_to 7965
  144.8780  139.4944  143.6736 LP  0  0  0  0  0  0  0  0  0  0  0  0  # atno 17321 bound_to 7965
  139.4873  144.6305  151.7079 LP  0  0  0  0  0  0  0  0  0  0  0  0  # atno 17342 bound_to 10162
  140.5477  144.0476  150.6114 LP  0  0  0  0  0  0  0  0  0  0  0  0  # atno 17343 bound_to 10162
  157.4094  131.0821  151.1235 LP  0  0  0  0  0  0  0  0  0  0  0  0  # atno 17370 bound_to 10713
  157.1871  130.6335  149.5691 LP  0  0  0  0  0  0  0  0  0  0  0  0  # atno 17371 bound_to 10713
  141.1786  133.6543  156.4927 LP  0  0  0  0  0  0  0  0  0  0  0  0  # atno 17394 bound_to 11000
  140.4353  134.7064  157.4964 LP  0  0  0  0  0  0  0  0  0  0  0  0  # atno 17395 bound_to 11000

$$$$
