AV-unprocessed.smi:1762|AV-procd|sdf|7109|dock7
  -GOLD-   22720 8333D 1   1.00000     0.00000
 Structure written by MMmdl.
 53 54  0  0  0  0  0  0  0  0  2 V2000
  147.7315  134.8989  154.3506 C   0  0  0  0  0  0  0  0  0  0  0  0
  148.8789  134.2511  155.1460 C   0  0  1  0  0  0  0  0  0  0  0  0
  150.1464  135.1261  155.2124 C   0  0  0  0  0  0  0  0  0  0  0  0
  150.0156  136.2784  156.1133 N   0  0  0  0  0  0  0  0  0  0  0  0
  151.2360  137.1331  156.1433 C   0  0  2  0  0  0  0  0  0  0  0  0
  151.1692  138.2518  157.2097 C   0  0  0  0  0  0  0  0  0  0  0  0
  151.8144  138.1579  158.2544 O   0  0  0  0  0  0  0  0  0  0  0  0
  150.4093  139.3189  156.9161 N   0  0  0  0  0  0  0  0  0  0  0  0
  150.2468  140.4877  157.7714 C   0  0  0  0  0  0  0  0  0  0  0  0
  150.6417  141.7813  157.0387 C   0  0  0  0  0  0  0  0  0  0  0  0
  151.2576  142.8047  157.9723 C   0  0  0  0  0  0  0  0  0  0  0  0
  152.2914  142.4709  158.8739 C   0  0  0  0  0  0  0  0  0  0  0  0
  152.8169  143.4699  159.7200 C   0  0  0  0  0  0  0  0  0  0  0  0
  152.2970  144.7788  159.6482 C   0  0  0  0  0  0  0  0  0  0  0  0
  151.2631  145.0564  158.7308 C   0  0  0  0  0  0  0  0  0  0  0  0
  150.7865  144.0724  157.9367 N   0  3  0  0  0  0  0  0  0  0  0  0
  151.6721  137.7143  154.7559 C   0  0  0  0  0  0  0  0  0  0  0  0
  152.9606  138.5593  154.8206 C   0  0  0  0  0  0  0  0  0  0  0  0
  150.5584  138.4900  154.0251 C   0  0  0  0  0  0  0  0  0  0  0  0
  149.5810  135.7904  157.4331 C   0  0  0  0  0  0  0  0  0  0  0  0
  148.2907  134.9534  157.3640 C   0  0  2  0  0  0  0  0  0  0  0  0
  147.9058  134.3684  158.7276 C   0  0  0  0  0  0  0  0  0  0  0  0
  148.4698  133.8708  156.4574 O   0  0  0  0  0  0  0  0  0  0  0  0
  148.0246  135.0643  153.3136 H   0  0  0  0  0  0  0  0  0  0  0  0
  147.4402  135.8654  154.7617 H   0  0  0  0  0  0  0  0  0  0  0  0
  146.8505  134.2571  154.3461 H   0  0  0  0  0  0  0  0  0  0  0  0
  149.1380  133.3263  154.6295 H   0  0  0  0  0  0  0  0  0  0  0  0
  150.9862  134.5072  155.5329 H   0  0  0  0  0  0  0  0  0  0  0  0
  150.3685  135.4433  154.1957 H   0  0  0  0  0  0  0  0  0  0  0  0
  152.0577  136.4849  156.4560 H   0  0  0  0  0  0  0  0  0  0  0  0
  149.9148  139.3207  156.0355 H   0  0  0  0  0  0  0  0  0  0  0  0
  149.2029  140.5367  158.0823 H   0  0  0  0  0  0  0  0  0  0  0  0
  150.8371  140.3671  158.6814 H   0  0  0  0  0  0  0  0  0  0  0  0
  151.3517  141.5629  156.2397 H   0  0  0  0  0  0  0  0  0  0  0  0
  149.7665  142.2211  156.5580 H   0  0  0  0  0  0  0  0  0  0  0  0
  152.6776  141.4626  158.9185 H   0  0  0  0  0  0  0  0  0  0  0  0
  153.6090  143.2346  160.4158 H   0  0  0  0  0  0  0  0  0  0  0  0
  152.6860  145.5583  160.2873 H   0  0  0  0  0  0  0  0  0  0  0  0
  150.8070  146.0280  158.6089 H   0  0  0  0  0  0  0  0  0  0  0  0
  151.9437  136.8758  154.1169 H   0  0  0  0  0  0  0  0  0  0  0  0
  152.8060  139.5062  155.3386 H   0  0  0  0  0  0  0  0  0  0  0  0
  153.3196  138.7961  153.8186 H   0  0  0  0  0  0  0  0  0  0  0  0
  153.7588  138.0221  155.3337 H   0  0  0  0  0  0  0  0  0  0  0  0
  150.2923  139.4092  154.5462 H   0  0  0  0  0  0  0  0  0  0  0  0
  149.6535  137.8913  153.9213 H   0  0  0  0  0  0  0  0  0  0  0  0
  150.8767  138.7686  153.0203 H   0  0  0  0  0  0  0  0  0  0  0  0
  150.3788  135.1996  157.8868 H   0  0  0  0  0  0  0  0  0  0  0  0
  149.3770  136.6140  158.1163 H   0  0  0  0  0  0  0  0  0  0  0  0
  147.4686  135.5823  157.0212 H   0  0  0  0  0  0  0  0  0  0  0  0
  147.7426  135.1573  159.4623 H   0  0  0  0  0  0  0  0  0  0  0  0
  148.6864  133.7100  159.1099 H   0  0  0  0  0  0  0  0  0  0  0  0
  146.9862  133.7875  158.6554 H   0  0  0  0  0  0  0  0  0  0  0  0
  150.0383  144.2957  157.2801 H   0  0  0  0  0  0  0  0  0  0  0  0
  1  2  1  0  0  0  0
  1 24  1  0  0  0  0
  1 25  1  0  0  0  0
  1 26  1  0  0  0  0
  2 23  1  0  0  0  0
  2  3  1  0  0  0  0
  2 27  1  0  0  0  0
  3  4  1  0  0  0  0
  3 28  1  0  0  0  0
  3 29  1  0  0  0  0
  4  5  1  0  0  0  0
  4 20  1  0  0  0  0
  5  6  1  0  0  0  0
  5 17  1  0  0  0  0
  5 30  1  0  0  0  0
  6  7  2  0  0  0  0
  6  8  1  0  0  0  0
  8  9  1  0  0  0  0
  8 31  1  0  0  0  0
  9 10  1  0  0  0  0
  9 32  1  0  0  0  0
  9 33  1  0  0  0  0
 10 11  1  0  0  0  0
 10 34  1  0  0  0  0
 10 35  1  0  0  0  0
 11 16  1  0  0  0  0
 11 12  2  0  0  0  0
 12 13  1  0  0  0  0
 12 36  1  0  0  0  0
 13 14  2  0  0  0  0
 13 37  1  0  0  0  0
 14 15  1  0  0  0  0
 14 38  1  0  0  0  0
 15 16  2  0  0  0  0
 15 39  1  0  0  0  0
 16 53  1  0  0  0  0
 17 18  1  0  0  0  0
 17 19  1  0  0  0  0
 17 40  1  0  0  0  0
 18 41  1  0  0  0  0
 18 42  1  0  0  0  0
 18 43  1  0  0  0  0
 19 44  1  0  0  0  0
 19 45  1  0  0  0  0
 19 46  1  0  0  0  0
 20 21  1  0  0  0  0
 20 47  1  0  0  0  0
 20 48  1  0  0  0  0
 21 22  1  0  0  0  0
 21 23  1  0  0  0  0
 21 49  1  0  0  0  0
 22 50  1  0  0  0  0
 22 51  1  0  0  0  0
 22 52  1  0  0  0  0
M  CHG  1  16   1
M  END
> <s_m_source_file>
AV-unprocessed.smi

> <i_m_source_file_index>
1762

> <i_lp_mmshare_version>
43012

> <i_f3d_flags>
0

> <s_epik_input>
W0NIM11bQ0BASF0xW0NIMl1OKFtDSDJdW0NASF0oTzEpW0NIM10pW0NAQEhdKFtDSF0oW0NIM10pW0NIM10pQyg9TylbTkhdW0NIMl1bQ0gyXWMyW2NIXVtjSF1bY0hdW2NIXW4y

> <s_epik_cmdline>
J2VwaWtfcHl0aG9uJywgJy1waCcsICc3LjAnLCAnLXRuJywgJzgnLCAnLW1hJywgJzIwMCcsICctbWV0YWxfYmluZGluZycsICctaW1hZScsICc8aW5maWxlLm1hZT4nLCAnLW9tYWUnLCAnPG91dGZpbGUubWFlPic=

> <r_epik_Ionization_Penalty>
1.86475

> <r_epik_Ionization_Penalty_Charging>
1.85347

> <r_epik_Ionization_Penalty_Neutral>
0.0112771

> <r_epik_State_Penalty>
1.99714

> <r_epik_Charging_Adjusted_Penalty>
3.85061

> <i_epik_Tot_Q>
1

> <i_epik_Tot_abs_Q>
1

> <r_epik_Metal_State_Penalty>
2.02271

> <b_epik_Metal_Only>
0

> <s_lp_Force_Field>
OPLS_2005

> <r_lp_Energy>
35.2583

> <b_lp_Chiralities_Consistent>
1

> <s_lp_Variant>
AV-unprocessed.smi:1762-11

> <Gold.Version>
5.8.1

> <Gold.Id.Protein>
6NUR|6NUR_protein|mol2

> <Gold.PLP.Fitness>
43.4313

> <Gold.PLP.PLP>
-38.5421

> <Gold.PLP.part.hbond>
-1.0000

> <Gold.PLP.part.metal>
0.0000

> <Gold.PLP.part.buried>
-5.0900

> <Gold.PLP.part.nonpolar>
-33.1793

> <Gold.PLP.part.repulsive>
0.0830

> <Gold.PLP.ligand.clash>
0.0000

> <Gold.PLP.ligand.torsion>
0.7057

> <Gold.PLP.Chemscore.Hbond>
2.0000

> <Gold.PLP.Chemscore.CHOScore>
0.0000

> <Gold.PLP.Chemscore.Metal>
0.0000

> <Gold.Chemscore.Hbonds>
donor molecule, donor type, donor heavy atom, donor atom, acceptor molecule, acceptor atom, score
      L1  H    16    53       P1  8028  2.00

> <Gold.PLP.Chemscore.Internal.Correction>
0.3005

> <Gold.Rescore>
     Score         DG    S(hbond)    S(metal)    S(lipo)     H(rot)  DE(clash)    DE(int)     intcor
     17.07     -18.90       0.98        0.00     124.38       1.72       0.38       1.45       ----

> <Gold.Chemscore.Fitness>
17.0694

> <Gold.Chemscore.DG>
-18.8987

> <Gold.Chemscore.ZeroCoef>
-5.4800

> <Gold.Chemscore.Hbond>
0.9770

> <Gold.Chemscore.Metal>
0.0000

> <Gold.Chemscore.Lipo>
124.3780

> <Gold.Chemscore.Internal_Hbond>
0.0000

> <Gold.Chemscore.DEClash>
0.3778

> <Gold.Chemscore.DEInternal>
1.4515

> <Gold.Chemscore.Rot>
1.7174

> <Gold.Chemscore.Internal.Correction>
   9.000000E+99

> <Gold.Chemscore.Hbonds>
donor molecule, donor type, donor heavy atom, donor atom, acceptor molecule, acceptor atom, score
      L1  H    16    53       P1  8028  0.58

> <Gold.Chemscore.Hbond.Weighted>
-3.2631

> <Gold.Chemscore.Metal.Weighted>
-0.0000

> <Gold.Chemscore.Lipo.Weighted>
-14.5522

> <Gold.Chemscore.Internal_Hbond.Weighted>
0.0000

> <Gold.Chemscore.DEClash.Weighted>
0.3778

> <Gold.Chemscore.DEInternal.Weighted>
1.4515

> <Gold.Chemscore.Rot.Weighted>
4.3966

> <Gold.Chemscore.Internal.Correction.Weighted>
   9.000000E+99

> <Gold.Protein.RotatedTorsions>
[ 6907 6896 6895 6894 ] final  -82.01 input  -60.11 | X-H torsion
[ 7974 7965 7964 7962 ] final   -3.38 input  175.53 | X-H torsion
[ 8008 7997 7996 7995 ] final   15.82 input   59.86 | X-H torsion
[ 10167 10162 10161 10158 ] final -128.92 input  -65.29 | X-H torsion
[ 10718 10713 10712 10709 ] final   -4.20 input   66.30 | X-H torsion
[ 10763 10752 10751 10750 ] final -142.28 input  -60.55 | X-H torsion
[ 11005 11000 10999 10996 ] final  106.00 input  -57.11 | X-H torsion

> <Gold.Protein.ActiveResidues>
 VAL166  LYS551  ARG553  GLY616  TRP617  ASP618  TYR619  PRO620  LYS621  CYS622 
 ASP623  PHE694  ASN695  SER759  ASP760  ASP761  ALA762  ILE779  LEU786  VAL792 
 PHE793  MET794  SER795  GLU796  ALA797  LYS798  CYS799  TRP800  GLU811  SER814 

> <Gold.Protein.RotatedAtoms>
  150.6903  134.3730  159.5000 H   0  0  0  0  0  0  0  0  0  0  0  0  # atno 6907 bound_to 6896
  152.1543  134.8960  160.0555 H   0  0  0  0  0  0  0  0  0  0  0  0  # atno 6908 bound_to 6896
  152.0046  133.3803  159.4232 H   0  0  0  0  0  0  0  0  0  0  0  0  # atno 6909 bound_to 6896
  146.2390  140.1712  142.8332 H   0  0  0  0  0  0  0  0  0  0  0  0  # atno 7974 bound_to 7965
  154.8681  140.2954  155.5498 H   0  0  0  0  0  0  0  0  0  0  0  0  # atno 8008 bound_to 7997
  156.3021  140.2465  156.3599 H   0  0  0  0  0  0  0  0  0  0  0  0  # atno 8009 bound_to 7997
  154.8846  140.0396  157.1792 H   0  0  0  0  0  0  0  0  0  0  0  0  # atno 8010 bound_to 7997
  139.9452  143.6118  152.2492 H   0  0  0  0  0  0  0  0  0  0  0  0  # atno 10167 bound_to 10162
  156.7648  130.5281  149.5778 H   0  0  0  0  0  0  0  0  0  0  0  0  # atno 10718 bound_to 10713
  154.8515  135.3500  154.6003 H   0  0  0  0  0  0  0  0  0  0  0  0  # atno 10763 bound_to 10752
  153.6612  135.6989  153.5181 H   0  0  0  0  0  0  0  0  0  0  0  0  # atno 10764 bound_to 10752
  153.2816  135.4261  155.1042 H   0  0  0  0  0  0  0  0  0  0  0  0  # atno 10765 bound_to 10752
  139.8808  134.9354  156.5599 H   0  0  0  0  0  0  0  0  0  0  0  0  # atno 11005 bound_to 11000
  145.0010  140.8631  143.5282 LP  0  0  0  0  0  0  0  0  0  0  0  0  # atno 17320 bound_to 7965
  145.1732  139.2393  143.5331 LP  0  0  0  0  0  0  0  0  0  0  0  0  # atno 17321 bound_to 7965
  139.6672  144.7662  151.1851 LP  0  0  0  0  0  0  0  0  0  0  0  0  # atno 17342 bound_to 10162
  140.7599  143.5920  150.8787 LP  0  0  0  0  0  0  0  0  0  0  0  0  # atno 17343 bound_to 10162
  156.1316  130.6182  151.0341 LP  0  0  0  0  0  0  0  0  0  0  0  0  # atno 17370 bound_to 10713
  157.6718  131.0859  150.7593 LP  0  0  0  0  0  0  0  0  0  0  0  0  # atno 17371 bound_to 10713
  140.8177  133.8378  155.8867 LP  0  0  0  0  0  0  0  0  0  0  0  0  # atno 17394 bound_to 11000
  140.9447  134.1855  157.4772 LP  0  0  0  0  0  0  0  0  0  0  0  0  # atno 17395 bound_to 11000

$$$$
