AV-unprocessed.smi:1194|AV-procd|sdf|4991|dock4
  -GOLD-   22720 3593D 1   1.00000     0.00000
 Structure written by MMmdl.
 47 48  0  0  0  0  0  0  0  0  1 V2000
  152.0174  141.9946  159.5010 C   0  0  0  0  0  0  0  0  0  0  0  0
  151.4961  142.0390  158.0604 C   0  0  0  0  0  0  0  0  0  0  0  0
  150.7211  140.7636  157.6763 C   0  0  0  0  0  0  0  0  0  0  0  0
  150.3836  140.6606  156.1771 C   0  0  0  0  0  0  0  0  0  0  0  0
  151.3119  140.6091  155.3685 O   0  0  0  0  0  0  0  0  0  0  0  0
  149.0813  140.6137  155.7891 N   0  0  0  0  0  0  0  0  0  0  0  0
  147.9372  140.7393  156.7164 C   0  0  0  0  0  0  0  0  0  0  0  0
  147.1786  142.0464  156.4278 C   0  0  0  0  0  0  0  0  0  0  0  0
  146.7489  142.1232  154.9532 C   0  0  0  0  0  0  0  0  0  0  0  0
  147.9518  141.8854  154.0231 C   0  0  0  0  0  0  0  0  0  0  0  0
  148.6966  140.5691  154.3573 C   0  0  2  0  0  0  0  0  0  0  0  0
  147.9398  139.2856  153.9508 C   0  0  0  0  0  0  0  0  0  0  0  0
  147.5049  138.5209  154.8122 O   0  0  0  0  0  0  0  0  0  0  0  0
  147.7782  139.0597  152.6376 N   0  0  0  0  0  0  0  0  0  0  0  0
  147.0966  137.9036  152.0754 C   0  0  0  0  0  0  0  0  0  0  0  0
  145.6787  137.7856  152.6485 C   0  0  0  0  0  0  0  0  0  0  0  0
  144.9926  136.5067  152.2117 C   0  0  0  0  0  0  0  0  0  0  0  0
  143.7004  136.1853  152.6752 C   0  0  0  0  0  0  0  0  0  0  0  0
  143.1060  134.9828  152.2470 C   0  0  0  0  0  0  0  0  0  0  0  0
  143.8317  134.1509  151.3712 C   0  0  0  0  0  0  0  0  0  0  0  0
  145.0700  134.4482  150.9215 N   0  0  0  0  0  0  0  0  0  0  0  0
  145.6330  135.6031  151.3372 C   0  0  0  0  0  0  0  0  0  0  0  0
  152.5544  142.9107  159.7477 H   0  0  0  0  0  0  0  0  0  0  0  0
  152.7021  141.1586  159.6463 H   0  0  0  0  0  0  0  0  0  0  0  0
  151.1992  141.8866  160.2134 H   0  0  0  0  0  0  0  0  0  0  0  0
  150.8545  142.9134  157.9429 H   0  0  0  0  0  0  0  0  0  0  0  0
  152.3404  142.1795  157.3838 H   0  0  0  0  0  0  0  0  0  0  0  0
  151.3141  139.8937  157.9614 H   0  0  0  0  0  0  0  0  0  0  0  0
  149.7925  140.7292  158.2477 H   0  0  0  0  0  0  0  0  0  0  0  0
  147.2639  139.8922  156.5851 H   0  0  0  0  0  0  0  0  0  0  0  0
  148.2079  140.7135  157.7697 H   0  0  0  0  0  0  0  0  0  0  0  0
  146.3047  142.1238  157.0750 H   0  0  0  0  0  0  0  0  0  0  0  0
  147.8178  142.8975  156.6666 H   0  0  0  0  0  0  0  0  0  0  0  0
  145.9768  141.3780  154.7579 H   0  0  0  0  0  0  0  0  0  0  0  0
  146.2993  143.0940  154.7435 H   0  0  0  0  0  0  0  0  0  0  0  0
  147.6264  141.8960  152.9822 H   0  0  0  0  0  0  0  0  0  0  0  0
  148.6467  142.7204  154.1225 H   0  0  0  0  0  0  0  0  0  0  0  0
  149.5766  140.5582  153.7135 H   0  0  0  0  0  0  0  0  0  0  0  0
  148.1542  139.7349  151.9875 H   0  0  0  0  0  0  0  0  0  0  0  0
  147.0573  138.0029  150.9896 H   0  0  0  0  0  0  0  0  0  0  0  0
  147.6668  137.0005  152.2990 H   0  0  0  0  0  0  0  0  0  0  0  0
  145.7120  137.8140  153.7387 H   0  0  0  0  0  0  0  0  0  0  0  0
  145.0749  138.6388  152.3362 H   0  0  0  0  0  0  0  0  0  0  0  0
  143.1743  136.8462  153.3484 H   0  0  0  0  0  0  0  0  0  0  0  0
  142.1180  134.7041  152.5823 H   0  0  0  0  0  0  0  0  0  0  0  0
  143.4059  133.2215  151.0231 H   0  0  0  0  0  0  0  0  0  0  0  0
  146.6243  135.8106  150.9619 H   0  0  0  0  0  0  0  0  0  0  0  0
  1  2  1  0  0  0  0
  1 23  1  0  0  0  0
  1 24  1  0  0  0  0
  1 25  1  0  0  0  0
  2  3  1  0  0  0  0
  2 26  1  0  0  0  0
  2 27  1  0  0  0  0
  3  4  1  0  0  0  0
  3 28  1  0  0  0  0
  3 29  1  0  0  0  0
  4  5  2  0  0  0  0
  4  6  1  0  0  0  0
  6 11  1  0  0  0  0
  6  7  1  0  0  0  0
  7  8  1  0  0  0  0
  7 30  1  0  0  0  0
  7 31  1  0  0  0  0
  8  9  1  0  0  0  0
  8 32  1  0  0  0  0
  8 33  1  0  0  0  0
  9 10  1  0  0  0  0
  9 34  1  0  0  0  0
  9 35  1  0  0  0  0
 10 11  1  0  0  0  0
 10 36  1  0  0  0  0
 10 37  1  0  0  0  0
 11 12  1  0  0  0  0
 11 38  1  0  0  0  0
 12 13  2  0  0  0  0
 12 14  1  0  0  0  0
 14 15  1  0  0  0  0
 14 39  1  0  0  0  0
 15 16  1  0  0  0  0
 15 40  1  0  0  0  0
 15 41  1  0  0  0  0
 16 17  1  0  0  0  0
 16 42  1  0  0  0  0
 16 43  1  0  0  0  0
 17 22  1  0  0  0  0
 17 18  2  0  0  0  0
 18 19  1  0  0  0  0
 18 44  1  0  0  0  0
 19 20  2  0  0  0  0
 19 45  1  0  0  0  0
 20 21  1  0  0  0  0
 20 46  1  0  0  0  0
 21 22  2  0  0  0  0
 22 47  1  0  0  0  0
M  END
> <s_m_source_file>
AV-unprocessed.smi

> <i_m_source_file_index>
1194

> <i_lp_mmshare_version>
43012

> <i_f3d_flags>
0

> <s_epik_input>
W0NIM11bQ0gyXVtDSDJdQyg9TylOMVtDSDJdW0NIMl1bQ0gyXVtDSDJdW0NASF0xQyg9TylbTkhdW0NIMl1bQ0gyXWMyW2NIXVtjSF1bY0hdbltjSF0y

> <s_epik_cmdline>
J2VwaWtfcHl0aG9uJywgJy1waCcsICc3LjAnLCAnLXRuJywgJzgnLCAnLW1hJywgJzIwMCcsICctbWV0YWxfYmluZGluZycsICctaW1hZScsICc8aW5maWxlLm1hZT4nLCAnLW9tYWUnLCAnPG91dGZpbGUubWFlPic=

> <r_epik_Ionization_Penalty>
0.0130932

> <r_epik_Ionization_Penalty_Charging>
0

> <r_epik_Ionization_Penalty_Neutral>
0.0130932

> <r_epik_State_Penalty>
0.0101714

> <r_epik_Charging_Adjusted_Penalty>
0.0101714

> <i_epik_Tot_Q>
0

> <i_epik_Tot_abs_Q>
0

> <r_epik_Metal_State_Penalty>
0.00995056

> <b_epik_Metal_Only>
0

> <s_lp_Force_Field>
OPLS_2005

> <r_lp_Energy>
25.0478

> <b_lp_Chiralities_Consistent>
1

> <s_lp_Variant>
AV-unprocessed.smi:1194-2

> <Gold.Version>
5.8.1

> <Gold.Id.Protein>
6NUR|6NUR_protein|mol2

> <Gold.PLP.Fitness>
42.3254

> <Gold.PLP.PLP>
-34.9265

> <Gold.PLP.part.hbond>
-2.6205

> <Gold.PLP.part.metal>
0.0000

> <Gold.PLP.part.buried>
-1.5366

> <Gold.PLP.part.nonpolar>
-31.6732

> <Gold.PLP.part.repulsive>
0.3536

> <Gold.PLP.ligand.clash>
0.0000

> <Gold.PLP.ligand.torsion>
0.2454

> <Gold.PLP.Chemscore.Hbond>
1.6000

> <Gold.PLP.Chemscore.CHOScore>
1.0000

> <Gold.PLP.Chemscore.Metal>
0.0000

> <Gold.Chemscore.Hbonds>
donor molecule, donor type, donor heavy atom, donor atom, acceptor molecule, acceptor atom, score
      L1  H    14    39       P1  7957  0.78
      P1  H  7989  7998       L1     5  0.83
      L1  C    22    47       P1  7948  1.00

> <Gold.PLP.Chemscore.Internal.Correction>
0.0897

> <Gold.Rescore>
     Score         DG    S(hbond)    S(metal)    S(lipo)     H(rot)  DE(clash)    DE(int)     intcor
     12.77     -16.96       1.76        0.00      84.75       1.68       1.55       2.63       ----

> <Gold.Chemscore.Fitness>
12.7726

> <Gold.Chemscore.DG>
-16.9580

> <Gold.Chemscore.ZeroCoef>
-5.4800

> <Gold.Chemscore.Hbond>
1.7573

> <Gold.Chemscore.Metal>
0.0000

> <Gold.Chemscore.Lipo>
84.7466

> <Gold.Chemscore.Internal_Hbond>
0.0000

> <Gold.Chemscore.DEClash>
1.5538

> <Gold.Chemscore.DEInternal>
2.6316

> <Gold.Chemscore.Rot>
1.6823

> <Gold.Chemscore.Internal.Correction>
   9.000000E+99

> <Gold.Chemscore.Hbonds>
donor molecule, donor type, donor heavy atom, donor atom, acceptor molecule, acceptor atom, score
      L1  H    14    39       P1  7957  0.78
      P1  H  7989  7998       L1     5  0.83

> <Gold.Chemscore.Hbond.Weighted>
-5.8695

> <Gold.Chemscore.Metal.Weighted>
-0.0000

> <Gold.Chemscore.Lipo.Weighted>
-9.9154

> <Gold.Chemscore.Internal_Hbond.Weighted>
0.0000

> <Gold.Chemscore.DEClash.Weighted>
1.5538

> <Gold.Chemscore.DEInternal.Weighted>
2.6316

> <Gold.Chemscore.Rot.Weighted>
4.3068

> <Gold.Chemscore.Internal.Correction.Weighted>
   9.000000E+99

> <Gold.Protein.RotatedTorsions>
[ 6907 6896 6895 6894 ] final  130.08 input  -60.11 | X-H torsion
[ 7974 7965 7964 7962 ] final  120.69 input  175.53 | X-H torsion
[ 8008 7997 7996 7995 ] final   -5.31 input   59.86 | X-H torsion
[ 10167 10162 10161 10158 ] final  -72.83 input  -65.29 | X-H torsion
[ 10718 10713 10712 10709 ] final   85.52 input   66.30 | X-H torsion
[ 10763 10752 10751 10750 ] final  -16.77 input  -60.55 | X-H torsion
[ 11005 11000 10999 10996 ] final -169.14 input  -57.11 | X-H torsion

> <Gold.Protein.ActiveResidues>
 VAL166  LYS551  ARG553  GLY616  TRP617  ASP618  TYR619  PRO620  LYS621  CYS622 
 ASP623  PHE694  ASN695  SER759  ASP760  ASP761  ALA762  ILE779  LEU786  VAL792 
 PHE793  MET794  SER795  GLU796  ALA797  LYS798  CYS799  TRP800  GLU811  SER814 

> <Gold.Protein.RotatedAtoms>
  152.3562  133.6239  159.5980 H   0  0  0  0  0  0  0  0  0  0  0  0  # atno 6907 bound_to 6896
  150.7570  133.9497  159.3490 H   0  0  0  0  0  0  0  0  0  0  0  0  # atno 6908 bound_to 6896
  151.7342  135.0869  160.0356 H   0  0  0  0  0  0  0  0  0  0  0  0  # atno 6909 bound_to 6896
  145.1282  139.3345  143.4679 H   0  0  0  0  0  0  0  0  0  0  0  0  # atno 7974 bound_to 7965
  154.6052  140.2461  155.7740 H   0  0  0  0  0  0  0  0  0  0  0  0  # atno 8008 bound_to 7997
  156.2336  140.2958  156.0205 H   0  0  0  0  0  0  0  0  0  0  0  0  # atno 8009 bound_to 7997
  155.2144  140.0398  157.2929 H   0  0  0  0  0  0  0  0  0  0  0  0  # atno 8010 bound_to 7997
  140.5160  143.2338  151.7511 H   0  0  0  0  0  0  0  0  0  0  0  0  # atno 10167 bound_to 10162
  157.6916  131.0178  150.2835 H   0  0  0  0  0  0  0  0  0  0  0  0  # atno 10718 bound_to 10713
  153.5636  135.7009  153.5536 H   0  0  0  0  0  0  0  0  0  0  0  0  # atno 10763 bound_to 10752
  153.3407  135.4022  155.1569 H   0  0  0  0  0  0  0  0  0  0  0  0  # atno 10764 bound_to 10752
  154.8644  135.3741  154.5154 H   0  0  0  0  0  0  0  0  0  0  0  0  # atno 10765 bound_to 10752
  140.5340  134.5588  157.5082 H   0  0  0  0  0  0  0  0  0  0  0  0  # atno 11005 bound_to 11000
  146.3516  140.1269  142.8598 LP  0  0  0  0  0  0  0  0  0  0  0  0  # atno 17320 bound_to 7965
  145.0665  140.9125  143.4907 LP  0  0  0  0  0  0  0  0  0  0  0  0  # atno 17321 bound_to 7965
  139.4909  144.4322  151.9859 LP  0  0  0  0  0  0  0  0  0  0  0  0  # atno 17342 bound_to 10162
  140.3417  144.3195  150.5966 LP  0  0  0  0  0  0  0  0  0  0  0  0  # atno 17343 bound_to 10162
  156.3378  130.3810  149.7435 LP  0  0  0  0  0  0  0  0  0  0  0  0  # atno 17370 bound_to 10713
  156.4954  130.8104  151.3111 LP  0  0  0  0  0  0  0  0  0  0  0  0  # atno 17371 bound_to 10713
  139.9539  134.7569  156.0386 LP  0  0  0  0  0  0  0  0  0  0  0  0  # atno 17394 bound_to 11000
  141.1265  133.6598  156.3350 LP  0  0  0  0  0  0  0  0  0  0  0  0  # atno 17395 bound_to 11000

$$$$
