AV-unprocessed.smi:1941|AV-procd|sdf|7846|dock3
  -GOLD-   22720 9593D 1   1.00000     0.00000
 Structure written by MMmdl.
 40 41  0  0  0  0  0  0  0  0  1 V2000
  143.3957  134.5586  152.4782 C   0  0  0  0  0  0  0  0  0  0  0  0
  144.5582  133.6455  152.2924 C   0  0  0  0  0  0  0  0  0  0  0  0
  145.6888  133.7387  152.9963 N   0  0  0  0  0  0  0  0  0  0  0  0
  146.6364  132.7816  152.6209 C   0  0  0  0  0  0  0  0  0  0  0  0
  147.9842  132.7648  153.2816 C   0  0  0  0  0  0  0  0  0  0  0  0
  148.1001  133.7308  154.4773 C   0  0  0  0  0  0  0  0  0  0  0  0
  148.8418  134.9449  154.1434 N   0  0  0  0  0  0  0  0  0  0  0  0
  149.3023  135.8422  155.0272 C   0  0  0  0  0  0  0  0  0  0  0  0
  149.1804  135.7359  156.2477 O   0  0  0  0  0  0  0  0  0  0  0  0
  149.8921  136.8798  154.4168 N   0  0  0  0  0  0  0  0  0  0  0  0
  150.4316  138.0612  155.0864 C   0  0  1  0  0  0  0  0  0  0  0  0
  151.9657  138.0053  155.0198 C   0  0  0  0  0  0  0  0  0  0  0  0
  149.8615  139.3371  154.4321 C   0  0  2  0  0  0  0  0  0  0  0  0
  150.1543  140.6301  155.1954 C   0  0  0  0  0  0  0  0  0  0  0  0
  149.0410  141.5305  154.7129 C   0  0  0  0  0  0  0  0  0  0  0  0
  147.8689  140.5584  154.6355 C   0  0  0  0  0  0  0  0  0  0  0  0
  148.4371  139.2801  154.3646 O   0  0  0  0  0  0  0  0  0  0  0  0
  146.1933  131.9407  151.6301 C   0  0  0  0  0  0  0  0  0  0  0  0
  144.5743  132.3327  151.1220 S   0  0  0  0  0  0  0  0  0  0  0  0
  143.6999  135.4617  153.0080 H   0  0  0  0  0  0  0  0  0  0  0  0
  142.6178  134.0580  153.0548 H   0  0  0  0  0  0  0  0  0  0  0  0
  142.9872  134.8447  151.5087 H   0  0  0  0  0  0  0  0  0  0  0  0
  148.2160  131.7539  153.6189 H   0  0  0  0  0  0  0  0  0  0  0  0
  148.7547  133.0124  152.5506 H   0  0  0  0  0  0  0  0  0  0  0  0
  147.1070  133.9785  154.8562 H   0  0  0  0  0  0  0  0  0  0  0  0
  148.6202  133.2340  155.2965 H   0  0  0  0  0  0  0  0  0  0  0  0
  148.9917  135.1280  153.1621 H   0  0  0  0  0  0  0  0  0  0  0  0
  149.9365  136.8725  153.4087 H   0  0  0  0  0  0  0  0  0  0  0  0
  150.1465  138.0497  156.1401 H   0  0  0  0  0  0  0  0  0  0  0  0
  152.4181  138.8362  155.5612 H   0  0  0  0  0  0  0  0  0  0  0  0
  152.3210  138.0465  153.9895 H   0  0  0  0  0  0  0  0  0  0  0  0
  152.3437  137.0853  155.4667 H   0  0  0  0  0  0  0  0  0  0  0  0
  150.2344  139.4357  153.4111 H   0  0  0  0  0  0  0  0  0  0  0  0
  150.0653  140.4720  156.2712 H   0  0  0  0  0  0  0  0  0  0  0  0
  151.1459  141.0329  154.9882 H   0  0  0  0  0  0  0  0  0  0  0  0
  148.8517  142.3763  155.3746 H   0  0  0  0  0  0  0  0  0  0  0  0
  149.2760  141.9166  153.7201 H   0  0  0  0  0  0  0  0  0  0  0  0
  147.3485  140.5077  155.5924 H   0  0  0  0  0  0  0  0  0  0  0  0
  147.1454  140.8425  153.8712 H   0  0  0  0  0  0  0  0  0  0  0  0
  146.7241  131.1256  151.1610 H   0  0  0  0  0  0  0  0  0  0  0  0
  1  2  1  0  0  0  0
  1 20  1  0  0  0  0
  1 21  1  0  0  0  0
  1 22  1  0  0  0  0
  2 19  1  0  0  0  0
  2  3  2  0  0  0  0
  3  4  1  0  0  0  0
  4  5  1  0  0  0  0
  4 18  2  0  0  0  0
  5  6  1  0  0  0  0
  5 23  1  0  0  0  0
  5 24  1  0  0  0  0
  6  7  1  0  0  0  0
  6 25  1  0  0  0  0
  6 26  1  0  0  0  0
  7  8  1  0  0  0  0
  7 27  1  0  0  0  0
  8  9  2  0  0  0  0
  8 10  1  0  0  0  0
 10 11  1  0  0  0  0
 10 28  1  0  0  0  0
 11 12  1  0  0  0  0
 11 13  1  0  0  0  0
 11 29  1  0  0  0  0
 12 30  1  0  0  0  0
 12 31  1  0  0  0  0
 12 32  1  0  0  0  0
 13 17  1  0  0  0  0
 13 14  1  0  0  0  0
 13 33  1  0  0  0  0
 14 15  1  0  0  0  0
 14 34  1  0  0  0  0
 14 35  1  0  0  0  0
 15 16  1  0  0  0  0
 15 36  1  0  0  0  0
 15 37  1  0  0  0  0
 16 17  1  0  0  0  0
 16 38  1  0  0  0  0
 16 39  1  0  0  0  0
 18 19  1  0  0  0  0
 18 40  1  0  0  0  0
M  END
> <s_m_source_file>
AV-unprocessed.smi

> <i_m_source_file_index>
1941

> <i_lp_mmshare_version>
43012

> <i_f3d_flags>
0

> <s_epik_input>
W0NIM11jMW5jKFtjSF1zMSlbQ0gyXVtDSDJdW05IXUMoPU8pW05IXVtDQEhdKFtDSDNdKVtDQEBIXTJbQ0gyXVtDSDJdW0NIMl1PMg==

> <s_epik_cmdline>
J2VwaWtfcHl0aG9uJywgJy1waCcsICc3LjAnLCAnLXRuJywgJzgnLCAnLW1hJywgJzIwMCcsICctbWV0YWxfYmluZGluZycsICctaW1hZScsICc8aW5maWxlLm1hZT4nLCAnLW9tYWUnLCAnPG91dGZpbGUubWFlPic=

> <r_epik_Ionization_Penalty>
0.00195486

> <r_epik_Ionization_Penalty_Charging>
0

> <r_epik_Ionization_Penalty_Neutral>
0.00195486

> <r_epik_State_Penalty>
0.00129472

> <r_epik_Charging_Adjusted_Penalty>
0.00129472

> <i_epik_Tot_Q>
0

> <i_epik_Tot_abs_Q>
0

> <r_epik_Metal_State_Penalty>
-0

> <b_epik_Metal_Only>
0

> <s_lp_Force_Field>
OPLS_2005

> <r_lp_Energy>
10.9889

> <b_lp_Chiralities_Consistent>
1

> <s_lp_Variant>
AV-unprocessed.smi:1941-2

> <Gold.Version>
5.8.1

> <Gold.Id.Protein>
6NUR|6NUR_protein|mol2

> <Gold.PLP.Fitness>
38.0713

> <Gold.PLP.PLP>
-30.7034

> <Gold.PLP.part.hbond>
-2.1612

> <Gold.PLP.part.metal>
0.0000

> <Gold.PLP.part.buried>
-2.6375

> <Gold.PLP.part.nonpolar>
-26.8782

> <Gold.PLP.part.repulsive>
0.2929

> <Gold.PLP.ligand.clash>
0.0000

> <Gold.PLP.ligand.torsion>
0.6038

> <Gold.PLP.Chemscore.Hbond>
1.8480

> <Gold.PLP.Chemscore.CHOScore>
1.0000

> <Gold.PLP.Chemscore.Metal>
0.0000

> <Gold.Chemscore.Hbonds>
donor molecule, donor type, donor heavy atom, donor atom, acceptor molecule, acceptor atom, score
      L1  H     7    27       P1  7948  1.00
      L1  H    10    28       P1  7948  0.85
      L1  C    18    40       P1 10747  1.00

> <Gold.PLP.Chemscore.Internal.Correction>
0.0314

> <Gold.Rescore>
     Score         DG    S(hbond)    S(metal)    S(lipo)     H(rot)  DE(clash)    DE(int)     intcor
     15.38     -15.94       1.85        0.00      73.67       1.69       0.07       0.49       ----

> <Gold.Chemscore.Fitness>
15.3752

> <Gold.Chemscore.DG>
-15.9352

> <Gold.Chemscore.ZeroCoef>
-5.4800

> <Gold.Chemscore.Hbond>
1.8466

> <Gold.Chemscore.Metal>
0.0000

> <Gold.Chemscore.Lipo>
73.6742

> <Gold.Chemscore.Internal_Hbond>
0.0000

> <Gold.Chemscore.DEClash>
0.0650

> <Gold.Chemscore.DEInternal>
0.4949

> <Gold.Chemscore.Rot>
1.6923

> <Gold.Chemscore.Internal.Correction>
   9.000000E+99

> <Gold.Chemscore.Hbonds>
donor molecule, donor type, donor heavy atom, donor atom, acceptor molecule, acceptor atom, score
      L1  H     7    27       P1  7948  0.24
      L1  H    10    28       P1  7948  0.21

> <Gold.Chemscore.Hbond.Weighted>
-6.1676

> <Gold.Chemscore.Metal.Weighted>
-0.0000

> <Gold.Chemscore.Lipo.Weighted>
-8.6199

> <Gold.Chemscore.Internal_Hbond.Weighted>
0.0000

> <Gold.Chemscore.DEClash.Weighted>
0.0650

> <Gold.Chemscore.DEInternal.Weighted>
0.4949

> <Gold.Chemscore.Rot.Weighted>
4.3323

> <Gold.Chemscore.Internal.Correction.Weighted>
   9.000000E+99

> <Gold.Protein.RotatedTorsions>
[ 6907 6896 6895 6894 ] final   36.67 input  -60.11 | X-H torsion
[ 7974 7965 7964 7962 ] final  -44.63 input  175.53 | X-H torsion
[ 8008 7997 7996 7995 ] final   27.39 input   59.86 | X-H torsion
[ 10167 10162 10161 10158 ] final   52.67 input  -65.29 | X-H torsion
[ 10718 10713 10712 10709 ] final   43.82 input   66.30 | X-H torsion
[ 10763 10752 10751 10750 ] final  139.05 input  -60.55 | X-H torsion
[ 11005 11000 10999 10996 ] final   50.09 input  -57.11 | X-H torsion

> <Gold.Protein.ActiveResidues>
 VAL166  LYS551  ARG553  GLY616  TRP617  ASP618  TYR619  PRO620  LYS621  CYS622 
 ASP623  PHE694  ASN695  SER759  ASP760  ASP761  ALA762  ILE779  LEU786  VAL792 
 PHE793  MET794  SER795  GLU796  ALA797  LYS798  CYS799  TRP800  GLU811  SER814 

> <Gold.Protein.RotatedAtoms>
  152.1328  134.9122  160.0557 H   0  0  0  0  0  0  0  0  0  0  0  0  # atno 6907 bound_to 6896
  152.0219  133.3897  159.4270 H   0  0  0  0  0  0  0  0  0  0  0  0  # atno 6908 bound_to 6896
  150.6858  134.3537  159.4964 H   0  0  0  0  0  0  0  0  0  0  0  0  # atno 6909 bound_to 6896
  145.9902  140.7189  142.9321 H   0  0  0  0  0  0  0  0  0  0  0  0  # atno 7974 bound_to 7965
  155.0422  140.3170  155.4721 H   0  0  0  0  0  0  0  0  0  0  0  0  # atno 8008 bound_to 7997
  156.2852  140.2161  156.5489 H   0  0  0  0  0  0  0  0  0  0  0  0  # atno 8009 bound_to 7997
  154.7280  140.0484  157.0689 H   0  0  0  0  0  0  0  0  0  0  0  0  # atno 8010 bound_to 7997
  140.2489  144.3501  150.6355 H   0  0  0  0  0  0  0  0  0  0  0  0  # atno 10167 bound_to 10162
  157.4201  130.7964  149.7507 H   0  0  0  0  0  0  0  0  0  0  0  0  # atno 10718 bound_to 10713
  153.8997  135.3023  155.3448 H   0  0  0  0  0  0  0  0  0  0  0  0  # atno 10763 bound_to 10752
  154.7676  135.4902  153.9588 H   0  0  0  0  0  0  0  0  0  0  0  0  # atno 10764 bound_to 10752
  153.1252  135.6791  153.9369 H   0  0  0  0  0  0  0  0  0  0  0  0  # atno 10765 bound_to 10752
  140.1047  134.5034  155.8730 H   0  0  0  0  0  0  0  0  0  0  0  0  # atno 11005 bound_to 11000
  144.6886  140.3056  143.7256 LP  0  0  0  0  0  0  0  0  0  0  0  0  # atno 17320 bound_to 7965
  145.7641  139.1835  143.2250 LP  0  0  0  0  0  0  0  0  0  0  0  0  # atno 17321 bound_to 7965
  140.6056  143.2167  151.6987 LP  0  0  0  0  0  0  0  0  0  0  0  0  # atno 17342 bound_to 10162
  139.5053  144.3723  152.0457 LP  0  0  0  0  0  0  0  0  0  0  0  0  # atno 17343 bound_to 10162
  155.9878  130.3964  150.3149 LP  0  0  0  0  0  0  0  0  0  0  0  0  # atno 17370 bound_to 10713
  157.1296  131.0268  151.2975 LP  0  0  0  0  0  0  0  0  0  0  0  0  # atno 17371 bound_to 10713
  141.2115  133.6707  156.6588 LP  0  0  0  0  0  0  0  0  0  0  0  0  # atno 17394 bound_to 11000
  140.3171  134.8038  157.4223 LP  0  0  0  0  0  0  0  0  0  0  0  0  # atno 17395 bound_to 11000

$$$$
