AV-unprocessed.smi:1376|AV-procd|sdf|5590|dock3
  -GOLD-   22720 5193D 1   1.00000     0.00000
 Structure written by MMmdl.
 42 43  0  0  0  0  0  0  0  0  1 V2000
  149.5592  141.3893  158.0959 O   0  0  0  0  0  0  0  0  0  0  0  0
  150.4351  141.4535  157.2322 C   0  0  0  0  0  0  0  0  0  0  0  0
  151.8638  141.8851  157.5922 C   0  0  0  0  0  0  0  0  0  0  0  0
  151.9113  143.0720  158.4623 N   0  0  0  0  0  0  0  0  0  0  0  0
  151.2556  144.2318  158.0029 C   0  0  0  0  0  0  0  0  0  0  0  0
  151.2367  145.3674  158.7184 C   0  0  0  0  0  0  0  0  0  0  0  0
  151.9128  145.3818  159.9938 C   0  0  0  0  0  0  0  0  0  0  0  0
  152.5472  144.2796  160.4406 C   0  0  0  0  0  0  0  0  0  0  0  0
  152.5742  143.0372  159.6597 C   0  0  0  0  0  0  0  0  0  0  0  0
  153.1556  142.0273  160.0578 O   0  0  0  0  0  0  0  0  0  0  0  0
  150.2240  141.1370  155.9456 N   0  0  0  0  0  0  0  0  0  0  0  0
  148.9522  140.6944  155.3814 C   0  0  2  0  0  0  0  0  0  0  0  0
  149.0645  139.2457  154.8652 C   0  0  0  0  0  0  0  0  0  0  0  0
  147.7601  138.7874  154.1957 C   0  0  0  0  0  0  0  0  0  0  0  0
  147.3412  139.7453  153.0678 C   0  0  0  0  0  0  0  0  0  0  0  0
  147.2218  141.1973  153.5648 C   0  0  1  0  0  0  0  0  0  0  0  0
  146.1165  141.2580  154.4596 O   0  0  0  0  0  0  0  0  0  0  0  0
  145.5809  142.5586  154.6623 C   0  0  0  0  0  0  0  0  0  0  0  0
  144.8824  142.6096  156.0265 C   0  0  0  0  0  0  0  0  0  0  0  0
  144.3195  143.8064  156.1883 F   0  0  0  0  0  0  0  0  0  0  0  0
  143.9317  141.6778  156.0926 F   0  0  0  0  0  0  0  0  0  0  0  0
  145.7671  142.4170  157.0044 F   0  0  0  0  0  0  0  0  0  0  0  0
  148.5325  141.6475  154.2460 C   0  0  0  0  0  0  0  0  0  0  0  0
  152.3614  141.0410  158.0715 H   0  0  0  0  0  0  0  0  0  0  0  0
  152.4311  142.0676  156.6775 H   0  0  0  0  0  0  0  0  0  0  0  0
  150.7812  144.1400  157.0365 H   0  0  0  0  0  0  0  0  0  0  0  0
  150.7327  146.2479  158.3481 H   0  0  0  0  0  0  0  0  0  0  0  0
  151.9110  146.2809  160.5922 H   0  0  0  0  0  0  0  0  0  0  0  0
  153.0483  144.3089  161.3969 H   0  0  0  0  0  0  0  0  0  0  0  0
  151.0027  141.2114  155.3071 H   0  0  0  0  0  0  0  0  0  0  0  0
  148.1855  140.7350  156.1581 H   0  0  0  0  0  0  0  0  0  0  0  0
  149.8835  139.1710  154.1482 H   0  0  0  0  0  0  0  0  0  0  0  0
  149.3101  138.5703  155.6857 H   0  0  0  0  0  0  0  0  0  0  0  0
  147.8806  137.7787  153.7998 H   0  0  0  0  0  0  0  0  0  0  0  0
  146.9677  138.7318  154.9433 H   0  0  0  0  0  0  0  0  0  0  0  0
  148.0776  139.6978  152.2645 H   0  0  0  0  0  0  0  0  0  0  0  0
  146.3946  139.4202  152.6349 H   0  0  0  0  0  0  0  0  0  0  0  0
  147.0213  141.8338  152.7015 H   0  0  0  0  0  0  0  0  0  0  0  0
  146.3679  143.3117  154.6270 H   0  0  0  0  0  0  0  0  0  0  0  0
  144.8652  142.7956  153.8738 H   0  0  0  0  0  0  0  0  0  0  0  0
  148.4436  142.6655  154.6242 H   0  0  0  0  0  0  0  0  0  0  0  0
  149.3229  141.6795  153.4945 H   0  0  0  0  0  0  0  0  0  0  0  0
  1  2  2  0  0  0  0
  2  3  1  0  0  0  0
  2 11  1  0  0  0  0
  3  4  1  0  0  0  0
  3 24  1  0  0  0  0
  3 25  1  0  0  0  0
  4  9  1  0  0  0  0
  4  5  1  0  0  0  0
  5  6  2  0  0  0  0
  5 26  1  0  0  0  0
  6  7  1  0  0  0  0
  6 27  1  0  0  0  0
  7  8  2  0  0  0  0
  7 28  1  0  0  0  0
  8  9  1  0  0  0  0
  8 29  1  0  0  0  0
  9 10  2  0  0  0  0
 11 12  1  0  0  0  0
 11 30  1  0  0  0  0
 12 23  1  0  0  0  0
 12 13  1  0  0  0  0
 12 31  1  0  0  0  0
 13 14  1  0  0  0  0
 13 32  1  0  0  0  0
 13 33  1  0  0  0  0
 14 15  1  0  0  0  0
 14 34  1  0  0  0  0
 14 35  1  0  0  0  0
 15 16  1  0  0  0  0
 15 36  1  0  0  0  0
 15 37  1  0  0  0  0
 16 17  1  0  0  0  0
 16 23  1  0  0  0  0
 16 38  1  0  0  0  0
 17 18  1  0  0  0  0
 18 19  1  0  0  0  0
 18 39  1  0  0  0  0
 18 40  1  0  0  0  0
 19 20  1  0  0  0  0
 19 21  1  0  0  0  0
 19 22  1  0  0  0  0
 23 41  1  0  0  0  0
 23 42  1  0  0  0  0
M  END
> <s_m_source_file>
AV-unprocessed.smi

> <i_m_source_file_index>
1376

> <i_lp_mmshare_version>
43012

> <i_f3d_flags>
0

> <s_epik_input>
Tz1jMVtjSF1bY0hdW2NIXVtjSF1uMVtDSDJdQyg9TylbTkhdW0NAQEhdMltDSDJdW0NIMl1bQ0gyXVtDQEhdKFtDSDJdMilPW0NIMl1DKEYpKEYpRg==

> <s_epik_cmdline>
J2VwaWtfcHl0aG9uJywgJy1waCcsICc3LjAnLCAnLXRuJywgJzgnLCAnLW1hJywgJzIwMCcsICctbWV0YWxfYmluZGluZycsICctaW1hZScsICc8aW5maWxlLm1hZT4nLCAnLW9tYWUnLCAnPG91dGZpbGUubWFlPic=

> <r_lp_tautomer_probability>
1

> <r_epik_Ionization_Penalty>
4.08567e-07

> <r_epik_Ionization_Penalty_Charging>
3.90028e-07

> <r_epik_Ionization_Penalty_Neutral>
1.85393e-08

> <r_epik_State_Penalty>
-0

> <r_epik_Charging_Adjusted_Penalty>
3.90028e-07

> <i_epik_Tot_Q>
0

> <i_epik_Tot_abs_Q>
0

> <r_epik_Metal_State_Penalty>
-0

> <b_epik_Metal_Only>
0

> <s_lp_Force_Field>
OPLS_2005

> <r_lp_Energy>
21.1399

> <b_lp_Chiralities_Consistent>
1

> <s_lp_Variant>
AV-unprocessed.smi:1376-1

> <Gold.Version>
5.8.1

> <Gold.Id.Protein>
6NUR|6NUR_protein|mol2

> <Gold.PLP.Fitness>
45.5977

> <Gold.PLP.PLP>
-43.6499

> <Gold.PLP.part.hbond>
0.0000

> <Gold.PLP.part.metal>
0.0000

> <Gold.PLP.part.buried>
-5.4711

> <Gold.PLP.part.nonpolar>
-37.6925

> <Gold.PLP.part.repulsive>
0.2961

> <Gold.PLP.ligand.clash>
0.0000

> <Gold.PLP.ligand.torsion>
0.5397

> <Gold.PLP.Chemscore.Hbond>
0.0000

> <Gold.PLP.Chemscore.CHOScore>
0.9903

> <Gold.PLP.Chemscore.Metal>
0.0000

> <Gold.Chemscore.Hbonds>
donor molecule, donor type, donor heavy atom, donor atom, acceptor molecule, acceptor atom, score
      L1  C     5    26       P1  8028  1.00

> <Gold.PLP.Chemscore.Internal.Correction>
0.0564

> <Gold.Rescore>
     Score         DG    S(hbond)    S(metal)    S(lipo)     H(rot)  DE(clash)    DE(int)     intcor
     11.08     -11.65       0.00        0.00     100.46       2.18       0.09       0.48       ----

> <Gold.Chemscore.Fitness>
11.0807

> <Gold.Chemscore.DG>
-11.6540

> <Gold.Chemscore.ZeroCoef>
-5.4800

> <Gold.Chemscore.Hbond>
0.0000

> <Gold.Chemscore.Metal>
0.0000

> <Gold.Chemscore.Lipo>
100.4633

> <Gold.Chemscore.Internal_Hbond>
0.0000

> <Gold.Chemscore.DEClash>
0.0910

> <Gold.Chemscore.DEInternal>
0.4824

> <Gold.Chemscore.Rot>
2.1797

> <Gold.Chemscore.Internal.Correction>
   9.000000E+99

> <Gold.Chemscore.Hbond.Weighted>
-0.0000

> <Gold.Chemscore.Metal.Weighted>
-0.0000

> <Gold.Chemscore.Lipo.Weighted>
-11.7542

> <Gold.Chemscore.Internal_Hbond.Weighted>
0.0000

> <Gold.Chemscore.DEClash.Weighted>
0.0910

> <Gold.Chemscore.DEInternal.Weighted>
0.4824

> <Gold.Chemscore.Rot.Weighted>
5.5802

> <Gold.Chemscore.Internal.Correction.Weighted>
   9.000000E+99

> <Gold.Protein.RotatedTorsions>
[ 6907 6896 6895 6894 ] final  176.70 input  -60.11 | X-H torsion
[ 7974 7965 7964 7962 ] final  -30.53 input  175.53 | X-H torsion
[ 8008 7997 7996 7995 ] final -137.64 input   59.86 | X-H torsion
[ 10167 10162 10161 10158 ] final   37.93 input  -65.29 | X-H torsion
[ 10718 10713 10712 10709 ] final   42.77 input   66.30 | X-H torsion
[ 10763 10752 10751 10750 ] final   62.81 input  -60.55 | X-H torsion
[ 11005 11000 10999 10996 ] final  149.43 input  -57.11 | X-H torsion

> <Gold.Protein.ActiveResidues>
 VAL166  LYS551  ARG553  GLY616  TRP617  ASP618  TYR619  PRO620  LYS621  CYS622 
 ASP623  PHE694  ASN695  SER759  ASP760  ASP761  ALA762  ILE779  LEU786  VAL792 
 PHE793  MET794  SER795  GLU796  ALA797  LYS798  CYS799  TRP800  GLU811  SER814 

> <Gold.Protein.RotatedAtoms>
  151.7159  133.3313  159.3302 H   0  0  0  0  0  0  0  0  0  0  0  0  # atno 6907 bound_to 6896
  150.7674  134.6491  159.6288 H   0  0  0  0  0  0  0  0  0  0  0  0  # atno 6908 bound_to 6896
  152.3683  134.6775  160.0236 H   0  0  0  0  0  0  0  0  0  0  0  0  # atno 6909 bound_to 6896
  146.1136  140.5552  142.8767 H   0  0  0  0  0  0  0  0  0  0  0  0  # atno 7974 bound_to 7965
  155.4151  140.0515  157.3029 H   0  0  0  0  0  0  0  0  0  0  0  0  # atno 8008 bound_to 7997
  154.4928  140.2127  155.9470 H   0  0  0  0  0  0  0  0  0  0  0  0  # atno 8009 bound_to 7997
  156.1365  140.3162  155.8434 H   0  0  0  0  0  0  0  0  0  0  0  0  # atno 8010 bound_to 7997
  140.3986  144.1755  150.6133 H   0  0  0  0  0  0  0  0  0  0  0  0  # atno 10167 bound_to 10162
  157.4085  130.7901  149.7410 H   0  0  0  0  0  0  0  0  0  0  0  0  # atno 10718 bound_to 10713
  152.9995  135.5451  154.6252 H   0  0  0  0  0  0  0  0  0  0  0  0  # atno 10763 bound_to 10752
  154.5543  135.2829  155.0982 H   0  0  0  0  0  0  0  0  0  0  0  0  # atno 10764 bound_to 10752
  154.2209  135.6451  153.5197 H   0  0  0  0  0  0  0  0  0  0  0  0  # atno 10765 bound_to 10752
  140.1044  134.8963  157.1844 H   0  0  0  0  0  0  0  0  0  0  0  0  # atno 11005 bound_to 11000
  144.7533  140.5245  143.6787 LP  0  0  0  0  0  0  0  0  0  0  0  0  # atno 17320 bound_to 7965
  145.5613  139.1479  143.3339 LP  0  0  0  0  0  0  0  0  0  0  0  0  # atno 17321 bound_to 7965
  140.4764  143.2394  151.9017 LP  0  0  0  0  0  0  0  0  0  0  0  0  # atno 17342 bound_to 10162
  139.4785  144.5315  151.8659 LP  0  0  0  0  0  0  0  0  0  0  0  0  # atno 17343 bound_to 10162
  155.9843  130.3992  150.3316 LP  0  0  0  0  0  0  0  0  0  0  0  0  # atno 17370 bound_to 10713
  157.1451  131.0306  151.2910 LP  0  0  0  0  0  0  0  0  0  0  0  0  # atno 17371 bound_to 10713
  140.3176  134.2953  155.7253 LP  0  0  0  0  0  0  0  0  0  0  0  0  # atno 17394 bound_to 11000
  141.2114  133.7689  156.9865 LP  0  0  0  0  0  0  0  0  0  0  0  0  # atno 17395 bound_to 11000

$$$$
