AV-unprocessed.smi:1389|AV-procd|sdf|5651|dock4
  -GOLD-   22720 5273D 1   1.00000     0.00000
 Structure written by MMmdl.
 52 54  0  0  0  0  0  0  0  0  2 V2000
  155.7766  138.8876  163.3278 C   0  0  0  0  0  0  0  0  0  0  0  0
  154.5727  138.3173  162.5351 C   0  0  1  0  0  0  0  0  0  0  0  0
  154.7761  138.6264  161.0231 C   0  0  0  0  0  0  0  0  0  0  0  0
  153.6779  139.3877  160.4336 N   0  0  0  0  0  0  0  0  0  0  0  0
  153.7497  140.6715  160.0556 C   0  0  0  0  0  0  0  0  0  0  0  0
  154.7621  141.3613  160.1752 O   0  0  0  0  0  0  0  0  0  0  0  0
  152.5917  141.0853  159.5153 N   0  0  0  0  0  0  0  0  0  0  0  0
  152.2821  142.3655  158.9732 C   0  0  0  0  0  0  0  0  0  0  0  0
  152.9106  143.5507  159.4352 C   0  0  0  0  0  0  0  0  0  0  0  0
  152.5660  144.7928  158.8685 C   0  0  0  0  0  0  0  0  0  0  0  0
  151.5917  144.8337  157.8557 C   0  0  0  0  0  0  0  0  0  0  0  0
  150.9996  143.6910  157.4510 N   0  3  0  0  0  0  0  0  0  0  0  0
  151.2915  142.4676  157.9581 C   0  0  0  0  0  0  0  0  0  0  0  0
  150.5888  141.3432  157.4739 N   0  0  0  0  0  0  0  0  0  0  0  0
  149.1583  141.3597  157.7714 C   0  0  0  0  0  0  0  0  0  0  0  0
  148.4451  140.8234  156.5271 C   0  0  0  0  0  0  0  0  0  0  0  0
  149.4290  141.1223  155.4029 C   0  0  0  0  0  0  0  0  0  0  0  0
  150.7772  140.9161  156.0888 C   0  0  0  0  0  0  0  0  0  0  0  0
  154.3333  136.8819  162.8121 N   0  0  0  0  0  0  0  0  0  0  0  0
  154.2800  136.5809  164.2477 C   0  0  0  0  0  0  0  0  0  0  0  0
  154.0635  135.0855  164.5380 C   0  0  0  0  0  0  0  0  0  0  0  0
  155.0874  134.3214  163.9161 O   0  0  0  0  0  0  0  0  0  0  0  0
  155.1243  134.5240  162.5105 C   0  0  0  0  0  0  0  0  0  0  0  0
  155.3523  136.0151  162.2085 C   0  0  0  0  0  0  0  0  0  0  0  0
  155.9831  139.9285  163.0818 H   0  0  0  0  0  0  0  0  0  0  0  0
  156.6847  138.3179  163.1282 H   0  0  0  0  0  0  0  0  0  0  0  0
  155.6040  138.8813  164.4030 H   0  0  0  0  0  0  0  0  0  0  0  0
  153.6893  138.8693  162.8605 H   0  0  0  0  0  0  0  0  0  0  0  0
  155.6963  139.1942  160.8817 H   0  0  0  0  0  0  0  0  0  0  0  0
  154.8814  137.7199  160.4288 H   0  0  0  0  0  0  0  0  0  0  0  0
  152.8082  138.8940  160.2949 H   0  0  0  0  0  0  0  0  0  0  0  0
  151.8823  140.3777  159.3929 H   0  0  0  0  0  0  0  0  0  0  0  0
  153.6456  143.5296  160.2254 H   0  0  0  0  0  0  0  0  0  0  0  0
  153.0397  145.7016  159.2102 H   0  0  0  0  0  0  0  0  0  0  0  0
  151.2634  145.7394  157.3666 H   0  0  0  0  0  0  0  0  0  0  0  0
  148.9331  140.7506  158.6470 H   0  0  0  0  0  0  0  0  0  0  0  0
  148.8272  142.3783  157.9795 H   0  0  0  0  0  0  0  0  0  0  0  0
  148.3066  139.7449  156.6161 H   0  0  0  0  0  0  0  0  0  0  0  0
  147.4664  141.2772  156.3703 H   0  0  0  0  0  0  0  0  0  0  0  0
  149.2923  140.4814  154.5314 H   0  0  0  0  0  0  0  0  0  0  0  0
  149.3261  142.1602  155.0832 H   0  0  0  0  0  0  0  0  0  0  0  0
  151.5840  141.4241  155.5607 H   0  0  0  0  0  0  0  0  0  0  0  0
  151.0286  139.8550  156.1009 H   0  0  0  0  0  0  0  0  0  0  0  0
  155.2004  136.9138  164.7300 H   0  0  0  0  0  0  0  0  0  0  0  0
  153.4604  137.1138  164.7250 H   0  0  0  0  0  0  0  0  0  0  0  0
  154.0865  134.9021  165.6123 H   0  0  0  0  0  0  0  0  0  0  0  0
  153.0859  134.7599  164.1790 H   0  0  0  0  0  0  0  0  0  0  0  0
  155.9295  133.9244  162.0859 H   0  0  0  0  0  0  0  0  0  0  0  0
  154.1941  134.1757  162.0589 H   0  0  0  0  0  0  0  0  0  0  0  0
  155.3568  136.1230  161.1256 H   0  0  0  0  0  0  0  0  0  0  0  0
  156.3426  136.3077  162.5610 H   0  0  0  0  0  0  0  0  0  0  0  0
  150.2875  143.7525  156.7231 H   0  0  0  0  0  0  0  0  0  0  0  0
  1  2  1  0  0  0  0
  1 25  1  0  0  0  0
  1 26  1  0  0  0  0
  1 27  1  0  0  0  0
  2  3  1  0  0  0  0
  2 19  1  0  0  0  0
  2 28  1  0  0  0  0
  3  4  1  0  0  0  0
  3 29  1  0  0  0  0
  3 30  1  0  0  0  0
  4  5  1  0  0  0  0
  4 31  1  0  0  0  0
  5  6  2  0  0  0  0
  5  7  1  0  0  0  0
  7  8  1  0  0  0  0
  7 32  1  0  0  0  0
  8 13  1  0  0  0  0
  8  9  2  0  0  0  0
  9 10  1  0  0  0  0
  9 33  1  0  0  0  0
 10 11  2  0  0  0  0
 10 34  1  0  0  0  0
 11 12  1  0  0  0  0
 11 35  1  0  0  0  0
 12 13  2  0  0  0  0
 12 52  1  0  0  0  0
 13 14  1  0  0  0  0
 14 18  1  0  0  0  0
 14 15  1  0  0  0  0
 15 16  1  0  0  0  0
 15 36  1  0  0  0  0
 15 37  1  0  0  0  0
 16 17  1  0  0  0  0
 16 38  1  0  0  0  0
 16 39  1  0  0  0  0
 17 18  1  0  0  0  0
 17 40  1  0  0  0  0
 17 41  1  0  0  0  0
 18 42  1  0  0  0  0
 18 43  1  0  0  0  0
 19 24  1  0  0  0  0
 19 20  1  0  0  0  0
 20 21  1  0  0  0  0
 20 44  1  0  0  0  0
 20 45  1  0  0  0  0
 21 22  1  0  0  0  0
 21 46  1  0  0  0  0
 21 47  1  0  0  0  0
 22 23  1  0  0  0  0
 23 24  1  0  0  0  0
 23 48  1  0  0  0  0
 23 49  1  0  0  0  0
 24 50  1  0  0  0  0
 24 51  1  0  0  0  0
M  CHG  1  12   1
M  END
> <s_m_source_file>
AV-unprocessed.smi

> <i_m_source_file_index>
1389

> <i_lp_mmshare_version>
43012

> <i_f3d_flags>
0

> <s_epik_input>
W0NIMl0xW0NIMl1PW0NIMl1bQ0gyXU4xW0NASF0oW0NIM10pW0NIMl1bTkhdQyg9TylbTkhdYzJbY0hdW2NIXVtjSF1uYzJOM1tDSDJdW0NIMl1bQ0gyXVtDSDJdMw==

> <s_epik_cmdline>
J2VwaWtfcHl0aG9uJywgJy1waCcsICc3LjAnLCAnLXRuJywgJzgnLCAnLW1hJywgJzIwMCcsICctbWV0YWxfYmluZGluZycsICctaW1hZScsICc8aW5maWxlLm1hZT4nLCAnLW9tYWUnLCAnPG91dGZpbGUubWFlPic=

> <r_epik_Ionization_Penalty>
1.37675

> <r_epik_Ionization_Penalty_Charging>
1.11074

> <r_epik_Ionization_Penalty_Neutral>
0.26601

> <r_epik_State_Penalty>
1.46015

> <r_epik_Charging_Adjusted_Penalty>
2.57089

> <i_epik_Tot_Q>
1

> <i_epik_Tot_abs_Q>
1

> <r_epik_Metal_State_Penalty>
1.54223

> <b_epik_Metal_Only>
0

> <s_lp_Force_Field>
OPLS_2005

> <r_lp_Energy>
63.8734

> <b_lp_Chiralities_Consistent>
1

> <s_lp_Variant>
AV-unprocessed.smi:1389-6

> <Gold.Version>
5.8.1

> <Gold.Id.Protein>
6NUR|6NUR_protein|mol2

> <Gold.PLP.Fitness>
48.4166

> <Gold.PLP.PLP>
-44.5000

> <Gold.PLP.part.hbond>
-1.3660

> <Gold.PLP.part.metal>
0.0000

> <Gold.PLP.part.buried>
-7.3193

> <Gold.PLP.part.nonpolar>
-35.8851

> <Gold.PLP.part.repulsive>
0.2578

> <Gold.PLP.ligand.clash>
0.0000

> <Gold.PLP.ligand.torsion>
1.1063

> <Gold.PLP.Chemscore.Hbond>
1.9840

> <Gold.PLP.Chemscore.CHOScore>
0.0000

> <Gold.PLP.Chemscore.Metal>
0.0000

> <Gold.Chemscore.Hbonds>
donor molecule, donor type, donor heavy atom, donor atom, acceptor molecule, acceptor atom, score
      L1  H    12    52       P1  8028  2.00

> <Gold.PLP.Chemscore.Internal.Correction>
0.1773

> <Gold.Rescore>
     Score         DG    S(hbond)    S(metal)    S(lipo)     H(rot)  DE(clash)    DE(int)     intcor
     15.85     -18.28       0.94        0.00     117.67       1.60       0.20       2.22       ----

> <Gold.Chemscore.Fitness>
15.8489

> <Gold.Chemscore.DG>
-18.2750

> <Gold.Chemscore.ZeroCoef>
-5.4800

> <Gold.Chemscore.Hbond>
0.9378

> <Gold.Chemscore.Metal>
0.0000

> <Gold.Chemscore.Lipo>
117.6735

> <Gold.Chemscore.Internal_Hbond>
0.0000

> <Gold.Chemscore.DEClash>
0.2031

> <Gold.Chemscore.DEInternal>
2.2230

> <Gold.Chemscore.Rot>
1.6035

> <Gold.Chemscore.Internal.Correction>
   9.000000E+99

> <Gold.Chemscore.Hbonds>
donor molecule, donor type, donor heavy atom, donor atom, acceptor molecule, acceptor atom, score
      L1  H    12    52       P1  8028  0.93

> <Gold.Chemscore.Hbond.Weighted>
-3.1321

> <Gold.Chemscore.Metal.Weighted>
-0.0000

> <Gold.Chemscore.Lipo.Weighted>
-13.7678

> <Gold.Chemscore.Internal_Hbond.Weighted>
0.0000

> <Gold.Chemscore.DEClash.Weighted>
0.2031

> <Gold.Chemscore.DEInternal.Weighted>
2.2230

> <Gold.Chemscore.Rot.Weighted>
4.1049

> <Gold.Chemscore.Internal.Correction.Weighted>
   9.000000E+99

> <Gold.Protein.RotatedTorsions>
[ 6907 6896 6895 6894 ] final -102.89 input  -60.11 | X-H torsion
[ 7974 7965 7964 7962 ] final  147.19 input  175.53 | X-H torsion
[ 8008 7997 7996 7995 ] final   -1.18 input   59.86 | X-H torsion
[ 10167 10162 10161 10158 ] final  179.18 input  -65.29 | X-H torsion
[ 10718 10713 10712 10709 ] final  -78.31 input   66.30 | X-H torsion
[ 10763 10752 10751 10750 ] final   -5.01 input  -60.55 | X-H torsion
[ 11005 11000 10999 10996 ] final   41.40 input  -57.11 | X-H torsion

> <Gold.Protein.ActiveResidues>
 VAL166  LYS551  ARG553  GLY616  TRP617  ASP618  TYR619  PRO620  LYS621  CYS622 
 ASP623  PHE694  ASN695  SER759  ASP760  ASP761  ALA762  ILE779  LEU786  VAL792 
 PHE793  MET794  SER795  GLU796  ALA797  LYS798  CYS799  TRP800  GLU811  SER814 

> <Gold.Protein.RotatedAtoms>
  150.7216  134.0512  159.3798 H   0  0  0  0  0  0  0  0  0  0  0  0  # atno 6907 bound_to 6896
  151.8489  135.0562  160.0466 H   0  0  0  0  0  0  0  0  0  0  0  0  # atno 6908 bound_to 6896
  152.2805  133.5430  159.5531 H   0  0  0  0  0  0  0  0  0  0  0  0  # atno 6909 bound_to 6896
  144.8611  139.5998  143.5930 H   0  0  0  0  0  0  0  0  0  0  0  0  # atno 7974 bound_to 7965
  154.6496  140.2565  155.7229 H   0  0  0  0  0  0  0  0  0  0  0  0  # atno 8008 bound_to 7997
  156.2569  140.2870  156.0845 H   0  0  0  0  0  0  0  0  0  0  0  0  # atno 8009 bound_to 7997
  155.1471  140.0381  157.2802 H   0  0  0  0  0  0  0  0  0  0  0  0  # atno 8010 bound_to 7997
  139.5325  144.2592  152.0721 H   0  0  0  0  0  0  0  0  0  0  0  0  # atno 10167 bound_to 10162
  156.0121  130.4515  150.3478 H   0  0  0  0  0  0  0  0  0  0  0  0  # atno 10718 bound_to 10713
  153.3927  135.7002  153.6483 H   0  0  0  0  0  0  0  0  0  0  0  0  # atno 10763 bound_to 10752
  153.5049  135.3644  155.2559 H   0  0  0  0  0  0  0  0  0  0  0  0  # atno 10764 bound_to 10752
  154.8704  135.4121  154.3247 H   0  0  0  0  0  0  0  0  0  0  0  0  # atno 10765 bound_to 10752
  140.1838  134.4071  155.8185 H   0  0  0  0  0  0  0  0  0  0  0  0  # atno 11005 bound_to 11000
  146.2861  139.7008  142.9194 LP  0  0  0  0  0  0  0  0  0  0  0  0  # atno 17320 bound_to 7965
  145.4310  141.0415  143.2910 LP  0  0  0  0  0  0  0  0  0  0  0  0  # atno 17321 bound_to 7965
  140.2058  144.4612  150.6409 LP  0  0  0  0  0  0  0  0  0  0  0  0  # atno 17342 bound_to 10162
  140.6512  143.2225  151.6073 LP  0  0  0  0  0  0  0  0  0  0  0  0  # atno 17343 bound_to 10162
  157.1571  131.0335  151.2858 LP  0  0  0  0  0  0  0  0  0  0  0  0  # atno 17370 bound_to 10713
  157.4343  130.7508  149.7016 LP  0  0  0  0  0  0  0  0  0  0  0  0  # atno 17371 bound_to 10713
  141.2224  133.7013  156.7976 LP  0  0  0  0  0  0  0  0  0  0  0  0  # atno 17394 bound_to 11000
  140.2237  134.8738  157.3404 LP  0  0  0  0  0  0  0  0  0  0  0  0  # atno 17395 bound_to 11000

$$$$
