AV-unprocessed.smi:1973|AV-procd|sdf|7979|dock5
  -GOLD-   2272010153D 1   1.00000     0.00000
 Structure written by MMmdl.
 48 50  0  0  0  0  0  0  0  0  2 V2000
  151.8973  143.9078  158.0976 C   0  0  0  0  0  0  0  0  0  0  0  0
  151.0767  142.8513  158.5647 O   0  0  0  0  0  0  0  0  0  0  0  0
  151.2701  141.6512  157.8358 C   0  0  0  0  0  0  0  0  0  0  0  0
  150.8386  141.8776  156.3788 C   0  0  0  0  0  0  0  0  0  0  0  0
  150.5586  140.6101  155.6965 N   0  0  0  0  0  0  0  0  0  0  0  0
  149.2940  140.5365  155.1355 N   0  0  0  0  0  0  0  0  0  0  0  0
  148.9231  139.4677  154.5072 C   0  0  0  0  0  0  0  0  0  0  0  0
  147.5728  139.3476  153.8895 C   0  0  0  0  0  0  0  0  0  0  0  0
  146.6360  140.0735  154.2265 O   0  0  0  0  0  0  0  0  0  0  0  0
  147.4516  138.3963  152.9460 N   0  0  0  0  0  0  0  0  0  0  0  0
  146.2327  138.1052  152.1982 C   0  0  0  0  0  0  0  0  0  0  0  0
  145.7517  136.6577  152.4131 C   0  0  1  0  0  0  0  0  0  0  0  0
  144.3345  136.5492  152.9682 C   0  0  0  0  0  0  0  0  0  0  0  0
  143.9549  135.1120  152.6236 C   0  0  0  0  0  0  0  0  0  0  0  0
  144.5787  134.8465  151.3096 N   0  3  2  0  0  0  0  0  0  0  0  0
  144.9531  133.4321  151.0987 C   0  0  0  0  0  0  0  0  0  0  0  0
  144.2560  132.7932  149.9213 C   0  0  0  0  0  0  0  0  0  0  0  0
  143.8167  132.4658  151.3322 C   0  0  0  0  0  0  0  0  0  0  0  0
  145.6979  135.8023  151.1379 C   0  0  0  0  0  0  0  0  0  0  0  0
  149.8195  138.3311  154.3786 C   0  0  0  0  0  0  0  0  0  0  0  0
  151.0467  138.4151  154.9375 C   0  0  0  0  0  0  0  0  0  0  0  0
  151.4898  139.6098  155.6573 C   0  0  0  0  0  0  0  0  0  0  0  0
  152.5980  139.7058  156.1836 O   0  0  0  0  0  0  0  0  0  0  0  0
  151.7175  144.8029  158.6931 H   0  0  0  0  0  0  0  0  0  0  0  0
  151.6767  144.1472  157.0565 H   0  0  0  0  0  0  0  0  0  0  0  0
  152.9547  143.6540  158.1820 H   0  0  0  0  0  0  0  0  0  0  0  0
  152.3195  141.3552  157.8792 H   0  0  0  0  0  0  0  0  0  0  0  0
  150.6818  140.8472  158.2811 H   0  0  0  0  0  0  0  0  0  0  0  0
  149.9528  142.5151  156.3580 H   0  0  0  0  0  0  0  0  0  0  0  0
  151.6091  142.4356  155.8438 H   0  0  0  0  0  0  0  0  0  0  0  0
  148.2695  137.8475  152.7223 H   0  0  0  0  0  0  0  0  0  0  0  0
  145.4485  138.8097  152.4798 H   0  0  0  0  0  0  0  0  0  0  0  0
  146.4362  138.2794  151.1412 H   0  0  0  0  0  0  0  0  0  0  0  0
  146.4173  136.1623  153.1225 H   0  0  0  0  0  0  0  0  0  0  0  0
  144.2805  136.7548  154.0376 H   0  0  0  0  0  0  0  0  0  0  0  0
  143.6688  137.2442  152.4544 H   0  0  0  0  0  0  0  0  0  0  0  0
  144.3706  134.4380  153.3748 H   0  0  0  0  0  0  0  0  0  0  0  0
  142.8761  134.9572  152.5939 H   0  0  0  0  0  0  0  0  0  0  0  0
  145.9759  133.1572  151.3509 H   0  0  0  0  0  0  0  0  0  0  0  0
  143.5927  133.4106  149.3179 H   0  0  0  0  0  0  0  0  0  0  0  0
  144.7951  132.0211  149.3762 H   0  0  0  0  0  0  0  0  0  0  0  0
  144.0679  131.4788  151.7155 H   0  0  0  0  0  0  0  0  0  0  0  0
  142.8607  132.8650  151.6664 H   0  0  0  0  0  0  0  0  0  0  0  0
  145.4805  136.4166  150.2634 H   0  0  0  0  0  0  0  0  0  0  0  0
  146.6513  135.3028  150.9574 H   0  0  0  0  0  0  0  0  0  0  0  0
  149.5191  137.4359  153.8535 H   0  0  0  0  0  0  0  0  0  0  0  0
  151.7225  137.5770  154.8518 H   0  0  0  0  0  0  0  0  0  0  0  0
  143.8925  135.0857  150.6080 H   0  0  0  0  0  0  0  0  0  0  0  0
  1  2  1  0  0  0  0
  1 24  1  0  0  0  0
  1 25  1  0  0  0  0
  1 26  1  0  0  0  0
  2  3  1  0  0  0  0
  3  4  1  0  0  0  0
  3 27  1  0  0  0  0
  3 28  1  0  0  0  0
  4  5  1  0  0  0  0
  4 29  1  0  0  0  0
  4 30  1  0  0  0  0
  5 22  1  0  0  0  0
  5  6  1  0  0  0  0
  6  7  2  0  0  0  0
  7  8  1  0  0  0  0
  7 20  1  0  0  0  0
  8  9  2  0  0  0  0
  8 10  1  0  0  0  0
 10 11  1  0  0  0  0
 10 31  1  0  0  0  0
 11 12  1  0  0  0  0
 11 32  1  0  0  0  0
 11 33  1  0  0  0  0
 12 19  1  0  0  0  0
 12 13  1  0  0  0  0
 12 34  1  0  0  0  0
 13 14  1  0  0  0  0
 13 35  1  0  0  0  0
 13 36  1  0  0  0  0
 14 15  1  0  0  0  0
 14 37  1  0  0  0  0
 14 38  1  0  0  0  0
 15 16  1  0  0  0  0
 15 19  1  0  0  0  0
 15 48  1  0  0  0  0
 16 18  1  0  0  0  0
 16 17  1  0  0  0  0
 16 39  1  0  0  0  0
 17 18  1  0  0  0  0
 17 40  1  0  0  0  0
 17 41  1  0  0  0  0
 18 42  1  0  0  0  0
 18 43  1  0  0  0  0
 19 44  1  0  0  0  0
 19 45  1  0  0  0  0
 20 21  2  0  0  0  0
 20 46  1  0  0  0  0
 21 22  1  0  0  0  0
 21 47  1  0  0  0  0
 22 23  2  0  0  0  0
M  CHG  1  15   1
M  END
> <s_m_source_file>
AV-unprocessed.smi

> <i_m_source_file_index>
1973

> <i_lp_mmshare_version>
43012

> <i_f3d_flags>
0

> <s_epik_input>
W0NIM11PW0NIMl1bQ0gyXW4xbmMoW2NIXVtjSF1jMT1PKUMoPU8pW05IXVtDSDJdW0NAQEhdMltDSDJdW0NIMl1OKFtDSDJdMilbQ0hdM1tDSDJdW0NIMl0z

> <s_epik_cmdline>
J2VwaWtfcHl0aG9uJywgJy1waCcsICc3LjAnLCAnLXRuJywgJzgnLCAnLW1hJywgJzIwMCcsICctbWV0YWxfYmluZGluZycsICctaW1hZScsICc8aW5maWxlLm1hZT4nLCAnLW9tYWUnLCAnPG91dGZpbGUubWFlPic=

> <r_lp_tautomer_probability>
1

> <r_epik_Ionization_Penalty>
0.000225706

> <r_epik_Ionization_Penalty_Charging>
0.000223776

> <r_epik_Ionization_Penalty_Neutral>
1.93004e-06

> <r_epik_State_Penalty>
-0

> <r_epik_Charging_Adjusted_Penalty>
0.000223776

> <i_epik_Tot_Q>
1

> <i_epik_Tot_abs_Q>
1

> <r_epik_Metal_State_Penalty>
-0

> <b_epik_Metal_Only>
0

> <s_lp_Force_Field>
OPLS_2005

> <r_lp_Energy>
57.1885

> <b_lp_Chiralities_Consistent>
1

> <s_lp_Variant>
AV-unprocessed.smi:1973-4

> <Gold.Version>
5.8.1

> <Gold.Id.Protein>
6NUR|6NUR_protein|mol2

> <Gold.PLP.Fitness>
51.2120

> <Gold.PLP.PLP>
-47.3485

> <Gold.PLP.part.hbond>
-2.9915

> <Gold.PLP.part.metal>
0.0000

> <Gold.PLP.part.buried>
-4.9917

> <Gold.PLP.part.nonpolar>
-41.5944

> <Gold.PLP.part.repulsive>
0.4018

> <Gold.PLP.ligand.clash>
0.0000

> <Gold.PLP.ligand.torsion>
1.7983

> <Gold.PLP.Chemscore.Hbond>
2.0000

> <Gold.PLP.Chemscore.CHOScore>
0.0000

> <Gold.PLP.Chemscore.Metal>
0.0000

> <Gold.Chemscore.Hbonds>
donor molecule, donor type, donor heavy atom, donor atom, acceptor molecule, acceptor atom, score
      L1  H    10    31       P1  7948  0.93
      P1  H  7997  8008       L1    23  1.00

> <Gold.PLP.Chemscore.Internal.Correction>
1.4602

> <Gold.Rescore>
     Score         DG    S(hbond)    S(metal)    S(lipo)     H(rot)  DE(clash)    DE(int)     intcor
     17.10     -19.04       1.93        0.00     104.03       1.97       0.05       1.88       ----

> <Gold.Chemscore.Fitness>
17.0994

> <Gold.Chemscore.DG>
-19.0359

> <Gold.Chemscore.ZeroCoef>
-5.4800

> <Gold.Chemscore.Hbond>
1.9253

> <Gold.Chemscore.Metal>
0.0000

> <Gold.Chemscore.Lipo>
104.0301

> <Gold.Chemscore.Internal_Hbond>
0.0000

> <Gold.Chemscore.DEClash>
0.0526

> <Gold.Chemscore.DEInternal>
1.8839

> <Gold.Chemscore.Rot>
1.9711

> <Gold.Chemscore.Internal.Correction>
   9.000000E+99

> <Gold.Chemscore.Hbonds>
donor molecule, donor type, donor heavy atom, donor atom, acceptor molecule, acceptor atom, score
      L1  H    10    31       P1  7948  0.90
      P1  H  7997  8008       L1    23  1.00

> <Gold.Chemscore.Hbond.Weighted>
-6.4304

> <Gold.Chemscore.Metal.Weighted>
-0.0000

> <Gold.Chemscore.Lipo.Weighted>
-12.1715

> <Gold.Chemscore.Internal_Hbond.Weighted>
0.0000

> <Gold.Chemscore.DEClash.Weighted>
0.0526

> <Gold.Chemscore.DEInternal.Weighted>
1.8839

> <Gold.Chemscore.Rot.Weighted>
5.0460

> <Gold.Chemscore.Internal.Correction.Weighted>
   9.000000E+99

> <Gold.Protein.RotatedTorsions>
[ 6907 6896 6895 6894 ] final  161.16 input  -60.11 | X-H torsion
[ 7974 7965 7964 7962 ] final   53.87 input  175.53 | X-H torsion
[ 8008 7997 7996 7995 ] final  -30.81 input   59.86 | X-H torsion
[ 10167 10162 10161 10158 ] final   74.40 input  -65.29 | X-H torsion
[ 10718 10713 10712 10709 ] final  -21.64 input   66.30 | X-H torsion
[ 10763 10752 10751 10750 ] final -171.60 input  -60.55 | X-H torsion
[ 11005 11000 10999 10996 ] final   15.51 input  -57.11 | X-H torsion

> <Gold.Protein.ActiveResidues>
 VAL166  LYS551  ARG553  GLY616  TRP617  ASP618  TYR619  PRO620  LYS621  CYS622 
 ASP623  PHE694  ASN695  SER759  ASP760  ASP761  ALA762  ILE779  LEU786  VAL792 
 PHE793  MET794  SER795  GLU796  ALA797  LYS798  CYS799  TRP800  GLU811  SER814 

> <Gold.Protein.RotatedAtoms>
  151.9598  133.3691  159.4030 H   0  0  0  0  0  0  0  0  0  0  0  0  # atno 6907 bound_to 6896
  150.6966  134.4253  159.5233 H   0  0  0  0  0  0  0  0  0  0  0  0  # atno 6908 bound_to 6896
  152.1939  134.8647  160.0565 H   0  0  0  0  0  0  0  0  0  0  0  0  # atno 6909 bound_to 6896
  145.9667  139.4110  143.0215 H   0  0  0  0  0  0  0  0  0  0  0  0  # atno 7974 bound_to 7965
  154.4236  140.1781  156.1466 H   0  0  0  0  0  0  0  0  0  0  0  0  # atno 8008 bound_to 7997
  155.9948  140.3365  155.6763 H   0  0  0  0  0  0  0  0  0  0  0  0  # atno 8009 bound_to 7997
  155.6323  140.0671  157.2636 H   0  0  0  0  0  0  0  0  0  0  0  0  # atno 8010 bound_to 7997
  140.0141  144.5591  150.7634 H   0  0  0  0  0  0  0  0  0  0  0  0  # atno 10167 bound_to 10162
  156.5154  130.4620  149.6625 H   0  0  0  0  0  0  0  0  0  0  0  0  # atno 10718 bound_to 10713
  154.6286  135.2884  155.0242 H   0  0  0  0  0  0  0  0  0  0  0  0  # atno 10763 bound_to 10752
  154.1411  135.6518  153.4946 H   0  0  0  0  0  0  0  0  0  0  0  0  # atno 10764 bound_to 10752
  153.0269  135.5333  154.7105 H   0  0  0  0  0  0  0  0  0  0  0  0  # atno 10765 bound_to 10752
  140.4575  134.1161  155.7711 H   0  0  0  0  0  0  0  0  0  0  0  0  # atno 11005 bound_to 11000
  145.7964  140.9791  143.1022 LP  0  0  0  0  0  0  0  0  0  0  0  0  # atno 17320 bound_to 7965
  144.6827  139.9746  143.7482 LP  0  0  0  0  0  0  0  0  0  0  0  0  # atno 17321 bound_to 7965
  140.7369  143.2759  151.3744 LP  0  0  0  0  0  0  0  0  0  0  0  0  # atno 17342 bound_to 10162
  139.6184  144.0956  152.2368 LP  0  0  0  0  0  0  0  0  0  0  0  0  # atno 17343 bound_to 10162
  156.3201  130.7275  151.2186 LP  0  0  0  0  0  0  0  0  0  0  0  0  # atno 17370 bound_to 10713
  157.7444  131.0458  150.4861 LP  0  0  0  0  0  0  0  0  0  0  0  0  # atno 17371 bound_to 10713
  141.1636  133.8745  157.1778 LP  0  0  0  0  0  0  0  0  0  0  0  0  # atno 17394 bound_to 11000
  139.9966  135.0044  157.0097 LP  0  0  0  0  0  0  0  0  0  0  0  0  # atno 17395 bound_to 11000

$$$$
