AV-unprocessed.smi:415|AV-procd|sdf|2519|dock1
  -GOLD-   2262022473D 1   1.00000     0.00000
 Structure written by MMmdl.
 53 54  0  0  0  0  0  0  0  0  1 V2000
  148.6138  145.0215  161.0052 C   0  0  0  0  0  0  0  0  0  0  0  0
  149.3205  144.4700  159.9080 O   0  0  0  0  0  0  0  0  0  0  0  0
  150.4734  145.2220  159.5702 C   0  0  0  0  0  0  0  0  0  0  0  0
  151.1126  144.6091  158.3155 C   0  0  0  0  0  0  0  0  0  0  0  0
  151.4906  143.2217  158.5017 N   0  0  0  0  0  0  0  0  0  0  0  0
  150.9915  142.1850  157.7184 C   0  0  0  0  0  0  0  0  0  0  0  0
  150.1070  142.4673  156.6930 N   0  0  0  0  0  0  0  0  0  0  0  0
  151.3636  140.9025  157.9271 C   0  0  0  0  0  0  0  0  0  0  0  0
  152.3063  140.5363  158.9744 C   0  0  0  0  0  0  0  0  0  0  0  0
  152.6379  139.3714  159.1970 O   0  0  0  0  0  0  0  0  0  0  0  0
  152.8249  141.6081  159.7371 N   0  0  0  0  0  0  0  0  0  0  0  0
  153.7789  141.2981  160.8256 C   0  0  0  0  0  0  0  0  0  0  0  0
  154.9618  140.4297  160.3700 C   0  0  0  0  0  0  0  0  0  0  0  0
  155.0484  140.0347  159.2065 O   0  0  0  0  0  0  0  0  0  0  0  0
  155.8638  140.1293  161.3167 N   0  0  0  0  0  0  0  0  0  0  0  0
  157.0590  139.3119  161.1199 C   0  0  1  0  0  0  0  0  0  0  0  0
  158.3191  140.1860  161.2700 C   0  0  0  0  0  0  0  0  0  0  0  0
  159.5971  139.3659  161.0393 C   0  0  0  0  0  0  0  0  0  0  0  0
  159.6523  138.1352  161.9579 C   0  0  0  0  0  0  0  0  0  0  0  0
  158.3880  137.2642  161.8102 C   0  0  1  0  0  0  0  0  0  0  0  0
  158.4802  135.9763  162.6454 C   0  0  0  0  0  0  0  0  0  0  0  0
  157.0953  138.0834  162.0705 C   0  0  1  0  0  0  0  0  0  0  0  0
  156.8904  138.4591  163.5568 C   0  0  0  0  0  0  0  0  0  0  0  0
  152.4427  142.9517  159.5182 C   0  0  0  0  0  0  0  0  0  0  0  0
  152.9283  143.8571  160.2021 O   0  0  0  0  0  0  0  0  0  0  0  0
  147.7390  144.4086  161.2224 H   0  0  0  0  0  0  0  0  0  0  0  0
  148.2689  146.0326  160.7852 H   0  0  0  0  0  0  0  0  0  0  0  0
  149.2354  145.0504  161.9009 H   0  0  0  0  0  0  0  0  0  0  0  0
  150.1966  146.2603  159.3809 H   0  0  0  0  0  0  0  0  0  0  0  0
  151.1811  145.2146  160.4008 H   0  0  0  0  0  0  0  0  0  0  0  0
  150.4584  144.6741  157.4444 H   0  0  0  0  0  0  0  0  0  0  0  0
  152.0153  145.1480  158.0290 H   0  0  0  0  0  0  0  0  0  0  0  0
  149.8076  143.4104  156.4910 H   0  0  0  0  0  0  0  0  0  0  0  0
  149.7497  141.7451  156.0840 H   0  0  0  0  0  0  0  0  0  0  0  0
  150.9555  140.1193  157.3043 H   0  0  0  0  0  0  0  0  0  0  0  0
  154.1651  142.2170  161.2701 H   0  0  0  0  0  0  0  0  0  0  0  0
  153.2870  140.7920  161.6573 H   0  0  0  0  0  0  0  0  0  0  0  0
  155.7116  140.4923  162.2463 H   0  0  0  0  0  0  0  0  0  0  0  0
  157.0469  138.9450  160.0913 H   0  0  0  0  0  0  0  0  0  0  0  0
  158.2862  141.0110  160.5573 H   0  0  0  0  0  0  0  0  0  0  0  0
  158.3492  140.6404  162.2609 H   0  0  0  0  0  0  0  0  0  0  0  0
  159.6376  139.0434  159.9982 H   0  0  0  0  0  0  0  0  0  0  0  0
  160.4752  139.9913  161.2020 H   0  0  0  0  0  0  0  0  0  0  0  0
  160.5384  137.5468  161.7170 H   0  0  0  0  0  0  0  0  0  0  0  0
  159.7726  138.4540  162.9938 H   0  0  0  0  0  0  0  0  0  0  0  0
  158.3478  136.9419  160.7684 H   0  0  0  0  0  0  0  0  0  0  0  0
  158.6210  136.1874  163.7054 H   0  0  0  0  0  0  0  0  0  0  0  0
  159.3237  135.3652  162.3236 H   0  0  0  0  0  0  0  0  0  0  0  0
  157.5784  135.3728  162.5384 H   0  0  0  0  0  0  0  0  0  0  0  0
  156.2543  137.4432  161.8000 H   0  0  0  0  0  0  0  0  0  0  0  0
  157.6945  139.0891  163.9352 H   0  0  0  0  0  0  0  0  0  0  0  0
  156.8395  137.5745  164.1903 H   0  0  0  0  0  0  0  0  0  0  0  0
  155.9545  138.9965  163.7086 H   0  0  0  0  0  0  0  0  0  0  0  0
  1  2  1  0  0  0  0
  1 26  1  0  0  0  0
  1 27  1  0  0  0  0
  1 28  1  0  0  0  0
  2  3  1  0  0  0  0
  3  4  1  0  0  0  0
  3 29  1  0  0  0  0
  3 30  1  0  0  0  0
  4  5  1  0  0  0  0
  4 31  1  0  0  0  0
  4 32  1  0  0  0  0
  5 24  1  0  0  0  0
  5  6  1  0  0  0  0
  6  7  1  0  0  0  0
  6  8  2  0  0  0  0
  7 33  1  0  0  0  0
  7 34  1  0  0  0  0
  8  9  1  0  0  0  0
  8 35  1  0  0  0  0
  9 10  2  0  0  0  0
  9 11  1  0  0  0  0
 11 12  1  0  0  0  0
 11 24  1  0  0  0  0
 12 13  1  0  0  0  0
 12 36  1  0  0  0  0
 12 37  1  0  0  0  0
 13 14  2  0  0  0  0
 13 15  1  0  0  0  0
 15 16  1  0  0  0  0
 15 38  1  0  0  0  0
 16 22  1  0  0  0  0
 16 17  1  0  0  0  0
 16 39  1  0  0  0  0
 17 18  1  0  0  0  0
 17 40  1  0  0  0  0
 17 41  1  0  0  0  0
 18 19  1  0  0  0  0
 18 42  1  0  0  0  0
 18 43  1  0  0  0  0
 19 20  1  0  0  0  0
 19 44  1  0  0  0  0
 19 45  1  0  0  0  0
 20 21  1  0  0  0  0
 20 22  1  0  0  0  0
 20 46  1  0  0  0  0
 21 47  1  0  0  0  0
 21 48  1  0  0  0  0
 21 49  1  0  0  0  0
 22 23  1  0  0  0  0
 22 50  1  0  0  0  0
 23 51  1  0  0  0  0
 23 52  1  0  0  0  0
 23 53  1  0  0  0  0
 24 25  2  0  0  0  0
M  END
> <s_m_source_file>
AV-unprocessed.smi

> <i_m_source_file_index>
415

> <i_lp_mmshare_version>
43012

> <i_f3d_flags>
0

> <s_epik_input>
W0NIM11PW0NIMl1bQ0gyXW4xYyhbTkgyXSlbY0hdYyg9TyluKGMxPU8pW0NIMl1DKD1PKVtOSF1bQ0BASF0yW0NIMl1bQ0gyXVtDSDJdW0NAQEhdKFtDSDNdKVtDQEhdMltDSDNd

> <s_epik_cmdline>
J2VwaWtfcHl0aG9uJywgJy1waCcsICc3LjAnLCAnLXRuJywgJzgnLCAnLW1hJywgJzIwMCcsICctbWV0YWxfYmluZGluZycsICctaW1hZScsICc8aW5maWxlLm1hZT4nLCAnLW9tYWUnLCAnPG91dGZpbGUubWFlPic=

> <r_lp_tautomer_probability>
1

> <r_epik_Ionization_Penalty>
8.6647e-06

> <r_epik_Ionization_Penalty_Charging>
1.81162e-08

> <r_epik_Ionization_Penalty_Neutral>
8.64658e-06

> <r_epik_State_Penalty>
-0

> <r_epik_Charging_Adjusted_Penalty>
1.81162e-08

> <i_epik_Tot_Q>
0

> <i_epik_Tot_abs_Q>
0

> <r_epik_Metal_State_Penalty>
-0

> <b_epik_Metal_Only>
0

> <s_lp_Force_Field>
OPLS_2005

> <r_lp_Energy>
22.062

> <b_lp_Chiralities_Consistent>
1

> <s_lp_Variant>
AV-unprocessed.smi:415-2

> <Gold.Version>
5.8.1

> <Gold.Id.Protein>
6NUR|6NUR_protein|mol2

> <Gold.PLP.Fitness>
42.7397

> <Gold.PLP.PLP>
-36.8669

> <Gold.PLP.part.hbond>
-2.6156

> <Gold.PLP.part.metal>
0.0000

> <Gold.PLP.part.buried>
-4.6540

> <Gold.PLP.part.nonpolar>
-29.6571

> <Gold.PLP.part.repulsive>
0.2494

> <Gold.PLP.ligand.clash>
0.0000

> <Gold.PLP.ligand.torsion>
0.1045

> <Gold.PLP.Chemscore.Hbond>
2.0000

> <Gold.PLP.Chemscore.CHOScore>
0.0000

> <Gold.PLP.Chemscore.Metal>
0.0000

> <Gold.Chemscore.Hbonds>
donor molecule, donor type, donor heavy atom, donor atom, acceptor molecule, acceptor atom, score
      L1  H     7    33       P1  8028  1.00
      P1  H  7997  8009       L1    14  1.00

> <Gold.PLP.Chemscore.Internal.Correction>
0.0819

> <Gold.Rescore>
     Score         DG    S(hbond)    S(metal)    S(lipo)     H(rot)  DE(clash)    DE(int)     intcor
      6.79     -12.73       1.94        0.00      56.03       2.26       0.16       5.78       ----

> <Gold.Chemscore.Fitness>
6.7889

> <Gold.Chemscore.DG>
-12.7270

> <Gold.Chemscore.ZeroCoef>
-5.4800

> <Gold.Chemscore.Hbond>
1.9429

> <Gold.Chemscore.Metal>
0.0000

> <Gold.Chemscore.Lipo>
56.0252

> <Gold.Chemscore.Internal_Hbond>
0.0000

> <Gold.Chemscore.DEClash>
0.1579

> <Gold.Chemscore.DEInternal>
5.7802

> <Gold.Chemscore.Rot>
2.2645

> <Gold.Chemscore.Internal.Correction>
   9.000000E+99

> <Gold.Chemscore.Hbonds>
donor molecule, donor type, donor heavy atom, donor atom, acceptor molecule, acceptor atom, score
      L1  H     7    33       P1  8028  0.99
      P1  H  7997  8009       L1    14  0.95

> <Gold.Chemscore.Hbond.Weighted>
-6.4892

> <Gold.Chemscore.Metal.Weighted>
-0.0000

> <Gold.Chemscore.Lipo.Weighted>
-6.5549

> <Gold.Chemscore.Internal_Hbond.Weighted>
0.0000

> <Gold.Chemscore.DEClash.Weighted>
0.1579

> <Gold.Chemscore.DEInternal.Weighted>
5.7802

> <Gold.Chemscore.Rot.Weighted>
5.7972

> <Gold.Chemscore.Internal.Correction.Weighted>
   9.000000E+99

> <Gold.Protein.RotatedTorsions>
[ 6907 6896 6895 6894 ] final   32.31 input  -60.11 | X-H torsion
[ 7974 7965 7964 7962 ] final    2.72 input  175.53 | X-H torsion
[ 8008 7997 7996 7995 ] final  108.05 input   59.86 | X-H torsion
[ 10167 10162 10161 10158 ] final -144.37 input  -65.29 | X-H torsion
[ 10718 10713 10712 10709 ] final  -35.45 input   66.30 | X-H torsion
[ 10763 10752 10751 10750 ] final   33.92 input  -60.55 | X-H torsion
[ 11005 11000 10999 10996 ] final  170.41 input  -57.11 | X-H torsion

> <Gold.Protein.ActiveResidues>
 VAL166  LYS551  ARG553  GLY616  TRP617  ASP618  TYR619  PRO620  LYS621  CYS622 
 ASP623  PHE694  ASN695  SER759  ASP760  ASP761  ALA762  ILE779  LEU786  VAL792 
 PHE793  MET794  SER795  GLU796  ALA797  LYS798  CYS799  TRP800  GLU811  SER814 

> <Gold.Protein.RotatedAtoms>
  152.0726  134.9523  160.0574 H   0  0  0  0  0  0  0  0  0  0  0  0  # atno 6907 bound_to 6896
  152.0843  133.4164  159.4523 H   0  0  0  0  0  0  0  0  0  0  0  0  # atno 6908 bound_to 6896
  150.6836  134.2865  159.4692 H   0  0  0  0  0  0  0  0  0  0  0  0  # atno 6909 bound_to 6896
  146.2444  140.0793  142.8358 H   0  0  0  0  0  0  0  0  0  0  0  0  # atno 7974 bound_to 7965
  156.1872  140.3083  155.9262 H   0  0  0  0  0  0  0  0  0  0  0  0  # atno 8008 bound_to 7997
  155.3254  140.0458  157.3058 H   0  0  0  0  0  0  0  0  0  0  0  0  # atno 8009 bound_to 7997
  154.5410  140.2261  155.8651 H   0  0  0  0  0  0  0  0  0  0  0  0  # atno 8010 bound_to 7997
  139.7905  143.7972  152.2649 H   0  0  0  0  0  0  0  0  0  0  0  0  # atno 10167 bound_to 10162
  156.3385  130.4290  149.7808 H   0  0  0  0  0  0  0  0  0  0  0  0  # atno 10718 bound_to 10713
  153.0188  135.6374  154.1587 H   0  0  0  0  0  0  0  0  0  0  0  0  # atno 10763 bound_to 10752
  154.1324  135.2839  155.3183 H   0  0  0  0  0  0  0  0  0  0  0  0  # atno 10764 bound_to 10752
  154.6185  135.5533  153.7611 H   0  0  0  0  0  0  0  0  0  0  0  0  # atno 10765 bound_to 10752
  140.3080  134.7540  157.3969 H   0  0  0  0  0  0  0  0  0  0  0  0  # atno 11005 bound_to 11000
  145.0747  140.9180  143.4861 LP  0  0  0  0  0  0  0  0  0  0  0  0  # atno 17320 bound_to 7965
  145.0934  139.2874  143.5723 LP  0  0  0  0  0  0  0  0  0  0  0  0  # atno 17321 bound_to 7965
  139.8062  144.7354  150.9758 LP  0  0  0  0  0  0  0  0  0  0  0  0  # atno 17342 bound_to 10162
  140.7820  143.4295  151.0716 LP  0  0  0  0  0  0  0  0  0  0  0  0  # atno 17343 bound_to 10162
  156.5054  130.8147  151.3148 LP  0  0  0  0  0  0  0  0  0  0  0  0  # atno 17370 bound_to 10713
  157.7443  130.9931  150.2660 LP  0  0  0  0  0  0  0  0  0  0  0  0  # atno 17371 bound_to 10713
  140.1050  134.5422  155.8318 LP  0  0  0  0  0  0  0  0  0  0  0  0  # atno 17394 bound_to 11000
  141.2114  133.6706  156.6581 LP  0  0  0  0  0  0  0  0  0  0  0  0  # atno 17395 bound_to 11000

$$$$
