AV-unprocessed.smi:1148|AV-procd|sdf|4889|dock5
  -GOLD-   22720 3463D 1   1.00000     0.00000
 Structure written by MMmdl.
 45 47  0  0  0  0  0  0  0  0  1 V2000
  146.5631  132.4403  152.4817 C   0  0  0  0  0  0  0  0  0  0  0  0
  147.6096  133.1563  153.1285 O   0  0  0  0  0  0  0  0  0  0  0  0
  148.0914  132.6770  154.3319 C   0  0  0  0  0  0  0  0  0  0  0  0
  147.6270  131.4846  154.7836 N   0  0  0  0  0  0  0  0  0  0  0  0
  148.0978  131.0139  155.9566 C   0  0  0  0  0  0  0  0  0  0  0  0
  149.0536  131.6951  156.7323 C   0  0  0  0  0  0  0  0  0  0  0  0
  149.5364  132.9321  156.2664 C   0  0  0  0  0  0  0  0  0  0  0  0
  149.0398  133.4473  155.0446 C   0  0  0  0  0  0  0  0  0  0  0  0
  149.4731  134.6770  154.4774 N   0  0  0  0  0  0  0  0  0  0  0  0
  150.2532  135.6214  155.0296 C   0  0  0  0  0  0  0  0  0  0  0  0
  150.7499  135.5663  156.1546 O   0  0  0  0  0  0  0  0  0  0  0  0
  150.4127  136.6620  154.1995 N   0  0  0  0  0  0  0  0  0  0  0  0
  151.1696  137.8735  154.5001 C   0  0  0  0  0  0  0  0  0  0  0  0
  152.4771  137.4978  155.2302 C   0  0  0  0  0  0  0  0  0  0  0  0
  153.2142  138.7546  155.7230 C   0  0  0  0  0  0  0  0  0  0  0  0
  152.3100  139.5187  156.5931 N   0  0  0  0  0  0  0  0  0  0  0  0
  152.4273  139.6582  157.9372 C   0  0  0  0  0  0  0  0  0  0  0  0
  153.3190  139.1014  158.5796 O   0  0  0  0  0  0  0  0  0  0  0  0
  151.4365  140.5527  158.6189 C   0  0  0  0  0  0  0  0  0  0  0  0
  151.3385  141.9990  158.1674 C   0  0  0  0  0  0  0  0  0  0  0  0
  151.9966  141.6648  159.4804 C   0  0  0  0  0  0  0  0  0  0  0  0
  151.1650  140.0438  155.8387 C   0  0  0  0  0  0  0  0  0  0  0  0
  150.3193  138.8594  155.3349 C   0  0  0  0  0  0  0  0  0  0  0  0
  146.2988  132.9483  151.5543 H   0  0  0  0  0  0  0  0  0  0  0  0
  145.6665  132.3982  153.1019 H   0  0  0  0  0  0  0  0  0  0  0  0
  146.8708  131.4254  152.2262 H   0  0  0  0  0  0  0  0  0  0  0  0
  147.7057  130.0622  156.2835 H   0  0  0  0  0  0  0  0  0  0  0  0
  149.4114  131.2763  157.6611 H   0  0  0  0  0  0  0  0  0  0  0  0
  150.2843  133.4520  156.8449 H   0  0  0  0  0  0  0  0  0  0  0  0
  149.0706  134.9025  153.5793 H   0  0  0  0  0  0  0  0  0  0  0  0
  149.9666  136.6195  153.2951 H   0  0  0  0  0  0  0  0  0  0  0  0
  151.4453  138.3646  153.5647 H   0  0  0  0  0  0  0  0  0  0  0  0
  152.2564  136.8547  156.0838 H   0  0  0  0  0  0  0  0  0  0  0  0
  153.1244  136.9224  154.5675 H   0  0  0  0  0  0  0  0  0  0  0  0
  154.1567  138.4821  156.1964 H   0  0  0  0  0  0  0  0  0  0  0  0
  153.4966  139.3735  154.8703 H   0  0  0  0  0  0  0  0  0  0  0  0
  150.5003  140.0925  158.9302 H   0  0  0  0  0  0  0  0  0  0  0  0
  151.9858  142.3531  157.3669 H   0  0  0  0  0  0  0  0  0  0  0  0
  150.3523  142.4581  158.1942 H   0  0  0  0  0  0  0  0  0  0  0  0
  151.4588  141.8965  160.3975 H   0  0  0  0  0  0  0  0  0  0  0  0
  153.0783  141.7728  159.5401 H   0  0  0  0  0  0  0  0  0  0  0  0
  150.5407  140.7173  156.4271 H   0  0  0  0  0  0  0  0  0  0  0  0
  151.5241  140.6352  154.9951 H   0  0  0  0  0  0  0  0  0  0  0  0
  149.4802  139.2287  154.7441 H   0  0  0  0  0  0  0  0  0  0  0  0
  149.8879  138.3405  156.1924 H   0  0  0  0  0  0  0  0  0  0  0  0
  1  2  1  0  0  0  0
  1 24  1  0  0  0  0
  1 25  1  0  0  0  0
  1 26  1  0  0  0  0
  2  3  1  0  0  0  0
  3  8  1  0  0  0  0
  3  4  2  0  0  0  0
  4  5  1  0  0  0  0
  5  6  2  0  0  0  0
  5 27  1  0  0  0  0
  6  7  1  0  0  0  0
  6 28  1  0  0  0  0
  7  8  2  0  0  0  0
  7 29  1  0  0  0  0
  8  9  1  0  0  0  0
  9 10  1  0  0  0  0
  9 30  1  0  0  0  0
 10 11  2  0  0  0  0
 10 12  1  0  0  0  0
 12 13  1  0  0  0  0
 12 31  1  0  0  0  0
 13 23  1  0  0  0  0
 13 14  1  0  0  0  0
 13 32  1  0  0  0  0
 14 15  1  0  0  0  0
 14 33  1  0  0  0  0
 14 34  1  0  0  0  0
 15 16  1  0  0  0  0
 15 35  1  0  0  0  0
 15 36  1  0  0  0  0
 16 17  1  0  0  0  0
 16 22  1  0  0  0  0
 17 18  2  0  0  0  0
 17 19  1  0  0  0  0
 19 21  1  0  0  0  0
 19 20  1  0  0  0  0
 19 37  1  0  0  0  0
 20 21  1  0  0  0  0
 20 38  1  0  0  0  0
 20 39  1  0  0  0  0
 21 40  1  0  0  0  0
 21 41  1  0  0  0  0
 22 23  1  0  0  0  0
 22 42  1  0  0  0  0
 22 43  1  0  0  0  0
 23 44  1  0  0  0  0
 23 45  1  0  0  0  0
M  END
> <s_m_source_file>
AV-unprocessed.smi

> <i_m_source_file_index>
1148

> <i_lp_mmshare_version>
43012

> <i_f3d_flags>
0

> <s_epik_input>
W0NIM11PYzFuW2NIXVtjSF1bY0hdYzFbTkhdQyg9TylbTkhdW0NIXTJbQ0gyXVtDSDJdTihbQ0gyXVtDSDJdMilDKD1PKVtDSF0zW0NIMl1bQ0gyXTM=

> <s_epik_cmdline>
J2VwaWtfcHl0aG9uJywgJy1waCcsICc3LjAnLCAnLXRuJywgJzgnLCAnLW1hJywgJzIwMCcsICctbWV0YWxfYmluZGluZycsICctaW1hZScsICc8aW5maWxlLm1hZT4nLCAnLW9tYWUnLCAnPG91dGZpbGUubWFlPic=

> <r_lp_tautomer_probability>
1

> <r_epik_Ionization_Penalty>
9.48164e-05

> <r_epik_Ionization_Penalty_Charging>
0

> <r_epik_Ionization_Penalty_Neutral>
9.48164e-05

> <r_epik_State_Penalty>
-0

> <r_epik_Charging_Adjusted_Penalty>
0

> <i_epik_Tot_Q>
0

> <i_epik_Tot_abs_Q>
0

> <r_epik_Metal_State_Penalty>
-0

> <b_epik_Metal_Only>
0

> <s_lp_Force_Field>
OPLS_2005

> <r_lp_Energy>
31.242

> <b_lp_Chiralities_Consistent>
1

> <s_lp_Variant>
AV-unprocessed.smi:1148-1

> <Gold.Version>
5.8.1

> <Gold.Id.Protein>
6NUR|6NUR_protein|mol2

> <Gold.PLP.Fitness>
44.7022

> <Gold.PLP.PLP>
-37.0684

> <Gold.PLP.part.hbond>
-5.1993

> <Gold.PLP.part.metal>
0.0000

> <Gold.PLP.part.buried>
0.3573

> <Gold.PLP.part.nonpolar>
-32.6346

> <Gold.PLP.part.repulsive>
0.3750

> <Gold.PLP.ligand.clash>
0.0000

> <Gold.PLP.ligand.torsion>
0.3930

> <Gold.PLP.Chemscore.Hbond>
2.7680

> <Gold.PLP.Chemscore.CHOScore>
0.0000

> <Gold.PLP.Chemscore.Metal>
0.0000

> <Gold.Chemscore.Hbonds>
donor molecule, donor type, donor heavy atom, donor atom, acceptor molecule, acceptor atom, score
      L1  H     9    30       P1  7948  0.73
      L1  H    12    31       P1  7948  0.75
      P1  H  7997  8010       L1    18  0.21

> <Gold.PLP.Chemscore.Internal.Correction>
0.1158

> <Gold.Rescore>
     Score         DG    S(hbond)    S(metal)    S(lipo)     H(rot)  DE(clash)    DE(int)     intcor
     16.63     -18.88       2.61        0.00      72.01       1.46       0.03       2.23       ----

> <Gold.Chemscore.Fitness>
16.6268

> <Gold.Chemscore.DG>
-18.8822

> <Gold.Chemscore.ZeroCoef>
-5.4800

> <Gold.Chemscore.Hbond>
2.6063

> <Gold.Chemscore.Metal>
0.0000

> <Gold.Chemscore.Lipo>
72.0127

> <Gold.Chemscore.Internal_Hbond>
0.0000

> <Gold.Chemscore.DEClash>
0.0260

> <Gold.Chemscore.DEInternal>
2.2294

> <Gold.Chemscore.Rot>
1.4564

> <Gold.Chemscore.Internal.Correction>
   9.000000E+99

> <Gold.Chemscore.Hbonds>
donor molecule, donor type, donor heavy atom, donor atom, acceptor molecule, acceptor atom, score
      L1  H     9    30       P1  7948  0.17
      L1  H    12    31       P1  7948  0.09
      P1  H  7997  8010       L1    18  0.01

> <Gold.Chemscore.Hbond.Weighted>
-8.7052

> <Gold.Chemscore.Metal.Weighted>
-0.0000

> <Gold.Chemscore.Lipo.Weighted>
-8.4255

> <Gold.Chemscore.Internal_Hbond.Weighted>
0.0000

> <Gold.Chemscore.DEClash.Weighted>
0.0260

> <Gold.Chemscore.DEInternal.Weighted>
2.2294

> <Gold.Chemscore.Rot.Weighted>
3.7285

> <Gold.Chemscore.Internal.Correction.Weighted>
   9.000000E+99

> <Gold.Protein.RotatedTorsions>
[ 6907 6896 6895 6894 ] final   48.14 input  -60.11 | X-H torsion
[ 7974 7965 7964 7962 ] final   61.86 input  175.53 | X-H torsion
[ 8008 7997 7996 7995 ] final   20.32 input   59.86 | X-H torsion
[ 10167 10162 10161 10158 ] final  143.47 input  -65.29 | X-H torsion
[ 10718 10713 10712 10709 ] final -155.56 input   66.30 | X-H torsion
[ 10763 10752 10751 10750 ] final  134.84 input  -60.55 | X-H torsion
[ 11005 11000 10999 10996 ] final   79.00 input  -57.11 | X-H torsion

> <Gold.Protein.ActiveResidues>
 VAL166  LYS551  ARG553  GLY616  TRP617  ASP618  TYR619  PRO620  LYS621  CYS622 
 ASP623  PHE694  ASN695  SER759  ASP760  ASP761  ALA762  ILE779  LEU786  VAL792 
 PHE793  MET794  SER795  GLU796  ALA797  LYS798  CYS799  TRP800  GLU811  SER814 

> <Gold.Protein.RotatedAtoms>
  152.2761  134.7880  160.0405 H   0  0  0  0  0  0  0  0  0  0  0  0  # atno 6907 bound_to 6896
  151.8476  133.3429  159.3671 H   0  0  0  0  0  0  0  0  0  0  0  0  # atno 6908 bound_to 6896
  150.7171  134.5259  159.5720 H   0  0  0  0  0  0  0  0  0  0  0  0  # atno 6909 bound_to 6896
  145.8799  139.3436  143.0712 H   0  0  0  0  0  0  0  0  0  0  0  0  # atno 7974 bound_to 7965
  154.9339  140.3044  155.5154 H   0  0  0  0  0  0  0  0  0  0  0  0  # atno 8008 bound_to 7997
  156.3001  140.2349  156.4338 H   0  0  0  0  0  0  0  0  0  0  0  0  # atno 8009 bound_to 7997
  154.8211  140.0423  157.1400 H   0  0  0  0  0  0  0  0  0  0  0  0  # atno 8010 bound_to 7997
  139.4969  144.6038  151.6424 H   0  0  0  0  0  0  0  0  0  0  0  0  # atno 10167 bound_to 10162
  156.5145  130.8450  151.2659 H   0  0  0  0  0  0  0  0  0  0  0  0  # atno 10718 bound_to 10713
  153.8301  135.3105  155.3418 H   0  0  0  0  0  0  0  0  0  0  0  0  # atno 10763 bound_to 10752
  154.7977  135.4746  154.0202 H   0  0  0  0  0  0  0  0  0  0  0  0  # atno 10764 bound_to 10752
  153.1639  135.6866  153.8793 H   0  0  0  0  0  0  0  0  0  0  0  0  # atno 10765 bound_to 10752
  139.9190  134.7808  156.1723 H   0  0  0  0  0  0  0  0  0  0  0  0  # atno 11005 bound_to 11000
  145.9035  140.9227  143.0490 LP  0  0  0  0  0  0  0  0  0  0  0  0  # atno 17320 bound_to 7965
  144.6727  140.1065  143.7458 LP  0  0  0  0  0  0  0  0  0  0  0  0  # atno 17321 bound_to 7965
  140.5694  144.0134  150.6209 LP  0  0  0  0  0  0  0  0  0  0  0  0  # atno 17342 bound_to 10162
  140.3247  143.3115  152.0749 LP  0  0  0  0  0  0  0  0  0  0  0  0  # atno 17343 bound_to 10162
  157.7446  130.9938  150.2685 LP  0  0  0  0  0  0  0  0  0  0  0  0  # atno 17370 bound_to 10713
  156.3208  130.3785  149.7577 LP  0  0  0  0  0  0  0  0  0  0  0  0  # atno 17371 bound_to 10713
  141.0693  133.6804  156.2108 LP  0  0  0  0  0  0  0  0  0  0  0  0  # atno 17394 bound_to 11000
  140.6533  134.5044  157.5579 LP  0  0  0  0  0  0  0  0  0  0  0  0  # atno 17395 bound_to 11000

$$$$
