AV-unprocessed.smi:3061|AV-procd|sdf|11682|dock4
  -GOLD-   2272017 83D 1   1.00000     0.00000
 Structure written by MMmdl.
 35 36  0  0  0  0  0  0  0  0  1 V2000
  147.9352  141.4408  156.0564 C   0  0  0  0  0  0  0  0  0  0  0  0
  149.2494  140.6621  155.8985 C   0  0  1  0  0  0  0  0  0  0  0  0
  149.4924  140.2424  154.4362 C   0  0  0  0  0  0  0  0  0  0  0  0
  150.6606  139.3910  154.2994 N   0  0  0  0  0  0  0  0  0  0  0  0
  150.7629  138.1108  153.9393 C   0  0  0  0  0  0  0  0  0  0  0  0
  152.0067  137.6518  153.9430 N   0  0  0  0  0  0  0  0  0  0  0  0
  152.6655  138.7808  154.3407 C   0  0  0  0  0  0  0  0  0  0  0  0
  151.9052  139.8518  154.5678 N   0  0  0  0  0  0  0  0  0  0  0  0
  150.3660  141.4742  156.3773 N   0  0  0  0  0  0  0  0  0  0  0  0
  150.4558  142.0419  157.5893 C   0  0  0  0  0  0  0  0  0  0  0  0
  149.5648  141.9744  158.4367 O   0  0  0  0  0  0  0  0  0  0  0  0
  151.7601  142.7946  157.8940 C   0  0  1  0  0  0  0  0  0  0  0  0
  151.5187  144.3099  158.0505 C   0  0  0  0  0  0  0  0  0  0  0  0
  151.8053  144.5788  159.5184 C   0  0  0  0  0  0  0  0  0  0  0  0
  151.6289  145.6770  160.0432 O   0  0  0  0  0  0  0  0  0  0  0  0
  152.2544  143.4780  160.1275 N   0  0  0  0  0  0  0  0  0  0  0  0
  152.6241  143.3740  161.5323 C   0  0  0  0  0  0  0  0  0  0  0  0
  152.3962  142.3460  159.2282 C   0  0  0  0  0  0  0  0  0  0  0  0
  147.0852  140.8459  155.7217 H   0  0  0  0  0  0  0  0  0  0  0  0
  147.9465  142.3626  155.4737 H   0  0  0  0  0  0  0  0  0  0  0  0
  147.7585  141.7074  157.0990 H   0  0  0  0  0  0  0  0  0  0  0  0
  149.1747  139.7524  156.4976 H   0  0  0  0  0  0  0  0  0  0  0  0
  148.6312  139.6921  154.0555 H   0  0  0  0  0  0  0  0  0  0  0  0
  149.6104  141.1187  153.7963 H   0  0  0  0  0  0  0  0  0  0  0  0
  149.9109  137.5014  153.6759 H   0  0  0  0  0  0  0  0  0  0  0  0
  153.7376  138.8141  154.4676 H   0  0  0  0  0  0  0  0  0  0  0  0
  151.1494  141.5806  155.7488 H   0  0  0  0  0  0  0  0  0  0  0  0
  152.4680  142.6206  157.0816 H   0  0  0  0  0  0  0  0  0  0  0  0
  152.2121  144.8835  157.4346 H   0  0  0  0  0  0  0  0  0  0  0  0
  150.5046  144.6230  157.7961 H   0  0  0  0  0  0  0  0  0  0  0  0
  153.4407  144.0585  161.7641 H   0  0  0  0  0  0  0  0  0  0  0  0
  152.9497  142.3631  161.7794 H   0  0  0  0  0  0  0  0  0  0  0  0
  151.7755  143.6218  162.1706 H   0  0  0  0  0  0  0  0  0  0  0  0
  151.9207  141.4594  159.6520 H   0  0  0  0  0  0  0  0  0  0  0  0
  153.4550  142.1195  159.0961 H   0  0  0  0  0  0  0  0  0  0  0  0
  1  2  1  0  0  0  0
  1 19  1  0  0  0  0
  1 20  1  0  0  0  0
  1 21  1  0  0  0  0
  2  3  1  0  0  0  0
  2  9  1  0  0  0  0
  2 22  1  0  0  0  0
  3  4  1  0  0  0  0
  3 23  1  0  0  0  0
  3 24  1  0  0  0  0
  4  8  1  0  0  0  0
  4  5  1  0  0  0  0
  5  6  2  0  0  0  0
  5 25  1  0  0  0  0
  6  7  1  0  0  0  0
  7  8  2  0  0  0  0
  7 26  1  0  0  0  0
  9 10  1  0  0  0  0
  9 27  1  0  0  0  0
 10 11  2  0  0  0  0
 10 12  1  0  0  0  0
 12 18  1  0  0  0  0
 12 13  1  0  0  0  0
 12 28  1  0  0  0  0
 13 14  1  0  0  0  0
 13 29  1  0  0  0  0
 13 30  1  0  0  0  0
 14 15  2  0  0  0  0
 14 16  1  0  0  0  0
 16 17  1  0  0  0  0
 16 18  1  0  0  0  0
 17 31  1  0  0  0  0
 17 32  1  0  0  0  0
 17 33  1  0  0  0  0
 18 34  1  0  0  0  0
 18 35  1  0  0  0  0
M  END
> <s_m_source_file>
AV-unprocessed.smi

> <i_m_source_file_index>
3061

> <i_lp_mmshare_version>
43012

> <i_f3d_flags>
0

> <s_epik_input>
bjFbY0hdbltjSF1uMVtDSDJdW0NAQEhdKFtDSDNdKVtOSF1DKD1PKVtDQEBIXTJbQ0gyXUMoPU8pTihbQ0gzXSlbQ0gyXTI=

> <s_epik_cmdline>
J2VwaWtfcHl0aG9uJywgJy1waCcsICc3LjAnLCAnLXRuJywgJzgnLCAnLW1hJywgJzIwMCcsICctbWV0YWxfYmluZGluZycsICctaW1hZScsICc8aW5maWxlLm1hZT4nLCAnLW9tYWUnLCAnPG91dGZpbGUubWFlPic=

> <r_lp_tautomer_probability>
1

> <r_epik_Ionization_Penalty>
4.97611e-05

> <r_epik_Ionization_Penalty_Charging>
0

> <r_epik_Ionization_Penalty_Neutral>
4.97611e-05

> <r_epik_State_Penalty>
-0

> <r_epik_Charging_Adjusted_Penalty>
0

> <i_epik_Tot_Q>
0

> <i_epik_Tot_abs_Q>
0

> <r_epik_Metal_State_Penalty>
-0

> <b_epik_Metal_Only>
0

> <s_lp_Force_Field>
OPLS_2005

> <r_lp_Energy>
11.8838

> <b_lp_Chiralities_Consistent>
1

> <s_lp_Variant>
AV-unprocessed.smi:3061-4

> <Gold.Version>
5.8.1

> <Gold.Id.Protein>
6NUR|6NUR_protein|mol2

> <Gold.PLP.Fitness>
49.6952

> <Gold.PLP.PLP>
-43.0296

> <Gold.PLP.part.hbond>
-3.2134

> <Gold.PLP.part.metal>
0.0000

> <Gold.PLP.part.buried>
-7.5574

> <Gold.PLP.part.nonpolar>
-34.0792

> <Gold.PLP.part.repulsive>
0.5680

> <Gold.PLP.ligand.clash>
0.0000

> <Gold.PLP.ligand.torsion>
0.1823

> <Gold.PLP.Chemscore.Hbond>
1.3408

> <Gold.PLP.Chemscore.CHOScore>
0.9954

> <Gold.PLP.Chemscore.Metal>
0.0000

> <Gold.Chemscore.Hbonds>
donor molecule, donor type, donor heavy atom, donor atom, acceptor molecule, acceptor atom, score
      P1  H  7989  7998       L1     8  0.30
      P1  H 10752 10763       L1     6  0.51
      L1  C     5    25       P1  7948  1.00

> <Gold.PLP.Chemscore.Internal.Correction>
0.0214

> <Gold.Rescore>
     Score         DG    S(hbond)    S(metal)    S(lipo)     H(rot)  DE(clash)    DE(int)     intcor
      9.24      -9.33       0.82        0.00      62.40       2.42       0.00       0.09       ----

> <Gold.Chemscore.Fitness>
9.2408

> <Gold.Chemscore.DG>
-9.3327

> <Gold.Chemscore.ZeroCoef>
-5.4800

> <Gold.Chemscore.Hbond>
0.8222

> <Gold.Chemscore.Metal>
0.0000

> <Gold.Chemscore.Lipo>
62.4017

> <Gold.Chemscore.Internal_Hbond>
0.0000

> <Gold.Chemscore.DEClash>
0.0019

> <Gold.Chemscore.DEInternal>
0.0900

> <Gold.Chemscore.Rot>
2.4197

> <Gold.Chemscore.Internal.Correction>
   9.000000E+99

> <Gold.Chemscore.Hbonds>
donor molecule, donor type, donor heavy atom, donor atom, acceptor molecule, acceptor atom, score
      P1  H  7989  7998       L1     8  0.01
      P1  H 10752 10763       L1     6  0.50

> <Gold.Chemscore.Hbond.Weighted>
-2.7462

> <Gold.Chemscore.Metal.Weighted>
-0.0000

> <Gold.Chemscore.Lipo.Weighted>
-7.3010

> <Gold.Chemscore.Internal_Hbond.Weighted>
0.0000

> <Gold.Chemscore.DEClash.Weighted>
0.0019

> <Gold.Chemscore.DEInternal.Weighted>
0.0900

> <Gold.Chemscore.Rot.Weighted>
6.1945

> <Gold.Chemscore.Internal.Correction.Weighted>
   9.000000E+99

> <Gold.Protein.RotatedTorsions>
[ 6907 6896 6895 6894 ] final  159.31 input  -60.11 | X-H torsion
[ 7974 7965 7964 7962 ] final   84.06 input  175.53 | X-H torsion
[ 8008 7997 7996 7995 ] final -124.08 input   59.86 | X-H torsion
[ 10167 10162 10161 10158 ] final  -33.46 input  -65.29 | X-H torsion
[ 10718 10713 10712 10709 ] final  126.37 input   66.30 | X-H torsion
[ 10763 10752 10751 10750 ] final   36.18 input  -60.55 | X-H torsion
[ 11005 11000 10999 10996 ] final   48.71 input  -57.11 | X-H torsion

> <Gold.Protein.ActiveResidues>
 VAL166  LYS551  ARG553  GLY616  TRP617  ASP618  TYR619  PRO620  LYS621  CYS622 
 ASP623  PHE694  ASN695  SER759  ASP760  ASP761  ALA762  ILE779  LEU786  VAL792 
 PHE793  MET794  SER795  GLU796  ALA797  LYS798  CYS799  TRP800  GLU811  SER814 

> <Gold.Protein.RotatedAtoms>
  151.9874  133.3779  159.4130 H   0  0  0  0  0  0  0  0  0  0  0  0  # atno 6907 bound_to 6896
  150.6926  134.3973  159.5112 H   0  0  0  0  0  0  0  0  0  0  0  0  # atno 6908 bound_to 6896
  152.1702  134.8840  160.0585 H   0  0  0  0  0  0  0  0  0  0  0  0  # atno 6909 bound_to 6896
  145.6037  139.2356  143.2231 H   0  0  0  0  0  0  0  0  0  0  0  0  # atno 7974 bound_to 7965
  155.1909  140.0413  157.2900 H   0  0  0  0  0  0  0  0  0  0  0  0  # atno 8008 bound_to 7997
  154.6139  140.2483  155.7606 H   0  0  0  0  0  0  0  0  0  0  0  0  # atno 8009 bound_to 7997
  156.2395  140.2909  156.0414 H   0  0  0  0  0  0  0  0  0  0  0  0  # atno 8010 bound_to 7997
  140.7204  143.3618  151.1947 H   0  0  0  0  0  0  0  0  0  0  0  0  # atno 10167 bound_to 10162
  157.5425  131.1096  150.8836 H   0  0  0  0  0  0  0  0  0  0  0  0  # atno 10718 bound_to 10713
  153.0087  135.6313  154.1945 H   0  0  0  0  0  0  0  0  0  0  0  0  # atno 10763 bound_to 10752
  154.1688  135.2819  155.3089 H   0  0  0  0  0  0  0  0  0  0  0  0  # atno 10764 bound_to 10752
  154.5925  135.5613  153.7353 H   0  0  0  0  0  0  0  0  0  0  0  0  # atno 10765 bound_to 10752
  140.1167  134.4883  155.8631 H   0  0  0  0  0  0  0  0  0  0  0  0  # atno 11005 bound_to 11000
  146.1557  140.6861  142.9301 LP  0  0  0  0  0  0  0  0  0  0  0  0  # atno 17320 bound_to 7965
  144.7299  140.4640  143.6945 LP  0  0  0  0  0  0  0  0  0  0  0  0  # atno 17321 bound_to 7965
  139.7172  143.9282  152.2971 LP  0  0  0  0  0  0  0  0  0  0  0  0  # atno 17342 bound_to 10162
  139.9026  144.6903  150.8648 LP  0  0  0  0  0  0  0  0  0  0  0  0  # atno 17343 bound_to 10162
  156.9385  130.5375  149.5280 LP  0  0  0  0  0  0  0  0  0  0  0  0  # atno 17370 bound_to 10713
  156.0508  130.5578  150.8985 LP  0  0  0  0  0  0  0  0  0  0  0  0  # atno 17371 bound_to 10713
  141.2143  133.6746  156.6810 LP  0  0  0  0  0  0  0  0  0  0  0  0  # atno 17394 bound_to 11000
  140.3019  134.8157  157.4105 LP  0  0  0  0  0  0  0  0  0  0  0  0  # atno 17395 bound_to 11000

$$$$
