AV-unprocessed.smi:742|AV-procd|sdf|3558|dock5
  -GOLD-   22720 0553D 1   1.00000     0.00000
 Structure written by MMmdl.
 25 25  0  0  0  0  0  0  0  0  2 V2000
  147.6085  138.6233  151.7654 N   0  3  0  0  0  0  0  0  0  0  0  0
  147.1732  139.1329  153.0759 C   0  0  0  0  0  0  0  0  0  0  0  0
  148.3755  139.4515  153.9765 C   0  0  0  0  0  0  0  0  0  0  0  0
  149.3366  138.3483  153.9673 N   0  0  0  0  0  0  0  0  0  0  0  0
  150.6812  138.2978  155.0514 S   0  0  0  0  0  0  0  0  0  0  0  0
  151.3651  137.0082  154.8665 O   0  0  0  0  0  0  0  0  0  0  0  0
  151.4132  139.5612  154.8784 O   0  0  0  0  0  0  0  0  0  0  0  0
  149.8643  138.3348  156.7087 C   0  0  0  0  0  0  0  0  0  0  0  0
  150.8569  138.0547  157.8023 C   0  0  0  0  0  0  0  0  0  0  0  0
  151.9924  138.8248  158.1789 C   0  0  0  0  0  0  0  0  0  0  0  0
  152.5331  138.1127  159.2104 C   0  0  0  0  0  0  0  0  0  0  0  0
  151.8003  136.9971  159.4528 O   0  0  0  0  0  0  0  0  0  0  0  0
  150.7357  136.9656  158.5450 N   0  0  0  0  0  0  0  0  0  0  0  0
  148.3273  139.2266  151.3918 H   0  0  0  0  0  0  0  0  0  0  0  0
  146.8227  138.6038  151.1313 H   0  0  0  0  0  0  0  0  0  0  0  0
  146.5646  140.0218  152.9096 H   0  0  0  0  0  0  0  0  0  0  0  0
  146.5306  138.3892  153.5481 H   0  0  0  0  0  0  0  0  0  0  0  0
  148.8776  140.3564  153.6332 H   0  0  0  0  0  0  0  0  0  0  0  0
  148.0499  139.6358  155.0007 H   0  0  0  0  0  0  0  0  0  0  0  0
  149.0016  137.4426  153.6389 H   0  0  0  0  0  0  0  0  0  0  0  0
  149.4203  139.3222  156.8395 H   0  0  0  0  0  0  0  0  0  0  0  0
  149.0505  137.6099  156.7113 H   0  0  0  0  0  0  0  0  0  0  0  0
  152.3524  139.7525  157.7592 H   0  0  0  0  0  0  0  0  0  0  0  0
  153.3960  138.2607  159.8428 H   0  0  0  0  0  0  0  0  0  0  0  0
  147.9783  137.6895  151.8738 H   0  0  0  0  0  0  0  0  0  0  0  0
  1  2  1  0  0  0  0
  1 14  1  0  0  0  0
  1 15  1  0  0  0  0
  1 25  1  0  0  0  0
  2  3  1  0  0  0  0
  2 16  1  0  0  0  0
  2 17  1  0  0  0  0
  3  4  1  0  0  0  0
  3 18  1  0  0  0  0
  3 19  1  0  0  0  0
  4  5  1  0  0  0  0
  4 20  1  0  0  0  0
  5  6  2  0  0  0  0
  5  7  2  0  0  0  0
  5  8  1  0  0  0  0
  8  9  1  0  0  0  0
  8 21  1  0  0  0  0
  8 22  1  0  0  0  0
  9 13  2  0  0  0  0
  9 10  1  0  0  0  0
 10 11  2  0  0  0  0
 10 23  1  0  0  0  0
 11 12  1  0  0  0  0
 11 24  1  0  0  0  0
 12 13  1  0  0  0  0
M  CHG  1   1   1
M  END
> <s_m_source_file>
AV-unprocessed.smi

> <i_m_source_file_index>
742

> <i_lp_mmshare_version>
43012

> <i_f3d_flags>
0

> <s_epik_input>
W05IMl1bQ0gyXVtDSDJdW05IXVMoPU8pKD1PKVtDSDJdYzFbY0hdW2NIXW9uMQ==

> <s_epik_cmdline>
J2VwaWtfcHl0aG9uJywgJy1waCcsICc3LjAnLCAnLXRuJywgJzgnLCAnLW1hJywgJzIwMCcsICctbWV0YWxfYmluZGluZycsICctaW1hZScsICc8aW5maWxlLm1hZT4nLCAnLW9tYWUnLCAnPG91dGZpbGUubWFlPic=

> <r_lp_tautomer_probability>
1

> <r_epik_Ionization_Penalty>
0.00734165

> <r_epik_Ionization_Penalty_Charging>
0.00580839

> <r_epik_Ionization_Penalty_Neutral>
0.00153326

> <r_epik_State_Penalty>
-0

> <r_epik_Charging_Adjusted_Penalty>
0.00580839

> <i_epik_Tot_Q>
1

> <i_epik_Tot_abs_Q>
1

> <r_epik_Metal_State_Penalty>
0.322493

> <b_epik_Metal_Only>
0

> <s_lp_Force_Field>
OPLS_2005

> <r_lp_Energy>
-3.29025

> <b_lp_Chiralities_Consistent>
1

> <s_lp_Variant>
AV-unprocessed.smi:742-1

> <Gold.Version>
5.8.1

> <Gold.Id.Protein>
6NUR|6NUR_protein|mol2

> <Gold.PLP.Fitness>
38.3951

> <Gold.PLP.PLP>
-18.6582

> <Gold.PLP.part.hbond>
-7.3463

> <Gold.PLP.part.metal>
0.0000

> <Gold.PLP.part.buried>
-4.9428

> <Gold.PLP.part.nonpolar>
-7.4298

> <Gold.PLP.part.repulsive>
0.5357

> <Gold.PLP.ligand.clash>
0.0000

> <Gold.PLP.ligand.torsion>
0.7972

> <Gold.PLP.Chemscore.Hbond>
6.7440

> <Gold.PLP.Chemscore.CHOScore>
0.0000

> <Gold.PLP.Chemscore.Metal>
0.0000

> <Gold.Chemscore.Hbonds>
donor molecule, donor type, donor heavy atom, donor atom, acceptor molecule, acceptor atom, score
      L1  H     1    14       P1  7957  0.89
      L1  H     1    25       P1  7948  2.00
      L1  H     4    20       P1  7948  0.60
      P1  H  6896  6907       L1    12  0.58
      P1  H  7989  7998       L1     7  1.00
      P1  H 10752 10765       L1     6  0.68

> <Gold.PLP.Chemscore.Internal.Correction>
1.0992

> <Gold.Rescore>
     Score         DG    S(hbond)    S(metal)    S(lipo)     H(rot)  DE(clash)    DE(int)     intcor
     19.48     -20.46       5.32        0.00      25.90       2.28       0.01       0.96       ----

> <Gold.Chemscore.Fitness>
19.4821

> <Gold.Chemscore.DG>
-20.4554

> <Gold.Chemscore.ZeroCoef>
-5.4800

> <Gold.Chemscore.Hbond>
5.3237

> <Gold.Chemscore.Metal>
0.0000

> <Gold.Chemscore.Lipo>
25.9020

> <Gold.Chemscore.Internal_Hbond>
0.0000

> <Gold.Chemscore.DEClash>
0.0149

> <Gold.Chemscore.DEInternal>
0.9584

> <Gold.Chemscore.Rot>
2.2798

> <Gold.Chemscore.Internal.Correction>
   9.000000E+99

> <Gold.Chemscore.Hbonds>
donor molecule, donor type, donor heavy atom, donor atom, acceptor molecule, acceptor atom, score
      L1  H     1    14       P1  7957  0.68
      L1  H     1    25       P1  7948  1.00
      L1  H     4    20       P1  7948  0.58
      P1  H  6896  6907       L1    12  0.28
      P1  H  7989  7998       L1     7  1.00
      P1  H 10752 10765       L1     6  0.65

> <Gold.Chemscore.Hbond.Weighted>
-17.7810

> <Gold.Chemscore.Metal.Weighted>
-0.0000

> <Gold.Chemscore.Lipo.Weighted>
-3.0305

> <Gold.Chemscore.Internal_Hbond.Weighted>
0.0000

> <Gold.Chemscore.DEClash.Weighted>
0.0149

> <Gold.Chemscore.DEInternal.Weighted>
0.9584

> <Gold.Chemscore.Rot.Weighted>
5.8362

> <Gold.Chemscore.Internal.Correction.Weighted>
   9.000000E+99

> <Gold.Protein.RotatedTorsions>
[ 6907 6896 6895 6894 ] final   33.54 input  -60.11 | X-H torsion
[ 7974 7965 7964 7962 ] final   34.83 input  175.53 | X-H torsion
[ 8008 7997 7996 7995 ] final   65.09 input   59.86 | X-H torsion
[ 10167 10162 10161 10158 ] final  133.75 input  -65.29 | X-H torsion
[ 10718 10713 10712 10709 ] final  125.52 input   66.30 | X-H torsion
[ 10763 10752 10751 10750 ] final  159.20 input  -60.55 | X-H torsion
[ 11005 11000 10999 10996 ] final    6.89 input  -57.11 | X-H torsion

> <Gold.Protein.ActiveResidues>
 VAL166  LYS551  ARG553  GLY616  TRP617  ASP618  TYR619  PRO620  LYS621  CYS622 
 ASP623  PHE694  ASN695  SER759  ASP760  ASP761  ALA762  ILE779  LEU786  VAL792 
 PHE793  MET794  SER795  GLU796  ALA797  LYS798  CYS799  TRP800  GLU811  SER814 

> <Gold.Protein.RotatedAtoms>
  152.0899  134.9414  160.0571 H   0  0  0  0  0  0  0  0  0  0  0  0  # atno 6907 bound_to 6896
  152.0670  133.4083  159.4450 H   0  0  0  0  0  0  0  0  0  0  0  0  # atno 6908 bound_to 6896
  150.6836  134.3056  159.4768 H   0  0  0  0  0  0  0  0  0  0  0  0  # atno 6909 bound_to 6896
  146.1325  139.6219  142.9217 H   0  0  0  0  0  0  0  0  0  0  0  0  # atno 7974 bound_to 7965
  155.6562  140.3497  155.4766 H   0  0  0  0  0  0  0  0  0  0  0  0  # atno 8008 bound_to 7997
  155.9806  140.1174  157.0753 H   0  0  0  0  0  0  0  0  0  0  0  0  # atno 8009 bound_to 7997
  154.4190  140.1139  156.5417 H   0  0  0  0  0  0  0  0  0  0  0  0  # atno 8010 bound_to 7997
  139.5284  144.6601  151.5041 H   0  0  0  0  0  0  0  0  0  0  0  0  # atno 10167 bound_to 10162
  157.5496  131.1094  150.8724 H   0  0  0  0  0  0  0  0  0  0  0  0  # atno 10718 bound_to 10713
  154.2280  135.2779  155.2900 H   0  0  0  0  0  0  0  0  0  0  0  0  # atno 10763 bound_to 10752
  154.5647  135.5636  153.7043 H   0  0  0  0  0  0  0  0  0  0  0  0  # atno 10764 bound_to 10752
  153.0026  135.6306  154.2422 H   0  0  0  0  0  0  0  0  0  0  0  0  # atno 10765 bound_to 10752
  140.5543  134.0253  155.7948 H   0  0  0  0  0  0  0  0  0  0  0  0  # atno 11005 bound_to 11000
  145.5228  141.0431  143.2426 LP  0  0  0  0  0  0  0  0  0  0  0  0  # atno 17320 bound_to 7965
  144.7706  139.6744  143.7196 LP  0  0  0  0  0  0  0  0  0  0  0  0  # atno 17321 bound_to 7965
  140.6444  143.8823  150.6723 LP  0  0  0  0  0  0  0  0  0  0  0  0  # atno 17342 bound_to 10162
  140.2168  143.3840  152.1674 LP  0  0  0  0  0  0  0  0  0  0  0  0  # atno 17343 bound_to 10162
  156.9253  130.5330  149.5279 LP  0  0  0  0  0  0  0  0  0  0  0  0  # atno 17370 bound_to 10713
  156.0565  130.5626  150.9103 LP  0  0  0  0  0  0  0  0  0  0  0  0  # atno 17371 bound_to 10713
  141.1153  133.9551  157.2835 LP  0  0  0  0  0  0  0  0  0  0  0  0  # atno 17394 bound_to 11000
  139.9439  135.0187  156.8793 LP  0  0  0  0  0  0  0  0  0  0  0  0  # atno 17395 bound_to 11000

$$$$
