AV-unprocessed.smi:34|AV-procd|sdf|229|dock4
  -GOLD-   2262015553D 1   1.00000     0.00000
 Structure written by MMmdl.
 55 59  0  0  0  0  0  0  0  0  1 V2000
  150.6631  140.5705  158.0168 O   0  0  0  0  0  0  0  0  0  0  0  0
  150.3806  141.7544  157.8298 C   0  0  0  0  0  0  0  0  0  0  0  0
  149.4974  142.1794  156.7585 N   0  0  0  0  0  0  0  0  0  0  0  0
  148.8214  141.4062  155.8769 C   0  0  0  0  0  0  0  0  0  0  0  0
  148.7266  141.7178  154.5575 N   0  0  0  0  0  0  0  0  0  0  0  0
  148.0445  140.9243  153.7273 C   0  0  0  0  0  0  0  0  0  0  0  0
  147.3953  139.7924  154.0048 N   0  0  0  0  0  0  0  0  0  0  0  0
  147.4893  139.4666  155.3256 C   0  0  0  0  0  0  0  0  0  0  0  0
  148.1832  140.2168  156.3159 C   0  0  0  0  0  0  0  0  0  0  0  0
  148.0688  139.5880  157.5486 N   0  0  0  0  0  0  0  0  0  0  0  0
  147.3441  138.5313  157.2978 C   0  0  0  0  0  0  0  0  0  0  0  0
  146.9459  138.3822  155.9879 N   0  0  0  0  0  0  0  0  0  0  0  0
  146.1005  137.2818  155.4223 C   0  0  2  0  0  0  0  0  0  0  0  0
  145.7544  136.3761  156.4294 O   0  0  0  0  0  0  0  0  0  0  0  0
  145.8588  135.0258  155.9659 C   0  0  2  0  0  0  0  0  0  0  0  0
  147.0056  134.3301  156.7167 C   0  0  0  0  0  0  0  0  0  0  0  0
  146.9421  134.6894  158.0876 O   0  0  0  0  0  0  0  0  0  0  0  0
  148.0064  134.4946  158.8908 C   0  0  0  0  0  0  0  0  0  0  0  0
  149.1008  134.0923  158.4906 O   0  0  0  0  0  0  0  0  0  0  0  0
  147.7251  134.8303  160.3162 C   0  0  0  0  0  0  0  0  0  0  0  0
  147.4052  133.7925  161.2226 C   0  0  0  0  0  0  0  0  0  0  0  0
  147.1400  134.0787  162.5760 C   0  0  0  0  0  0  0  0  0  0  0  0
  147.1914  135.4061  163.0394 C   0  0  0  0  0  0  0  0  0  0  0  0
  147.5081  136.4471  162.1478 C   0  0  0  0  0  0  0  0  0  0  0  0
  147.7743  136.1628  160.7942 C   0  0  0  0  0  0  0  0  0  0  0  0
  146.0983  135.1578  154.4577 C   0  0  2  0  0  0  0  0  0  0  0  0
  146.7503  134.1384  153.8955 F   0  0  0  0  0  0  0  0  0  0  0  0
  146.8050  136.4919  154.3122 C   0  0  2  0  0  0  0  0  0  0  0  0
  148.2069  136.3907  154.4946 O   0  0  0  0  0  0  0  0  0  0  0  0
  151.0041  142.8521  158.6411 C   0  0  0  0  0  0  0  0  0  0  0  0
  151.8813  142.5349  159.7024 C   0  0  0  0  0  0  0  0  0  0  0  0
  152.4628  143.5577  160.4765 C   0  0  0  0  0  0  0  0  0  0  0  0
  152.1645  144.9056  160.2019 C   0  0  0  0  0  0  0  0  0  0  0  0
  151.2813  145.2300  159.1549 C   0  0  0  0  0  0  0  0  0  0  0  0
  150.7002  144.2081  158.3789 C   0  0  0  0  0  0  0  0  0  0  0  0
  149.3782  143.1764  156.6546 H   0  0  0  0  0  0  0  0  0  0  0  0
  148.0125  141.2412  152.6951 H   0  0  0  0  0  0  0  0  0  0  0  0
  147.0714  137.8275  158.0711 H   0  0  0  0  0  0  0  0  0  0  0  0
  145.1947  137.7777  155.0706 H   0  0  0  0  0  0  0  0  0  0  0  0
  144.9256  134.4930  156.1525 H   0  0  0  0  0  0  0  0  0  0  0  0
  146.9106  133.2468  156.6360 H   0  0  0  0  0  0  0  0  0  0  0  0
  147.9678  134.6037  156.2844 H   0  0  0  0  0  0  0  0  0  0  0  0
  147.3616  132.7656  160.8898 H   0  0  0  0  0  0  0  0  0  0  0  0
  146.8980  133.2779  163.2590 H   0  0  0  0  0  0  0  0  0  0  0  0
  146.9884  135.6257  164.0773 H   0  0  0  0  0  0  0  0  0  0  0  0
  147.5483  137.4665  162.5022 H   0  0  0  0  0  0  0  0  0  0  0  0
  148.0153  136.9853  160.1369 H   0  0  0  0  0  0  0  0  0  0  0  0
  145.1326  135.2154  153.9532 H   0  0  0  0  0  0  0  0  0  0  0  0
  146.6118  136.9588  153.3459 H   0  0  0  0  0  0  0  0  0  0  0  0
  148.6031  136.1784  153.6633 H   0  0  0  0  0  0  0  0  0  0  0  0
  152.1195  141.5050  159.9260 H   0  0  0  0  0  0  0  0  0  0  0  0
  153.1376  143.3069  161.2815 H   0  0  0  0  0  0  0  0  0  0  0  0
  152.6099  145.6897  160.7964 H   0  0  0  0  0  0  0  0  0  0  0  0
  151.0470  146.2638  158.9478 H   0  0  0  0  0  0  0  0  0  0  0  0
  150.0183  144.4780  157.5853 H   0  0  0  0  0  0  0  0  0  0  0  0
  1  2  2  0  0  0  0
  2  3  1  0  0  0  0
  2 30  1  0  0  0  0
  3  4  1  0  0  0  0
  3 36  1  0  0  0  0
  4  9  1  0  0  0  0
  4  5  2  0  0  0  0
  5  6  1  0  0  0  0
  6  7  2  0  0  0  0
  6 37  1  0  0  0  0
  7  8  1  0  0  0  0
  8 12  1  0  0  0  0
  8  9  2  0  0  0  0
  9 10  1  0  0  0  0
 10 11  2  0  0  0  0
 11 12  1  0  0  0  0
 11 38  1  0  0  0  0
 12 13  1  0  0  0  0
 13 28  1  0  0  0  0
 13 14  1  0  0  0  0
 13 39  1  0  0  0  0
 14 15  1  0  0  0  0
 15 16  1  0  0  0  0
 15 26  1  0  0  0  0
 15 40  1  0  0  0  0
 16 17  1  0  0  0  0
 16 41  1  0  0  0  0
 16 42  1  0  0  0  0
 17 18  1  0  0  0  0
 18 19  2  0  0  0  0
 18 20  1  0  0  0  0
 20 25  1  0  0  0  0
 20 21  2  0  0  0  0
 21 22  1  0  0  0  0
 21 43  1  0  0  0  0
 22 23  2  0  0  0  0
 22 44  1  0  0  0  0
 23 24  1  0  0  0  0
 23 45  1  0  0  0  0
 24 25  2  0  0  0  0
 24 46  1  0  0  0  0
 25 47  1  0  0  0  0
 26 27  1  0  0  0  0
 26 28  1  0  0  0  0
 26 48  1  0  0  0  0
 28 29  1  0  0  0  0
 28 49  1  0  0  0  0
 29 50  1  0  0  0  0
 30 35  1  0  0  0  0
 30 31  2  0  0  0  0
 31 32  1  0  0  0  0
 31 51  1  0  0  0  0
 32 33  2  0  0  0  0
 32 52  1  0  0  0  0
 33 34  1  0  0  0  0
 33 53  1  0  0  0  0
 34 35  2  0  0  0  0
 34 54  1  0  0  0  0
 35 55  1  0  0  0  0
M  END
> <s_m_source_file>
AV-unprocessed.smi

> <i_m_source_file_index>
34

> <i_lp_mmshare_version>
43012

> <i_f3d_flags>
0

> <s_epik_input>
W2NIXTFbY0hdW2NIXVtjSF1bY0hdYzFDKD1PKVtOSF1jKG5bY0hdbjIpYyhjMjMpbltjSF1uM1tDQEBIXTRPW0NASF0oW0NAQEhdKEYpW0NASF00W09IXSlbQ0gyXU9DKD1PKWM1W2NIXVtjSF1bY0hdW2NIXVtjSF01

> <s_epik_cmdline>
J2VwaWtfcHl0aG9uJywgJy1waCcsICc3LjAnLCAnLXRuJywgJzgnLCAnLW1hJywgJzIwMCcsICctbWV0YWxfYmluZGluZycsICctaW1hZScsICc8aW5maWxlLm1hZT4nLCAnLW9tYWUnLCAnPG91dGZpbGUubWFlPic=

> <r_lp_tautomer_probability>
1

> <r_epik_Ionization_Penalty>
0.00257489

> <r_epik_Ionization_Penalty_Charging>
0

> <r_epik_Ionization_Penalty_Neutral>
0.00257489

> <r_epik_State_Penalty>
0.00519398

> <r_epik_Charging_Adjusted_Penalty>
0.00519398

> <i_epik_Tot_Q>
0

> <i_epik_Tot_abs_Q>
0

> <r_epik_Metal_State_Penalty>
0.335891

> <b_epik_Metal_Only>
0

> <s_epik_Chemistry_Notes>
This compound has an ester and may undergo hydrolysis at high or low pH. This compound contains an acetal/aminal-like group ( X-CH(R)-Y where X, Y are N, S, or O) that may be acid/base labile, releasing an aldehyde.

> <s_lp_Force_Field>
OPLS_2005

> <r_lp_Energy>
55.6649

> <b_lp_Chiralities_Consistent>
1

> <s_lp_Variant>
AV-unprocessed.smi:34-15

> <Gold.Version>
5.8.1

> <Gold.Id.Protein>
6NUR|6NUR_protein|mol2

> <Gold.PLP.Fitness>
57.6433

> <Gold.PLP.PLP>
-50.1962

> <Gold.PLP.part.hbond>
-3.4084

> <Gold.PLP.part.metal>
0.0000

> <Gold.PLP.part.buried>
-6.1079

> <Gold.PLP.part.nonpolar>
-42.1177

> <Gold.PLP.part.repulsive>
0.3297

> <Gold.PLP.ligand.clash>
0.0000

> <Gold.PLP.ligand.torsion>
2.0758

> <Gold.PLP.Chemscore.Hbond>
3.0000

> <Gold.PLP.Chemscore.CHOScore>
0.6996

> <Gold.PLP.Chemscore.Metal>
0.0000

> <Gold.Chemscore.Hbonds>
donor molecule, donor type, donor heavy atom, donor atom, acceptor molecule, acceptor atom, score
      L1  H     3    36       P1  8028  1.00
      L1  H    29    50       P1  7948  1.00
      P1  H  6896  6908       L1    19  1.00
      L1  C     6    37       P1  7957  0.72

> <Gold.PLP.Chemscore.Internal.Correction>
0.4998

> <Gold.Rescore>
     Score         DG    S(hbond)    S(metal)    S(lipo)     H(rot)  DE(clash)    DE(int)     intcor
     20.28     -22.41       2.91        0.00     121.25       2.72       0.04       2.10       ----

> <Gold.Chemscore.Fitness>
20.2764

> <Gold.Chemscore.DG>
-22.4146

> <Gold.Chemscore.ZeroCoef>
-5.4800

> <Gold.Chemscore.Hbond>
2.9088

> <Gold.Chemscore.Metal>
0.0000

> <Gold.Chemscore.Lipo>
121.2491

> <Gold.Chemscore.Internal_Hbond>
0.0000

> <Gold.Chemscore.DEClash>
0.0386

> <Gold.Chemscore.DEInternal>
2.0997

> <Gold.Chemscore.Rot>
2.7215

> <Gold.Chemscore.Internal.Correction>
   9.000000E+99

> <Gold.Chemscore.Hbonds>
donor molecule, donor type, donor heavy atom, donor atom, acceptor molecule, acceptor atom, score
      L1  H     3    36       P1  8028  0.97
      L1  H    29    50       P1  7948  1.00
      P1  H  6896  6908       L1    19  0.95

> <Gold.Chemscore.Hbond.Weighted>
-9.7155

> <Gold.Chemscore.Metal.Weighted>
-0.0000

> <Gold.Chemscore.Lipo.Weighted>
-14.1861

> <Gold.Chemscore.Internal_Hbond.Weighted>
0.0000

> <Gold.Chemscore.DEClash.Weighted>
0.0386

> <Gold.Chemscore.DEInternal.Weighted>
2.0997

> <Gold.Chemscore.Rot.Weighted>
6.9670

> <Gold.Chemscore.Internal.Correction.Weighted>
   9.000000E+99

> <Gold.Protein.RotatedTorsions>
[ 6907 6896 6895 6894 ] final  121.26 input  -60.11 | X-H torsion
[ 7974 7965 7964 7962 ] final  133.48 input  175.53 | X-H torsion
[ 8008 7997 7996 7995 ] final   67.46 input   59.86 | X-H torsion
[ 10167 10162 10161 10158 ] final  -85.85 input  -65.29 | X-H torsion
[ 10718 10713 10712 10709 ] final   31.70 input   66.30 | X-H torsion
[ 10763 10752 10751 10750 ] final  144.47 input  -60.55 | X-H torsion
[ 11005 11000 10999 10996 ] final   47.23 input  -57.11 | X-H torsion

> <Gold.Protein.ActiveResidues>
 VAL166  LYS551  ARG553  GLY616  TRP617  ASP618  TYR619  PRO620  LYS621  CYS622 
 ASP623  PHE694  ASN695  SER759  ASP760  ASP761  ALA762  ILE779  LEU786  VAL792 
 PHE793  MET794  SER795  GLU796  ALA797  LYS798  CYS799  TRP800  GLU811  SER814 

> <Gold.Protein.RotatedAtoms>
  152.4335  133.7319  159.6592 H   0  0  0  0  0  0  0  0  0  0  0  0  # atno 6907 bound_to 6896
  150.8216  133.8232  159.3142 H   0  0  0  0  0  0  0  0  0  0  0  0  # atno 6908 bound_to 6896
  151.5912  135.1055  160.0091 H   0  0  0  0  0  0  0  0  0  0  0  0  # atno 6909 bound_to 6896
  144.9861  139.4454  143.5362 H   0  0  0  0  0  0  0  0  0  0  0  0  # atno 7974 bound_to 7965
  155.6932  140.3496  155.4902 H   0  0  0  0  0  0  0  0  0  0  0  0  # atno 8008 bound_to 7997
  155.9506  140.1118  157.1002 H   0  0  0  0  0  0  0  0  0  0  0  0  # atno 8009 bound_to 7997
  154.4121  140.1195  156.5033 H   0  0  0  0  0  0  0  0  0  0  0  0  # atno 8010 bound_to 7997
  140.3997  143.2668  151.9158 H   0  0  0  0  0  0  0  0  0  0  0  0  # atno 10167 bound_to 10162
  157.2758  130.7230  149.6529 H   0  0  0  0  0  0  0  0  0  0  0  0  # atno 10718 bound_to 10713
  153.9895  135.2933  155.3413 H   0  0  0  0  0  0  0  0  0  0  0  0  # atno 10763 bound_to 10752
  154.7223  135.5104  153.8834 H   0  0  0  0  0  0  0  0  0  0  0  0  # atno 10764 bound_to 10752
  153.0816  135.6681  154.0148 H   0  0  0  0  0  0  0  0  0  0  0  0  # atno 10765 bound_to 10752
  140.1298  134.4720  155.8530 H   0  0  0  0  0  0  0  0  0  0  0  0  # atno 11005 bound_to 11000
  146.3420  139.9164  142.8773 LP  0  0  0  0  0  0  0  0  0  0  0  0  # atno 17320 bound_to 7965
  145.2352  140.9988  143.3968 LP  0  0  0  0  0  0  0  0  0  0  0  0  # atno 17321 bound_to 7965
  139.4785  144.5645  151.8186 LP  0  0  0  0  0  0  0  0  0  0  0  0  # atno 17342 bound_to 10162
  140.4752  144.1529  150.5924 LP  0  0  0  0  0  0  0  0  0  0  0  0  # atno 17343 bound_to 10162
  155.9663  130.4353  150.5087 LP  0  0  0  0  0  0  0  0  0  0  0  0  # atno 17370 bound_to 10713
  157.3021  131.0647  151.2061 LP  0  0  0  0  0  0  0  0  0  0  0  0  # atno 17371 bound_to 10713
  141.2168  133.6791  156.7048 LP  0  0  0  0  0  0  0  0  0  0  0  0  # atno 17394 bound_to 11000
  140.2857  134.8281  157.3972 LP  0  0  0  0  0  0  0  0  0  0  0  0  # atno 17395 bound_to 11000

$$$$
