AV-unprocessed.smi:1165|AV-procd|sdf|4930|dock3
  -GOLD-   22720 3513D 1   1.00000     0.00000
 Structure written by MMmdl.
 41 42  0  0  0  0  0  0  0  0  1 V2000
  149.6355  135.2594  155.6575 C   0  0  0  0  0  0  0  0  0  0  0  0
  150.7968  135.5013  156.6391 C   0  0  1  0  0  0  0  0  0  0  0  0
  151.6794  136.7046  156.2566 C   0  0  0  0  0  0  0  0  0  0  0  0
  151.0185  137.9807  156.5790 N   0  0  0  0  0  0  0  0  0  0  0  0
  151.6952  139.4330  155.9192 S   0  0  0  0  0  0  0  0  0  0  0  0
  153.1610  139.3094  155.9150 O   0  0  0  0  0  0  0  0  0  0  0  0
  150.9532  139.7720  154.6956 O   0  0  0  0  0  0  0  0  0  0  0  0
  151.2518  140.5500  157.1577 N   0  0  0  0  0  0  0  0  0  0  0  0
  152.2893  141.1588  157.9887 C   0  0  0  0  0  0  0  0  0  0  0  0
  151.7739  142.4617  158.6113 C   0  0  0  0  0  0  0  0  0  0  0  0
  152.3726  142.7115  159.9811 C   0  0  0  0  0  0  0  0  0  0  0  0
  152.0287  143.8584  160.7259 C   0  0  0  0  0  0  0  0  0  0  0  0
  152.6172  144.0457  161.9915 C   0  0  0  0  0  0  0  0  0  0  0  0
  153.5270  143.0760  162.4586 C   0  0  0  0  0  0  0  0  0  0  0  0
  153.8644  141.9749  161.7531 N   0  0  0  0  0  0  0  0  0  0  0  0
  153.2956  141.8027  160.5408 C   0  0  0  0  0  0  0  0  0  0  0  0
  150.5254  138.0374  157.9617 C   0  0  0  0  0  0  0  0  0  0  0  0
  149.6421  136.8176  158.2775 C   0  0  2  0  0  0  0  0  0  0  0  0
  149.2276  136.7776  159.7526 C   0  0  0  0  0  0  0  0  0  0  0  0
  150.3491  135.6165  157.9878 O   0  0  0  0  0  0  0  0  0  0  0  0
  150.0132  135.0464  154.6573 H   0  0  0  0  0  0  0  0  0  0  0  0
  148.9755  136.1222  155.5739 H   0  0  0  0  0  0  0  0  0  0  0  0
  149.0337  134.4060  155.9709 H   0  0  0  0  0  0  0  0  0  0  0  0
  151.4237  134.6100  156.6064 H   0  0  0  0  0  0  0  0  0  0  0  0
  152.6223  136.6575  156.8033 H   0  0  0  0  0  0  0  0  0  0  0  0
  151.9310  136.6619  155.1974 H   0  0  0  0  0  0  0  0  0  0  0  0
  150.4207  140.2621  157.6736 H   0  0  0  0  0  0  0  0  0  0  0  0
  152.5782  140.4588  158.7726 H   0  0  0  0  0  0  0  0  0  0  0  0
  153.1738  141.3472  157.3794 H   0  0  0  0  0  0  0  0  0  0  0  0
  152.0033  143.3054  157.9591 H   0  0  0  0  0  0  0  0  0  0  0  0
  150.6874  142.4292  158.7045 H   0  0  0  0  0  0  0  0  0  0  0  0
  151.3288  144.5829  160.3362 H   0  0  0  0  0  0  0  0  0  0  0  0
  152.3776  144.9120  162.5904 H   0  0  0  0  0  0  0  0  0  0  0  0
  153.9965  143.1881  163.4246 H   0  0  0  0  0  0  0  0  0  0  0  0
  153.5878  140.9143  160.0000 H   0  0  0  0  0  0  0  0  0  0  0  0
  151.3802  138.0790  158.6380 H   0  0  0  0  0  0  0  0  0  0  0  0
  149.9536  138.9533  158.1118 H   0  0  0  0  0  0  0  0  0  0  0  0
  148.7332  136.8633  157.6775 H   0  0  0  0  0  0  0  0  0  0  0  0
  148.6645  137.6703  160.0264 H   0  0  0  0  0  0  0  0  0  0  0  0
  150.0977  136.7160  160.4067 H   0  0  0  0  0  0  0  0  0  0  0  0
  148.5963  135.9124  159.9564 H   0  0  0  0  0  0  0  0  0  0  0  0
  1  2  1  0  0  0  0
  1 21  1  0  0  0  0
  1 22  1  0  0  0  0
  1 23  1  0  0  0  0
  2 20  1  0  0  0  0
  2  3  1  0  0  0  0
  2 24  1  0  0  0  0
  3  4  1  0  0  0  0
  3 25  1  0  0  0  0
  3 26  1  0  0  0  0
  4  5  1  0  0  0  0
  4 17  1  0  0  0  0
  5  6  2  0  0  0  0
  5  7  2  0  0  0  0
  5  8  1  0  0  0  0
  8  9  1  0  0  0  0
  8 27  1  0  0  0  0
  9 10  1  0  0  0  0
  9 28  1  0  0  0  0
  9 29  1  0  0  0  0
 10 11  1  0  0  0  0
 10 30  1  0  0  0  0
 10 31  1  0  0  0  0
 11 16  1  0  0  0  0
 11 12  2  0  0  0  0
 12 13  1  0  0  0  0
 12 32  1  0  0  0  0
 13 14  2  0  0  0  0
 13 33  1  0  0  0  0
 14 15  1  0  0  0  0
 14 34  1  0  0  0  0
 15 16  2  0  0  0  0
 16 35  1  0  0  0  0
 17 18  1  0  0  0  0
 17 36  1  0  0  0  0
 17 37  1  0  0  0  0
 18 19  1  0  0  0  0
 18 20  1  0  0  0  0
 18 38  1  0  0  0  0
 19 39  1  0  0  0  0
 19 40  1  0  0  0  0
 19 41  1  0  0  0  0
M  END
> <s_m_source_file>
AV-unprocessed.smi

> <i_m_source_file_index>
1165

> <i_lp_mmshare_version>
43012

> <i_f3d_flags>
0

> <s_epik_input>
W0NIM11bQ0BASF0xW0NIMl1OKFtDSDJdW0NASF0oTzEpW0NIM10pUyg9TykoPU8pW05IXVtDSDJdW0NIMl1jMltjSF1bY0hdW2NIXW5bY0hdMg==

> <s_epik_cmdline>
J2VwaWtfcHl0aG9uJywgJy1waCcsICc3LjAnLCAnLXRuJywgJzgnLCAnLW1hJywgJzIwMCcsICctbWV0YWxfYmluZGluZycsICctaW1hZScsICc8aW5maWxlLm1hZT4nLCAnLW9tYWUnLCAnPG91dGZpbGUubWFlPic=

> <r_epik_Ionization_Penalty>
0.0861056

> <r_epik_Ionization_Penalty_Charging>
0

> <r_epik_Ionization_Penalty_Neutral>
0.0861056

> <r_epik_State_Penalty>
0.0574425

> <r_epik_Charging_Adjusted_Penalty>
0.0574425

> <i_epik_Tot_Q>
0

> <i_epik_Tot_abs_Q>
0

> <r_epik_Metal_State_Penalty>
0.317425

> <b_epik_Metal_Only>
0

> <s_lp_Force_Field>
OPLS_2005

> <r_lp_Energy>
8.11282

> <b_lp_Chiralities_Consistent>
1

> <s_lp_Variant>
AV-unprocessed.smi:1165-3

> <Gold.Version>
5.8.1

> <Gold.Id.Protein>
6NUR|6NUR_protein|mol2

> <Gold.PLP.Fitness>
44.1105

> <Gold.PLP.PLP>
-37.6845

> <Gold.PLP.part.hbond>
-3.0000

> <Gold.PLP.part.metal>
0.0000

> <Gold.PLP.part.buried>
-6.7611

> <Gold.PLP.part.nonpolar>
-27.7850

> <Gold.PLP.part.repulsive>
0.0841

> <Gold.PLP.ligand.clash>
0.4981

> <Gold.PLP.ligand.torsion>
1.1215

> <Gold.PLP.Chemscore.Hbond>
2.8000

> <Gold.PLP.Chemscore.CHOScore>
0.0000

> <Gold.PLP.Chemscore.Metal>
0.0000

> <Gold.Chemscore.Hbonds>
donor molecule, donor type, donor heavy atom, donor atom, acceptor molecule, acceptor atom, score
      P1  H  6896  6908       L1    20  0.69
      P1  H  7989  7998       L1     7  1.00
      P1  H  7997  8008       L1     6  0.98

> <Gold.PLP.Chemscore.Internal.Correction>
0.7671

> <Gold.Rescore>
     Score         DG    S(hbond)    S(metal)    S(lipo)     H(rot)  DE(clash)    DE(int)     intcor
     20.26     -21.43       2.81        0.00      93.51       1.71       0.10       1.07       ----

> <Gold.Chemscore.Fitness>
20.2564

> <Gold.Chemscore.DG>
-21.4318

> <Gold.Chemscore.ZeroCoef>
-5.4800

> <Gold.Chemscore.Hbond>
2.8078

> <Gold.Chemscore.Metal>
0.0000

> <Gold.Chemscore.Lipo>
93.5126

> <Gold.Chemscore.Internal_Hbond>
0.0000

> <Gold.Chemscore.DEClash>
0.1011

> <Gold.Chemscore.DEInternal>
1.0743

> <Gold.Chemscore.Rot>
1.7060

> <Gold.Chemscore.Internal.Correction>
   9.000000E+99

> <Gold.Chemscore.Hbonds>
donor molecule, donor type, donor heavy atom, donor atom, acceptor molecule, acceptor atom, score
      P1  H  6896  6908       L1    20  0.62
      P1  H  7989  7998       L1     7  0.98
      P1  H  7997  8008       L1     6  0.89

> <Gold.Chemscore.Hbond.Weighted>
-9.3782

> <Gold.Chemscore.Metal.Weighted>
-0.0000

> <Gold.Chemscore.Lipo.Weighted>
-10.9410

> <Gold.Chemscore.Internal_Hbond.Weighted>
0.0000

> <Gold.Chemscore.DEClash.Weighted>
0.1011

> <Gold.Chemscore.DEInternal.Weighted>
1.0743

> <Gold.Chemscore.Rot.Weighted>
4.3674

> <Gold.Chemscore.Internal.Correction.Weighted>
   9.000000E+99

> <Gold.Protein.RotatedTorsions>
[ 6907 6896 6895 6894 ] final  164.47 input  -60.11 | X-H torsion
[ 7974 7965 7964 7962 ] final   66.56 input  175.53 | X-H torsion
[ 8008 7997 7996 7995 ] final  -55.04 input   59.86 | X-H torsion
[ 10167 10162 10161 10158 ] final   85.08 input  -65.29 | X-H torsion
[ 10718 10713 10712 10709 ] final  106.00 input   66.30 | X-H torsion
[ 10763 10752 10751 10750 ] final   17.78 input  -60.55 | X-H torsion
[ 11005 11000 10999 10996 ] final -100.15 input  -57.11 | X-H torsion

> <Gold.Protein.ActiveResidues>
 VAL166  LYS551  ARG553  GLY616  TRP617  ASP618  TYR619  PRO620  LYS621  CYS622 
 ASP623  PHE694  ASN695  SER759  ASP760  ASP761  ALA762  ILE779  LEU786  VAL792 
 PHE793  MET794  SER795  GLU796  ALA797  LYS798  CYS799  TRP800  GLU811  SER814 

> <Gold.Protein.RotatedAtoms>
  151.9094  133.3557  159.3858 H   0  0  0  0  0  0  0  0  0  0  0  0  # atno 6907 bound_to 6896
  150.7061  134.4747  159.5451 H   0  0  0  0  0  0  0  0  0  0  0  0  # atno 6908 bound_to 6896
  152.2351  134.8284  160.0519 H   0  0  0  0  0  0  0  0  0  0  0  0  # atno 6909 bound_to 6896
  145.8252  139.3107  143.1020 H   0  0  0  0  0  0  0  0  0  0  0  0  # atno 7974 bound_to 7965
  154.4182  140.1162  156.5413 H   0  0  0  0  0  0  0  0  0  0  0  0  # atno 8008 bound_to 7997
  155.6505  140.3496  155.4727 H   0  0  0  0  0  0  0  0  0  0  0  0  # atno 8009 bound_to 7997
  155.9796  140.1157  157.0728 H   0  0  0  0  0  0  0  0  0  0  0  0  # atno 8010 bound_to 7997
  139.9014  144.6327  150.8633 H   0  0  0  0  0  0  0  0  0  0  0  0  # atno 10167 bound_to 10162
  157.6685  131.0840  150.5940 H   0  0  0  0  0  0  0  0  0  0  0  0  # atno 10718 bound_to 10713
  153.1308  135.6740  153.9181 H   0  0  0  0  0  0  0  0  0  0  0  0  # atno 10763 bound_to 10752
  153.8668  135.3074  155.3441 H   0  0  0  0  0  0  0  0  0  0  0  0  # atno 10764 bound_to 10752
  154.7705  135.4941  153.9722 H   0  0  0  0  0  0  0  0  0  0  0  0  # atno 10765 bound_to 10752
  141.1282  133.8376  157.1065 H   0  0  0  0  0  0  0  0  0  0  0  0  # atno 11005 bound_to 11000
  145.9631  140.8819  143.0200 LP  0  0  0  0  0  0  0  0  0  0  0  0  # atno 17320 bound_to 7965
  144.6744  140.1841  143.7403 LP  0  0  0  0  0  0  0  0  0  0  0  0  # atno 17321 bound_to 7965
  140.7706  143.3434  151.2161 LP  0  0  0  0  0  0  0  0  0  0  0  0  # atno 17342 bound_to 10162
  139.7022  143.9514  152.2910 LP  0  0  0  0  0  0  0  0  0  0  0  0  # atno 17343 bound_to 10162
  156.6241  130.4414  149.5811 LP  0  0  0  0  0  0  0  0  0  0  0  0  # atno 17370 bound_to 10713
  156.2333  130.6807  151.1484 LP  0  0  0  0  0  0  0  0  0  0  0  0  # atno 17371 bound_to 10713
  140.0301  134.9905  157.0764 LP  0  0  0  0  0  0  0  0  0  0  0  0  # atno 17394 bound_to 11000
  140.4298  134.1792  155.7167 LP  0  0  0  0  0  0  0  0  0  0  0  0  # atno 17395 bound_to 11000

$$$$
