AV-unprocessed.smi:21|AV-procd|sdf|129|dock7
  -GOLD-   2262015313D 1   1.00000     0.00000
 Structure written by MMmdl.
 62 65  0  0  0  0  0  0  0  0  2 V2000
  146.6290  129.8886  152.6133 C   0  0  0  0  0  0  0  0  0  0  0  0
  147.7645  130.6251  153.0376 O   0  0  0  0  0  0  0  0  0  0  0  0
  147.4392  131.7629  153.8219 C   0  0  1  0  0  0  0  0  0  0  0  0
  148.6929  132.3500  154.4558 C   0  0  0  0  0  0  0  0  0  0  0  0
  148.2805  133.7938  154.7510 C   0  0  1  0  0  0  0  0  0  0  0  0
  149.4797  134.7588  154.8798 C   0  0  0  0  0  0  0  0  0  0  0  0
  149.3948  135.6455  156.0395 N   0  0  0  0  0  0  0  0  0  0  0  0
  149.6948  135.0700  157.3433 C   0  0  0  0  0  0  0  0  0  0  0  0
  149.8365  136.9212  155.9192 C   0  0  0  0  0  0  0  0  0  0  0  0
  149.6162  137.5372  154.7305 N   0  0  0  0  0  0  0  0  0  0  0  0
  150.0468  138.7860  154.5295 C   0  0  0  0  0  0  0  0  0  0  0  0
  150.7077  139.5858  155.3684 N   0  0  0  0  0  0  0  0  0  0  0  0
  150.9188  138.9766  156.5699 C   0  0  0  0  0  0  0  0  0  0  0  0
  150.5146  137.6607  156.9328 C   0  0  0  0  0  0  0  0  0  0  0  0
  150.8971  137.3982  158.2443 N   0  0  0  0  0  0  0  0  0  0  0  0
  151.5016  138.4887  158.6285 C   0  0  0  0  0  0  0  0  0  0  0  0
  151.5711  139.4821  157.6794 N   0  0  0  0  0  0  0  0  0  0  0  0
  152.1970  140.7836  157.8227 C   0  0  0  0  0  0  0  0  0  0  0  0
  151.2199  141.8860  158.3002 C   0  0  2  0  0  0  0  0  0  0  0  0
  150.1500  142.2517  157.2380 C   0  0  0  0  0  0  0  0  0  0  0  0
  150.5772  143.3075  156.4006 O   0  0  0  0  0  0  0  0  0  0  0  0
  152.0183  143.1121  158.8129 C   0  0  1  0  0  0  0  0  0  0  0  0
  151.1902  144.3302  159.2101 C   0  0  0  0  0  0  0  0  0  0  0  0
  152.0626  144.9855  160.2711 C   0  0  0  0  0  0  0  0  0  0  0  0
  152.5703  143.8714  160.9850 O   0  0  0  0  0  0  0  0  0  0  0  0
  152.9046  142.8564  160.0453 C   0  0  0  0  0  0  0  0  0  0  0  0
  147.3907  134.1768  153.6305 N   0  3  2  0  0  0  0  0  0  0  0  0
  146.3219  135.1277  154.0079 C   0  0  0  0  0  0  0  0  0  0  0  0
  146.8916  132.9341  152.9947 C   0  0  0  0  0  0  0  0  0  0  0  0
  146.7364  131.5013  154.6154 H   0  0  0  0  0  0  0  0  0  0  0  0
  147.6800  133.7889  155.6619 H   0  0  0  0  0  0  0  0  0  0  0  0
  146.9522  129.0244  152.0332 H   0  0  0  0  0  0  0  0  0  0  0  0
  145.9741  130.4888  151.9808 H   0  0  0  0  0  0  0  0  0  0  0  0
  146.0545  129.5238  153.4656 H   0  0  0  0  0  0  0  0  0  0  0  0
  149.0092  131.8085  155.3481 H   0  0  0  0  0  0  0  0  0  0  0  0
  149.5168  132.3301  153.7406 H   0  0  0  0  0  0  0  0  0  0  0  0
  150.3976  134.1748  154.9576 H   0  0  0  0  0  0  0  0  0  0  0  0
  149.5911  135.3584  153.9770 H   0  0  0  0  0  0  0  0  0  0  0  0
  149.1964  135.6254  158.1384 H   0  0  0  0  0  0  0  0  0  0  0  0
  150.7686  135.0845  157.5338 H   0  0  0  0  0  0  0  0  0  0  0  0
  149.3546  134.0357  157.3991 H   0  0  0  0  0  0  0  0  0  0  0  0
  149.8357  139.2026  153.5554 H   0  0  0  0  0  0  0  0  0  0  0  0
  151.9277  138.5944  159.6155 H   0  0  0  0  0  0  0  0  0  0  0  0
  153.0217  140.6771  158.5284 H   0  0  0  0  0  0  0  0  0  0  0  0
  152.6434  141.0598  156.8668 H   0  0  0  0  0  0  0  0  0  0  0  0
  150.6922  141.4964  159.1726 H   0  0  0  0  0  0  0  0  0  0  0  0
  149.9302  141.4033  156.5909 H   0  0  0  0  0  0  0  0  0  0  0  0
  149.2095  142.5325  157.7124 H   0  0  0  0  0  0  0  0  0  0  0  0
  149.8938  143.9595  156.3709 H   0  0  0  0  0  0  0  0  0  0  0  0
  152.6937  143.4275  158.0154 H   0  0  0  0  0  0  0  0  0  0  0  0
  150.9782  144.9928  158.3706 H   0  0  0  0  0  0  0  0  0  0  0  0
  150.2401  144.0419  159.6583 H   0  0  0  0  0  0  0  0  0  0  0  0
  152.8857  145.5392  159.8174 H   0  0  0  0  0  0  0  0  0  0  0  0
  151.5046  145.6612  160.9197 H   0  0  0  0  0  0  0  0  0  0  0  0
  152.7619  141.8717  160.4895 H   0  0  0  0  0  0  0  0  0  0  0  0
  153.9590  142.9433  159.7799 H   0  0  0  0  0  0  0  0  0  0  0  0
  145.6466  134.6896  154.7443 H   0  0  0  0  0  0  0  0  0  0  0  0
  145.7373  135.4106  153.1321 H   0  0  0  0  0  0  0  0  0  0  0  0
  146.7481  136.0366  154.4332 H   0  0  0  0  0  0  0  0  0  0  0  0
  147.2883  132.9015  151.9793 H   0  0  0  0  0  0  0  0  0  0  0  0
  145.8035  132.8993  152.9224 H   0  0  0  0  0  0  0  0  0  0  0  0
  147.9700  134.6330  152.9401 H   0  0  0  0  0  0  0  0  0  0  0  0
  1  2  1  0  0  0  0
  1 32  1  0  0  0  0
  1 33  1  0  0  0  0
  1 34  1  0  0  0  0
  2  3  1  0  0  0  0
  3 30  1  0  0  0  0
  3 29  1  0  0  0  0
  3  4  1  0  0  0  0
  4  5  1  0  0  0  0
  4 35  1  0  0  0  0
  4 36  1  0  0  0  0
  5 31  1  0  0  0  0
  5  6  1  0  0  0  0
  5 27  1  0  0  0  0
  6  7  1  0  0  0  0
  6 37  1  0  0  0  0
  6 38  1  0  0  0  0
  7  8  1  0  0  0  0
  7  9  1  0  0  0  0
  8 39  1  0  0  0  0
  8 40  1  0  0  0  0
  8 41  1  0  0  0  0
  9 14  1  0  0  0  0
  9 10  2  0  0  0  0
 10 11  1  0  0  0  0
 11 12  2  0  0  0  0
 11 42  1  0  0  0  0
 12 13  1  0  0  0  0
 13 17  1  0  0  0  0
 13 14  2  0  0  0  0
 14 15  1  0  0  0  0
 15 16  2  0  0  0  0
 16 17  1  0  0  0  0
 16 43  1  0  0  0  0
 17 18  1  0  0  0  0
 18 19  1  0  0  0  0
 18 44  1  0  0  0  0
 18 45  1  0  0  0  0
 19 20  1  0  0  0  0
 19 22  1  0  0  0  0
 19 46  1  0  0  0  0
 20 21  1  0  0  0  0
 20 47  1  0  0  0  0
 20 48  1  0  0  0  0
 21 49  1  0  0  0  0
 22 26  1  0  0  0  0
 22 23  1  0  0  0  0
 22 50  1  0  0  0  0
 23 24  1  0  0  0  0
 23 51  1  0  0  0  0
 23 52  1  0  0  0  0
 24 25  1  0  0  0  0
 24 53  1  0  0  0  0
 24 54  1  0  0  0  0
 25 26  1  0  0  0  0
 26 55  1  0  0  0  0
 26 56  1  0  0  0  0
 27 28  1  0  0  0  0
 27 29  1  0  0  0  0
 27 62  1  0  0  0  0
 28 57  1  0  0  0  0
 28 58  1  0  0  0  0
 28 59  1  0  0  0  0
 29 60  1  0  0  0  0
 29 61  1  0  0  0  0
M  CHG  1  27   1
M  END
> <s_m_source_file>
AV-unprocessed.smi

> <i_m_source_file_index>
21

> <i_lp_mmshare_version>
43012

> <i_f3d_flags>
0

> <s_epik_input>
W0NIM11PW0NASF0xW0NIMl1bQ0BIXShOKFtDSDNdKVtDSDJdMSlbQ0gyXU4oW0NIM10pYyhuW2NIXW4yKWMoYzIzKW5bY0hdbjNbQ0gyXVtDQEhdKFtDSDJdW09IXSlbQ0BASF00W0NIMl1bQ0gyXU9bQ0gyXTQ=

> <s_epik_cmdline>
J2VwaWtfcHl0aG9uJywgJy1waCcsICc3LjAnLCAnLXRuJywgJzgnLCAnLW1hJywgJzIwMCcsICctbWV0YWxfYmluZGluZycsICctaW1hZScsICc8aW5maWxlLm1hZT4nLCAnLW9tYWUnLCAnPG91dGZpbGUubWFlPic=

> <r_lp_tautomer_probability>
1

> <r_epik_Ionization_Penalty>
0.0157465

> <r_epik_Ionization_Penalty_Charging>
0.015354

> <r_epik_Ionization_Penalty_Neutral>
0.000392529

> <r_epik_State_Penalty>
0.0120612

> <r_epik_Charging_Adjusted_Penalty>
0.0274152

> <i_epik_Tot_Q>
1

> <i_epik_Tot_abs_Q>
1

> <r_epik_Metal_State_Penalty>
0.0121253

> <b_epik_Metal_Only>
0

> <s_lp_Force_Field>
OPLS_2005

> <r_lp_Energy>
59.3761

> <b_lp_Chiralities_Consistent>
1

> <s_lp_Variant>
AV-unprocessed.smi:21-9

> <Gold.Version>
5.8.1

> <Gold.Id.Protein>
6NUR|6NUR_protein|mol2

> <Gold.PLP.Fitness>
50.0953

> <Gold.PLP.PLP>
-41.5533

> <Gold.PLP.part.hbond>
-1.8786

> <Gold.PLP.part.metal>
0.0000

> <Gold.PLP.part.buried>
-5.5713

> <Gold.PLP.part.nonpolar>
-35.6150

> <Gold.PLP.part.repulsive>
1.9741

> <Gold.PLP.ligand.clash>
0.0680

> <Gold.PLP.ligand.torsion>
2.2666

> <Gold.PLP.Chemscore.Hbond>
3.0650

> <Gold.PLP.Chemscore.CHOScore>
1.0000

> <Gold.PLP.Chemscore.Metal>
0.0000

> <Gold.Chemscore.Hbonds>
donor molecule, donor type, donor heavy atom, donor atom, acceptor molecule, acceptor atom, score
      L1  H    21    49       P1  8028  0.76
      L1  H    27    62       P1  7948  1.50
      L1  C    11    42       P1  7957  0.97

> <Gold.PLP.Chemscore.Internal.Correction>
0.9483

> <Gold.Rescore>
     Score         DG    S(hbond)    S(metal)    S(lipo)     H(rot)  DE(clash)    DE(int)     intcor
     11.34     -15.06       1.93        0.00     100.01       3.35       0.04       3.68       ----

> <Gold.Chemscore.Fitness>
11.3431

> <Gold.Chemscore.DG>
-15.0623

> <Gold.Chemscore.ZeroCoef>
-5.4800

> <Gold.Chemscore.Hbond>
1.9296

> <Gold.Chemscore.Metal>
0.0000

> <Gold.Chemscore.Lipo>
100.0104

> <Gold.Chemscore.Internal_Hbond>
0.0000

> <Gold.Chemscore.DEClash>
0.0396

> <Gold.Chemscore.DEInternal>
3.6796

> <Gold.Chemscore.Rot>
3.3452

> <Gold.Chemscore.Internal.Correction>
   9.000000E+99

> <Gold.Chemscore.Hbonds>
donor molecule, donor type, donor heavy atom, donor atom, acceptor molecule, acceptor atom, score
      L1  H    21    49       P1  8028  0.74
      L1  H    27    62       P1  7948  0.58

> <Gold.Chemscore.Hbond.Weighted>
-6.4447

> <Gold.Chemscore.Metal.Weighted>
-0.0000

> <Gold.Chemscore.Lipo.Weighted>
-11.7012

> <Gold.Chemscore.Internal_Hbond.Weighted>
0.0000

> <Gold.Chemscore.DEClash.Weighted>
0.0396

> <Gold.Chemscore.DEInternal.Weighted>
3.6796

> <Gold.Chemscore.Rot.Weighted>
8.5636

> <Gold.Chemscore.Internal.Correction.Weighted>
   9.000000E+99

> <Gold.Protein.RotatedTorsions>
[ 6907 6896 6895 6894 ] final -101.97 input  -60.11 | X-H torsion
[ 7974 7965 7964 7962 ] final  -88.50 input  175.53 | X-H torsion
[ 8008 7997 7996 7995 ] final  -44.45 input   59.86 | X-H torsion
[ 10167 10162 10161 10158 ] final -119.93 input  -65.29 | X-H torsion
[ 10718 10713 10712 10709 ] final   -7.26 input   66.30 | X-H torsion
[ 10763 10752 10751 10750 ] final    7.44 input  -60.55 | X-H torsion
[ 11005 11000 10999 10996 ] final   27.23 input  -57.11 | X-H torsion

> <Gold.Protein.ActiveResidues>
 VAL166  LYS551  ARG553  GLY616  TRP617  ASP618  TYR619  PRO620  LYS621  CYS622 
 ASP623  PHE694  ASN695  SER759  ASP760  ASP761  ALA762  ILE779  LEU786  VAL792 
 PHE793  MET794  SER795  GLU796  ALA797  LYS798  CYS799  TRP800  GLU811  SER814 

> <Gold.Protein.RotatedAtoms>
  150.7176  134.0653  159.3845 H   0  0  0  0  0  0  0  0  0  0  0  0  # atno 6907 bound_to 6896
  151.8634  135.0514  160.0481 H   0  0  0  0  0  0  0  0  0  0  0  0  # atno 6908 bound_to 6896
  152.2700  133.5338  159.5470 H   0  0  0  0  0  0  0  0  0  0  0  0  # atno 6909 bound_to 6896
  145.4523  140.9561  143.2016 H   0  0  0  0  0  0  0  0  0  0  0  0  # atno 7974 bound_to 7965
  154.3997  140.1422  156.3685 H   0  0  0  0  0  0  0  0  0  0  0  0  # atno 8008 bound_to 7997
  155.8114  140.3472  155.5439 H   0  0  0  0  0  0  0  0  0  0  0  0  # atno 8009 bound_to 7997
  155.8382  140.0922  157.1741 H   0  0  0  0  0  0  0  0  0  0  0  0  # atno 8010 bound_to 7997
  140.0413  143.5151  152.2128 H   0  0  0  0  0  0  0  0  0  0  0  0  # atno 10167 bound_to 10162
  156.7198  130.5147  149.5871 H   0  0  0  0  0  0  0  0  0  0  0  0  # atno 10718 bound_to 10713
  153.2363  135.6898  153.7833 H   0  0  0  0  0  0  0  0  0  0  0  0  # atno 10763 bound_to 10752
  153.6979  135.3302  155.3218 H   0  0  0  0  0  0  0  0  0  0  0  0  # atno 10764 bound_to 10752
  154.8336  135.4560  154.1268 H   0  0  0  0  0  0  0  0  0  0  0  0  # atno 10765 bound_to 10752
  140.3285  134.2464  155.7706 H   0  0  0  0  0  0  0  0  0  0  0  0  # atno 11005 bound_to 11000
  144.8054  139.6061  143.7053 LP  0  0  0  0  0  0  0  0  0  0  0  0  # atno 17320 bound_to 7965
  146.2498  139.6174  142.9435 LP  0  0  0  0  0  0  0  0  0  0  0  0  # atno 17321 bound_to 7965
  139.6012  144.7583  151.3168 LP  0  0  0  0  0  0  0  0  0  0  0  0  # atno 17342 bound_to 10162
  140.7259  143.7006  150.7848 LP  0  0  0  0  0  0  0  0  0  0  0  0  # atno 17343 bound_to 10162
  156.1603  130.6369  151.0710 LP  0  0  0  0  0  0  0  0  0  0  0  0  # atno 17370 bound_to 10713
  157.6903  131.0812  150.7127 LP  0  0  0  0  0  0  0  0  0  0  0  0  # atno 17371 bound_to 10713
  141.2069  133.7820  157.0149 LP  0  0  0  0  0  0  0  0  0  0  0  0  # atno 17394 bound_to 11000
  140.0881  134.9609  157.1732 LP  0  0  0  0  0  0  0  0  0  0  0  0  # atno 17395 bound_to 11000

$$$$
