AV-unprocessed.smi:2141|AV-procd|sdf|8718|dock7
  -GOLD-   2272011483D 1   1.00000     0.00000
 Structure written by MMmdl.
 42 43  0  0  0  0  0  0  0  0  1 V2000
  154.0003  133.4864  165.3997 C   0  0  0  0  0  0  0  0  0  0  0  0
  154.9598  132.9015  163.9422 S   0  0  0  0  0  0  0  0  0  0  0  0
  156.1055  132.1117  164.4184 O   0  0  0  0  0  0  0  0  0  0  0  0
  154.0158  132.3288  162.9709 O   0  0  0  0  0  0  0  0  0  0  0  0
  155.5767  134.3617  163.2565 N   0  0  0  0  0  0  0  0  0  0  0  0
  154.6729  135.4016  162.7519 C   0  0  0  0  0  0  0  0  0  0  0  0
  154.7928  135.5922  161.2258 C   0  0  0  0  0  0  0  0  0  0  0  0
  154.0710  136.8408  160.7128 C   0  0  0  0  0  0  0  0  0  0  0  0
  153.0722  136.7143  160.0050 O   0  0  0  0  0  0  0  0  0  0  0  0
  154.5952  138.0183  161.0979 N   0  0  0  0  0  0  0  0  0  0  0  0
  154.0860  139.3227  160.8635 C   0  0  0  0  0  0  0  0  0  0  0  0
  154.4269  140.4601  161.6308 C   0  0  0  0  0  0  0  0  0  0  0  0
  153.8520  141.7021  161.2998 C   0  0  0  0  0  0  0  0  0  0  0  0
  152.9446  141.7790  160.2168 C   0  0  0  0  0  0  0  0  0  0  0  0
  152.3657  143.0165  159.8626 N   0  0  0  0  0  0  0  0  0  0  0  0
  152.6617  143.4928  158.5139 C   0  0  0  0  0  0  0  0  0  0  0  0
  151.7365  144.6657  158.1450 C   0  0  0  0  0  0  0  0  0  0  0  0
  151.8364  145.6890  159.1300 O   0  0  0  0  0  0  0  0  0  0  0  0
  151.4337  145.2280  160.4152 C   0  0  0  0  0  0  0  0  0  0  0  0
  152.3542  144.0808  160.8643 C   0  0  0  0  0  0  0  0  0  0  0  0
  152.6117  140.6828  159.4920 N   0  0  0  0  0  0  0  0  0  0  0  0
  153.1613  139.4942  159.8150 C   0  0  0  0  0  0  0  0  0  0  0  0
  153.5425  132.6312  165.8960 H   0  0  0  0  0  0  0  0  0  0  0  0
  153.2183  134.1719  165.0735 H   0  0  0  0  0  0  0  0  0  0  0  0
  154.6623  133.9937  166.1002 H   0  0  0  0  0  0  0  0  0  0  0  0
  156.4434  134.2446  162.7313 H   0  0  0  0  0  0  0  0  0  0  0  0
  153.6446  135.1554  163.0189 H   0  0  0  0  0  0  0  0  0  0  0  0
  154.9068  136.3372  163.2599 H   0  0  0  0  0  0  0  0  0  0  0  0
  155.8454  135.6399  160.9432 H   0  0  0  0  0  0  0  0  0  0  0  0
  154.3826  134.7203  160.7143 H   0  0  0  0  0  0  0  0  0  0  0  0
  155.3816  137.9663  161.7292 H   0  0  0  0  0  0  0  0  0  0  0  0
  155.1084  140.4047  162.4656 H   0  0  0  0  0  0  0  0  0  0  0  0
  154.1240  142.5787  161.8685 H   0  0  0  0  0  0  0  0  0  0  0  0
  153.7034  143.8141  158.4761 H   0  0  0  0  0  0  0  0  0  0  0  0
  152.5472  142.7034  157.7723 H   0  0  0  0  0  0  0  0  0  0  0  0
  152.0212  145.0771  157.1765 H   0  0  0  0  0  0  0  0  0  0  0  0
  150.7016  144.3313  158.0567 H   0  0  0  0  0  0  0  0  0  0  0  0
  151.4902  146.0543  161.1238 H   0  0  0  0  0  0  0  0  0  0  0  0
  150.3923  144.9030  160.3877 H   0  0  0  0  0  0  0  0  0  0  0  0
  152.0072  143.6934  161.8231 H   0  0  0  0  0  0  0  0  0  0  0  0
  153.3697  144.4519  161.0094 H   0  0  0  0  0  0  0  0  0  0  0  0
  152.8607  138.6542  159.2056 H   0  0  0  0  0  0  0  0  0  0  0  0
  1  2  1  0  0  0  0
  1 23  1  0  0  0  0
  1 24  1  0  0  0  0
  1 25  1  0  0  0  0
  2  3  2  0  0  0  0
  2  4  2  0  0  0  0
  2  5  1  0  0  0  0
  5  6  1  0  0  0  0
  5 26  1  0  0  0  0
  6  7  1  0  0  0  0
  6 27  1  0  0  0  0
  6 28  1  0  0  0  0
  7  8  1  0  0  0  0
  7 29  1  0  0  0  0
  7 30  1  0  0  0  0
  8  9  2  0  0  0  0
  8 10  1  0  0  0  0
 10 11  1  0  0  0  0
 10 31  1  0  0  0  0
 11 22  1  0  0  0  0
 11 12  2  0  0  0  0
 12 13  1  0  0  0  0
 12 32  1  0  0  0  0
 13 14  2  0  0  0  0
 13 33  1  0  0  0  0
 14 15  1  0  0  0  0
 14 21  1  0  0  0  0
 15 20  1  0  0  0  0
 15 16  1  0  0  0  0
 16 17  1  0  0  0  0
 16 34  1  0  0  0  0
 16 35  1  0  0  0  0
 17 18  1  0  0  0  0
 17 36  1  0  0  0  0
 17 37  1  0  0  0  0
 18 19  1  0  0  0  0
 19 20  1  0  0  0  0
 19 38  1  0  0  0  0
 19 39  1  0  0  0  0
 20 40  1  0  0  0  0
 20 41  1  0  0  0  0
 21 22  2  0  0  0  0
 22 42  1  0  0  0  0
M  END
> <s_m_source_file>
AV-unprocessed.smi

> <i_m_source_file_index>
2141

> <i_lp_mmshare_version>
43012

> <i_f3d_flags>
0

> <s_epik_input>
W0NIM11TKD1PKSg9TylbTkhdW0NIMl1bQ0gyXUMoPU8pW05IXWMxW2NIXVtjSF1jKG5bY0hdMSlOMltDSDJdW0NIMl1PW0NIMl1bQ0gyXTI=

> <s_epik_cmdline>
J2VwaWtfcHl0aG9uJywgJy1waCcsICc3LjAnLCAnLXRuJywgJzgnLCAnLW1hJywgJzIwMCcsICctbWV0YWxfYmluZGluZycsICctaW1hZScsICc8aW5maWxlLm1hZT4nLCAnLW9tYWUnLCAnPG91dGZpbGUubWFlPic=

> <r_lp_tautomer_probability>
1

> <r_epik_Ionization_Penalty>
0.000610192

> <r_epik_Ionization_Penalty_Charging>
0

> <r_epik_Ionization_Penalty_Neutral>
0.000610192

> <r_epik_State_Penalty>
0.000370803

> <r_epik_Charging_Adjusted_Penalty>
0.000370803

> <i_epik_Tot_Q>
0

> <i_epik_Tot_abs_Q>
0

> <r_epik_Metal_State_Penalty>
0.0170256

> <b_epik_Metal_Only>
0

> <s_lp_Force_Field>
OPLS_2005

> <r_lp_Energy>
9.95274

> <b_lp_Chiralities_Consistent>
1

> <s_lp_Variant>
AV-unprocessed.smi:2141-1

> <Gold.Version>
5.8.1

> <Gold.Id.Protein>
6NUR|6NUR_protein|mol2

> <Gold.PLP.Fitness>
45.8617

> <Gold.PLP.PLP>
-43.5088

> <Gold.PLP.part.hbond>
-1.8970

> <Gold.PLP.part.metal>
0.0000

> <Gold.PLP.part.buried>
-6.7743

> <Gold.PLP.part.nonpolar>
-36.3001

> <Gold.PLP.part.repulsive>
0.1159

> <Gold.PLP.ligand.clash>
0.0000

> <Gold.PLP.ligand.torsion>
1.0116

> <Gold.PLP.Chemscore.Hbond>
1.0000

> <Gold.PLP.Chemscore.CHOScore>
0.0000

> <Gold.PLP.Chemscore.Metal>
0.0000

> <Gold.Chemscore.Hbonds>
donor molecule, donor type, donor heavy atom, donor atom, acceptor molecule, acceptor atom, score
      P1  H  6896  6907       L1     9  1.00

> <Gold.PLP.Chemscore.Internal.Correction>
1.3762

> <Gold.Rescore>
     Score         DG    S(hbond)    S(metal)    S(lipo)     H(rot)  DE(clash)    DE(int)     intcor
     13.51     -15.78       1.00        0.00     103.24       1.99       0.00       2.27       ----

> <Gold.Chemscore.Fitness>
13.5107

> <Gold.Chemscore.DG>
-15.7843

> <Gold.Chemscore.ZeroCoef>
-5.4800

> <Gold.Chemscore.Hbond>
0.9959

> <Gold.Chemscore.Metal>
0.0000

> <Gold.Chemscore.Lipo>
103.2377

> <Gold.Chemscore.Internal_Hbond>
0.0000

> <Gold.Chemscore.DEClash>
0.0029

> <Gold.Chemscore.DEInternal>
2.2708

> <Gold.Chemscore.Rot>
1.9925

> <Gold.Chemscore.Internal.Correction>
   9.000000E+99

> <Gold.Chemscore.Hbonds>
donor molecule, donor type, donor heavy atom, donor atom, acceptor molecule, acceptor atom, score
      P1  H  6896  6907       L1     9  0.96

> <Gold.Chemscore.Hbond.Weighted>
-3.3263

> <Gold.Chemscore.Metal.Weighted>
-0.0000

> <Gold.Chemscore.Lipo.Weighted>
-12.0788

> <Gold.Chemscore.Internal_Hbond.Weighted>
0.0000

> <Gold.Chemscore.DEClash.Weighted>
0.0029

> <Gold.Chemscore.DEInternal.Weighted>
2.2708

> <Gold.Chemscore.Rot.Weighted>
5.1008

> <Gold.Chemscore.Internal.Correction.Weighted>
   9.000000E+99

> <Gold.Protein.RotatedTorsions>
[ 6907 6896 6895 6894 ] final   30.28 input  -60.11 | X-H torsion
[ 7974 7965 7964 7962 ] final   -4.94 input  175.53 | X-H torsion
[ 8008 7997 7996 7995 ] final  -30.90 input   59.86 | X-H torsion
[ 10167 10162 10161 10158 ] final  -19.92 input  -65.29 | X-H torsion
[ 10718 10713 10712 10709 ] final   72.13 input   66.30 | X-H torsion
[ 10763 10752 10751 10750 ] final -140.12 input  -60.55 | X-H torsion
[ 11005 11000 10999 10996 ] final   34.04 input  -57.11 | X-H torsion

> <Gold.Protein.ActiveResidues>
 VAL166  LYS551  ARG553  GLY616  TRP617  ASP618  TYR619  PRO620  LYS621  CYS622 
 ASP623  PHE694  ASN695  SER759  ASP760  ASP761  ALA762  ILE779  LEU786  VAL792 
 PHE793  MET794  SER795  GLU796  ALA797  LYS798  CYS799  TRP800  GLU811  SER814 

> <Gold.Protein.RotatedAtoms>
  152.0437  134.9696  160.0573 H   0  0  0  0  0  0  0  0  0  0  0  0  # atno 6907 bound_to 6896
  152.1125  133.4303  159.4646 H   0  0  0  0  0  0  0  0  0  0  0  0  # atno 6908 bound_to 6896
  150.6844  134.2550  159.4569 H   0  0  0  0  0  0  0  0  0  0  0  0  # atno 6909 bound_to 6896
  146.2363  140.1946  142.8333 H   0  0  0  0  0  0  0  0  0  0  0  0  # atno 7974 bound_to 7965
  154.4233  140.1779  156.1481 H   0  0  0  0  0  0  0  0  0  0  0  0  # atno 8008 bound_to 7997
  155.9937  140.3366  155.6753 H   0  0  0  0  0  0  0  0  0  0  0  0  # atno 8009 bound_to 7997
  155.6337  140.0672  157.2631 H   0  0  0  0  0  0  0  0  0  0  0  0  # atno 8010 bound_to 7997
  140.7272  143.4772  151.0166 H   0  0  0  0  0  0  0  0  0  0  0  0  # atno 10167 bound_to 10162
  157.6486  130.9563  150.0885 H   0  0  0  0  0  0  0  0  0  0  0  0  # atno 10718 bound_to 10713
  154.8588  135.3562  154.5656 H   0  0  0  0  0  0  0  0  0  0  0  0  # atno 10763 bound_to 10752
  153.6270  135.7004  153.5294 H   0  0  0  0  0  0  0  0  0  0  0  0  # atno 10764 bound_to 10752
  153.3081  135.4186  155.1271 H   0  0  0  0  0  0  0  0  0  0  0  0  # atno 10765 bound_to 10752
  140.2569  134.3237  155.7871 H   0  0  0  0  0  0  0  0  0  0  0  0  # atno 11005 bound_to 11000
  144.9830  140.8477  143.5385 LP  0  0  0  0  0  0  0  0  0  0  0  0  # atno 17320 bound_to 7965
  145.1942  139.2285  143.5227 LP  0  0  0  0  0  0  0  0  0  0  0  0  # atno 17321 bound_to 7965
  139.8468  143.7491  152.3179 LP  0  0  0  0  0  0  0  0  0  0  0  0  # atno 17342 bound_to 10162
  139.7659  144.7492  151.0296 LP  0  0  0  0  0  0  0  0  0  0  0  0  # atno 17343 bound_to 10162
  156.1841  130.3651  149.8996 LP  0  0  0  0  0  0  0  0  0  0  0  0  # atno 17370 bound_to 10713
  156.6941  130.8907  151.3592 LP  0  0  0  0  0  0  0  0  0  0  0  0  # atno 17371 bound_to 10713
  141.2195  133.7386  156.9126 LP  0  0  0  0  0  0  0  0  0  0  0  0  # atno 17394 bound_to 11000
  140.1502  134.9235  157.2583 LP  0  0  0  0  0  0  0  0  0  0  0  0  # atno 17395 bound_to 11000

$$$$
