AV-unprocessed.smi:3309|AV-procd|sdf|12716|dock2
  -GOLD-   2272019 53D 1   1.00000     0.00000
 Structure written by MMmdl.
 41 42  0  0  0  0  0  0  0  0  2 V2000
  147.3159  139.0898  155.5277 O   0  0  0  0  0  0  0  0  0  0  0  0
  147.4105  139.0307  154.3017 C   0  0  0  0  0  0  0  0  0  0  0  0
  146.7045  137.9202  153.5174 C   0  0  0  0  0  0  0  0  0  0  0  0
  146.4246  138.2985  152.0525 C   0  0  0  0  0  0  0  0  0  0  0  0
  146.3997  137.0997  151.1920 N   0  3  0  0  0  0  0  0  0  0  0  0
  145.3847  136.1021  151.5821 C   0  0  0  0  0  0  0  0  0  0  0  0
  144.7926  135.4067  150.3474 C   0  0  0  0  0  0  0  0  0  0  0  0
  144.9928  133.9711  150.3888 N   0  0  0  0  0  0  0  0  0  0  0  0
  144.0441  132.9701  150.3824 C   0  0  0  0  0  0  0  0  0  0  0  0
  144.7105  131.7790  150.4249 C   0  0  0  0  0  0  0  0  0  0  0  0
  146.0816  132.1590  150.4514 C   0  0  0  0  0  0  0  0  0  0  0  0
  146.2471  133.4720  150.4281 N   0  0  0  0  0  0  0  0  0  0  0  0
  148.1255  139.9041  153.5763 N   0  0  0  0  0  0  0  0  0  0  0  0
  148.8794  141.0312  154.1201 C   0  0  0  0  0  0  0  0  0  0  0  0
  150.0212  140.5381  155.0299 C   0  0  0  0  0  0  0  0  0  0  0  0
  149.9251  141.3606  156.3162 C   0  0  0  0  0  0  0  0  0  0  0  0
  148.4422  141.6950  156.4405 C   0  0  0  0  0  0  0  0  0  0  0  0
  147.9911  141.9345  154.9994 C   0  0  0  0  0  0  0  0  0  0  0  0
  147.3180  137.0181  153.5506 H   0  0  0  0  0  0  0  0  0  0  0  0
  145.7694  137.6837  154.0268 H   0  0  0  0  0  0  0  0  0  0  0  0
  145.4645  138.8104  151.9693 H   0  0  0  0  0  0  0  0  0  0  0  0
  147.1907  138.9849  151.6877 H   0  0  0  0  0  0  0  0  0  0  0  0
  146.2177  137.3887  150.2415 H   0  0  0  0  0  0  0  0  0  0  0  0
  145.8446  135.3664  152.2435 H   0  0  0  0  0  0  0  0  0  0  0  0
  144.5938  136.5962  152.1481 H   0  0  0  0  0  0  0  0  0  0  0  0
  143.7227  135.6065  150.2748 H   0  0  0  0  0  0  0  0  0  0  0  0
  145.2502  135.7922  149.4349 H   0  0  0  0  0  0  0  0  0  0  0  0
  142.9859  133.1845  150.3488 H   0  0  0  0  0  0  0  0  0  0  0  0
  144.2840  130.7868  150.4337 H   0  0  0  0  0  0  0  0  0  0  0  0
  146.9550  131.5244  150.4858 H   0  0  0  0  0  0  0  0  0  0  0  0
  148.1547  139.7809  152.5745 H   0  0  0  0  0  0  0  0  0  0  0  0
  149.2983  141.6204  153.3020 H   0  0  0  0  0  0  0  0  0  0  0  0
  149.8908  139.4828  155.2753 H   0  0  0  0  0  0  0  0  0  0  0  0
  150.9980  140.6383  154.5556 H   0  0  0  0  0  0  0  0  0  0  0  0
  150.3101  140.8271  157.1856 H   0  0  0  0  0  0  0  0  0  0  0  0
  150.5006  142.2812  156.2083 H   0  0  0  0  0  0  0  0  0  0  0  0
  147.9064  140.8411  156.8572 H   0  0  0  0  0  0  0  0  0  0  0  0
  148.2568  142.5535  157.0867 H   0  0  0  0  0  0  0  0  0  0  0  0
  148.1716  142.9777  154.7365 H   0  0  0  0  0  0  0  0  0  0  0  0
  146.9227  141.7543  154.8720 H   0  0  0  0  0  0  0  0  0  0  0  0
  147.3090  136.6612  151.2291 H   0  0  0  0  0  0  0  0  0  0  0  0
  1  2  2  0  0  0  0
  2  3  1  0  0  0  0
  2 13  1  0  0  0  0
  3  4  1  0  0  0  0
  3 19  1  0  0  0  0
  3 20  1  0  0  0  0
  4  5  1  0  0  0  0
  4 21  1  0  0  0  0
  4 22  1  0  0  0  0
  5  6  1  0  0  0  0
  5 23  1  0  0  0  0
  5 41  1  0  0  0  0
  6  7  1  0  0  0  0
  6 24  1  0  0  0  0
  6 25  1  0  0  0  0
  7  8  1  0  0  0  0
  7 26  1  0  0  0  0
  7 27  1  0  0  0  0
  8 12  1  0  0  0  0
  8  9  1  0  0  0  0
  9 10  2  0  0  0  0
  9 28  1  0  0  0  0
 10 11  1  0  0  0  0
 10 29  1  0  0  0  0
 11 12  2  0  0  0  0
 11 30  1  0  0  0  0
 13 14  1  0  0  0  0
 13 31  1  0  0  0  0
 14 18  1  0  0  0  0
 14 15  1  0  0  0  0
 14 32  1  0  0  0  0
 15 16  1  0  0  0  0
 15 33  1  0  0  0  0
 15 34  1  0  0  0  0
 16 17  1  0  0  0  0
 16 35  1  0  0  0  0
 16 36  1  0  0  0  0
 17 18  1  0  0  0  0
 17 37  1  0  0  0  0
 17 38  1  0  0  0  0
 18 39  1  0  0  0  0
 18 40  1  0  0  0  0
M  CHG  1   5   1
M  END
> <s_m_source_file>
AV-unprocessed.smi

> <i_m_source_file_index>
3309

> <i_lp_mmshare_version>
43012

> <i_f3d_flags>
0

> <s_epik_input>
W0NIMl0xW0NIMl1bQ0gyXVtDSDJdW0NIXTFbTkhdQyg9TylbQ0gyXVtDSDJdW05IXVtDSDJdW0NIMl1uMltjSF1bY0hdW2NIXW4y

> <s_epik_cmdline>
J2VwaWtfcHl0aG9uJywgJy1waCcsICc3LjAnLCAnLXRuJywgJzgnLCAnLW1hJywgJzIwMCcsICctbWV0YWxfYmluZGluZycsICctaW1hZScsICc8aW5maWxlLm1hZT4nLCAnLW9tYWUnLCAnPG91dGZpbGUubWFlPic=

> <r_lp_tautomer_probability>
1

> <r_epik_Ionization_Penalty>
0.00584123

> <r_epik_Ionization_Penalty_Charging>
0.00583842

> <r_epik_Ionization_Penalty_Neutral>
2.81118e-06

> <r_epik_State_Penalty>
-0

> <r_epik_Charging_Adjusted_Penalty>
0.00583842

> <i_epik_Tot_Q>
1

> <i_epik_Tot_abs_Q>
1

> <r_epik_Metal_State_Penalty>
-0

> <b_epik_Metal_Only>
0

> <s_lp_Force_Field>
OPLS_2005

> <r_lp_Energy>
18.8454

> <b_lp_Chiralities_Consistent>
1

> <s_lp_Variant>
AV-unprocessed.smi:3309-1

> <Gold.Version>
5.8.1

> <Gold.Id.Protein>
6NUR|6NUR_protein|mol2

> <Gold.PLP.Fitness>
46.0032

> <Gold.PLP.PLP>
-34.2056

> <Gold.PLP.part.hbond>
-2.4322

> <Gold.PLP.part.metal>
0.0000

> <Gold.PLP.part.buried>
-0.2478

> <Gold.PLP.part.nonpolar>
-31.4352

> <Gold.PLP.part.repulsive>
0.3761

> <Gold.PLP.ligand.clash>
0.0000

> <Gold.PLP.ligand.torsion>
1.1513

> <Gold.PLP.Chemscore.Hbond>
2.6552

> <Gold.PLP.Chemscore.CHOScore>
2.0000

> <Gold.PLP.Chemscore.Metal>
0.0000

> <Gold.Chemscore.Hbonds>
donor molecule, donor type, donor heavy atom, donor atom, acceptor molecule, acceptor atom, score
      L1  H     5    41       P1  7948  2.00
      L1  H    13    31       P1  7957  0.68
      L1  C     9    28       P1 10186  1.00
      L1  C    11    30       P1 10747  1.00

> <Gold.PLP.Chemscore.Internal.Correction>
0.1346

> <Gold.Rescore>
     Score         DG    S(hbond)    S(metal)    S(lipo)     H(rot)  DE(clash)    DE(int)     intcor
     11.54     -15.61       1.77        0.00      85.59       2.27       0.48       3.60       ----

> <Gold.Chemscore.Fitness>
11.5403

> <Gold.Chemscore.DG>
-15.6124

> <Gold.Chemscore.ZeroCoef>
-5.4800

> <Gold.Chemscore.Hbond>
1.7721

> <Gold.Chemscore.Metal>
0.0000

> <Gold.Chemscore.Lipo>
85.5897

> <Gold.Chemscore.Internal_Hbond>
0.0000

> <Gold.Chemscore.DEClash>
0.4763

> <Gold.Chemscore.DEInternal>
3.5959

> <Gold.Chemscore.Rot>
2.2658

> <Gold.Chemscore.Internal.Correction>
   9.000000E+99

> <Gold.Chemscore.Hbonds>
donor molecule, donor type, donor heavy atom, donor atom, acceptor molecule, acceptor atom, score
      L1  H     5    41       P1  7948  1.00
      L1  H    13    31       P1  7957  0.65

> <Gold.Chemscore.Hbond.Weighted>
-5.9189

> <Gold.Chemscore.Metal.Weighted>
-0.0000

> <Gold.Chemscore.Lipo.Weighted>
-10.0140

> <Gold.Chemscore.Internal_Hbond.Weighted>
0.0000

> <Gold.Chemscore.DEClash.Weighted>
0.4763

> <Gold.Chemscore.DEInternal.Weighted>
3.5959

> <Gold.Chemscore.Rot.Weighted>
5.8005

> <Gold.Chemscore.Internal.Correction.Weighted>
   9.000000E+99

> <Gold.Protein.RotatedTorsions>
[ 6907 6896 6895 6894 ] final    6.03 input  -60.11 | X-H torsion
[ 7974 7965 7964 7962 ] final -155.36 input  175.53 | X-H torsion
[ 8008 7997 7996 7995 ] final  172.50 input   59.86 | X-H torsion
[ 10167 10162 10161 10158 ] final    2.69 input  -65.29 | X-H torsion
[ 10718 10713 10712 10709 ] final  -96.64 input   66.30 | X-H torsion
[ 10763 10752 10751 10750 ] final   -8.79 input  -60.55 | X-H torsion
[ 11005 11000 10999 10996 ] final   -2.88 input  -57.11 | X-H torsion

> <Gold.Protein.ActiveResidues>
 VAL166  LYS551  ARG553  GLY616  TRP617  ASP618  TYR619  PRO620  LYS621  CYS622 
 ASP623  PHE694  ASN695  SER759  ASP760  ASP761  ALA762  ILE779  LEU786  VAL792 
 PHE793  MET794  SER795  GLU796  ALA797  LYS798  CYS799  TRP800  GLU811  SER814 

> <Gold.Protein.RotatedAtoms>
  151.6670  135.0981  160.0190 H   0  0  0  0  0  0  0  0  0  0  0  0  # atno 6907 bound_to 6896
  152.3913  133.6679  159.6249 H   0  0  0  0  0  0  0  0  0  0  0  0  # atno 6908 bound_to 6896
  150.7828  133.8865  159.3342 H   0  0  0  0  0  0  0  0  0  0  0  0  # atno 6909 bound_to 6896
  144.7644  140.4260  143.5953 H   0  0  0  0  0  0  0  0  0  0  0  0  # atno 7974 bound_to 7965
  156.1168  140.1484  156.9261 H   0  0  0  0  0  0  0  0  0  0  0  0  # atno 8008 bound_to 7997
  154.4806  140.0880  156.7411 H   0  0  0  0  0  0  0  0  0  0  0  0  # atno 8009 bound_to 7997
  155.4499  140.3434  155.4302 H   0  0  0  0  0  0  0  0  0  0  0  0  # atno 8010 bound_to 7997
  140.6623  143.7272  150.7761 H   0  0  0  0  0  0  0  0  0  0  0  0  # atno 10167 bound_to 10162
  156.0066  130.5160  150.6256 H   0  0  0  0  0  0  0  0  0  0  0  0  # atno 10718 bound_to 10713
  153.4455  135.7014  153.6141 H   0  0  0  0  0  0  0  0  0  0  0  0  # atno 10763 bound_to 10752
  153.4498  135.3760  155.2277 H   0  0  0  0  0  0  0  0  0  0  0  0  # atno 10764 bound_to 10752
  154.8728  135.3994  154.3860 H   0  0  0  0  0  0  0  0  0  0  0  0  # atno 10765 bound_to 10752
  140.6632  133.9302  155.8449 H   0  0  0  0  0  0  0  0  0  0  0  0  # atno 11005 bound_to 11000
  145.6517  139.1566  143.2858 LP  0  0  0  0  0  0  0  0  0  0  0  0  # atno 17320 bound_to 7965
  146.1738  140.6605  142.9221 LP  0  0  0  0  0  0  0  0  0  0  0  0  # atno 17321 bound_to 7965
  140.0943  143.4848  152.2461 LP  0  0  0  0  0  0  0  0  0  0  0  0  # atno 17342 bound_to 10162
  139.5860  144.7531  151.3518 LP  0  0  0  0  0  0  0  0  0  0  0  0  # atno 17343 bound_to 10162
  157.4064  131.0817  151.1262 LP  0  0  0  0  0  0  0  0  0  0  0  0  # atno 17370 bound_to 10713
  157.1907  130.6350  149.5703 LP  0  0  0  0  0  0  0  0  0  0  0  0  # atno 17371 bound_to 10713
  141.0449  134.0568  157.3856 LP  0  0  0  0  0  0  0  0  0  0  0  0  # atno 17394 bound_to 11000
  139.9006  135.0163  156.7249 LP  0  0  0  0  0  0  0  0  0  0  0  0  # atno 17395 bound_to 11000

$$$$
