AV-unprocessed.smi:2752|AV-procd|sdf|10608|dock4
  -GOLD-   2272015 63D 1   1.00000     0.00000
 Structure written by MMmdl.
 34 35  0  0  0  0  0  0  0  0  1 V2000
  142.7347  135.2014  153.7173 C   0  0  0  0  0  0  0  0  0  0  0  0
  144.0567  134.9387  154.1597 O   0  0  0  0  0  0  0  0  0  0  0  0
  144.9969  134.7994  153.1031 C   0  0  1  0  0  0  0  0  0  0  0  0
  144.5220  133.8025  152.0368 C   0  0  0  0  0  0  0  0  0  0  0  0
  145.1238  134.3207  150.7359 C   0  0  0  0  0  0  0  0  0  0  0  0
  145.0204  135.8391  150.8647 C   0  0  0  0  0  0  0  0  0  0  0  0
  145.1743  136.1458  152.3680 C   0  0  2  0  0  0  0  0  0  0  0  0
  146.4855  136.7210  152.6587 N   0  0  0  0  0  0  0  0  0  0  0  0
  146.7028  137.7949  153.4311 C   0  0  0  0  0  0  0  0  0  0  0  0
  145.8017  138.4284  153.9816 O   0  0  0  0  0  0  0  0  0  0  0  0
  148.0154  138.0745  153.5151 N   0  0  0  0  0  0  0  0  0  0  0  0
  148.6440  139.1373  154.2169 C   0  0  0  0  0  0  0  0  0  0  0  0
  149.9407  138.8500  154.7009 C   0  0  0  0  0  0  0  0  0  0  0  0
  150.6512  139.8389  155.4089 C   0  0  0  0  0  0  0  0  0  0  0  0
  150.0447  141.0909  155.6130 C   0  0  0  0  0  0  0  0  0  0  0  0
  150.6888  142.0726  156.2877 F   0  0  0  0  0  0  0  0  0  0  0  0
  148.7515  141.2967  155.0985 C   0  0  0  0  0  0  0  0  0  0  0  0
  148.0691  140.3494  154.4204 N   0  0  0  0  0  0  0  0  0  0  0  0
  142.0722  135.2811  154.5790 H   0  0  0  0  0  0  0  0  0  0  0  0
  142.3639  134.3947  153.0841 H   0  0  0  0  0  0  0  0  0  0  0  0
  142.6738  136.1383  153.1628 H   0  0  0  0  0  0  0  0  0  0  0  0
  145.9594  134.4670  153.4984 H   0  0  0  0  0  0  0  0  0  0  0  0
  144.8189  132.7767  152.2569 H   0  0  0  0  0  0  0  0  0  0  0  0
  143.4336  133.8260  151.9637 H   0  0  0  0  0  0  0  0  0  0  0  0
  146.1718  134.0257  150.6707 H   0  0  0  0  0  0  0  0  0  0  0  0
  144.6116  133.9381  149.8527 H   0  0  0  0  0  0  0  0  0  0  0  0
  145.7473  136.3542  150.2353 H   0  0  0  0  0  0  0  0  0  0  0  0
  144.0310  136.1589  150.5352 H   0  0  0  0  0  0  0  0  0  0  0  0
  144.3943  136.8457  152.6747 H   0  0  0  0  0  0  0  0  0  0  0  0
  147.2832  136.2610  152.2458 H   0  0  0  0  0  0  0  0  0  0  0  0
  148.6372  137.4577  153.0140 H   0  0  0  0  0  0  0  0  0  0  0  0
  150.3908  137.8821  154.5339 H   0  0  0  0  0  0  0  0  0  0  0  0
  151.6429  139.6395  155.7873 H   0  0  0  0  0  0  0  0  0  0  0  0
  148.2514  142.2443  155.2333 H   0  0  0  0  0  0  0  0  0  0  0  0
  1  2  1  0  0  0  0
  1 19  1  0  0  0  0
  1 20  1  0  0  0  0
  1 21  1  0  0  0  0
  2  3  1  0  0  0  0
  3  7  1  0  0  0  0
  3  4  1  0  0  0  0
  3 22  1  0  0  0  0
  4  5  1  0  0  0  0
  4 23  1  0  0  0  0
  4 24  1  0  0  0  0
  5  6  1  0  0  0  0
  5 25  1  0  0  0  0
  5 26  1  0  0  0  0
  6  7  1  0  0  0  0
  6 27  1  0  0  0  0
  6 28  1  0  0  0  0
  7  8  1  0  0  0  0
  7 29  1  0  0  0  0
  8  9  1  0  0  0  0
  8 30  1  0  0  0  0
  9 10  2  0  0  0  0
  9 11  1  0  0  0  0
 11 12  1  0  0  0  0
 11 31  1  0  0  0  0
 12 18  1  0  0  0  0
 12 13  2  0  0  0  0
 13 14  1  0  0  0  0
 13 32  1  0  0  0  0
 14 15  2  0  0  0  0
 14 33  1  0  0  0  0
 15 16  1  0  0  0  0
 15 17  1  0  0  0  0
 17 18  2  0  0  0  0
 17 34  1  0  0  0  0
M  END
> <s_m_source_file>
AV-unprocessed.smi

> <i_m_source_file_index>
2752

> <i_lp_mmshare_version>
43012

> <i_f3d_flags>
0

> <s_epik_input>
W0NIM11PW0NAQEhdMVtDSDJdW0NIMl1bQ0gyXVtDQEhdMVtOSF1DKD1PKVtOSF1jMltjSF1bY0hdYyhGKVtjSF1uMg==

> <s_epik_cmdline>
J2VwaWtfcHl0aG9uJywgJy1waCcsICc3LjAnLCAnLXRuJywgJzgnLCAnLW1hJywgJzIwMCcsICctbWV0YWxfYmluZGluZycsICctaW1hZScsICc8aW5maWxlLm1hZT4nLCAnLW9tYWUnLCAnPG91dGZpbGUubWFlPic=

> <r_lp_tautomer_probability>
1

> <r_epik_Ionization_Penalty>
3.49853e-05

> <r_epik_Ionization_Penalty_Charging>
0

> <r_epik_Ionization_Penalty_Neutral>
3.49853e-05

> <r_epik_State_Penalty>
-0

> <r_epik_Charging_Adjusted_Penalty>
0

> <i_epik_Tot_Q>
0

> <i_epik_Tot_abs_Q>
0

> <r_epik_Metal_State_Penalty>
-0

> <b_epik_Metal_Only>
0

> <s_lp_Force_Field>
OPLS_2005

> <r_lp_Energy>
21.736

> <b_lp_Chiralities_Consistent>
1

> <s_lp_Variant>
AV-unprocessed.smi:2752-4

> <Gold.Version>
5.8.1

> <Gold.Id.Protein>
6NUR|6NUR_protein|mol2

> <Gold.PLP.Fitness>
35.9466

> <Gold.PLP.PLP>
-27.6917

> <Gold.PLP.part.hbond>
-2.0000

> <Gold.PLP.part.metal>
0.0000

> <Gold.PLP.part.buried>
-2.3005

> <Gold.PLP.part.nonpolar>
-23.4517

> <Gold.PLP.part.repulsive>
0.3874

> <Gold.PLP.ligand.clash>
0.0000

> <Gold.PLP.ligand.torsion>
0.3718

> <Gold.PLP.Chemscore.Hbond>
2.0000

> <Gold.PLP.Chemscore.CHOScore>
0.9978

> <Gold.PLP.Chemscore.Metal>
0.0000

> <Gold.Chemscore.Hbonds>
donor molecule, donor type, donor heavy atom, donor atom, acceptor molecule, acceptor atom, score
      L1  H     8    30       P1  7948  1.00
      L1  H    11    31       P1  7948  1.00
      L1  C    17    34       P1  8028  0.89

> <Gold.PLP.Chemscore.Internal.Correction>
0.0050

> <Gold.Rescore>
     Score         DG    S(hbond)    S(metal)    S(lipo)     H(rot)  DE(clash)    DE(int)     intcor
     13.93     -15.22       1.92        0.00      56.49       1.28       0.12       1.18       ----

> <Gold.Chemscore.Fitness>
13.9264

> <Gold.Chemscore.DG>
-15.2213

> <Gold.Chemscore.ZeroCoef>
-5.4800

> <Gold.Chemscore.Hbond>
1.9206

> <Gold.Chemscore.Metal>
0.0000

> <Gold.Chemscore.Lipo>
56.4856

> <Gold.Chemscore.Internal_Hbond>
0.0000

> <Gold.Chemscore.DEClash>
0.1186

> <Gold.Chemscore.DEInternal>
1.1763

> <Gold.Chemscore.Rot>
1.2821

> <Gold.Chemscore.Internal.Correction>
   9.000000E+99

> <Gold.Chemscore.Hbonds>
donor molecule, donor type, donor heavy atom, donor atom, acceptor molecule, acceptor atom, score
      L1  H     8    30       P1  7948  0.95
      L1  H    11    31       P1  7948  0.97

> <Gold.Chemscore.Hbond.Weighted>
-6.4147

> <Gold.Chemscore.Metal.Weighted>
-0.0000

> <Gold.Chemscore.Lipo.Weighted>
-6.6088

> <Gold.Chemscore.Internal_Hbond.Weighted>
0.0000

> <Gold.Chemscore.DEClash.Weighted>
0.1186

> <Gold.Chemscore.DEInternal.Weighted>
1.1763

> <Gold.Chemscore.Rot.Weighted>
3.2822

> <Gold.Chemscore.Internal.Correction.Weighted>
   9.000000E+99

> <Gold.Protein.RotatedTorsions>
[ 6907 6896 6895 6894 ] final  -71.94 input  -60.11 | X-H torsion
[ 7974 7965 7964 7962 ] final    7.49 input  175.53 | X-H torsion
[ 8008 7997 7996 7995 ] final   31.61 input   59.86 | X-H torsion
[ 10167 10162 10161 10158 ] final    3.55 input  -65.29 | X-H torsion
[ 10718 10713 10712 10709 ] final -124.57 input   66.30 | X-H torsion
[ 10763 10752 10751 10750 ] final  -78.68 input  -60.55 | X-H torsion
[ 11005 11000 10999 10996 ] final -135.94 input  -57.11 | X-H torsion

> <Gold.Protein.ActiveResidues>
 VAL166  LYS551  ARG553  GLY616  TRP617  ASP618  TYR619  PRO620  LYS621  CYS622 
 ASP623  PHE694  ASN695  SER759  ASP760  ASP761  ALA762  ILE779  LEU786  VAL792 
 PHE793  MET794  SER795  GLU796  ALA797  LYS798  CYS799  TRP800  GLU811  SER814 

> <Gold.Protein.RotatedAtoms>
  150.7191  134.5236  159.5665 H   0  0  0  0  0  0  0  0  0  0  0  0  # atno 6907 bound_to 6896
  152.2785  134.7851  160.0410 H   0  0  0  0  0  0  0  0  0  0  0  0  # atno 6908 bound_to 6896
  151.8506  133.3404  159.3709 H   0  0  0  0  0  0  0  0  0  0  0  0  # atno 6909 bound_to 6896
  146.2426  140.0076  142.8410 H   0  0  0  0  0  0  0  0  0  0  0  0  # atno 7974 bound_to 7965
  155.1091  140.3237  155.4526 H   0  0  0  0  0  0  0  0  0  0  0  0  # atno 8008 bound_to 7997
  156.2695  140.2047  156.6163 H   0  0  0  0  0  0  0  0  0  0  0  0  # atno 8009 bound_to 7997
  154.6770  140.0530  157.0213 H   0  0  0  0  0  0  0  0  0  0  0  0  # atno 8010 bound_to 7997
  140.6580  143.7378  150.7687 H   0  0  0  0  0  0  0  0  0  0  0  0  # atno 10167 bound_to 10162
  156.1599  130.6594  151.0035 H   0  0  0  0  0  0  0  0  0  0  0  0  # atno 10718 bound_to 10713
  154.5289  135.5721  153.6743 H   0  0  0  0  0  0  0  0  0  0  0  0  # atno 10763 bound_to 10752
  152.9934  135.6200  154.2655 H   0  0  0  0  0  0  0  0  0  0  0  0  # atno 10764 bound_to 10752
  154.2580  135.2857  155.2769 H   0  0  0  0  0  0  0  0  0  0  0  0  # atno 10765 bound_to 10752
  140.8852  134.1882  157.4565 H   0  0  0  0  0  0  0  0  0  0  0  0  # atno 11005 bound_to 11000
  145.1357  140.9543  143.4518 LP  0  0  0  0  0  0  0  0  0  0  0  0  # atno 17320 bound_to 7965
  145.0344  139.3313  143.6008 LP  0  0  0  0  0  0  0  0  0  0  0  0  # atno 17321 bound_to 7965
  140.1041  143.4760  152.2408 LP  0  0  0  0  0  0  0  0  0  0  0  0  # atno 17342 bound_to 10162
  139.5807  144.7509  151.3648 LP  0  0  0  0  0  0  0  0  0  0  0  0  # atno 17343 bound_to 10162
  157.6724  131.0858  150.7579 LP  0  0  0  0  0  0  0  0  0  0  0  0  # atno 17370 bound_to 10713
  156.7642  130.4808  149.5431 LP  0  0  0  0  0  0  0  0  0  0  0  0  # atno 17371 bound_to 10713
  139.8723  134.9834  156.5198 LP  0  0  0  0  0  0  0  0  0  0  0  0  # atno 17394 bound_to 11000
  140.8414  133.8202  155.9079 LP  0  0  0  0  0  0  0  0  0  0  0  0  # atno 17395 bound_to 11000

$$$$
