AV-unprocessed.smi:2914|AV-procd|sdf|11186|dock7
  -GOLD-   2272016 73D 1   1.00000     0.00000
 Structure written by MMmdl.
 32 34  0  0  0  0  0  0  0  0  1 V2000
  151.5035  141.1445  156.8282 O   0  0  0  0  0  0  0  0  0  0  0  0
  150.8414  142.1496  156.5681 C   0  0  0  0  0  0  0  0  0  0  0  0
  149.7738  142.1895  155.7516 N   0  0  0  0  0  0  0  0  0  0  0  0
  149.1931  141.1737  155.0589 C   0  0  0  0  0  0  0  0  0  0  0  0
  149.7882  140.1380  154.3913 C   0  0  0  0  0  0  0  0  0  0  0  0
  148.6707  139.4141  153.8862 C   0  0  0  0  0  0  0  0  0  0  0  0
  147.5063  139.9585  154.2155 N   0  0  0  0  0  0  0  0  0  0  0  0
  147.8248  141.0530  154.9413 N   0  0  0  0  0  0  0  0  0  0  0  0
  146.7709  141.8956  155.4781 C   0  0  0  0  0  0  0  0  0  0  0  0
  145.7488  142.2562  154.4180 C   0  0  0  0  0  0  0  0  0  0  0  0
  145.8580  143.5526  153.6500 C   0  0  0  0  0  0  0  0  0  0  0  0
  144.7449  143.3605  154.6521 C   0  0  0  0  0  0  0  0  0  0  0  0
  151.1047  143.3620  157.0749 N   0  0  0  0  0  0  0  0  0  0  0  0
  152.1708  143.6710  157.9725 C   0  0  0  0  0  0  0  0  0  0  0  0
  151.8199  143.9078  159.4255 C   0  0  0  0  0  0  0  0  0  0  0  0
  152.2161  145.0674  158.5539 C   0  0  0  0  0  0  0  0  0  0  0  0
  149.3364  143.0919  155.6371 H   0  0  0  0  0  0  0  0  0  0  0  0
  150.8379  139.9159  154.2737 H   0  0  0  0  0  0  0  0  0  0  0  0
  148.6701  138.5117  153.2929 H   0  0  0  0  0  0  0  0  0  0  0  0
  146.2767  141.3729  156.2974 H   0  0  0  0  0  0  0  0  0  0  0  0
  147.2122  142.8023  155.8953 H   0  0  0  0  0  0  0  0  0  0  0  0
  145.3913  141.4007  153.8479 H   0  0  0  0  0  0  0  0  0  0  0  0
  146.6640  144.2329  153.9179 H   0  0  0  0  0  0  0  0  0  0  0  0
  145.5949  143.5338  152.5946 H   0  0  0  0  0  0  0  0  0  0  0  0
  143.7388  143.2145  154.2647 H   0  0  0  0  0  0  0  0  0  0  0  0
  144.8091  143.9183  155.5842 H   0  0  0  0  0  0  0  0  0  0  0  0
  150.5061  144.1285  156.8044 H   0  0  0  0  0  0  0  0  0  0  0  0
  153.1354  143.2009  157.7846 H   0  0  0  0  0  0  0  0  0  0  0  0
  150.7736  143.8324  159.7161 H   0  0  0  0  0  0  0  0  0  0  0  0
  152.5360  143.5756  160.1747 H   0  0  0  0  0  0  0  0  0  0  0  0
  153.1966  145.5093  158.7206 H   0  0  0  0  0  0  0  0  0  0  0  0
  151.4342  145.7667  158.2633 H   0  0  0  0  0  0  0  0  0  0  0  0
  1  2  2  0  0  0  0
  2  3  1  0  0  0  0
  2 13  1  0  0  0  0
  3  4  1  0  0  0  0
  3 17  1  0  0  0  0
  4  8  1  0  0  0  0
  4  5  2  0  0  0  0
  5  6  1  0  0  0  0
  5 18  1  0  0  0  0
  6  7  2  0  0  0  0
  6 19  1  0  0  0  0
  7  8  1  0  0  0  0
  8  9  1  0  0  0  0
  9 10  1  0  0  0  0
  9 20  1  0  0  0  0
  9 21  1  0  0  0  0
 10 12  1  0  0  0  0
 10 11  1  0  0  0  0
 10 22  1  0  0  0  0
 11 12  1  0  0  0  0
 11 23  1  0  0  0  0
 11 24  1  0  0  0  0
 12 25  1  0  0  0  0
 12 26  1  0  0  0  0
 13 14  1  0  0  0  0
 13 27  1  0  0  0  0
 14 16  1  0  0  0  0
 14 15  1  0  0  0  0
 14 28  1  0  0  0  0
 15 16  1  0  0  0  0
 15 29  1  0  0  0  0
 15 30  1  0  0  0  0
 16 31  1  0  0  0  0
 16 32  1  0  0  0  0
M  END
> <s_m_source_file>
AV-unprocessed.smi

> <i_m_source_file_index>
2914

> <i_lp_mmshare_version>
43012

> <i_f3d_flags>
0

> <s_epik_input>
W0NIMl0xW0NIMl1bQ0hdMVtOSF1DKD1PKVtOSF1jMltjSF1bY0hdbm4yW0NIMl1bQ0hdM1tDSDJdW0NIMl0z

> <s_epik_cmdline>
J2VwaWtfcHl0aG9uJywgJy1waCcsICc3LjAnLCAnLXRuJywgJzgnLCAnLW1hJywgJzIwMCcsICctbWV0YWxfYmluZGluZycsICctaW1hZScsICc8aW5maWxlLm1hZT4nLCAnLW9tYWUnLCAnPG91dGZpbGUubWFlPic=

> <r_lp_tautomer_probability>
1

> <r_epik_Ionization_Penalty>
4.83987e-05

> <r_epik_Ionization_Penalty_Charging>
0

> <r_epik_Ionization_Penalty_Neutral>
4.83987e-05

> <r_epik_State_Penalty>
-0

> <r_epik_Charging_Adjusted_Penalty>
0

> <i_epik_Tot_Q>
0

> <i_epik_Tot_abs_Q>
0

> <r_epik_Metal_State_Penalty>
-0

> <b_epik_Metal_Only>
0

> <s_lp_Force_Field>
OPLS_2005

> <r_lp_Energy>
29.2759

> <b_lp_Chiralities_Consistent>
1

> <s_lp_Variant>
AV-unprocessed.smi:2914-1

> <Gold.Version>
5.8.1

> <Gold.Id.Protein>
6NUR|6NUR_protein|mol2

> <Gold.PLP.Fitness>
41.0498

> <Gold.PLP.PLP>
-34.3485

> <Gold.PLP.part.hbond>
-2.0000

> <Gold.PLP.part.metal>
0.0000

> <Gold.PLP.part.buried>
-2.1668

> <Gold.PLP.part.nonpolar>
-30.6814

> <Gold.PLP.part.repulsive>
0.3032

> <Gold.PLP.ligand.clash>
0.0000

> <Gold.PLP.ligand.torsion>
0.8143

> <Gold.PLP.Chemscore.Hbond>
1.9516

> <Gold.PLP.Chemscore.CHOScore>
0.6264

> <Gold.PLP.Chemscore.Metal>
0.0000

> <Gold.Chemscore.Hbonds>
donor molecule, donor type, donor heavy atom, donor atom, acceptor molecule, acceptor atom, score
      L1  H     3    17       P1  8028  1.00
      L1  H    13    27       P1  8028  0.91
      L1  C     6    19       P1  7948  0.62
      L1  C     6    19       P1  7957  0.07

> <Gold.PLP.Chemscore.Internal.Correction>
0.5961

> <Gold.Rescore>
     Score         DG    S(hbond)    S(metal)    S(lipo)     H(rot)  DE(clash)    DE(int)     intcor
     16.09     -17.17       1.92        0.00      75.43       1.39       0.17       0.90       ----

> <Gold.Chemscore.Fitness>
16.0874

> <Gold.Chemscore.DG>
-17.1659

> <Gold.Chemscore.ZeroCoef>
-5.4800

> <Gold.Chemscore.Hbond>
1.9240

> <Gold.Chemscore.Metal>
0.0000

> <Gold.Chemscore.Lipo>
75.4317

> <Gold.Chemscore.Internal_Hbond>
0.0000

> <Gold.Chemscore.DEClash>
0.1743

> <Gold.Chemscore.DEInternal>
0.9042

> <Gold.Chemscore.Rot>
1.3929

> <Gold.Chemscore.Internal.Correction>
   9.000000E+99

> <Gold.Chemscore.Hbonds>
donor molecule, donor type, donor heavy atom, donor atom, acceptor molecule, acceptor atom, score
      L1  H     3    17       P1  8028  1.00
      L1  H    13    27       P1  8028  0.82

> <Gold.Chemscore.Hbond.Weighted>
-6.4261

> <Gold.Chemscore.Metal.Weighted>
-0.0000

> <Gold.Chemscore.Lipo.Weighted>
-8.8255

> <Gold.Chemscore.Internal_Hbond.Weighted>
0.0000

> <Gold.Chemscore.DEClash.Weighted>
0.1743

> <Gold.Chemscore.DEInternal.Weighted>
0.9042

> <Gold.Chemscore.Rot.Weighted>
3.5657

> <Gold.Chemscore.Internal.Correction.Weighted>
   9.000000E+99

> <Gold.Protein.RotatedTorsions>
[ 6907 6896 6895 6894 ] final  -73.67 input  -60.11 | X-H torsion
[ 7974 7965 7964 7962 ] final  124.91 input  175.53 | X-H torsion
[ 8008 7997 7996 7995 ] final   69.64 input   59.86 | X-H torsion
[ 10167 10162 10161 10158 ] final -119.55 input  -65.29 | X-H torsion
[ 10718 10713 10712 10709 ] final  106.23 input   66.30 | X-H torsion
[ 10763 10752 10751 10750 ] final -144.02 input  -60.55 | X-H torsion
[ 11005 11000 10999 10996 ] final  144.94 input  -57.11 | X-H torsion

> <Gold.Protein.ActiveResidues>
 VAL166  LYS551  ARG553  GLY616  TRP617  ASP618  TYR619  PRO620  LYS621  CYS622 
 ASP623  PHE694  ASN695  SER759  ASP760  ASP761  ALA762  ILE779  LEU786  VAL792 
 PHE793  MET794  SER795  GLU796  ALA797  LYS798  CYS799  TRP800  GLU811  SER814 

> <Gold.Protein.RotatedAtoms>
  150.7121  134.4982  159.5548 H   0  0  0  0  0  0  0  0  0  0  0  0  # atno 6907 bound_to 6896
  152.2585  134.8056  160.0443 H   0  0  0  0  0  0  0  0  0  0  0  0  # atno 6908 bound_to 6896
  151.8778  133.3453  159.3793 H   0  0  0  0  0  0  0  0  0  0  0  0  # atno 6909 bound_to 6896
  145.0790  139.3671  143.4919 H   0  0  0  0  0  0  0  0  0  0  0  0  # atno 7974 bound_to 7965
  155.7266  140.3492  155.5040 H   0  0  0  0  0  0  0  0  0  0  0  0  # atno 8008 bound_to 7997
  155.9220  140.1069  157.1221 H   0  0  0  0  0  0  0  0  0  0  0  0  # atno 8009 bound_to 7997
  154.4071  140.1247  156.4679 H   0  0  0  0  0  0  0  0  0  0  0  0  # atno 8010 bound_to 7997
  140.0455  143.5111  152.2109 H   0  0  0  0  0  0  0  0  0  0  0  0  # atno 10167 bound_to 10162
  157.6676  131.0846  150.5976 H   0  0  0  0  0  0  0  0  0  0  0  0  # atno 10718 bound_to 10713
  154.8446  135.3452  154.6279 H   0  0  0  0  0  0  0  0  0  0  0  0  # atno 10763 bound_to 10752
  153.6888  135.6976  153.5100 H   0  0  0  0  0  0  0  0  0  0  0  0  # atno 10764 bound_to 10752
  153.2611  135.4322  155.0850 H   0  0  0  0  0  0  0  0  0  0  0  0  # atno 10765 bound_to 10752
  140.0672  134.9172  157.1285 H   0  0  0  0  0  0  0  0  0  0  0  0  # atno 11005 bound_to 11000
  146.3530  140.0571  142.8632 LP  0  0  0  0  0  0  0  0  0  0  0  0  # atno 17320 bound_to 7965
  145.1201  140.9457  143.4606 LP  0  0  0  0  0  0  0  0  0  0  0  0  # atno 17321 bound_to 7965
  139.5986  144.7575  151.3225 LP  0  0  0  0  0  0  0  0  0  0  0  0  # atno 17342 bound_to 10162
  140.7241  143.7054  150.7812 LP  0  0  0  0  0  0  0  0  0  0  0  0  # atno 17343 bound_to 10162
  156.6276  130.4423  149.5798 LP  0  0  0  0  0  0  0  0  0  0  0  0  # atno 17370 bound_to 10713
  156.2306  130.6792  151.1460 LP  0  0  0  0  0  0  0  0  0  0  0  0  # atno 17371 bound_to 10713
  140.3680  134.2421  155.7180 LP  0  0  0  0  0  0  0  0  0  0  0  0  # atno 17394 bound_to 11000
  141.1998  133.8004  157.0521 LP  0  0  0  0  0  0  0  0  0  0  0  0  # atno 17395 bound_to 11000

$$$$
