AV-unprocessed.smi:1432|AV-procd|sdf|5832|dock2
  -GOLD-   22720 5493D 1   1.00000     0.00000
 Structure written by MMmdl.
 47 48  0  0  0  0  0  0  0  0  2 V2000
  145.0511  135.4626  154.5338 C   0  0  0  0  0  0  0  0  0  0  0  0
  146.3410  135.4423  153.6849 C   0  0  1  0  0  0  0  0  0  0  0  0
  146.4080  134.2193  152.7458 C   0  0  0  0  0  0  0  0  0  0  0  0
  145.4400  134.3471  151.5605 C   0  0  0  0  0  0  0  0  0  0  0  0
  145.6885  135.6663  150.8192 C   0  0  0  0  0  0  0  0  0  0  0  0
  145.6158  136.8657  151.7784 C   0  0  0  0  0  0  0  0  0  0  0  0
  146.5640  136.7024  152.9141 N   0  3  1  0  0  0  0  0  0  0  0  0
  146.6829  137.9118  153.7682 C   0  0  0  0  0  0  0  0  0  0  0  0
  148.1391  138.1824  154.1927 C   0  0  0  0  0  0  0  0  0  0  0  0
  148.2400  139.3672  155.0372 N   0  0  0  0  0  0  0  0  0  0  0  0
  149.2274  140.2736  154.9730 C   0  0  0  0  0  0  0  0  0  0  0  0
  150.1636  140.1879  154.1769 O   0  0  0  0  0  0  0  0  0  0  0  0
  149.1337  141.4385  155.9692 C   0  0  0  0  0  0  0  0  0  0  0  0
  150.1285  141.3663  157.0526 N   0  0  0  0  0  0  0  0  0  0  0  0
  150.7911  142.5626  157.3904 C   0  0  0  0  0  0  0  0  0  0  0  0
  151.7052  142.6415  158.3760 C   0  0  0  0  0  0  0  0  0  0  0  0
  152.4288  143.9430  158.6840 C   0  0  0  0  0  0  0  0  0  0  0  0
  153.0040  144.4140  157.5785 F   0  0  0  0  0  0  0  0  0  0  0  0
  151.5875  144.8690  159.1442 F   0  0  0  0  0  0  0  0  0  0  0  0
  153.3821  143.7520  159.5966 F   0  0  0  0  0  0  0  0  0  0  0  0
  152.0118  141.4074  159.0723 C   0  0  0  0  0  0  0  0  0  0  0  0
  151.3905  140.2534  158.7587 C   0  0  0  0  0  0  0  0  0  0  0  0
  150.3787  140.1896  157.7012 C   0  0  0  0  0  0  0  0  0  0  0  0
  149.7915  139.1453  157.4177 O   0  0  0  0  0  0  0  0  0  0  0  0
  144.9457  134.5327  155.0931 H   0  0  0  0  0  0  0  0  0  0  0  0
  144.1545  135.5765  153.9255 H   0  0  0  0  0  0  0  0  0  0  0  0
  145.0595  136.2712  155.2645 H   0  0  0  0  0  0  0  0  0  0  0  0
  147.1757  135.3444  154.3809 H   0  0  0  0  0  0  0  0  0  0  0  0
  147.4244  134.1179  152.3629 H   0  0  0  0  0  0  0  0  0  0  0  0
  146.2028  133.3030  153.3005 H   0  0  0  0  0  0  0  0  0  0  0  0
  145.5683  133.5047  150.8800 H   0  0  0  0  0  0  0  0  0  0  0  0
  144.4082  134.3060  151.9108 H   0  0  0  0  0  0  0  0  0  0  0  0
  146.6700  135.6387  150.3438 H   0  0  0  0  0  0  0  0  0  0  0  0
  144.9601  135.7856  150.0166 H   0  0  0  0  0  0  0  0  0  0  0  0
  145.8508  137.7717  151.2211 H   0  0  0  0  0  0  0  0  0  0  0  0
  144.5994  136.9909  152.1527 H   0  0  0  0  0  0  0  0  0  0  0  0
  146.2633  138.7768  153.2522 H   0  0  0  0  0  0  0  0  0  0  0  0
  146.0831  137.7690  154.6680 H   0  0  0  0  0  0  0  0  0  0  0  0
  148.5516  137.3183  154.7169 H   0  0  0  0  0  0  0  0  0  0  0  0
  148.7727  138.3485  153.3222 H   0  0  0  0  0  0  0  0  0  0  0  0
  147.5059  139.5113  155.7160 H   0  0  0  0  0  0  0  0  0  0  0  0
  149.2280  142.3782  155.4217 H   0  0  0  0  0  0  0  0  0  0  0  0
  148.1262  141.4551  156.3880 H   0  0  0  0  0  0  0  0  0  0  0  0
  150.5029  143.4194  156.7987 H   0  0  0  0  0  0  0  0  0  0  0  0
  152.7481  141.4066  159.8624 H   0  0  0  0  0  0  0  0  0  0  0  0
  151.6417  139.3533  159.3003 H   0  0  0  0  0  0  0  0  0  0  0  0
  147.4754  136.5863  152.4945 H   0  0  0  0  0  0  0  0  0  0  0  0
  1  2  1  0  0  0  0
  1 25  1  0  0  0  0
  1 26  1  0  0  0  0
  1 27  1  0  0  0  0
  2  7  1  0  0  0  0
  2  3  1  0  0  0  0
  2 28  1  0  0  0  0
  3  4  1  0  0  0  0
  3 29  1  0  0  0  0
  3 30  1  0  0  0  0
  4  5  1  0  0  0  0
  4 31  1  0  0  0  0
  4 32  1  0  0  0  0
  5  6  1  0  0  0  0
  5 33  1  0  0  0  0
  5 34  1  0  0  0  0
  6  7  1  0  0  0  0
  6 35  1  0  0  0  0
  6 36  1  0  0  0  0
  7  8  1  0  0  0  0
  7 47  1  0  0  0  0
  8  9  1  0  0  0  0
  8 37  1  0  0  0  0
  8 38  1  0  0  0  0
  9 10  1  0  0  0  0
  9 39  1  0  0  0  0
  9 40  1  0  0  0  0
 10 11  1  0  0  0  0
 10 41  1  0  0  0  0
 11 12  2  0  0  0  0
 11 13  1  0  0  0  0
 13 14  1  0  0  0  0
 13 42  1  0  0  0  0
 13 43  1  0  0  0  0
 14 23  1  0  0  0  0
 14 15  1  0  0  0  0
 15 16  2  0  0  0  0
 15 44  1  0  0  0  0
 16 17  1  0  0  0  0
 16 21  1  0  0  0  0
 17 18  1  0  0  0  0
 17 19  1  0  0  0  0
 17 20  1  0  0  0  0
 21 22  2  0  0  0  0
 21 45  1  0  0  0  0
 22 23  1  0  0  0  0
 22 46  1  0  0  0  0
 23 24  2  0  0  0  0
M  CHG  1   7   1
M  END
> <s_m_source_file>
AV-unprocessed.smi

> <i_m_source_file_index>
1432

> <i_lp_mmshare_version>
43012

> <i_f3d_flags>
0

> <s_epik_input>
W0NIM11bQ0BASF0xW0NIMl1bQ0gyXVtDSDJdW0NIMl1OMVtDSDJdW0NIMl1bTkhdQyg9TylbQ0gyXW4yW2NIXWMoQyhGKShGKUYpW2NIXVtjSF1jMj1P

> <s_epik_cmdline>
J2VwaWtfcHl0aG9uJywgJy1waCcsICc3LjAnLCAnLXRuJywgJzgnLCAnLW1hJywgJzIwMCcsICctbWV0YWxfYmluZGluZycsICctaW1hZScsICc8aW5maWxlLm1hZT4nLCAnLW9tYWUnLCAnPG91dGZpbGUubWFlPic=

> <r_lp_tautomer_probability>
1

> <r_epik_Ionization_Penalty>
0.00237222

> <r_epik_Ionization_Penalty_Charging>
0.00237213

> <r_epik_Ionization_Penalty_Neutral>
8.2065e-08

> <r_epik_State_Penalty>
0.00163922

> <r_epik_Charging_Adjusted_Penalty>
0.00401135

> <i_epik_Tot_Q>
1

> <i_epik_Tot_abs_Q>
1

> <r_epik_Metal_State_Penalty>
-0

> <b_epik_Metal_Only>
0

> <s_lp_Force_Field>
OPLS_2005

> <r_lp_Energy>
30.8691

> <b_lp_Chiralities_Consistent>
1

> <s_lp_Variant>
AV-unprocessed.smi:1432-2

> <Gold.Version>
5.8.1

> <Gold.Id.Protein>
6NUR|6NUR_protein|mol2

> <Gold.PLP.Fitness>
49.8395

> <Gold.PLP.PLP>
-39.9997

> <Gold.PLP.part.hbond>
-2.0000

> <Gold.PLP.part.metal>
0.0000

> <Gold.PLP.part.buried>
-5.2126

> <Gold.PLP.part.nonpolar>
-33.0648

> <Gold.PLP.part.repulsive>
0.1268

> <Gold.PLP.ligand.clash>
0.0000

> <Gold.PLP.ligand.torsion>
1.0176

> <Gold.PLP.Chemscore.Hbond>
2.9120

> <Gold.PLP.Chemscore.CHOScore>
1.0000

> <Gold.PLP.Chemscore.Metal>
0.0000

> <Gold.Chemscore.Hbonds>
donor molecule, donor type, donor heavy atom, donor atom, acceptor molecule, acceptor atom, score
      L1  H     7    47       P1  7948  2.00
      P1  H  7989  7998       L1    12  0.96
      L1  C    15    44       P1  8028  1.00

> <Gold.PLP.Chemscore.Internal.Correction>
0.1389

> <Gold.Rescore>
     Score         DG    S(hbond)    S(metal)    S(lipo)     H(rot)  DE(clash)    DE(int)     intcor
     11.92     -15.67       1.89        0.00      78.44       2.08       0.28       3.46       ----

> <Gold.Chemscore.Fitness>
11.9220

> <Gold.Chemscore.DG>
-15.6684

> <Gold.Chemscore.ZeroCoef>
-5.4800

> <Gold.Chemscore.Hbond>
1.8939

> <Gold.Chemscore.Metal>
0.0000

> <Gold.Chemscore.Lipo>
78.4430

> <Gold.Chemscore.Internal_Hbond>
0.0000

> <Gold.Chemscore.DEClash>
0.2829

> <Gold.Chemscore.DEInternal>
3.4635

> <Gold.Chemscore.Rot>
2.0762

> <Gold.Chemscore.Internal.Correction>
   9.000000E+99

> <Gold.Chemscore.Hbonds>
donor molecule, donor type, donor heavy atom, donor atom, acceptor molecule, acceptor atom, score
      L1  H     7    47       P1  7948  1.00
      P1  H  7989  7998       L1    12  0.92

> <Gold.Chemscore.Hbond.Weighted>
-6.3256

> <Gold.Chemscore.Metal.Weighted>
-0.0000

> <Gold.Chemscore.Lipo.Weighted>
-9.1778

> <Gold.Chemscore.Internal_Hbond.Weighted>
0.0000

> <Gold.Chemscore.DEClash.Weighted>
0.2829

> <Gold.Chemscore.DEInternal.Weighted>
3.4635

> <Gold.Chemscore.Rot.Weighted>
5.3150

> <Gold.Chemscore.Internal.Correction.Weighted>
   9.000000E+99

> <Gold.Protein.RotatedTorsions>
[ 6907 6896 6895 6894 ] final -124.37 input  -60.11 | X-H torsion
[ 7974 7965 7964 7962 ] final  117.44 input  175.53 | X-H torsion
[ 8008 7997 7996 7995 ] final  -19.24 input   59.86 | X-H torsion
[ 10167 10162 10161 10158 ] final  -48.20 input  -65.29 | X-H torsion
[ 10718 10713 10712 10709 ] final   80.60 input   66.30 | X-H torsion
[ 10763 10752 10751 10750 ] final   34.54 input  -60.55 | X-H torsion
[ 11005 11000 10999 10996 ] final  -35.09 input  -57.11 | X-H torsion

> <Gold.Protein.ActiveResidues>
 VAL166  LYS551  ARG553  GLY616  TRP617  ASP618  TYR619  PRO620  LYS621  CYS622 
 ASP623  PHE694  ASN695  SER759  ASP760  ASP761  ALA762  ILE779  LEU786  VAL792 
 PHE793  MET794  SER795  GLU796  ALA797  LYS798  CYS799  TRP800  GLU811  SER814 

> <Gold.Protein.RotatedAtoms>
  150.8761  133.7436  159.2945 H   0  0  0  0  0  0  0  0  0  0  0  0  # atno 6907 bound_to 6896
  151.5033  135.1061  159.9844 H   0  0  0  0  0  0  0  0  0  0  0  0  # atno 6908 bound_to 6896
  152.4729  133.8025  159.7016 H   0  0  0  0  0  0  0  0  0  0  0  0  # atno 6909 bound_to 6896
  145.1674  139.3121  143.4486 H   0  0  0  0  0  0  0  0  0  0  0  0  # atno 7974 bound_to 7965
  154.4851  140.2094  155.9675 H   0  0  0  0  0  0  0  0  0  0  0  0  # atno 8008 bound_to 7997
  156.1223  140.3211  155.8195 H   0  0  0  0  0  0  0  0  0  0  0  0  # atno 8009 bound_to 7997
  155.4446  140.0512  157.2998 H   0  0  0  0  0  0  0  0  0  0  0  0  # atno 8010 bound_to 7997
  140.6741  143.2750  151.4037 H   0  0  0  0  0  0  0  0  0  0  0  0  # atno 10167 bound_to 10162
  157.6810  130.9966  150.2103 H   0  0  0  0  0  0  0  0  0  0  0  0  # atno 10718 bound_to 10713
  153.0160  135.6358  154.1684 H   0  0  0  0  0  0  0  0  0  0  0  0  # atno 10763 bound_to 10752
  154.1423  135.2834  155.3159 H   0  0  0  0  0  0  0  0  0  0  0  0  # atno 10764 bound_to 10752
  154.6115  135.5555  153.7540 H   0  0  0  0  0  0  0  0  0  0  0  0  # atno 10765 bound_to 10752
  140.9769  133.7078  156.1617 H   0  0  0  0  0  0  0  0  0  0  0  0  # atno 11005 bound_to 11000
  146.3474  140.1806  142.8589 LP  0  0  0  0  0  0  0  0  0  0  0  0  # atno 17320 bound_to 7965
  145.0268  140.8839  143.5133 LP  0  0  0  0  0  0  0  0  0  0  0  0  # atno 17321 bound_to 7965
  139.6024  144.1267  152.2213 LP  0  0  0  0  0  0  0  0  0  0  0  0  # atno 17342 bound_to 10162
  140.0655  144.5822  150.7230 LP  0  0  0  0  0  0  0  0  0  0  0  0  # atno 17343 bound_to 10162
  156.2775  130.3729  149.7969 LP  0  0  0  0  0  0  0  0  0  0  0  0  # atno 17370 bound_to 10713
  156.5667  130.8407  151.3345 LP  0  0  0  0  0  0  0  0  0  0  0  0  # atno 17371 bound_to 10713
  140.7246  134.4321  157.5572 LP  0  0  0  0  0  0  0  0  0  0  0  0  # atno 17394 bound_to 11000
  139.8934  134.8731  156.2225 LP  0  0  0  0  0  0  0  0  0  0  0  0  # atno 17395 bound_to 11000

$$$$
