AV-unprocessed.smi:492|AV-procd|sdf|2708|dock8
  -GOLD-   2262023153D 1   1.00000     0.00000
 Structure written by MMmdl.
 46 48  0  0  0  0  0  0  0  0  1 V2000
  142.4705  143.7632  156.0877 C   0  0  0  0  0  0  0  0  0  0  0  0
  143.3538  143.1044  155.1917 O   0  0  0  0  0  0  0  0  0  0  0  0
  144.3922  142.3718  155.7258 C   0  0  0  0  0  0  0  0  0  0  0  0
  144.4909  142.0073  157.0923 C   0  0  0  0  0  0  0  0  0  0  0  0
  145.5895  141.2557  157.5534 C   0  0  0  0  0  0  0  0  0  0  0  0
  146.6014  140.8511  156.6597 C   0  0  0  0  0  0  0  0  0  0  0  0
  147.7916  140.0574  157.1643 C   0  0  0  0  0  0  0  0  0  0  0  0
  148.7789  139.8916  156.1605 O   0  0  0  0  0  0  0  0  0  0  0  0
  149.5739  141.0494  155.9622 C   0  0  0  0  0  0  0  0  0  0  0  0
  151.0580  140.6976  156.1524 C   0  0  2  0  0  0  0  0  0  0  0  0
  151.5076  139.9850  155.0170 O   0  0  0  0  0  0  0  0  0  0  0  0
  151.3471  139.9356  157.4632 C   0  0  0  0  0  0  0  0  0  0  0  0
  152.0144  140.7605  158.4599 N   0  0  0  0  0  0  0  0  0  0  0  0
  153.0303  140.4157  159.2885 C   0  0  0  0  0  0  0  0  0  0  0  0
  153.6348  139.0476  159.2698 C   0  0  0  0  0  0  0  0  0  0  0  0
  153.4566  141.3708  160.1151 N   0  0  0  0  0  0  0  0  0  0  0  0
  152.6411  142.4381  159.7902 C   0  0  0  0  0  0  0  0  0  0  0  0
  152.5930  143.7503  160.3132 C   0  0  0  0  0  0  0  0  0  0  0  0
  151.6612  144.6840  159.8141 C   0  0  0  0  0  0  0  0  0  0  0  0
  150.7648  144.3203  158.7884 C   0  0  0  0  0  0  0  0  0  0  0  0
  150.7949  143.0180  158.2543 C   0  0  0  0  0  0  0  0  0  0  0  0
  151.7277  142.0898  158.7551 C   0  0  0  0  0  0  0  0  0  0  0  0
  146.5130  141.2193  155.3017 C   0  0  0  0  0  0  0  0  0  0  0  0
  145.4146  141.9705  154.8417 C   0  0  0  0  0  0  0  0  0  0  0  0
  141.7107  144.2962  155.5162 H   0  0  0  0  0  0  0  0  0  0  0  0
  142.9967  144.4968  156.7001 H   0  0  0  0  0  0  0  0  0  0  0  0
  141.9567  143.0523  156.7361 H   0  0  0  0  0  0  0  0  0  0  0  0
  143.7366  142.2938  157.8090 H   0  0  0  0  0  0  0  0  0  0  0  0
  145.6508  140.9900  158.5986 H   0  0  0  0  0  0  0  0  0  0  0  0
  148.2157  140.5820  158.0217 H   0  0  0  0  0  0  0  0  0  0  0  0
  147.4563  139.0790  157.5122 H   0  0  0  0  0  0  0  0  0  0  0  0
  149.4023  141.4746  154.9718 H   0  0  0  0  0  0  0  0  0  0  0  0
  149.2854  141.8066  156.6929 H   0  0  0  0  0  0  0  0  0  0  0  0
  151.6216  141.6304  156.1596 H   0  0  0  0  0  0  0  0  0  0  0  0
  151.9069  139.1799  155.3091 H   0  0  0  0  0  0  0  0  0  0  0  0
  150.4214  139.5452  157.8862 H   0  0  0  0  0  0  0  0  0  0  0  0
  151.9774  139.0671  157.2697 H   0  0  0  0  0  0  0  0  0  0  0  0
  154.4297  138.9716  160.0124 H   0  0  0  0  0  0  0  0  0  0  0  0
  154.0616  138.8358  158.2894 H   0  0  0  0  0  0  0  0  0  0  0  0
  152.8809  138.2950  159.4991 H   0  0  0  0  0  0  0  0  0  0  0  0
  153.2746  144.0387  161.0995 H   0  0  0  0  0  0  0  0  0  0  0  0
  151.6333  145.6841  160.2209 H   0  0  0  0  0  0  0  0  0  0  0  0
  150.0537  145.0412  158.4125 H   0  0  0  0  0  0  0  0  0  0  0  0
  150.1082  142.7360  157.4700 H   0  0  0  0  0  0  0  0  0  0  0  0
  147.2864  140.9278  154.6061 H   0  0  0  0  0  0  0  0  0  0  0  0
  145.3573  142.2435  153.7981 H   0  0  0  0  0  0  0  0  0  0  0  0
  1  2  1  0  0  0  0
  1 25  1  0  0  0  0
  1 26  1  0  0  0  0
  1 27  1  0  0  0  0
  2  3  1  0  0  0  0
  3 24  1  0  0  0  0
  3  4  2  0  0  0  0
  4  5  1  0  0  0  0
  4 28  1  0  0  0  0
  5  6  2  0  0  0  0
  5 29  1  0  0  0  0
  6  7  1  0  0  0  0
  6 23  1  0  0  0  0
  7  8  1  0  0  0  0
  7 30  1  0  0  0  0
  7 31  1  0  0  0  0
  8  9  1  0  0  0  0
  9 10  1  0  0  0  0
  9 32  1  0  0  0  0
  9 33  1  0  0  0  0
 10 11  1  0  0  0  0
 10 12  1  0  0  0  0
 10 34  1  0  0  0  0
 11 35  1  0  0  0  0
 12 13  1  0  0  0  0
 12 36  1  0  0  0  0
 12 37  1  0  0  0  0
 13 22  1  0  0  0  0
 13 14  1  0  0  0  0
 14 15  1  0  0  0  0
 14 16  2  0  0  0  0
 15 38  1  0  0  0  0
 15 39  1  0  0  0  0
 15 40  1  0  0  0  0
 16 17  1  0  0  0  0
 17 22  2  0  0  0  0
 17 18  1  0  0  0  0
 18 19  2  0  0  0  0
 18 41  1  0  0  0  0
 19 20  1  0  0  0  0
 19 42  1  0  0  0  0
 20 21  2  0  0  0  0
 20 43  1  0  0  0  0
 21 22  1  0  0  0  0
 21 44  1  0  0  0  0
 23 24  2  0  0  0  0
 23 45  1  0  0  0  0
 24 46  1  0  0  0  0
M  END
> <s_m_source_file>
AV-unprocessed.smi

> <i_m_source_file_index>
492

> <i_lp_mmshare_version>
43012

> <i_f3d_flags>
0

> <s_epik_input>
W0NIM11PYzFbY0hdW2NIXWMoW2NIXVtjSF0xKVtDSDJdT1tDSDJdW0NASF0oW09IXSlbQ0gyXW4oYyhuMilbQ0gzXSljKGMyMylbY0hdW2NIXVtjSF1bY0hdMw==

> <s_epik_cmdline>
J2VwaWtfcHl0aG9uJywgJy1waCcsICc3LjAnLCAnLXRuJywgJzgnLCAnLW1hJywgJzIwMCcsICctbWV0YWxfYmluZGluZycsICctaW1hZScsICc8aW5maWxlLm1hZT4nLCAnLW9tYWUnLCAnPG91dGZpbGUubWFlPic=

> <r_lp_tautomer_probability>
1

> <r_epik_Ionization_Penalty>
0.132603

> <r_epik_Ionization_Penalty_Charging>
0

> <r_epik_Ionization_Penalty_Neutral>
0.132603

> <r_epik_State_Penalty>
0.121982

> <r_epik_Charging_Adjusted_Penalty>
0.121982

> <i_epik_Tot_Q>
0

> <i_epik_Tot_abs_Q>
0

> <r_epik_Metal_State_Penalty>
0.000135431

> <b_epik_Metal_Only>
0

> <s_lp_Force_Field>
OPLS_2005

> <r_lp_Energy>
19.0412

> <b_lp_Chiralities_Consistent>
1

> <s_lp_Variant>
AV-unprocessed.smi:492-1

> <Gold.Version>
5.8.1

> <Gold.Id.Protein>
6NUR|6NUR_protein|mol2

> <Gold.PLP.Fitness>
53.1795

> <Gold.PLP.PLP>
-53.4275

> <Gold.PLP.part.hbond>
-1.0000

> <Gold.PLP.part.metal>
0.0000

> <Gold.PLP.part.buried>
-9.5221

> <Gold.PLP.part.nonpolar>
-43.7270

> <Gold.PLP.part.repulsive>
0.1940

> <Gold.PLP.ligand.clash>
0.0000

> <Gold.PLP.ligand.torsion>
1.6740

> <Gold.PLP.Chemscore.Hbond>
1.0000

> <Gold.PLP.Chemscore.CHOScore>
0.0000

> <Gold.PLP.Chemscore.Metal>
0.0000

> <Gold.Chemscore.Hbonds>
donor molecule, donor type, donor heavy atom, donor atom, acceptor molecule, acceptor atom, score
      P1  H  7989  7998       L1    11  1.00

> <Gold.PLP.Chemscore.Internal.Correction>
0.1000

> <Gold.Rescore>
     Score         DG    S(hbond)    S(metal)    S(lipo)     H(rot)  DE(clash)    DE(int)     intcor
     15.55     -17.17       0.80        0.00     129.49       2.40       0.06       1.57       ----

> <Gold.Chemscore.Fitness>
15.5462

> <Gold.Chemscore.DG>
-17.1716

> <Gold.Chemscore.ZeroCoef>
-5.4800

> <Gold.Chemscore.Hbond>
0.8033

> <Gold.Chemscore.Metal>
0.0000

> <Gold.Chemscore.Lipo>
129.4893

> <Gold.Chemscore.Internal_Hbond>
0.0000

> <Gold.Chemscore.DEClash>
0.0580

> <Gold.Chemscore.DEInternal>
1.5674

> <Gold.Chemscore.Rot>
2.3991

> <Gold.Chemscore.Internal.Correction>
   9.000000E+99

> <Gold.Chemscore.Hbonds>
donor molecule, donor type, donor heavy atom, donor atom, acceptor molecule, acceptor atom, score
      P1  H  7989  7998       L1    11  0.94

> <Gold.Chemscore.Hbond.Weighted>
-2.6831

> <Gold.Chemscore.Metal.Weighted>
-0.0000

> <Gold.Chemscore.Lipo.Weighted>
-15.1502

> <Gold.Chemscore.Internal_Hbond.Weighted>
0.0000

> <Gold.Chemscore.DEClash.Weighted>
0.0580

> <Gold.Chemscore.DEInternal.Weighted>
1.5674

> <Gold.Chemscore.Rot.Weighted>
6.1417

> <Gold.Chemscore.Internal.Correction.Weighted>
   9.000000E+99

> <Gold.Protein.RotatedTorsions>
[ 6907 6896 6895 6894 ] final  -50.88 input  -60.11 | X-H torsion
[ 7974 7965 7964 7962 ] final -120.89 input  175.53 | X-H torsion
[ 8008 7997 7996 7995 ] final -143.51 input   59.86 | X-H torsion
[ 10167 10162 10161 10158 ] final  145.72 input  -65.29 | X-H torsion
[ 10718 10713 10712 10709 ] final -116.19 input   66.30 | X-H torsion
[ 10763 10752 10751 10750 ] final   63.87 input  -60.55 | X-H torsion
[ 11005 11000 10999 10996 ] final  140.44 input  -57.11 | X-H torsion

> <Gold.Protein.ActiveResidues>
 VAL166  LYS551  ARG553  GLY616  TRP617  ASP618  TYR619  PRO620  LYS621  CYS622 
 ASP623  PHE694  ASN695  SER759  ASP760  ASP761  ALA762  ILE779  LEU786  VAL792 
 PHE793  MET794  SER795  GLU796  ALA797  LYS798  CYS799  TRP800  GLU811  SER814 

> <Gold.Protein.RotatedAtoms>
  150.8664  134.8029  159.7121 H   0  0  0  0  0  0  0  0  0  0  0  0  # atno 6907 bound_to 6896
  152.4684  134.5016  159.9736 H   0  0  0  0  0  0  0  0  0  0  0  0  # atno 6908 bound_to 6896
  151.5111  133.3446  159.2921 H   0  0  0  0  0  0  0  0  0  0  0  0  # atno 6909 bound_to 6896
  145.0464  140.8184  143.4236 H   0  0  0  0  0  0  0  0  0  0  0  0  # atno 7974 bound_to 7965
  155.5117  140.0584  157.2922 H   0  0  0  0  0  0  0  0  0  0  0  0  # atno 8008 bound_to 7997
  154.4549  140.1968  156.0356 H   0  0  0  0  0  0  0  0  0  0  0  0  # atno 8009 bound_to 7997
  156.0779  140.3251  155.7661 H   0  0  0  0  0  0  0  0  0  0  0  0  # atno 8010 bound_to 7997
  139.4920  144.5881  151.6737 H   0  0  0  0  0  0  0  0  0  0  0  0  # atno 10167 bound_to 10162
  156.0947  130.6122  150.9004 H   0  0  0  0  0  0  0  0  0  0  0  0  # atno 10718 bound_to 10713
  153.0034  135.5413  154.6420 H   0  0  0  0  0  0  0  0  0  0  0  0  # atno 10763 bound_to 10752
  154.5673  135.2838  155.0864 H   0  0  0  0  0  0  0  0  0  0  0  0  # atno 10764 bound_to 10752
  154.2043  135.6478  153.5149 H   0  0  0  0  0  0  0  0  0  0  0  0  # atno 10765 bound_to 10752
  140.0328  134.9344  157.0695 H   0  0  0  0  0  0  0  0  0  0  0  0  # atno 11005 bound_to 11000
  145.1583  139.2473  143.5405 LP  0  0  0  0  0  0  0  0  0  0  0  0  # atno 17320 bound_to 7965
  146.3514  140.1303  142.8597 LP  0  0  0  0  0  0  0  0  0  0  0  0  # atno 17321 bound_to 7965
  140.5502  144.0438  150.6124 LP  0  0  0  0  0  0  0  0  0  0  0  0  # atno 17342 bound_to 10162
  140.3489  143.2974  152.0508 LP  0  0  0  0  0  0  0  0  0  0  0  0  # atno 17343 bound_to 10162
  157.6105  131.0936  150.8804 LP  0  0  0  0  0  0  0  0  0  0  0  0  # atno 17370 bound_to 10713
  156.8944  130.5224  149.5285 LP  0  0  0  0  0  0  0  0  0  0  0  0  # atno 17371 bound_to 10713
  140.4198  134.1893  155.7164 LP  0  0  0  0  0  0  0  0  0  0  0  0  # atno 17394 bound_to 11000
  141.1840  133.8352  157.1154 LP  0  0  0  0  0  0  0  0  0  0  0  0  # atno 17395 bound_to 11000

$$$$
