AV-unprocessed.smi:2790|AV-procd|sdf|10766|dock8
  -GOLD-   2272015203D 1   1.00000     0.00000
 Structure written by MMmdl.
 46 47  0  0  0  0  0  0  0  0  2 V2000
  145.8330  135.9849  151.1590 C   0  0  0  0  0  0  0  0  0  0  0  0
  146.6083  137.0717  151.8019 N   0  3  0  0  0  0  0  0  0  0  0  0
  146.5983  138.3053  150.9859 C   0  0  0  0  0  0  0  0  0  0  0  0
  146.2030  137.3238  153.2083 C   0  0  0  0  0  0  0  0  0  0  0  0
  146.9312  138.5149  153.8384 C   0  0  0  0  0  0  0  0  0  0  0  0
  146.2977  139.4736  154.2805 O   0  0  0  0  0  0  0  0  0  0  0  0
  148.2674  138.4328  153.8852 N   0  0  0  0  0  0  0  0  0  0  0  0
  149.1427  139.4648  154.4331 C   0  0  0  0  0  0  0  0  0  0  0  0
  149.8678  139.0028  155.7232 C   0  0  0  0  0  0  0  0  0  0  0  0
  150.4760  140.2416  156.4236 C   0  0  0  0  0  0  0  0  0  0  0  0
  150.3162  141.5588  155.9240 C   0  0  0  0  0  0  0  0  0  0  0  0
  150.8767  142.6387  156.6340 C   0  0  0  0  0  0  0  0  0  0  0  0
  151.5553  142.4959  157.7899 N   0  0  0  0  0  0  0  0  0  0  0  0
  151.6945  141.2484  158.2815 C   0  0  0  0  0  0  0  0  0  0  0  0
  151.1734  140.1032  157.6483 C   0  0  0  0  0  0  0  0  0  0  0  0
  148.8272  138.2857  156.6317 C   0  0  0  0  0  0  0  0  0  0  0  0
  149.4577  137.6478  157.8824 C   0  0  0  0  0  0  0  0  0  0  0  0
  150.5225  136.6160  157.4875 C   0  0  0  0  0  0  0  0  0  0  0  0
  151.5800  137.2410  156.5679 C   0  0  0  0  0  0  0  0  0  0  0  0
  150.9284  137.9222  155.3462 C   0  0  0  0  0  0  0  0  0  0  0  0
  144.7776  136.2498  151.0825 H   0  0  0  0  0  0  0  0  0  0  0  0
  145.9106  135.0550  151.7229 H   0  0  0  0  0  0  0  0  0  0  0  0
  146.2089  135.7899  150.1540 H   0  0  0  0  0  0  0  0  0  0  0  0
  145.5925  138.7225  150.9210 H   0  0  0  0  0  0  0  0  0  0  0  0
  146.9504  138.1019  149.9740 H   0  0  0  0  0  0  0  0  0  0  0  0
  147.2560  139.0605  151.4176 H   0  0  0  0  0  0  0  0  0  0  0  0
  145.1373  137.5538  153.2456 H   0  0  0  0  0  0  0  0  0  0  0  0
  146.3502  136.4231  153.8069 H   0  0  0  0  0  0  0  0  0  0  0  0
  148.7134  137.6104  153.5047 H   0  0  0  0  0  0  0  0  0  0  0  0
  149.8774  139.7311  153.6713 H   0  0  0  0  0  0  0  0  0  0  0  0
  148.5576  140.3661  154.6250 H   0  0  0  0  0  0  0  0  0  0  0  0
  149.7775  141.7692  155.0141 H   0  0  0  0  0  0  0  0  0  0  0  0
  150.7698  143.6482  156.2650 H   0  0  0  0  0  0  0  0  0  0  0  0
  152.2309  141.1595  159.2145 H   0  0  0  0  0  0  0  0  0  0  0  0
  151.3085  139.1412  158.1175 H   0  0  0  0  0  0  0  0  0  0  0  0
  148.0186  138.9527  156.9264 H   0  0  0  0  0  0  0  0  0  0  0  0
  148.3388  137.4943  156.0608 H   0  0  0  0  0  0  0  0  0  0  0  0
  149.9008  138.4172  158.5158 H   0  0  0  0  0  0  0  0  0  0  0  0
  148.6844  137.1656  158.4808 H   0  0  0  0  0  0  0  0  0  0  0  0
  150.9964  136.2046  158.3793 H   0  0  0  0  0  0  0  0  0  0  0  0
  150.0454  135.7788  156.9763 H   0  0  0  0  0  0  0  0  0  0  0  0
  152.1745  137.9553  157.1363 H   0  0  0  0  0  0  0  0  0  0  0  0
  152.2746  136.4708  156.2323 H   0  0  0  0  0  0  0  0  0  0  0  0
  150.4423  137.1425  154.7577 H   0  0  0  0  0  0  0  0  0  0  0  0
  151.6962  138.3258  154.6869 H   0  0  0  0  0  0  0  0  0  0  0  0
  147.5701  136.7635  151.8374 H   0  0  0  0  0  0  0  0  0  0  0  0
  1  2  1  0  0  0  0
  1 21  1  0  0  0  0
  1 22  1  0  0  0  0
  1 23  1  0  0  0  0
  2  3  1  0  0  0  0
  2  4  1  0  0  0  0
  2 46  1  0  0  0  0
  3 24  1  0  0  0  0
  3 25  1  0  0  0  0
  3 26  1  0  0  0  0
  4  5  1  0  0  0  0
  4 27  1  0  0  0  0
  4 28  1  0  0  0  0
  5  6  2  0  0  0  0
  5  7  1  0  0  0  0
  7  8  1  0  0  0  0
  7 29  1  0  0  0  0
  8  9  1  0  0  0  0
  8 30  1  0  0  0  0
  8 31  1  0  0  0  0
  9 20  1  0  0  0  0
  9 10  1  0  0  0  0
  9 16  1  0  0  0  0
 10 15  1  0  0  0  0
 10 11  2  0  0  0  0
 11 12  1  0  0  0  0
 11 32  1  0  0  0  0
 12 13  2  0  0  0  0
 12 33  1  0  0  0  0
 13 14  1  0  0  0  0
 14 15  2  0  0  0  0
 14 34  1  0  0  0  0
 15 35  1  0  0  0  0
 16 17  1  0  0  0  0
 16 36  1  0  0  0  0
 16 37  1  0  0  0  0
 17 18  1  0  0  0  0
 17 38  1  0  0  0  0
 17 39  1  0  0  0  0
 18 19  1  0  0  0  0
 18 40  1  0  0  0  0
 18 41  1  0  0  0  0
 19 20  1  0  0  0  0
 19 42  1  0  0  0  0
 19 43  1  0  0  0  0
 20 44  1  0  0  0  0
 20 45  1  0  0  0  0
M  CHG  1   2   1
M  END
> <s_m_source_file>
AV-unprocessed.smi

> <i_m_source_file_index>
2790

> <i_lp_mmshare_version>
43012

> <i_f3d_flags>
0

> <s_epik_input>
W0NIM11OKFtDSDNdKVtDSDJdQyg9TylbTkhdW0NIMl1DMShbQ0gyXVtDSDJdW0NIMl1bQ0gyXVtDSDJdMSljMltjSF1bY0hdbltjSF1bY0hdMg==

> <s_epik_cmdline>
J2VwaWtfcHl0aG9uJywgJy1waCcsICc3LjAnLCAnLXRuJywgJzgnLCAnLW1hJywgJzIwMCcsICctbWV0YWxfYmluZGluZycsICctaW1hZScsICc8aW5maWxlLm1hZT4nLCAnLW9tYWUnLCAnPG91dGZpbGUubWFlPic=

> <r_epik_Ionization_Penalty>
0.089928

> <r_epik_Ionization_Penalty_Charging>
0.0368445

> <r_epik_Ionization_Penalty_Neutral>
0.0530835

> <r_epik_State_Penalty>
0.0777876

> <r_epik_Charging_Adjusted_Penalty>
0.114632

> <i_epik_Tot_Q>
1

> <i_epik_Tot_abs_Q>
1

> <r_epik_Metal_State_Penalty>
0.0848697

> <b_epik_Metal_Only>
0

> <s_lp_Force_Field>
OPLS_2005

> <r_lp_Energy>
21.8656

> <b_lp_Chiralities_Consistent>
1

> <s_lp_Variant>
AV-unprocessed.smi:2790-1

> <Gold.Version>
5.8.1

> <Gold.Id.Protein>
6NUR|6NUR_protein|mol2

> <Gold.PLP.Fitness>
37.2065

> <Gold.PLP.PLP>
-25.5599

> <Gold.PLP.part.hbond>
-2.0000

> <Gold.PLP.part.metal>
0.0000

> <Gold.PLP.part.buried>
0.4426

> <Gold.PLP.part.nonpolar>
-24.6897

> <Gold.PLP.part.repulsive>
0.2087

> <Gold.PLP.ligand.clash>
0.0000

> <Gold.PLP.ligand.torsion>
0.2095

> <Gold.PLP.Chemscore.Hbond>
3.0000

> <Gold.PLP.Chemscore.CHOScore>
1.0000

> <Gold.PLP.Chemscore.Metal>
0.0000

> <Gold.Chemscore.Hbonds>
donor molecule, donor type, donor heavy atom, donor atom, acceptor molecule, acceptor atom, score
      L1  H     2    46       P1  7948  1.62
      L1  H     7    29       P1  7948  0.70
      L1  C    12    33       P1  8028  0.99

> <Gold.PLP.Chemscore.Internal.Correction>
0.0657

> <Gold.Rescore>
     Score         DG    S(hbond)    S(metal)    S(lipo)     H(rot)  DE(clash)    DE(int)     intcor
     14.87     -17.95       2.00        0.00      85.80       1.65       1.86       1.22       ----

> <Gold.Chemscore.Fitness>
14.8682

> <Gold.Chemscore.DG>
-17.9474

> <Gold.Chemscore.ZeroCoef>
-5.4800

> <Gold.Chemscore.Hbond>
1.9954

> <Gold.Chemscore.Metal>
0.0000

> <Gold.Chemscore.Lipo>
85.8013

> <Gold.Chemscore.Internal_Hbond>
0.0000

> <Gold.Chemscore.DEClash>
1.8586

> <Gold.Chemscore.DEInternal>
1.2206

> <Gold.Chemscore.Rot>
1.6547

> <Gold.Chemscore.Internal.Correction>
   9.000000E+99

> <Gold.Chemscore.Hbonds>
donor molecule, donor type, donor heavy atom, donor atom, acceptor molecule, acceptor atom, score
      L1  H     2    46       P1  7948  0.80
      L1  H     7    29       P1  7948  0.66

> <Gold.Chemscore.Hbond.Weighted>
-6.6647

> <Gold.Chemscore.Metal.Weighted>
-0.0000

> <Gold.Chemscore.Lipo.Weighted>
-10.0388

> <Gold.Chemscore.Internal_Hbond.Weighted>
0.0000

> <Gold.Chemscore.DEClash.Weighted>
1.8586

> <Gold.Chemscore.DEInternal.Weighted>
1.2206

> <Gold.Chemscore.Rot.Weighted>
4.2361

> <Gold.Chemscore.Internal.Correction.Weighted>
   9.000000E+99

> <Gold.Protein.RotatedTorsions>
[ 6907 6896 6895 6894 ] final -154.54 input  -60.11 | X-H torsion
[ 7974 7965 7964 7962 ] final   49.24 input  175.53 | X-H torsion
[ 8008 7997 7996 7995 ] final   20.89 input   59.86 | X-H torsion
[ 10167 10162 10161 10158 ] final  -18.65 input  -65.29 | X-H torsion
[ 10718 10713 10712 10709 ] final -142.24 input   66.30 | X-H torsion
[ 10763 10752 10751 10750 ] final -122.41 input  -60.55 | X-H torsion
[ 11005 11000 10999 10996 ] final  -92.08 input  -57.11 | X-H torsion

> <Gold.Protein.ActiveResidues>
 VAL166  LYS551  ARG553  GLY616  TRP617  ASP618  TYR619  PRO620  LYS621  CYS622 
 ASP623  PHE694  ASN695  SER759  ASP760  ASP761  ALA762  ILE779  LEU786  VAL792 
 PHE793  MET794  SER795  GLU796  ALA797  LYS798  CYS799  TRP800  GLU811  SER814 

> <Gold.Protein.RotatedAtoms>
  151.2591  133.4311  159.2614 H   0  0  0  0  0  0  0  0  0  0  0  0  # atno 6907 bound_to 6896
  151.0547  134.9697  159.8240 H   0  0  0  0  0  0  0  0  0  0  0  0  # atno 6908 bound_to 6896
  152.5388  134.2544  159.8964 H   0  0  0  0  0  0  0  0  0  0  0  0  # atno 6909 bound_to 6896
  146.0127  139.4562  142.9946 H   0  0  0  0  0  0  0  0  0  0  0  0  # atno 7974 bound_to 7965
  154.9424  140.3055  155.5114 H   0  0  0  0  0  0  0  0  0  0  0  0  # atno 8008 bound_to 7997
  156.2995  140.2334  156.4432 H   0  0  0  0  0  0  0  0  0  0  0  0  # atno 8009 bound_to 7997
  154.8132  140.0427  157.1346 H   0  0  0  0  0  0  0  0  0  0  0  0  # atno 8010 bound_to 7997
  140.7261  143.4896  151.0009 H   0  0  0  0  0  0  0  0  0  0  0  0  # atno 10167 bound_to 10162
  156.3436  130.7650  151.1791 H   0  0  0  0  0  0  0  0  0  0  0  0  # atno 10718 bound_to 10713
  154.8689  135.4134  154.2777 H   0  0  0  0  0  0  0  0  0  0  0  0  # atno 10763 bound_to 10752
  153.3675  135.7006  153.6669 H   0  0  0  0  0  0  0  0  0  0  0  0  # atno 10764 bound_to 10752
  153.5544  135.3622  155.2745 H   0  0  0  0  0  0  0  0  0  0  0  0  # atno 10765 bound_to 10752
  141.1530  133.7797  156.9970 H   0  0  0  0  0  0  0  0  0  0  0  0  # atno 11005 bound_to 11000
  145.7316  141.0040  143.1348 LP  0  0  0  0  0  0  0  0  0  0  0  0  # atno 17320 bound_to 7965
  144.6959  139.8991  143.7457 LP  0  0  0  0  0  0  0  0  0  0  0  0  # atno 17321 bound_to 7965
  139.8599  143.7328  152.3174 LP  0  0  0  0  0  0  0  0  0  0  0  0  # atno 17342 bound_to 10162
  139.7539  144.7526  151.0464 LP  0  0  0  0  0  0  0  0  0  0  0  0  # atno 17343 bound_to 10162
  157.7450  131.0447  150.4809 LP  0  0  0  0  0  0  0  0  0  0  0  0  # atno 17370 bound_to 10713
  156.4993  130.4113  149.6362 LP  0  0  0  0  0  0  0  0  0  0  0  0  # atno 17371 bound_to 10713
  140.0965  134.9561  157.1858 LP  0  0  0  0  0  0  0  0  0  0  0  0  # atno 17394 bound_to 11000
  140.3375  134.2741  155.7217 LP  0  0  0  0  0  0  0  0  0  0  0  0  # atno 17395 bound_to 11000

$$$$
