AV-unprocessed.smi:2647|AV-procd|sdf|10284|dock3
  -GOLD-   2272014293D 1   1.00000     0.00000
 Structure written by MMmdl.
 31 32  0  0  0  0  0  0  0  0  2 V2000
  148.4674  138.2358  159.0050 O   0  0  0  0  0  0  0  0  0  0  0  0
  148.9983  137.1599  158.7196 C   0  0  0  0  0  0  0  0  0  0  0  0
  150.1078  137.1400  157.9670 N   0  0  0  0  0  0  0  0  0  0  0  0
  150.7886  138.3055  157.4133 C   0  0  0  0  0  0  0  0  0  0  0  0
  150.9605  139.4125  158.4655 C   0  0  0  0  0  0  0  0  0  0  0  0
  151.7061  140.6381  157.9110 C   0  0  0  0  0  0  0  0  0  0  0  0
  152.5689  141.2465  158.9288 N   0  0  0  0  0  0  0  0  0  0  0  0
  152.2848  142.3905  159.5671 C   0  0  0  0  0  0  0  0  0  0  0  0
  151.2925  143.0971  159.3913 O   0  0  0  0  0  0  0  0  0  0  0  0
  153.3666  142.7335  160.5822 C   0  0  0  0  0  0  0  0  0  0  0  0
  154.3607  141.5777  160.4327 C   0  0  0  0  0  0  0  0  0  0  0  0
  153.7205  140.7100  159.3575 C   0  0  0  0  0  0  0  0  0  0  0  0
  154.2271  139.6594  158.9655 O   0  0  0  0  0  0  0  0  0  0  0  0
  148.5702  135.9318  159.0909 N   0  5  0  0  0  0  0  0  0  0  0  0
  147.8649  135.7803  160.2240 C   0  0  0  0  0  0  0  0  0  0  0  0
  147.6730  136.7874  161.0913 N   0  0  0  0  0  0  0  0  0  0  0  0
  146.9214  136.4188  162.1989 N   0  0  0  0  0  0  0  0  0  0  0  0
  146.5714  135.1339  162.1427 C   0  0  0  0  0  0  0  0  0  0  0  0
  147.1296  134.2576  160.7335 S   0  0  0  0  0  0  0  0  0  0  0  0
  150.5088  136.2371  157.7595 H   0  0  0  0  0  0  0  0  0  0  0  0
  151.7555  138.0153  156.9989 H   0  0  0  0  0  0  0  0  0  0  0  0
  150.1924  138.6762  156.5793 H   0  0  0  0  0  0  0  0  0  0  0  0
  149.9794  139.7168  158.8329 H   0  0  0  0  0  0  0  0  0  0  0  0
  151.5031  139.0182  159.3257 H   0  0  0  0  0  0  0  0  0  0  0  0
  152.2984  140.3480  157.0414 H   0  0  0  0  0  0  0  0  0  0  0  0
  150.9890  141.3749  157.5448 H   0  0  0  0  0  0  0  0  0  0  0  0
  153.8221  143.6959  160.3469 H   0  0  0  0  0  0  0  0  0  0  0  0
  152.9453  142.7788  161.5870 H   0  0  0  0  0  0  0  0  0  0  0  0
  155.3422  141.9248  160.1084 H   0  0  0  0  0  0  0  0  0  0  0  0
  154.4741  141.0158  161.3604 H   0  0  0  0  0  0  0  0  0  0  0  0
  145.9832  134.6989  162.9367 H   0  0  0  0  0  0  0  0  0  0  0  0
  1  2  2  0  0  0  0
  2  3  1  0  0  0  0
  2 14  1  0  0  0  0
  3  4  1  0  0  0  0
  3 20  1  0  0  0  0
  4  5  1  0  0  0  0
  4 21  1  0  0  0  0
  4 22  1  0  0  0  0
  5  6  1  0  0  0  0
  5 23  1  0  0  0  0
  5 24  1  0  0  0  0
  6  7  1  0  0  0  0
  6 25  1  0  0  0  0
  6 26  1  0  0  0  0
  7 12  1  0  0  0  0
  7  8  1  0  0  0  0
  8  9  2  0  0  0  0
  8 10  1  0  0  0  0
 10 11  1  0  0  0  0
 10 27  1  0  0  0  0
 10 28  1  0  0  0  0
 11 12  1  0  0  0  0
 11 29  1  0  0  0  0
 11 30  1  0  0  0  0
 12 13  2  0  0  0  0
 14 15  1  0  0  0  0
 15 19  1  0  0  0  0
 15 16  2  0  0  0  0
 16 17  1  0  0  0  0
 17 18  2  0  0  0  0
 18 19  1  0  0  0  0
 18 31  1  0  0  0  0
M  CHG  1  14  -1
M  END
> <s_m_source_file>
AV-unprocessed.smi

> <i_m_source_file_index>
2647

> <i_lp_mmshare_version>
43012

> <i_f3d_flags>
0

> <s_epik_input>
czFbY0hdbm5jMVtOSF1DKD1PKVtOSF1bQ0gyXVtDSDJdW0NIMl1OMkMoPU8pW0NIMl1bQ0gyXUMyPU8=

> <s_epik_cmdline>
J2VwaWtfcHl0aG9uJywgJy1waCcsICc3LjAnLCAnLXRuJywgJzgnLCAnLW1hJywgJzIwMCcsICctbWV0YWxfYmluZGluZycsICctaW1hZScsICc8aW5maWxlLm1hZT4nLCAnLW9tYWUnLCAnPG91dGZpbGUubWFlPic=

> <r_lp_tautomer_probability>
1

> <r_epik_Ionization_Penalty>
3.50019

> <r_epik_Ionization_Penalty_Charging>
3.45871

> <r_epik_Ionization_Penalty_Neutral>
0.0414811

> <r_epik_State_Penalty>
3.45698

> <r_epik_Charging_Adjusted_Penalty>
6.91569

> <i_epik_Tot_Q>
-1

> <i_epik_Tot_abs_Q>
1

> <r_epik_Metal_State_Penalty>
0.503209

> <b_epik_Metal_Only>
1

> <s_lp_Force_Field>
OPLS_2005

> <r_lp_Energy>
9.35786

> <b_lp_Chiralities_Consistent>
1

> <s_lp_Variant>
AV-unprocessed.smi:2647-2

> <Gold.Version>
5.8.1

> <Gold.Id.Protein>
6NUR|6NUR_protein|mol2

> <Gold.PLP.Fitness>
44.6595

> <Gold.PLP.PLP>
-34.0003

> <Gold.PLP.part.hbond>
-5.0977

> <Gold.PLP.part.metal>
0.0000

> <Gold.PLP.part.buried>
-5.3711

> <Gold.PLP.part.nonpolar>
-23.1760

> <Gold.PLP.part.repulsive>
0.1286

> <Gold.PLP.ligand.clash>
0.0000

> <Gold.PLP.ligand.torsion>
0.6549

> <Gold.PLP.Chemscore.Hbond>
3.9562

> <Gold.PLP.Chemscore.CHOScore>
0.0000

> <Gold.PLP.Chemscore.Metal>
0.0000

> <Gold.Chemscore.Hbonds>
donor molecule, donor type, donor heavy atom, donor atom, acceptor molecule, acceptor atom, score
      P1  H  6931  6943       L1    16  0.68
      P1  H  6934  6947       L1    16  0.32
      P1  H  7997  8008       L1    13  1.00

> <Gold.PLP.Chemscore.Internal.Correction>
0.1005

> <Gold.Rescore>
     Score         DG    S(hbond)    S(metal)    S(lipo)     H(rot)  DE(clash)    DE(int)     intcor
      8.30     -12.00       1.98        0.00      50.09       2.32       0.11       3.59       ----

> <Gold.Chemscore.Fitness>
8.2964

> <Gold.Chemscore.DG>
-11.9960

> <Gold.Chemscore.ZeroCoef>
-5.4800

> <Gold.Chemscore.Hbond>
1.9760

> <Gold.Chemscore.Metal>
0.0000

> <Gold.Chemscore.Lipo>
50.0892

> <Gold.Chemscore.Internal_Hbond>
0.0000

> <Gold.Chemscore.DEClash>
0.1053

> <Gold.Chemscore.DEInternal>
3.5944

> <Gold.Chemscore.Rot>
2.3219

> <Gold.Chemscore.Internal.Correction>
   9.000000E+99

> <Gold.Chemscore.Hbonds>
donor molecule, donor type, donor heavy atom, donor atom, acceptor molecule, acceptor atom, score
      P1  H  6931  6943       L1    16  0.27
      P1  H  6934  6947       L1    16  0.11
      P1  H  7997  8008       L1    13  0.55

> <Gold.Chemscore.Hbond.Weighted>
-6.5997

> <Gold.Chemscore.Metal.Weighted>
-0.0000

> <Gold.Chemscore.Lipo.Weighted>
-5.8604

> <Gold.Chemscore.Internal_Hbond.Weighted>
0.0000

> <Gold.Chemscore.DEClash.Weighted>
0.1053

> <Gold.Chemscore.DEInternal.Weighted>
3.5944

> <Gold.Chemscore.Rot.Weighted>
5.9441

> <Gold.Chemscore.Internal.Correction.Weighted>
   9.000000E+99

> <Gold.Protein.RotatedTorsions>
[ 6907 6896 6895 6894 ] final  170.97 input  -60.11 | X-H torsion
[ 7974 7965 7964 7962 ] final  -99.15 input  175.53 | X-H torsion
[ 8008 7997 7996 7995 ] final -106.25 input   59.86 | X-H torsion
[ 10167 10162 10161 10158 ] final -123.98 input  -65.29 | X-H torsion
[ 10718 10713 10712 10709 ] final  147.66 input   66.30 | X-H torsion
[ 10763 10752 10751 10750 ] final   40.04 input  -60.55 | X-H torsion
[ 11005 11000 10999 10996 ] final   34.13 input  -57.11 | X-H torsion

> <Gold.Protein.ActiveResidues>
 VAL166  LYS551  ARG553  GLY616  TRP617  ASP618  TYR619  PRO620  LYS621  CYS622 
 ASP623  PHE694  ASN695  SER759  ASP760  ASP761  ALA762  ILE779  LEU786  VAL792 
 PHE793  MET794  SER795  GLU796  ALA797  LYS798  CYS799  TRP800  GLU811  SER814 

> <Gold.Protein.RotatedAtoms>
  151.8076  133.3377  159.3545 H   0  0  0  0  0  0  0  0  0  0  0  0  # atno 6907 bound_to 6896
  150.7337  134.5695  159.5892 H   0  0  0  0  0  0  0  0  0  0  0  0  # atno 6908 bound_to 6896
  152.3098  134.7512  160.0390 H   0  0  0  0  0  0  0  0  0  0  0  0  # atno 6909 bound_to 6896
  145.3113  140.9401  143.2768 H   0  0  0  0  0  0  0  0  0  0  0  0  # atno 7974 bound_to 7965
  154.9118  140.0410  157.1950 H   0  0  0  0  0  0  0  0  0  0  0  0  # atno 8008 bound_to 7997
  154.8341  140.2904  155.5681 H   0  0  0  0  0  0  0  0  0  0  0  0  # atno 8009 bound_to 7997
  156.2988  140.2495  156.3271 H   0  0  0  0  0  0  0  0  0  0  0  0  # atno 8010 bound_to 7997
  139.9976  143.5574  152.2316 H   0  0  0  0  0  0  0  0  0  0  0  0  # atno 10167 bound_to 10162
  157.3182  131.0899  151.1262 H   0  0  0  0  0  0  0  0  0  0  0  0  # atno 10718 bound_to 10713
  152.9948  135.6203  154.2561 H   0  0  0  0  0  0  0  0  0  0  0  0  # atno 10763 bound_to 10752
  154.2299  135.2792  155.2895 H   0  0  0  0  0  0  0  0  0  0  0  0  # atno 10764 bound_to 10752
  154.5458  135.5747  153.6937 H   0  0  0  0  0  0  0  0  0  0  0  0  # atno 10765 bound_to 10752
  140.2560  134.3248  155.7874 H   0  0  0  0  0  0  0  0  0  0  0  0  # atno 11005 bound_to 11000
  144.9013  139.4646  143.6631 LP  0  0  0  0  0  0  0  0  0  0  0  0  # atno 17320 bound_to 7965
  146.3116  139.7769  142.9015 LP  0  0  0  0  0  0  0  0  0  0  0  0  # atno 17321 bound_to 7965
  139.6294  144.7642  151.2568 LP  0  0  0  0  0  0  0  0  0  0  0  0  # atno 17342 bound_to 10162
  140.7431  143.6505  150.8252 LP  0  0  0  0  0  0  0  0  0  0  0  0  # atno 17343 bound_to 10162
  157.2557  130.6635  149.5951 LP  0  0  0  0  0  0  0  0  0  0  0  0  # atno 17370 bound_to 10713
  155.9683  130.4524  150.5773 LP  0  0  0  0  0  0  0  0  0  0  0  0  # atno 17371 bound_to 10713
  141.2196  133.7381  156.9112 LP  0  0  0  0  0  0  0  0  0  0  0  0  # atno 17394 bound_to 11000
  140.1511  134.9229  157.2594 LP  0  0  0  0  0  0  0  0  0  0  0  0  # atno 17395 bound_to 11000

$$$$
