AV-unprocessed.smi:2944|AV-procd|sdf|11274|dock6
  -GOLD-   2272016163D 1   1.00000     0.00000
 Structure written by MMmdl.
 45 47  0  0  0  0  0  0  0  0  2 V2000
  153.7862  137.8805  158.2725 C   0  0  0  0  0  0  0  0  0  0  0  0
  153.7523  138.5201  157.0090 O   0  0  0  0  0  0  0  0  0  0  0  0
  152.4301  138.7735  156.5618 C   0  0  0  0  0  0  0  0  0  0  0  0
  151.6284  139.4840  157.6619 C   0  0  0  0  0  0  0  0  0  0  0  0
  151.2704  140.8644  157.3009 N   0  0  0  0  0  0  0  0  0  0  0  0
  150.4833  141.3365  156.2946 C   0  0  0  0  0  0  0  0  0  0  0  0
  149.5971  140.3749  155.1115 S   0  0  0  0  0  0  0  0  0  0  0  0
  148.0942  139.8034  155.9652 C   0  0  2  0  0  0  0  0  0  0  0  0
  148.4567  139.2458  157.3514 C   0  0  0  0  0  0  0  0  0  0  0  0
  147.3273  138.7578  155.1260 C   0  0  0  0  0  0  0  0  0  0  0  0
  147.1610  137.6442  155.6302 O   0  0  0  0  0  0  0  0  0  0  0  0
  146.9146  139.0792  153.8667 N   0  0  0  0  0  0  0  0  0  0  0  0
  147.0438  140.4095  153.2697 C   0  0  0  0  0  0  0  0  0  0  0  0
  146.4870  140.2587  151.8607 C   0  0  0  0  0  0  0  0  0  0  0  0
  146.0943  138.8732  151.8445 N   0  0  0  0  0  0  0  0  0  0  0  0
  146.3419  138.2241  152.9846 C   0  0  0  0  0  0  0  0  0  0  0  0
  146.0863  137.0311  153.1516 O   0  0  0  0  0  0  0  0  0  0  0  0
  150.4717  142.6951  156.3780 N   0  3  0  0  0  0  0  0  0  0  0  0
  151.2388  143.1005  157.4700 C   0  0  0  0  0  0  0  0  0  0  0  0
  151.5084  144.3705  157.9698 C   0  0  0  0  0  0  0  0  0  0  0  0
  152.3308  144.4383  159.1134 C   0  0  0  0  0  0  0  0  0  0  0  0
  152.8499  143.2735  159.7148 C   0  0  0  0  0  0  0  0  0  0  0  0
  152.5701  141.9911  159.1986 C   0  0  0  0  0  0  0  0  0  0  0  0
  151.7562  141.9313  158.0674 C   0  0  0  0  0  0  0  0  0  0  0  0
  154.8215  137.7252  158.5758 H   0  0  0  0  0  0  0  0  0  0  0  0
  153.2955  136.9072  158.2344 H   0  0  0  0  0  0  0  0  0  0  0  0
  153.2999  138.4881  159.0367 H   0  0  0  0  0  0  0  0  0  0  0  0
  152.4520  139.3934  155.6644 H   0  0  0  0  0  0  0  0  0  0  0  0
  151.9414  137.8356  156.2949 H   0  0  0  0  0  0  0  0  0  0  0  0
  150.7206  138.9304  157.9013 H   0  0  0  0  0  0  0  0  0  0  0  0
  152.2126  139.5228  158.5816 H   0  0  0  0  0  0  0  0  0  0  0  0
  147.4861  140.6865  156.1451 H   0  0  0  0  0  0  0  0  0  0  0  0
  147.5724  138.8833  157.8771 H   0  0  0  0  0  0  0  0  0  0  0  0
  148.9113  140.0177  157.9727 H   0  0  0  0  0  0  0  0  0  0  0  0
  149.1667  138.4205  157.2831 H   0  0  0  0  0  0  0  0  0  0  0  0
  146.4728  141.1482  153.8342 H   0  0  0  0  0  0  0  0  0  0  0  0
  148.0849  140.7250  153.2320 H   0  0  0  0  0  0  0  0  0  0  0  0
  145.6279  140.9072  151.6853 H   0  0  0  0  0  0  0  0  0  0  0  0
  147.2430  140.4526  151.0986 H   0  0  0  0  0  0  0  0  0  0  0  0
  145.6667  138.4433  151.0370 H   0  0  0  0  0  0  0  0  0  0  0  0
  151.1099  145.2642  157.5119 H   0  0  0  0  0  0  0  0  0  0  0  0
  152.5671  145.4029  159.5387 H   0  0  0  0  0  0  0  0  0  0  0  0
  153.4750  143.3648  160.5913 H   0  0  0  0  0  0  0  0  0  0  0  0
  152.9679  141.1058  159.6723 H   0  0  0  0  0  0  0  0  0  0  0  0
  149.9606  143.2963  155.7441 H   0  0  0  0  0  0  0  0  0  0  0  0
  1  2  1  0  0  0  0
  1 25  1  0  0  0  0
  1 26  1  0  0  0  0
  1 27  1  0  0  0  0
  2  3  1  0  0  0  0
  3  4  1  0  0  0  0
  3 28  1  0  0  0  0
  3 29  1  0  0  0  0
  4  5  1  0  0  0  0
  4 30  1  0  0  0  0
  4 31  1  0  0  0  0
  5 24  1  0  0  0  0
  5  6  1  0  0  0  0
  6  7  1  0  0  0  0
  6 18  2  0  0  0  0
  7  8  1  0  0  0  0
  8  9  1  0  0  0  0
  8 10  1  0  0  0  0
  8 32  1  0  0  0  0
  9 33  1  0  0  0  0
  9 34  1  0  0  0  0
  9 35  1  0  0  0  0
 10 11  2  0  0  0  0
 10 12  1  0  0  0  0
 12 16  1  0  0  0  0
 12 13  1  0  0  0  0
 13 14  1  0  0  0  0
 13 36  1  0  0  0  0
 13 37  1  0  0  0  0
 14 15  1  0  0  0  0
 14 38  1  0  0  0  0
 14 39  1  0  0  0  0
 15 16  1  0  0  0  0
 15 40  1  0  0  0  0
 16 17  2  0  0  0  0
 18 19  1  0  0  0  0
 18 45  1  0  0  0  0
 19 24  2  0  0  0  0
 19 20  1  0  0  0  0
 20 21  2  0  0  0  0
 20 41  1  0  0  0  0
 21 22  1  0  0  0  0
 21 42  1  0  0  0  0
 22 23  2  0  0  0  0
 22 43  1  0  0  0  0
 23 24  1  0  0  0  0
 23 44  1  0  0  0  0
M  CHG  1  18   1
M  END
> <s_m_source_file>
AV-unprocessed.smi

> <i_m_source_file_index>
2944

> <i_lp_mmshare_version>
43012

> <i_f3d_flags>
0

> <s_epik_input>
W2NIXTFbY0hdW2NIXVtjSF1jKGMxMiluKFtDSDJdW0NIMl1PW0NIM10pYyhuMilTW0NASF0oW0NIM10pQyg9TylOM1tDSDJdW0NIMl1bTkhdQzM9Tw==

> <s_epik_cmdline>
J2VwaWtfcHl0aG9uJywgJy1waCcsICc3LjAnLCAnLXRuJywgJzgnLCAnLW1hJywgJzIwMCcsICctbWV0YWxfYmluZGluZycsICctaW1hZScsICc8aW5maWxlLm1hZT4nLCAnLW9tYWUnLCAnPG91dGZpbGUubWFlPic=

> <r_lp_tautomer_probability>
0.9999

> <r_epik_Ionization_Penalty>
1.88808

> <r_epik_Ionization_Penalty_Charging>
1.88806

> <r_epik_Ionization_Penalty_Neutral>
2.68145e-05

> <r_epik_State_Penalty>
2.00836

> <r_epik_Charging_Adjusted_Penalty>
3.89641

> <i_epik_Tot_Q>
1

> <i_epik_Tot_abs_Q>
1

> <r_epik_Metal_State_Penalty>
2.03272

> <b_epik_Metal_Only>
0

> <s_lp_Force_Field>
OPLS_2005

> <r_lp_Energy>
42.6194

> <b_lp_Chiralities_Consistent>
1

> <s_lp_Variant>
AV-unprocessed.smi:2944-3

> <Gold.Version>
5.8.1

> <Gold.Id.Protein>
6NUR|6NUR_protein|mol2

> <Gold.PLP.Fitness>
49.2786

> <Gold.PLP.PLP>
-41.6060

> <Gold.PLP.part.hbond>
-4.0000

> <Gold.PLP.part.metal>
0.0000

> <Gold.PLP.part.buried>
-3.4506

> <Gold.PLP.part.nonpolar>
-36.2428

> <Gold.PLP.part.repulsive>
0.3806

> <Gold.PLP.ligand.clash>
0.0000

> <Gold.PLP.ligand.torsion>
0.7617

> <Gold.PLP.Chemscore.Hbond>
3.0281

> <Gold.PLP.Chemscore.CHOScore>
0.0000

> <Gold.PLP.Chemscore.Metal>
0.0000

> <Gold.Chemscore.Hbonds>
donor molecule, donor type, donor heavy atom, donor atom, acceptor molecule, acceptor atom, score
      L1  H    15    40       P1 10171  0.52
      L1  H    18    45       P1  8028  1.76
      P1  H  7997  8010       L1     2  0.83

> <Gold.PLP.Chemscore.Internal.Correction>
0.1117

> <Gold.Rescore>
     Score         DG    S(hbond)    S(metal)    S(lipo)     H(rot)  DE(clash)    DE(int)     intcor
     16.70     -20.54       2.63        0.00     103.89       2.30       1.70       2.14       ----

> <Gold.Chemscore.Fitness>
16.6978

> <Gold.Chemscore.DG>
-20.5356

> <Gold.Chemscore.ZeroCoef>
-5.4800

> <Gold.Chemscore.Hbond>
2.6306

> <Gold.Chemscore.Metal>
0.0000

> <Gold.Chemscore.Lipo>
103.8852

> <Gold.Chemscore.Internal_Hbond>
0.0000

> <Gold.Chemscore.DEClash>
1.6988

> <Gold.Chemscore.DEInternal>
2.1391

> <Gold.Chemscore.Rot>
2.2988

> <Gold.Chemscore.Internal.Correction>
   9.000000E+99

> <Gold.Chemscore.Hbonds>
donor molecule, donor type, donor heavy atom, donor atom, acceptor molecule, acceptor atom, score
      L1  H    15    40       P1 10171  0.51
      L1  H    18    45       P1  8028  0.87
      P1  H  7997  8010       L1     2  0.38

> <Gold.Chemscore.Hbond.Weighted>
-8.7861

> <Gold.Chemscore.Metal.Weighted>
-0.0000

> <Gold.Chemscore.Lipo.Weighted>
-12.1546

> <Gold.Chemscore.Internal_Hbond.Weighted>
0.0000

> <Gold.Chemscore.DEClash.Weighted>
1.6988

> <Gold.Chemscore.DEInternal.Weighted>
2.1391

> <Gold.Chemscore.Rot.Weighted>
5.8850

> <Gold.Chemscore.Internal.Correction.Weighted>
   9.000000E+99

> <Gold.Protein.RotatedTorsions>
[ 6907 6896 6895 6894 ] final   23.16 input  -60.11 | X-H torsion
[ 7974 7965 7964 7962 ] final   43.25 input  175.53 | X-H torsion
[ 8008 7997 7996 7995 ] final   40.82 input   59.86 | X-H torsion
[ 10167 10162 10161 10158 ] final  141.41 input  -65.29 | X-H torsion
[ 10718 10713 10712 10709 ] final  -44.84 input   66.30 | X-H torsion
[ 10763 10752 10751 10750 ] final -129.49 input  -60.55 | X-H torsion
[ 11005 11000 10999 10996 ] final  -90.20 input  -57.11 | X-H torsion

> <Gold.Protein.ActiveResidues>
 VAL166  LYS551  ARG553  GLY616  TRP617  ASP618  TYR619  PRO620  LYS621  CYS622 
 ASP623  PHE694  ASN695  SER759  ASP760  ASP761  ALA762  ILE779  LEU786  VAL792 
 PHE793  MET794  SER795  GLU796  ALA797  LYS798  CYS799  TRP800  GLU811  SER814 

> <Gold.Protein.RotatedAtoms>
  151.9382  135.0225  160.0533 H   0  0  0  0  0  0  0  0  0  0  0  0  # atno 6907 bound_to 6896
  152.2059  133.4871  159.5092 H   0  0  0  0  0  0  0  0  0  0  0  0  # atno 6908 bound_to 6896
  150.6965  134.1446  159.4160 H   0  0  0  0  0  0  0  0  0  0  0  0  # atno 6909 bound_to 6896
  146.0671  139.5207  142.9621 H   0  0  0  0  0  0  0  0  0  0  0  0  # atno 7974 bound_to 7965
  155.2594  140.3358  155.4274 H   0  0  0  0  0  0  0  0  0  0  0  0  # atno 8008 bound_to 7997
  156.2181  140.1797  156.7584 H   0  0  0  0  0  0  0  0  0  0  0  0  # atno 8009 bound_to 7997
  154.5784  140.0658  156.9052 H   0  0  0  0  0  0  0  0  0  0  0  0  # atno 8010 bound_to 7997
  139.5021  144.6173  151.6134 H   0  0  0  0  0  0  0  0  0  0  0  0  # atno 10167 bound_to 10162
  156.2344  130.4175  149.8836 H   0  0  0  0  0  0  0  0  0  0  0  0  # atno 10718 bound_to 10713
  154.8757  135.3893  154.3929 H   0  0  0  0  0  0  0  0  0  0  0  0  # atno 10763 bound_to 10752
  153.4662  135.7029  153.6026 H   0  0  0  0  0  0  0  0  0  0  0  0  # atno 10764 bound_to 10752
  153.4503  135.3835  155.2248 H   0  0  0  0  0  0  0  0  0  0  0  0  # atno 10765 bound_to 10752
  141.1570  133.7677  156.9704 H   0  0  0  0  0  0  0  0  0  0  0  0  # atno 11005 bound_to 11000
  145.6458  141.0274  143.1787 LP  0  0  0  0  0  0  0  0  0  0  0  0  # atno 17320 bound_to 7965
  144.7209  139.8034  143.7382 LP  0  0  0  0  0  0  0  0  0  0  0  0  # atno 17321 bound_to 7965
  140.5864  143.9856  150.6298 LP  0  0  0  0  0  0  0  0  0  0  0  0  # atno 17342 bound_to 10162
  140.3022  143.3253  152.0961 LP  0  0  0  0  0  0  0  0  0  0  0  0  # atno 17343 bound_to 10162
  156.6439  130.8716  151.3519 LP  0  0  0  0  0  0  0  0  0  0  0  0  # atno 17370 bound_to 10713
  157.7148  130.9483  150.1214 LP  0  0  0  0  0  0  0  0  0  0  0  0  # atno 17371 bound_to 10713
  140.1133  134.9463  157.2098 LP  0  0  0  0  0  0  0  0  0  0  0  0  # atno 17394 bound_to 11000
  140.3165  134.2964  155.7255 LP  0  0  0  0  0  0  0  0  0  0  0  0  # atno 17395 bound_to 11000

$$$$
