AV-unprocessed.smi:3314|AV-procd|sdf|12746|dock8
  -GOLD-   2272019 83D 1   1.00000     0.00000
 Structure written by MMmdl.
 37 38  0  0  0  0  0  0  0  0  3 V2000
  154.2112  140.6292  161.0149 C   0  0  0  0  0  0  0  0  0  0  0  0
  153.1952  141.4613  160.2614 C   0  0  0  0  0  0  0  0  0  0  0  0
  153.0443  142.8326  160.5404 C   0  0  0  0  0  0  0  0  0  0  0  0
  152.0878  143.5578  159.8038 C   0  0  0  0  0  0  0  0  0  0  0  0
  151.8739  145.0353  160.0563 C   0  0  0  0  0  0  0  0  0  0  0  0
  151.3109  142.9988  158.8507 N   0  0  0  0  0  0  0  0  0  0  0  0
  151.4407  141.6788  158.5777 C   0  0  0  0  0  0  0  0  0  0  0  0
  150.6706  141.1390  157.6223 N   0  5  0  0  0  0  0  0  0  0  0  0
  151.2418  140.4864  156.5802 C   0  0  0  0  0  0  0  0  0  0  0  0
  152.3159  139.8829  156.5410 O   0  0  0  0  0  0  0  0  0  0  0  0
  150.3701  140.5698  155.3199 C   0  0  1  0  0  0  0  0  0  0  0  0
  149.7709  139.1915  154.9647 C   0  0  0  0  0  0  0  0  0  0  0  0
  148.8673  139.3062  153.7981 N   0  3  1  0  0  0  0  0  0  0  0  0
  148.3003  138.0048  153.3858 C   0  0  0  0  0  0  0  0  0  0  0  0
  147.8291  140.3348  154.0329 C   0  0  0  0  0  0  0  0  0  0  0  0
  148.4837  141.6730  154.4117 C   0  0  0  0  0  0  0  0  0  0  0  0
  149.3076  141.4918  155.5558 O   0  0  0  0  0  0  0  0  0  0  0  0
  152.3857  140.8808  159.2642 C   0  0  0  0  0  0  0  0  0  0  0  0
  154.2792  140.9523  162.0541 H   0  0  0  0  0  0  0  0  0  0  0  0
  155.1948  140.7317  160.5562 H   0  0  0  0  0  0  0  0  0  0  0  0
  153.9354  139.5743  161.0060 H   0  0  0  0  0  0  0  0  0  0  0  0
  153.6462  143.3149  161.2965 H   0  0  0  0  0  0  0  0  0  0  0  0
  152.7662  145.4907  160.4862 H   0  0  0  0  0  0  0  0  0  0  0  0
  151.0454  145.1805  160.7496 H   0  0  0  0  0  0  0  0  0  0  0  0
  151.6417  145.5588  159.1282 H   0  0  0  0  0  0  0  0  0  0  0  0
  150.9744  140.9422  154.4889 H   0  0  0  0  0  0  0  0  0  0  0  0
  150.5677  138.4831  154.7328 H   0  0  0  0  0  0  0  0  0  0  0  0
  149.2189  138.7859  155.8149 H   0  0  0  0  0  0  0  0  0  0  0  0
  147.6755  137.5826  154.1740 H   0  0  0  0  0  0  0  0  0  0  0  0
  149.0956  137.2935  153.1609 H   0  0  0  0  0  0  0  0  0  0  0  0
  147.6907  138.1179  152.4888 H   0  0  0  0  0  0  0  0  0  0  0  0
  147.2223  140.4586  153.1352 H   0  0  0  0  0  0  0  0  0  0  0  0
  147.1613  140.0066  154.8309 H   0  0  0  0  0  0  0  0  0  0  0  0
  149.0723  142.0692  153.5827 H   0  0  0  0  0  0  0  0  0  0  0  0
  147.7184  142.4143  154.6418 H   0  0  0  0  0  0  0  0  0  0  0  0
  152.4845  139.8308  159.0290 H   0  0  0  0  0  0  0  0  0  0  0  0
  149.4336  139.6352  153.0291 H   0  0  0  0  0  0  0  0  0  0  0  0
  1  2  1  0  0  0  0
  1 19  1  0  0  0  0
  1 20  1  0  0  0  0
  1 21  1  0  0  0  0
  2 18  2  0  0  0  0
  2  3  1  0  0  0  0
  3  4  2  0  0  0  0
  3 22  1  0  0  0  0
  4  5  1  0  0  0  0
  4  6  1  0  0  0  0
  5 23  1  0  0  0  0
  5 24  1  0  0  0  0
  5 25  1  0  0  0  0
  6  7  2  0  0  0  0
  7  8  1  0  0  0  0
  7 18  1  0  0  0  0
  8  9  1  0  0  0  0
  9 10  2  0  0  0  0
  9 11  1  0  0  0  0
 11 17  1  0  0  0  0
 11 12  1  0  0  0  0
 11 26  1  0  0  0  0
 12 13  1  0  0  0  0
 12 27  1  0  0  0  0
 12 28  1  0  0  0  0
 13 14  1  0  0  0  0
 13 15  1  0  0  0  0
 13 37  1  0  0  0  0
 14 29  1  0  0  0  0
 14 30  1  0  0  0  0
 14 31  1  0  0  0  0
 15 16  1  0  0  0  0
 15 32  1  0  0  0  0
 15 33  1  0  0  0  0
 16 17  1  0  0  0  0
 16 34  1  0  0  0  0
 16 35  1  0  0  0  0
 18 36  1  0  0  0  0
M  CHG  1   8  -1
M  CHG  1  13   1
M  END
> <s_m_source_file>
AV-unprocessed.smi

> <i_m_source_file_index>
3314

> <i_lp_mmshare_version>
43012

> <i_f3d_flags>
0

> <s_epik_input>
W0NIM11jMVtjSF1jKFtDSDNdKW5jKFtjSF0xKVtOSF1DKD1PKVtDQEBIXTJbQ0gyXU4oW0NIM10pW0NIMl1bQ0gyXU8y

> <s_epik_cmdline>
J2VwaWtfcHl0aG9uJywgJy1waCcsICc3LjAnLCAnLXRuJywgJzgnLCAnLW1hJywgJzIwMCcsICctbWV0YWxfYmluZGluZycsICctaW1hZScsICc8aW5maWxlLm1hZT4nLCAnLW9tYWUnLCAnPG91dGZpbGUubWFlPic=

> <r_epik_Ionization_Penalty>
13.8964

> <r_epik_Ionization_Penalty_Charging>
7.88995

> <r_epik_Ionization_Penalty_Neutral>
6.00641

> <r_epik_State_Penalty>
8.39989

> <r_epik_Charging_Adjusted_Penalty>
16.2898

> <i_epik_Tot_Q>
0

> <i_epik_Tot_abs_Q>
2

> <r_epik_Metal_State_Penalty>
4.31145

> <b_epik_Metal_Only>
1

> <s_lp_Force_Field>
OPLS_2005

> <r_lp_Energy>
9.09812

> <b_lp_Chiralities_Consistent>
1

> <s_lp_Variant>
AV-unprocessed.smi:3314-16

> <Gold.Version>
5.8.1

> <Gold.Id.Protein>
6NUR|6NUR_protein|mol2

> <Gold.PLP.Fitness>
39.2508

> <Gold.PLP.PLP>
-34.9221

> <Gold.PLP.part.hbond>
-2.0000

> <Gold.PLP.part.metal>
0.0000

> <Gold.PLP.part.buried>
1.3275

> <Gold.PLP.part.nonpolar>
-34.2519

> <Gold.PLP.part.repulsive>
0.2943

> <Gold.PLP.ligand.clash>
0.0000

> <Gold.PLP.ligand.torsion>
0.8404

> <Gold.PLP.Chemscore.Hbond>
2.0000

> <Gold.PLP.Chemscore.CHOScore>
0.0000

> <Gold.PLP.Chemscore.Metal>
0.0000

> <Gold.Chemscore.Hbonds>
donor molecule, donor type, donor heavy atom, donor atom, acceptor molecule, acceptor atom, score
      L1  H    13    37       P1  7957  0.99
      P1  H  7997  8009       L1    10  0.93

> <Gold.PLP.Chemscore.Internal.Correction>
0.0094

> <Gold.Rescore>
     Score         DG    S(hbond)    S(metal)    S(lipo)     H(rot)  DE(clash)    DE(int)     intcor
     16.99     -20.68       1.92        0.00      97.06       1.00       1.70       1.98       ----

> <Gold.Chemscore.Fitness>
16.9903

> <Gold.Chemscore.DG>
-20.6751

> <Gold.Chemscore.ZeroCoef>
-5.4800

> <Gold.Chemscore.Hbond>
1.9161

> <Gold.Chemscore.Metal>
0.0000

> <Gold.Chemscore.Lipo>
97.0553

> <Gold.Chemscore.Internal_Hbond>
0.0000

> <Gold.Chemscore.DEClash>
1.7041

> <Gold.Chemscore.DEInternal>
1.9807

> <Gold.Chemscore.Rot>
1.0000

> <Gold.Chemscore.Internal.Correction>
   9.000000E+99

> <Gold.Chemscore.Hbonds>
donor molecule, donor type, donor heavy atom, donor atom, acceptor molecule, acceptor atom, score
      L1  H    13    37       P1  7957  0.94
      P1  H  7997  8009       L1    10  0.88

> <Gold.Chemscore.Hbond.Weighted>
-6.3997

> <Gold.Chemscore.Metal.Weighted>
-0.0000

> <Gold.Chemscore.Lipo.Weighted>
-11.3555

> <Gold.Chemscore.Internal_Hbond.Weighted>
0.0000

> <Gold.Chemscore.DEClash.Weighted>
1.7041

> <Gold.Chemscore.DEInternal.Weighted>
1.9807

> <Gold.Chemscore.Rot.Weighted>
2.5600

> <Gold.Chemscore.Internal.Correction.Weighted>
   9.000000E+99

> <Gold.Protein.RotatedTorsions>
[ 6907 6896 6895 6894 ] final   41.79 input  -60.11 | X-H torsion
[ 7974 7965 7964 7962 ] final   50.66 input  175.53 | X-H torsion
[ 8008 7997 7996 7995 ] final -156.12 input   59.86 | X-H torsion
[ 10167 10162 10161 10158 ] final   22.34 input  -65.29 | X-H torsion
[ 10718 10713 10712 10709 ] final  -88.87 input   66.30 | X-H torsion
[ 10763 10752 10751 10750 ] final   48.04 input  -60.55 | X-H torsion
[ 11005 11000 10999 10996 ] final  -50.59 input  -57.11 | X-H torsion

> <Gold.Protein.ActiveResidues>
 VAL166  LYS551  ARG553  GLY616  TRP617  ASP618  TYR619  PRO620  LYS621  CYS622 
 ASP623  PHE694  ASN695  SER759  ASP760  ASP761  ALA762  ILE779  LEU786  VAL792 
 PHE793  MET794  SER795  GLU796  ALA797  LYS798  CYS799  TRP800  GLU811  SER814 

> <Gold.Protein.RotatedAtoms>
  152.1997  134.8598  160.0508 H   0  0  0  0  0  0  0  0  0  0  0  0  # atno 6907 bound_to 6896
  151.9456  133.3646  159.3989 H   0  0  0  0  0  0  0  0  0  0  0  0  # atno 6908 bound_to 6896
  150.6952  134.4317  159.5295 H   0  0  0  0  0  0  0  0  0  0  0  0  # atno 6909 bound_to 6896
  145.9990  139.4419  143.0026 H   0  0  0  0  0  0  0  0  0  0  0  0  # atno 7974 bound_to 7965
  155.7123  140.0780  157.2366 H   0  0  0  0  0  0  0  0  0  0  0  0  # atno 8008 bound_to 7997
  154.4056  140.1628  156.2364 H   0  0  0  0  0  0  0  0  0  0  0  0  # atno 8009 bound_to 7997
  155.9271  140.3394  155.6222 H   0  0  0  0  0  0  0  0  0  0  0  0  # atno 8010 bound_to 7997
  140.5356  143.9766  150.6490 H   0  0  0  0  0  0  0  0  0  0  0  0  # atno 10167 bound_to 10162
  155.9984  130.4851  150.5085 H   0  0  0  0  0  0  0  0  0  0  0  0  # atno 10718 bound_to 10713
  152.9795  135.5957  154.3861 H   0  0  0  0  0  0  0  0  0  0  0  0  # atno 10763 bound_to 10752
  154.3521  135.2767  155.2368 H   0  0  0  0  0  0  0  0  0  0  0  0  # atno 10764 bound_to 10752
  154.4403  135.6015  153.6180 H   0  0  0  0  0  0  0  0  0  0  0  0  # atno 10765 bound_to 10752
  141.0824  133.6650  156.3753 H   0  0  0  0  0  0  0  0  0  0  0  0  # atno 11005 bound_to 11000
  145.7516  140.9970  143.1247 LP  0  0  0  0  0  0  0  0  0  0  0  0  # atno 17320 bound_to 7965
  144.6913  139.9221  143.7468 LP  0  0  0  0  0  0  0  0  0  0  0  0  # atno 17321 bound_to 7965
  140.3153  143.3172  152.0839 LP  0  0  0  0  0  0  0  0  0  0  0  0  # atno 17342 bound_to 10162
  139.4970  144.6610  151.6465 LP  0  0  0  0  0  0  0  0  0  0  0  0  # atno 17343 bound_to 10162
  157.3061  131.0655  151.2034 LP  0  0  0  0  0  0  0  0  0  0  0  0  # atno 17370 bound_to 10713
  157.2996  130.6836  149.6157 LP  0  0  0  0  0  0  0  0  0  0  0  0  # atno 17371 bound_to 10713
  140.5438  134.6094  157.5388 LP  0  0  0  0  0  0  0  0  0  0  0  0  # atno 17394 bound_to 11000
  139.9639  134.7405  156.0179 LP  0  0  0  0  0  0  0  0  0  0  0  0  # atno 17395 bound_to 11000

$$$$
