AV-unprocessed.smi:713|AV-procd|sdf|3476|dock9
  -GOLD-   22720 0473D 1   1.00000     0.00000
 Structure written by MMmdl.
 41 42  0  0  0  0  0  0  0  0  1 V2000
  151.4628  145.2550  159.6578 C   0  0  0  0  0  0  0  0  0  0  0  0
  152.0414  143.8492  159.3969 C   0  0  2  0  0  0  0  0  0  0  0  0
  151.0046  142.8775  158.8123 C   0  0  0  0  0  0  0  0  0  0  0  0
  149.8280  142.9177  159.1745 O   0  0  0  0  0  0  0  0  0  0  0  0
  151.4637  141.9962  157.9094 N   0  0  0  0  0  0  0  0  0  0  0  0
  150.6688  140.9555  157.2664 C   0  0  1  0  0  0  0  0  0  0  0  0
  150.6027  141.2196  155.7516 C   0  0  0  0  0  0  0  0  0  0  0  0
  149.8299  140.1090  155.0246 C   0  0  0  0  0  0  0  0  0  0  0  0
  150.4388  138.7285  155.3126 C   0  0  0  0  0  0  0  0  0  0  0  0
  150.5017  138.4470  156.8246 C   0  0  1  0  0  0  0  0  0  0  0  0
  151.2780  136.7933  157.1201 S   0  0  0  0  0  0  0  0  0  0  0  0
  150.1404  135.6452  156.2392 C   0  0  0  0  0  0  0  0  0  0  0  0
  152.5813  136.7684  156.4390 O   0  0  0  0  0  0  0  0  0  0  0  0
  151.2051  136.4891  158.5573 O   0  0  0  0  0  0  0  0  0  0  0  0
  151.2701  139.5650  157.5571 C   0  0  0  0  0  0  0  0  0  0  0  0
  152.6540  143.2726  160.5884 N   0  0  0  0  0  0  0  0  0  0  0  0
  152.6716  143.7912  161.8675 C   0  0  0  0  0  0  0  0  0  0  0  0
  153.3955  142.9364  162.6481 C   0  0  0  0  0  0  0  0  0  0  0  0
  153.7984  141.9138  161.7454 C   0  0  0  0  0  0  0  0  0  0  0  0
  153.3619  142.1211  160.5142 N   0  0  0  0  0  0  0  0  0  0  0  0
  151.0607  145.6899  158.7422 H   0  0  0  0  0  0  0  0  0  0  0  0
  152.2361  145.9299  160.0260 H   0  0  0  0  0  0  0  0  0  0  0  0
  150.6597  145.2396  160.3957 H   0  0  0  0  0  0  0  0  0  0  0  0
  152.8328  143.9631  158.6543 H   0  0  0  0  0  0  0  0  0  0  0  0
  152.4434  142.0332  157.6686 H   0  0  0  0  0  0  0  0  0  0  0  0
  149.6511  140.9899  157.6604 H   0  0  0  0  0  0  0  0  0  0  0  0
  150.1279  142.1827  155.5598 H   0  0  0  0  0  0  0  0  0  0  0  0
  151.6119  141.2840  155.3417 H   0  0  0  0  0  0  0  0  0  0  0  0
  148.7860  140.1214  155.3409 H   0  0  0  0  0  0  0  0  0  0  0  0
  149.8297  140.2981  153.9509 H   0  0  0  0  0  0  0  0  0  0  0  0
  149.8520  137.9583  154.8118 H   0  0  0  0  0  0  0  0  0  0  0  0
  151.4420  138.6772  154.8869 H   0  0  0  0  0  0  0  0  0  0  0  0
  149.4850  138.3944  157.2160 H   0  0  0  0  0  0  0  0  0  0  0  0
  150.5599  134.6398  156.2589 H   0  0  0  0  0  0  0  0  0  0  0  0
  150.0244  135.9666  155.2043 H   0  0  0  0  0  0  0  0  0  0  0  0
  149.1686  135.6318  156.7307 H   0  0  0  0  0  0  0  0  0  0  0  0
  152.3178  139.5503  157.2529 H   0  0  0  0  0  0  0  0  0  0  0  0
  151.2588  139.3830  158.6313 H   0  0  0  0  0  0  0  0  0  0  0  0
  152.1732  144.7174  162.1130 H   0  0  0  0  0  0  0  0  0  0  0  0
  153.6098  143.0298  163.7023 H   0  0  0  0  0  0  0  0  0  0  0  0
  154.3948  141.0358  161.9454 H   0  0  0  0  0  0  0  0  0  0  0  0
  1  2  1  0  0  0  0
  1 21  1  0  0  0  0
  1 22  1  0  0  0  0
  1 23  1  0  0  0  0
  2  3  1  0  0  0  0
  2 16  1  0  0  0  0
  2 24  1  0  0  0  0
  3  4  2  0  0  0  0
  3  5  1  0  0  0  0
  5  6  1  0  0  0  0
  5 25  1  0  0  0  0
  6 15  1  0  0  0  0
  6  7  1  0  0  0  0
  6 26  1  0  0  0  0
  7  8  1  0  0  0  0
  7 27  1  0  0  0  0
  7 28  1  0  0  0  0
  8  9  1  0  0  0  0
  8 29  1  0  0  0  0
  8 30  1  0  0  0  0
  9 10  1  0  0  0  0
  9 31  1  0  0  0  0
  9 32  1  0  0  0  0
 10 11  1  0  0  0  0
 10 15  1  0  0  0  0
 10 33  1  0  0  0  0
 11 12  1  0  0  0  0
 11 13  2  0  0  0  0
 11 14  2  0  0  0  0
 12 34  1  0  0  0  0
 12 35  1  0  0  0  0
 12 36  1  0  0  0  0
 15 37  1  0  0  0  0
 15 38  1  0  0  0  0
 16 20  1  0  0  0  0
 16 17  1  0  0  0  0
 17 18  2  0  0  0  0
 17 39  1  0  0  0  0
 18 19  1  0  0  0  0
 18 40  1  0  0  0  0
 19 20  2  0  0  0  0
 19 41  1  0  0  0  0
M  END
> <s_m_source_file>
AV-unprocessed.smi

> <i_m_source_file_index>
713

> <i_lp_mmshare_version>
43012

> <i_f3d_flags>
0

> <s_epik_input>
bjFbY0hdW2NIXVtjSF1uMVtDQEhdKFtDSDNdKUMoPU8pW05IXVtDQEBIXTJbQ0gyXVtDSDJdW0NIMl1bQ0BIXShbQ0gyXTIpUyg9TykoPU8pW0NIM10=

> <s_epik_cmdline>
J2VwaWtfcHl0aG9uJywgJy1waCcsICc3LjAnLCAnLXRuJywgJzgnLCAnLW1hJywgJzIwMCcsICctbWV0YWxfYmluZGluZycsICctaW1hZScsICc8aW5maWxlLm1hZT4nLCAnLW9tYWUnLCAnPG91dGZpbGUubWFlPic=

> <r_lp_tautomer_probability>
1

> <r_epik_Ionization_Penalty>
4.07816e-05

> <r_epik_Ionization_Penalty_Charging>
0

> <r_epik_Ionization_Penalty_Neutral>
4.07816e-05

> <r_epik_State_Penalty>
-0

> <r_epik_Charging_Adjusted_Penalty>
0

> <i_epik_Tot_Q>
0

> <i_epik_Tot_abs_Q>
0

> <r_epik_Metal_State_Penalty>
-0

> <b_epik_Metal_Only>
0

> <s_lp_Force_Field>
OPLS_2005

> <r_lp_Energy>
6.63175

> <b_lp_Chiralities_Consistent>
1

> <s_lp_Variant>
AV-unprocessed.smi:713-3

> <Gold.Version>
5.8.1

> <Gold.Id.Protein>
6NUR|6NUR_protein|mol2

> <Gold.PLP.Fitness>
46.5411

> <Gold.PLP.PLP>
-42.5384

> <Gold.PLP.part.hbond>
-2.8130

> <Gold.PLP.part.metal>
0.0000

> <Gold.PLP.part.buried>
-6.1994

> <Gold.PLP.part.nonpolar>
-32.7285

> <Gold.PLP.part.repulsive>
0.1686

> <Gold.PLP.ligand.clash>
0.0000

> <Gold.PLP.ligand.torsion>
0.8444

> <Gold.PLP.Chemscore.Hbond>
1.8160

> <Gold.PLP.Chemscore.CHOScore>
0.0000

> <Gold.PLP.Chemscore.Metal>
0.0000

> <Gold.Chemscore.Hbonds>
donor molecule, donor type, donor heavy atom, donor atom, acceptor molecule, acceptor atom, score
      P1  H  6896  6909       L1    14  0.75
      P1  H 10752 10765       L1    13  0.96

> <Gold.PLP.Chemscore.Internal.Correction>
0.2434

> <Gold.Rescore>
     Score         DG    S(hbond)    S(metal)    S(lipo)     H(rot)  DE(clash)    DE(int)     intcor
     17.44     -18.13       1.73        0.00      96.46       1.72       0.07       0.62       ----

> <Gold.Chemscore.Fitness>
17.4361

> <Gold.Chemscore.DG>
-18.1252

> <Gold.Chemscore.ZeroCoef>
-5.4800

> <Gold.Chemscore.Hbond>
1.7290

> <Gold.Chemscore.Metal>
0.0000

> <Gold.Chemscore.Lipo>
96.4611

> <Gold.Chemscore.Internal_Hbond>
0.0000

> <Gold.Chemscore.DEClash>
0.0650

> <Gold.Chemscore.DEInternal>
0.6241

> <Gold.Chemscore.Rot>
1.7249

> <Gold.Chemscore.Internal.Correction>
   9.000000E+99

> <Gold.Chemscore.Hbonds>
donor molecule, donor type, donor heavy atom, donor atom, acceptor molecule, acceptor atom, score
      P1  H  6896  6909       L1    14  0.74
      P1  H 10752 10765       L1    13  0.91

> <Gold.Chemscore.Hbond.Weighted>
-5.7750

> <Gold.Chemscore.Metal.Weighted>
-0.0000

> <Gold.Chemscore.Lipo.Weighted>
-11.2859

> <Gold.Chemscore.Internal_Hbond.Weighted>
0.0000

> <Gold.Chemscore.DEClash.Weighted>
0.0650

> <Gold.Chemscore.DEInternal.Weighted>
0.6241

> <Gold.Chemscore.Rot.Weighted>
4.4157

> <Gold.Chemscore.Internal.Correction.Weighted>
   9.000000E+99

> <Gold.Protein.RotatedTorsions>
[ 6907 6896 6895 6894 ] final   93.50 input  -60.11 | X-H torsion
[ 7974 7965 7964 7962 ] final   86.54 input  175.53 | X-H torsion
[ 8008 7997 7996 7995 ] final -133.98 input   59.86 | X-H torsion
[ 10167 10162 10161 10158 ] final  165.53 input  -65.29 | X-H torsion
[ 10718 10713 10712 10709 ] final  100.30 input   66.30 | X-H torsion
[ 10763 10752 10751 10750 ] final -128.46 input  -60.55 | X-H torsion
[ 11005 11000 10999 10996 ] final  -95.37 input  -57.11 | X-H torsion

> <Gold.Protein.ActiveResidues>
 VAL166  LYS551  ARG553  GLY616  TRP617  ASP618  TYR619  PRO620  LYS621  CYS622 
 ASP623  PHE694  ASN695  SER759  ASP760  ASP761  ALA762  ILE779  LEU786  VAL792 
 PHE793  MET794  SER795  GLU796  ALA797  LYS798  CYS799  TRP800  GLU811  SER814 

> <Gold.Protein.RotatedAtoms>
  152.5452  134.1338  159.8449 H   0  0  0  0  0  0  0  0  0  0  0  0  # atno 6907 bound_to 6896
  151.1381  133.4983  159.2605 H   0  0  0  0  0  0  0  0  0  0  0  0  # atno 6908 bound_to 6896
  151.1602  135.0280  159.8762 H   0  0  0  0  0  0  0  0  0  0  0  0  # atno 6909 bound_to 6896
  145.5709  139.2313  143.2406 H   0  0  0  0  0  0  0  0  0  0  0  0  # atno 7974 bound_to 7965
  155.3544  140.0479  157.3046 H   0  0  0  0  0  0  0  0  0  0  0  0  # atno 8008 bound_to 7997
  154.5210  140.2225  155.8940 H   0  0  0  0  0  0  0  0  0  0  0  0  # atno 8009 bound_to 7997
  156.1689  140.3100  155.8945 H   0  0  0  0  0  0  0  0  0  0  0  0  # atno 8010 bound_to 7997
  139.4907  144.4122  151.9286 H   0  0  0  0  0  0  0  0  0  0  0  0  # atno 10167 bound_to 10162
  157.6857  131.0694  150.5079 H   0  0  0  0  0  0  0  0  0  0  0  0  # atno 10718 bound_to 10713
  154.8756  135.3928  154.3760 H   0  0  0  0  0  0  0  0  0  0  0  0  # atno 10763 bound_to 10752
  153.4514  135.7028  153.6112 H   0  0  0  0  0  0  0  0  0  0  0  0  # atno 10764 bound_to 10752
  153.4650  135.3803  155.2328 H   0  0  0  0  0  0  0  0  0  0  0  0  # atno 10765 bound_to 10752
  141.1444  133.8021  157.0426 H   0  0  0  0  0  0  0  0  0  0  0  0  # atno 11005 bound_to 11000
  146.1785  140.6535  142.9200 LP  0  0  0  0  0  0  0  0  0  0  0  0  # atno 17320 bound_to 7965
  144.7438  140.5014  143.6850 LP  0  0  0  0  0  0  0  0  0  0  0  0  # atno 17321 bound_to 7965
  140.3563  144.3027  150.5940 LP  0  0  0  0  0  0  0  0  0  0  0  0  # atno 17342 bound_to 10162
  140.5441  143.2218  151.8036 LP  0  0  0  0  0  0  0  0  0  0  0  0  # atno 17343 bound_to 10162
  156.5397  130.4205  149.6160 LP  0  0  0  0  0  0  0  0  0  0  0  0  # atno 17370 bound_to 10713
  156.2996  130.7169  151.2038 LP  0  0  0  0  0  0  0  0  0  0  0  0  # atno 17371 bound_to 10713
  140.0683  134.9716  157.1424 LP  0  0  0  0  0  0  0  0  0  0  0  0  # atno 17394 bound_to 11000
  140.3748  134.2351  155.7175 LP  0  0  0  0  0  0  0  0  0  0  0  0  # atno 17395 bound_to 11000

$$$$
