AV-unprocessed.smi:1239|AV-procd|sdf|5187|dock5
  -GOLD-   22720 4273D 1   1.00000     0.00000
 Structure written by MMmdl.
 47 48  0  0  0  0  0  0  0  0  1 V2000
  154.9406  134.5877  161.6861 C   0  0  0  0  0  0  0  0  0  0  0  0
  154.6270  135.4704  162.9157 C   0  0  2  0  0  0  0  0  0  0  0  0
  155.2658  136.8627  162.6816 C   0  0  0  0  0  0  0  0  0  0  0  0
  154.5880  137.5965  161.6150 N   0  0  0  0  0  0  0  0  0  0  0  0
  154.3831  138.9206  161.5882 C   0  0  0  0  0  0  0  0  0  0  0  0
  154.7597  139.6859  162.4754 O   0  0  0  0  0  0  0  0  0  0  0  0
  153.7035  139.2837  160.4866 N   0  0  0  0  0  0  0  0  0  0  0  0
  153.3008  140.5862  160.0832 C   0  0  0  0  0  0  0  0  0  0  0  0
  153.4592  141.6421  161.0006 C   0  0  0  0  0  0  0  0  0  0  0  0
  153.0555  142.9407  160.6366 C   0  0  0  0  0  0  0  0  0  0  0  0
  152.4902  143.1560  159.3553 C   0  0  0  0  0  0  0  0  0  0  0  0
  152.0729  144.4410  158.9386 N   0  0  0  0  0  0  0  0  0  0  0  0
  151.8407  144.7053  157.5221 C   0  0  0  0  0  0  0  0  0  0  0  0
  151.8909  145.5067  159.9158 C   0  0  0  0  0  0  0  0  0  0  0  0
  152.3244  142.1341  158.4806 N   0  0  0  0  0  0  0  0  0  0  0  0
  152.7132  140.8907  158.8328 C   0  0  0  0  0  0  0  0  0  0  0  0
  154.9964  134.8426  164.2037 N   0  0  0  0  0  0  0  0  0  0  0  0
  154.2408  133.6141  164.4676 C   0  0  0  0  0  0  0  0  0  0  0  0
  154.6402  132.9472  165.7955 C   0  0  0  0  0  0  0  0  0  0  0  0
  156.0352  132.6753  165.7942 O   0  0  0  0  0  0  0  0  0  0  0  0
  156.8113  133.8518  165.6101 C   0  0  0  0  0  0  0  0  0  0  0  0
  156.4252  134.5237  164.2811 C   0  0  0  0  0  0  0  0  0  0  0  0
  154.7631  135.1285  160.7561 H   0  0  0  0  0  0  0  0  0  0  0  0
  154.3091  133.7009  161.6457 H   0  0  0  0  0  0  0  0  0  0  0  0
  155.9812  134.2614  161.6822 H   0  0  0  0  0  0  0  0  0  0  0  0
  153.5470  135.6262  162.9179 H   0  0  0  0  0  0  0  0  0  0  0  0
  155.2421  137.4246  163.6167 H   0  0  0  0  0  0  0  0  0  0  0  0
  156.3240  136.7829  162.4359 H   0  0  0  0  0  0  0  0  0  0  0  0
  154.2344  137.0452  160.8467 H   0  0  0  0  0  0  0  0  0  0  0  0
  153.3934  138.5312  159.8894 H   0  0  0  0  0  0  0  0  0  0  0  0
  153.8902  141.4641  161.9751 H   0  0  0  0  0  0  0  0  0  0  0  0
  153.1884  143.7431  161.3464 H   0  0  0  0  0  0  0  0  0  0  0  0
  151.0492  144.0613  157.1372 H   0  0  0  0  0  0  0  0  0  0  0  0
  152.7475  144.5228  156.9447 H   0  0  0  0  0  0  0  0  0  0  0  0
  151.5408  145.7394  157.3531 H   0  0  0  0  0  0  0  0  0  0  0  0
  152.8279  145.7173  160.4319 H   0  0  0  0  0  0  0  0  0  0  0  0
  151.1399  145.2255  160.6545 H   0  0  0  0  0  0  0  0  0  0  0  0
  151.5586  146.4293  159.4399 H   0  0  0  0  0  0  0  0  0  0  0  0
  152.5214  140.1338  158.0890 H   0  0  0  0  0  0  0  0  0  0  0  0
  153.1736  133.8236  164.5173 H   0  0  0  0  0  0  0  0  0  0  0  0
  154.3869  132.9068  163.6497 H   0  0  0  0  0  0  0  0  0  0  0  0
  154.3869  133.5881  166.6413 H   0  0  0  0  0  0  0  0  0  0  0  0
  154.0957  132.0123  165.9281 H   0  0  0  0  0  0  0  0  0  0  0  0
  156.6573  134.5345  166.4471 H   0  0  0  0  0  0  0  0  0  0  0  0
  157.8679  133.5838  165.6059 H   0  0  0  0  0  0  0  0  0  0  0  0
  156.7043  133.8714  163.4524 H   0  0  0  0  0  0  0  0  0  0  0  0
  157.0244  135.4280  164.1860 H   0  0  0  0  0  0  0  0  0  0  0  0
  1  2  1  0  0  0  0
  1 23  1  0  0  0  0
  1 24  1  0  0  0  0
  1 25  1  0  0  0  0
  2  3  1  0  0  0  0
  2 17  1  0  0  0  0
  2 26  1  0  0  0  0
  3  4  1  0  0  0  0
  3 27  1  0  0  0  0
  3 28  1  0  0  0  0
  4  5  1  0  0  0  0
  4 29  1  0  0  0  0
  5  6  2  0  0  0  0
  5  7  1  0  0  0  0
  7  8  1  0  0  0  0
  7 30  1  0  0  0  0
  8 16  1  0  0  0  0
  8  9  2  0  0  0  0
  9 10  1  0  0  0  0
  9 31  1  0  0  0  0
 10 11  2  0  0  0  0
 10 32  1  0  0  0  0
 11 12  1  0  0  0  0
 11 15  1  0  0  0  0
 12 13  1  0  0  0  0
 12 14  1  0  0  0  0
 13 33  1  0  0  0  0
 13 34  1  0  0  0  0
 13 35  1  0  0  0  0
 14 36  1  0  0  0  0
 14 37  1  0  0  0  0
 14 38  1  0  0  0  0
 15 16  2  0  0  0  0
 16 39  1  0  0  0  0
 17 22  1  0  0  0  0
 17 18  1  0  0  0  0
 18 19  1  0  0  0  0
 18 40  1  0  0  0  0
 18 41  1  0  0  0  0
 19 20  1  0  0  0  0
 19 42  1  0  0  0  0
 19 43  1  0  0  0  0
 20 21  1  0  0  0  0
 21 22  1  0  0  0  0
 21 44  1  0  0  0  0
 21 45  1  0  0  0  0
 22 46  1  0  0  0  0
 22 47  1  0  0  0  0
M  END
> <s_m_source_file>
AV-unprocessed.smi

> <i_m_source_file_index>
1239

> <i_lp_mmshare_version>
43012

> <i_f3d_flags>
0

> <s_epik_input>
W0NIMl0xW0NIMl1PW0NIMl1bQ0gyXU4xW0NASF0oW0NIM10pW0NIMl1bTkhdQyg9TylbTkhdYzJbY0hdW2NIXWMoTihbQ0gzXSlbQ0gzXSluW2NIXTI=

> <s_epik_cmdline>
J2VwaWtfcHl0aG9uJywgJy1waCcsICc3LjAnLCAnLXRuJywgJzgnLCAnLW1hJywgJzIwMCcsICctbWV0YWxfYmluZGluZycsICctaW1hZScsICc8aW5maWxlLm1hZT4nLCAnLW9tYWUnLCAnPG91dGZpbGUubWFlPic=

> <r_lp_tautomer_probability>
1

> <r_epik_Ionization_Penalty>
0.87526

> <r_epik_Ionization_Penalty_Charging>
0

> <r_epik_Ionization_Penalty_Neutral>
0.87526

> <r_epik_State_Penalty>
0.859346

> <r_epik_Charging_Adjusted_Penalty>
0.859346

> <i_epik_Tot_Q>
0

> <i_epik_Tot_abs_Q>
0

> <r_epik_Metal_State_Penalty>
0.538105

> <b_epik_Metal_Only>
0

> <s_lp_Force_Field>
OPLS_2005

> <r_lp_Energy>
39.6376

> <b_lp_Chiralities_Consistent>
1

> <s_lp_Variant>
AV-unprocessed.smi:1239-3

> <Gold.Version>
5.8.1

> <Gold.Id.Protein>
6NUR|6NUR_protein|mol2

> <Gold.PLP.Fitness>
41.4892

> <Gold.PLP.PLP>
-42.2653

> <Gold.PLP.part.hbond>
0.0000

> <Gold.PLP.part.metal>
0.0000

> <Gold.PLP.part.buried>
-5.7723

> <Gold.PLP.part.nonpolar>
-36.5103

> <Gold.PLP.part.repulsive>
0.1831

> <Gold.PLP.ligand.clash>
0.0000

> <Gold.PLP.ligand.torsion>
0.4171

> <Gold.PLP.Chemscore.Hbond>
0.0000

> <Gold.PLP.Chemscore.CHOScore>
0.0000

> <Gold.PLP.Chemscore.Metal>
0.0000

> <Gold.PLP.Chemscore.Internal.Correction>
0.0580

> <Gold.Rescore>
     Score         DG    S(hbond)    S(metal)    S(lipo)     H(rot)  DE(clash)    DE(int)     intcor
     12.52     -14.36       0.00        0.00     107.38       1.44       0.06       1.79       ----

> <Gold.Chemscore.Fitness>
12.5178

> <Gold.Chemscore.DG>
-14.3650

> <Gold.Chemscore.ZeroCoef>
-5.4800

> <Gold.Chemscore.Hbond>
0.0000

> <Gold.Chemscore.Metal>
0.0000

> <Gold.Chemscore.Lipo>
107.3811

> <Gold.Chemscore.Internal_Hbond>
0.0000

> <Gold.Chemscore.DEClash>
0.0615

> <Gold.Chemscore.DEInternal>
1.7857

> <Gold.Chemscore.Rot>
1.4370

> <Gold.Chemscore.Internal.Correction>
   9.000000E+99

> <Gold.Chemscore.Hbond.Weighted>
-0.0000

> <Gold.Chemscore.Metal.Weighted>
-0.0000

> <Gold.Chemscore.Lipo.Weighted>
-12.5636

> <Gold.Chemscore.Internal_Hbond.Weighted>
0.0000

> <Gold.Chemscore.DEClash.Weighted>
0.0615

> <Gold.Chemscore.DEInternal.Weighted>
1.7857

> <Gold.Chemscore.Rot.Weighted>
3.6786

> <Gold.Chemscore.Internal.Correction.Weighted>
   9.000000E+99

> <Gold.Protein.RotatedTorsions>
[ 6907 6896 6895 6894 ] final -175.28 input  -60.11 | X-H torsion
[ 7974 7965 7964 7962 ] final -138.98 input  175.53 | X-H torsion
[ 8008 7997 7996 7995 ] final   18.34 input   59.86 | X-H torsion
[ 10167 10162 10161 10158 ] final  -93.74 input  -65.29 | X-H torsion
[ 10718 10713 10712 10709 ] final  -96.87 input   66.30 | X-H torsion
[ 10763 10752 10751 10750 ] final -174.02 input  -60.55 | X-H torsion
[ 11005 11000 10999 10996 ] final  170.78 input  -57.11 | X-H torsion

> <Gold.Protein.ActiveResidues>
 VAL166  LYS551  ARG553  GLY616  TRP617  ASP618  TYR619  PRO620  LYS621  CYS622 
 ASP623  PHE694  ASN695  SER759  ASP760  ASP761  ALA762  ILE779  LEU786  VAL792 
 PHE793  MET794  SER795  GLU796  ALA797  LYS798  CYS799  TRP800  GLU811  SER814 

> <Gold.Protein.RotatedAtoms>
  151.5860  133.3372  159.3017 H   0  0  0  0  0  0  0  0  0  0  0  0  # atno 6907 bound_to 6896
  150.8287  134.7533  159.6846 H   0  0  0  0  0  0  0  0  0  0  0  0  # atno 6908 bound_to 6896
  152.4373  134.5667  159.9961 H   0  0  0  0  0  0  0  0  0  0  0  0  # atno 6909 bound_to 6896
  144.8714  140.6371  143.5265 H   0  0  0  0  0  0  0  0  0  0  0  0  # atno 7974 bound_to 7965
  154.9047  140.3005  155.5299 H   0  0  0  0  0  0  0  0  0  0  0  0  # atno 8008 bound_to 7997
  156.3017  140.2400  156.4014 H   0  0  0  0  0  0  0  0  0  0  0  0  # atno 8009 bound_to 7997
  154.8486  140.0410  157.1578 H   0  0  0  0  0  0  0  0  0  0  0  0  # atno 8010 bound_to 7997
  140.3216  143.3046  152.0040 H   0  0  0  0  0  0  0  0  0  0  0  0  # atno 10167 bound_to 10162
  156.0071  130.5170  150.6290 H   0  0  0  0  0  0  0  0  0  0  0  0  # atno 10718 bound_to 10713
  154.6011  135.2854  155.0534 H   0  0  0  0  0  0  0  0  0  0  0  0  # atno 10763 bound_to 10752
  154.1798  135.6458  153.5035 H   0  0  0  0  0  0  0  0  0  0  0  0  # atno 10764 bound_to 10752
  153.0157  135.5421  154.6731 H   0  0  0  0  0  0  0  0  0  0  0  0  # atno 10765 bound_to 10752
  140.3120  134.7509  157.3998 H   0  0  0  0  0  0  0  0  0  0  0  0  # atno 11005 bound_to 11000
  145.4124  139.1578  143.4118 LP  0  0  0  0  0  0  0  0  0  0  0  0  # atno 17320 bound_to 7965
  146.2932  140.4229  142.8731 LP  0  0  0  0  0  0  0  0  0  0  0  0  # atno 17321 bound_to 7965
  139.4873  144.6306  151.7076 LP  0  0  0  0  0  0  0  0  0  0  0  0  # atno 17342 bound_to 10162
  140.5478  144.0474  150.6114 LP  0  0  0  0  0  0  0  0  0  0  0  0  # atno 17343 bound_to 10162
  157.4091  131.0821  151.1237 LP  0  0  0  0  0  0  0  0  0  0  0  0  # atno 17370 bound_to 10713
  157.1874  130.6336  149.5692 LP  0  0  0  0  0  0  0  0  0  0  0  0  # atno 17371 bound_to 10713
  140.1016  134.5464  155.8347 LP  0  0  0  0  0  0  0  0  0  0  0  0  # atno 17394 bound_to 11000
  141.2106  133.6697  156.6521 LP  0  0  0  0  0  0  0  0  0  0  0  0  # atno 17395 bound_to 11000

$$$$
