AV-unprocessed.smi:1047|AV-procd|sdf|4570|dock10
  -GOLD-   22720 3 23D 1   1.00000     0.00000
 Structure written by MMmdl.
 56 58  0  0  0  0  0  0  0  0  2 V2000
  148.5816  130.6625  153.7885 C   0  0  0  0  0  0  0  0  0  0  0  0
  148.0244  132.0921  153.7334 C   0  0  0  0  0  0  0  0  0  0  0  0
  147.2537  132.4079  152.5315 N   0  0  0  0  0  0  0  0  0  0  0  0
  146.1836  131.4448  152.2834 C   0  0  0  0  0  0  0  0  0  0  0  0
  145.3629  131.8101  151.0348 C   0  0  0  0  0  0  0  0  0  0  0  0
  144.8511  133.1323  151.1684 O   0  0  0  0  0  0  0  0  0  0  0  0
  145.8728  134.1093  151.3517 C   0  0  1  0  0  0  0  0  0  0  0  0
  145.2047  135.4856  151.4713 C   0  0  0  0  0  0  0  0  0  0  0  0
  146.2112  136.5655  151.4938 N   0  3  0  0  0  0  0  0  0  0  0  0
  145.8179  137.7334  152.3068 C   0  0  0  0  0  0  0  0  0  0  0  0
  146.9505  138.7760  152.3938 C   0  0  1  0  0  0  0  0  0  0  0  0
  146.8072  139.7067  151.3390 O   0  0  0  0  0  0  0  0  0  0  0  0
  146.9511  139.5753  153.7124 C   0  0  0  0  0  0  0  0  0  0  0  0
  148.2897  139.8445  154.2056 N   0  0  0  0  0  0  0  0  0  0  0  0
  149.4472  139.3826  153.6950 C   0  0  0  0  0  0  0  0  0  0  0  0
  150.5705  139.7478  154.3057 N   0  0  0  0  0  0  0  0  0  0  0  0
  150.0864  140.5455  155.3283 C   0  0  0  0  0  0  0  0  0  0  0  0
  150.7691  141.2462  156.3462 C   0  0  0  0  0  0  0  0  0  0  0  0
  150.0604  142.0065  157.3036 C   0  0  0  0  0  0  0  0  0  0  0  0
  150.8361  142.7459  158.3799 C   0  0  0  0  0  0  0  0  0  0  0  0
  148.6448  142.0729  157.2517 C   0  0  0  0  0  0  0  0  0  0  0  0
  147.8626  142.8826  158.2706 C   0  0  0  0  0  0  0  0  0  0  0  0
  147.9470  141.3805  156.2403 C   0  0  0  0  0  0  0  0  0  0  0  0
  148.6636  140.6277  155.2929 C   0  0  0  0  0  0  0  0  0  0  0  0
  146.6777  133.7454  152.6153 C   0  0  0  0  0  0  0  0  0  0  0  0
  149.2234  130.5363  154.6604 H   0  0  0  0  0  0  0  0  0  0  0  0
  149.1783  130.4380  152.9039 H   0  0  0  0  0  0  0  0  0  0  0  0
  147.7896  129.9175  153.8609 H   0  0  0  0  0  0  0  0  0  0  0  0
  147.4213  132.2817  154.6225 H   0  0  0  0  0  0  0  0  0  0  0  0
  148.8730  132.7746  153.7966 H   0  0  0  0  0  0  0  0  0  0  0  0
  146.5964  130.4455  152.1481 H   0  0  0  0  0  0  0  0  0  0  0  0
  145.5210  131.3954  153.1490 H   0  0  0  0  0  0  0  0  0  0  0  0
  145.9762  131.7396  150.1352 H   0  0  0  0  0  0  0  0  0  0  0  0
  144.5317  131.1161  150.9109 H   0  0  0  0  0  0  0  0  0  0  0  0
  146.5383  134.1054  150.4863 H   0  0  0  0  0  0  0  0  0  0  0  0
  144.5127  135.6430  150.6428 H   0  0  0  0  0  0  0  0  0  0  0  0
  144.6212  135.5339  152.3918 H   0  0  0  0  0  0  0  0  0  0  0  0
  147.0768  136.1936  151.8580 H   0  0  0  0  0  0  0  0  0  0  0  0
  144.9147  138.1860  151.8946 H   0  0  0  0  0  0  0  0  0  0  0  0
  145.5645  137.3671  153.3017 H   0  0  0  0  0  0  0  0  0  0  0  0
  147.9158  138.2803  152.2809 H   0  0  0  0  0  0  0  0  0  0  0  0
  147.6642  139.9794  151.0500 H   0  0  0  0  0  0  0  0  0  0  0  0
  146.4436  140.5314  153.5742 H   0  0  0  0  0  0  0  0  0  0  0  0
  146.3969  139.0400  154.4847 H   0  0  0  0  0  0  0  0  0  0  0  0
  149.4656  138.7383  152.8281 H   0  0  0  0  0  0  0  0  0  0  0  0
  151.8474  141.1956  156.3859 H   0  0  0  0  0  0  0  0  0  0  0  0
  150.6187  143.8138  158.3434 H   0  0  0  0  0  0  0  0  0  0  0  0
  151.9119  142.6205  158.2531 H   0  0  0  0  0  0  0  0  0  0  0  0
  150.5697  142.3712  159.3685 H   0  0  0  0  0  0  0  0  0  0  0  0
  146.7879  142.7994  158.1050 H   0  0  0  0  0  0  0  0  0  0  0  0
  148.1309  143.9372  158.2056 H   0  0  0  0  0  0  0  0  0  0  0  0
  148.0726  142.5327  159.2814 H   0  0  0  0  0  0  0  0  0  0  0  0
  146.8692  141.4242  156.1896 H   0  0  0  0  0  0  0  0  0  0  0  0
  146.0304  133.8138  153.4916 H   0  0  0  0  0  0  0  0  0  0  0  0
  147.4725  134.4785  152.7588 H   0  0  0  0  0  0  0  0  0  0  0  0
  146.3649  136.8737  150.5442 H   0  0  0  0  0  0  0  0  0  0  0  0
  1  2  1  0  0  0  0
  1 26  1  0  0  0  0
  1 27  1  0  0  0  0
  1 28  1  0  0  0  0
  2  3  1  0  0  0  0
  2 29  1  0  0  0  0
  2 30  1  0  0  0  0
  3 25  1  0  0  0  0
  3  4  1  0  0  0  0
  4  5  1  0  0  0  0
  4 31  1  0  0  0  0
  4 32  1  0  0  0  0
  5  6  1  0  0  0  0
  5 33  1  0  0  0  0
  5 34  1  0  0  0  0
  6  7  1  0  0  0  0
  7  8  1  0  0  0  0
  7 25  1  0  0  0  0
  7 35  1  0  0  0  0
  8  9  1  0  0  0  0
  8 36  1  0  0  0  0
  8 37  1  0  0  0  0
  9 10  1  0  0  0  0
  9 38  1  0  0  0  0
  9 56  1  0  0  0  0
 10 11  1  0  0  0  0
 10 39  1  0  0  0  0
 10 40  1  0  0  0  0
 11 12  1  0  0  0  0
 11 13  1  0  0  0  0
 11 41  1  0  0  0  0
 12 42  1  0  0  0  0
 13 14  1  0  0  0  0
 13 43  1  0  0  0  0
 13 44  1  0  0  0  0
 14 24  1  0  0  0  0
 14 15  1  0  0  0  0
 15 16  2  0  0  0  0
 15 45  1  0  0  0  0
 16 17  1  0  0  0  0
 17 24  2  0  0  0  0
 17 18  1  0  0  0  0
 18 19  2  0  0  0  0
 18 46  1  0  0  0  0
 19 20  1  0  0  0  0
 19 21  1  0  0  0  0
 20 47  1  0  0  0  0
 20 48  1  0  0  0  0
 20 49  1  0  0  0  0
 21 22  1  0  0  0  0
 21 23  2  0  0  0  0
 22 50  1  0  0  0  0
 22 51  1  0  0  0  0
 22 52  1  0  0  0  0
 23 24  1  0  0  0  0
 23 53  1  0  0  0  0
 25 54  1  0  0  0  0
 25 55  1  0  0  0  0
M  CHG  1   9   1
M  END
> <s_m_source_file>
AV-unprocessed.smi

> <i_m_source_file_index>
1047

> <i_lp_mmshare_version>
43012

> <i_f3d_flags>
0

> <s_epik_input>
W0NIM11bQ0gyXU4xW0NIMl1bQ0gyXU9bQ0BIXShbQ0gyXTEpW0NIMl1bTkhdW0NIMl1bQ0BIXShbT0hdKVtDSDJdbihbY0hdbjIpYyhjMjMpW2NIXWMoW0NIM10pYyhbY0hdMylbQ0gzXQ==

> <s_epik_cmdline>
J2VwaWtfcHl0aG9uJywgJy1waCcsICc3LjAnLCAnLXRuJywgJzgnLCAnLW1hJywgJzIwMCcsICctbWV0YWxfYmluZGluZycsICctaW1hZScsICc8aW5maWxlLm1hZT4nLCAnLW9tYWUnLCAnPG91dGZpbGUubWFlPic=

> <r_epik_Ionization_Penalty>
0.692425

> <r_epik_Ionization_Penalty_Charging>
0.0243549

> <r_epik_Ionization_Penalty_Neutral>
0.66807

> <r_epik_State_Penalty>
0.592789

> <r_epik_Charging_Adjusted_Penalty>
0.617144

> <i_epik_Tot_Q>
1

> <i_epik_Tot_abs_Q>
1

> <r_epik_Metal_State_Penalty>
0.508021

> <b_epik_Metal_Only>
0

> <s_lp_Force_Field>
OPLS_2005

> <r_lp_Energy>
31.2277

> <b_lp_Chiralities_Consistent>
1

> <s_lp_Variant>
AV-unprocessed.smi:1047-11

> <Gold.Version>
5.8.1

> <Gold.Id.Protein>
6NUR|6NUR_protein|mol2

> <Gold.PLP.Fitness>
54.6134

> <Gold.PLP.PLP>
-41.2221

> <Gold.PLP.part.hbond>
-3.0000

> <Gold.PLP.part.metal>
0.0000

> <Gold.PLP.part.buried>
-2.3336

> <Gold.PLP.part.nonpolar>
-36.8651

> <Gold.PLP.part.repulsive>
0.7290

> <Gold.PLP.ligand.clash>
0.0000

> <Gold.PLP.ligand.torsion>
1.2051

> <Gold.PLP.Chemscore.Hbond>
4.0000

> <Gold.PLP.Chemscore.CHOScore>
1.2104

> <Gold.PLP.Chemscore.Metal>
0.0000

> <Gold.Chemscore.Hbonds>
donor molecule, donor type, donor heavy atom, donor atom, acceptor molecule, acceptor atom, score
      L1  H     9    38       P1  7948  1.89
      L1  H    12    42       P1  7957  1.00
      P1  H  7989  7998       L1    16  1.00
      L1  C    15    45       P1  7948  0.60
      L1  C    15    45       P1  7957  0.53

> <Gold.PLP.Chemscore.Internal.Correction>
0.1703

> <Gold.Rescore>
     Score         DG    S(hbond)    S(metal)    S(lipo)     H(rot)  DE(clash)    DE(int)     intcor
     16.80     -19.51       2.69        0.00     100.17       2.60       1.52       1.20       ----

> <Gold.Chemscore.Fitness>
16.7955

> <Gold.Chemscore.DG>
-19.5069

> <Gold.Chemscore.ZeroCoef>
-5.4800

> <Gold.Chemscore.Hbond>
2.6871

> <Gold.Chemscore.Metal>
0.0000

> <Gold.Chemscore.Lipo>
100.1735

> <Gold.Chemscore.Internal_Hbond>
0.0000

> <Gold.Chemscore.DEClash>
1.5163

> <Gold.Chemscore.DEInternal>
1.1950

> <Gold.Chemscore.Rot>
2.6049

> <Gold.Chemscore.Internal.Correction>
   9.000000E+99

> <Gold.Chemscore.Hbonds>
donor molecule, donor type, donor heavy atom, donor atom, acceptor molecule, acceptor atom, score
      L1  H     9    38       P1  7948  0.91
      L1  H    12    42       P1  7957  0.94
      P1  H  7989  7998       L1    16  0.29

> <Gold.Chemscore.Hbond.Weighted>
-8.9750

> <Gold.Chemscore.Metal.Weighted>
-0.0000

> <Gold.Chemscore.Lipo.Weighted>
-11.7203

> <Gold.Chemscore.Internal_Hbond.Weighted>
0.0000

> <Gold.Chemscore.DEClash.Weighted>
1.5163

> <Gold.Chemscore.DEInternal.Weighted>
1.1950

> <Gold.Chemscore.Rot.Weighted>
6.6685

> <Gold.Chemscore.Internal.Correction.Weighted>
   9.000000E+99

> <Gold.Protein.RotatedTorsions>
[ 6907 6896 6895 6894 ] final  -34.04 input  -60.11 | X-H torsion
[ 7974 7965 7964 7962 ] final    1.57 input  175.53 | X-H torsion
[ 8008 7997 7996 7995 ] final  147.71 input   59.86 | X-H torsion
[ 10167 10162 10161 10158 ] final -134.58 input  -65.29 | X-H torsion
[ 10718 10713 10712 10709 ] final  -41.07 input   66.30 | X-H torsion
[ 10763 10752 10751 10750 ] final   39.15 input  -60.55 | X-H torsion
[ 11005 11000 10999 10996 ] final -121.19 input  -57.11 | X-H torsion

> <Gold.Protein.ActiveResidues>
 VAL166  LYS551  ARG553  GLY616  TRP617  ASP618  TYR619  PRO620  LYS621  CYS622 
 ASP623  PHE694  ASN695  SER759  ASP760  ASP761  ALA762  ILE779  LEU786  VAL792 
 PHE793  MET794  SER795  GLU796  ALA797  LYS798  CYS799  TRP800  GLU811  SER814 

> <Gold.Protein.RotatedAtoms>
  151.0578  134.9716  159.8244 H   0  0  0  0  0  0  0  0  0  0  0  0  # atno 6907 bound_to 6896
  152.5391  134.2456  159.8889 H   0  0  0  0  0  0  0  0  0  0  0  0  # atno 6908 bound_to 6896
  151.2474  133.4325  159.2643 H   0  0  0  0  0  0  0  0  0  0  0  0  # atno 6909 bound_to 6896
  146.2441  140.0966  142.8349 H   0  0  0  0  0  0  0  0  0  0  0  0  # atno 7974 bound_to 7965
  156.2815  140.2148  156.5582 H   0  0  0  0  0  0  0  0  0  0  0  0  # atno 8008 bound_to 7997
  154.7235  140.0501  157.0684 H   0  0  0  0  0  0  0  0  0  0  0  0  # atno 8009 bound_to 7997
  155.0448  140.3149  155.4715 H   0  0  0  0  0  0  0  0  0  0  0  0  # atno 8010 bound_to 7997
  139.8866  143.6773  152.2619 H   0  0  0  0  0  0  0  0  0  0  0  0  # atno 10167 bound_to 10162
  156.2744  130.4210  149.8403 H   0  0  0  0  0  0  0  0  0  0  0  0  # atno 10718 bound_to 10713
  152.9976  135.6229  154.2420 H   0  0  0  0  0  0  0  0  0  0  0  0  # atno 10763 bound_to 10752
  154.2160  135.2798  155.2943 H   0  0  0  0  0  0  0  0  0  0  0  0  # atno 10764 bound_to 10752
  154.5568  135.5717  153.7029 H   0  0  0  0  0  0  0  0  0  0  0  0  # atno 10765 bound_to 10752
  141.0088  134.0295  157.3441 H   0  0  0  0  0  0  0  0  0  0  0  0  # atno 11005 bound_to 11000
  145.0604  140.9083  143.4942 LP  0  0  0  0  0  0  0  0  0  0  0  0  # atno 17320 bound_to 7965
  145.1081  139.2776  143.5652 LP  0  0  0  0  0  0  0  0  0  0  0  0  # atno 17321 bound_to 7965
  139.7147  144.7614  151.1053 LP  0  0  0  0  0  0  0  0  0  0  0  0  # atno 17342 bound_to 10162
  140.7734  143.5284  150.9452 LP  0  0  0  0  0  0  0  0  0  0  0  0  # atno 17343 bound_to 10162
  156.5873  130.8491  151.3399 LP  0  0  0  0  0  0  0  0  0  0  0  0  # atno 17370 bound_to 10713
  157.7294  130.9671  150.1787 LP  0  0  0  0  0  0  0  0  0  0  0  0  # atno 17371 bound_to 10713
  139.9078  135.0183  156.7563 LP  0  0  0  0  0  0  0  0  0  0  0  0  # atno 17394 bound_to 11000
  140.6768  133.9510  155.7887 LP  0  0  0  0  0  0  0  0  0  0  0  0  # atno 17395 bound_to 11000

$$$$
