AV-unprocessed.smi:623|AV-procd|sdf|3091|dock9
  -GOLD-   22720 0 13D 1   1.00000     0.00000
 Structure written by MMmdl.
 45 47  0  0  0  0  0  0  0  0  1 V2000
  150.1263  139.2535  157.2037 C   0  0  0  0  0  0  0  0  0  0  0  0
  149.3561  140.2264  156.2673 C   0  0  0  0  0  0  0  0  0  0  0  0
  149.2626  141.5660  157.0509 C   0  0  0  0  0  0  0  0  0  0  0  0
  149.9638  140.3633  154.8568 C   0  0  2  0  0  0  0  0  0  0  0  0
  148.9528  141.2606  154.1089 C   0  0  0  0  0  0  0  0  0  0  0  0
  147.6039  140.8181  154.7099 C   0  0  0  0  0  0  0  0  0  0  0  0
  148.0200  139.6850  155.6887 C   0  0  2  0  0  0  0  0  0  0  0  0
  146.9307  139.3532  156.7235 C   0  0  0  0  0  0  0  0  0  0  0  0
  148.4837  138.4538  154.8460 C   0  0  1  0  0  0  0  0  0  0  0  0
  147.5590  138.0648  153.7808 N   0  0  0  0  0  0  0  0  0  0  0  0
  146.3724  137.4661  153.9614 C   0  0  0  0  0  0  0  0  0  0  0  0
  145.9235  137.1781  155.0719 O   0  0  0  0  0  0  0  0  0  0  0  0
  145.5638  137.1757  152.6895 C   0  0  0  0  0  0  0  0  0  0  0  0
  144.3127  136.4536  152.9614 N   0  0  0  0  0  0  0  0  0  0  0  0
  143.0886  137.0492  152.6921 C   0  0  0  0  0  0  0  0  0  0  0  0
  141.8986  136.4512  152.9373 C   0  0  0  0  0  0  0  0  0  0  0  0
  141.8501  135.1116  153.5135 C   0  0  0  0  0  0  0  0  0  0  0  0
  140.8234  134.4868  153.7707 O   0  0  0  0  0  0  0  0  0  0  0  0
  143.1021  134.5468  153.7716 N   0  0  0  0  0  0  0  0  0  0  0  0
  144.3317  135.1585  153.5236 C   0  0  0  0  0  0  0  0  0  0  0  0
  145.3794  134.5728  153.7951 O   0  0  0  0  0  0  0  0  0  0  0  0
  149.8286  138.9440  154.2627 C   0  0  0  0  0  0  0  0  0  0  0  0
  143.1180  133.6207  154.1734 H   0  0  0  0  0  0  0  0  0  0  0  0
  151.1121  139.6533  157.4427 H   0  0  0  0  0  0  0  0  0  0  0  0
  150.2907  138.2561  156.8032 H   0  0  0  0  0  0  0  0  0  0  0  0
  149.5964  139.1249  158.1478 H   0  0  0  0  0  0  0  0  0  0  0  0
  148.7614  142.3761  156.5260 H   0  0  0  0  0  0  0  0  0  0  0  0
  150.2586  141.9338  157.2993 H   0  0  0  0  0  0  0  0  0  0  0  0
  148.7298  141.4284  157.9921 H   0  0  0  0  0  0  0  0  0  0  0  0
  150.9844  140.7464  154.8299 H   0  0  0  0  0  0  0  0  0  0  0  0
  149.1405  142.3187  154.2927 H   0  0  0  0  0  0  0  0  0  0  0  0
  148.9889  141.1125  153.0291 H   0  0  0  0  0  0  0  0  0  0  0  0
  147.1249  141.6437  155.2367 H   0  0  0  0  0  0  0  0  0  0  0  0
  146.8936  140.5042  153.9456 H   0  0  0  0  0  0  0  0  0  0  0  0
  146.0153  139.0183  156.2359 H   0  0  0  0  0  0  0  0  0  0  0  0
  146.6765  140.2238  157.3279 H   0  0  0  0  0  0  0  0  0  0  0  0
  147.2529  138.5611  157.3993 H   0  0  0  0  0  0  0  0  0  0  0  0
  148.6641  137.5916  155.4897 H   0  0  0  0  0  0  0  0  0  0  0  0
  147.8447  138.2713  152.8347 H   0  0  0  0  0  0  0  0  0  0  0  0
  145.3501  138.1270  152.1999 H   0  0  0  0  0  0  0  0  0  0  0  0
  146.1775  136.6180  151.9791 H   0  0  0  0  0  0  0  0  0  0  0  0
  143.0772  138.0443  152.2702 H   0  0  0  0  0  0  0  0  0  0  0  0
  140.9777  136.9675  152.7076 H   0  0  0  0  0  0  0  0  0  0  0  0
  149.8434  138.9566  153.1717 H   0  0  0  0  0  0  0  0  0  0  0  0
  150.6503  138.3001  154.5769 H   0  0  0  0  0  0  0  0  0  0  0  0
  1  2  1  0  0  0  0
  1 24  1  0  0  0  0
  1 25  1  0  0  0  0
  1 26  1  0  0  0  0
  2  7  1  0  0  0  0
  2  3  1  0  0  0  0
  2  4  1  0  0  0  0
  3 27  1  0  0  0  0
  3 28  1  0  0  0  0
  3 29  1  0  0  0  0
  4 22  1  0  0  0  0
  4  5  1  0  0  0  0
  4 30  1  0  0  0  0
  5  6  1  0  0  0  0
  5 31  1  0  0  0  0
  5 32  1  0  0  0  0
  6  7  1  0  0  0  0
  6 33  1  0  0  0  0
  6 34  1  0  0  0  0
  7  8  1  0  0  0  0
  7  9  1  0  0  0  0
  8 35  1  0  0  0  0
  8 36  1  0  0  0  0
  8 37  1  0  0  0  0
  9 10  1  0  0  0  0
  9 22  1  0  0  0  0
  9 38  1  0  0  0  0
 10 11  1  0  0  0  0
 10 39  1  0  0  0  0
 11 12  2  0  0  0  0
 11 13  1  0  0  0  0
 13 14  1  0  0  0  0
 13 40  1  0  0  0  0
 13 41  1  0  0  0  0
 14 20  1  0  0  0  0
 14 15  1  0  0  0  0
 15 16  2  0  0  0  0
 15 42  1  0  0  0  0
 16 17  1  0  0  0  0
 16 43  1  0  0  0  0
 17 18  2  0  0  0  0
 17 19  1  0  0  0  0
 19 23  1  0  0  0  0
 19 20  1  0  0  0  0
 20 21  2  0  0  0  0
 22 44  1  0  0  0  0
 22 45  1  0  0  0  0
M  END
> <s_m_source_file>
AV-unprocessed.smi

> <i_m_source_file_index>
623

> <i_lp_mmshare_version>
43012

> <i_f3d_flags>
0

> <s_epik_input>
W0NIM11bQ0BdMTJDKFtDSDNdKShbQ0gzXSlbQ0BIXShbQ0gyXVtDSDJdMSlbQ0gyXVtDQEBIXTJbTkhdQyg9TylbQ0gyXW4zW2NIXVtjSF1jKD1PKVtuSF1jMz1P

> <s_epik_cmdline>
J2VwaWtfcHl0aG9uJywgJy1waCcsICc3LjAnLCAnLXRuJywgJzgnLCAnLW1hJywgJzIwMCcsICctbWV0YWxfYmluZGluZycsICctaW1hZScsICc8aW5maWxlLm1hZT4nLCAnLW9tYWUnLCAnPG91dGZpbGUubWFlPic=

> <r_lp_tautomer_probability>
0.999537

> <r_epik_Ionization_Penalty>
0.00303563

> <r_epik_Ionization_Penalty_Charging>
0.00303561

> <r_epik_Ionization_Penalty_Neutral>
2.03238e-08

> <r_epik_State_Penalty>
0.00213308

> <r_epik_Charging_Adjusted_Penalty>
0.00516869

> <i_epik_Tot_Q>
0

> <i_epik_Tot_abs_Q>
0

> <r_epik_Metal_State_Penalty>
0.361714

> <b_epik_Metal_Only>
0

> <s_lp_Force_Field>
OPLS_2005

> <r_lp_Energy>
55.109

> <b_lp_Chiralities_Consistent>
1

> <s_lp_Variant>
AV-unprocessed.smi:623-1

> <Gold.Version>
5.8.1

> <Gold.Id.Protein>
6NUR|6NUR_protein|mol2

> <Gold.PLP.Fitness>
37.5619

> <Gold.PLP.PLP>
-25.8190

> <Gold.PLP.part.hbond>
-4.0000

> <Gold.PLP.part.metal>
0.0000

> <Gold.PLP.part.buried>
-3.5654

> <Gold.PLP.part.nonpolar>
-18.3118

> <Gold.PLP.part.repulsive>
0.3289

> <Gold.PLP.ligand.clash>
0.0000

> <Gold.PLP.ligand.torsion>
0.1250

> <Gold.PLP.Chemscore.Hbond>
2.0231

> <Gold.PLP.Chemscore.CHOScore>
1.9699

> <Gold.PLP.Chemscore.Metal>
0.0000

> <Gold.Chemscore.Hbonds>
donor molecule, donor type, donor heavy atom, donor atom, acceptor molecule, acceptor atom, score
      L1  H    19    23       P1 10957  1.00
      P1  H 10995 11001       L1    18  0.04
      P1  H 11000 11005       L1    18  1.00
      L1  C    15    42       P1 10171  0.69
      L1  C    15    42       P1 10175  1.00

> <Gold.PLP.Chemscore.Internal.Correction>
0.0139

> <Gold.Rescore>
     Score         DG    S(hbond)    S(metal)    S(lipo)     H(rot)  DE(clash)    DE(int)     intcor
     13.23     -14.75       2.08        0.00      56.25       1.66       0.05       1.48       ----

> <Gold.Chemscore.Fitness>
13.2294

> <Gold.Chemscore.DG>
-14.7538

> <Gold.Chemscore.ZeroCoef>
-5.4800

> <Gold.Chemscore.Hbond>
2.0821

> <Gold.Chemscore.Metal>
0.0000

> <Gold.Chemscore.Lipo>
56.2495

> <Gold.Chemscore.Internal_Hbond>
0.0000

> <Gold.Chemscore.DEClash>
0.0471

> <Gold.Chemscore.DEInternal>
1.4773

> <Gold.Chemscore.Rot>
1.6647

> <Gold.Chemscore.Internal.Correction>
   9.000000E+99

> <Gold.Chemscore.Hbonds>
donor molecule, donor type, donor heavy atom, donor atom, acceptor molecule, acceptor atom, score
      L1  H    19    23       P1 10957  0.96
      P1  H 10995 11001       L1    18  0.04
      P1  H 11000 11005       L1    18  0.91

> <Gold.Chemscore.Hbond.Weighted>
-6.9543

> <Gold.Chemscore.Metal.Weighted>
-0.0000

> <Gold.Chemscore.Lipo.Weighted>
-6.5812

> <Gold.Chemscore.Internal_Hbond.Weighted>
0.0000

> <Gold.Chemscore.DEClash.Weighted>
0.0471

> <Gold.Chemscore.DEInternal.Weighted>
1.4773

> <Gold.Chemscore.Rot.Weighted>
4.2617

> <Gold.Chemscore.Internal.Correction.Weighted>
   9.000000E+99

> <Gold.Protein.RotatedTorsions>
[ 6907 6896 6895 6894 ] final   41.90 input  -60.11 | X-H torsion
[ 7974 7965 7964 7962 ] final -145.11 input  175.53 | X-H torsion
[ 8008 7997 7996 7995 ] final  -99.12 input   59.86 | X-H torsion
[ 10167 10162 10161 10158 ] final -160.89 input  -65.29 | X-H torsion
[ 10718 10713 10712 10709 ] final -133.56 input   66.30 | X-H torsion
[ 10763 10752 10751 10750 ] final -115.48 input  -60.55 | X-H torsion
[ 11005 11000 10999 10996 ] final   22.90 input  -57.11 | X-H torsion

> <Gold.Protein.ActiveResidues>
 VAL166  LYS551  ARG553  GLY616  TRP617  ASP618  TYR619  PRO620  LYS621  CYS622 
 ASP623  PHE694  ASN695  SER759  ASP760  ASP761  ALA762  ILE779  LEU786  VAL792 
 PHE793  MET794  SER795  GLU796  ALA797  LYS798  CYS799  TRP800  GLU811  SER814 

> <Gold.Protein.RotatedAtoms>
  152.2011  134.8587  160.0507 H   0  0  0  0  0  0  0  0  0  0  0  0  # atno 6907 bound_to 6896
  151.9440  133.3641  159.3984 H   0  0  0  0  0  0  0  0  0  0  0  0  # atno 6908 bound_to 6896
  150.6955  134.4333  159.5302 H   0  0  0  0  0  0  0  0  0  0  0  0  # atno 6909 bound_to 6896
  144.8250  140.5625  143.5553 H   0  0  0  0  0  0  0  0  0  0  0  0  # atno 7974 bound_to 7965
  154.8105  140.0450  157.1339 H   0  0  0  0  0  0  0  0  0  0  0  0  # atno 8008 bound_to 7997
  154.9373  140.3048  155.5118 H   0  0  0  0  0  0  0  0  0  0  0  0  # atno 8009 bound_to 7997
  156.2971  140.2312  156.4439 H   0  0  0  0  0  0  0  0  0  0  0  0  # atno 8010 bound_to 7997
  139.6506  144.0091  152.2159 H   0  0  0  0  0  0  0  0  0  0  0  0  # atno 10167 bound_to 10162
  156.2463  130.7126  151.1007 H   0  0  0  0  0  0  0  0  0  0  0  0  # atno 10718 bound_to 10713
  154.8482  135.4380  154.1669 H   0  0  0  0  0  0  0  0  0  0  0  0  # atno 10763 bound_to 10752
  153.2792  135.6952  153.7408 H   0  0  0  0  0  0  0  0  0  0  0  0  # atno 10764 bound_to 10752
  153.6619  135.3433  155.3104 H   0  0  0  0  0  0  0  0  0  0  0  0  # atno 10765 bound_to 10752
  140.3755  134.1976  155.7665 H   0  0  0  0  0  0  0  0  0  0  0  0  # atno 11005 bound_to 11000
  145.5020  139.1483  143.3652 LP  0  0  0  0  0  0  0  0  0  0  0  0  # atno 17320 bound_to 7965
  146.2556  140.5160  142.8875 LP  0  0  0  0  0  0  0  0  0  0  0  0  # atno 17321 bound_to 7965
  139.9804  144.6432  150.7906 LP  0  0  0  0  0  0  0  0  0  0  0  0  # atno 17342 bound_to 10162
  140.7536  143.3011  151.3079 LP  0  0  0  0  0  0  0  0  0  0  0  0  # atno 17343 bound_to 10162
  157.7196  131.0689  150.6189 LP  0  0  0  0  0  0  0  0  0  0  0  0  # atno 17370 bound_to 10713
  156.6266  130.4420  149.5802 LP  0  0  0  0  0  0  0  0  0  0  0  0  # atno 17371 bound_to 10713
  141.1940  133.8137  157.0773 LP  0  0  0  0  0  0  0  0  0  0  0  0  # atno 17394 bound_to 11000
  140.0518  134.9801  157.1150 LP  0  0  0  0  0  0  0  0  0  0  0  0  # atno 17395 bound_to 11000

$$$$
