AV-unprocessed.smi:1563|AV-procd|sdf|6291|dock10
  -GOLD-   22720 6493D 1   1.00000     0.00000
 Structure written by MMmdl.
 44 45  0  0  0  0  0  0  0  0  2 V2000
  145.3287  136.7108  152.5715 C   0  0  0  0  0  0  0  0  0  0  0  0
  146.1657  137.6015  153.4829 C   0  0  0  0  0  0  0  0  0  0  0  0
  147.0604  137.1127  154.1732 O   0  0  0  0  0  0  0  0  0  0  0  0
  145.8623  138.9086  153.4749 N   0  0  0  0  0  0  0  0  0  0  0  0
  146.5423  139.9300  154.2637 C   0  0  2  0  0  0  0  0  0  0  0  0
  145.5341  140.9882  154.7593 C   0  0  0  0  0  0  0  0  0  0  0  0
  146.2408  142.1615  155.4682 C   0  0  0  0  0  0  0  0  0  0  0  0
  147.4000  142.7073  154.6135 C   0  0  0  0  0  0  0  0  0  0  0  0
  148.3143  141.5972  154.2998 N   0  0  0  0  0  0  0  0  0  0  0  0
  149.5190  141.3603  154.8744 C   0  0  0  0  0  0  0  0  0  0  0  0
  150.2298  140.3993  154.5769 O   0  0  0  0  0  0  0  0  0  0  0  0
  149.8403  142.2044  155.8714 N   0  0  0  0  0  0  0  0  0  0  0  0
  150.9682  142.0433  156.7870 C   0  0  0  0  0  0  0  0  0  0  0  0
  151.6155  143.3934  157.1634 C   0  0  0  0  0  0  0  0  0  0  0  0
  151.9505  143.5274  158.6404 C   0  0  0  0  0  0  0  0  0  0  0  0
  151.6259  144.6846  159.3828 C   0  0  0  0  0  0  0  0  0  0  0  0
  151.9230  144.7254  160.7609 C   0  0  0  0  0  0  0  0  0  0  0  0
  152.5366  143.6105  161.3680 C   0  0  0  0  0  0  0  0  0  0  0  0
  152.8455  142.4842  160.5787 C   0  0  0  0  0  0  0  0  0  0  0  0
  152.5489  142.4843  159.2603 N   0  3  0  0  0  0  0  0  0  0  0  0
  147.6642  140.6003  153.4422 C   0  0  0  0  0  0  0  0  0  0  0  0
  145.3972  137.0517  151.5380 H   0  0  0  0  0  0  0  0  0  0  0  0
  144.2817  136.7330  152.8749 H   0  0  0  0  0  0  0  0  0  0  0  0
  145.6750  135.6775  152.6132 H   0  0  0  0  0  0  0  0  0  0  0  0
  145.1110  139.2183  152.8753 H   0  0  0  0  0  0  0  0  0  0  0  0
  146.9880  139.4619  155.1428 H   0  0  0  0  0  0  0  0  0  0  0  0
  144.9722  141.3784  153.9094 H   0  0  0  0  0  0  0  0  0  0  0  0
  144.8038  140.5326  155.4289 H   0  0  0  0  0  0  0  0  0  0  0  0
  145.5241  142.9549  155.6819 H   0  0  0  0  0  0  0  0  0  0  0  0
  146.6272  141.8259  156.4314 H   0  0  0  0  0  0  0  0  0  0  0  0
  147.0104  143.1236  153.6833 H   0  0  0  0  0  0  0  0  0  0  0  0
  147.8867  143.5420  155.1184 H   0  0  0  0  0  0  0  0  0  0  0  0
  149.2082  142.9691  156.0597 H   0  0  0  0  0  0  0  0  0  0  0  0
  150.6521  141.5174  157.6894 H   0  0  0  0  0  0  0  0  0  0  0  0
  151.7097  141.4021  156.3105 H   0  0  0  0  0  0  0  0  0  0  0  0
  152.5248  143.5406  156.5795 H   0  0  0  0  0  0  0  0  0  0  0  0
  150.9434  144.2056  156.8835 H   0  0  0  0  0  0  0  0  0  0  0  0
  151.1413  145.5251  158.9077 H   0  0  0  0  0  0  0  0  0  0  0  0
  151.6731  145.5972  161.3478 H   0  0  0  0  0  0  0  0  0  0  0  0
  152.7622  143.6171  162.4245 H   0  0  0  0  0  0  0  0  0  0  0  0
  153.3100  141.5867  160.9605 H   0  0  0  0  0  0  0  0  0  0  0  0
  148.3621  139.8493  153.0684 H   0  0  0  0  0  0  0  0  0  0  0  0
  147.2529  141.0880  152.5569 H   0  0  0  0  0  0  0  0  0  0  0  0
  152.7688  141.6524  158.7123 H   0  0  0  0  0  0  0  0  0  0  0  0
  1  2  1  0  0  0  0
  1 22  1  0  0  0  0
  1 23  1  0  0  0  0
  1 24  1  0  0  0  0
  2  3  2  0  0  0  0
  2  4  1  0  0  0  0
  4  5  1  0  0  0  0
  4 25  1  0  0  0  0
  5 21  1  0  0  0  0
  5  6  1  0  0  0  0
  5 26  1  0  0  0  0
  6  7  1  0  0  0  0
  6 27  1  0  0  0  0
  6 28  1  0  0  0  0
  7  8  1  0  0  0  0
  7 29  1  0  0  0  0
  7 30  1  0  0  0  0
  8  9  1  0  0  0  0
  8 31  1  0  0  0  0
  8 32  1  0  0  0  0
  9 10  1  0  0  0  0
  9 21  1  0  0  0  0
 10 11  2  0  0  0  0
 10 12  1  0  0  0  0
 12 13  1  0  0  0  0
 12 33  1  0  0  0  0
 13 14  1  0  0  0  0
 13 34  1  0  0  0  0
 13 35  1  0  0  0  0
 14 15  1  0  0  0  0
 14 36  1  0  0  0  0
 14 37  1  0  0  0  0
 15 20  1  0  0  0  0
 15 16  2  0  0  0  0
 16 17  1  0  0  0  0
 16 38  1  0  0  0  0
 17 18  2  0  0  0  0
 17 39  1  0  0  0  0
 18 19  1  0  0  0  0
 18 40  1  0  0  0  0
 19 20  2  0  0  0  0
 19 41  1  0  0  0  0
 20 44  1  0  0  0  0
 21 42  1  0  0  0  0
 21 43  1  0  0  0  0
M  CHG  1  20   1
M  END
> <s_m_source_file>
AV-unprocessed.smi

> <i_m_source_file_index>
1563

> <i_lp_mmshare_version>
43012

> <i_f3d_flags>
0

> <s_epik_input>
W0NIM11DKD1PKVtOSF1bQ0BASF0xW0NIMl1bQ0gyXVtDSDJdTihbQ0gyXTEpQyg9TylbTkhdW0NIMl1bQ0gyXWMyW2NIXVtjSF1bY0hdW2NIXW4y

> <s_epik_cmdline>
J2VwaWtfcHl0aG9uJywgJy1waCcsICc3LjAnLCAnLXRuJywgJzgnLCAnLW1hJywgJzIwMCcsICctbWV0YWxfYmluZGluZycsICctaW1hZScsICc8aW5maWxlLm1hZT4nLCAnLW9tYWUnLCAnPG91dGZpbGUubWFlPic=

> <r_epik_Ionization_Penalty>
1.56048

> <r_epik_Ionization_Penalty_Charging>
1.56043

> <r_epik_Ionization_Penalty_Neutral>
4.90601e-05

> <r_epik_State_Penalty>
1.65539

> <r_epik_Charging_Adjusted_Penalty>
3.21583

> <i_epik_Tot_Q>
1

> <i_epik_Tot_abs_Q>
1

> <r_epik_Metal_State_Penalty>
1.6969

> <b_epik_Metal_Only>
0

> <s_lp_Force_Field>
OPLS_2005

> <r_lp_Energy>
29.9669

> <b_lp_Chiralities_Consistent>
1

> <s_lp_Variant>
AV-unprocessed.smi:1563-3

> <Gold.Version>
5.8.1

> <Gold.Id.Protein>
6NUR|6NUR_protein|mol2

> <Gold.PLP.Fitness>
46.9002

> <Gold.PLP.PLP>
-40.2156

> <Gold.PLP.part.hbond>
-3.0000

> <Gold.PLP.part.metal>
0.0000

> <Gold.PLP.part.buried>
-0.3872

> <Gold.PLP.part.nonpolar>
-37.1866

> <Gold.PLP.part.repulsive>
0.3979

> <Gold.PLP.ligand.clash>
0.0000

> <Gold.PLP.ligand.torsion>
1.0323

> <Gold.PLP.Chemscore.Hbond>
2.8880

> <Gold.PLP.Chemscore.CHOScore>
0.0000

> <Gold.PLP.Chemscore.Metal>
0.0000

> <Gold.Chemscore.Hbonds>
donor molecule, donor type, donor heavy atom, donor atom, acceptor molecule, acceptor atom, score
      L1  H     4    25       P1 10175  1.00
      L1  H    12    33       P1  8028  0.86
      P1  H  7989  7998       L1    11  0.99

> <Gold.PLP.Chemscore.Internal.Correction>
0.0854

> <Gold.Rescore>
     Score         DG    S(hbond)    S(metal)    S(lipo)     H(rot)  DE(clash)    DE(int)     intcor
     19.49     -22.24       2.61        0.00     107.46       1.77       1.99       0.76       ----

> <Gold.Chemscore.Fitness>
19.4889

> <Gold.Chemscore.DG>
-22.2414

> <Gold.Chemscore.ZeroCoef>
-5.4800

> <Gold.Chemscore.Hbond>
2.6079

> <Gold.Chemscore.Metal>
0.0000

> <Gold.Chemscore.Lipo>
107.4552

> <Gold.Chemscore.Internal_Hbond>
0.0000

> <Gold.Chemscore.DEClash>
1.9898

> <Gold.Chemscore.DEInternal>
0.7628

> <Gold.Chemscore.Rot>
1.7661

> <Gold.Chemscore.Internal.Correction>
   9.000000E+99

> <Gold.Chemscore.Hbonds>
donor molecule, donor type, donor heavy atom, donor atom, acceptor molecule, acceptor atom, score
      L1  H     4    25       P1 10175  0.95
      L1  H    12    33       P1  8028  0.85
      P1  H  7989  7998       L1    11  0.77

> <Gold.Chemscore.Hbond.Weighted>
-8.7103

> <Gold.Chemscore.Metal.Weighted>
-0.0000

> <Gold.Chemscore.Lipo.Weighted>
-12.5723

> <Gold.Chemscore.Internal_Hbond.Weighted>
0.0000

> <Gold.Chemscore.DEClash.Weighted>
1.9898

> <Gold.Chemscore.DEInternal.Weighted>
0.7628

> <Gold.Chemscore.Rot.Weighted>
4.5211

> <Gold.Chemscore.Internal.Correction.Weighted>
   9.000000E+99

> <Gold.Protein.RotatedTorsions>
[ 6907 6896 6895 6894 ] final   -8.08 input  -60.11 | X-H torsion
[ 7974 7965 7964 7962 ] final   30.36 input  175.53 | X-H torsion
[ 8008 7997 7996 7995 ] final  126.02 input   59.86 | X-H torsion
[ 10167 10162 10161 10158 ] final  150.91 input  -65.29 | X-H torsion
[ 10718 10713 10712 10709 ] final  112.21 input   66.30 | X-H torsion
[ 10763 10752 10751 10750 ] final    5.78 input  -60.55 | X-H torsion
[ 11005 11000 10999 10996 ] final  -86.50 input  -57.11 | X-H torsion

> <Gold.Protein.ActiveResidues>
 VAL166  LYS551  ARG553  GLY616  TRP617  ASP618  TYR619  PRO620  LYS621  CYS622 
 ASP623  PHE694  ASN695  SER759  ASP760  ASP761  ALA762  ILE779  LEU786  VAL792 
 PHE793  MET794  SER795  GLU796  ALA797  LYS798  CYS799  TRP800  GLU811  SER814 

> <Gold.Protein.RotatedAtoms>
  151.4394  135.1018  159.9665 H   0  0  0  0  0  0  0  0  0  0  0  0  # atno 6907 bound_to 6896
  152.4928  133.8543  159.7228 H   0  0  0  0  0  0  0  0  0  0  0  0  # atno 6908 bound_to 6896
  150.9099  133.6952  159.2885 H   0  0  0  0  0  0  0  0  0  0  0  0  # atno 6909 bound_to 6896
  146.1617  139.6799  142.9029 H   0  0  0  0  0  0  0  0  0  0  0  0  # atno 7974 bound_to 7965
  156.2852  140.2702  156.2044 H   0  0  0  0  0  0  0  0  0  0  0  0  # atno 8008 bound_to 7997
  155.0328  140.0386  157.2498 H   0  0  0  0  0  0  0  0  0  0  0  0  # atno 8009 bound_to 7997
  154.7340  140.2712  155.6436 H   0  0  0  0  0  0  0  0  0  0  0  0  # atno 8010 bound_to 7997
  139.4845  144.5484  151.7445 H   0  0  0  0  0  0  0  0  0  0  0  0  # atno 10167 bound_to 10162
  157.6404  131.0964  150.6862 H   0  0  0  0  0  0  0  0  0  0  0  0  # atno 10718 bound_to 10713
  153.2553  135.6918  153.7635 H   0  0  0  0  0  0  0  0  0  0  0  0  # atno 10763 bound_to 10752
  153.6714  135.3343  155.3155 H   0  0  0  0  0  0  0  0  0  0  0  0  # atno 10764 bound_to 10752
  154.8410  135.4501  154.1525 H   0  0  0  0  0  0  0  0  0  0  0  0  # atno 10765 bound_to 10752
  141.1629  133.7458  156.9170 H   0  0  0  0  0  0  0  0  0  0  0  0  # atno 11005 bound_to 11000
  145.4572  141.0431  143.2771 LP  0  0  0  0  0  0  0  0  0  0  0  0  # atno 17320 bound_to 7965
  144.8035  139.6095  143.7061 LP  0  0  0  0  0  0  0  0  0  0  0  0  # atno 17321 bound_to 7965
  140.5033  144.1135  150.5976 LP  0  0  0  0  0  0  0  0  0  0  0  0  # atno 17342 bound_to 10162
  140.4036  143.2691  151.9918 LP  0  0  0  0  0  0  0  0  0  0  0  0  # atno 17343 bound_to 10162
  156.7186  130.4674  149.5528 LP  0  0  0  0  0  0  0  0  0  0  0  0  # atno 17370 bound_to 10713
  156.1681  130.6418  151.0803 LP  0  0  0  0  0  0  0  0  0  0  0  0  # atno 17371 bound_to 10713
  140.1477  134.9251  157.2552 LP  0  0  0  0  0  0  0  0  0  0  0  0  # atno 17394 bound_to 11000
  140.2760  134.3405  155.7358 LP  0  0  0  0  0  0  0  0  0  0  0  0  # atno 17395 bound_to 11000

$$$$
