AV-unprocessed.smi:5|AV-procd|sdf|37|dock3
  -GOLD-   2262015153D 1   1.00000     0.00000
 Structure written by MMmdl.
 44 45  0  0  0  0  0  0  0  0  1 V2000
  153.2083  141.0524  161.1728 C   0  0  0  0  0  0  0  0  0  0  0  0
  152.6238  141.9067  160.0664 C   0  0  0  0  0  0  0  0  0  0  0  0
  152.7900  143.2415  160.0218 C   0  0  0  0  0  0  0  0  0  0  0  0
  152.1910  144.1077  158.9314 C   0  0  0  0  0  0  0  0  0  0  0  0
  151.1198  143.3430  158.1345 C   0  0  0  0  0  0  0  0  0  0  0  0
  151.5989  141.9899  157.7952 N   0  0  0  0  0  0  0  0  0  0  0  0
  151.7089  141.4822  156.5416 C   0  0  0  0  0  0  0  0  0  0  0  0
  151.3375  142.0855  155.5341 O   0  0  0  0  0  0  0  0  0  0  0  0
  152.2070  140.2352  156.4817 N   0  0  0  0  0  0  0  0  0  0  0  0
  152.4202  139.4669  155.2597 C   0  0  0  0  0  0  0  0  0  0  0  0
  151.1026  139.0707  154.6042 C   0  0  0  0  0  0  0  0  0  0  0  0
  150.2533  140.0021  154.1021 C   0  0  0  0  0  0  0  0  0  0  0  0
  149.0400  139.7065  153.4964 N   0  0  0  0  0  0  0  0  0  0  0  0
  148.1735  140.7530  152.9796 C   0  0  0  0  0  0  0  0  0  0  0  0
  147.8836  140.5378  151.4849 C   0  0  0  0  0  0  0  0  0  0  0  0
  148.7366  142.1559  153.2725 C   0  0  0  0  0  0  0  0  0  0  0  0
  148.6535  138.3490  153.3609 C   0  0  0  0  0  0  0  0  0  0  0  0
  147.6100  137.9776  152.8237 O   0  0  0  0  0  0  0  0  0  0  0  0
  149.5293  137.3924  153.8722 N   0  0  0  0  0  0  0  0  0  0  0  0
  150.7504  137.6512  154.4982 C   0  0  0  0  0  0  0  0  0  0  0  0
  151.4307  136.7111  154.9051 O   0  0  0  0  0  0  0  0  0  0  0  0
  151.8548  141.1553  158.9833 C   0  0  0  0  0  0  0  0  0  0  0  0
  149.2569  136.4245  153.7802 H   0  0  0  0  0  0  0  0  0  0  0  0
  152.4179  140.4964  161.6774 H   0  0  0  0  0  0  0  0  0  0  0  0
  153.7240  141.6608  161.9163 H   0  0  0  0  0  0  0  0  0  0  0  0
  153.9228  140.3383  160.7624 H   0  0  0  0  0  0  0  0  0  0  0  0
  153.3666  143.7472  160.7826 H   0  0  0  0  0  0  0  0  0  0  0  0
  151.7552  145.0010  159.3795 H   0  0  0  0  0  0  0  0  0  0  0  0
  152.9947  144.4374  158.2722 H   0  0  0  0  0  0  0  0  0  0  0  0
  150.2271  143.2303  158.7518 H   0  0  0  0  0  0  0  0  0  0  0  0
  150.7998  143.9397  157.2804 H   0  0  0  0  0  0  0  0  0  0  0  0
  152.4650  139.7901  157.3505 H   0  0  0  0  0  0  0  0  0  0  0  0
  152.9798  140.0905  154.5623 H   0  0  0  0  0  0  0  0  0  0  0  0
  153.0526  138.6014  155.4644 H   0  0  0  0  0  0  0  0  0  0  0  0
  150.5455  141.0389  154.1848 H   0  0  0  0  0  0  0  0  0  0  0  0
  147.2171  140.7073  153.5000 H   0  0  0  0  0  0  0  0  0  0  0  0
  147.1764  141.2803  151.1146 H   0  0  0  0  0  0  0  0  0  0  0  0
  147.4493  139.5534  151.3073 H   0  0  0  0  0  0  0  0  0  0  0  0
  148.7888  140.6167  150.8821 H   0  0  0  0  0  0  0  0  0  0  0  0
  148.0174  142.9268  152.9948 H   0  0  0  0  0  0  0  0  0  0  0  0
  149.6536  142.3567  152.7187 H   0  0  0  0  0  0  0  0  0  0  0  0
  148.9530  142.2788  154.3343 H   0  0  0  0  0  0  0  0  0  0  0  0
  152.4386  140.2689  158.7298 H   0  0  0  0  0  0  0  0  0  0  0  0
  150.9074  140.8026  159.3928 H   0  0  0  0  0  0  0  0  0  0  0  0
  1  2  1  0  0  0  0
  1 24  1  0  0  0  0
  1 25  1  0  0  0  0
  1 26  1  0  0  0  0
  2 22  1  0  0  0  0
  2  3  2  0  0  0  0
  3  4  1  0  0  0  0
  3 27  1  0  0  0  0
  4  5  1  0  0  0  0
  4 28  1  0  0  0  0
  4 29  1  0  0  0  0
  5  6  1  0  0  0  0
  5 30  1  0  0  0  0
  5 31  1  0  0  0  0
  6  7  1  0  0  0  0
  6 22  1  0  0  0  0
  7  8  2  0  0  0  0
  7  9  1  0  0  0  0
  9 10  1  0  0  0  0
  9 32  1  0  0  0  0
 10 11  1  0  0  0  0
 10 33  1  0  0  0  0
 10 34  1  0  0  0  0
 11 20  1  0  0  0  0
 11 12  2  0  0  0  0
 12 13  1  0  0  0  0
 12 35  1  0  0  0  0
 13 14  1  0  0  0  0
 13 17  1  0  0  0  0
 14 15  1  0  0  0  0
 14 16  1  0  0  0  0
 14 36  1  0  0  0  0
 15 37  1  0  0  0  0
 15 38  1  0  0  0  0
 15 39  1  0  0  0  0
 16 40  1  0  0  0  0
 16 41  1  0  0  0  0
 16 42  1  0  0  0  0
 17 18  2  0  0  0  0
 17 19  1  0  0  0  0
 19 23  1  0  0  0  0
 19 20  1  0  0  0  0
 20 21  2  0  0  0  0
 22 43  1  0  0  0  0
 22 44  1  0  0  0  0
M  END
> <s_m_source_file>
AV-unprocessed.smi

> <i_m_source_file_index>
5

> <i_lp_mmshare_version>
43012

> <i_f3d_flags>
0

> <s_epik_input>
W0NIM11DMT1bQ0hdW0NIMl1bQ0gyXU4oW0NIMl0xKUMoPU8pW05IXVtDSDJdYzJbY0hdbihbQ0hdKFtDSDNdKVtDSDNdKWMoPU8pW25IXWMyPU8=

> <s_epik_cmdline>
J2VwaWtfcHl0aG9uJywgJy1waCcsICc3LjAnLCAnLXRuJywgJzgnLCAnLW1hJywgJzIwMCcsICctbWV0YWxfYmluZGluZycsICctaW1hZScsICc8aW5maWxlLm1hZT4nLCAnLW9tYWUnLCAnPG91dGZpbGUubWFlPic=

> <r_lp_tautomer_probability>
0.999537

> <r_epik_Ionization_Penalty>
0.000965624

> <r_epik_Ionization_Penalty_Charging>
0.000915459

> <r_epik_Ionization_Penalty_Neutral>
5.01649e-05

> <r_epik_State_Penalty>
0.000593189

> <r_epik_Charging_Adjusted_Penalty>
0.00150865

> <i_epik_Tot_Q>
0

> <i_epik_Tot_abs_Q>
0

> <r_epik_Metal_State_Penalty>
0.281504

> <b_epik_Metal_Only>
0

> <s_lp_Force_Field>
OPLS_2005

> <r_lp_Energy>
30.7874

> <b_lp_Chiralities_Consistent>
1

> <s_lp_Variant>
AV-unprocessed.smi:5-1

> <Gold.Version>
5.8.1

> <Gold.Id.Protein>
6NUR|6NUR_protein|mol2

> <Gold.PLP.Fitness>
42.7256

> <Gold.PLP.PLP>
-42.0860

> <Gold.PLP.part.hbond>
-2.3241

> <Gold.PLP.part.metal>
0.0000

> <Gold.PLP.part.buried>
0.2441

> <Gold.PLP.part.nonpolar>
-41.1614

> <Gold.PLP.part.repulsive>
1.4885

> <Gold.PLP.ligand.clash>
2.2081

> <Gold.PLP.ligand.torsion>
0.0953

> <Gold.PLP.Chemscore.Hbond>
0.9913

> <Gold.PLP.Chemscore.CHOScore>
0.0000

> <Gold.PLP.Chemscore.Metal>
0.0000

> <Gold.Chemscore.Hbonds>
donor molecule, donor type, donor heavy atom, donor atom, acceptor molecule, acceptor atom, score
      L1  H    19    23       P1  7948  0.06
      P1  H  7989  7998       L1     8  0.02
      P1  H 10752 10763       L1    21  1.00

> <Gold.PLP.Chemscore.Internal.Correction>
0.0646

> <Gold.Rescore>
     Score         DG    S(hbond)    S(metal)    S(lipo)     H(rot)  DE(clash)    DE(int)     intcor
     12.57     -17.72       0.95        0.00     109.96       1.48       2.30       2.85       ----

> <Gold.Chemscore.Fitness>
12.5741

> <Gold.Chemscore.DG>
-17.7241

> <Gold.Chemscore.ZeroCoef>
-5.4800

> <Gold.Chemscore.Hbond>
0.9520

> <Gold.Chemscore.Metal>
0.0000

> <Gold.Chemscore.Lipo>
109.9573

> <Gold.Chemscore.Internal_Hbond>
0.0000

> <Gold.Chemscore.DEClash>
2.2954

> <Gold.Chemscore.DEInternal>
2.8545

> <Gold.Chemscore.Rot>
1.4846

> <Gold.Chemscore.Internal.Correction>
   9.000000E+99

> <Gold.Chemscore.Hbonds>
donor molecule, donor type, donor heavy atom, donor atom, acceptor molecule, acceptor atom, score
      L1  H    19    23       P1  7948  0.09
      P1  H  7989  7998       L1     8  0.03
      P1  H 10752 10763       L1    21  1.00

> <Gold.Chemscore.Hbond.Weighted>
-3.1796

> <Gold.Chemscore.Metal.Weighted>
-0.0000

> <Gold.Chemscore.Lipo.Weighted>
-12.8650

> <Gold.Chemscore.Internal_Hbond.Weighted>
0.0000

> <Gold.Chemscore.DEClash.Weighted>
2.2954

> <Gold.Chemscore.DEInternal.Weighted>
2.8545

> <Gold.Chemscore.Rot.Weighted>
3.8005

> <Gold.Chemscore.Internal.Correction.Weighted>
   9.000000E+99

> <Gold.Protein.RotatedTorsions>
[ 6907 6896 6895 6894 ] final -136.55 input  -60.11 | X-H torsion
[ 7974 7965 7964 7962 ] final   68.85 input  175.53 | X-H torsion
[ 8008 7997 7996 7995 ] final -125.95 input   59.86 | X-H torsion
[ 10167 10162 10161 10158 ] final  -13.07 input  -65.29 | X-H torsion
[ 10718 10713 10712 10709 ] final   30.54 input   66.30 | X-H torsion
[ 10763 10752 10751 10750 ] final   52.07 input  -60.55 | X-H torsion
[ 11005 11000 10999 10996 ] final  160.31 input  -57.11 | X-H torsion

> <Gold.Protein.ActiveResidues>
 VAL166  LYS551  ARG553  GLY616  TRP617  ASP618  TYR619  PRO620  LYS621  CYS622 
 ASP623  PHE694  ASN695  SER759  ASP760  ASP761  ALA762  ILE779  LEU786  VAL792 
 PHE793  MET794  SER795  GLU796  ALA797  LYS798  CYS799  TRP800  GLU811  SER814 

> <Gold.Protein.RotatedAtoms>
  151.0115  133.5961  159.2681 H   0  0  0  0  0  0  0  0  0  0  0  0  # atno 6907 bound_to 6896
  151.3111  135.0793  159.9282 H   0  0  0  0  0  0  0  0  0  0  0  0  # atno 6908 bound_to 6896
  152.5300  133.9779  159.7847 H   0  0  0  0  0  0  0  0  0  0  0  0  # atno 6909 bound_to 6896
  145.7975  139.2965  143.1174 H   0  0  0  0  0  0  0  0  0  0  0  0  # atno 7974 bound_to 7965
  155.2216  140.0422  157.2949 H   0  0  0  0  0  0  0  0  0  0  0  0  # atno 8008 bound_to 7997
  154.5946  140.2436  155.7845 H   0  0  0  0  0  0  0  0  0  0  0  0  # atno 8009 bound_to 7997
  156.2281  140.2947  156.0128 H   0  0  0  0  0  0  0  0  0  0  0  0  # atno 8010 bound_to 7997
  140.7174  143.5465  150.9350 H   0  0  0  0  0  0  0  0  0  0  0  0  # atno 10167 bound_to 10162
  157.2609  130.7161  149.6453 H   0  0  0  0  0  0  0  0  0  0  0  0  # atno 10718 bound_to 10713
  152.9787  135.5825  154.4518 H   0  0  0  0  0  0  0  0  0  0  0  0  # atno 10763 bound_to 10752
  154.4106  135.2770  155.2041 H   0  0  0  0  0  0  0  0  0  0  0  0  # atno 10764 bound_to 10752
  154.3832  135.6142  153.5856 H   0  0  0  0  0  0  0  0  0  0  0  0  # atno 10765 bound_to 10752
  140.2047  134.8312  157.3056 H   0  0  0  0  0  0  0  0  0  0  0  0  # atno 11005 bound_to 11000
  145.9912  140.8601  143.0065 LP  0  0  0  0  0  0  0  0  0  0  0  0  # atno 17320 bound_to 7965
  144.6773  140.2219  143.7365 LP  0  0  0  0  0  0  0  0  0  0  0  0  # atno 17321 bound_to 7965
  139.9188  143.6630  152.3101 LP  0  0  0  0  0  0  0  0  0  0  0  0  # atno 17342 bound_to 10162
  139.7040  144.7631  151.1224 LP  0  0  0  0  0  0  0  0  0  0  0  0  # atno 17343 bound_to 10162
  155.9664  130.4398  150.5272 LP  0  0  0  0  0  0  0  0  0  0  0  0  # atno 17370 bound_to 10713
  157.3176  131.0676  151.1955 LP  0  0  0  0  0  0  0  0  0  0  0  0  # atno 17371 bound_to 10713
  140.2016  134.4247  155.7659 LP  0  0  0  0  0  0  0  0  0  0  0  0  # atno 17394 bound_to 11000
  141.2227  133.7075  156.8193 LP  0  0  0  0  0  0  0  0  0  0  0  0  # atno 17395 bound_to 11000

$$$$
