AV-unprocessed.smi:633|AV-procd|sdf|3132|dock1
  -GOLD-   22720 0 53D 1   1.00000     0.00000
 Structure written by MMmdl.
 53 56  0  0  0  0  0  0  0  0  1 V2000
  151.7095  144.4324  157.8289 C   0  0  0  0  0  0  0  0  0  0  0  0
  151.1311  143.4379  158.8515 C   0  0  1  0  0  0  0  0  0  0  0  0
  150.5169  142.1803  158.2053 C   0  0  0  0  0  0  0  0  0  0  0  0
  151.5581  141.2668  157.7394 N   0  0  0  0  0  0  0  0  0  0  0  0
  151.1770  140.2036  156.8930 C   0  0  0  0  0  0  0  0  0  0  0  0
  150.7011  140.4707  155.5880 C   0  0  0  0  0  0  0  0  0  0  0  0
  150.3258  139.3976  154.7572 C   0  0  0  0  0  0  0  0  0  0  0  0
  150.4277  138.0780  155.2551 C   0  0  0  0  0  0  0  0  0  0  0  0
  150.1037  136.9122  154.5097 N   0  0  0  0  0  0  0  0  0  0  0  0
  150.1685  135.6265  154.8961 C   0  0  0  0  0  0  0  0  0  0  0  0
  150.5773  135.2340  155.9886 O   0  0  0  0  0  0  0  0  0  0  0  0
  149.7450  134.8086  153.9201 N   0  0  0  0  0  0  0  0  0  0  0  0
  149.6802  133.3485  153.9679 C   0  0  0  0  0  0  0  0  0  0  0  0
  151.0009  132.6852  154.3307 C   0  0  0  0  0  0  0  0  0  0  0  0
  151.0462  131.2806  154.8840 C   0  0  0  0  0  0  0  0  0  0  0  0
  151.3897  132.4561  155.7714 C   0  0  0  0  0  0  0  0  0  0  0  0
  149.0811  132.7192  152.7188 C   0  0  0  0  0  0  0  0  0  0  0  0
  147.6458  132.9755  152.3271 C   0  0  0  0  0  0  0  0  0  0  0  0
  148.0646  131.6059  152.8134 C   0  0  0  0  0  0  0  0  0  0  0  0
  150.9208  137.9109  156.5641 C   0  0  0  0  0  0  0  0  0  0  0  0
  151.2786  138.9366  157.3644 N   0  0  0  0  0  0  0  0  0  0  0  0
  152.5334  140.9332  158.7723 C   0  0  0  0  0  0  0  0  0  0  0  0
  153.1364  142.2149  159.3749 C   0  0  2  0  0  0  0  0  0  0  0  0
  154.0627  141.9085  160.5565 C   0  0  0  0  0  0  0  0  0  0  0  0
  152.0895  143.0642  159.8441 O   0  0  0  0  0  0  0  0  0  0  0  0
  150.9268  144.8029  157.1663 H   0  0  0  0  0  0  0  0  0  0  0  0
  152.4764  143.9811  157.1997 H   0  0  0  0  0  0  0  0  0  0  0  0
  152.1507  145.2938  158.3307 H   0  0  0  0  0  0  0  0  0  0  0  0
  150.3338  143.9602  159.3810 H   0  0  0  0  0  0  0  0  0  0  0  0
  149.8959  141.6597  158.9357 H   0  0  0  0  0  0  0  0  0  0  0  0
  149.8662  142.4729  157.3799 H   0  0  0  0  0  0  0  0  0  0  0  0
  150.6105  141.4817  155.2197 H   0  0  0  0  0  0  0  0  0  0  0  0
  149.9810  139.6094  153.7572 H   0  0  0  0  0  0  0  0  0  0  0  0
  149.8329  137.0747  153.5508 H   0  0  0  0  0  0  0  0  0  0  0  0
  149.4360  135.2361  153.0595 H   0  0  0  0  0  0  0  0  0  0  0  0
  148.9899  133.1367  154.7858 H   0  0  0  0  0  0  0  0  0  0  0  0
  151.8179  132.9416  153.6585 H   0  0  0  0  0  0  0  0  0  0  0  0
  150.1015  130.7739  155.0704 H   0  0  0  0  0  0  0  0  0  0  0  0
  151.8627  130.6396  154.5583 H   0  0  0  0  0  0  0  0  0  0  0  0
  152.4351  132.5985  156.0371 H   0  0  0  0  0  0  0  0  0  0  0  0
  150.6709  132.7298  156.5411 H   0  0  0  0  0  0  0  0  0  0  0  0
  149.7850  132.6327  151.8931 H   0  0  0  0  0  0  0  0  0  0  0  0
  147.0380  133.5817  152.9960 H   0  0  0  0  0  0  0  0  0  0  0  0
  147.4280  133.0891  151.2671 H   0  0  0  0  0  0  0  0  0  0  0  0
  148.1258  130.8070  152.0772 H   0  0  0  0  0  0  0  0  0  0  0  0
  147.7279  131.3034  153.8030 H   0  0  0  0  0  0  0  0  0  0  0  0
  151.0281  136.9229  156.9876 H   0  0  0  0  0  0  0  0  0  0  0  0
  152.0331  140.3529  159.5485 H   0  0  0  0  0  0  0  0  0  0  0  0
  153.3371  140.3102  158.3822 H   0  0  0  0  0  0  0  0  0  0  0  0
  153.7205  142.7360  158.6160 H   0  0  0  0  0  0  0  0  0  0  0  0
  154.8910  141.2689  160.2505 H   0  0  0  0  0  0  0  0  0  0  0  0
  153.5252  141.4000  161.3576 H   0  0  0  0  0  0  0  0  0  0  0  0
  154.4852  142.8254  160.9682 H   0  0  0  0  0  0  0  0  0  0  0  0
  1  2  1  0  0  0  0
  1 26  1  0  0  0  0
  1 27  1  0  0  0  0
  1 28  1  0  0  0  0
  2 25  1  0  0  0  0
  2  3  1  0  0  0  0
  2 29  1  0  0  0  0
  3  4  1  0  0  0  0
  3 30  1  0  0  0  0
  3 31  1  0  0  0  0
  4  5  1  0  0  0  0
  4 22  1  0  0  0  0
  5 21  1  0  0  0  0
  5  6  2  0  0  0  0
  6  7  1  0  0  0  0
  6 32  1  0  0  0  0
  7  8  2  0  0  0  0
  7 33  1  0  0  0  0
  8  9  1  0  0  0  0
  8 20  1  0  0  0  0
  9 10  1  0  0  0  0
  9 34  1  0  0  0  0
 10 11  2  0  0  0  0
 10 12  1  0  0  0  0
 12 13  1  0  0  0  0
 12 35  1  0  0  0  0
 13 14  1  0  0  0  0
 13 17  1  0  0  0  0
 13 36  1  0  0  0  0
 14 16  1  0  0  0  0
 14 15  1  0  0  0  0
 14 37  1  0  0  0  0
 15 16  1  0  0  0  0
 15 38  1  0  0  0  0
 15 39  1  0  0  0  0
 16 40  1  0  0  0  0
 16 41  1  0  0  0  0
 17 19  1  0  0  0  0
 17 18  1  0  0  0  0
 17 42  1  0  0  0  0
 18 19  1  0  0  0  0
 18 43  1  0  0  0  0
 18 44  1  0  0  0  0
 19 45  1  0  0  0  0
 19 46  1  0  0  0  0
 20 21  2  0  0  0  0
 20 47  1  0  0  0  0
 22 23  1  0  0  0  0
 22 48  1  0  0  0  0
 22 49  1  0  0  0  0
 23 24  1  0  0  0  0
 23 25  1  0  0  0  0
 23 50  1  0  0  0  0
 24 51  1  0  0  0  0
 24 52  1  0  0  0  0
 24 53  1  0  0  0  0
M  END
> <s_m_source_file>
AV-unprocessed.smi

> <i_m_source_file_index>
633

> <i_lp_mmshare_version>
43012

> <i_f3d_flags>
0

> <s_epik_input>
W0NIM11bQ0BASF0xW0NIMl1OKFtDSDJdW0NASF0oTzEpW0NIM10pYzJbY0hdW2NIXWMoW2NIXW4yKVtOSF1DKD1PKVtOSF1bQ0hdKFtDSF0zW0NIMl1bQ0gyXTMpW0NIXTRbQ0gyXVtDSDJdNA==

> <s_epik_cmdline>
J2VwaWtfcHl0aG9uJywgJy1waCcsICc3LjAnLCAnLXRuJywgJzgnLCAnLW1hJywgJzIwMCcsICctbWV0YWxfYmluZGluZycsICctaW1hZScsICc8aW5maWxlLm1hZT4nLCAnLW9tYWUnLCAnPG91dGZpbGUubWFlPic=

> <r_lp_tautomer_probability>
1

> <r_epik_Ionization_Penalty>
0.00291159

> <r_epik_Ionization_Penalty_Charging>
0

> <r_epik_Ionization_Penalty_Neutral>
0.00291159

> <r_epik_State_Penalty>
0.00200877

> <r_epik_Charging_Adjusted_Penalty>
0.00200877

> <i_epik_Tot_Q>
0

> <i_epik_Tot_abs_Q>
0

> <r_epik_Metal_State_Penalty>
-0

> <b_epik_Metal_Only>
0

> <s_lp_Force_Field>
OPLS_2005

> <r_lp_Energy>
43.3159

> <b_lp_Chiralities_Consistent>
1

> <s_lp_Variant>
AV-unprocessed.smi:633-3

> <Gold.Version>
5.8.1

> <Gold.Id.Protein>
6NUR|6NUR_protein|mol2

> <Gold.PLP.Fitness>
51.4569

> <Gold.PLP.PLP>
-46.4076

> <Gold.PLP.part.hbond>
-2.0000

> <Gold.PLP.part.metal>
0.0000

> <Gold.PLP.part.buried>
-4.3254

> <Gold.PLP.part.nonpolar>
-40.1268

> <Gold.PLP.part.repulsive>
0.0809

> <Gold.PLP.ligand.clash>
0.0000

> <Gold.PLP.ligand.torsion>
1.5722

> <Gold.PLP.Chemscore.Hbond>
1.8892

> <Gold.PLP.Chemscore.CHOScore>
0.0000

> <Gold.PLP.Chemscore.Metal>
0.0000

> <Gold.Chemscore.Hbonds>
donor molecule, donor type, donor heavy atom, donor atom, acceptor molecule, acceptor atom, score
      L1  H     9    34       P1  7948  0.87
      L1  H    12    35       P1  7948  0.40

> <Gold.PLP.Chemscore.Internal.Correction>
2.5260

> <Gold.Rescore>
     Score         DG    S(hbond)    S(metal)    S(lipo)     H(rot)  DE(clash)    DE(int)     intcor
     17.70     -20.85       1.79        0.00     111.05       1.40       0.02       3.13       ----

> <Gold.Chemscore.Fitness>
17.7003

> <Gold.Chemscore.DG>
-20.8522

> <Gold.Chemscore.ZeroCoef>
-5.4800

> <Gold.Chemscore.Hbond>
1.7873

> <Gold.Chemscore.Metal>
0.0000

> <Gold.Chemscore.Lipo>
111.0455

> <Gold.Chemscore.Internal_Hbond>
0.0000

> <Gold.Chemscore.DEClash>
0.0234

> <Gold.Chemscore.DEInternal>
3.1285

> <Gold.Chemscore.Rot>
1.4022

> <Gold.Chemscore.Internal.Correction>
   9.000000E+99

> <Gold.Chemscore.Hbonds>
donor molecule, donor type, donor heavy atom, donor atom, acceptor molecule, acceptor atom, score
      L1  H     9    34       P1  7948  0.44
      L1  H    12    35       P1  7948  0.01

> <Gold.Chemscore.Hbond.Weighted>
-5.9695

> <Gold.Chemscore.Metal.Weighted>
-0.0000

> <Gold.Chemscore.Lipo.Weighted>
-12.9923

> <Gold.Chemscore.Internal_Hbond.Weighted>
0.0000

> <Gold.Chemscore.DEClash.Weighted>
0.0234

> <Gold.Chemscore.DEInternal.Weighted>
3.1285

> <Gold.Chemscore.Rot.Weighted>
3.5897

> <Gold.Chemscore.Internal.Correction.Weighted>
   9.000000E+99

> <Gold.Protein.RotatedTorsions>
[ 6907 6896 6895 6894 ] final -116.06 input  -60.11 | X-H torsion
[ 7974 7965 7964 7962 ] final -116.20 input  175.53 | X-H torsion
[ 8008 7997 7996 7995 ] final -118.28 input   59.86 | X-H torsion
[ 10167 10162 10161 10158 ] final -110.54 input  -65.29 | X-H torsion
[ 10718 10713 10712 10709 ] final  -48.81 input   66.30 | X-H torsion
[ 10763 10752 10751 10750 ] final -119.17 input  -60.55 | X-H torsion
[ 11005 11000 10999 10996 ] final  172.00 input  -57.11 | X-H torsion

> <Gold.Protein.ActiveResidues>
 VAL166  LYS551  ARG553  GLY616  TRP617  ASP618  TYR619  PRO620  LYS621  CYS622 
 ASP623  PHE694  ASN695  SER759  ASP760  ASP761  ALA762  ILE779  LEU786  VAL792 
 PHE793  MET794  SER795  GLU796  ALA797  LYS798  CYS799  TRP800  GLU811  SER814 

> <Gold.Protein.RotatedAtoms>
  150.8027  133.8569  159.3220 H   0  0  0  0  0  0  0  0  0  0  0  0  # atno 6907 bound_to 6896
  151.6377  135.1014  160.0144 H   0  0  0  0  0  0  0  0  0  0  0  0  # atno 6908 bound_to 6896
  152.4115  133.6931  159.6437 H   0  0  0  0  0  0  0  0  0  0  0  0  # atno 6909 bound_to 6896
  145.0995  140.8543  143.3934 H   0  0  0  0  0  0  0  0  0  0  0  0  # atno 7974 bound_to 7965
  155.0971  140.0395  157.2686 H   0  0  0  0  0  0  0  0  0  0  0  0  # atno 8008 bound_to 7997
  154.6787  140.2628  155.6906 H   0  0  0  0  0  0  0  0  0  0  0  0  # atno 8009 bound_to 7997
  156.2686  140.2783  156.1323 H   0  0  0  0  0  0  0  0  0  0  0  0  # atno 8010 bound_to 7997
  140.1433  143.4260  152.1546 H   0  0  0  0  0  0  0  0  0  0  0  0  # atno 10167 bound_to 10162
  156.1953  130.4154  149.9315 H   0  0  0  0  0  0  0  0  0  0  0  0  # atno 10718 bound_to 10713
  154.8609  135.4248  154.2255 H   0  0  0  0  0  0  0  0  0  0  0  0  # atno 10763 bound_to 10752
  153.3251  135.6984  153.7002 H   0  0  0  0  0  0  0  0  0  0  0  0  # atno 10764 bound_to 10752
  153.6041  135.3531  155.2929 H   0  0  0  0  0  0  0  0  0  0  0  0  # atno 10765 bound_to 10752
  140.3251  134.7405  157.4093 H   0  0  0  0  0  0  0  0  0  0  0  0  # atno 11005 bound_to 11000
  145.0972  139.2848  143.5705 LP  0  0  0  0  0  0  0  0  0  0  0  0  # atno 17320 bound_to 7965
  146.3530  140.0527  142.8635 LP  0  0  0  0  0  0  0  0  0  0  0  0  # atno 17321 bound_to 7965
  139.5461  144.7299  151.4579 LP  0  0  0  0  0  0  0  0  0  0  0  0  # atno 17342 bound_to 10162
  140.6747  143.8216  150.7043 LP  0  0  0  0  0  0  0  0  0  0  0  0  # atno 17343 bound_to 10162
  156.7042  130.8945  151.3603 LP  0  0  0  0  0  0  0  0  0  0  0  0  # atno 17370 bound_to 10713
  157.6953  130.9276  150.0628 LP  0  0  0  0  0  0  0  0  0  0  0  0  # atno 17371 bound_to 10713
  140.0909  134.5603  155.8445 LP  0  0  0  0  0  0  0  0  0  0  0  0  # atno 17394 bound_to 11000
  141.2077  133.6667  156.6324 LP  0  0  0  0  0  0  0  0  0  0  0  0  # atno 17395 bound_to 11000

$$$$
