AV-unprocessed.smi:3083|AV-procd|sdf|11746|dock3
  -GOLD-   2272017143D 1   1.00000     0.00000
 Structure written by MMmdl.
 28 29  0  0  0  0  0  0  0  0  2 V2000
  143.8879  135.4691  149.3899 N   0  3  0  0  0  0  0  0  0  0  0  0
  144.7863  134.6916  150.2638 C   0  0  2  0  0  0  0  0  0  0  0  0
  144.3416  133.2143  150.3461 C   0  0  0  0  0  0  0  0  0  0  0  0
  145.2481  132.4011  151.2840 C   0  0  0  0  0  0  0  0  0  0  0  0
  145.3498  133.0481  152.6736 C   0  0  0  0  0  0  0  0  0  0  0  0
  145.8554  134.4966  152.5697 C   0  0  0  0  0  0  0  0  0  0  0  0
  144.9731  135.3699  151.6519 C   0  0  2  0  0  0  0  0  0  0  0  0
  143.7377  135.7745  152.3274 N   0  0  0  0  0  0  0  0  0  0  0  0
  143.3144  137.0641  152.5815 C   0  0  0  0  0  0  0  0  0  0  0  0
  142.1354  136.9887  153.2653 C   0  0  0  0  0  0  0  0  0  0  0  0
  141.9179  135.5910  153.4058 C   0  0  0  0  0  0  0  0  0  0  0  0
  142.8785  134.8707  152.8514 N   0  0  0  0  0  0  0  0  0  0  0  0
  142.9507  135.0987  149.4644 H   0  0  0  0  0  0  0  0  0  0  0  0
  144.2025  135.3995  148.4329 H   0  0  0  0  0  0  0  0  0  0  0  0
  145.7597  134.7005  149.7713 H   0  0  0  0  0  0  0  0  0  0  0  0
  143.3085  133.1323  150.6807 H   0  0  0  0  0  0  0  0  0  0  0  0
  144.3636  132.7683  149.3511 H   0  0  0  0  0  0  0  0  0  0  0  0
  144.8691  131.3827  151.3748 H   0  0  0  0  0  0  0  0  0  0  0  0
  146.2448  132.3205  150.8480 H   0  0  0  0  0  0  0  0  0  0  0  0
  144.3783  133.0225  153.1682 H   0  0  0  0  0  0  0  0  0  0  0  0
  146.0259  132.4668  153.3014 H   0  0  0  0  0  0  0  0  0  0  0  0
  145.9226  134.9405  153.5639 H   0  0  0  0  0  0  0  0  0  0  0  0
  146.8733  134.4845  152.1779 H   0  0  0  0  0  0  0  0  0  0  0  0
  145.5221  136.2964  151.4756 H   0  0  0  0  0  0  0  0  0  0  0  0
  143.8831  137.9234  152.2574 H   0  0  0  0  0  0  0  0  0  0  0  0
  141.5263  137.8074  153.6193 H   0  0  0  0  0  0  0  0  0  0  0  0
  141.0994  135.0821  153.8933 H   0  0  0  0  0  0  0  0  0  0  0  0
  143.8903  136.4375  149.6768 H   0  0  0  0  0  0  0  0  0  0  0  0
  1  2  1  0  0  0  0
  1 13  1  0  0  0  0
  1 14  1  0  0  0  0
  1 28  1  0  0  0  0
  2  7  1  0  0  0  0
  2  3  1  0  0  0  0
  2 15  1  0  0  0  0
  3  4  1  0  0  0  0
  3 16  1  0  0  0  0
  3 17  1  0  0  0  0
  4  5  1  0  0  0  0
  4 18  1  0  0  0  0
  4 19  1  0  0  0  0
  5  6  1  0  0  0  0
  5 20  1  0  0  0  0
  5 21  1  0  0  0  0
  6  7  1  0  0  0  0
  6 22  1  0  0  0  0
  6 23  1  0  0  0  0
  7  8  1  0  0  0  0
  7 24  1  0  0  0  0
  8 12  1  0  0  0  0
  8  9  1  0  0  0  0
  9 10  2  0  0  0  0
  9 25  1  0  0  0  0
 10 11  1  0  0  0  0
 10 26  1  0  0  0  0
 11 12  2  0  0  0  0
 11 27  1  0  0  0  0
M  CHG  1   1   1
M  END
> <s_m_source_file>
AV-unprocessed.smi

> <i_m_source_file_index>
3083

> <i_lp_mmshare_version>
43012

> <i_f3d_flags>
0

> <s_epik_input>
W05IMl1bQ0BASF0xW0NIMl1bQ0gyXVtDSDJdW0NIMl1bQ0BIXTFuMltjSF1bY0hdW2NIXW4y

> <s_epik_cmdline>
J2VwaWtfcHl0aG9uJywgJy1waCcsICc3LjAnLCAnLXRuJywgJzgnLCAnLW1hJywgJzIwMCcsICctbWV0YWxfYmluZGluZycsICctaW1hZScsICc8aW5maWxlLm1hZT4nLCAnLW9tYWUnLCAnPG91dGZpbGUubWFlPic=

> <r_lp_tautomer_probability>
1

> <r_epik_Ionization_Penalty>
0.00385053

> <r_epik_Ionization_Penalty_Charging>
0.0038389

> <r_epik_Ionization_Penalty_Neutral>
1.16305e-05

> <r_epik_State_Penalty>
-0

> <r_epik_Charging_Adjusted_Penalty>
0.0038389

> <i_epik_Tot_Q>
1

> <i_epik_Tot_abs_Q>
1

> <r_epik_Metal_State_Penalty>
-0

> <b_epik_Metal_Only>
0

> <s_lp_Force_Field>
OPLS_2005

> <r_lp_Energy>
16.3847

> <b_lp_Chiralities_Consistent>
1

> <s_lp_Variant>
AV-unprocessed.smi:3083-3

> <Gold.Version>
5.8.1

> <Gold.Id.Protein>
6NUR|6NUR_protein|mol2

> <Gold.PLP.Fitness>
34.7088

> <Gold.PLP.PLP>
-19.8361

> <Gold.PLP.part.hbond>
-2.7089

> <Gold.PLP.part.metal>
0.0000

> <Gold.PLP.part.buried>
-0.0140

> <Gold.PLP.part.nonpolar>
-17.8695

> <Gold.PLP.part.repulsive>
0.3166

> <Gold.PLP.ligand.clash>
0.0000

> <Gold.PLP.ligand.torsion>
0.0880

> <Gold.PLP.Chemscore.Hbond>
3.2046

> <Gold.PLP.Chemscore.CHOScore>
1.7900

> <Gold.PLP.Chemscore.Metal>
0.0000

> <Gold.Chemscore.Hbonds>
donor molecule, donor type, donor heavy atom, donor atom, acceptor molecule, acceptor atom, score
      L1  H     1    13       P1 10186  1.95
      L1  H     1    14       P1  7921  0.44
      L1  H     1    28       P1 10171  0.78
      L1  C     9    25       P1 10171  0.79
      L1  C     9    25       P1 10175  1.00

> <Gold.PLP.Chemscore.Internal.Correction>
0.0646

> <Gold.Rescore>
     Score         DG    S(hbond)    S(metal)    S(lipo)     H(rot)  DE(clash)    DE(int)     intcor
     14.42     -15.26       2.12        0.00      44.99       1.00       0.20       0.63       ----

> <Gold.Chemscore.Fitness>
14.4213

> <Gold.Chemscore.DG>
-15.2561

> <Gold.Chemscore.ZeroCoef>
-5.4800

> <Gold.Chemscore.Hbond>
2.1175

> <Gold.Chemscore.Metal>
0.0000

> <Gold.Chemscore.Lipo>
44.9875

> <Gold.Chemscore.Internal_Hbond>
0.0000

> <Gold.Chemscore.DEClash>
0.2001

> <Gold.Chemscore.DEInternal>
0.6348

> <Gold.Chemscore.Rot>
1.0000

> <Gold.Chemscore.Internal.Correction>
   9.000000E+99

> <Gold.Chemscore.Hbonds>
donor molecule, donor type, donor heavy atom, donor atom, acceptor molecule, acceptor atom, score
      L1  H     1    13       P1 10186  0.56
      L1  H     1    14       P1  7921  0.43
      L1  H     1    28       P1 10171  0.75

> <Gold.Chemscore.Hbond.Weighted>
-7.0726

> <Gold.Chemscore.Metal.Weighted>
-0.0000

> <Gold.Chemscore.Lipo.Weighted>
-5.2635

> <Gold.Chemscore.Internal_Hbond.Weighted>
0.0000

> <Gold.Chemscore.DEClash.Weighted>
0.2001

> <Gold.Chemscore.DEInternal.Weighted>
0.6348

> <Gold.Chemscore.Rot.Weighted>
2.5600

> <Gold.Chemscore.Internal.Correction.Weighted>
   9.000000E+99

> <Gold.Protein.RotatedTorsions>
[ 6907 6896 6895 6894 ] final  147.86 input  -60.11 | X-H torsion
[ 7974 7965 7964 7962 ] final -154.41 input  175.53 | X-H torsion
[ 8008 7997 7996 7995 ] final   79.28 input   59.86 | X-H torsion
[ 10167 10162 10161 10158 ] final  -82.26 input  -65.29 | X-H torsion
[ 10718 10713 10712 10709 ] final  -43.61 input   66.30 | X-H torsion
[ 10763 10752 10751 10750 ] final -165.86 input  -60.55 | X-H torsion
[ 11005 11000 10999 10996 ] final -128.80 input  -57.11 | X-H torsion

> <Gold.Protein.ActiveResidues>
 VAL166  LYS551  ARG553  GLY616  TRP617  ASP618  TYR619  PRO620  LYS621  CYS622 
 ASP623  PHE694  ASN695  SER759  ASP760  ASP761  ALA762  ILE779  LEU786  VAL792 
 PHE793  MET794  SER795  GLU796  ALA797  LYS798  CYS799  TRP800  GLU811  SER814 

> <Gold.Protein.RotatedAtoms>
  152.1491  133.4511  159.4804 H   0  0  0  0  0  0  0  0  0  0  0  0  # atno 6907 bound_to 6896
  150.6893  134.2211  159.4406 H   0  0  0  0  0  0  0  0  0  0  0  0  # atno 6908 bound_to 6896
  152.0106  134.9877  160.0618 H   0  0  0  0  0  0  0  0  0  0  0  0  # atno 6909 bound_to 6896
  144.7691  140.4391  143.5920 H   0  0  0  0  0  0  0  0  0  0  0  0  # atno 7974 bound_to 7965
  155.8675  140.3450  155.5798 H   0  0  0  0  0  0  0  0  0  0  0  0  # atno 8008 bound_to 7997
  155.7865  140.0865  157.2051 H   0  0  0  0  0  0  0  0  0  0  0  0  # atno 8009 bound_to 7997
  154.4015  140.1491  156.3100 H   0  0  0  0  0  0  0  0  0  0  0  0  # atno 8010 bound_to 7997
  140.4336  143.2540  151.8725 H   0  0  0  0  0  0  0  0  0  0  0  0  # atno 10167 bound_to 10162
  156.2472  130.4185  149.8691 H   0  0  0  0  0  0  0  0  0  0  0  0  # atno 10718 bound_to 10713
  154.6890  135.2967  154.9506 H   0  0  0  0  0  0  0  0  0  0  0  0  # atno 10763 bound_to 10752
  154.0476  135.6649  153.4801 H   0  0  0  0  0  0  0  0  0  0  0  0  # atno 10764 bound_to 10752
  153.0599  135.5122  154.7973 H   0  0  0  0  0  0  0  0  0  0  0  0  # atno 10765 bound_to 10752
  140.9485  134.1097  157.4084 H   0  0  0  0  0  0  0  0  0  0  0  0  # atno 11005 bound_to 11000
  145.6380  139.1546  143.2932 LP  0  0  0  0  0  0  0  0  0  0  0  0  # atno 17320 bound_to 7965
  146.1822  140.6478  142.9184 LP  0  0  0  0  0  0  0  0  0  0  0  0  # atno 17321 bound_to 7965
  139.4786  144.5308  151.8670 LP  0  0  0  0  0  0  0  0  0  0  0  0  # atno 17342 bound_to 10162
  140.4399  144.2000  150.5891 LP  0  0  0  0  0  0  0  0  0  0  0  0  # atno 17343 bound_to 10162
  156.6252  130.8643  151.3484 LP  0  0  0  0  0  0  0  0  0  0  0  0  # atno 17370 bound_to 10713
  157.7200  130.9546  150.1401 LP  0  0  0  0  0  0  0  0  0  0  0  0  # atno 17371 bound_to 10713
  139.8840  135.0059  156.6342 LP  0  0  0  0  0  0  0  0  0  0  0  0  # atno 17394 bound_to 11000
  140.7635  133.8797  155.8436 LP  0  0  0  0  0  0  0  0  0  0  0  0  # atno 17395 bound_to 11000

$$$$
