AV-unprocessed.smi:2187|AV-procd|sdf|8878|dock6
  -GOLD-   2272012 73D 1   1.00000     0.00000
 Structure written by MMmdl.
 42 43  0  0  0  0  0  0  0  0  1 V2000
  148.5811  141.3756  157.6212 C   0  0  0  0  0  0  0  0  0  0  0  0
  149.9306  141.1002  158.2206 C   0  0  0  0  0  0  0  0  0  0  0  0
  150.6179  142.1007  158.7455 N   0  0  0  0  0  0  0  0  0  0  0  0
  151.7547  141.5372  159.2006 N   0  0  0  0  0  0  0  0  0  0  0  0
  152.7470  142.3708  159.8508 C   0  0  0  0  0  0  0  0  0  0  0  0
  151.7831  140.1756  158.9682 C   0  0  0  0  0  0  0  0  0  0  0  0
  152.9319  139.3176  159.3907 C   0  0  0  0  0  0  0  0  0  0  0  0
  150.6159  139.8535  158.3281 C   0  0  0  0  0  0  0  0  0  0  0  0
  150.1484  138.5011  157.8525 C   0  0  0  0  0  0  0  0  0  0  0  0
  149.9506  137.5776  159.0539 C   0  0  0  0  0  0  0  0  0  0  0  0
  150.9179  137.2355  159.7340 O   0  0  0  0  0  0  0  0  0  0  0  0
  148.6909  137.1878  159.3039 N   0  0  0  0  0  0  0  0  0  0  0  0
  148.2589  136.3494  160.4211 C   0  0  2  0  0  0  0  0  0  0  0  0
  148.1495  134.8656  159.9852 C   0  0  0  0  0  0  0  0  0  0  0  0
  147.1961  133.9829  160.8183 C   0  0  0  0  0  0  0  0  0  0  0  0
  147.4374  133.9979  162.3417 C   0  0  0  0  0  0  0  0  0  0  0  0
  147.4237  135.3813  163.0366 C   0  0  0  0  0  0  0  0  0  0  0  0
  146.6759  136.4122  162.3179 N   0  0  0  0  0  0  0  0  0  0  0  0
  147.0124  136.9244  161.1215 C   0  0  0  0  0  0  0  0  0  0  0  0
  146.3393  137.8058  160.5882 O   0  0  0  0  0  0  0  0  0  0  0  0
  147.7899  141.2001  158.3498 H   0  0  0  0  0  0  0  0  0  0  0  0
  148.3906  140.7318  156.7630 H   0  0  0  0  0  0  0  0  0  0  0  0
  148.4956  142.4084  157.2812 H   0  0  0  0  0  0  0  0  0  0  0  0
  153.7470  142.0765  159.5319 H   0  0  0  0  0  0  0  0  0  0  0  0
  152.6683  142.2548  160.9316 H   0  0  0  0  0  0  0  0  0  0  0  0
  152.5937  143.4196  159.5933 H   0  0  0  0  0  0  0  0  0  0  0  0
  152.6891  138.2590  159.3007 H   0  0  0  0  0  0  0  0  0  0  0  0
  153.1985  139.5078  160.4305 H   0  0  0  0  0  0  0  0  0  0  0  0
  153.8087  139.5148  158.7739 H   0  0  0  0  0  0  0  0  0  0  0  0
  149.2151  138.5733  157.2930 H   0  0  0  0  0  0  0  0  0  0  0  0
  150.8678  138.0460  157.1708 H   0  0  0  0  0  0  0  0  0  0  0  0
  147.9624  137.5256  158.6916 H   0  0  0  0  0  0  0  0  0  0  0  0
  149.0550  136.4123  161.1640 H   0  0  0  0  0  0  0  0  0  0  0  0
  147.8167  134.8173  158.9473 H   0  0  0  0  0  0  0  0  0  0  0  0
  149.1461  134.4226  159.9936 H   0  0  0  0  0  0  0  0  0  0  0  0
  146.1641  134.2721  160.6147 H   0  0  0  0  0  0  0  0  0  0  0  0
  147.2755  132.9549  160.4630 H   0  0  0  0  0  0  0  0  0  0  0  0
  146.6668  133.3773  162.8004 H   0  0  0  0  0  0  0  0  0  0  0  0
  148.3812  133.5001  162.5664 H   0  0  0  0  0  0  0  0  0  0  0  0
  146.9981  135.2820  164.0353 H   0  0  0  0  0  0  0  0  0  0  0  0
  148.4450  135.7290  163.1957 H   0  0  0  0  0  0  0  0  0  0  0  0
  145.8509  136.7778  162.7710 H   0  0  0  0  0  0  0  0  0  0  0  0
  1  2  1  0  0  0  0
  1 21  1  0  0  0  0
  1 22  1  0  0  0  0
  1 23  1  0  0  0  0
  2  8  1  0  0  0  0
  2  3  2  0  0  0  0
  3  4  1  0  0  0  0
  4  5  1  0  0  0  0
  4  6  1  0  0  0  0
  5 24  1  0  0  0  0
  5 25  1  0  0  0  0
  5 26  1  0  0  0  0
  6  7  1  0  0  0  0
  6  8  2  0  0  0  0
  7 27  1  0  0  0  0
  7 28  1  0  0  0  0
  7 29  1  0  0  0  0
  8  9  1  0  0  0  0
  9 10  1  0  0  0  0
  9 30  1  0  0  0  0
  9 31  1  0  0  0  0
 10 11  2  0  0  0  0
 10 12  1  0  0  0  0
 12 13  1  0  0  0  0
 12 32  1  0  0  0  0
 13 19  1  0  0  0  0
 13 14  1  0  0  0  0
 13 33  1  0  0  0  0
 14 15  1  0  0  0  0
 14 34  1  0  0  0  0
 14 35  1  0  0  0  0
 15 16  1  0  0  0  0
 15 36  1  0  0  0  0
 15 37  1  0  0  0  0
 16 17  1  0  0  0  0
 16 38  1  0  0  0  0
 16 39  1  0  0  0  0
 17 18  1  0  0  0  0
 17 40  1  0  0  0  0
 17 41  1  0  0  0  0
 18 19  1  0  0  0  0
 18 42  1  0  0  0  0
 19 20  2  0  0  0  0
M  END
> <s_m_source_file>
AV-unprocessed.smi

> <i_m_source_file_index>
2187

> <i_lp_mmshare_version>
43012

> <i_f3d_flags>
0

> <s_epik_input>
W0NIM11jMW5uKFtDSDNdKWMoW0NIM10pYzFbQ0gyXUMoPU8pW05IXVtDQEBIXTJbQ0gyXVtDSDJdW0NIMl1bQ0gyXVtOSF1DMj1P

> <s_epik_cmdline>
J2VwaWtfcHl0aG9uJywgJy1waCcsICc3LjAnLCAnLXRuJywgJzgnLCAnLW1hJywgJzIwMCcsICctbWV0YWxfYmluZGluZycsICctaW1hZScsICc8aW5maWxlLm1hZT4nLCAnLW9tYWUnLCAnPG91dGZpbGUubWFlPic=

> <r_lp_tautomer_probability>
1

> <r_epik_Ionization_Penalty>
0.00280384

> <r_epik_Ionization_Penalty_Charging>
0

> <r_epik_Ionization_Penalty_Neutral>
0.00280384

> <r_epik_State_Penalty>
0.00195959

> <r_epik_Charging_Adjusted_Penalty>
0.00195959

> <i_epik_Tot_Q>
0

> <i_epik_Tot_abs_Q>
0

> <r_epik_Metal_State_Penalty>
-0

> <b_epik_Metal_Only>
0

> <s_lp_Force_Field>
OPLS_2005

> <r_lp_Energy>
9.17358

> <b_lp_Chiralities_Consistent>
1

> <s_lp_Variant>
AV-unprocessed.smi:2187-1

> <Gold.Version>
5.8.1

> <Gold.Id.Protein>
6NUR|6NUR_protein|mol2

> <Gold.PLP.Fitness>
39.6484

> <Gold.PLP.PLP>
-34.1894

> <Gold.PLP.part.hbond>
-1.9469

> <Gold.PLP.part.metal>
0.0000

> <Gold.PLP.part.buried>
-5.1057

> <Gold.PLP.part.nonpolar>
-27.5841

> <Gold.PLP.part.repulsive>
0.3590

> <Gold.PLP.ligand.clash>
0.0000

> <Gold.PLP.ligand.torsion>
0.2967

> <Gold.PLP.Chemscore.Hbond>
2.0000

> <Gold.PLP.Chemscore.CHOScore>
0.0000

> <Gold.PLP.Chemscore.Metal>
0.0000

> <Gold.Chemscore.Hbonds>
donor molecule, donor type, donor heavy atom, donor atom, acceptor molecule, acceptor atom, score
      P1  H  6896  6907       L1    11  0.75
      P1  H  6934  6947       L1    20  0.94

> <Gold.PLP.Chemscore.Internal.Correction>
0.0524

> <Gold.Rescore>
     Score         DG    S(hbond)    S(metal)    S(lipo)     H(rot)  DE(clash)    DE(int)     intcor
     15.98     -16.39       1.96        0.00      69.07       1.46       0.02       0.39       ----

> <Gold.Chemscore.Fitness>
15.9835

> <Gold.Chemscore.DG>
-16.3886

> <Gold.Chemscore.ZeroCoef>
-5.4800

> <Gold.Chemscore.Hbond>
1.9640

> <Gold.Chemscore.Metal>
0.0000

> <Gold.Chemscore.Lipo>
69.0685

> <Gold.Chemscore.Internal_Hbond>
0.0000

> <Gold.Chemscore.DEClash>
0.0178

> <Gold.Chemscore.DEInternal>
0.3873

> <Gold.Chemscore.Rot>
1.4578

> <Gold.Chemscore.Internal.Correction>
   9.000000E+99

> <Gold.Chemscore.Hbonds>
donor molecule, donor type, donor heavy atom, donor atom, acceptor molecule, acceptor atom, score
      P1  H  6896  6907       L1    11  0.72
      P1  H  6934  6947       L1    20  0.27

> <Gold.Chemscore.Hbond.Weighted>
-6.5597

> <Gold.Chemscore.Metal.Weighted>
-0.0000

> <Gold.Chemscore.Lipo.Weighted>
-8.0810

> <Gold.Chemscore.Internal_Hbond.Weighted>
0.0000

> <Gold.Chemscore.DEClash.Weighted>
0.0178

> <Gold.Chemscore.DEInternal.Weighted>
0.3873

> <Gold.Chemscore.Rot.Weighted>
3.7321

> <Gold.Chemscore.Internal.Correction.Weighted>
   9.000000E+99

> <Gold.Protein.RotatedTorsions>
[ 6907 6896 6895 6894 ] final  -13.78 input  -60.11 | X-H torsion
[ 7974 7965 7964 7962 ] final   35.79 input  175.53 | X-H torsion
[ 8008 7997 7996 7995 ] final    7.25 input   59.86 | X-H torsion
[ 10167 10162 10161 10158 ] final -177.92 input  -65.29 | X-H torsion
[ 10718 10713 10712 10709 ] final  -35.47 input   66.30 | X-H torsion
[ 10763 10752 10751 10750 ] final -135.48 input  -60.55 | X-H torsion
[ 11005 11000 10999 10996 ] final  129.11 input  -57.11 | X-H torsion

> <Gold.Protein.ActiveResidues>
 VAL166  LYS551  ARG553  GLY616  TRP617  ASP618  TYR619  PRO620  LYS621  CYS622 
 ASP623  PHE694  ASN695  SER759  ASP760  ASP761  ALA762  ILE779  LEU786  VAL792 
 PHE793  MET794  SER795  GLU796  ALA797  LYS798  CYS799  TRP800  GLU811  SER814 

> <Gold.Protein.RotatedAtoms>
  151.3495  135.0881  159.9397 H   0  0  0  0  0  0  0  0  0  0  0  0  # atno 6907 bound_to 6896
  152.5191  133.9366  159.7617 H   0  0  0  0  0  0  0  0  0  0  0  0  # atno 6908 bound_to 6896
  150.9739  133.6261  159.2763 H   0  0  0  0  0  0  0  0  0  0  0  0  # atno 6909 bound_to 6896
  146.1258  139.6099  142.9259 H   0  0  0  0  0  0  0  0  0  0  0  0  # atno 7974 bound_to 7965
  154.7514  140.2767  155.6289 H   0  0  0  0  0  0  0  0  0  0  0  0  # atno 8008 bound_to 7997
  156.2896  140.2677  156.2195 H   0  0  0  0  0  0  0  0  0  0  0  0  # atno 8009 bound_to 7997
  155.0132  140.0372  157.2397 H   0  0  0  0  0  0  0  0  0  0  0  0  # atno 8010 bound_to 7997
  139.5457  144.2243  152.0982 H   0  0  0  0  0  0  0  0  0  0  0  0  # atno 10167 bound_to 10162
  156.3383  130.4289  149.7810 H   0  0  0  0  0  0  0  0  0  0  0  0  # atno 10718 bound_to 10713
  154.8702  135.3702  154.4904 H   0  0  0  0  0  0  0  0  0  0  0  0  # atno 10763 bound_to 10752
  153.5552  135.7024  153.5578 H   0  0  0  0  0  0  0  0  0  0  0  0  # atno 10764 bound_to 10752
  153.3679  135.4029  155.1730 H   0  0  0  0  0  0  0  0  0  0  0  0  # atno 10765 bound_to 10752
  139.9597  134.9605  156.9100 H   0  0  0  0  0  0  0  0  0  0  0  0  # atno 11005 bound_to 11000
  145.5368  141.0423  143.2352 LP  0  0  0  0  0  0  0  0  0  0  0  0  # atno 17320 bound_to 7965
  144.7641  139.6887  143.7222 LP  0  0  0  0  0  0  0  0  0  0  0  0  # atno 17321 bound_to 7965
  140.1729  144.4918  150.6569 LP  0  0  0  0  0  0  0  0  0  0  0  0  # atno 17342 bound_to 10162
  140.6704  143.2283  151.5640 LP  0  0  0  0  0  0  0  0  0  0  0  0  # atno 17343 bound_to 10162
  156.5056  130.8149  151.3149 LP  0  0  0  0  0  0  0  0  0  0  0  0  # atno 17370 bound_to 10713
  157.7442  130.9930  150.2657 LP  0  0  0  0  0  0  0  0  0  0  0  0  # atno 17371 bound_to 10713
  140.5528  134.0611  155.7374 LP  0  0  0  0  0  0  0  0  0  0  0  0  # atno 17394 bound_to 11000
  141.1273  133.9361  157.2609 LP  0  0  0  0  0  0  0  0  0  0  0  0  # atno 17395 bound_to 11000

$$$$
