AV-unprocessed.smi:1554|AV-procd|sdf|6248|dock1
  -GOLD-   22720 6433D 1   1.00000     0.00000
 Structure written by MMmdl.
 48 50  0  0  0  0  0  0  0  0  2 V2000
  153.0994  142.7851  161.6837 C   0  0  0  0  0  0  0  0  0  0  0  0
  152.4845  142.5047  160.3239 C   0  0  0  0  0  0  0  0  0  0  0  0
  152.8967  141.3592  159.6065 C   0  0  0  0  0  0  0  0  0  0  0  0
  152.3482  141.0610  158.3402 C   0  0  0  0  0  0  0  0  0  0  0  0
  152.6020  140.0106  157.4753 N   0  0  0  0  0  0  0  0  0  0  0  0
  151.7853  140.2919  156.4643 C   0  0  0  0  0  0  0  0  0  0  0  0
  151.0362  141.4069  156.5681 N   0  0  0  0  0  0  0  0  0  0  0  0
  150.0900  141.9209  155.5907 C   0  0  0  0  0  0  0  0  0  0  0  0
  149.3543  140.8148  154.8017 C   0  0  2  0  0  0  0  0  0  0  0  0
  149.7503  140.8845  153.4449 O   0  0  0  0  0  0  0  0  0  0  0  0
  147.8158  140.9330  154.8809 C   0  0  0  0  0  0  0  0  0  0  0  0
  147.3619  142.2381  155.4309 N   0  3  1  0  0  0  0  0  0  0  0  0
  146.2247  142.8554  154.7011 C   0  0  0  0  0  0  0  0  0  0  0  0
  144.8835  142.1936  155.0759 C   0  0  0  0  0  0  0  0  0  0  0  0
  144.7049  142.2237  156.4869 O   0  0  0  0  0  0  0  0  0  0  0  0
  145.7295  141.5208  157.1814 C   0  0  2  0  0  0  0  0  0  0  0  0
  145.3904  141.5345  158.6757 C   0  0  0  0  0  0  0  0  0  0  0  0
  147.0827  142.2007  156.8876 C   0  0  0  0  0  0  0  0  0  0  0  0
  151.3692  141.9484  157.8056 C   0  0  0  0  0  0  0  0  0  0  0  0
  150.9489  143.0900  158.5113 C   0  0  0  0  0  0  0  0  0  0  0  0
  151.5079  143.3735  159.7747 C   0  0  0  0  0  0  0  0  0  0  0  0
  151.0488  144.6099  160.5274 C   0  0  0  0  0  0  0  0  0  0  0  0
  153.8035  142.0037  161.9708 H   0  0  0  0  0  0  0  0  0  0  0  0
  152.3257  142.8345  162.4501 H   0  0  0  0  0  0  0  0  0  0  0  0
  153.6376  143.7332  161.6720 H   0  0  0  0  0  0  0  0  0  0  0  0
  153.6400  140.6966  160.0250 H   0  0  0  0  0  0  0  0  0  0  0  0
  151.7337  139.6554  155.5929 H   0  0  0  0  0  0  0  0  0  0  0  0
  149.3726  142.5610  156.1061 H   0  0  0  0  0  0  0  0  0  0  0  0
  150.6319  142.5681  154.9003 H   0  0  0  0  0  0  0  0  0  0  0  0
  149.6855  139.8537  155.1935 H   0  0  0  0  0  0  0  0  0  0  0  0
  149.3385  140.1811  152.9674 H   0  0  0  0  0  0  0  0  0  0  0  0
  147.3786  140.7807  153.8947 H   0  0  0  0  0  0  0  0  0  0  0  0
  147.4345  140.1236  155.5053 H   0  0  0  0  0  0  0  0  0  0  0  0
  146.1868  143.9122  154.9681 H   0  0  0  0  0  0  0  0  0  0  0  0
  146.3797  142.8198  153.6235 H   0  0  0  0  0  0  0  0  0  0  0  0
  144.0599  142.7335  154.6085 H   0  0  0  0  0  0  0  0  0  0  0  0
  144.8274  141.1667  154.7132 H   0  0  0  0  0  0  0  0  0  0  0  0
  145.7482  140.4832  156.8434 H   0  0  0  0  0  0  0  0  0  0  0  0
  146.1450  141.0006  159.2539 H   0  0  0  0  0  0  0  0  0  0  0  0
  144.4293  141.0544  158.8619 H   0  0  0  0  0  0  0  0  0  0  0  0
  145.3338  142.5536  159.0596 H   0  0  0  0  0  0  0  0  0  0  0  0
  147.8939  141.7022  157.4198 H   0  0  0  0  0  0  0  0  0  0  0  0
  147.0626  143.2269  157.2574 H   0  0  0  0  0  0  0  0  0  0  0  0
  150.2018  143.7424  158.0849 H   0  0  0  0  0  0  0  0  0  0  0  0
  150.3254  145.1838  159.9474 H   0  0  0  0  0  0  0  0  0  0  0  0
  151.8948  145.2621  160.7450 H   0  0  0  0  0  0  0  0  0  0  0  0
  150.5758  144.3293  161.4687 H   0  0  0  0  0  0  0  0  0  0  0  0
  148.1512  142.8582  155.3201 H   0  0  0  0  0  0  0  0  0  0  0  0
  1  2  1  0  0  0  0
  1 23  1  0  0  0  0
  1 24  1  0  0  0  0
  1 25  1  0  0  0  0
  2 21  1  0  0  0  0
  2  3  2  0  0  0  0
  3  4  1  0  0  0  0
  3 26  1  0  0  0  0
  4 19  2  0  0  0  0
  4  5  1  0  0  0  0
  5  6  2  0  0  0  0
  6  7  1  0  0  0  0
  6 27  1  0  0  0  0
  7  8  1  0  0  0  0
  7 19  1  0  0  0  0
  8  9  1  0  0  0  0
  8 28  1  0  0  0  0
  8 29  1  0  0  0  0
  9 10  1  0  0  0  0
  9 11  1  0  0  0  0
  9 30  1  0  0  0  0
 10 31  1  0  0  0  0
 11 12  1  0  0  0  0
 11 32  1  0  0  0  0
 11 33  1  0  0  0  0
 12 18  1  0  0  0  0
 12 13  1  0  0  0  0
 12 48  1  0  0  0  0
 13 14  1  0  0  0  0
 13 34  1  0  0  0  0
 13 35  1  0  0  0  0
 14 15  1  0  0  0  0
 14 36  1  0  0  0  0
 14 37  1  0  0  0  0
 15 16  1  0  0  0  0
 16 17  1  0  0  0  0
 16 18  1  0  0  0  0
 16 38  1  0  0  0  0
 17 39  1  0  0  0  0
 17 40  1  0  0  0  0
 17 41  1  0  0  0  0
 18 42  1  0  0  0  0
 18 43  1  0  0  0  0
 19 20  1  0  0  0  0
 20 21  2  0  0  0  0
 20 44  1  0  0  0  0
 21 22  1  0  0  0  0
 22 45  1  0  0  0  0
 22 46  1  0  0  0  0
 22 47  1  0  0  0  0
M  CHG  1  12   1
M  END
> <s_m_source_file>
AV-unprocessed.smi

> <i_m_source_file_index>
1554

> <i_lp_mmshare_version>
43012

> <i_f3d_flags>
0

> <s_epik_input>
W0NIM11jKFtjSF0xKWMoW0NIM10pW2NIXWMoYzEyKW4oW2NIXW4yKVtDSDJdW0NASF0oW09IXSlbQ0gyXU4zW0NIMl1bQ0gyXU9bQ0BASF0oW0NIM10pW0NIMl0z

> <s_epik_cmdline>
J2VwaWtfcHl0aG9uJywgJy1waCcsICc3LjAnLCAnLXRuJywgJzgnLCAnLW1hJywgJzIwMCcsICctbWV0YWxfYmluZGluZycsICctaW1hZScsICc8aW5maWxlLm1hZT4nLCAnLW9tYWUnLCAnPG91dGZpbGUubWFlPic=

> <r_epik_Ionization_Penalty>
0.695251

> <r_epik_Ionization_Penalty_Charging>
0.608065

> <r_epik_Ionization_Penalty_Neutral>
0.0871863

> <r_epik_State_Penalty>
0.731955

> <r_epik_Charging_Adjusted_Penalty>
1.34002

> <i_epik_Tot_Q>
1

> <i_epik_Tot_abs_Q>
1

> <r_epik_Metal_State_Penalty>
0.652186

> <b_epik_Metal_Only>
0

> <s_lp_Force_Field>
OPLS_2005

> <r_lp_Energy>
22.8588

> <b_lp_Chiralities_Consistent>
1

> <s_lp_Variant>
AV-unprocessed.smi:1554-9

> <Gold.Version>
5.8.1

> <Gold.Id.Protein>
6NUR|6NUR_protein|mol2

> <Gold.PLP.Fitness>
52.4684

> <Gold.PLP.PLP>
-43.8852

> <Gold.PLP.part.hbond>
-4.3889

> <Gold.PLP.part.metal>
0.0000

> <Gold.PLP.part.buried>
-3.7590

> <Gold.PLP.part.nonpolar>
-34.2380

> <Gold.PLP.part.repulsive>
0.1291

> <Gold.PLP.ligand.clash>
0.0000

> <Gold.PLP.ligand.torsion>
2.3190

> <Gold.PLP.Chemscore.Hbond>
4.3200

> <Gold.PLP.Chemscore.CHOScore>
0.0000

> <Gold.PLP.Chemscore.Metal>
0.0000

> <Gold.Chemscore.Hbonds>
donor molecule, donor type, donor heavy atom, donor atom, acceptor molecule, acceptor atom, score
      L1  H    10    31       P1  7957  0.38
      L1  H    12    48       P1  8028  1.79
      P1  H  7989  7998       L1    10  0.29
      P1  H  7997  8009       L1     5  1.00
      P1  H  8011  8017       L1    10  1.00

> <Gold.PLP.Chemscore.Internal.Correction>
0.2612

> <Gold.Rescore>
     Score         DG    S(hbond)    S(metal)    S(lipo)     H(rot)  DE(clash)    DE(int)     intcor
     19.43     -22.63       2.82        0.00     111.05       2.05       0.93       2.27       ----

> <Gold.Chemscore.Fitness>
19.4336

> <Gold.Chemscore.DG>
-22.6348

> <Gold.Chemscore.ZeroCoef>
-5.4800

> <Gold.Chemscore.Hbond>
2.8207

> <Gold.Chemscore.Metal>
0.0000

> <Gold.Chemscore.Lipo>
111.0547

> <Gold.Chemscore.Internal_Hbond>
0.0000

> <Gold.Chemscore.DEClash>
0.9306

> <Gold.Chemscore.DEInternal>
2.2707

> <Gold.Chemscore.Rot>
2.0546

> <Gold.Chemscore.Internal.Correction>
   9.000000E+99

> <Gold.Chemscore.Hbonds>
donor molecule, donor type, donor heavy atom, donor atom, acceptor molecule, acceptor atom, score
      L1  H    10    31       P1  7957  0.38
      L1  H    12    48       P1  8028  0.81
      P1  H  7989  7998       L1    10  0.14
      P1  H  7997  8009       L1     5  0.33
      P1  H  8011  8017       L1    10  0.64

> <Gold.Chemscore.Hbond.Weighted>
-9.4211

> <Gold.Chemscore.Metal.Weighted>
-0.0000

> <Gold.Chemscore.Lipo.Weighted>
-12.9934

> <Gold.Chemscore.Internal_Hbond.Weighted>
0.0000

> <Gold.Chemscore.DEClash.Weighted>
0.9306

> <Gold.Chemscore.DEInternal.Weighted>
2.2707

> <Gold.Chemscore.Rot.Weighted>
5.2597

> <Gold.Chemscore.Internal.Correction.Weighted>
   9.000000E+99

> <Gold.Protein.RotatedTorsions>
[ 6907 6896 6895 6894 ] final  -23.51 input  -60.11 | X-H torsion
[ 7974 7965 7964 7962 ] final  -69.03 input  175.53 | X-H torsion
[ 8008 7997 7996 7995 ] final  179.99 input   59.86 | X-H torsion
[ 10167 10162 10161 10158 ] final   -0.96 input  -65.29 | X-H torsion
[ 10718 10713 10712 10709 ] final  -74.44 input   66.30 | X-H torsion
[ 10763 10752 10751 10750 ] final  112.25 input  -60.55 | X-H torsion
[ 11005 11000 10999 10996 ] final -150.41 input  -57.11 | X-H torsion

> <Gold.Protein.ActiveResidues>
 VAL166  LYS551  ARG553  GLY616  TRP617  ASP618  TYR619  PRO620  LYS621  CYS622 
 ASP623  PHE694  ASN695  SER759  ASP760  ASP761  ALA762  ILE779  LEU786  VAL792 
 PHE793  MET794  SER795  GLU796  ALA797  LYS798  CYS799  TRP800  GLU811  SER814 

> <Gold.Protein.RotatedAtoms>
  151.2029  135.0450  159.8879 H   0  0  0  0  0  0  0  0  0  0  0  0  # atno 6907 bound_to 6896
  152.5431  134.0830  159.8254 H   0  0  0  0  0  0  0  0  0  0  0  0  # atno 6908 bound_to 6896
  151.0973  133.5223  159.2643 H   0  0  0  0  0  0  0  0  0  0  0  0  # atno 6909 bound_to 6896
  145.7090  140.9086  143.0691 H   0  0  0  0  0  0  0  0  0  0  0  0  # atno 7974 bound_to 7965
  156.0371  140.1295  157.0196 H   0  0  0  0  0  0  0  0  0  0  0  0  # atno 8008 bound_to 7997
  154.4374  140.1038  156.6253 H   0  0  0  0  0  0  0  0  0  0  0  0  # atno 8009 bound_to 7997
  155.5722  140.3466  155.4520 H   0  0  0  0  0  0  0  0  0  0  0  0  # atno 8010 bound_to 7997
  140.6790  143.6832  150.8088 H   0  0  0  0  0  0  0  0  0  0  0  0  # atno 10167 bound_to 10162
  156.0243  130.4417  150.2892 H   0  0  0  0  0  0  0  0  0  0  0  0  # atno 10718 bound_to 10713
  153.4751  135.3692  155.2412 H   0  0  0  0  0  0  0  0  0  0  0  0  # atno 10763 bound_to 10752
  154.8756  135.3941  154.3766 H   0  0  0  0  0  0  0  0  0  0  0  0  # atno 10764 bound_to 10752
  153.4361  135.7083  153.6264 H   0  0  0  0  0  0  0  0  0  0  0  0  # atno 10765 bound_to 10752
  140.7405  134.3520  157.5148 H   0  0  0  0  0  0  0  0  0  0  0  0  # atno 11005 bound_to 11000
  144.6947  139.9049  143.7460 LP  0  0  0  0  0  0  0  0  0  0  0  0  # atno 17320 bound_to 7965
  146.0729  139.3718  143.0511 LP  0  0  0  0  0  0  0  0  0  0  0  0  # atno 17321 bound_to 7965
  140.0530  143.5231  152.2665 LP  0  0  0  0  0  0  0  0  0  0  0  0  # atno 17342 bound_to 10162
  139.6100  144.7606  151.2975 LP  0  0  0  0  0  0  0  0  0  0  0  0  # atno 17343 bound_to 10162
  157.0996  131.0192  151.3090 LP  0  0  0  0  0  0  0  0  0  0  0  0  # atno 17370 bound_to 10713
  157.4790  130.7754  149.7396 LP  0  0  0  0  0  0  0  0  0  0  0  0  # atno 17371 bound_to 10713
  139.8807  134.9077  156.2952 LP  0  0  0  0  0  0  0  0  0  0  0  0  # atno 17394 bound_to 11000
  140.9841  133.7249  156.0715 LP  0  0  0  0  0  0  0  0  0  0  0  0  # atno 17395 bound_to 11000

$$$$
