AV-unprocessed.smi:2225|AV-procd|sdf|8999|dock10
  -GOLD-   2272012213D 1   1.00000     0.00000
 Structure written by MMmdl.
 33 34  0  0  0  0  0  0  0  0  1 V2000
  149.1762  139.9552  156.4318 O   0  0  0  0  0  0  0  0  0  0  0  0
  149.4316  141.1386  156.2121 C   0  0  0  0  0  0  0  0  0  0  0  0
  150.9012  141.5948  156.2026 C   0  0  0  0  0  0  0  0  0  0  0  0
  151.4474  141.9763  157.5185 N   0  0  0  0  0  0  0  0  0  0  0  0
  150.9960  143.1911  158.0644 C   0  0  0  0  0  0  0  0  0  0  0  0
  151.4305  143.6363  159.2509 C   0  0  0  0  0  0  0  0  0  0  0  0
  152.3898  142.8345  159.9704 C   0  0  0  0  0  0  0  0  0  0  0  0
  152.8376  141.6580  159.4744 C   0  0  0  0  0  0  0  0  0  0  0  0
  153.8572  140.7999  160.2202 C   0  0  0  0  0  0  0  0  0  0  0  0
  155.0694  140.9439  159.6834 F   0  0  0  0  0  0  0  0  0  0  0  0
  153.9243  141.1572  161.5032 F   0  0  0  0  0  0  0  0  0  0  0  0
  153.5419  139.5047  160.1744 F   0  0  0  0  0  0  0  0  0  0  0  0
  152.3450  141.1723  158.1690 C   0  0  0  0  0  0  0  0  0  0  0  0
  152.7100  140.1004  157.6838 O   0  0  0  0  0  0  0  0  0  0  0  0
  148.4768  142.0543  155.9772 N   0  0  0  0  0  0  0  0  0  0  0  0
  147.0422  141.7876  155.9585 C   0  0  2  0  0  0  0  0  0  0  0  0
  146.3901  142.2357  154.6505 C   0  0  0  0  0  0  0  0  0  0  0  0
  145.1823  143.0469  155.1060 C   0  0  0  0  0  0  0  0  0  0  0  0
  145.6258  143.6261  156.3201 O   0  0  0  0  0  0  0  0  0  0  0  0
  146.3216  142.6144  157.0332 C   0  0  0  0  0  0  0  0  0  0  0  0
  151.5055  140.8025  155.7569 H   0  0  0  0  0  0  0  0  0  0  0  0
  150.9860  142.4312  155.5073 H   0  0  0  0  0  0  0  0  0  0  0  0
  150.2755  143.7280  157.4641 H   0  0  0  0  0  0  0  0  0  0  0  0
  151.0712  144.5700  159.6583 H   0  0  0  0  0  0  0  0  0  0  0  0
  152.7484  143.1962  160.9225 H   0  0  0  0  0  0  0  0  0  0  0  0
  148.7643  143.0061  155.8006 H   0  0  0  0  0  0  0  0  0  0  0  0
  146.8616  140.7266  156.1404 H   0  0  0  0  0  0  0  0  0  0  0  0
  147.0615  142.8800  154.0804 H   0  0  0  0  0  0  0  0  0  0  0  0
  146.1112  141.3984  154.0100 H   0  0  0  0  0  0  0  0  0  0  0  0
  144.8846  143.8042  154.3807 H   0  0  0  0  0  0  0  0  0  0  0  0
  144.3269  142.3980  155.3002 H   0  0  0  0  0  0  0  0  0  0  0  0
  145.5959  141.9955  157.5628 H   0  0  0  0  0  0  0  0  0  0  0  0
  146.9934  143.0470  157.7758 H   0  0  0  0  0  0  0  0  0  0  0  0
  1  2  2  0  0  0  0
  2  3  1  0  0  0  0
  2 15  1  0  0  0  0
  3  4  1  0  0  0  0
  3 21  1  0  0  0  0
  3 22  1  0  0  0  0
  4 13  1  0  0  0  0
  4  5  1  0  0  0  0
  5  6  2  0  0  0  0
  5 23  1  0  0  0  0
  6  7  1  0  0  0  0
  6 24  1  0  0  0  0
  7  8  2  0  0  0  0
  7 25  1  0  0  0  0
  8  9  1  0  0  0  0
  8 13  1  0  0  0  0
  9 10  1  0  0  0  0
  9 11  1  0  0  0  0
  9 12  1  0  0  0  0
 13 14  2  0  0  0  0
 15 16  1  0  0  0  0
 15 26  1  0  0  0  0
 16 20  1  0  0  0  0
 16 17  1  0  0  0  0
 16 27  1  0  0  0  0
 17 18  1  0  0  0  0
 17 28  1  0  0  0  0
 17 29  1  0  0  0  0
 18 19  1  0  0  0  0
 18 30  1  0  0  0  0
 18 31  1  0  0  0  0
 19 20  1  0  0  0  0
 20 32  1  0  0  0  0
 20 33  1  0  0  0  0
M  END
> <s_m_source_file>
AV-unprocessed.smi

> <i_m_source_file_index>
2225

> <i_lp_mmshare_version>
43012

> <i_f3d_flags>
0

> <s_epik_input>
W0NIMl0xT1tDSDJdW0NIMl1bQ0BIXTFbTkhdQyg9TylbQ0gyXW4yW2NIXVtjSF1bY0hdYyhDKEYpKEYpRiljMj1P

> <s_epik_cmdline>
J2VwaWtfcHl0aG9uJywgJy1waCcsICc3LjAnLCAnLXRuJywgJzgnLCAnLW1hJywgJzIwMCcsICctbWV0YWxfYmluZGluZycsICctaW1hZScsICc8aW5maWxlLm1hZT4nLCAnLW9tYWUnLCAnPG91dGZpbGUubWFlPic=

> <r_lp_tautomer_probability>
1

> <r_epik_Ionization_Penalty>
3.32109e-08

> <r_epik_Ionization_Penalty_Charging>
1.91399e-09

> <r_epik_Ionization_Penalty_Neutral>
3.1297e-08

> <r_epik_State_Penalty>
-0

> <r_epik_Charging_Adjusted_Penalty>
1.91399e-09

> <i_epik_Tot_Q>
0

> <i_epik_Tot_abs_Q>
0

> <r_epik_Metal_State_Penalty>
-0

> <b_epik_Metal_Only>
0

> <s_lp_Force_Field>
OPLS_2005

> <r_lp_Energy>
26.4099

> <b_lp_Chiralities_Consistent>
1

> <s_lp_Variant>
AV-unprocessed.smi:2225-1

> <Gold.Version>
5.8.1

> <Gold.Id.Protein>
6NUR|6NUR_protein|mol2

> <Gold.PLP.Fitness>
45.2641

> <Gold.PLP.PLP>
-38.6750

> <Gold.PLP.part.hbond>
-2.0000

> <Gold.PLP.part.metal>
0.0000

> <Gold.PLP.part.buried>
-4.1175

> <Gold.PLP.part.nonpolar>
-31.7512

> <Gold.PLP.part.repulsive>
0.2264

> <Gold.PLP.ligand.clash>
0.2982

> <Gold.PLP.ligand.torsion>
1.2212

> <Gold.PLP.Chemscore.Hbond>
2.0000

> <Gold.PLP.Chemscore.CHOScore>
1.0000

> <Gold.PLP.Chemscore.Metal>
0.0000

> <Gold.Chemscore.Hbonds>
donor molecule, donor type, donor heavy atom, donor atom, acceptor molecule, acceptor atom, score
      L1  H    15    26       P1  8028  1.00
      P1  H  7997  8008       L1    14  1.00
      L1  C     5    23       P1  8028  1.00

> <Gold.PLP.Chemscore.Internal.Correction>
0.3297

> <Gold.Rescore>
     Score         DG    S(hbond)    S(metal)    S(lipo)     H(rot)  DE(clash)    DE(int)     intcor
     14.04     -16.28       1.89        0.00      74.35       1.64       0.02       2.23       ----

> <Gold.Chemscore.Fitness>
14.0385

> <Gold.Chemscore.DG>
-16.2845

> <Gold.Chemscore.ZeroCoef>
-5.4800

> <Gold.Chemscore.Hbond>
1.8866

> <Gold.Chemscore.Metal>
0.0000

> <Gold.Chemscore.Lipo>
74.3498

> <Gold.Chemscore.Internal_Hbond>
0.0000

> <Gold.Chemscore.DEClash>
0.0185

> <Gold.Chemscore.DEInternal>
2.2275

> <Gold.Chemscore.Rot>
1.6389

> <Gold.Chemscore.Internal.Correction>
   9.000000E+99

> <Gold.Chemscore.Hbonds>
donor molecule, donor type, donor heavy atom, donor atom, acceptor molecule, acceptor atom, score
      L1  H    15    26       P1  8028  1.00
      P1  H  7997  8008       L1    14  0.87

> <Gold.Chemscore.Hbond.Weighted>
-6.3011

> <Gold.Chemscore.Metal.Weighted>
-0.0000

> <Gold.Chemscore.Lipo.Weighted>
-8.6989

> <Gold.Chemscore.Internal_Hbond.Weighted>
0.0000

> <Gold.Chemscore.DEClash.Weighted>
0.0185

> <Gold.Chemscore.DEInternal.Weighted>
2.2275

> <Gold.Chemscore.Rot.Weighted>
4.1956

> <Gold.Chemscore.Internal.Correction.Weighted>
   9.000000E+99

> <Gold.Protein.RotatedTorsions>
[ 6907 6896 6895 6894 ] final -136.90 input  -60.11 | X-H torsion
[ 7974 7965 7964 7962 ] final  -19.12 input  175.53 | X-H torsion
[ 8008 7997 7996 7995 ] final  -79.29 input   59.86 | X-H torsion
[ 10167 10162 10161 10158 ] final  -13.47 input  -65.29 | X-H torsion
[ 10718 10713 10712 10709 ] final   43.05 input   66.30 | X-H torsion
[ 10763 10752 10751 10750 ] final   -0.56 input  -60.55 | X-H torsion
[ 11005 11000 10999 10996 ] final  -54.16 input  -57.11 | X-H torsion

> <Gold.Protein.ActiveResidues>
 VAL166  LYS551  ARG553  GLY616  TRP617  ASP618  TYR619  PRO620  LYS621  CYS622 
 ASP623  PHE694  ASN695  SER759  ASP760  ASP761  ALA762  ILE779  LEU786  VAL792 
 PHE793  MET794  SER795  GLU796  ALA797  LYS798  CYS799  TRP800  GLU811  SER814 

> <Gold.Protein.RotatedAtoms>
  151.0158  133.5922  159.2676 H   0  0  0  0  0  0  0  0  0  0  0  0  # atno 6907 bound_to 6896
  151.3057  135.0780  159.9264 H   0  0  0  0  0  0  0  0  0  0  0  0  # atno 6908 bound_to 6896
  152.5311  133.9832  159.7870 H   0  0  0  0  0  0  0  0  0  0  0  0  # atno 6909 bound_to 6896
  146.1858  140.4017  142.8477 H   0  0  0  0  0  0  0  0  0  0  0  0  # atno 7974 bound_to 7965
  154.5771  140.0680  156.9050 H   0  0  0  0  0  0  0  0  0  0  0  0  # atno 8008 bound_to 7997
  155.2529  140.3353  155.4262 H   0  0  0  0  0  0  0  0  0  0  0  0  # atno 8009 bound_to 7997
  156.2162  140.1779  156.7569 H   0  0  0  0  0  0  0  0  0  0  0  0  # atno 8010 bound_to 7997
  140.7183  143.5423  150.9395 H   0  0  0  0  0  0  0  0  0  0  0  0  # atno 10167 bound_to 10162
  157.4116  130.7917  149.7435 H   0  0  0  0  0  0  0  0  0  0  0  0  # atno 10718 bound_to 10713
  153.3335  135.6976  153.6928 H   0  0  0  0  0  0  0  0  0  0  0  0  # atno 10763 bound_to 10752
  153.5721  135.3514  155.2842 H   0  0  0  0  0  0  0  0  0  0  0  0  # atno 10764 bound_to 10752
  154.8623  135.4274  154.2529 H   0  0  0  0  0  0  0  0  0  0  0  0  # atno 10765 bound_to 10752
  141.1012  133.6618  156.4279 H   0  0  0  0  0  0  0  0  0  0  0  0  # atno 11005 bound_to 11000
  144.8394  140.6833  143.6239 LP  0  0  0  0  0  0  0  0  0  0  0  0  # atno 17320 bound_to 7965
  145.3944  139.1610  143.4211 LP  0  0  0  0  0  0  0  0  0  0  0  0  # atno 17321 bound_to 7965
  139.9146  143.6679  152.3109 LP  0  0  0  0  0  0  0  0  0  0  0  0  # atno 17342 bound_to 10162
  139.7074  144.7626  151.1169 LP  0  0  0  0  0  0  0  0  0  0  0  0  # atno 17343 bound_to 10162
  155.9852  130.3985  150.3272 LP  0  0  0  0  0  0  0  0  0  0  0  0  # atno 17370 bound_to 10713
  157.1411  131.0296  151.2927 LP  0  0  0  0  0  0  0  0  0  0  0  0  # atno 17371 bound_to 10713
  140.5017  134.6479  157.5251 LP  0  0  0  0  0  0  0  0  0  0  0  0  # atno 17394 bound_to 11000
  139.9864  134.7054  155.9766 LP  0  0  0  0  0  0  0  0  0  0  0  0  # atno 17395 bound_to 11000

$$$$
