AV-unprocessed.smi:1244|AV-procd|sdf|5225|dock3
  -GOLD-   22720 4323D 1   1.00000     0.00000
 Structure written by MMmdl.
 55 57  0  0  0  0  0  0  0  0  2 V2000
  146.0528  132.2656  149.8152 C   0  0  0  0  0  0  0  0  0  0  0  0
  146.6037  133.2497  150.8528 C   0  0  1  0  0  0  0  0  0  0  0  0
  145.7048  134.4902  151.0120 C   0  0  0  0  0  0  0  0  0  0  0  0
  146.2319  135.3817  152.0719 N   0  3  1  0  0  0  0  0  0  0  0  0
  145.4300  136.6208  152.2232 C   0  0  0  0  0  0  0  0  0  0  0  0
  143.9285  136.3254  152.3944 C   0  0  0  0  0  0  0  0  0  0  0  0
  143.1657  137.5544  152.5776 N   0  0  0  0  0  0  0  0  0  0  0  0
  141.8520  137.6063  152.8382 C   0  0  0  0  0  0  0  0  0  0  0  0
  141.1474  136.6048  152.9632 O   0  0  0  0  0  0  0  0  0  0  0  0
  141.4291  138.8766  152.9512 N   0  0  0  0  0  0  0  0  0  0  0  0
  140.1292  139.3537  153.2848 C   0  0  0  0  0  0  0  0  0  0  0  0
  138.9549  138.6793  152.8673 C   0  0  0  0  0  0  0  0  0  0  0  0
  137.6975  139.2295  153.1693 C   0  0  0  0  0  0  0  0  0  0  0  0
  137.6554  140.4484  153.8654 C   0  0  0  0  0  0  0  0  0  0  0  0
  138.7619  141.1108  154.2562 N   0  0  0  0  0  0  0  0  0  0  0  0
  139.9824  140.5855  153.9864 C   0  0  0  0  0  0  0  0  0  0  0  0
  141.1050  141.3208  154.4331 N   0  0  0  0  0  0  0  0  0  0  0  0
  140.9707  142.7270  154.7988 C   0  0  0  0  0  0  0  0  0  0  0  0
  142.2445  143.0581  155.5710 C   0  0  0  0  0  0  0  0  0  0  0  0
  142.5187  141.7578  156.3202 C   0  0  0  0  0  0  0  0  0  0  0  0
  142.0337  140.6717  155.3539 C   0  0  0  0  0  0  0  0  0  0  0  0
  146.3981  134.6308  153.3408 C   0  0  0  0  0  0  0  0  0  0  0  0
  147.2735  133.3825  153.1209 C   0  0  1  0  0  0  0  0  0  0  0  0
  147.3967  132.5330  154.3905 C   0  0  0  0  0  0  0  0  0  0  0  0
  146.6888  132.5762  152.1036 O   0  0  0  0  0  0  0  0  0  0  0  0
  145.9777  132.7323  148.8329 H   0  0  0  0  0  0  0  0  0  0  0  0
  145.0602  131.9109  150.0945 H   0  0  0  0  0  0  0  0  0  0  0  0
  146.7026  131.3953  149.7201 H   0  0  0  0  0  0  0  0  0  0  0  0
  147.6038  133.5565  150.5415 H   0  0  0  0  0  0  0  0  0  0  0  0
  145.6581  135.0316  150.0663 H   0  0  0  0  0  0  0  0  0  0  0  0
  144.6855  134.1906  151.2620 H   0  0  0  0  0  0  0  0  0  0  0  0
  145.7689  137.1637  153.1069 H   0  0  0  0  0  0  0  0  0  0  0  0
  145.6082  137.2799  151.3717 H   0  0  0  0  0  0  0  0  0  0  0  0
  143.5292  135.7747  151.5420 H   0  0  0  0  0  0  0  0  0  0  0  0
  143.7715  135.6955  153.2703 H   0  0  0  0  0  0  0  0  0  0  0  0
  143.6714  138.4247  152.4974 H   0  0  0  0  0  0  0  0  0  0  0  0
  142.1436  139.5878  152.8979 H   0  0  0  0  0  0  0  0  0  0  0  0
  138.9937  137.7621  152.3006 H   0  0  0  0  0  0  0  0  0  0  0  0
  136.7879  138.7348  152.8626 H   0  0  0  0  0  0  0  0  0  0  0  0
  136.7093  140.9080  154.1101 H   0  0  0  0  0  0  0  0  0  0  0  0
  140.8551  143.3576  153.9172 H   0  0  0  0  0  0  0  0  0  0  0  0
  140.1058  142.8781  155.4458 H   0  0  0  0  0  0  0  0  0  0  0  0
  143.0591  143.2676  154.8764 H   0  0  0  0  0  0  0  0  0  0  0  0
  142.1300  143.9177  156.2318 H   0  0  0  0  0  0  0  0  0  0  0  0
  143.5660  141.6397  156.6001 H   0  0  0  0  0  0  0  0  0  0  0  0
  141.9222  141.7296  157.2331 H   0  0  0  0  0  0  0  0  0  0  0  0
  141.5703  139.8411  155.8882 H   0  0  0  0  0  0  0  0  0  0  0  0
  142.8770  140.2805  154.7847 H   0  0  0  0  0  0  0  0  0  0  0  0
  146.8565  135.2657  154.0986 H   0  0  0  0  0  0  0  0  0  0  0  0
  145.4179  134.3384  153.7213 H   0  0  0  0  0  0  0  0  0  0  0  0
  148.2744  133.6852  152.8079 H   0  0  0  0  0  0  0  0  0  0  0  0
  147.8481  133.1033  155.2026 H   0  0  0  0  0  0  0  0  0  0  0  0
  148.0200  131.6563  154.2143 H   0  0  0  0  0  0  0  0  0  0  0  0
  146.4204  132.1842  154.7284 H   0  0  0  0  0  0  0  0  0  0  0  0
  147.1527  135.6659  151.7691 H   0  0  0  0  0  0  0  0  0  0  0  0
  1  2  1  0  0  0  0
  1 26  1  0  0  0  0
  1 27  1  0  0  0  0
  1 28  1  0  0  0  0
  2 25  1  0  0  0  0
  2  3  1  0  0  0  0
  2 29  1  0  0  0  0
  3  4  1  0  0  0  0
  3 30  1  0  0  0  0
  3 31  1  0  0  0  0
  4  5  1  0  0  0  0
  4 22  1  0  0  0  0
  4 55  1  0  0  0  0
  5  6  1  0  0  0  0
  5 32  1  0  0  0  0
  5 33  1  0  0  0  0
  6  7  1  0  0  0  0
  6 34  1  0  0  0  0
  6 35  1  0  0  0  0
  7  8  1  0  0  0  0
  7 36  1  0  0  0  0
  8  9  2  0  0  0  0
  8 10  1  0  0  0  0
 10 11  1  0  0  0  0
 10 37  1  0  0  0  0
 11 16  1  0  0  0  0
 11 12  2  0  0  0  0
 12 13  1  0  0  0  0
 12 38  1  0  0  0  0
 13 14  2  0  0  0  0
 13 39  1  0  0  0  0
 14 15  1  0  0  0  0
 14 40  1  0  0  0  0
 15 16  2  0  0  0  0
 16 17  1  0  0  0  0
 17 21  1  0  0  0  0
 17 18  1  0  0  0  0
 18 19  1  0  0  0  0
 18 41  1  0  0  0  0
 18 42  1  0  0  0  0
 19 20  1  0  0  0  0
 19 43  1  0  0  0  0
 19 44  1  0  0  0  0
 20 21  1  0  0  0  0
 20 45  1  0  0  0  0
 20 46  1  0  0  0  0
 21 47  1  0  0  0  0
 21 48  1  0  0  0  0
 22 23  1  0  0  0  0
 22 49  1  0  0  0  0
 22 50  1  0  0  0  0
 23 24  1  0  0  0  0
 23 25  1  0  0  0  0
 23 51  1  0  0  0  0
 24 52  1  0  0  0  0
 24 53  1  0  0  0  0
 24 54  1  0  0  0  0
M  CHG  1   4   1
M  END
> <s_m_source_file>
AV-unprocessed.smi

> <i_m_source_file_index>
1244

> <i_lp_mmshare_version>
43012

> <i_f3d_flags>
0

> <s_epik_input>
W0NIM11bQ0BASF0xW0NIMl1OKFtDSDJdW0NASF0oTzEpW0NIM10pW0NIMl1bQ0gyXVtOSF1DKD1PKVtOSF1jMltjSF1bY0hdW2NIXW5jMk4zW0NIMl1bQ0gyXVtDSDJdW0NIMl0z

> <s_epik_cmdline>
J2VwaWtfcHl0aG9uJywgJy1waCcsICc3LjAnLCAnLXRuJywgJzgnLCAnLW1hJywgJzIwMCcsICctbWV0YWxfYmluZGluZycsICctaW1hZScsICc8aW5maWxlLm1hZT4nLCAnLW9tYWUnLCAnPG91dGZpbGUubWFlPic=

> <r_lp_tautomer_probability>
1

> <r_epik_Ionization_Penalty>
0.684913

> <r_epik_Ionization_Penalty_Charging>
0.602531

> <r_epik_Ionization_Penalty_Neutral>
0.0823829

> <r_epik_State_Penalty>
0.678827

> <r_epik_Charging_Adjusted_Penalty>
1.28136

> <i_epik_Tot_Q>
1

> <i_epik_Tot_abs_Q>
1

> <r_epik_Metal_State_Penalty>
0.67806

> <b_epik_Metal_Only>
0

> <s_lp_Force_Field>
OPLS_2005

> <r_lp_Energy>
42.8464

> <b_lp_Chiralities_Consistent>
1

> <s_lp_Variant>
AV-unprocessed.smi:1244-5

> <Gold.Version>
5.8.1

> <Gold.Id.Protein>
6NUR|6NUR_protein|mol2

> <Gold.PLP.Fitness>
45.2616

> <Gold.PLP.PLP>
-34.0575

> <Gold.PLP.part.hbond>
-4.6689

> <Gold.PLP.part.metal>
0.0000

> <Gold.PLP.part.buried>
-4.1639

> <Gold.PLP.part.nonpolar>
-26.6656

> <Gold.PLP.part.repulsive>
0.7044

> <Gold.PLP.ligand.clash>
0.0000

> <Gold.PLP.ligand.torsion>
0.5385

> <Gold.PLP.Chemscore.Hbond>
3.9600

> <Gold.PLP.Chemscore.CHOScore>
0.0000

> <Gold.PLP.Chemscore.Metal>
0.0000

> <Gold.Chemscore.Hbonds>
donor molecule, donor type, donor heavy atom, donor atom, acceptor molecule, acceptor atom, score
      L1  H     4    55       P1  7948  2.00
      L1  H     7    36       P1 10175  0.98
      L1  H    10    37       P1 10175  1.00

> <Gold.PLP.Chemscore.Internal.Correction>
0.4012

> <Gold.Rescore>
     Score         DG    S(hbond)    S(metal)    S(lipo)     H(rot)  DE(clash)    DE(int)     intcor
     18.03     -19.75       2.83        0.00      76.04       1.60       0.08       1.64       ----

> <Gold.Chemscore.Fitness>
18.0278

> <Gold.Chemscore.DG>
-19.7495

> <Gold.Chemscore.ZeroCoef>
-5.4800

> <Gold.Chemscore.Hbond>
2.8333

> <Gold.Chemscore.Metal>
0.0000

> <Gold.Chemscore.Lipo>
76.0396

> <Gold.Chemscore.Internal_Hbond>
0.0000

> <Gold.Chemscore.DEClash>
0.0793

> <Gold.Chemscore.DEInternal>
1.6424

> <Gold.Chemscore.Rot>
1.5978

> <Gold.Chemscore.Internal.Correction>
   9.000000E+99

> <Gold.Chemscore.Hbonds>
donor molecule, donor type, donor heavy atom, donor atom, acceptor molecule, acceptor atom, score
      L1  H     4    55       P1  7948  1.00
      L1  H     7    36       P1 10175  0.88
      L1  H    10    37       P1 10175  0.74

> <Gold.Chemscore.Hbond.Weighted>
-9.4634

> <Gold.Chemscore.Metal.Weighted>
-0.0000

> <Gold.Chemscore.Lipo.Weighted>
-8.8966

> <Gold.Chemscore.Internal_Hbond.Weighted>
0.0000

> <Gold.Chemscore.DEClash.Weighted>
0.0793

> <Gold.Chemscore.DEInternal.Weighted>
1.6424

> <Gold.Chemscore.Rot.Weighted>
4.0905

> <Gold.Chemscore.Internal.Correction.Weighted>
   9.000000E+99

> <Gold.Protein.RotatedTorsions>
[ 6907 6896 6895 6894 ] final    1.72 input  -60.11 | X-H torsion
[ 7974 7965 7964 7962 ] final  109.58 input  175.53 | X-H torsion
[ 8008 7997 7996 7995 ] final  169.14 input   59.86 | X-H torsion
[ 10167 10162 10161 10158 ] final   80.21 input  -65.29 | X-H torsion
[ 10718 10713 10712 10709 ] final   83.66 input   66.30 | X-H torsion
[ 10763 10752 10751 10750 ] final  -56.43 input  -60.55 | X-H torsion
[ 11005 11000 10999 10996 ] final  101.11 input  -57.11 | X-H torsion

> <Gold.Protein.ActiveResidues>
 VAL166  LYS551  ARG553  GLY616  TRP617  ASP618  TYR619  PRO620  LYS621  CYS622 
 ASP623  PHE694  ASN695  SER759  ASP760  ASP761  ALA762  ILE779  LEU786  VAL792 
 PHE793  MET794  SER795  GLU796  ALA797  LYS798  CYS799  TRP800  GLU811  SER814 

> <Gold.Protein.RotatedAtoms>
  151.5972  135.1049  160.0052 H   0  0  0  0  0  0  0  0  0  0  0  0  # atno 6907 bound_to 6896
  152.4276  133.7218  159.6548 H   0  0  0  0  0  0  0  0  0  0  0  0  # atno 6908 bound_to 6896
  150.8166  133.8255  159.3180 H   0  0  0  0  0  0  0  0  0  0  0  0  # atno 6909 bound_to 6896
  145.2660  139.2684  143.3992 H   0  0  0  0  0  0  0  0  0  0  0  0  # atno 7974 bound_to 7965
  156.1484  140.1572  156.8810 H   0  0  0  0  0  0  0  0  0  0  0  0  # atno 8008 bound_to 7997
  154.5049  140.0815  156.7910 H   0  0  0  0  0  0  0  0  0  0  0  0  # atno 8009 bound_to 7997
  155.3944  140.3411  155.4255 H   0  0  0  0  0  0  0  0  0  0  0  0  # atno 8010 bound_to 7997
  139.9522  144.6018  150.8150 H   0  0  0  0  0  0  0  0  0  0  0  0  # atno 10167 bound_to 10162
  157.6883  131.0100  150.2557 H   0  0  0  0  0  0  0  0  0  0  0  0  # atno 10718 bound_to 10713
  154.2065  135.6402  153.5102 H   0  0  0  0  0  0  0  0  0  0  0  0  # atno 10763 bound_to 10752
  152.9999  135.5464  154.6260 H   0  0  0  0  0  0  0  0  0  0  0  0  # atno 10764 bound_to 10752
  154.5686  135.2915  155.0823 H   0  0  0  0  0  0  0  0  0  0  0  0  # atno 10765 bound_to 10752
  139.8772  134.9169  156.4857 H   0  0  0  0  0  0  0  0  0  0  0  0  # atno 11005 bound_to 11000
  146.3261  140.3090  142.8625 LP  0  0  0  0  0  0  0  0  0  0  0  0  # atno 17320 bound_to 7965
  144.9377  140.8044  143.5650 LP  0  0  0  0  0  0  0  0  0  0  0  0  # atno 17321 bound_to 7965
  140.7579  143.3096  151.2876 LP  0  0  0  0  0  0  0  0  0  0  0  0  # atno 17342 bound_to 10162
  139.6620  144.0173  152.2698 LP  0  0  0  0  0  0  0  0  0  0  0  0  # atno 17343 bound_to 10162
  156.3146  130.3777  149.7631 LP  0  0  0  0  0  0  0  0  0  0  0  0  # atno 17370 bound_to 10713
  156.5220  130.8219  151.3207 LP  0  0  0  0  0  0  0  0  0  0  0  0  # atno 17371 bound_to 10713
  140.8695  133.7999  155.9349 LP  0  0  0  0  0  0  0  0  0  0  0  0  # atno 17394 bound_to 11000
  140.8968  134.2428  157.5064 LP  0  0  0  0  0  0  0  0  0  0  0  0  # atno 17395 bound_to 11000

$$$$
