AV-unprocessed.smi:1269|AV-procd|sdf|5330|dock7
  -GOLD-   22720 4463D 1   1.00000     0.00000
 Structure written by MMmdl.
 44 45  0  0  0  0  0  0  0  0  2 V2000
  151.3030  142.5593  157.9037 C   0  0  0  0  0  0  0  0  0  0  0  0
  151.1357  142.3246  156.5099 O   0  0  0  0  0  0  0  0  0  0  0  0
  150.7688  141.0598  156.0980 C   0  0  0  0  0  0  0  0  0  0  0  0
  150.8906  139.9922  157.0090 C   0  0  0  0  0  0  0  0  0  0  0  0
  150.5220  138.6975  156.5968 C   0  0  0  0  0  0  0  0  0  0  0  0
  150.0348  138.5101  155.2803 C   0  0  0  0  0  0  0  0  0  0  0  0
  149.6399  137.2599  154.7276 N   0  0  0  0  0  0  0  0  0  0  0  0
  149.4469  136.0798  155.3412 C   0  0  0  0  0  0  0  0  0  0  0  0
  149.5498  135.8752  156.5497 O   0  0  0  0  0  0  0  0  0  0  0  0
  149.1260  135.1225  154.4578 N   0  0  0  0  0  0  0  0  0  0  0  0
  148.8321  133.7232  154.7733 C   0  0  1  0  0  0  0  0  0  0  0  0
  147.8571  133.6725  155.9575 C   0  0  0  0  0  0  0  0  0  0  0  0
  148.2615  132.9751  153.5458 C   0  0  0  0  0  0  0  0  0  0  0  0
  147.4010  133.8305  152.6897 N   0  3  0  0  0  0  0  0  0  0  0  0
  146.8661  133.1288  151.4979 C   0  0  0  0  0  0  0  0  0  0  0  0
  146.0629  134.1070  150.6250 C   0  0  0  0  0  0  0  0  0  0  0  0
  145.0145  134.6813  151.3965 O   0  0  0  0  0  0  0  0  0  0  0  0
  145.5109  135.4203  152.5059 C   0  0  0  0  0  0  0  0  0  0  0  0
  146.3046  134.4883  153.4375 C   0  0  0  0  0  0  0  0  0  0  0  0
  149.9564  139.6450  154.4459 C   0  0  0  0  0  0  0  0  0  0  0  0
  150.3096  140.8880  154.8343 N   0  0  0  0  0  0  0  0  0  0  0  0
  151.5910  143.5985  158.0622 H   0  0  0  0  0  0  0  0  0  0  0  0
  152.0899  141.9306  158.3229 H   0  0  0  0  0  0  0  0  0  0  0  0
  150.3756  142.3863  158.4515 H   0  0  0  0  0  0  0  0  0  0  0  0
  151.2642  140.1633  158.0079 H   0  0  0  0  0  0  0  0  0  0  0  0
  150.6329  137.8863  157.2977 H   0  0  0  0  0  0  0  0  0  0  0  0
  149.4669  137.2713  153.7329 H   0  0  0  0  0  0  0  0  0  0  0  0
  149.0608  135.3856  153.4851 H   0  0  0  0  0  0  0  0  0  0  0  0
  149.7488  133.2301  155.0999 H   0  0  0  0  0  0  0  0  0  0  0  0
  147.6421  132.6426  156.2444 H   0  0  0  0  0  0  0  0  0  0  0  0
  146.9092  134.1544  155.7151 H   0  0  0  0  0  0  0  0  0  0  0  0
  148.2725  134.1755  156.8314 H   0  0  0  0  0  0  0  0  0  0  0  0
  149.0654  132.5480  152.9444 H   0  0  0  0  0  0  0  0  0  0  0  0
  147.6745  132.1299  153.9088 H   0  0  0  0  0  0  0  0  0  0  0  0
  147.6783  132.7016  150.9105 H   0  0  0  0  0  0  0  0  0  0  0  0
  146.2296  132.3005  151.8127 H   0  0  0  0  0  0  0  0  0  0  0  0
  146.7079  134.8899  150.2225 H   0  0  0  0  0  0  0  0  0  0  0  0
  145.6289  133.5824  149.7737 H   0  0  0  0  0  0  0  0  0  0  0  0
  146.1347  136.2453  152.1575 H   0  0  0  0  0  0  0  0  0  0  0  0
  144.6701  135.8610  153.0420 H   0  0  0  0  0  0  0  0  0  0  0  0
  145.6452  133.7313  153.8647 H   0  0  0  0  0  0  0  0  0  0  0  0
  146.7144  135.0652  154.2674 H   0  0  0  0  0  0  0  0  0  0  0  0
  149.5985  139.5546  153.4307 H   0  0  0  0  0  0  0  0  0  0  0  0
  147.9935  134.5743  152.3482 H   0  0  0  0  0  0  0  0  0  0  0  0
  1  2  1  0  0  0  0
  1 22  1  0  0  0  0
  1 23  1  0  0  0  0
  1 24  1  0  0  0  0
  2  3  1  0  0  0  0
  3 21  1  0  0  0  0
  3  4  2  0  0  0  0
  4  5  1  0  0  0  0
  4 25  1  0  0  0  0
  5  6  2  0  0  0  0
  5 26  1  0  0  0  0
  6  7  1  0  0  0  0
  6 20  1  0  0  0  0
  7  8  1  0  0  0  0
  7 27  1  0  0  0  0
  8  9  2  0  0  0  0
  8 10  1  0  0  0  0
 10 11  1  0  0  0  0
 10 28  1  0  0  0  0
 11 12  1  0  0  0  0
 11 13  1  0  0  0  0
 11 29  1  0  0  0  0
 12 30  1  0  0  0  0
 12 31  1  0  0  0  0
 12 32  1  0  0  0  0
 13 14  1  0  0  0  0
 13 33  1  0  0  0  0
 13 34  1  0  0  0  0
 14 19  1  0  0  0  0
 14 15  1  0  0  0  0
 14 44  1  0  0  0  0
 15 16  1  0  0  0  0
 15 35  1  0  0  0  0
 15 36  1  0  0  0  0
 16 17  1  0  0  0  0
 16 37  1  0  0  0  0
 16 38  1  0  0  0  0
 17 18  1  0  0  0  0
 18 19  1  0  0  0  0
 18 39  1  0  0  0  0
 18 40  1  0  0  0  0
 19 41  1  0  0  0  0
 19 42  1  0  0  0  0
 20 21  2  0  0  0  0
 20 43  1  0  0  0  0
M  CHG  1  14   1
M  END
> <s_m_source_file>
AV-unprocessed.smi

> <i_m_source_file_index>
1269

> <i_lp_mmshare_version>
43012

> <i_f3d_flags>
0

> <s_epik_input>
W0NIM11PYzFbY0hdW2NIXWMoW2NIXW4xKVtOSF1DKD1PKVtOSF1bQ0BIXShbQ0gzXSlbQ0gyXU4yW0NIMl1bQ0gyXU9bQ0gyXVtDSDJdMg==

> <s_epik_cmdline>
J2VwaWtfcHl0aG9uJywgJy1waCcsICc3LjAnLCAnLXRuJywgJzgnLCAnLW1hJywgJzIwMCcsICctbWV0YWxfYmluZGluZycsICctaW1hZScsICc8aW5maWxlLm1hZT4nLCAnLW9tYWUnLCAnPG91dGZpbGUubWFlPic=

> <r_lp_tautomer_probability>
1

> <r_epik_Ionization_Penalty>
0.602604

> <r_epik_Ionization_Penalty_Charging>
0.602531

> <r_epik_Ionization_Penalty_Neutral>
7.37831e-05

> <r_epik_State_Penalty>
0.617039

> <r_epik_Charging_Adjusted_Penalty>
1.21957

> <i_epik_Tot_Q>
1

> <i_epik_Tot_abs_Q>
1

> <r_epik_Metal_State_Penalty>
0.617045

> <b_epik_Metal_Only>
0

> <s_lp_Force_Field>
OPLS_2005

> <r_lp_Energy>
25.4329

> <b_lp_Chiralities_Consistent>
1

> <s_lp_Variant>
AV-unprocessed.smi:1269-4

> <Gold.Version>
5.8.1

> <Gold.Id.Protein>
6NUR|6NUR_protein|mol2

> <Gold.PLP.Fitness>
43.5036

> <Gold.PLP.PLP>
-28.4535

> <Gold.PLP.part.hbond>
-4.0000

> <Gold.PLP.part.metal>
0.0000

> <Gold.PLP.part.buried>
-3.4112

> <Gold.PLP.part.nonpolar>
-22.3079

> <Gold.PLP.part.repulsive>
0.3889

> <Gold.PLP.ligand.clash>
0.0126

> <Gold.PLP.ligand.torsion>
0.6432

> <Gold.PLP.Chemscore.Hbond>
4.4232

> <Gold.PLP.Chemscore.CHOScore>
1.0000

> <Gold.PLP.Chemscore.Metal>
0.0000

> <Gold.Chemscore.Hbonds>
donor molecule, donor type, donor heavy atom, donor atom, acceptor molecule, acceptor atom, score
      L1  H     7    27       P1  7948  0.63
      L1  H    10    28       P1  7948  1.00
      L1  H    14    44       P1  7948  2.00
      P1  H  7989  7998       L1    21  0.34
      L1  C    20    43       P1  7957  1.00

> <Gold.PLP.Chemscore.Internal.Correction>
0.0796

> <Gold.Rescore>
     Score         DG    S(hbond)    S(metal)    S(lipo)     H(rot)  DE(clash)    DE(int)     intcor
     11.43     -15.99       2.38        0.00      60.81       1.78       1.46       3.10       ----

> <Gold.Chemscore.Fitness>
11.4276

> <Gold.Chemscore.DG>
-15.9869

> <Gold.Chemscore.ZeroCoef>
-5.4800

> <Gold.Chemscore.Hbond>
2.3801

> <Gold.Chemscore.Metal>
0.0000

> <Gold.Chemscore.Lipo>
60.8071

> <Gold.Chemscore.Internal_Hbond>
0.0000

> <Gold.Chemscore.DEClash>
1.4580

> <Gold.Chemscore.DEInternal>
3.1014

> <Gold.Chemscore.Rot>
1.7801

> <Gold.Chemscore.Internal.Correction>
   9.000000E+99

> <Gold.Chemscore.Hbonds>
donor molecule, donor type, donor heavy atom, donor atom, acceptor molecule, acceptor atom, score
      L1  H     7    27       P1  7948  0.58
      L1  H    10    28       P1  7948  0.55
      L1  H    14    44       P1  7948  0.39
      P1  H  7989  7998       L1    21  0.01

> <Gold.Chemscore.Hbond.Weighted>
-7.9495

> <Gold.Chemscore.Metal.Weighted>
-0.0000

> <Gold.Chemscore.Lipo.Weighted>
-7.1144

> <Gold.Chemscore.Internal_Hbond.Weighted>
0.0000

> <Gold.Chemscore.DEClash.Weighted>
1.4580

> <Gold.Chemscore.DEInternal.Weighted>
3.1014

> <Gold.Chemscore.Rot.Weighted>
4.5570

> <Gold.Chemscore.Internal.Correction.Weighted>
   9.000000E+99

> <Gold.Protein.RotatedTorsions>
[ 6907 6896 6895 6894 ] final  -25.53 input  -60.11 | X-H torsion
[ 7974 7965 7964 7962 ] final   79.20 input  175.53 | X-H torsion
[ 8008 7997 7996 7995 ] final -164.71 input   59.86 | X-H torsion
[ 10167 10162 10161 10158 ] final  -66.70 input  -65.29 | X-H torsion
[ 10718 10713 10712 10709 ] final  102.75 input   66.30 | X-H torsion
[ 10763 10752 10751 10750 ] final -178.50 input  -60.55 | X-H torsion
[ 11005 11000 10999 10996 ] final  105.82 input  -57.11 | X-H torsion

> <Gold.Protein.ActiveResidues>
 VAL166  LYS551  ARG553  GLY616  TRP617  ASP618  TYR619  PRO620  LYS621  CYS622 
 ASP623  PHE694  ASN695  SER759  ASP760  ASP761  ALA762  ILE779  LEU786  VAL792 
 PHE793  MET794  SER795  GLU796  ALA797  LYS798  CYS799  TRP800  GLU811  SER814 

> <Gold.Protein.RotatedAtoms>
  151.1739  135.0330  159.8763 H   0  0  0  0  0  0  0  0  0  0  0  0  # atno 6907 bound_to 6896
  152.5448  134.1139  159.8380 H   0  0  0  0  0  0  0  0  0  0  0  0  # atno 6908 bound_to 6896
  151.1248  133.5031  159.2633 H   0  0  0  0  0  0  0  0  0  0  0  0  # atno 6909 bound_to 6896
  145.6673  139.2487  143.1888 H   0  0  0  0  0  0  0  0  0  0  0  0  # atno 7974 bound_to 7965
  155.8395  140.0946  157.1743 H   0  0  0  0  0  0  0  0  0  0  0  0  # atno 8008 bound_to 7997
  154.3981  140.1404  156.3772 H   0  0  0  0  0  0  0  0  0  0  0  0  # atno 8009 bound_to 7997
  155.8079  140.3450  155.5443 H   0  0  0  0  0  0  0  0  0  0  0  0  # atno 8010 bound_to 7997
  140.5637  143.2314  151.6676 H   0  0  0  0  0  0  0  0  0  0  0  0  # atno 10167 bound_to 10162
  157.6793  131.0761  150.5451 H   0  0  0  0  0  0  0  0  0  0  0  0  # atno 10718 bound_to 10713
  154.5469  135.2810  155.1044 H   0  0  0  0  0  0  0  0  0  0  0  0  # atno 10763 bound_to 10752
  154.2505  135.6340  153.5242 H   0  0  0  0  0  0  0  0  0  0  0  0  # atno 10764 bound_to 10752
  152.9993  135.5581  154.6024 H   0  0  0  0  0  0  0  0  0  0  0  0  # atno 10765 bound_to 10752
  139.8806  134.9348  156.5572 H   0  0  0  0  0  0  0  0  0  0  0  0  # atno 11005 bound_to 11000
  146.1075  140.7469  142.9519 LP  0  0  0  0  0  0  0  0  0  0  0  0  # atno 17320 bound_to 7965
  144.7069  140.3886  143.7111 LP  0  0  0  0  0  0  0  0  0  0  0  0  # atno 17321 bound_to 7965
  139.5083  144.3617  152.0555 LP  0  0  0  0  0  0  0  0  0  0  0  0  # atno 17342 bound_to 10162
  140.2747  144.3926  150.6139 LP  0  0  0  0  0  0  0  0  0  0  0  0  # atno 17343 bound_to 10162
  156.5757  130.4291  149.5999 LP  0  0  0  0  0  0  0  0  0  0  0  0  # atno 17370 bound_to 10713
  156.2703  130.7013  151.1809 LP  0  0  0  0  0  0  0  0  0  0  0  0  # atno 17371 bound_to 10713
  140.8196  133.8364  155.8884 LP  0  0  0  0  0  0  0  0  0  0  0  0  # atno 17394 bound_to 11000
  140.9430  134.1876  157.4783 LP  0  0  0  0  0  0  0  0  0  0  0  0  # atno 17395 bound_to 11000

$$$$
