AV-unprocessed.smi:3041|AV-procd|sdf|11598|dock8
  -GOLD-   2272016573D 1   1.00000     0.00000
 Structure written by MMmdl.
 38 39  0  0  0  0  0  0  0  0  1 V2000
  145.6284  130.1299  151.6745 C   0  0  0  0  0  0  0  0  0  0  0  0
  145.1792  131.4164  151.1876 N   0  0  0  0  0  0  0  0  0  0  0  0
  145.6077  132.6729  151.5566 C   0  0  0  0  0  0  0  0  0  0  0  0
  144.8958  133.5805  150.8237 C   0  0  0  0  0  0  0  0  0  0  0  0
  144.9907  135.0831  150.8339 C   0  0  0  0  0  0  0  0  0  0  0  0
  144.8668  135.6840  152.2463 C   0  0  0  0  0  0  0  0  0  0  0  0
  146.1551  136.1265  152.7745 N   0  0  0  0  0  0  0  0  0  0  0  0
  146.3587  136.6493  153.9925 C   0  0  0  0  0  0  0  0  0  0  0  0
  145.4722  136.8099  154.8314 O   0  0  0  0  0  0  0  0  0  0  0  0
  147.6435  136.9813  154.1790 N   0  0  0  0  0  0  0  0  0  0  0  0
  148.1988  137.5656  155.3953 C   0  0  0  0  0  0  0  0  0  0  0  0
  148.8351  138.9350  155.1056 C   0  0  1  0  0  0  0  0  0  0  0  0
  149.1773  139.7527  156.3361 C   0  0  0  0  0  0  0  0  0  0  0  0
  150.1846  140.7539  155.7783 C   0  0  0  0  0  0  0  0  0  0  0  0
  150.8534  140.0837  154.7135 O   0  0  0  0  0  0  0  0  0  0  0  0
  150.1985  138.8531  154.4205 C   0  0  0  0  0  0  0  0  0  0  0  0
  144.0416  132.7648  150.0279 C   0  0  0  0  0  0  0  0  0  0  0  0
  144.2125  131.4718  150.2489 N   0  0  0  0  0  0  0  0  0  0  0  0
  146.5377  130.2504  152.2641 H   0  0  0  0  0  0  0  0  0  0  0  0
  145.8379  129.4663  150.8348 H   0  0  0  0  0  0  0  0  0  0  0  0
  144.8552  129.6836  152.3003 H   0  0  0  0  0  0  0  0  0  0  0  0
  146.3805  132.8169  152.2971 H   0  0  0  0  0  0  0  0  0  0  0  0
  145.9388  135.4032  150.4008 H   0  0  0  0  0  0  0  0  0  0  0  0
  144.2197  135.5173  150.1961 H   0  0  0  0  0  0  0  0  0  0  0  0
  144.1458  136.5035  152.2438 H   0  0  0  0  0  0  0  0  0  0  0  0
  144.4663  134.9322  152.9265 H   0  0  0  0  0  0  0  0  0  0  0  0
  146.9506  136.0358  152.1597 H   0  0  0  0  0  0  0  0  0  0  0  0
  148.2904  136.8110  153.4231 H   0  0  0  0  0  0  0  0  0  0  0  0
  147.3953  137.6664  156.1258 H   0  0  0  0  0  0  0  0  0  0  0  0
  148.9468  136.9105  155.8451 H   0  0  0  0  0  0  0  0  0  0  0  0
  148.1655  139.5191  154.4716 H   0  0  0  0  0  0  0  0  0  0  0  0
  148.3102  140.2336  156.7899 H   0  0  0  0  0  0  0  0  0  0  0  0
  149.6545  139.1249  157.0903 H   0  0  0  0  0  0  0  0  0  0  0  0
  149.6697  141.6246  155.3703 H   0  0  0  0  0  0  0  0  0  0  0  0
  150.8880  141.1006  156.5354 H   0  0  0  0  0  0  0  0  0  0  0  0
  150.7938  138.0401  154.8384 H   0  0  0  0  0  0  0  0  0  0  0  0
  150.1158  138.6924  153.3454 H   0  0  0  0  0  0  0  0  0  0  0  0
  143.3097  133.0736  149.2962 H   0  0  0  0  0  0  0  0  0  0  0  0
  1  2  1  0  0  0  0
  1 19  1  0  0  0  0
  1 20  1  0  0  0  0
  1 21  1  0  0  0  0
  2 18  1  0  0  0  0
  2  3  1  0  0  0  0
  3  4  2  0  0  0  0
  3 22  1  0  0  0  0
  4  5  1  0  0  0  0
  4 17  1  0  0  0  0
  5  6  1  0  0  0  0
  5 23  1  0  0  0  0
  5 24  1  0  0  0  0
  6  7  1  0  0  0  0
  6 25  1  0  0  0  0
  6 26  1  0  0  0  0
  7  8  1  0  0  0  0
  7 27  1  0  0  0  0
  8  9  2  0  0  0  0
  8 10  1  0  0  0  0
 10 11  1  0  0  0  0
 10 28  1  0  0  0  0
 11 12  1  0  0  0  0
 11 29  1  0  0  0  0
 11 30  1  0  0  0  0
 12 16  1  0  0  0  0
 12 13  1  0  0  0  0
 12 31  1  0  0  0  0
 13 14  1  0  0  0  0
 13 32  1  0  0  0  0
 13 33  1  0  0  0  0
 14 15  1  0  0  0  0
 14 34  1  0  0  0  0
 14 35  1  0  0  0  0
 15 16  1  0  0  0  0
 16 36  1  0  0  0  0
 16 37  1  0  0  0  0
 17 18  2  0  0  0  0
 17 38  1  0  0  0  0
M  END
> <s_m_source_file>
AV-unprocessed.smi

> <i_m_source_file_index>
3041

> <i_lp_mmshare_version>
43012

> <i_f3d_flags>
0

> <s_epik_input>
W0NIM11uMVtjSF1jKFtjSF1uMSlbQ0gyXVtDSDJdW05IXUMoPU8pW05IXVtDSDJdW0NAQEhdMltDSDJdW0NIMl1PW0NIMl0y

> <s_epik_cmdline>
J2VwaWtfcHl0aG9uJywgJy1waCcsICc3LjAnLCAnLXRuJywgJzgnLCAnLW1hJywgJzIwMCcsICctbWV0YWxfYmluZGluZycsICctaW1hZScsICc8aW5maWxlLm1hZT4nLCAnLW9tYWUnLCAnPG91dGZpbGUubWFlPic=

> <r_lp_tautomer_probability>
1

> <r_epik_Ionization_Penalty>
0.000557811

> <r_epik_Ionization_Penalty_Charging>
0

> <r_epik_Ionization_Penalty_Neutral>
0.000557811

> <r_epik_State_Penalty>
-0

> <r_epik_Charging_Adjusted_Penalty>
0

> <i_epik_Tot_Q>
0

> <i_epik_Tot_abs_Q>
0

> <r_epik_Metal_State_Penalty>
-0

> <b_epik_Metal_Only>
0

> <s_lp_Force_Field>
OPLS_2005

> <r_lp_Energy>
14.3495

> <b_lp_Chiralities_Consistent>
1

> <s_lp_Variant>
AV-unprocessed.smi:3041-2

> <Gold.Version>
5.8.1

> <Gold.Id.Protein>
6NUR|6NUR_protein|mol2

> <Gold.PLP.Fitness>
43.0848

> <Gold.PLP.PLP>
-30.7328

> <Gold.PLP.part.hbond>
-4.0000

> <Gold.PLP.part.metal>
0.0000

> <Gold.PLP.part.buried>
-5.7451

> <Gold.PLP.part.nonpolar>
-22.5449

> <Gold.PLP.part.repulsive>
0.2985

> <Gold.PLP.ligand.clash>
0.0000

> <Gold.PLP.ligand.torsion>
0.4811

> <Gold.PLP.Chemscore.Hbond>
3.4342

> <Gold.PLP.Chemscore.CHOScore>
1.0000

> <Gold.PLP.Chemscore.Metal>
0.0000

> <Gold.Chemscore.Hbonds>
donor molecule, donor type, donor heavy atom, donor atom, acceptor molecule, acceptor atom, score
      L1  H     7    27       P1  7948  1.00
      L1  H    10    28       P1  7948  1.00
      P1  H  7989  7998       L1    15  1.00
      P1  H 10785 10796       L1    18  0.29
      L1  C    17    38       P1 10186  0.63

> <Gold.PLP.Chemscore.Internal.Correction>
0.0116

> <Gold.Rescore>
     Score         DG    S(hbond)    S(metal)    S(lipo)     H(rot)  DE(clash)    DE(int)     intcor
     19.58     -20.22       3.48        0.00      67.14       1.85       0.12       0.52       ----

> <Gold.Chemscore.Fitness>
19.5849

> <Gold.Chemscore.DG>
-20.2206

> <Gold.Chemscore.ZeroCoef>
-5.4800

> <Gold.Chemscore.Hbond>
3.4814

> <Gold.Chemscore.Metal>
0.0000

> <Gold.Chemscore.Lipo>
67.1447

> <Gold.Chemscore.Internal_Hbond>
0.0000

> <Gold.Chemscore.DEClash>
0.1172

> <Gold.Chemscore.DEInternal>
0.5184

> <Gold.Chemscore.Rot>
1.8528

> <Gold.Chemscore.Internal.Correction>
   9.000000E+99

> <Gold.Chemscore.Hbonds>
donor molecule, donor type, donor heavy atom, donor atom, acceptor molecule, acceptor atom, score
      L1  H     7    27       P1  7948  0.90
      L1  H    10    28       P1  7948  1.00
      P1  H  7989  7998       L1    15  0.96
      P1  H 10785 10796       L1    18  0.26

> <Gold.Chemscore.Hbond.Weighted>
-11.6279

> <Gold.Chemscore.Metal.Weighted>
-0.0000

> <Gold.Chemscore.Lipo.Weighted>
-7.8559

> <Gold.Chemscore.Internal_Hbond.Weighted>
0.0000

> <Gold.Chemscore.DEClash.Weighted>
0.1172

> <Gold.Chemscore.DEInternal.Weighted>
0.5184

> <Gold.Chemscore.Rot.Weighted>
4.7433

> <Gold.Chemscore.Internal.Correction.Weighted>
   9.000000E+99

> <Gold.Protein.RotatedTorsions>
[ 6907 6896 6895 6894 ] final  -89.25 input  -60.11 | X-H torsion
[ 7974 7965 7964 7962 ] final   -9.21 input  175.53 | X-H torsion
[ 8008 7997 7996 7995 ] final  -82.85 input   59.86 | X-H torsion
[ 10167 10162 10161 10158 ] final  155.39 input  -65.29 | X-H torsion
[ 10718 10713 10712 10709 ] final  -37.94 input   66.30 | X-H torsion
[ 10763 10752 10751 10750 ] final   94.55 input  -60.55 | X-H torsion
[ 11005 11000 10999 10996 ] final -134.58 input  -57.11 | X-H torsion

> <Gold.Protein.ActiveResidues>
 VAL166  LYS551  ARG553  GLY616  TRP617  ASP618  TYR619  PRO620  LYS621  CYS622 
 ASP623  PHE694  ASN695  SER759  ASP760  ASP761  ALA762  ILE779  LEU786  VAL792 
 PHE793  MET794  SER795  GLU796  ALA797  LYS798  CYS799  TRP800  GLU811  SER814 

> <Gold.Protein.RotatedAtoms>
  150.6873  134.2616  159.4551 H   0  0  0  0  0  0  0  0  0  0  0  0  # atno 6907 bound_to 6896
  152.0546  134.9630  160.0584 H   0  0  0  0  0  0  0  0  0  0  0  0  # atno 6908 bound_to 6896
  152.1081  133.4251  159.4655 H   0  0  0  0  0  0  0  0  0  0  0  0  # atno 6909 bound_to 6896
  146.2258  140.2583  142.8350 H   0  0  0  0  0  0  0  0  0  0  0  0  # atno 7974 bound_to 7965
  154.6129  140.0627  156.9517 H   0  0  0  0  0  0  0  0  0  0  0  0  # atno 8008 bound_to 7997
  155.1943  140.3310  155.4335 H   0  0  0  0  0  0  0  0  0  0  0  0  # atno 8009 bound_to 7997
  156.2387  140.1875  156.7031 H   0  0  0  0  0  0  0  0  0  0  0  0  # atno 8010 bound_to 7997
  139.4821  144.5103  151.8035 H   0  0  0  0  0  0  0  0  0  0  0  0  # atno 10167 bound_to 10162
  156.3094  130.4250  149.8065 H   0  0  0  0  0  0  0  0  0  0  0  0  # atno 10718 bound_to 10713
  153.2429  135.4286  155.0717 H   0  0  0  0  0  0  0  0  0  0  0  0  # atno 10763 bound_to 10752
  154.8348  135.3407  154.6623 H   0  0  0  0  0  0  0  0  0  0  0  0  # atno 10764 bound_to 10752
  153.7047  135.7026  153.5110 H   0  0  0  0  0  0  0  0  0  0  0  0  # atno 10765 bound_to 10752
  140.8977  134.1731  157.4483 H   0  0  0  0  0  0  0  0  0  0  0  0  # atno 11005 bound_to 11000
  144.9359  140.8026  143.5660 LP  0  0  0  0  0  0  0  0  0  0  0  0  # atno 17320 bound_to 7965
  145.2531  139.2023  143.4932 LP  0  0  0  0  0  0  0  0  0  0  0  0  # atno 17321 bound_to 7965
  140.4605  144.1729  150.5906 LP  0  0  0  0  0  0  0  0  0  0  0  0  # atno 17342 bound_to 10162
  140.4489  143.2495  151.9374 LP  0  0  0  0  0  0  0  0  0  0  0  0  # atno 17343 bound_to 10162
  156.5414  130.8301  151.3270 LP  0  0  0  0  0  0  0  0  0  0  0  0  # atno 17370 bound_to 10713
  157.7387  130.9819  150.2270 LP  0  0  0  0  0  0  0  0  0  0  0  0  # atno 17371 bound_to 10713
  139.8738  134.9885  156.5415 LP  0  0  0  0  0  0  0  0  0  0  0  0  # atno 17394 bound_to 11000
  140.8269  133.8310  155.8947 LP  0  0  0  0  0  0  0  0  0  0  0  0  # atno 17395 bound_to 11000

$$$$
