AV-unprocessed.smi:1540|AV-procd|sdf|6201|dock3
  -GOLD-   22720 6373D 1   1.00000     0.00000
 Structure written by MMmdl.
 32 32  0  0  0  0  0  0  0  0  2 V2000
  145.9007  137.4693  151.6425 C   0  0  0  0  0  0  0  0  0  0  0  0
  146.2952  138.1348  152.7384 C   0  0  0  0  0  0  0  0  0  0  0  0
  147.3944  139.1738  152.7627 C   0  0  0  0  0  0  0  0  0  0  0  0
  146.9997  140.2877  153.5541 O   0  0  0  0  0  0  0  0  0  0  0  0
  147.9048  141.3893  153.5553 C   0  0  1  0  0  0  0  0  0  0  0  0
  147.1452  142.6109  154.0942 C   0  0  0  0  0  0  0  0  0  0  0  0
  149.1365  141.0706  154.4188 C   0  0  0  0  0  0  0  0  0  0  0  0
  150.0032  140.3166  153.9771 O   0  0  0  0  0  0  0  0  0  0  0  0
  149.1603  141.6656  155.6277 N   0  0  0  0  0  0  0  0  0  0  0  0
  150.1307  141.6101  156.6436 C   0  0  0  0  0  0  0  0  0  0  0  0
  150.5991  142.6828  157.3399 C   0  0  0  0  0  0  0  0  0  0  0  0
  151.6053  142.5554  158.3867 C   0  0  0  0  0  0  0  0  0  0  0  0
  152.0919  143.7194  159.2317 C   0  0  0  0  0  0  0  0  0  0  0  0
  152.9883  143.3180  160.1332 F   0  0  0  0  0  0  0  0  0  0  0  0
  152.6663  144.6355  158.4536 F   0  0  0  0  0  0  0  0  0  0  0  0
  151.0780  144.2982  159.8753 F   0  0  0  0  0  0  0  0  0  0  0  0
  151.9841  141.2432  158.5932 C   0  0  0  0  0  0  0  0  0  0  0  0
  151.5772  140.1292  157.9467 N   0  5  0  0  0  0  0  0  0  0  0  0
  150.6425  140.2611  156.9637 C   0  0  0  0  0  0  0  0  0  0  0  0
  150.2201  139.2854  156.3423 O   0  0  0  0  0  0  0  0  0  0  0  0
  146.3623  137.6450  150.6818 H   0  0  0  0  0  0  0  0  0  0  0  0
  145.1073  136.7381  151.6935 H   0  0  0  0  0  0  0  0  0  0  0  0
  145.8103  137.9332  153.6824 H   0  0  0  0  0  0  0  0  0  0  0  0
  148.2940  138.7059  153.1633 H   0  0  0  0  0  0  0  0  0  0  0  0
  147.6163  139.4973  151.7443 H   0  0  0  0  0  0  0  0  0  0  0  0
  148.2137  141.6049  152.5304 H   0  0  0  0  0  0  0  0  0  0  0  0
  147.7878  143.4913  154.1337 H   0  0  0  0  0  0  0  0  0  0  0  0
  146.7572  142.4326  155.0979 H   0  0  0  0  0  0  0  0  0  0  0  0
  146.2971  142.8518  153.4527 H   0  0  0  0  0  0  0  0  0  0  0  0
  148.3500  142.2197  155.8642 H   0  0  0  0  0  0  0  0  0  0  0  0
  150.2311  143.6761  157.1467 H   0  0  0  0  0  0  0  0  0  0  0  0
  152.7224  141.0603  159.4030 H   0  0  0  0  0  0  0  0  0  0  0  0
  1  2  2  0  0  0  0
  1 21  1  0  0  0  0
  1 22  1  0  0  0  0
  2  3  1  0  0  0  0
  2 23  1  0  0  0  0
  3  4  1  0  0  0  0
  3 24  1  0  0  0  0
  3 25  1  0  0  0  0
  4  5  1  0  0  0  0
  5  6  1  0  0  0  0
  5  7  1  0  0  0  0
  5 26  1  0  0  0  0
  6 27  1  0  0  0  0
  6 28  1  0  0  0  0
  6 29  1  0  0  0  0
  7  8  2  0  0  0  0
  7  9  1  0  0  0  0
  9 10  1  0  0  0  0
  9 30  1  0  0  0  0
 10 19  1  0  0  0  0
 10 11  2  0  0  0  0
 11 12  1  0  0  0  0
 11 31  1  0  0  0  0
 12 13  1  0  0  0  0
 12 17  2  0  0  0  0
 13 14  1  0  0  0  0
 13 15  1  0  0  0  0
 13 16  1  0  0  0  0
 17 18  1  0  0  0  0
 17 32  1  0  0  0  0
 18 19  1  0  0  0  0
 19 20  2  0  0  0  0
M  CHG  1  18  -1
M  END
> <s_m_source_file>
AV-unprocessed.smi

> <i_m_source_file_index>
1540

> <i_lp_mmshare_version>
43012

> <i_f3d_flags>
0

> <s_epik_input>
W0NIMl09W0NIXVtDSDJdT1tDQEhdKFtDSDNdKUMoPU8pW05IXWMxW2NIXWMoQyhGKShGKUYpW2NIXVtuSF1jMT1P

> <s_epik_cmdline>
J2VwaWtfcHl0aG9uJywgJy1waCcsICc3LjAnLCAnLXRuJywgJzgnLCAnLW1hJywgJzIwMCcsICctbWV0YWxfYmluZGluZycsICctaW1hZScsICc8aW5maWxlLm1hZT4nLCAnLW9tYWUnLCAnPG91dGZpbGUubWFlPic=

> <r_epik_Ionization_Penalty>
2.56803

> <r_epik_Ionization_Penalty_Charging>
0.0609694

> <r_epik_Ionization_Penalty_Neutral>
2.50706

> <r_epik_State_Penalty>
2.67253

> <r_epik_Charging_Adjusted_Penalty>
2.7335

> <i_epik_Tot_Q>
-1

> <i_epik_Tot_abs_Q>
1

> <r_epik_Metal_State_Penalty>
0.517713

> <b_epik_Metal_Only>
0

> <s_lp_Force_Field>
OPLS_2005

> <r_lp_Energy>
20.9633

> <b_lp_Chiralities_Consistent>
1

> <s_lp_Variant>
AV-unprocessed.smi:1540-4

> <Gold.Version>
5.8.1

> <Gold.Id.Protein>
6NUR|6NUR_protein|mol2

> <Gold.PLP.Fitness>
40.6506

> <Gold.PLP.PLP>
-41.5838

> <Gold.PLP.part.hbond>
-1.7703

> <Gold.PLP.part.metal>
0.0000

> <Gold.PLP.part.buried>
-2.7833

> <Gold.PLP.part.nonpolar>
-37.3188

> <Gold.PLP.part.repulsive>
1.1686

> <Gold.PLP.ligand.clash>
1.6957

> <Gold.PLP.ligand.torsion>
1.0529

> <Gold.PLP.Chemscore.Hbond>
0.9120

> <Gold.PLP.Chemscore.CHOScore>
0.0000

> <Gold.PLP.Chemscore.Metal>
0.0000

> <Gold.Chemscore.Hbonds>
donor molecule, donor type, donor heavy atom, donor atom, acceptor molecule, acceptor atom, score
      P1  H  7989  7998       L1     8  0.78

> <Gold.PLP.Chemscore.Internal.Correction>
0.1322

> <Gold.Rescore>
     Score         DG    S(hbond)    S(metal)    S(lipo)     H(rot)  DE(clash)    DE(int)     intcor
      9.27     -13.17       0.88        0.00      79.43       1.77       0.18       3.72       ----

> <Gold.Chemscore.Fitness>
9.2663

> <Gold.Chemscore.DG>
-13.1671

> <Gold.Chemscore.ZeroCoef>
-5.4800

> <Gold.Chemscore.Hbond>
0.8794

> <Gold.Chemscore.Metal>
0.0000

> <Gold.Chemscore.Lipo>
79.4326

> <Gold.Chemscore.Internal_Hbond>
0.0000

> <Gold.Chemscore.DEClash>
0.1843

> <Gold.Chemscore.DEInternal>
3.7165

> <Gold.Chemscore.Rot>
1.7750

> <Gold.Chemscore.Internal.Correction>
   9.000000E+99

> <Gold.Chemscore.Hbonds>
donor molecule, donor type, donor heavy atom, donor atom, acceptor molecule, acceptor atom, score
      P1  H  7989  7998       L1     8  0.79

> <Gold.Chemscore.Hbond.Weighted>
-2.9373

> <Gold.Chemscore.Metal.Weighted>
-0.0000

> <Gold.Chemscore.Lipo.Weighted>
-9.2936

> <Gold.Chemscore.Internal_Hbond.Weighted>
0.0000

> <Gold.Chemscore.DEClash.Weighted>
0.1843

> <Gold.Chemscore.DEInternal.Weighted>
3.7165

> <Gold.Chemscore.Rot.Weighted>
4.5439

> <Gold.Chemscore.Internal.Correction.Weighted>
   9.000000E+99

> <Gold.Protein.RotatedTorsions>
[ 6907 6896 6895 6894 ] final  132.13 input  -60.11 | X-H torsion
[ 7974 7965 7964 7962 ] final -146.46 input  175.53 | X-H torsion
[ 8008 7997 7996 7995 ] final  -74.42 input   59.86 | X-H torsion
[ 10167 10162 10161 10158 ] final -125.77 input  -65.29 | X-H torsion
[ 10718 10713 10712 10709 ] final  162.86 input   66.30 | X-H torsion
[ 10763 10752 10751 10750 ] final   24.74 input  -60.55 | X-H torsion
[ 11005 11000 10999 10996 ] final -150.59 input  -57.11 | X-H torsion

> <Gold.Protein.ActiveResidues>
 VAL166  LYS551  ARG553  GLY616  TRP617  ASP618  TYR619  PRO620  LYS621  CYS622 
 ASP623  PHE694  ASN695  SER759  ASP760  ASP761  ALA762  ILE779  LEU786  VAL792 
 PHE793  MET794  SER795  GLU796  ALA797  LYS798  CYS799  TRP800  GLU811  SER814 

> <Gold.Protein.RotatedAtoms>
  152.3355  133.6007  159.5839 H   0  0  0  0  0  0  0  0  0  0  0  0  # atno 6907 bound_to 6896
  150.7448  133.9802  159.3582 H   0  0  0  0  0  0  0  0  0  0  0  0  # atno 6908 bound_to 6896
  151.7672  135.0796  160.0405 H   0  0  0  0  0  0  0  0  0  0  0  0  # atno 6909 bound_to 6896
  144.8158  140.5453  143.5612 H   0  0  0  0  0  0  0  0  0  0  0  0  # atno 7974 bound_to 7965
  154.5329  140.0762  156.8377 H   0  0  0  0  0  0  0  0  0  0  0  0  # atno 8008 bound_to 7997
  155.3337  140.3403  155.4221 H   0  0  0  0  0  0  0  0  0  0  0  0  # atno 8009 bound_to 7997
  156.1800  140.1649  156.8279 H   0  0  0  0  0  0  0  0  0  0  0  0  # atno 8010 bound_to 7997
  139.9785  143.5768  152.2387 H   0  0  0  0  0  0  0  0  0  0  0  0  # atno 10167 bound_to 10162
  157.1166  131.0481  151.2434 H   0  0  0  0  0  0  0  0  0  0  0  0  # atno 10718 bound_to 10713
  153.0742  135.6598  154.0182 H   0  0  0  0  0  0  0  0  0  0  0  0  # atno 10763 bound_to 10752
  153.9820  135.2954  155.3421 H   0  0  0  0  0  0  0  0  0  0  0  0  # atno 10764 bound_to 10752
  154.7125  135.5199  153.8758 H   0  0  0  0  0  0  0  0  0  0  0  0  # atno 10765 bound_to 10752
  140.7385  134.3541  157.5152 H   0  0  0  0  0  0  0  0  0  0  0  0  # atno 11005 bound_to 11000
  145.5218  139.1476  143.3548 LP  0  0  0  0  0  0  0  0  0  0  0  0  # atno 17320 bound_to 7965
  146.2461  140.5359  142.8913 LP  0  0  0  0  0  0  0  0  0  0  0  0  # atno 17321 bound_to 7965
  139.6427  144.7656  151.2306 LP  0  0  0  0  0  0  0  0  0  0  0  0  # atno 17342 bound_to 10162
  140.7497  143.6290  150.8441 LP  0  0  0  0  0  0  0  0  0  0  0  0  # atno 17343 bound_to 10162
  157.4513  130.7600  149.7154 LP  0  0  0  0  0  0  0  0  0  0  0  0  # atno 17370 bound_to 10713
  155.9838  130.3997  150.3344 LP  0  0  0  0  0  0  0  0  0  0  0  0  # atno 17371 bound_to 10713
  139.8811  134.9065  156.2924 LP  0  0  0  0  0  0  0  0  0  0  0  0  # atno 17394 bound_to 11000
  140.9858  133.7239  156.0739 LP  0  0  0  0  0  0  0  0  0  0  0  0  # atno 17395 bound_to 11000

$$$$
