AV-unprocessed.smi:3201|AV-procd|sdf|12237|dock2
  -GOLD-   2272018 73D 1   1.00000     0.00000
 Structure written by MMmdl.
 41 43  0  0  0  0  0  0  0  0  2 V2000
  153.0634  142.4075  159.6142 C   0  0  0  0  0  0  0  0  0  0  0  0
  152.1592  143.5908  159.4868 C   0  0  0  0  0  0  0  0  0  0  0  0
  151.4250  144.0459  158.4244 C   0  0  0  0  0  0  0  0  0  0  0  0
  151.3111  143.4783  157.0361 C   0  0  0  0  0  0  0  0  0  0  0  0
  150.5977  142.1203  157.0441 C   0  0  0  0  0  0  0  0  0  0  0  0
  149.1505  142.2789  156.7963 N   0  3  0  0  0  0  0  0  0  0  0  0
  148.5395  141.1853  156.0095 C   0  0  2  0  0  0  0  0  0  0  0  0
  148.8302  141.2574  154.4942 C   0  0  0  0  0  0  0  0  0  0  0  0
  147.4221  141.1591  153.8749 C   0  0  2  0  0  0  0  0  0  0  0  0
  146.7019  142.5060  154.0598 C   0  0  0  0  0  0  0  0  0  0  0  0
  146.4081  142.5245  155.5710 C   0  0  0  0  0  0  0  0  0  0  0  0
  146.9962  141.1810  156.0563 C   0  0  1  0  0  0  0  0  0  0  0  0
  146.6818  140.2721  154.8720 C   0  0  0  0  0  0  0  0  0  0  0  0
  150.7796  145.2079  158.9340 C   0  0  0  0  0  0  0  0  0  0  0  0
  151.0846  145.4531  160.1954 N   0  0  0  0  0  0  0  0  0  0  0  0
  151.9315  144.4604  160.5372 N   0  0  0  0  0  0  0  0  0  0  0  0
  152.4717  144.4184  161.8826 C   0  0  0  0  0  0  0  0  0  0  0  0
  153.2009  141.9091  158.6549 H   0  0  0  0  0  0  0  0  0  0  0  0
  152.6519  141.6808  160.3148 H   0  0  0  0  0  0  0  0  0  0  0  0
  154.0472  142.7066  159.9759 H   0  0  0  0  0  0  0  0  0  0  0  0
  150.7753  144.1668  156.3818 H   0  0  0  0  0  0  0  0  0  0  0  0
  152.3006  143.3612  156.5926 H   0  0  0  0  0  0  0  0  0  0  0  0
  151.0295  141.4718  156.2808 H   0  0  0  0  0  0  0  0  0  0  0  0
  150.7447  141.6278  158.0064 H   0  0  0  0  0  0  0  0  0  0  0  0
  148.6859  142.3180  157.6922 H   0  0  0  0  0  0  0  0  0  0  0  0
  148.8994  140.2339  156.4056 H   0  0  0  0  0  0  0  0  0  0  0  0
  149.3389  142.1747  154.1944 H   0  0  0  0  0  0  0  0  0  0  0  0
  149.4533  140.4170  154.1859 H   0  0  0  0  0  0  0  0  0  0  0  0
  147.4196  140.8007  152.8451 H   0  0  0  0  0  0  0  0  0  0  0  0
  147.3119  143.3523  153.7418 H   0  0  0  0  0  0  0  0  0  0  0  0
  145.7729  142.5314  153.4887 H   0  0  0  0  0  0  0  0  0  0  0  0
  146.8438  143.3897  156.0707 H   0  0  0  0  0  0  0  0  0  0  0  0
  145.3316  142.5556  155.7452 H   0  0  0  0  0  0  0  0  0  0  0  0
  146.5889  140.8440  157.0101 H   0  0  0  0  0  0  0  0  0  0  0  0
  145.6139  140.1847  154.6632 H   0  0  0  0  0  0  0  0  0  0  0  0
  147.1102  139.2722  154.9630 H   0  0  0  0  0  0  0  0  0  0  0  0
  150.1031  145.8784  158.4246 H   0  0  0  0  0  0  0  0  0  0  0  0
  152.1157  143.5225  162.3916 H   0  0  0  0  0  0  0  0  0  0  0  0
  152.1600  145.2955  162.4517 H   0  0  0  0  0  0  0  0  0  0  0  0
  153.5608  144.3971  161.8410 H   0  0  0  0  0  0  0  0  0  0  0  0
  148.9918  143.1515  156.3132 H   0  0  0  0  0  0  0  0  0  0  0  0
  1  2  1  0  0  0  0
  1 18  1  0  0  0  0
  1 19  1  0  0  0  0
  1 20  1  0  0  0  0
  2 16  1  0  0  0  0
  2  3  2  0  0  0  0
  3  4  1  0  0  0  0
  3 14  1  0  0  0  0
  4  5  1  0  0  0  0
  4 21  1  0  0  0  0
  4 22  1  0  0  0  0
  5  6  1  0  0  0  0
  5 23  1  0  0  0  0
  5 24  1  0  0  0  0
  6  7  1  0  0  0  0
  6 25  1  0  0  0  0
  6 41  1  0  0  0  0
  7 12  1  0  0  0  0
  7  8  1  0  0  0  0
  7 26  1  0  0  0  0
  8  9  1  0  0  0  0
  8 27  1  0  0  0  0
  8 28  1  0  0  0  0
  9 13  1  0  0  0  0
  9 10  1  0  0  0  0
  9 29  1  0  0  0  0
 10 11  1  0  0  0  0
 10 30  1  0  0  0  0
 10 31  1  0  0  0  0
 11 12  1  0  0  0  0
 11 32  1  0  0  0  0
 11 33  1  0  0  0  0
 12 13  1  0  0  0  0
 12 34  1  0  0  0  0
 13 35  1  0  0  0  0
 13 36  1  0  0  0  0
 14 15  2  0  0  0  0
 14 37  1  0  0  0  0
 15 16  1  0  0  0  0
 16 17  1  0  0  0  0
 17 38  1  0  0  0  0
 17 39  1  0  0  0  0
 17 40  1  0  0  0  0
M  CHG  1   6   1
M  END
> <s_m_source_file>
AV-unprocessed.smi

> <i_m_source_file_index>
3201

> <i_lp_mmshare_version>
43012

> <i_f3d_flags>
0

> <s_epik_input>
W0NIM11uMW5bY0hdYyhjMVtDSDNdKVtDSDJdW0NIMl1bTkhdW0NASF0oW0NIMl1bQ0BIXTIzKVtDQEhdKFtDSDJdMylbQ0gyXVtDSDJdMg==

> <s_epik_cmdline>
J2VwaWtfcHl0aG9uJywgJy1waCcsICc3LjAnLCAnLXRuJywgJzgnLCAnLW1hJywgJzIwMCcsICctbWV0YWxfYmluZGluZycsICctaW1hZScsICc8aW5maWxlLm1hZT4nLCAnLW9tYWUnLCAnPG91dGZpbGUubWFlPic=

> <r_lp_tautomer_probability>
1

> <r_epik_Ionization_Penalty>
0.000331174

> <r_epik_Ionization_Penalty_Charging>
0.000242709

> <r_epik_Ionization_Penalty_Neutral>
8.84659e-05

> <r_epik_State_Penalty>
-0

> <r_epik_Charging_Adjusted_Penalty>
0.000242709

> <i_epik_Tot_Q>
1

> <i_epik_Tot_abs_Q>
1

> <r_epik_Metal_State_Penalty>
-0

> <b_epik_Metal_Only>
0

> <s_lp_Force_Field>
OPLS_2005

> <r_lp_Energy>
50.9619

> <b_lp_Chiralities_Consistent>
1

> <s_lp_Variant>
AV-unprocessed.smi:3201-1

> <Gold.Version>
5.8.1

> <Gold.Id.Protein>
6NUR|6NUR_protein|mol2

> <Gold.PLP.Fitness>
48.6302

> <Gold.PLP.PLP>
-40.8689

> <Gold.PLP.part.hbond>
-1.0000

> <Gold.PLP.part.metal>
0.0000

> <Gold.PLP.part.buried>
-4.4637

> <Gold.PLP.part.nonpolar>
-35.3046

> <Gold.PLP.part.repulsive>
0.2129

> <Gold.PLP.ligand.clash>
0.0000

> <Gold.PLP.ligand.torsion>
0.6357

> <Gold.PLP.Chemscore.Hbond>
2.0000

> <Gold.PLP.Chemscore.CHOScore>
1.0000

> <Gold.PLP.Chemscore.Metal>
0.0000

> <Gold.Chemscore.Hbonds>
donor molecule, donor type, donor heavy atom, donor atom, acceptor molecule, acceptor atom, score
      L1  H     6    41       P1  8028  2.00
      L1  C    14    37       P1  8029  1.00

> <Gold.PLP.Chemscore.Internal.Correction>
0.0328

> <Gold.Rescore>
     Score         DG    S(hbond)    S(metal)    S(lipo)     H(rot)  DE(clash)    DE(int)     intcor
     17.12     -18.07       0.99        0.00     109.01       1.36       0.12       0.84       ----

> <Gold.Chemscore.Fitness>
17.1157

> <Gold.Chemscore.DG>
-18.0709

> <Gold.Chemscore.ZeroCoef>
-5.4800

> <Gold.Chemscore.Hbond>
0.9926

> <Gold.Chemscore.Metal>
0.0000

> <Gold.Chemscore.Lipo>
109.0089

> <Gold.Chemscore.Internal_Hbond>
0.0000

> <Gold.Chemscore.DEClash>
0.1164

> <Gold.Chemscore.DEInternal>
0.8387

> <Gold.Chemscore.Rot>
1.3588

> <Gold.Chemscore.Internal.Correction>
   9.000000E+99

> <Gold.Chemscore.Hbonds>
donor molecule, donor type, donor heavy atom, donor atom, acceptor molecule, acceptor atom, score
      L1  H     6    41       P1  8028  1.00

> <Gold.Chemscore.Hbond.Weighted>
-3.3154

> <Gold.Chemscore.Metal.Weighted>
-0.0000

> <Gold.Chemscore.Lipo.Weighted>
-12.7540

> <Gold.Chemscore.Internal_Hbond.Weighted>
0.0000

> <Gold.Chemscore.DEClash.Weighted>
0.1164

> <Gold.Chemscore.DEInternal.Weighted>
0.8387

> <Gold.Chemscore.Rot.Weighted>
3.4786

> <Gold.Chemscore.Internal.Correction.Weighted>
   9.000000E+99

> <Gold.Protein.RotatedTorsions>
[ 6907 6896 6895 6894 ] final  -80.12 input  -60.11 | X-H torsion
[ 7974 7965 7964 7962 ] final  -89.19 input  175.53 | X-H torsion
[ 8008 7997 7996 7995 ] final  -35.11 input   59.86 | X-H torsion
[ 10167 10162 10161 10158 ] final -155.55 input  -65.29 | X-H torsion
[ 10718 10713 10712 10709 ] final   51.91 input   66.30 | X-H torsion
[ 10763 10752 10751 10750 ] final  104.33 input  -60.55 | X-H torsion
[ 11005 11000 10999 10996 ] final  -99.98 input  -57.11 | X-H torsion

> <Gold.Protein.ActiveResidues>
 VAL166  LYS551  ARG553  GLY616  TRP617  ASP618  TYR619  PRO620  LYS621  CYS622 
 ASP623  PHE694  ASN695  SER759  ASP760  ASP761  ALA762  ILE779  LEU786  VAL792 
 PHE793  MET794  SER795  GLU796  ALA797  LYS798  CYS799  TRP800  GLU811  SER814 

> <Gold.Protein.RotatedAtoms>
  150.6936  134.4018  159.5122 H   0  0  0  0  0  0  0  0  0  0  0  0  # atno 6907 bound_to 6896
  152.1791  134.8767  160.0537 H   0  0  0  0  0  0  0  0  0  0  0  0  # atno 6908 bound_to 6896
  151.9764  133.3708  159.4128 H   0  0  0  0  0  0  0  0  0  0  0  0  # atno 6909 bound_to 6896
  145.4432  140.9559  143.2064 H   0  0  0  0  0  0  0  0  0  0  0  0  # atno 7974 bound_to 7965
  154.4103  140.1666  156.2158 H   0  0  0  0  0  0  0  0  0  0  0  0  # atno 8008 bound_to 7997
  155.9405  140.3408  155.6301 H   0  0  0  0  0  0  0  0  0  0  0  0  # atno 8009 bound_to 7997
  155.6994  140.0743  157.2407 H   0  0  0  0  0  0  0  0  0  0  0  0  # atno 8010 bound_to 7997
  139.6922  143.9401  152.2390 H   0  0  0  0  0  0  0  0  0  0  0  0  # atno 10167 bound_to 10162
  157.5025  130.8447  149.8334 H   0  0  0  0  0  0  0  0  0  0  0  0  # atno 10718 bound_to 10713
  153.3646  135.3946  155.1743 H   0  0  0  0  0  0  0  0  0  0  0  0  # atno 10763 bound_to 10752
  154.8684  135.3687  154.5056 H   0  0  0  0  0  0  0  0  0  0  0  0  # atno 10764 bound_to 10752
  153.5518  135.7083  153.5648 H   0  0  0  0  0  0  0  0  0  0  0  0  # atno 10765 bound_to 10752
  141.1288  133.8363  157.1042 H   0  0  0  0  0  0  0  0  0  0  0  0  # atno 11005 bound_to 11000
  144.8108  139.5965  143.7030 LP  0  0  0  0  0  0  0  0  0  0  0  0  # atno 17320 bound_to 7965
  146.2545  139.6272  142.9404 LP  0  0  0  0  0  0  0  0  0  0  0  0  # atno 17321 bound_to 7965
  139.9221  144.6793  150.8451 LP  0  0  0  0  0  0  0  0  0  0  0  0  # atno 17342 bound_to 10162
  140.7686  143.3368  151.2292 LP  0  0  0  0  0  0  0  0  0  0  0  0  # atno 17343 bound_to 10162
  156.0238  130.3786  150.1884 LP  0  0  0  0  0  0  0  0  0  0  0  0  # atno 17370 bound_to 10713
  157.0073  130.9940  151.3375 LP  0  0  0  0  0  0  0  0  0  0  0  0  # atno 17371 bound_to 10713
  140.0315  134.9899  157.0788 LP  0  0  0  0  0  0  0  0  0  0  0  0  # atno 17394 bound_to 11000
  140.4278  134.1812  155.7167 LP  0  0  0  0  0  0  0  0  0  0  0  0  # atno 17395 bound_to 11000

$$$$
