AV-unprocessed.smi:2397|AV-procd|sdf|9495|dock2
  -GOLD-   2272013123D 1   1.00000     0.00000
 Structure written by MMmdl.
 37 38  0  0  0  0  0  0  0  0  2 V2000
  152.4134  144.9083  158.3511 C   0  0  0  0  0  0  0  0  0  0  0  0
  151.1745  144.4578  159.1402 C   0  0  0  0  0  0  0  0  0  0  0  0
  151.4725  144.1832  160.6221 C   0  0  0  0  0  0  0  0  0  0  0  0
  150.4759  143.2823  158.4730 C   0  0  0  0  0  0  0  0  0  0  0  0
  149.1835  143.3988  158.1300 N   0  3  0  0  0  0  0  0  0  0  0  0
  148.5534  142.3621  157.5265 C   0  0  0  0  0  0  0  0  0  0  0  0
  149.2467  141.1683  157.2538 C   0  0  0  0  0  0  0  0  0  0  0  0
  150.6019  141.1109  157.6323 C   0  0  0  0  0  0  0  0  0  0  0  0
  151.3560  139.9416  157.3925 N   0  0  0  0  0  0  0  0  0  0  0  0
  152.4937  139.8685  158.3089 C   0  0  0  0  0  0  0  0  0  0  0  0
  153.2322  138.5310  158.1656 C   0  0  0  0  0  0  0  0  0  0  0  0
  153.6303  138.3680  156.8128 O   0  0  0  0  0  0  0  0  0  0  0  0
  152.5058  138.2925  155.9465 C   0  0  0  0  0  0  0  0  0  0  0  0
  151.6853  139.6039  155.9938 C   0  0  1  0  0  0  0  0  0  0  0  0
  150.4884  139.4370  155.0342 C   0  0  0  0  0  0  0  0  0  0  0  0
  149.6310  138.4347  155.2540 N   0  0  0  0  0  0  0  0  0  0  0  0
  150.3332  140.2273  154.1064 O   0  0  0  0  0  0  0  0  0  0  0  0
  151.1835  142.1682  158.2431 N   0  0  0  0  0  0  0  0  0  0  0  0
  152.1517  145.1654  157.3243 H   0  0  0  0  0  0  0  0  0  0  0  0
  153.1709  144.1242  158.3154 H   0  0  0  0  0  0  0  0  0  0  0  0
  152.8698  145.7881  158.8052 H   0  0  0  0  0  0  0  0  0  0  0  0
  150.4760  145.2961  159.1189 H   0  0  0  0  0  0  0  0  0  0  0  0
  150.5606  143.9356  161.1664 H   0  0  0  0  0  0  0  0  0  0  0  0
  151.9158  145.0564  161.1018 H   0  0  0  0  0  0  0  0  0  0  0  0
  152.1685  143.3522  160.7416 H   0  0  0  0  0  0  0  0  0  0  0  0
  147.5147  142.5234  157.2780 H   0  0  0  0  0  0  0  0  0  0  0  0
  148.7574  140.3362  156.7683 H   0  0  0  0  0  0  0  0  0  0  0  0
  153.1792  140.6914  158.0981 H   0  0  0  0  0  0  0  0  0  0  0  0
  152.1694  139.9827  159.3438 H   0  0  0  0  0  0  0  0  0  0  0  0
  154.1190  138.5216  158.7994 H   0  0  0  0  0  0  0  0  0  0  0  0
  152.6042  137.6967  158.4828 H   0  0  0  0  0  0  0  0  0  0  0  0
  152.8701  138.1072  154.9351 H   0  0  0  0  0  0  0  0  0  0  0  0
  151.8927  137.4315  156.2207 H   0  0  0  0  0  0  0  0  0  0  0  0
  152.3184  140.4001  155.5971 H   0  0  0  0  0  0  0  0  0  0  0  0
  148.8283  138.3168  154.6530 H   0  0  0  0  0  0  0  0  0  0  0  0
  149.7793  137.8114  156.0347 H   0  0  0  0  0  0  0  0  0  0  0  0
  148.6708  144.2607  158.3181 H   0  0  0  0  0  0  0  0  0  0  0  0
  1  2  1  0  0  0  0
  1 19  1  0  0  0  0
  1 20  1  0  0  0  0
  1 21  1  0  0  0  0
  2  3  1  0  0  0  0
  2  4  1  0  0  0  0
  2 22  1  0  0  0  0
  3 23  1  0  0  0  0
  3 24  1  0  0  0  0
  3 25  1  0  0  0  0
  4 18  1  0  0  0  0
  4  5  2  0  0  0  0
  5  6  1  0  0  0  0
  5 37  1  0  0  0  0
  6  7  2  0  0  0  0
  6 26  1  0  0  0  0
  7  8  1  0  0  0  0
  7 27  1  0  0  0  0
  8  9  1  0  0  0  0
  8 18  2  0  0  0  0
  9 14  1  0  0  0  0
  9 10  1  0  0  0  0
 10 11  1  0  0  0  0
 10 28  1  0  0  0  0
 10 29  1  0  0  0  0
 11 12  1  0  0  0  0
 11 30  1  0  0  0  0
 11 31  1  0  0  0  0
 12 13  1  0  0  0  0
 13 14  1  0  0  0  0
 13 32  1  0  0  0  0
 13 33  1  0  0  0  0
 14 15  1  0  0  0  0
 14 34  1  0  0  0  0
 15 16  1  0  0  0  0
 15 17  2  0  0  0  0
 16 35  1  0  0  0  0
 16 36  1  0  0  0  0
M  CHG  1   5   1
M  END
> <s_m_source_file>
AV-unprocessed.smi

> <i_m_source_file_index>
2397

> <i_lp_mmshare_version>
43012

> <i_f3d_flags>
0

> <s_epik_input>
W0NIM11bQ0hdKFtDSDNdKWMxbltjSF1bY0hdYyhuMSlOMltDSDJdW0NIMl1PW0NIMl1bQ0BIXTJDKD1PKVtOSDJd

> <s_epik_cmdline>
J2VwaWtfcHl0aG9uJywgJy1waCcsICc3LjAnLCAnLXRuJywgJzgnLCAnLW1hJywgJzIwMCcsICctbWV0YWxfYmluZGluZycsICctaW1hZScsICc8aW5maWxlLm1hZT4nLCAnLW9tYWUnLCAnPG91dGZpbGUubWFlPic=

> <r_lp_tautomer_probability>
0.999336

> <r_epik_Ionization_Penalty>
1.74009

> <r_epik_Ionization_Penalty_Charging>
1.74009

> <r_epik_Ionization_Penalty_Neutral>
2.46902e-07

> <r_epik_State_Penalty>
1.8491

> <r_epik_Charging_Adjusted_Penalty>
3.5892

> <i_epik_Tot_Q>
1

> <i_epik_Tot_abs_Q>
1

> <r_epik_Metal_State_Penalty>
1.87997

> <b_epik_Metal_Only>
0

> <s_lp_Force_Field>
OPLS_2005

> <r_lp_Energy>
12.3684

> <b_lp_Chiralities_Consistent>
1

> <s_lp_Variant>
AV-unprocessed.smi:2397-3

> <Gold.Version>
5.8.1

> <Gold.Id.Protein>
6NUR|6NUR_protein|mol2

> <Gold.PLP.Fitness>
39.3579

> <Gold.PLP.PLP>
-29.7805

> <Gold.PLP.part.hbond>
-3.7546

> <Gold.PLP.part.metal>
0.0000

> <Gold.PLP.part.buried>
-2.4615

> <Gold.PLP.part.nonpolar>
-23.5437

> <Gold.PLP.part.repulsive>
0.7563

> <Gold.PLP.ligand.clash>
0.0000

> <Gold.PLP.ligand.torsion>
0.5572

> <Gold.PLP.Chemscore.Hbond>
3.4724

> <Gold.PLP.Chemscore.CHOScore>
0.0000

> <Gold.PLP.Chemscore.Metal>
0.0000

> <Gold.Chemscore.Hbonds>
donor molecule, donor type, donor heavy atom, donor atom, acceptor molecule, acceptor atom, score
      L1  H     5    37       P1  8029  1.20
      P1  H  7989  7998       L1    17  0.99
      P1  H  7997  8010       L1    12  0.71

> <Gold.PLP.Chemscore.Internal.Correction>
0.2745

> <Gold.Rescore>
     Score         DG    S(hbond)    S(metal)    S(lipo)     H(rot)  DE(clash)    DE(int)     intcor
     12.97     -14.12       1.76        0.00      62.27       1.77       0.02       1.13       ----

> <Gold.Chemscore.Fitness>
12.9749

> <Gold.Chemscore.DG>
-14.1228

> <Gold.Chemscore.ZeroCoef>
-5.4800

> <Gold.Chemscore.Hbond>
1.7643

> <Gold.Chemscore.Metal>
0.0000

> <Gold.Chemscore.Lipo>
62.2706

> <Gold.Chemscore.Internal_Hbond>
0.0000

> <Gold.Chemscore.DEClash>
0.0157

> <Gold.Chemscore.DEInternal>
1.1323

> <Gold.Chemscore.Rot>
1.7717

> <Gold.Chemscore.Internal.Correction>
   9.000000E+99

> <Gold.Chemscore.Hbonds>
donor molecule, donor type, donor heavy atom, donor atom, acceptor molecule, acceptor atom, score
      L1  H     5    37       P1  8029  0.24
      P1  H  7989  7998       L1    17  0.86
      P1  H  7997  8010       L1    12  0.09

> <Gold.Chemscore.Hbond.Weighted>
-5.8928

> <Gold.Chemscore.Metal.Weighted>
-0.0000

> <Gold.Chemscore.Lipo.Weighted>
-7.2857

> <Gold.Chemscore.Internal_Hbond.Weighted>
0.0000

> <Gold.Chemscore.DEClash.Weighted>
0.0157

> <Gold.Chemscore.DEInternal.Weighted>
1.1323

> <Gold.Chemscore.Rot.Weighted>
4.5357

> <Gold.Chemscore.Internal.Correction.Weighted>
   9.000000E+99

> <Gold.Protein.RotatedTorsions>
[ 6907 6896 6895 6894 ] final -120.28 input  -60.11 | X-H torsion
[ 7974 7965 7964 7962 ] final   98.88 input  175.53 | X-H torsion
[ 8008 7997 7996 7995 ] final   63.45 input   59.86 | X-H torsion
[ 10167 10162 10161 10158 ] final  -14.40 input  -65.29 | X-H torsion
[ 10718 10713 10712 10709 ] final  139.67 input   66.30 | X-H torsion
[ 10763 10752 10751 10750 ] final  -78.90 input  -60.55 | X-H torsion
[ 11005 11000 10999 10996 ] final  -79.35 input  -57.11 | X-H torsion

> <Gold.Protein.ActiveResidues>
 VAL166  LYS551  ARG553  GLY616  TRP617  ASP618  TYR619  PRO620  LYS621  CYS622 
 ASP623  PHE694  ASN695  SER759  ASP760  ASP761  ALA762  ILE779  LEU786  VAL792 
 PHE793  MET794  SER795  GLU796  ALA797  LYS798  CYS799  TRP800  GLU811  SER814 

> <Gold.Protein.RotatedAtoms>
  150.8379  133.7983  159.3072 H   0  0  0  0  0  0  0  0  0  0  0  0  # atno 6907 bound_to 6896
  151.5694  135.1061  160.0001 H   0  0  0  0  0  0  0  0  0  0  0  0  # atno 6908 bound_to 6896
  152.4448  133.7474  159.6731 H   0  0  0  0  0  0  0  0  0  0  0  0  # atno 6909 bound_to 6896
  145.4062  139.2340  143.3273 H   0  0  0  0  0  0  0  0  0  0  0  0  # atno 7974 bound_to 7965
  155.6304  140.3496  155.4681 H   0  0  0  0  0  0  0  0  0  0  0  0  # atno 8008 bound_to 7997
  156.0007  140.1213  157.0573 H   0  0  0  0  0  0  0  0  0  0  0  0  # atno 8009 bound_to 7997
  154.4248  140.1101  156.5679 H   0  0  0  0  0  0  0  0  0  0  0  0  # atno 8010 bound_to 7997
  140.7200  143.5325  150.9503 H   0  0  0  0  0  0  0  0  0  0  0  0  # atno 10167 bound_to 10162
  157.4118  131.1029  151.0446 H   0  0  0  0  0  0  0  0  0  0  0  0  # atno 10718 bound_to 10713
  154.5317  135.5714  153.6765 H   0  0  0  0  0  0  0  0  0  0  0  0  # atno 10763 bound_to 10752
  152.9941  135.6206  154.2619 H   0  0  0  0  0  0  0  0  0  0  0  0  # atno 10764 bound_to 10752
  154.2546  135.2858  155.2782 H   0  0  0  0  0  0  0  0  0  0  0  0  # atno 10765 bound_to 10752
  141.1667  133.7102  156.8109 H   0  0  0  0  0  0  0  0  0  0  0  0  # atno 11005 bound_to 11000
  146.2727  140.4767  142.8808 LP  0  0  0  0  0  0  0  0  0  0  0  0  # atno 17320 bound_to 7965
  144.8340  140.6752  143.6272 LP  0  0  0  0  0  0  0  0  0  0  0  0  # atno 17321 bound_to 7965
  139.9046  143.6794  152.3125 LP  0  0  0  0  0  0  0  0  0  0  0  0  # atno 17342 bound_to 10162
  139.7156  144.7612  151.1040 LP  0  0  0  0  0  0  0  0  0  0  0  0  # atno 17343 bound_to 10162
  157.1408  130.6142  149.5555 LP  0  0  0  0  0  0  0  0  0  0  0  0  # atno 17370 bound_to 10713
  155.9853  130.4882  150.7024 LP  0  0  0  0  0  0  0  0  0  0  0  0  # atno 17371 bound_to 10713
  140.2188  134.8772  157.3355 LP  0  0  0  0  0  0  0  0  0  0  0  0  # atno 17394 bound_to 11000
  140.2009  134.4256  155.7663 LP  0  0  0  0  0  0  0  0  0  0  0  0  # atno 17395 bound_to 11000

$$$$
