AV-unprocessed.smi:227|AV-procd|sdf|1730|dock7
  -GOLD-   2262020223D 1   1.00000     0.00000
 Structure written by MMmdl.
 54 58  0  0  0  0  0  0  0  0  1 V2000
  151.0989  140.5435  155.1234 O   0  0  0  0  0  0  0  0  0  0  0  0
  151.1718  141.3220  156.3003 C   0  0  0  0  0  0  0  0  0  0  0  0
  150.7377  140.5092  157.5450 C   0  0  1  0  0  0  0  0  0  0  0  0
  151.2482  139.0469  157.5132 C   0  0  0  0  0  0  0  0  0  0  0  0
  150.4225  138.1379  158.2891 N   0  0  0  0  0  0  0  0  0  0  0  0
  150.8239  137.3875  159.3689 C   0  0  0  0  0  0  0  0  0  0  0  0
  149.8933  136.6472  159.9049 N   0  0  0  0  0  0  0  0  0  0  0  0
  148.7601  136.9036  159.1399 C   0  0  0  0  0  0  0  0  0  0  0  0
  147.4077  136.4498  159.1670 C   0  0  0  0  0  0  0  0  0  0  0  0
  146.9077  135.5650  160.0745 N   0  0  0  0  0  0  0  0  0  0  0  0
  147.6324  135.2509  161.2955 C   0  0  1  0  0  0  0  0  0  0  0  0
  147.4518  136.5065  162.1712 C   0  0  0  0  0  0  0  0  0  0  0  0
  146.0311  136.9430  161.7793 C   0  0  0  0  0  0  0  0  0  0  0  0
  145.6510  135.8505  160.7564 C   0  0  2  0  0  0  0  0  0  0  0  0
  145.3615  134.5382  161.5142 C   0  0  1  0  0  0  0  0  0  0  0  0
  144.6021  133.5121  160.6541 C   0  0  0  0  0  0  0  0  0  0  0  0
  144.4513  132.2985  161.3597 O   0  0  0  0  0  0  0  0  0  0  0  0
  146.7950  134.1009  161.8800 C   0  0  0  0  0  0  0  0  0  0  0  0
  146.5767  136.9223  158.1998 N   0  0  0  0  0  0  0  0  0  0  0  0
  147.0173  137.7923  157.2877 C   0  0  0  0  0  0  0  0  0  0  0  0
  148.2377  138.3115  157.1541 N   0  0  0  0  0  0  0  0  0  0  0  0
  149.0850  137.8319  158.1080 C   0  0  0  0  0  0  0  0  0  0  0  0
  151.1168  141.2188  158.8693 C   0  0  2  0  0  0  0  0  0  0  0  0
  150.9133  142.7236  158.8684 C   0  0  0  0  0  0  0  0  0  0  0  0
  151.7737  143.1628  160.0474 C   0  0  0  0  0  0  0  0  0  0  0  0
  152.8743  142.2615  160.0719 O   0  0  0  0  0  0  0  0  0  0  0  0
  152.6022  141.1384  159.2389 C   0  0  0  0  0  0  0  0  0  0  0  0
  150.2406  140.1512  155.0745 H   0  0  0  0  0  0  0  0  0  0  0  0
  152.1921  141.6881  156.4120 H   0  0  0  0  0  0  0  0  0  0  0  0
  150.5500  142.2082  156.1733 H   0  0  0  0  0  0  0  0  0  0  0  0
  149.6481  140.4602  157.5100 H   0  0  0  0  0  0  0  0  0  0  0  0
  151.2985  138.6850  156.4855 H   0  0  0  0  0  0  0  0  0  0  0  0
  152.2619  138.9854  157.9088 H   0  0  0  0  0  0  0  0  0  0  0  0
  151.8344  137.4106  159.7506 H   0  0  0  0  0  0  0  0  0  0  0  0
  148.6731  134.9598  161.1685 H   0  0  0  0  0  0  0  0  0  0  0  0
  147.5526  136.2942  163.2361 H   0  0  0  0  0  0  0  0  0  0  0  0
  148.1781  137.2766  161.9077 H   0  0  0  0  0  0  0  0  0  0  0  0
  145.3493  136.9850  162.6292 H   0  0  0  0  0  0  0  0  0  0  0  0
  146.0480  137.9295  161.3141 H   0  0  0  0  0  0  0  0  0  0  0  0
  144.8278  136.1455  160.1043 H   0  0  0  0  0  0  0  0  0  0  0  0
  144.7752  134.7442  162.4111 H   0  0  0  0  0  0  0  0  0  0  0  0
  143.6099  133.8897  160.4048 H   0  0  0  0  0  0  0  0  0  0  0  0
  145.1205  133.3239  159.7132 H   0  0  0  0  0  0  0  0  0  0  0  0
  145.2507  132.1256  161.8333 H   0  0  0  0  0  0  0  0  0  0  0  0
  147.0597  133.1581  161.3993 H   0  0  0  0  0  0  0  0  0  0  0  0
  146.9384  133.9798  162.9543 H   0  0  0  0  0  0  0  0  0  0  0  0
  146.2877  138.1183  156.5611 H   0  0  0  0  0  0  0  0  0  0  0  0
  150.5325  140.7975  159.6891 H   0  0  0  0  0  0  0  0  0  0  0  0
  151.2930  143.1613  157.9439 H   0  0  0  0  0  0  0  0  0  0  0  0
  149.8700  143.0189  158.9845 H   0  0  0  0  0  0  0  0  0  0  0  0
  152.1053  144.1977  159.9615 H   0  0  0  0  0  0  0  0  0  0  0  0
  151.2193  143.0600  160.9812 H   0  0  0  0  0  0  0  0  0  0  0  0
  152.8540  140.2067  159.7463 H   0  0  0  0  0  0  0  0  0  0  0  0
  153.2284  141.2166  158.3493 H   0  0  0  0  0  0  0  0  0  0  0  0
  1  2  1  0  0  0  0
  1 28  1  0  0  0  0
  2  3  1  0  0  0  0
  2 29  1  0  0  0  0
  2 30  1  0  0  0  0
  3  4  1  0  0  0  0
  3 23  1  0  0  0  0
  3 31  1  0  0  0  0
  4  5  1  0  0  0  0
  4 32  1  0  0  0  0
  4 33  1  0  0  0  0
  5 22  1  0  0  0  0
  5  6  1  0  0  0  0
  6  7  2  0  0  0  0
  6 34  1  0  0  0  0
  7  8  1  0  0  0  0
  8 22  2  0  0  0  0
  8  9  1  0  0  0  0
  9 10  1  0  0  0  0
  9 19  2  0  0  0  0
 10 14  1  0  0  0  0
 10 11  1  0  0  0  0
 11 18  1  0  0  0  0
 11 12  1  0  0  0  0
 11 35  1  0  0  0  0
 12 13  1  0  0  0  0
 12 36  1  0  0  0  0
 12 37  1  0  0  0  0
 13 14  1  0  0  0  0
 13 38  1  0  0  0  0
 13 39  1  0  0  0  0
 14 15  1  0  0  0  0
 14 40  1  0  0  0  0
 15 16  1  0  0  0  0
 15 18  1  0  0  0  0
 15 41  1  0  0  0  0
 16 17  1  0  0  0  0
 16 42  1  0  0  0  0
 16 43  1  0  0  0  0
 17 44  1  0  0  0  0
 18 45  1  0  0  0  0
 18 46  1  0  0  0  0
 19 20  1  0  0  0  0
 20 21  2  0  0  0  0
 20 47  1  0  0  0  0
 21 22  1  0  0  0  0
 23 27  1  0  0  0  0
 23 24  1  0  0  0  0
 23 48  1  0  0  0  0
 24 25  1  0  0  0  0
 24 49  1  0  0  0  0
 24 50  1  0  0  0  0
 25 26  1  0  0  0  0
 25 51  1  0  0  0  0
 25 52  1  0  0  0  0
 26 27  1  0  0  0  0
 27 53  1  0  0  0  0
 27 54  1  0  0  0  0
M  END
> <s_m_source_file>
AV-unprocessed.smi

> <i_m_source_file_index>
227

> <i_lp_mmshare_version>
43012

> <i_f3d_flags>
0

> <s_epik_input>
W0NIMl0xT1tDSDJdW0NIMl1bQ0BIXTFbQ0BIXShbQ0gyXVtPSF0pW0NIMl1uKFtjSF1uMiljKGMyMyluW2NIXW5jM04oW0NASF00NSlbQ0BASF0oW0NIMl1bQ0gyXTQpW0NASF0oW0NIMl01KVtDSDJdW09IXQ==

> <s_epik_cmdline>
J2VwaWtfcHl0aG9uJywgJy1waCcsICc3LjAnLCAnLXRuJywgJzgnLCAnLW1hJywgJzIwMCcsICctbWV0YWxfYmluZGluZycsICctaW1hZScsICc8aW5maWxlLm1hZT4nLCAnLW9tYWUnLCAnPG91dGZpbGUubWFlPic=

> <r_lp_tautomer_probability>
1

> <r_epik_Ionization_Penalty>
0.0055791

> <r_epik_Ionization_Penalty_Charging>
0

> <r_epik_Ionization_Penalty_Neutral>
0.0055791

> <r_epik_State_Penalty>
0.00401299

> <r_epik_Charging_Adjusted_Penalty>
0.00401299

> <i_epik_Tot_Q>
0

> <i_epik_Tot_abs_Q>
0

> <r_epik_Metal_State_Penalty>
-0

> <b_epik_Metal_Only>
0

> <s_lp_Force_Field>
OPLS_2005

> <r_lp_Energy>
89.0098

> <b_lp_Chiralities_Consistent>
1

> <s_lp_Variant>
AV-unprocessed.smi:227-4

> <Gold.Version>
5.8.1

> <Gold.Id.Protein>
6NUR|6NUR_protein|mol2

> <Gold.PLP.Fitness>
48.3434

> <Gold.PLP.PLP>
-44.0985

> <Gold.PLP.part.hbond>
-3.6324

> <Gold.PLP.part.metal>
0.0000

> <Gold.PLP.part.buried>
-4.7708

> <Gold.PLP.part.nonpolar>
-35.1488

> <Gold.PLP.part.repulsive>
0.0000

> <Gold.PLP.ligand.clash>
0.0000

> <Gold.PLP.ligand.torsion>
0.8754

> <Gold.PLP.Chemscore.Hbond>
1.9337

> <Gold.PLP.Chemscore.CHOScore>
0.0000

> <Gold.PLP.Chemscore.Metal>
0.0000

> <Gold.Chemscore.Hbonds>
donor molecule, donor type, donor heavy atom, donor atom, acceptor molecule, acceptor atom, score
      P1  H  6896  6908       L1     7  0.85
      P1  H  7989  7998       L1     1  0.96

> <Gold.PLP.Chemscore.Internal.Correction>
0.1946

> <Gold.Rescore>
     Score         DG    S(hbond)    S(metal)    S(lipo)     H(rot)  DE(clash)    DE(int)     intcor
     10.74     -13.10       1.32        0.00     106.48       3.61       0.66       1.70       ----

> <Gold.Chemscore.Fitness>
10.7386

> <Gold.Chemscore.DG>
-13.0997

> <Gold.Chemscore.ZeroCoef>
-5.4800

> <Gold.Chemscore.Hbond>
1.3161

> <Gold.Chemscore.Metal>
0.0000

> <Gold.Chemscore.Lipo>
106.4810

> <Gold.Chemscore.Internal_Hbond>
0.0000

> <Gold.Chemscore.DEClash>
0.6634

> <Gold.Chemscore.DEInternal>
1.6978

> <Gold.Chemscore.Rot>
3.6071

> <Gold.Chemscore.Internal.Correction>
   9.000000E+99

> <Gold.Chemscore.Hbonds>
donor molecule, donor type, donor heavy atom, donor atom, acceptor molecule, acceptor atom, score
      P1  H  6896  6908       L1     7  0.14
      P1  H  7989  7998       L1     1  0.65

> <Gold.Chemscore.Hbond.Weighted>
-4.3956

> <Gold.Chemscore.Metal.Weighted>
-0.0000

> <Gold.Chemscore.Lipo.Weighted>
-12.4583

> <Gold.Chemscore.Internal_Hbond.Weighted>
0.0000

> <Gold.Chemscore.DEClash.Weighted>
0.6634

> <Gold.Chemscore.DEInternal.Weighted>
1.6978

> <Gold.Chemscore.Rot.Weighted>
9.2342

> <Gold.Chemscore.Internal.Correction.Weighted>
   9.000000E+99

> <Gold.Protein.RotatedTorsions>
[ 6907 6896 6895 6894 ] final -168.32 input  -60.11 | X-H torsion
[ 7974 7965 7964 7962 ] final   54.78 input  175.53 | X-H torsion
[ 8008 7997 7996 7995 ] final   38.07 input   59.86 | X-H torsion
[ 10167 10162 10161 10158 ] final  -43.31 input  -65.29 | X-H torsion
[ 10718 10713 10712 10709 ] final  137.77 input   66.30 | X-H torsion
[ 10763 10752 10751 10750 ] final  -16.97 input  -60.55 | X-H torsion
[ 11005 11000 10999 10996 ] final   28.18 input  -57.11 | X-H torsion

> <Gold.Protein.ActiveResidues>
 VAL166  LYS551  ARG553  GLY616  TRP617  ASP618  TYR619  PRO620  LYS621  CYS622 
 ASP623  PHE694  ASN695  SER759  ASP760  ASP761  ALA762  ILE779  LEU786  VAL792 
 PHE793  MET794  SER795  GLU796  ALA797  LYS798  CYS799  TRP800  GLU811  SER814 

> <Gold.Protein.RotatedAtoms>
  151.4736  133.3563  159.2827 H   0  0  0  0  0  0  0  0  0  0  0  0  # atno 6907 bound_to 6896
  150.8944  134.8353  159.7327 H   0  0  0  0  0  0  0  0  0  0  0  0  # atno 6908 bound_to 6896
  152.4842  134.4650  159.9669 H   0  0  0  0  0  0  0  0  0  0  0  0  # atno 6909 bound_to 6896
  145.9573  139.4026  143.0269 H   0  0  0  0  0  0  0  0  0  0  0  0  # atno 7974 bound_to 7965
  155.2141  140.3326  155.4324 H   0  0  0  0  0  0  0  0  0  0  0  0  # atno 8008 bound_to 7997
  156.2359  140.1872  156.7169 H   0  0  0  0  0  0  0  0  0  0  0  0  # atno 8009 bound_to 7997
  154.6058  140.0616  156.9415 H   0  0  0  0  0  0  0  0  0  0  0  0  # atno 8010 bound_to 7997
  140.6938  143.2990  151.3334 H   0  0  0  0  0  0  0  0  0  0  0  0  # atno 10167 bound_to 10162
  157.4325  131.1050  151.0234 H   0  0  0  0  0  0  0  0  0  0  0  0  # atno 10718 bound_to 10713
  153.5667  135.7008  153.5523 H   0  0  0  0  0  0  0  0  0  0  0  0  # atno 10763 bound_to 10752
  153.3381  135.4028  155.1549 H   0  0  0  0  0  0  0  0  0  0  0  0  # atno 10764 bound_to 10752
  154.8639  135.3735  154.5187 H   0  0  0  0  0  0  0  0  0  0  0  0  # atno 10765 bound_to 10752
  140.3184  134.2571  155.7721 H   0  0  0  0  0  0  0  0  0  0  0  0  # atno 11005 bound_to 11000
  145.8089  140.9735  143.0959 LP  0  0  0  0  0  0  0  0  0  0  0  0  # atno 17320 bound_to 7965
  144.6807  139.9895  143.7484 LP  0  0  0  0  0  0  0  0  0  0  0  0  # atno 17321 bound_to 7965
  139.6370  144.0612  152.2524 LP  0  0  0  0  0  0  0  0  0  0  0  0  # atno 17342 bound_to 10162
  140.0105  144.6227  150.7652 LP  0  0  0  0  0  0  0  0  0  0  0  0  # atno 17343 bound_to 10162
  157.1125  130.6028  149.5485 LP  0  0  0  0  0  0  0  0  0  0  0  0  # atno 17370 bound_to 10713
  155.9918  130.4974  150.7316 LP  0  0  0  0  0  0  0  0  0  0  0  0  # atno 17371 bound_to 10713
  141.2092  133.7755  157.0010 LP  0  0  0  0  0  0  0  0  0  0  0  0  # atno 17394 bound_to 11000
  140.0963  134.9562  157.1855 LP  0  0  0  0  0  0  0  0  0  0  0  0  # atno 17395 bound_to 11000

$$$$
