AV-unprocessed.smi:105|AV-procd|sdf|1010|dock9
  -GOLD-   2262018 13D 1   1.00000     0.00000
 Structure written by MMmdl.
 42 45  0  0  0  0  0  0  0  0  1 V2000
  145.7143  136.2669  151.9460 C   0  0  0  0  0  0  0  0  0  0  0  0
  146.1316  137.4567  151.3185 C   0  0  0  0  0  0  0  0  0  0  0  0
  146.8416  138.4281  152.0511 C   0  0  0  0  0  0  0  0  0  0  0  0
  147.1375  138.2110  153.4130 C   0  0  0  0  0  0  0  0  0  0  0  0
  147.8920  139.2601  154.2027 C   0  0  0  0  0  0  0  0  0  0  0  0
  149.2485  139.4647  153.7144 N   0  0  0  0  0  0  0  0  0  0  0  0
  150.2801  139.5150  154.5841 C   0  0  0  0  0  0  0  0  0  0  0  0
  151.3256  138.6526  154.4811 N   0  0  0  0  0  0  0  0  0  0  0  0
  152.3358  138.7184  155.3545 C   0  0  0  0  0  0  0  0  0  0  0  0
  152.4964  139.5522  156.3851 N   0  0  0  0  0  0  0  0  0  0  0  0
  151.4470  140.4177  156.4899 C   0  0  0  0  0  0  0  0  0  0  0  0
  150.3092  140.4669  155.6361 C   0  0  0  0  0  0  0  0  0  0  0  0
  149.4486  141.4776  156.0443 N   0  0  0  0  0  0  0  0  0  0  0  0
  150.0435  141.9969  157.0840 C   0  0  0  0  0  0  0  0  0  0  0  0
  151.2497  141.4220  157.4217 N   0  0  0  0  0  0  0  0  0  0  0  0
  152.1153  141.7944  158.5270 C   0  0  1  0  0  0  0  0  0  0  0  0
  151.5155  142.9496  159.3530 C   0  0  0  0  0  0  0  0  0  0  0  0
  152.4726  143.2650  160.5086 C   0  0  0  0  0  0  0  0  0  0  0  0
  152.7082  141.9961  161.3339 C   0  0  0  0  0  0  0  0  0  0  0  0
  153.1880  140.8602  160.4150 C   0  0  0  0  0  0  0  0  0  0  0  0
  152.2587  140.6734  159.3503 O   0  0  0  0  0  0  0  0  0  0  0  0
  146.7172  137.0190  154.0391 C   0  0  0  0  0  0  0  0  0  0  0  0
  146.0070  136.0482  153.3061 C   0  0  0  0  0  0  0  0  0  0  0  0
  145.1691  135.5225  151.3844 H   0  0  0  0  0  0  0  0  0  0  0  0
  145.9062  137.6243  150.2756 H   0  0  0  0  0  0  0  0  0  0  0  0
  147.1577  139.3401  151.5659 H   0  0  0  0  0  0  0  0  0  0  0  0
  147.3433  140.2023  154.1606 H   0  0  0  0  0  0  0  0  0  0  0  0
  147.9245  138.9556  155.2497 H   0  0  0  0  0  0  0  0  0  0  0  0
  149.3529  139.5813  152.7166 H   0  0  0  0  0  0  0  0  0  0  0  0
  153.1287  138.0000  155.2065 H   0  0  0  0  0  0  0  0  0  0  0  0
  149.6154  142.8189  157.6395 H   0  0  0  0  0  0  0  0  0  0  0  0
  153.0909  142.0629  158.1174 H   0  0  0  0  0  0  0  0  0  0  0  0
  151.3827  143.8205  158.7100 H   0  0  0  0  0  0  0  0  0  0  0  0
  150.5341  142.6572  159.7289 H   0  0  0  0  0  0  0  0  0  0  0  0
  153.4202  143.6385  160.1183 H   0  0  0  0  0  0  0  0  0  0  0  0
  152.0584  144.0538  161.1371 H   0  0  0  0  0  0  0  0  0  0  0  0
  153.4398  142.1831  162.1206 H   0  0  0  0  0  0  0  0  0  0  0  0
  151.7817  141.7012  161.8283 H   0  0  0  0  0  0  0  0  0  0  0  0
  154.1789  141.0768  160.0124 H   0  0  0  0  0  0  0  0  0  0  0  0
  153.2706  139.9309  160.9786 H   0  0  0  0  0  0  0  0  0  0  0  0
  146.9365  136.8470  155.0828 H   0  0  0  0  0  0  0  0  0  0  0  0
  145.6858  135.1361  153.7875 H   0  0  0  0  0  0  0  0  0  0  0  0
  1 23  1  0  0  0  0
  1  2  2  0  0  0  0
  1 24  1  0  0  0  0
  2  3  1  0  0  0  0
  2 25  1  0  0  0  0
  3  4  2  0  0  0  0
  3 26  1  0  0  0  0
  4  5  1  0  0  0  0
  4 22  1  0  0  0  0
  5  6  1  0  0  0  0
  5 27  1  0  0  0  0
  5 28  1  0  0  0  0
  6  7  1  0  0  0  0
  6 29  1  0  0  0  0
  7 12  1  0  0  0  0
  7  8  2  0  0  0  0
  8  9  1  0  0  0  0
  9 10  2  0  0  0  0
  9 30  1  0  0  0  0
 10 11  1  0  0  0  0
 11 15  1  0  0  0  0
 11 12  2  0  0  0  0
 12 13  1  0  0  0  0
 13 14  2  0  0  0  0
 14 15  1  0  0  0  0
 14 31  1  0  0  0  0
 15 16  1  0  0  0  0
 16 21  1  0  0  0  0
 16 17  1  0  0  0  0
 16 32  1  0  0  0  0
 17 18  1  0  0  0  0
 17 33  1  0  0  0  0
 17 34  1  0  0  0  0
 18 19  1  0  0  0  0
 18 35  1  0  0  0  0
 18 36  1  0  0  0  0
 19 20  1  0  0  0  0
 19 37  1  0  0  0  0
 19 38  1  0  0  0  0
 20 21  1  0  0  0  0
 20 39  1  0  0  0  0
 20 40  1  0  0  0  0
 22 23  2  0  0  0  0
 22 41  1  0  0  0  0
 23 42  1  0  0  0  0
M  END
> <s_m_source_file>
AV-unprocessed.smi

> <i_m_source_file_index>
105

> <i_lp_mmshare_version>
43012

> <i_f3d_flags>
0

> <s_epik_input>
W2NIXTFbY0hdW2NIXVtjSF1bY0hdYzFbQ0gyXVtOSF1jKG5bY0hdbjIpYyhjMjMpbltjSF1uM1tDQEBIXTRbQ0gyXVtDSDJdW0NIMl1bQ0gyXU80

> <s_epik_cmdline>
J2VwaWtfcHl0aG9uJywgJy1waCcsICc3LjAnLCAnLXRuJywgJzgnLCAnLW1hJywgJzIwMCcsICctbWV0YWxfYmluZGluZycsICctaW1hZScsICc8aW5maWxlLm1hZT4nLCAnLW9tYWUnLCAnPG91dGZpbGUubWFlPic=

> <r_lp_tautomer_probability>
1

> <r_epik_Ionization_Penalty>
0.000653933

> <r_epik_Ionization_Penalty_Charging>
0

> <r_epik_Ionization_Penalty_Neutral>
0.000653933

> <r_epik_State_Penalty>
-0

> <r_epik_Charging_Adjusted_Penalty>
0

> <i_epik_Tot_Q>
0

> <i_epik_Tot_abs_Q>
0

> <r_epik_Metal_State_Penalty>
-0

> <b_epik_Metal_Only>
0

> <s_epik_Chemistry_Notes>
This compound contains an acetal/aminal-like group ( X-CH(R)-Y where X, Y are N, S, or O) that may be acid/base labile, releasing an aldehyde.

> <s_lp_Force_Field>
OPLS_2005

> <r_lp_Energy>
23.9687

> <b_lp_Chiralities_Consistent>
1

> <s_lp_Variant>
AV-unprocessed.smi:105-2

> <Gold.Version>
5.8.1

> <Gold.Id.Protein>
6NUR|6NUR_protein|mol2

> <Gold.PLP.Fitness>
49.3873

> <Gold.PLP.PLP>
-42.8449

> <Gold.PLP.part.hbond>
-1.9873

> <Gold.PLP.part.metal>
0.0000

> <Gold.PLP.part.buried>
-0.3873

> <Gold.PLP.part.nonpolar>
-40.8400

> <Gold.PLP.part.repulsive>
0.5947

> <Gold.PLP.ligand.clash>
0.0000

> <Gold.PLP.ligand.torsion>
0.6329

> <Gold.PLP.Chemscore.Hbond>
1.9913

> <Gold.PLP.Chemscore.CHOScore>
0.6069

> <Gold.PLP.Chemscore.Metal>
0.0000

> <Gold.Chemscore.Hbonds>
donor molecule, donor type, donor heavy atom, donor atom, acceptor molecule, acceptor atom, score
      L1  H     6    29       P1  7957  1.00
      P1  H  7997  8008       L1    10  1.00
      L1  C    14    31       P1  8028  0.13

> <Gold.PLP.Chemscore.Internal.Correction>
0.0138

> <Gold.Rescore>
     Score         DG    S(hbond)    S(metal)    S(lipo)     H(rot)  DE(clash)    DE(int)     intcor
     16.36     -17.20       1.88        0.00      80.44       1.55       0.10       0.73       ----

> <Gold.Chemscore.Fitness>
16.3593

> <Gold.Chemscore.DG>
-17.1959

> <Gold.Chemscore.ZeroCoef>
-5.4800

> <Gold.Chemscore.Hbond>
1.8815

> <Gold.Chemscore.Metal>
0.0000

> <Gold.Chemscore.Lipo>
80.4425

> <Gold.Chemscore.Internal_Hbond>
0.0000

> <Gold.Chemscore.DEClash>
0.1024

> <Gold.Chemscore.DEInternal>
0.7342

> <Gold.Chemscore.Rot>
1.5547

> <Gold.Chemscore.Internal.Correction>
   9.000000E+99

> <Gold.Chemscore.Hbonds>
donor molecule, donor type, donor heavy atom, donor atom, acceptor molecule, acceptor atom, score
      L1  H     6    29       P1  7957  1.00
      P1  H  7997  8008       L1    10  0.65

> <Gold.Chemscore.Hbond.Weighted>
-6.2841

> <Gold.Chemscore.Metal.Weighted>
-0.0000

> <Gold.Chemscore.Lipo.Weighted>
-9.4118

> <Gold.Chemscore.Internal_Hbond.Weighted>
0.0000

> <Gold.Chemscore.DEClash.Weighted>
0.1024

> <Gold.Chemscore.DEInternal.Weighted>
0.7342

> <Gold.Chemscore.Rot.Weighted>
3.9800

> <Gold.Chemscore.Internal.Correction.Weighted>
   9.000000E+99

> <Gold.Protein.RotatedTorsions>
[ 6907 6896 6895 6894 ] final  -30.05 input  -60.11 | X-H torsion
[ 7974 7965 7964 7962 ] final -138.90 input  175.53 | X-H torsion
[ 8008 7997 7996 7995 ] final  -46.56 input   59.86 | X-H torsion
[ 10167 10162 10161 10158 ] final -134.23 input  -65.29 | X-H torsion
[ 10718 10713 10712 10709 ] final  -48.00 input   66.30 | X-H torsion
[ 10763 10752 10751 10750 ] final   45.05 input  -60.55 | X-H torsion
[ 11005 11000 10999 10996 ] final -121.21 input  -57.11 | X-H torsion

> <Gold.Protein.ActiveResidues>
 VAL166  LYS551  ARG553  GLY616  TRP617  ASP618  TYR619  PRO620  LYS621  CYS622 
 ASP623  PHE694  ASN695  SER759  ASP760  ASP761  ALA762  ILE779  LEU786  VAL792 
 PHE793  MET794  SER795  GLU796  ALA797  LYS798  CYS799  TRP800  GLU811  SER814 

> <Gold.Protein.RotatedAtoms>
  151.1108  135.0025  159.8492 H   0  0  0  0  0  0  0  0  0  0  0  0  # atno 6907 bound_to 6896
  152.5443  134.1838  159.8656 H   0  0  0  0  0  0  0  0  0  0  0  0  # atno 6908 bound_to 6896
  151.1888  133.4635  159.2628 H   0  0  0  0  0  0  0  0  0  0  0  0  # atno 6909 bound_to 6896
  144.8721  140.6382  143.5260 H   0  0  0  0  0  0  0  0  0  0  0  0  # atno 7974 bound_to 7965
  154.4008  140.1368  156.4031 H   0  0  0  0  0  0  0  0  0  0  0  0  # atno 8008 bound_to 7997
  155.7805  140.3481  155.5274 H   0  0  0  0  0  0  0  0  0  0  0  0  # atno 8009 bound_to 7997
  155.8678  140.0967  157.1561 H   0  0  0  0  0  0  0  0  0  0  0  0  # atno 8010 bound_to 7997
  139.8902  143.6732  152.2613 H   0  0  0  0  0  0  0  0  0  0  0  0  # atno 10167 bound_to 10162
  156.2029  130.4157  149.9216 H   0  0  0  0  0  0  0  0  0  0  0  0  # atno 10718 bound_to 10713
  152.9831  135.6051  154.3373 H   0  0  0  0  0  0  0  0  0  0  0  0  # atno 10763 bound_to 10752
  154.3072  135.2772  155.2585 H   0  0  0  0  0  0  0  0  0  0  0  0  # atno 10764 bound_to 10752
  154.4810  135.5917  153.6446 H   0  0  0  0  0  0  0  0  0  0  0  0  # atno 10765 bound_to 10752
  141.0087  134.0296  157.3442 H   0  0  0  0  0  0  0  0  0  0  0  0  # atno 11005 bound_to 11000
  145.4111  139.1580  143.4125 LP  0  0  0  0  0  0  0  0  0  0  0  0  # atno 17320 bound_to 7965
  146.2937  140.4215  142.8730 LP  0  0  0  0  0  0  0  0  0  0  0  0  # atno 17321 bound_to 7965
  139.7117  144.7619  151.1102 LP  0  0  0  0  0  0  0  0  0  0  0  0  # atno 17342 bound_to 10162
  140.7728  143.5323  150.9409 LP  0  0  0  0  0  0  0  0  0  0  0  0  # atno 17343 bound_to 10162
  156.6919  130.8899  151.3589 LP  0  0  0  0  0  0  0  0  0  0  0  0  # atno 17370 bound_to 10713
  157.6996  130.9319  150.0746 LP  0  0  0  0  0  0  0  0  0  0  0  0  # atno 17371 bound_to 10713
  139.9078  135.0183  156.7560 LP  0  0  0  0  0  0  0  0  0  0  0  0  # atno 17394 bound_to 11000
  140.6769  133.9509  155.7888 LP  0  0  0  0  0  0  0  0  0  0  0  0  # atno 17395 bound_to 11000

$$$$
