AV-unprocessed.smi:2791|AV-procd|sdf|10771|dock1
  -GOLD-   2272015203D 1   1.00000     0.00000
 Structure written by MMmdl.
 35 36  0  0  0  0  0  0  0  0  1 V2000
  149.5177  128.5692  153.7920 C   0  0  0  0  0  0  0  0  0  0  0  0
  148.4658  129.0312  152.9547 O   0  0  0  0  0  0  0  0  0  0  0  0
  147.8364  128.0433  152.1378 C   0  0  0  0  0  0  0  0  0  0  0  0
  146.6377  128.6150  151.3683 C   0  0  0  0  0  0  0  0  0  0  0  0
  146.8558  130.0179  151.0423 N   0  0  0  0  0  0  0  0  0  0  0  0
  145.9099  130.9636  151.0983 C   0  0  0  0  0  0  0  0  0  0  0  0
  144.7477  130.7378  151.4364 O   0  0  0  0  0  0  0  0  0  0  0  0
  146.4004  132.1622  150.7374 N   0  0  0  0  0  0  0  0  0  0  0  0
  145.7553  133.3567  150.6636 C   0  0  0  0  0  0  0  0  0  0  0  0
  146.1747  134.5887  151.0864 C   0  0  0  0  0  0  0  0  0  0  0  0
  145.0782  135.4257  150.7314 C   0  0  0  0  0  0  0  0  0  0  0  0
  144.0874  134.7646  150.1456 N   0  0  0  0  0  0  0  0  0  0  0  0
  144.5037  133.4802  150.1006 N   0  0  0  0  0  0  0  0  0  0  0  0
  143.6545  132.4620  149.5136 C   0  0  0  0  0  0  0  0  0  0  0  0
  148.9332  127.3283  151.3261 C   0  0  0  0  0  0  0  0  0  0  0  0
  148.2865  125.9935  151.7002 C   0  0  0  0  0  0  0  0  0  0  0  0
  147.6641  126.7129  152.8981 C   0  0  0  0  0  0  0  0  0  0  0  0
  149.9922  129.4236  154.2740 H   0  0  0  0  0  0  0  0  0  0  0  0
  150.2856  128.0385  153.2289 H   0  0  0  0  0  0  0  0  0  0  0  0
  149.1483  127.9160  154.5822 H   0  0  0  0  0  0  0  0  0  0  0  0
  146.4862  128.0606  150.4408 H   0  0  0  0  0  0  0  0  0  0  0  0
  145.7128  128.5074  151.9357 H   0  0  0  0  0  0  0  0  0  0  0  0
  147.7888  130.2808  150.7601 H   0  0  0  0  0  0  0  0  0  0  0  0
  147.3744  132.1821  150.4732 H   0  0  0  0  0  0  0  0  0  0  0  0
  147.1008  134.8662  151.5661 H   0  0  0  0  0  0  0  0  0  0  0  0
  144.9731  136.4903  150.8794 H   0  0  0  0  0  0  0  0  0  0  0  0
  143.4777  131.6688  150.2405 H   0  0  0  0  0  0  0  0  0  0  0  0
  144.1438  132.0387  148.6363 H   0  0  0  0  0  0  0  0  0  0  0  0
  142.6953  132.8866  149.2144 H   0  0  0  0  0  0  0  0  0  0  0  0
  148.9323  127.5450  150.2574 H   0  0  0  0  0  0  0  0  0  0  0  0
  149.9307  127.4429  151.7546 H   0  0  0  0  0  0  0  0  0  0  0  0
  147.5452  125.6612  150.9714 H   0  0  0  0  0  0  0  0  0  0  0  0
  148.9891  125.2002  151.9569 H   0  0  0  0  0  0  0  0  0  0  0  0
  148.2852  126.6411  153.7929 H   0  0  0  0  0  0  0  0  0  0  0  0
  146.6303  126.4343  153.1048 H   0  0  0  0  0  0  0  0  0  0  0  0
  1  2  1  0  0  0  0
  1 18  1  0  0  0  0
  1 19  1  0  0  0  0
  1 20  1  0  0  0  0
  2  3  1  0  0  0  0
  3 17  1  0  0  0  0
  3  4  1  0  0  0  0
  3 15  1  0  0  0  0
  4  5  1  0  0  0  0
  4 21  1  0  0  0  0
  4 22  1  0  0  0  0
  5  6  1  0  0  0  0
  5 23  1  0  0  0  0
  6  7  2  0  0  0  0
  6  8  1  0  0  0  0
  8  9  1  0  0  0  0
  8 24  1  0  0  0  0
  9 13  1  0  0  0  0
  9 10  2  0  0  0  0
 10 11  1  0  0  0  0
 10 25  1  0  0  0  0
 11 12  2  0  0  0  0
 11 26  1  0  0  0  0
 12 13  1  0  0  0  0
 13 14  1  0  0  0  0
 14 27  1  0  0  0  0
 14 28  1  0  0  0  0
 14 29  1  0  0  0  0
 15 16  1  0  0  0  0
 15 30  1  0  0  0  0
 15 31  1  0  0  0  0
 16 17  1  0  0  0  0
 16 32  1  0  0  0  0
 16 33  1  0  0  0  0
 17 34  1  0  0  0  0
 17 35  1  0  0  0  0
M  END
> <s_m_source_file>
AV-unprocessed.smi

> <i_m_source_file_index>
2791

> <i_lp_mmshare_version>
43012

> <i_f3d_flags>
0

> <s_epik_input>
W0NIMl0xW0NIMl1bQ0gyXUMxKE9bQ0gzXSlbQ0gyXVtOSF1DKD1PKVtOSF1jMltjSF1bY0hdbm4yW0NIM10=

> <s_epik_cmdline>
J2VwaWtfcHl0aG9uJywgJy1waCcsICc3LjAnLCAnLXRuJywgJzgnLCAnLW1hJywgJzIwMCcsICctbWV0YWxfYmluZGluZycsICctaW1hZScsICc8aW5maWxlLm1hZT4nLCAnLW9tYWUnLCAnPG91dGZpbGUubWFlPic=

> <r_lp_tautomer_probability>
1

> <r_epik_Ionization_Penalty>
4.34911e-05

> <r_epik_Ionization_Penalty_Charging>
0

> <r_epik_Ionization_Penalty_Neutral>
4.34911e-05

> <r_epik_State_Penalty>
-0

> <r_epik_Charging_Adjusted_Penalty>
0

> <i_epik_Tot_Q>
0

> <i_epik_Tot_abs_Q>
0

> <r_epik_Metal_State_Penalty>
-0

> <b_epik_Metal_Only>
0

> <s_lp_Force_Field>
OPLS_2005

> <r_lp_Energy>
18.0019

> <b_lp_Chiralities_Consistent>
1

> <s_lp_Variant>
AV-unprocessed.smi:2791-1

> <Gold.Version>
5.8.1

> <Gold.Id.Protein>
6NUR|6NUR_protein|mol2

> <Gold.PLP.Fitness>
37.0545

> <Gold.PLP.PLP>
-32.2626

> <Gold.PLP.part.hbond>
-1.5556

> <Gold.PLP.part.metal>
0.0000

> <Gold.PLP.part.buried>
-4.8274

> <Gold.PLP.part.nonpolar>
-28.4370

> <Gold.PLP.part.repulsive>
0.7432

> <Gold.PLP.ligand.clash>
0.0000

> <Gold.PLP.ligand.torsion>
1.0767

> <Gold.PLP.Chemscore.Hbond>
1.3553

> <Gold.PLP.Chemscore.CHOScore>
0.8556

> <Gold.PLP.Chemscore.Metal>
0.0000

> <Gold.Chemscore.Hbonds>
donor molecule, donor type, donor heavy atom, donor atom, acceptor molecule, acceptor atom, score
      L1  H     5    23       P1 10747  0.63
      L1  H     8    24       P1 10747  0.69
      L1  C    11    26       P1 10171  0.84

> <Gold.PLP.Chemscore.Internal.Correction>
0.3126

> <Gold.Rescore>
     Score         DG    S(hbond)    S(metal)    S(lipo)     H(rot)  DE(clash)    DE(int)     intcor
     13.32     -15.54       1.86        0.00      66.51       1.53       0.07       2.15       ----

> <Gold.Chemscore.Fitness>
13.3208

> <Gold.Chemscore.DG>
-15.5414

> <Gold.Chemscore.ZeroCoef>
-5.4800

> <Gold.Chemscore.Hbond>
1.8582

> <Gold.Chemscore.Metal>
0.0000

> <Gold.Chemscore.Lipo>
66.5116

> <Gold.Chemscore.Internal_Hbond>
0.0000

> <Gold.Chemscore.DEClash>
0.0673

> <Gold.Chemscore.DEInternal>
2.1534

> <Gold.Chemscore.Rot>
1.5339

> <Gold.Chemscore.Internal.Correction>
   9.000000E+99

> <Gold.Chemscore.Hbonds>
donor molecule, donor type, donor heavy atom, donor atom, acceptor molecule, acceptor atom, score
      L1  H     5    23       P1 10747  0.65
      L1  H     8    24       P1 10747  0.66

> <Gold.Chemscore.Hbond.Weighted>
-6.2063

> <Gold.Chemscore.Metal.Weighted>
-0.0000

> <Gold.Chemscore.Lipo.Weighted>
-7.7819

> <Gold.Chemscore.Internal_Hbond.Weighted>
0.0000

> <Gold.Chemscore.DEClash.Weighted>
0.0673

> <Gold.Chemscore.DEInternal.Weighted>
2.1534

> <Gold.Chemscore.Rot.Weighted>
3.9267

> <Gold.Chemscore.Internal.Correction.Weighted>
   9.000000E+99

> <Gold.Protein.RotatedTorsions>
[ 6907 6896 6895 6894 ] final  -41.02 input  -60.11 | X-H torsion
[ 7974 7965 7964 7962 ] final -175.17 input  175.53 | X-H torsion
[ 8008 7997 7996 7995 ] final  138.00 input   59.86 | X-H torsion
[ 10167 10162 10161 10158 ] final  152.55 input  -65.29 | X-H torsion
[ 10718 10713 10712 10709 ] final   64.76 input   66.30 | X-H torsion
[ 10763 10752 10751 10750 ] final   72.41 input  -60.55 | X-H torsion
[ 11005 11000 10999 10996 ] final   79.86 input  -57.11 | X-H torsion

> <Gold.Protein.ActiveResidues>
 VAL166  LYS551  ARG553  GLY616  TRP617  ASP618  TYR619  PRO620  LYS621  CYS622 
 ASP623  PHE694  ASN695  SER759  ASP760  ASP761  ALA762  ILE779  LEU786  VAL792 
 PHE793  MET794  SER795  GLU796  ALA797  LYS798  CYS799  TRP800  GLU811  SER814 

> <Gold.Protein.RotatedAtoms>
  150.9716  134.9087  159.7790 H   0  0  0  0  0  0  0  0  0  0  0  0  # atno 6907 bound_to 6896
  152.5192  134.3533  159.9269 H   0  0  0  0  0  0  0  0  0  0  0  0  # atno 6908 bound_to 6896
  151.3542  133.3873  159.2718 H   0  0  0  0  0  0  0  0  0  0  0  0  # atno 6909 bound_to 6896
  144.7129  140.1361  143.6395 H   0  0  0  0  0  0  0  0  0  0  0  0  # atno 7974 bound_to 7965
  156.3000  140.2405  156.4001 H   0  0  0  0  0  0  0  0  0  0  0  0  # atno 8008 bound_to 7997
  154.8534  140.0423  157.1639 H   0  0  0  0  0  0  0  0  0  0  0  0  # atno 8009 bound_to 7997
  154.8973  140.2972  155.5341 H   0  0  0  0  0  0  0  0  0  0  0  0  # atno 8010 bound_to 7997
  139.4832  144.5348  151.7663 H   0  0  0  0  0  0  0  0  0  0  0  0  # atno 10167 bound_to 10162
  157.6061  130.9177  149.9887 H   0  0  0  0  0  0  0  0  0  0  0  0  # atno 10718 bound_to 10713
  153.0457  135.5101  154.7740 H   0  0  0  0  0  0  0  0  0  0  0  0  # atno 10763 bound_to 10752
  154.6641  135.2943  154.9830 H   0  0  0  0  0  0  0  0  0  0  0  0  # atno 10764 bound_to 10752
  154.0670  135.6683  153.4872 H   0  0  0  0  0  0  0  0  0  0  0  0  # atno 10765 bound_to 10752
  139.9156  134.7875  156.1833 H   0  0  0  0  0  0  0  0  0  0  0  0  # atno 11005 bound_to 11000
  145.9244  139.2566  143.1362 LP  0  0  0  0  0  0  0  0  0  0  0  0  # atno 17320 bound_to 7965
  145.9587  140.8852  143.0222 LP  0  0  0  0  0  0  0  0  0  0  0  0  # atno 17321 bound_to 7965
  140.4879  144.1353  150.5944 LP  0  0  0  0  0  0  0  0  0  0  0  0  # atno 17342 bound_to 10162
  140.4204  143.2614  151.9722 LP  0  0  0  0  0  0  0  0  0  0  0  0  # atno 17343 bound_to 10162
  156.1148  130.3648  149.9988 LP  0  0  0  0  0  0  0  0  0  0  0  0  # atno 17370 bound_to 10713
  156.8079  130.9314  151.3645 LP  0  0  0  0  0  0  0  0  0  0  0  0  # atno 17371 bound_to 10713
  141.0628  133.6833  156.1987 LP  0  0  0  0  0  0  0  0  0  0  0  0  # atno 17394 bound_to 11000
  140.6633  134.4945  157.5584 LP  0  0  0  0  0  0  0  0  0  0  0  0  # atno 17395 bound_to 11000

$$$$
