AV-unprocessed.smi:1517|AV-procd|sdf|6123|dock5
  -GOLD-   22720 6263D 1   1.00000     0.00000
 Structure written by MMmdl.
 41 43  0  0  0  0  0  0  0  0  1 V2000
  153.5839  136.3518  156.9604 O   0  0  0  0  0  0  0  0  0  0  0  0
  152.9785  137.6155  157.1230 C   0  0  0  0  0  0  0  0  0  0  0  0
  152.7876  138.2744  155.7515 C   0  0  0  0  0  0  0  0  0  0  0  0
  152.0615  139.5264  155.8508 N   0  0  0  0  0  0  0  0  0  0  0  0
  150.8364  139.9393  155.3401 C   0  0  0  0  0  0  0  0  0  0  0  0
  150.0443  139.1685  154.5969 N   0  0  0  0  0  0  0  0  0  0  0  0
  148.9723  140.0040  154.3467 C   0  0  0  0  0  0  0  0  0  0  0  0
  147.7874  139.7811  153.6091 C   0  0  0  0  0  0  0  0  0  0  0  0
  146.8189  140.7994  153.4889 C   0  0  0  0  0  0  0  0  0  0  0  0
  147.0195  142.0522  154.1042 C   0  0  0  0  0  0  0  0  0  0  0  0
  148.1928  142.2963  154.8438 C   0  0  0  0  0  0  0  0  0  0  0  0
  149.1575  141.2776  154.9594 C   0  0  0  0  0  0  0  0  0  0  0  0
  150.3922  141.1932  155.5956 N   0  0  0  0  0  0  0  0  0  0  0  0
  151.0391  142.2509  156.3621 C   0  0  0  0  0  0  0  0  0  0  0  0
  150.4942  142.3634  157.7991 C   0  0  1  0  0  0  0  0  0  0  0  0
  149.3400  141.5570  157.9429 O   0  0  0  0  0  0  0  0  0  0  0  0
  151.5723  142.0249  158.8207 C   0  0  0  0  0  0  0  0  0  0  0  0
  152.0697  140.7063  158.9288 C   0  0  0  0  0  0  0  0  0  0  0  0
  153.0739  140.3983  159.8668 C   0  0  0  0  0  0  0  0  0  0  0  0
  153.5919  141.4070  160.7006 C   0  0  0  0  0  0  0  0  0  0  0  0
  154.5582  141.1113  161.6019 F   0  0  0  0  0  0  0  0  0  0  0  0
  153.1071  142.7242  160.5936 C   0  0  0  0  0  0  0  0  0  0  0  0
  152.1029  143.0347  159.6555 C   0  0  0  0  0  0  0  0  0  0  0  0
  151.6561  144.3101  159.5579 F   0  0  0  0  0  0  0  0  0  0  0  0
  154.1856  136.2137  157.6758 H   0  0  0  0  0  0  0  0  0  0  0  0
  152.0201  137.4873  157.6268 H   0  0  0  0  0  0  0  0  0  0  0  0
  153.6082  138.2310  157.7662 H   0  0  0  0  0  0  0  0  0  0  0  0
  153.7545  138.4644  155.2843 H   0  0  0  0  0  0  0  0  0  0  0  0
  152.2373  137.6085  155.0864 H   0  0  0  0  0  0  0  0  0  0  0  0
  152.5391  140.2255  156.4010 H   0  0  0  0  0  0  0  0  0  0  0  0
  147.6235  138.8249  153.1346 H   0  0  0  0  0  0  0  0  0  0  0  0
  145.9175  140.6179  152.9221 H   0  0  0  0  0  0  0  0  0  0  0  0
  146.2720  142.8260  154.0073 H   0  0  0  0  0  0  0  0  0  0  0  0
  148.3493  143.2547  155.3162 H   0  0  0  0  0  0  0  0  0  0  0  0
  152.1178  142.0905  156.3682 H   0  0  0  0  0  0  0  0  0  0  0  0
  150.8794  143.1914  155.8331 H   0  0  0  0  0  0  0  0  0  0  0  0
  150.1675  143.3898  157.9702 H   0  0  0  0  0  0  0  0  0  0  0  0
  148.6097  142.0042  157.5431 H   0  0  0  0  0  0  0  0  0  0  0  0
  151.6863  139.9240  158.2898 H   0  0  0  0  0  0  0  0  0  0  0  0
  153.4485  139.3880  159.9445 H   0  0  0  0  0  0  0  0  0  0  0  0
  153.5078  143.4992  161.2303 H   0  0  0  0  0  0  0  0  0  0  0  0
  1  2  1  0  0  0  0
  1 25  1  0  0  0  0
  2  3  1  0  0  0  0
  2 26  1  0  0  0  0
  2 27  1  0  0  0  0
  3  4  1  0  0  0  0
  3 28  1  0  0  0  0
  3 29  1  0  0  0  0
  4  5  1  0  0  0  0
  4 30  1  0  0  0  0
  5 13  1  0  0  0  0
  5  6  2  0  0  0  0
  6  7  1  0  0  0  0
  7 12  2  0  0  0  0
  7  8  1  0  0  0  0
  8  9  2  0  0  0  0
  8 31  1  0  0  0  0
  9 10  1  0  0  0  0
  9 32  1  0  0  0  0
 10 11  2  0  0  0  0
 10 33  1  0  0  0  0
 11 12  1  0  0  0  0
 11 34  1  0  0  0  0
 12 13  1  0  0  0  0
 13 14  1  0  0  0  0
 14 15  1  0  0  0  0
 14 35  1  0  0  0  0
 14 36  1  0  0  0  0
 15 16  1  0  0  0  0
 15 17  1  0  0  0  0
 15 37  1  0  0  0  0
 16 38  1  0  0  0  0
 17 23  1  0  0  0  0
 17 18  2  0  0  0  0
 18 19  1  0  0  0  0
 18 39  1  0  0  0  0
 19 20  2  0  0  0  0
 19 40  1  0  0  0  0
 20 21  1  0  0  0  0
 20 22  1  0  0  0  0
 22 23  2  0  0  0  0
 22 41  1  0  0  0  0
 23 24  1  0  0  0  0
M  END
> <s_m_source_file>
AV-unprocessed.smi

> <i_m_source_file_index>
1517

> <i_lp_mmshare_version>
43012

> <i_f3d_flags>
0

> <s_epik_input>
W09IXVtDSDJdW0NIMl1bTkhdYyhuMSluKGMoYzEyKVtjSF1bY0hdW2NIXVtjSF0yKVtDSDJdW0NASF0oW09IXSljM1tjSF1bY0hdYyhGKVtjSF1jM0Y=

> <s_epik_cmdline>
J2VwaWtfcHl0aG9uJywgJy1waCcsICc3LjAnLCAnLXRuJywgJzgnLCAnLW1hJywgJzIwMCcsICctbWV0YWxfYmluZGluZycsICctaW1hZScsICc8aW5maWxlLm1hZT4nLCAnLW9tYWUnLCAnPG91dGZpbGUubWFlPic=

> <r_epik_Ionization_Penalty>
1.30972

> <r_epik_Ionization_Penalty_Charging>
0

> <r_epik_Ionization_Penalty_Neutral>
1.30972

> <r_epik_State_Penalty>
1.38438

> <r_epik_Charging_Adjusted_Penalty>
1.38438

> <i_epik_Tot_Q>
0

> <i_epik_Tot_abs_Q>
0

> <r_epik_Metal_State_Penalty>
0.00551145

> <b_epik_Metal_Only>
0

> <s_lp_Force_Field>
OPLS_2005

> <r_lp_Energy>
6.47828

> <b_lp_Chiralities_Consistent>
1

> <s_lp_Variant>
AV-unprocessed.smi:1517-4

> <Gold.Version>
5.8.1

> <Gold.Id.Protein>
6NUR|6NUR_protein|mol2

> <Gold.PLP.Fitness>
50.0091

> <Gold.PLP.PLP>
-49.1627

> <Gold.PLP.part.hbond>
-1.0000

> <Gold.PLP.part.metal>
0.0000

> <Gold.PLP.part.buried>
0.5741

> <Gold.PLP.part.nonpolar>
-48.8154

> <Gold.PLP.part.repulsive>
0.3058

> <Gold.PLP.ligand.clash>
0.0000

> <Gold.PLP.ligand.torsion>
1.1118

> <Gold.PLP.Chemscore.Hbond>
1.0000

> <Gold.PLP.Chemscore.CHOScore>
0.0000

> <Gold.PLP.Chemscore.Metal>
0.0000

> <Gold.Chemscore.Hbonds>
donor molecule, donor type, donor heavy atom, donor atom, acceptor molecule, acceptor atom, score
      P1  H 10752 10764       L1     1  1.00

> <Gold.PLP.Chemscore.Internal.Correction>
0.0700

> <Gold.Rescore>
     Score         DG    S(hbond)    S(metal)    S(lipo)     H(rot)  DE(clash)    DE(int)     intcor
     12.25     -14.74       0.99        0.00     121.35       3.22       0.34       2.14       ----

> <Gold.Chemscore.Fitness>
12.2475

> <Gold.Chemscore.DG>
-14.7350

> <Gold.Chemscore.ZeroCoef>
-5.4800

> <Gold.Chemscore.Hbond>
0.9875

> <Gold.Chemscore.Metal>
0.0000

> <Gold.Chemscore.Lipo>
121.3527

> <Gold.Chemscore.Internal_Hbond>
0.0000

> <Gold.Chemscore.DEClash>
0.3432

> <Gold.Chemscore.DEInternal>
2.1443

> <Gold.Chemscore.Rot>
3.2194

> <Gold.Chemscore.Internal.Correction>
   9.000000E+99

> <Gold.Chemscore.Hbonds>
donor molecule, donor type, donor heavy atom, donor atom, acceptor molecule, acceptor atom, score
      P1  H 10752 10764       L1     1  0.89

> <Gold.Chemscore.Hbond.Weighted>
-3.2984

> <Gold.Chemscore.Metal.Weighted>
-0.0000

> <Gold.Chemscore.Lipo.Weighted>
-14.1983

> <Gold.Chemscore.Internal_Hbond.Weighted>
0.0000

> <Gold.Chemscore.DEClash.Weighted>
0.3432

> <Gold.Chemscore.DEInternal.Weighted>
2.1443

> <Gold.Chemscore.Rot.Weighted>
8.2416

> <Gold.Chemscore.Internal.Correction.Weighted>
   9.000000E+99

> <Gold.Protein.RotatedTorsions>
[ 6907 6896 6895 6894 ] final   96.69 input  -60.11 | X-H torsion
[ 7974 7965 7964 7962 ] final -148.21 input  175.53 | X-H torsion
[ 8008 7997 7996 7995 ] final  -81.35 input   59.86 | X-H torsion
[ 10167 10162 10161 10158 ] final   69.28 input  -65.29 | X-H torsion
[ 10718 10713 10712 10709 ] final   57.10 input   66.30 | X-H torsion
[ 10763 10752 10751 10750 ] final   21.86 input  -60.55 | X-H torsion
[ 11005 11000 10999 10996 ] final  138.33 input  -57.11 | X-H torsion

> <Gold.Protein.ActiveResidues>
 VAL166  LYS551  ARG553  GLY616  TRP617  ASP618  TYR619  PRO620  LYS621  CYS622 
 ASP623  PHE694  ASN695  SER759  ASP760  ASP761  ALA762  ILE779  LEU786  VAL792 
 PHE793  MET794  SER795  GLU796  ALA797  LYS798  CYS799  TRP800  GLU811  SER814 

> <Gold.Protein.RotatedAtoms>
  152.5432  134.0848  159.8251 H   0  0  0  0  0  0  0  0  0  0  0  0  # atno 6907 bound_to 6896
  151.0945  133.5283  159.2620 H   0  0  0  0  0  0  0  0  0  0  0  0  # atno 6908 bound_to 6896
  151.2061  135.0471  159.8946 H   0  0  0  0  0  0  0  0  0  0  0  0  # atno 6909 bound_to 6896
  144.8044  140.5227  143.5685 H   0  0  0  0  0  0  0  0  0  0  0  0  # atno 7974 bound_to 7965
  154.5974  140.0649  156.9322 H   0  0  0  0  0  0  0  0  0  0  0  0  # atno 8008 bound_to 7997
  155.2190  140.3328  155.4300 H   0  0  0  0  0  0  0  0  0  0  0  0  # atno 8009 bound_to 7997
  156.2296  140.1835  156.7260 H   0  0  0  0  0  0  0  0  0  0  0  0  # atno 8010 bound_to 7997
  140.0695  144.5165  150.7237 H   0  0  0  0  0  0  0  0  0  0  0  0  # atno 10167 bound_to 10162
  157.5486  130.8749  149.8929 H   0  0  0  0  0  0  0  0  0  0  0  0  # atno 10718 bound_to 10713
  153.0961  135.6660  153.9761 H   0  0  0  0  0  0  0  0  0  0  0  0  # atno 10763 bound_to 10752
  153.9344  135.3000  155.3446 H   0  0  0  0  0  0  0  0  0  0  0  0  # atno 10764 bound_to 10752
  154.7379  135.5093  153.9147 H   0  0  0  0  0  0  0  0  0  0  0  0  # atno 10765 bound_to 10752
  140.0176  134.9411  157.0408 H   0  0  0  0  0  0  0  0  0  0  0  0  # atno 11005 bound_to 11000
  145.5474  139.1476  143.3413 LP  0  0  0  0  0  0  0  0  0  0  0  0  # atno 17320 bound_to 7965
  146.2332  140.5613  142.8966 LP  0  0  0  0  0  0  0  0  0  0  0  0  # atno 17321 bound_to 7965
  140.7133  143.2523  151.4514 LP  0  0  0  0  0  0  0  0  0  0  0  0  # atno 17342 bound_to 10162
  139.5845  144.1636  152.2011 LP  0  0  0  0  0  0  0  0  0  0  0  0  # atno 17343 bound_to 10162
  156.0557  130.3709  150.1096 LP  0  0  0  0  0  0  0  0  0  0  0  0  # atno 17370 bound_to 10713
  156.9271  130.9701  151.3539 LP  0  0  0  0  0  0  0  0  0  0  0  0  # atno 17371 bound_to 10713
  140.4443  134.1648  155.7176 LP  0  0  0  0  0  0  0  0  0  0  0  0  # atno 17394 bound_to 11000
  141.1753  133.8526  157.1441 LP  0  0  0  0  0  0  0  0  0  0  0  0  # atno 17395 bound_to 11000

$$$$
