AV-unprocessed.smi:2074|AV-procd|sdf|8454|dock10
  -GOLD-   2272011153D 1   1.00000     0.00000
 Structure written by MMmdl.
 44 45  0  0  0  0  0  0  0  0  2 V2000
  152.5446  141.6235  158.8052 C   0  0  0  0  0  0  0  0  0  0  0  0
  152.3078  140.5090  157.8265 C   0  0  0  0  0  0  0  0  0  0  0  0
  152.9258  139.3537  158.0035 N   0  0  0  0  0  0  0  0  0  0  0  0
  152.5122  138.5319  156.9508 O   0  0  0  0  0  0  0  0  0  0  0  0
  151.6498  139.2329  156.1721 C   0  0  0  0  0  0  0  0  0  0  0  0
  151.0919  138.5192  154.9875 C   0  0  0  0  0  0  0  0  0  0  0  0
  151.4749  140.4953  156.6700 C   0  0  0  0  0  0  0  0  0  0  0  0
  150.6087  141.6048  156.1295 C   0  0  0  0  0  0  0  0  0  0  0  0
  149.1397  141.2990  156.4222 C   0  0  0  0  0  0  0  0  0  0  0  0
  148.8091  140.1861  156.8299 O   0  0  0  0  0  0  0  0  0  0  0  0
  148.2693  142.2982  156.2182 N   0  0  0  0  0  0  0  0  0  0  0  0
  146.8377  142.2175  156.4814 C   0  0  0  0  0  0  0  0  0  0  0  0
  146.0092  142.0801  155.1761 C   0  0  2  0  0  0  0  0  0  0  0  0
  144.5707  142.6060  155.3987 C   0  0  0  0  0  0  0  0  0  0  0  0
  145.9784  140.6797  154.6361 N   0  3  0  0  0  0  0  0  0  0  0  0
  147.2609  140.2819  153.9916 C   0  0  0  0  0  0  0  0  0  0  0  0
  147.1706  138.8697  153.3906 C   0  0  0  0  0  0  0  0  0  0  0  0
  146.8251  137.9439  154.4089 O   0  0  0  0  0  0  0  0  0  0  0  0
  145.5512  138.2359  154.9620 C   0  0  0  0  0  0  0  0  0  0  0  0
  145.5670  139.6309  155.6114 C   0  0  0  0  0  0  0  0  0  0  0  0
  151.7551  142.3729  158.7556 H   0  0  0  0  0  0  0  0  0  0  0  0
  153.4907  142.1257  158.6025 H   0  0  0  0  0  0  0  0  0  0  0  0
  152.5771  141.2506  159.8295 H   0  0  0  0  0  0  0  0  0  0  0  0
  150.1991  139.0205  154.6130 H   0  0  0  0  0  0  0  0  0  0  0  0
  150.8190  137.4955  155.2441 H   0  0  0  0  0  0  0  0  0  0  0  0
  151.8230  138.4836  154.1799 H   0  0  0  0  0  0  0  0  0  0  0  0
  150.8677  142.5687  156.5684 H   0  0  0  0  0  0  0  0  0  0  0  0
  150.7415  141.7206  155.0531 H   0  0  0  0  0  0  0  0  0  0  0  0
  148.6277  143.1796  155.8803 H   0  0  0  0  0  0  0  0  0  0  0  0
  146.6990  141.3522  157.1298 H   0  0  0  0  0  0  0  0  0  0  0  0
  146.5145  143.1004  157.0364 H   0  0  0  0  0  0  0  0  0  0  0  0
  146.4912  142.7105  154.4267 H   0  0  0  0  0  0  0  0  0  0  0  0
  144.5609  143.6191  155.7996 H   0  0  0  0  0  0  0  0  0  0  0  0
  144.0264  141.9733  156.1004 H   0  0  0  0  0  0  0  0  0  0  0  0
  143.9933  142.6542  154.4774 H   0  0  0  0  0  0  0  0  0  0  0  0
  147.5323  140.9692  153.1931 H   0  0  0  0  0  0  0  0  0  0  0  0
  148.0654  140.3175  154.7281 H   0  0  0  0  0  0  0  0  0  0  0  0
  146.4402  138.8342  152.5804 H   0  0  0  0  0  0  0  0  0  0  0  0
  148.1318  138.5812  152.9649 H   0  0  0  0  0  0  0  0  0  0  0  0
  144.7829  138.1747  154.1894 H   0  0  0  0  0  0  0  0  0  0  0  0
  145.3103  137.4782  155.7079 H   0  0  0  0  0  0  0  0  0  0  0  0
  146.2451  139.6391  156.4663 H   0  0  0  0  0  0  0  0  0  0  0  0
  144.5621  139.8205  155.9866 H   0  0  0  0  0  0  0  0  0  0  0  0
  145.2734  140.6720  153.9127 H   0  0  0  0  0  0  0  0  0  0  0  0
  1  2  1  0  0  0  0
  1 21  1  0  0  0  0
  1 22  1  0  0  0  0
  1 23  1  0  0  0  0
  2  7  1  0  0  0  0
  2  3  2  0  0  0  0
  3  4  1  0  0  0  0
  4  5  1  0  0  0  0
  5  6  1  0  0  0  0
  5  7  2  0  0  0  0
  6 24  1  0  0  0  0
  6 25  1  0  0  0  0
  6 26  1  0  0  0  0
  7  8  1  0  0  0  0
  8  9  1  0  0  0  0
  8 27  1  0  0  0  0
  8 28  1  0  0  0  0
  9 10  2  0  0  0  0
  9 11  1  0  0  0  0
 11 12  1  0  0  0  0
 11 29  1  0  0  0  0
 12 13  1  0  0  0  0
 12 30  1  0  0  0  0
 12 31  1  0  0  0  0
 13 14  1  0  0  0  0
 13 15  1  0  0  0  0
 13 32  1  0  0  0  0
 14 33  1  0  0  0  0
 14 34  1  0  0  0  0
 14 35  1  0  0  0  0
 15 20  1  0  0  0  0
 15 16  1  0  0  0  0
 15 44  1  0  0  0  0
 16 17  1  0  0  0  0
 16 36  1  0  0  0  0
 16 37  1  0  0  0  0
 17 18  1  0  0  0  0
 17 38  1  0  0  0  0
 17 39  1  0  0  0  0
 18 19  1  0  0  0  0
 19 20  1  0  0  0  0
 19 40  1  0  0  0  0
 19 41  1  0  0  0  0
 20 42  1  0  0  0  0
 20 43  1  0  0  0  0
M  CHG  1  15   1
M  END
> <s_m_source_file>
AV-unprocessed.smi

> <i_m_source_file_index>
2074

> <i_lp_mmshare_version>
43012

> <i_f3d_flags>
0

> <s_epik_input>
W0NIM11jMW5vYyhbQ0gzXSljMVtDSDJdQyg9TylbTkhdW0NIMl1bQ0BIXShbQ0gzXSlOMltDSDJdW0NIMl1PW0NIMl1bQ0gyXTI=

> <s_epik_cmdline>
J2VwaWtfcHl0aG9uJywgJy1waCcsICc3LjAnLCAnLXRuJywgJzgnLCAnLW1hJywgJzIwMCcsICctbWV0YWxfYmluZGluZycsICctaW1hZScsICc8aW5maWxlLm1hZT4nLCAnLW9tYWUnLCAnPG91dGZpbGUubWFlPic=

> <r_epik_Ionization_Penalty>
0.663207

> <r_epik_Ionization_Penalty_Charging>
0.663207

> <r_epik_Ionization_Penalty_Neutral>
1.0751e-07

> <r_epik_State_Penalty>
0.682743

> <r_epik_Charging_Adjusted_Penalty>
1.34595

> <i_epik_Tot_Q>
1

> <i_epik_Tot_abs_Q>
1

> <r_epik_Metal_State_Penalty>
0.682743

> <b_epik_Metal_Only>
0

> <s_lp_Force_Field>
OPLS_2005

> <r_lp_Energy>
15.5823

> <b_lp_Chiralities_Consistent>
1

> <s_lp_Variant>
AV-unprocessed.smi:2074-3

> <Gold.Version>
5.8.1

> <Gold.Id.Protein>
6NUR|6NUR_protein|mol2

> <Gold.PLP.Fitness>
39.2415

> <Gold.PLP.PLP>
-28.8132

> <Gold.PLP.part.hbond>
-3.0000

> <Gold.PLP.part.metal>
0.0000

> <Gold.PLP.part.buried>
-3.5268

> <Gold.PLP.part.nonpolar>
-21.8833

> <Gold.PLP.part.repulsive>
0.2251

> <Gold.PLP.ligand.clash>
0.0000

> <Gold.PLP.ligand.torsion>
0.8069

> <Gold.PLP.Chemscore.Hbond>
4.0000

> <Gold.PLP.Chemscore.CHOScore>
0.0000

> <Gold.PLP.Chemscore.Metal>
0.0000

> <Gold.Chemscore.Hbonds>
donor molecule, donor type, donor heavy atom, donor atom, acceptor molecule, acceptor atom, score
      L1  H    11    29       P1  8028  1.00
      L1  H    15    44       P1 10175  1.43
      P1  H  7997  8009       L1     3  0.44

> <Gold.PLP.Chemscore.Internal.Correction>
0.0421

> <Gold.Rescore>
     Score         DG    S(hbond)    S(metal)    S(lipo)     H(rot)  DE(clash)    DE(int)     intcor
     15.48     -16.63       2.09        0.00      74.81       1.80       0.24       0.91       ----

> <Gold.Chemscore.Fitness>
15.4793

> <Gold.Chemscore.DG>
-16.6307

> <Gold.Chemscore.ZeroCoef>
-5.4800

> <Gold.Chemscore.Hbond>
2.0947

> <Gold.Chemscore.Metal>
0.0000

> <Gold.Chemscore.Lipo>
74.8073

> <Gold.Chemscore.Internal_Hbond>
0.0000

> <Gold.Chemscore.DEClash>
0.2402

> <Gold.Chemscore.DEInternal>
0.9113

> <Gold.Chemscore.Rot>
1.7961

> <Gold.Chemscore.Internal.Correction>
   9.000000E+99

> <Gold.Chemscore.Hbonds>
donor molecule, donor type, donor heavy atom, donor atom, acceptor molecule, acceptor atom, score
      L1  H    11    29       P1  8028  0.96
      L1  H    15    44       P1 10175  0.69

> <Gold.Chemscore.Hbond.Weighted>
-6.9963

> <Gold.Chemscore.Metal.Weighted>
-0.0000

> <Gold.Chemscore.Lipo.Weighted>
-8.7525

> <Gold.Chemscore.Internal_Hbond.Weighted>
0.0000

> <Gold.Chemscore.DEClash.Weighted>
0.2402

> <Gold.Chemscore.DEInternal.Weighted>
0.9113

> <Gold.Chemscore.Rot.Weighted>
4.5980

> <Gold.Chemscore.Internal.Correction.Weighted>
   9.000000E+99

> <Gold.Protein.RotatedTorsions>
[ 6907 6896 6895 6894 ] final  138.14 input  -60.11 | X-H torsion
[ 7974 7965 7964 7962 ] final -127.34 input  175.53 | X-H torsion
[ 8008 7997 7996 7995 ] final  149.79 input   59.86 | X-H torsion
[ 10167 10162 10161 10158 ] final -140.75 input  -65.29 | X-H torsion
[ 10718 10713 10712 10709 ] final   16.44 input   66.30 | X-H torsion
[ 10763 10752 10751 10750 ] final  -22.78 input  -60.55 | X-H torsion
[ 11005 11000 10999 10996 ] final   34.67 input  -57.11 | X-H torsion

> <Gold.Protein.ActiveResidues>
 VAL166  LYS551  ARG553  GLY616  TRP617  ASP618  TYR619  PRO620  LYS621  CYS622 
 ASP623  PHE694  ASN695  SER759  ASP760  ASP761  ALA762  ILE779  LEU786  VAL792 
 PHE793  MET794  SER795  GLU796  ALA797  LYS798  CYS799  TRP800  GLU811  SER814 

> <Gold.Protein.RotatedAtoms>
  152.2700  133.5374  159.5433 H   0  0  0  0  0  0  0  0  0  0  0  0  # atno 6907 bound_to 6896
  150.7156  134.0710  159.3873 H   0  0  0  0  0  0  0  0  0  0  0  0  # atno 6908 bound_to 6896
  151.8625  135.0519  160.0521 H   0  0  0  0  0  0  0  0  0  0  0  0  # atno 6909 bound_to 6896
  144.9781  140.7613  143.4629 H   0  0  0  0  0  0  0  0  0  0  0  0  # atno 7974 bound_to 7965
  156.2741  140.2092  156.5914 H   0  0  0  0  0  0  0  0  0  0  0  0  # atno 8008 bound_to 7997
  154.6979  140.0524  157.0452 H   0  0  0  0  0  0  0  0  0  0  0  0  # atno 8009 bound_to 7997
  155.0775  140.3183  155.4614 H   0  0  0  0  0  0  0  0  0  0  0  0  # atno 8010 bound_to 7997
  139.8252  143.7521  152.2666 H   0  0  0  0  0  0  0  0  0  0  0  0  # atno 10167 bound_to 10162
  157.0678  130.6336  149.5799 H   0  0  0  0  0  0  0  0  0  0  0  0  # atno 10718 bound_to 10713
  153.6574  135.6978  153.5188 H   0  0  0  0  0  0  0  0  0  0  0  0  # atno 10763 bound_to 10752
  153.2658  135.4230  155.0939 H   0  0  0  0  0  0  0  0  0  0  0  0  # atno 10764 bound_to 10752
  154.8461  135.3566  154.6119 H   0  0  0  0  0  0  0  0  0  0  0  0  # atno 10765 bound_to 10752
  140.2505  134.3309  155.7892 H   0  0  0  0  0  0  0  0  0  0  0  0  # atno 11005 bound_to 11000
  145.2461  139.2051  143.4967 LP  0  0  0  0  0  0  0  0  0  0  0  0  # atno 17320 bound_to 7965
  146.3401  140.2365  142.8594 LP  0  0  0  0  0  0  0  0  0  0  0  0  # atno 17321 bound_to 7965
  139.7711  144.7476  151.0223 LP  0  0  0  0  0  0  0  0  0  0  0  0  # atno 17342 bound_to 10162
  140.7811  143.4644  151.0233 LP  0  0  0  0  0  0  0  0  0  0  0  0  # atno 17343 bound_to 10162
  155.9959  130.5027  150.7477 LP  0  0  0  0  0  0  0  0  0  0  0  0  # atno 17370 bound_to 10713
  157.4902  131.0910  151.0435 LP  0  0  0  0  0  0  0  0  0  0  0  0  # atno 17371 bound_to 10713
  141.2202  133.7350  156.9029 LP  0  0  0  0  0  0  0  0  0  0  0  0  # atno 17394 bound_to 11000
  140.1563  134.9196  157.2657 LP  0  0  0  0  0  0  0  0  0  0  0  0  # atno 17395 bound_to 11000

$$$$
