AV-unprocessed.smi:3142|AV-procd|sdf|11971|dock2
  -GOLD-   2272017373D 1   1.00000     0.00000
 Structure written by MMmdl.
 36 38  0  0  0  0  0  0  0  0  1 V2000
  148.9392  141.0454  156.1791 C   0  0  0  0  0  0  0  0  0  0  0  0
  150.4444  141.1427  155.8637 C   0  0  1  0  0  0  0  0  0  0  0  0
  151.2849  141.5403  157.0863 C   0  0  0  0  0  0  0  0  0  0  0  0
  151.8934  140.6882  157.7346 O   0  0  0  0  0  0  0  0  0  0  0  0
  151.3129  142.8496  157.3814 N   0  0  0  0  0  0  0  0  0  0  0  0
  152.0642  143.4642  158.4702 C   0  0  0  0  0  0  0  0  0  0  0  0
  152.0125  142.6468  159.7509 C   0  0  0  0  0  0  0  0  0  0  0  0
  152.9747  142.9042  160.8869 C   0  0  0  0  0  0  0  0  0  0  0  0
  153.0789  141.6293  160.0825 C   0  0  0  0  0  0  0  0  0  0  0  0
  151.5952  144.8836  158.7313 C   0  0  0  0  0  0  0  0  0  0  0  0
  151.8925  145.5732  160.0410 C   0  0  0  0  0  0  0  0  0  0  0  0
  150.4731  145.1791  159.6982 C   0  0  0  0  0  0  0  0  0  0  0  0
  150.9522  139.9038  155.2913 N   0  0  0  0  0  0  0  0  0  0  0  0
  150.2257  138.8868  154.6796 C   0  0  0  0  0  0  0  0  0  0  0  0
  151.1306  137.9125  154.3247 C   0  0  0  0  0  0  0  0  0  0  0  0
  152.4102  138.2967  154.7168 N   0  0  0  0  0  0  0  0  0  0  0  0
  152.2247  139.4808  155.2855 C   0  0  0  0  0  0  0  0  0  0  0  0
  148.5565  141.9906  156.5653 H   0  0  0  0  0  0  0  0  0  0  0  0
  148.7248  140.2741  156.9196 H   0  0  0  0  0  0  0  0  0  0  0  0
  148.3693  140.8062  155.2807 H   0  0  0  0  0  0  0  0  0  0  0  0
  150.5669  141.9262  155.1136 H   0  0  0  0  0  0  0  0  0  0  0  0
  150.7835  143.4749  156.7914 H   0  0  0  0  0  0  0  0  0  0  0  0
  153.1104  143.5303  158.1640 H   0  0  0  0  0  0  0  0  0  0  0  0
  151.0001  142.3820  160.0507 H   0  0  0  0  0  0  0  0  0  0  0  0
  153.7536  143.6494  160.7398 H   0  0  0  0  0  0  0  0  0  0  0  0
  152.5860  142.8301  161.9004 H   0  0  0  0  0  0  0  0  0  0  0  0
  152.7582  140.7046  160.5579 H   0  0  0  0  0  0  0  0  0  0  0  0
  153.9247  141.5353  159.4044 H   0  0  0  0  0  0  0  0  0  0  0  0
  151.6329  145.5198  157.8487 H   0  0  0  0  0  0  0  0  0  0  0  0
  152.4007  144.9986  160.8130 H   0  0  0  0  0  0  0  0  0  0  0  0
  152.1458  146.6308  160.0042 H   0  0  0  0  0  0  0  0  0  0  0  0
  149.7790  145.9739  159.4331 H   0  0  0  0  0  0  0  0  0  0  0  0
  150.0409  144.3473  160.2504 H   0  0  0  0  0  0  0  0  0  0  0  0
  149.1544  138.9382  154.5518 H   0  0  0  0  0  0  0  0  0  0  0  0
  150.9592  136.9691  153.8276 H   0  0  0  0  0  0  0  0  0  0  0  0
  153.0358  140.0539  155.7102 H   0  0  0  0  0  0  0  0  0  0  0  0
  1  2  1  0  0  0  0
  1 18  1  0  0  0  0
  1 19  1  0  0  0  0
  1 20  1  0  0  0  0
  2  3  1  0  0  0  0
  2 13  1  0  0  0  0
  2 21  1  0  0  0  0
  3  4  2  0  0  0  0
  3  5  1  0  0  0  0
  5  6  1  0  0  0  0
  5 22  1  0  0  0  0
  6  7  1  0  0  0  0
  6 10  1  0  0  0  0
  6 23  1  0  0  0  0
  7  9  1  0  0  0  0
  7  8  1  0  0  0  0
  7 24  1  0  0  0  0
  8  9  1  0  0  0  0
  8 25  1  0  0  0  0
  8 26  1  0  0  0  0
  9 27  1  0  0  0  0
  9 28  1  0  0  0  0
 10 12  1  0  0  0  0
 10 11  1  0  0  0  0
 10 29  1  0  0  0  0
 11 12  1  0  0  0  0
 11 30  1  0  0  0  0
 11 31  1  0  0  0  0
 12 32  1  0  0  0  0
 12 33  1  0  0  0  0
 13 17  1  0  0  0  0
 13 14  1  0  0  0  0
 14 15  2  0  0  0  0
 14 34  1  0  0  0  0
 15 16  1  0  0  0  0
 15 35  1  0  0  0  0
 16 17  2  0  0  0  0
 17 36  1  0  0  0  0
M  END
> <s_m_source_file>
AV-unprocessed.smi

> <i_m_source_file_index>
3142

> <i_lp_mmshare_version>
43012

> <i_f3d_flags>
0

> <s_epik_input>
W2NIXTFuW2NIXVtjSF1uMVtDQEhdKFtDSDNdKUMoPU8pW05IXVtDSF0oW0NIXTJbQ0gyXVtDSDJdMilbQ0hdM1tDSDJdW0NIMl0z

> <s_epik_cmdline>
J2VwaWtfcHl0aG9uJywgJy1waCcsICc3LjAnLCAnLXRuJywgJzgnLCAnLW1hJywgJzIwMCcsICctbWV0YWxfYmluZGluZycsICctaW1hZScsICc8aW5maWxlLm1hZT4nLCAnLW9tYWUnLCAnPG91dGZpbGUubWFlPic=

> <r_lp_tautomer_probability>
1

> <r_epik_Ionization_Penalty>
0.32285

> <r_epik_Ionization_Penalty_Charging>
0.32285

> <r_epik_Ionization_Penalty_Neutral>
3.37967e-08

> <r_epik_State_Penalty>
0.317502

> <r_epik_Charging_Adjusted_Penalty>
0.640352

> <i_epik_Tot_Q>
0

> <i_epik_Tot_abs_Q>
0

> <r_epik_Metal_State_Penalty>
0.20415

> <b_epik_Metal_Only>
0

> <s_lp_Force_Field>
OPLS_2005

> <r_lp_Energy>
29.1263

> <b_lp_Chiralities_Consistent>
1

> <s_lp_Variant>
AV-unprocessed.smi:3142-2

> <Gold.Version>
5.8.1

> <Gold.Id.Protein>
6NUR|6NUR_protein|mol2

> <Gold.PLP.Fitness>
45.5827

> <Gold.PLP.PLP>
-45.4445

> <Gold.PLP.part.hbond>
0.0000

> <Gold.PLP.part.metal>
0.0000

> <Gold.PLP.part.buried>
-4.8909

> <Gold.PLP.part.nonpolar>
-40.8983

> <Gold.PLP.part.repulsive>
0.0776

> <Gold.PLP.ligand.clash>
0.0000

> <Gold.PLP.ligand.torsion>
2.6213

> <Gold.PLP.Chemscore.Hbond>
0.0000

> <Gold.PLP.Chemscore.CHOScore>
1.0466

> <Gold.PLP.Chemscore.Metal>
0.0000

> <Gold.Chemscore.Hbonds>
donor molecule, donor type, donor heavy atom, donor atom, acceptor molecule, acceptor atom, score
      L1  C    15    35       P1  7948  0.06
      L1  C    15    35       P1  7949  0.97

> <Gold.PLP.Chemscore.Internal.Correction>
2.2411

> <Gold.Rescore>
     Score         DG    S(hbond)    S(metal)    S(lipo)     H(rot)  DE(clash)    DE(int)     intcor
      7.46     -15.07       0.69        0.00     102.81       1.85       0.03       7.58       ----

> <Gold.Chemscore.Fitness>
7.4561

> <Gold.Chemscore.DG>
-15.0678

> <Gold.Chemscore.ZeroCoef>
-5.4800

> <Gold.Chemscore.Hbond>
0.6876

> <Gold.Chemscore.Metal>
0.0000

> <Gold.Chemscore.Lipo>
102.8067

> <Gold.Chemscore.Internal_Hbond>
0.0000

> <Gold.Chemscore.DEClash>
0.0310

> <Gold.Chemscore.DEInternal>
7.5807

> <Gold.Chemscore.Rot>
1.8505

> <Gold.Chemscore.Internal.Correction>
   9.000000E+99

> <Gold.Chemscore.Hbonds>
donor molecule, donor type, donor heavy atom, donor atom, acceptor molecule, acceptor atom, score
      L1  H     5    22       P1  8028  0.01

> <Gold.Chemscore.Hbond.Weighted>
-2.2967

> <Gold.Chemscore.Metal.Weighted>
-0.0000

> <Gold.Chemscore.Lipo.Weighted>
-12.0284

> <Gold.Chemscore.Internal_Hbond.Weighted>
0.0000

> <Gold.Chemscore.DEClash.Weighted>
0.0310

> <Gold.Chemscore.DEInternal.Weighted>
7.5807

> <Gold.Chemscore.Rot.Weighted>
4.7373

> <Gold.Chemscore.Internal.Correction.Weighted>
   9.000000E+99

> <Gold.Protein.RotatedTorsions>
[ 6907 6896 6895 6894 ] final -124.70 input  -60.11 | X-H torsion
[ 7974 7965 7964 7962 ] final   63.47 input  175.53 | X-H torsion
[ 8008 7997 7996 7995 ] final -157.36 input   59.86 | X-H torsion
[ 10167 10162 10161 10158 ] final  -13.38 input  -65.29 | X-H torsion
[ 10718 10713 10712 10709 ] final  109.46 input   66.30 | X-H torsion
[ 10763 10752 10751 10750 ] final  159.82 input  -60.55 | X-H torsion
[ 11005 11000 10999 10996 ] final  -88.50 input  -57.11 | X-H torsion

> <Gold.Protein.ActiveResidues>
 VAL166  LYS551  ARG553  GLY616  TRP617  ASP618  TYR619  PRO620  LYS621  CYS622 
 ASP623  PHE694  ASN695  SER759  ASP760  ASP761  ALA762  ILE779  LEU786  VAL792 
 PHE793  MET794  SER795  GLU796  ALA797  LYS798  CYS799  TRP800  GLU811  SER814 

> <Gold.Protein.RotatedAtoms>
  150.8794  133.7393  159.2936 H   0  0  0  0  0  0  0  0  0  0  0  0  # atno 6907 bound_to 6896
  151.4979  135.1059  159.9830 H   0  0  0  0  0  0  0  0  0  0  0  0  # atno 6908 bound_to 6896
  152.4749  133.8070  159.7039 H   0  0  0  0  0  0  0  0  0  0  0  0  # atno 6909 bound_to 6896
  145.8614  139.3317  143.0816 H   0  0  0  0  0  0  0  0  0  0  0  0  # atno 7974 bound_to 7965
  155.7313  140.0802  157.2287 H   0  0  0  0  0  0  0  0  0  0  0  0  # atno 8008 bound_to 7997
  154.4032  140.1595  156.2566 H   0  0  0  0  0  0  0  0  0  0  0  0  # atno 8009 bound_to 7997
  155.9106  140.3404  155.6099 H   0  0  0  0  0  0  0  0  0  0  0  0  # atno 8010 bound_to 7997
  140.7181  143.5432  150.9385 H   0  0  0  0  0  0  0  0  0  0  0  0  # atno 10167 bound_to 10162
  157.6540  131.0914  150.6457 H   0  0  0  0  0  0  0  0  0  0  0  0  # atno 10718 bound_to 10713
  154.2377  135.2776  155.2866 H   0  0  0  0  0  0  0  0  0  0  0  0  # atno 10763 bound_to 10752
  154.5571  135.5658  153.6977 H   0  0  0  0  0  0  0  0  0  0  0  0  # atno 10764 bound_to 10752
  153.0006  135.6288  154.2520 H   0  0  0  0  0  0  0  0  0  0  0  0  # atno 10765 bound_to 10752
  141.1601  133.7573  156.9460 H   0  0  0  0  0  0  0  0  0  0  0  0  # atno 11005 bound_to 11000
  145.9243  140.9093  143.0389 LP  0  0  0  0  0  0  0  0  0  0  0  0  # atno 17320 bound_to 7965
  144.6726  140.1331  143.7442 LP  0  0  0  0  0  0  0  0  0  0  0  0  # atno 17321 bound_to 7965
  139.9155  143.6669  152.3107 LP  0  0  0  0  0  0  0  0  0  0  0  0  # atno 17342 bound_to 10162
  139.7067  144.7627  151.1181 LP  0  0  0  0  0  0  0  0  0  0  0  0  # atno 17343 bound_to 10162
  156.6766  130.4555  149.5640 LP  0  0  0  0  0  0  0  0  0  0  0  0  # atno 17370 bound_to 10713
  156.1959  130.6589  151.1114 LP  0  0  0  0  0  0  0  0  0  0  0  0  # atno 17371 bound_to 10713
  140.1289  134.9368  157.2310 LP  0  0  0  0  0  0  0  0  0  0  0  0  # atno 17394 bound_to 11000
  140.2977  134.3167  155.7298 LP  0  0  0  0  0  0  0  0  0  0  0  0  # atno 17395 bound_to 11000

$$$$
