AV-unprocessed.smi:287|AV-procd|sdf|2203|dock6
  -GOLD-   2262022 23D 1   1.00000     0.00000
 Structure written by MMmdl.
 55 58  0  0  0  0  0  0  0  0  1 V2000
  151.5022  143.8119  159.8578 C   0  0  0  0  0  0  0  0  0  0  0  0
  151.4166  142.6043  158.9887 C   0  0  0  0  0  0  0  0  0  0  0  0
  152.0818  141.4134  158.9585 C   0  0  0  0  0  0  0  0  0  0  0  0
  151.5472  140.6534  157.8754 C   0  0  0  0  0  0  0  0  0  0  0  0
  151.9837  139.2535  157.4648 C   0  0  1  0  0  0  0  0  0  0  0  0
  152.1162  139.1784  155.9345 C   0  0  0  0  0  0  0  0  0  0  0  0
  153.2591  138.9056  157.9679 O   0  0  0  0  0  0  0  0  0  0  0  0
  151.0142  138.1596  157.9685 C   0  0  0  0  0  0  0  0  0  0  0  0
  149.9035  137.9211  157.0559 N   0  0  0  0  0  0  0  0  0  0  0  0
  149.7473  136.7295  156.4416 C   0  0  0  0  0  0  0  0  0  0  0  0
  150.7918  135.8767  156.5597 N   0  0  0  0  0  0  0  0  0  0  0  0
  150.7433  134.6739  155.9836 C   0  0  0  0  0  0  0  0  0  0  0  0
  149.7609  134.1372  155.2601 N   0  0  0  0  0  0  0  0  0  0  0  0
  148.6946  134.9816  155.1396 C   0  0  0  0  0  0  0  0  0  0  0  0
  148.6122  136.2937  155.6936 C   0  0  0  0  0  0  0  0  0  0  0  0
  147.3909  136.8602  155.3488 N   0  0  0  0  0  0  0  0  0  0  0  0
  146.7979  135.9434  154.6362 C   0  0  0  0  0  0  0  0  0  0  0  0
  147.4958  134.7662  154.4796 N   0  0  0  0  0  0  0  0  0  0  0  0
  147.0643  133.5600  153.6868 C   0  0  1  0  0  0  0  0  0  0  0  0
  145.7765  133.7646  153.1924 O   0  0  0  0  0  0  0  0  0  0  0  0
  145.8557  134.3226  151.8869 C   0  0  2  0  0  0  0  0  0  0  0  0
  144.5040  134.2328  151.1576 C   0  0  0  0  0  0  0  0  0  0  0  0
  144.4483  135.1923  150.1235 O   0  0  0  0  0  0  0  0  0  0  0  0
  146.9996  133.5025  151.2797 C   0  0  2  0  0  0  0  0  0  0  0  0
  146.5246  132.2445  150.8268 O   0  0  0  0  0  0  0  0  0  0  0  0
  147.9749  133.3804  152.4528 C   0  0  2  0  0  0  0  0  0  0  0  0
  148.6862  132.1562  152.4531 O   0  0  0  0  0  0  0  0  0  0  0  0
  150.5741  141.4568  157.3304 C   0  0  0  0  0  0  0  0  0  0  0  0
  149.6163  141.3025  156.1950 C   0  0  0  0  0  0  0  0  0  0  0  0
  150.4909  142.6416  157.9976 O   0  0  0  0  0  0  0  0  0  0  0  0
  147.0917  132.7377  154.4024 H   0  0  0  0  0  0  0  0  0  0  0  0
  146.1756  135.3645  151.9573 H   0  0  0  0  0  0  0  0  0  0  0  0
  147.4559  134.0157  150.4325 H   0  0  0  0  0  0  0  0  0  0  0  0
  148.6921  134.2005  152.3996 H   0  0  0  0  0  0  0  0  0  0  0  0
  152.4052  143.7885  160.4679 H   0  0  0  0  0  0  0  0  0  0  0  0
  150.6434  143.8671  160.5269 H   0  0  0  0  0  0  0  0  0  0  0  0
  151.5240  144.7219  159.2580 H   0  0  0  0  0  0  0  0  0  0  0  0
  152.8693  141.1190  159.6363 H   0  0  0  0  0  0  0  0  0  0  0  0
  151.1660  139.3926  155.4439 H   0  0  0  0  0  0  0  0  0  0  0  0
  152.4363  138.1883  155.6078 H   0  0  0  0  0  0  0  0  0  0  0  0
  152.8454  139.9001  155.5644 H   0  0  0  0  0  0  0  0  0  0  0  0
  153.1521  138.5549  158.8388 H   0  0  0  0  0  0  0  0  0  0  0  0
  151.5645  137.2217  158.0535 H   0  0  0  0  0  0  0  0  0  0  0  0
  150.6434  138.4022  158.9654 H   0  0  0  0  0  0  0  0  0  0  0  0
  149.2830  138.7048  156.9100 H   0  0  0  0  0  0  0  0  0  0  0  0
  151.6151  134.0517  156.1220 H   0  0  0  0  0  0  0  0  0  0  0  0
  145.8209  136.1021  154.2034 H   0  0  0  0  0  0  0  0  0  0  0  0
  144.3893  133.2505  150.6984 H   0  0  0  0  0  0  0  0  0  0  0  0
  143.6694  134.3711  151.8458 H   0  0  0  0  0  0  0  0  0  0  0  0
  145.1653  135.0339  149.5286 H   0  0  0  0  0  0  0  0  0  0  0  0
  147.2579  131.7558  150.4848 H   0  0  0  0  0  0  0  0  0  0  0  0
  149.1103  132.0544  151.6149 H   0  0  0  0  0  0  0  0  0  0  0  0
  148.9952  140.4173  156.3311 H   0  0  0  0  0  0  0  0  0  0  0  0
  150.1505  141.2006  155.2506 H   0  0  0  0  0  0  0  0  0  0  0  0
  148.9557  142.1660  156.1142 H   0  0  0  0  0  0  0  0  0  0  0  0
  1  2  1  0  0  0  0
  1 35  1  0  0  0  0
  1 36  1  0  0  0  0
  1 37  1  0  0  0  0
  2 30  1  0  0  0  0
  2  3  2  0  0  0  0
  3  4  1  0  0  0  0
  3 38  1  0  0  0  0
  4  5  1  0  0  0  0
  4 28  2  0  0  0  0
  5  6  1  0  0  0  0
  5  7  1  0  0  0  0
  5  8  1  0  0  0  0
  6 39  1  0  0  0  0
  6 40  1  0  0  0  0
  6 41  1  0  0  0  0
  7 42  1  0  0  0  0
  8  9  1  0  0  0  0
  8 43  1  0  0  0  0
  8 44  1  0  0  0  0
  9 10  1  0  0  0  0
  9 45  1  0  0  0  0
 10 15  1  0  0  0  0
 10 11  2  0  0  0  0
 11 12  1  0  0  0  0
 12 13  2  0  0  0  0
 12 46  1  0  0  0  0
 13 14  1  0  0  0  0
 14 18  1  0  0  0  0
 14 15  2  0  0  0  0
 15 16  1  0  0  0  0
 16 17  2  0  0  0  0
 17 18  1  0  0  0  0
 17 47  1  0  0  0  0
 18 19  1  0  0  0  0
 19 31  1  0  0  0  0
 19 26  1  0  0  0  0
 19 20  1  0  0  0  0
 20 21  1  0  0  0  0
 21 32  1  0  0  0  0
 21 22  1  0  0  0  0
 21 24  1  0  0  0  0
 22 23  1  0  0  0  0
 22 48  1  0  0  0  0
 22 49  1  0  0  0  0
 23 50  1  0  0  0  0
 24 33  1  0  0  0  0
 24 25  1  0  0  0  0
 24 26  1  0  0  0  0
 25 51  1  0  0  0  0
 26 34  1  0  0  0  0
 26 27  1  0  0  0  0
 27 52  1  0  0  0  0
 28 29  1  0  0  0  0
 28 30  1  0  0  0  0
 29 53  1  0  0  0  0
 29 54  1  0  0  0  0
 29 55  1  0  0  0  0
M  END
> <s_m_source_file>
AV-unprocessed.smi

> <i_m_source_file_index>
287

> <i_lp_mmshare_version>
43012

> <i_f3d_flags>
0

> <s_epik_input>
W0NIM11jMVtjSF1jKGMobzEpW0NIM10pW0NAQF0oW0NIM10pKFtPSF0pW0NIMl1bTkhdYyhuW2NIXW4yKWMoYzIzKW5bY0hdbjNbQ0BASF00T1tDQEhdKFtDSDJdW09IXSlbQ0BASF0oW09IXSlbQ0BIXTRbT0hd

> <s_epik_cmdline>
J2VwaWtfcHl0aG9uJywgJy1waCcsICc3LjAnLCAnLXRuJywgJzgnLCAnLW1hJywgJzIwMCcsICctbWV0YWxfYmluZGluZycsICctaW1hZScsICc8aW5maWxlLm1hZT4nLCAnLW9tYWUnLCAnPG91dGZpbGUubWFlPic=

> <r_lp_tautomer_probability>
1

> <r_epik_Ionization_Penalty>
0.000992612

> <r_epik_Ionization_Penalty_Charging>
0

> <r_epik_Ionization_Penalty_Neutral>
0.000992612

> <r_epik_State_Penalty>
-0

> <r_epik_Charging_Adjusted_Penalty>
0

> <i_epik_Tot_Q>
0

> <i_epik_Tot_abs_Q>
0

> <r_epik_Metal_State_Penalty>
-0

> <b_epik_Metal_Only>
0

> <s_epik_Chemistry_Notes>
This compound contains an acetal/aminal-like group ( X-CH(R)-Y where X, Y are N, S, or O) that may be acid/base labile, releasing an aldehyde.

> <s_lp_Force_Field>
OPLS_2005

> <r_lp_Energy>
46.8376

> <b_lp_Chiralities_Consistent>
1

> <s_lp_Variant>
AV-unprocessed.smi:287-27

> <Gold.Version>
5.8.1

> <Gold.Id.Protein>
6NUR|6NUR_protein|mol2

> <Gold.PLP.Fitness>
49.5423

> <Gold.PLP.PLP>
-40.8283

> <Gold.PLP.part.hbond>
-4.0000

> <Gold.PLP.part.metal>
0.0000

> <Gold.PLP.part.buried>
-6.2421

> <Gold.PLP.part.nonpolar>
-29.2301

> <Gold.PLP.part.repulsive>
0.3619

> <Gold.PLP.ligand.clash>
0.0000

> <Gold.PLP.ligand.torsion>
1.5477

> <Gold.PLP.Chemscore.Hbond>
3.9040

> <Gold.PLP.Chemscore.CHOScore>
0.0000

> <Gold.PLP.Chemscore.Metal>
0.0000

> <Gold.Chemscore.Hbonds>
donor molecule, donor type, donor heavy atom, donor atom, acceptor molecule, acceptor atom, score
      L1  H    23    50       P1  7921  0.73
      L1  H    25    51       P1 10747  1.00
      L1  H    27    52       P1 10747  0.72
      P1  H  7997  8010       L1     7  1.00

> <Gold.PLP.Chemscore.Internal.Correction>
0.0974

> <Gold.Rescore>
     Score         DG    S(hbond)    S(metal)    S(lipo)     H(rot)  DE(clash)    DE(int)     intcor
     12.65     -14.42       3.62        0.00      88.38       5.27       0.00       1.76       ----

> <Gold.Chemscore.Fitness>
12.6544

> <Gold.Chemscore.DG>
-14.4191

> <Gold.Chemscore.ZeroCoef>
-5.4800

> <Gold.Chemscore.Hbond>
3.6175

> <Gold.Chemscore.Metal>
0.0000

> <Gold.Chemscore.Lipo>
88.3814

> <Gold.Chemscore.Internal_Hbond>
0.0000

> <Gold.Chemscore.DEClash>
0.0034

> <Gold.Chemscore.DEInternal>
1.7612

> <Gold.Chemscore.Rot>
5.2672

> <Gold.Chemscore.Internal.Correction>
   9.000000E+99

> <Gold.Chemscore.Hbonds>
donor molecule, donor type, donor heavy atom, donor atom, acceptor molecule, acceptor atom, score
      L1  H    23    50       P1  7921  0.72
      L1  H    25    51       P1 10747  0.99
      L1  H    27    52       P1 10747  0.56
      P1  H  7997  8010       L1     7  0.64

> <Gold.Chemscore.Hbond.Weighted>
-12.0824

> <Gold.Chemscore.Metal.Weighted>
-0.0000

> <Gold.Chemscore.Lipo.Weighted>
-10.3406

> <Gold.Chemscore.Internal_Hbond.Weighted>
0.0000

> <Gold.Chemscore.DEClash.Weighted>
0.0034

> <Gold.Chemscore.DEInternal.Weighted>
1.7612

> <Gold.Chemscore.Rot.Weighted>
13.4839

> <Gold.Chemscore.Internal.Correction.Weighted>
   9.000000E+99

> <Gold.Protein.RotatedTorsions>
[ 6907 6896 6895 6894 ] final -134.94 input  -60.11 | X-H torsion
[ 7974 7965 7964 7962 ] final -117.09 input  175.53 | X-H torsion
[ 8008 7997 7996 7995 ] final   34.39 input   59.86 | X-H torsion
[ 10167 10162 10161 10158 ] final -162.48 input  -65.29 | X-H torsion
[ 10718 10713 10712 10709 ] final  -23.64 input   66.30 | X-H torsion
[ 10763 10752 10751 10750 ] final  113.57 input  -60.55 | X-H torsion
[ 11005 11000 10999 10996 ] final  144.29 input  -57.11 | X-H torsion

> <Gold.Protein.ActiveResidues>
 VAL166  LYS551  ARG553  GLY616  TRP617  ASP618  TYR619  PRO620  LYS621  CYS622 
 ASP623  PHE694  ASN695  SER759  ASP760  ASP761  ALA762  ILE779  LEU786  VAL792 
 PHE793  MET794  SER795  GLU796  ALA797  LYS798  CYS799  TRP800  GLU811  SER814 

> <Gold.Protein.RotatedAtoms>
  150.9919  133.6141  159.2706 H   0  0  0  0  0  0  0  0  0  0  0  0  # atno 6907 bound_to 6896
  151.3359  135.0851  159.9364 H   0  0  0  0  0  0  0  0  0  0  0  0  # atno 6908 bound_to 6896
  152.5248  133.9540  159.7739 H   0  0  0  0  0  0  0  0  0  0  0  0  # atno 6909 bound_to 6896
  145.0892  140.8478  143.3993 H   0  0  0  0  0  0  0  0  0  0  0  0  # atno 7974 bound_to 7965
  155.1541  140.3277  155.4425 H   0  0  0  0  0  0  0  0  0  0  0  0  # atno 8008 bound_to 7997
  156.2564  140.1972  156.6601 H   0  0  0  0  0  0  0  0  0  0  0  0  # atno 8009 bound_to 7997
  154.6452  140.0565  156.9878 H   0  0  0  0  0  0  0  0  0  0  0  0  # atno 8010 bound_to 7997
  139.6389  144.0297  152.2076 H   0  0  0  0  0  0  0  0  0  0  0  0  # atno 10167 bound_to 10162
  156.4883  130.4560  149.6770 H   0  0  0  0  0  0  0  0  0  0  0  0  # atno 10718 bound_to 10713
  153.4944  135.3651  155.2508 H   0  0  0  0  0  0  0  0  0  0  0  0  # atno 10763 bound_to 10752
  154.8750  135.3985  154.3551 H   0  0  0  0  0  0  0  0  0  0  0  0  # atno 10764 bound_to 10752
  153.4176  135.7079  153.6382 H   0  0  0  0  0  0  0  0  0  0  0  0  # atno 10765 bound_to 10752
  140.0620  134.9199  157.1201 H   0  0  0  0  0  0  0  0  0  0  0  0  # atno 11005 bound_to 11000
  145.1086  139.2772  143.5649 LP  0  0  0  0  0  0  0  0  0  0  0  0  # atno 17320 bound_to 7965
  146.3531  140.0675  142.8625 LP  0  0  0  0  0  0  0  0  0  0  0  0  # atno 17321 bound_to 7965
  139.9982  144.6312  150.7753 LP  0  0  0  0  0  0  0  0  0  0  0  0  # atno 17342 bound_to 10162
  140.7480  143.2915  151.3317 LP  0  0  0  0  0  0  0  0  0  0  0  0  # atno 17343 bound_to 10162
  156.3452  130.7403  151.2354 LP  0  0  0  0  0  0  0  0  0  0  0  0  # atno 17370 bound_to 10713
  157.7476  131.0392  150.4541 LP  0  0  0  0  0  0  0  0  0  0  0  0  # atno 17371 bound_to 10713
  140.3755  134.2343  155.7174 LP  0  0  0  0  0  0  0  0  0  0  0  0  # atno 17394 bound_to 11000
  141.1977  133.8053  157.0615 LP  0  0  0  0  0  0  0  0  0  0  0  0  # atno 17395 bound_to 11000

$$$$
