AV-unprocessed.smi:3099|AV-procd|sdf|11803|dock4
  -GOLD-   2272017183D 1   1.00000     0.00000
 Structure written by MMmdl.
 32 33  0  0  0  0  0  0  0  0  1 V2000
  151.7579  144.9228  160.2580 C   0  0  0  0  0  0  0  0  0  0  0  0
  152.2032  143.5593  160.0499 N   0  0  0  0  0  0  0  0  0  0  0  0
  153.0385  142.8661  160.8354 C   0  0  0  0  0  0  0  0  0  0  0  0
  153.2847  141.6299  160.4236 N   0  0  0  0  0  0  0  0  0  0  0  0
  152.5310  141.5141  159.2594 C   0  0  0  0  0  0  0  0  0  0  0  0
  151.8559  142.6904  159.0175 C   0  0  0  0  0  0  0  0  0  0  0  0
  150.9139  143.0370  157.9046 C   0  0  0  0  0  0  0  0  0  0  0  0
  151.0256  142.1364  156.6598 C   0  0  0  0  0  0  0  0  0  0  0  0
  149.8370  142.2138  155.8137 N   0  0  0  0  0  0  0  0  0  0  0  0
  149.4788  141.3137  154.8843 C   0  0  0  0  0  0  0  0  0  0  0  0
  150.1240  140.2918  154.6478 O   0  0  0  0  0  0  0  0  0  0  0  0
  148.2048  141.6314  154.0967 C   0  0  0  0  0  0  0  0  0  0  0  0
  146.9321  141.4034  154.8950 C   0  0  0  0  0  0  0  0  0  0  0  0
  145.7075  142.2650  154.6791 C   0  0  0  0  0  0  0  0  0  0  0  0
  146.4995  142.3881  155.9573 C   0  0  0  0  0  0  0  0  0  0  0  0
  152.4603  145.4515  160.9031 H   0  0  0  0  0  0  0  0  0  0  0  0
  150.7764  144.9189  160.7318 H   0  0  0  0  0  0  0  0  0  0  0  0
  151.6956  145.4486  159.3055 H   0  0  0  0  0  0  0  0  0  0  0  0
  153.4777  143.2775  161.7325 H   0  0  0  0  0  0  0  0  0  0  0  0
  152.5249  140.5957  158.6911 H   0  0  0  0  0  0  0  0  0  0  0  0
  149.8886  143.0148  158.2746 H   0  0  0  0  0  0  0  0  0  0  0  0
  151.0918  144.0704  157.6053 H   0  0  0  0  0  0  0  0  0  0  0  0
  151.9205  142.3904  156.0903 H   0  0  0  0  0  0  0  0  0  0  0  0
  151.1547  141.0999  156.9714 H   0  0  0  0  0  0  0  0  0  0  0  0
  149.2469  143.0238  155.9356 H   0  0  0  0  0  0  0  0  0  0  0  0
  148.2219  142.6679  153.7577 H   0  0  0  0  0  0  0  0  0  0  0  0
  148.1908  141.0047  153.2041 H   0  0  0  0  0  0  0  0  0  0  0  0
  146.7374  140.3548  155.1135 H   0  0  0  0  0  0  0  0  0  0  0  0
  145.7816  143.0798  153.9612 H   0  0  0  0  0  0  0  0  0  0  0  0
  144.7367  141.7766  154.7318 H   0  0  0  0  0  0  0  0  0  0  0  0
  146.0556  141.9841  156.8649 H   0  0  0  0  0  0  0  0  0  0  0  0
  147.0961  143.2883  156.0915 H   0  0  0  0  0  0  0  0  0  0  0  0
  1  2  1  0  0  0  0
  1 16  1  0  0  0  0
  1 17  1  0  0  0  0
  1 18  1  0  0  0  0
  2  6  1  0  0  0  0
  2  3  1  0  0  0  0
  3  4  2  0  0  0  0
  3 19  1  0  0  0  0
  4  5  1  0  0  0  0
  5  6  2  0  0  0  0
  5 20  1  0  0  0  0
  6  7  1  0  0  0  0
  7  8  1  0  0  0  0
  7 21  1  0  0  0  0
  7 22  1  0  0  0  0
  8  9  1  0  0  0  0
  8 23  1  0  0  0  0
  8 24  1  0  0  0  0
  9 10  1  0  0  0  0
  9 25  1  0  0  0  0
 10 11  2  0  0  0  0
 10 12  1  0  0  0  0
 12 13  1  0  0  0  0
 12 26  1  0  0  0  0
 12 27  1  0  0  0  0
 13 15  1  0  0  0  0
 13 14  1  0  0  0  0
 13 28  1  0  0  0  0
 14 15  1  0  0  0  0
 14 29  1  0  0  0  0
 14 30  1  0  0  0  0
 15 31  1  0  0  0  0
 15 32  1  0  0  0  0
M  END
> <s_m_source_file>
AV-unprocessed.smi

> <i_m_source_file_index>
3099

> <i_lp_mmshare_version>
43012

> <i_f3d_flags>
0

> <s_epik_input>
W0NIM11uMVtjSF1uW2NIXWMxW0NIMl1bQ0gyXVtOSF1DKD1PKVtDSDJdW0NIXTJbQ0gyXVtDSDJdMg==

> <s_epik_cmdline>
J2VwaWtfcHl0aG9uJywgJy1waCcsICc3LjAnLCAnLXRuJywgJzgnLCAnLW1hJywgJzIwMCcsICctbWV0YWxfYmluZGluZycsICctaW1hZScsICc8aW5maWxlLm1hZT4nLCAnLW9tYWUnLCAnPG91dGZpbGUubWFlPic=

> <r_lp_tautomer_probability>
1

> <r_epik_Ionization_Penalty>
0.86664

> <r_epik_Ionization_Penalty_Charging>
0.86664

> <r_epik_Ionization_Penalty_Neutral>
2.48486e-08

> <r_epik_State_Penalty>
0.903601

> <r_epik_Charging_Adjusted_Penalty>
1.77024

> <i_epik_Tot_Q>
0

> <i_epik_Tot_abs_Q>
0

> <r_epik_Metal_State_Penalty>
0.359833

> <b_epik_Metal_Only>
0

> <s_lp_Force_Field>
OPLS_2005

> <r_lp_Energy>
10.131

> <b_lp_Chiralities_Consistent>
1

> <s_lp_Variant>
AV-unprocessed.smi:3099-2

> <Gold.Version>
5.8.1

> <Gold.Id.Protein>
6NUR|6NUR_protein|mol2

> <Gold.PLP.Fitness>
41.8707

> <Gold.PLP.PLP>
-37.2091

> <Gold.PLP.part.hbond>
-2.0000

> <Gold.PLP.part.metal>
0.0000

> <Gold.PLP.part.buried>
-4.8897

> <Gold.PLP.part.nonpolar>
-29.9889

> <Gold.PLP.part.repulsive>
0.2411

> <Gold.PLP.ligand.clash>
0.0000

> <Gold.PLP.ligand.torsion>
0.9448

> <Gold.PLP.Chemscore.Hbond>
1.9920

> <Gold.PLP.Chemscore.CHOScore>
0.0000

> <Gold.PLP.Chemscore.Metal>
0.0000

> <Gold.Chemscore.Hbonds>
donor molecule, donor type, donor heavy atom, donor atom, acceptor molecule, acceptor atom, score
      L1  H     9    25       P1  8028  1.00
      P1  H  7989  7998       L1    11  1.00

> <Gold.PLP.Chemscore.Internal.Correction>
0.5753

> <Gold.Rescore>
     Score         DG    S(hbond)    S(metal)    S(lipo)     H(rot)  DE(clash)    DE(int)     intcor
     13.67     -14.56       1.71        0.00      70.48       1.91       0.08       0.81       ----

> <Gold.Chemscore.Fitness>
13.6656

> <Gold.Chemscore.DG>
-14.5555

> <Gold.Chemscore.ZeroCoef>
-5.4800

> <Gold.Chemscore.Hbond>
1.7131

> <Gold.Chemscore.Metal>
0.0000

> <Gold.Chemscore.Lipo>
70.4843

> <Gold.Chemscore.Internal_Hbond>
0.0000

> <Gold.Chemscore.DEClash>
0.0766

> <Gold.Chemscore.DEInternal>
0.8134

> <Gold.Chemscore.Rot>
1.9113

> <Gold.Chemscore.Internal.Correction>
   9.000000E+99

> <Gold.Chemscore.Hbonds>
donor molecule, donor type, donor heavy atom, donor atom, acceptor molecule, acceptor atom, score
      L1  H     9    25       P1  8028  0.95
      P1  H  7989  7998       L1    11  0.47

> <Gold.Chemscore.Hbond.Weighted>
-5.7219

> <Gold.Chemscore.Metal.Weighted>
-0.0000

> <Gold.Chemscore.Lipo.Weighted>
-8.2467

> <Gold.Chemscore.Internal_Hbond.Weighted>
0.0000

> <Gold.Chemscore.DEClash.Weighted>
0.0766

> <Gold.Chemscore.DEInternal.Weighted>
0.8134

> <Gold.Chemscore.Rot.Weighted>
4.8930

> <Gold.Chemscore.Internal.Correction.Weighted>
   9.000000E+99

> <Gold.Protein.RotatedTorsions>
[ 6907 6896 6895 6894 ] final    1.62 input  -60.11 | X-H torsion
[ 7974 7965 7964 7962 ] final   27.50 input  175.53 | X-H torsion
[ 8008 7997 7996 7995 ] final  170.51 input   59.86 | X-H torsion
[ 10167 10162 10161 10158 ] final  134.01 input  -65.29 | X-H torsion
[ 10718 10713 10712 10709 ] final -108.12 input   66.30 | X-H torsion
[ 10763 10752 10751 10750 ] final  -92.32 input  -60.55 | X-H torsion
[ 11005 11000 10999 10996 ] final  -65.89 input  -57.11 | X-H torsion

> <Gold.Protein.ActiveResidues>
 VAL166  LYS551  ARG553  GLY616  TRP617  ASP618  TYR619  PRO620  LYS621  CYS622 
 ASP623  PHE694  ASN695  SER759  ASP760  ASP761  ALA762  ILE779  LEU786  VAL792 
 PHE793  MET794  SER795  GLU796  ALA797  LYS798  CYS799  TRP800  GLU811  SER814 

> <Gold.Protein.RotatedAtoms>
  151.5955  135.1051  160.0048 H   0  0  0  0  0  0  0  0  0  0  0  0  # atno 6907 bound_to 6896
  152.4284  133.7231  159.6555 H   0  0  0  0  0  0  0  0  0  0  0  0  # atno 6908 bound_to 6896
  150.8175  133.8240  159.3176 H   0  0  0  0  0  0  0  0  0  0  0  0  # atno 6909 bound_to 6896
  146.1781  139.7183  142.8920 H   0  0  0  0  0  0  0  0  0  0  0  0  # atno 7974 bound_to 7965
  156.1358  140.1536  156.8996 H   0  0  0  0  0  0  0  0  0  0  0  0  # atno 8008 bound_to 7997
  154.4946  140.0842  156.7708 H   0  0  0  0  0  0  0  0  0  0  0  0  # atno 8009 bound_to 7997
  155.4171  140.3421  155.4270 H   0  0  0  0  0  0  0  0  0  0  0  0  # atno 8010 bound_to 7997
  139.5274  144.6588  151.5077 H   0  0  0  0  0  0  0  0  0  0  0  0  # atno 10167 bound_to 10162
  156.0470  130.5697  150.7916 H   0  0  0  0  0  0  0  0  0  0  0  0  # atno 10718 bound_to 10713
  154.6849  135.5235  153.8312 H   0  0  0  0  0  0  0  0  0  0  0  0  # atno 10763 bound_to 10752
  153.0590  135.6561  154.0517 H   0  0  0  0  0  0  0  0  0  0  0  0  # atno 10764 bound_to 10752
  154.0399  135.2978  155.3336 H   0  0  0  0  0  0  0  0  0  0  0  0  # atno 10765 bound_to 10752
  141.1467  133.6689  156.6055 H   0  0  0  0  0  0  0  0  0  0  0  0  # atno 11005 bound_to 11000
  145.4155  141.0401  143.2993 LP  0  0  0  0  0  0  0  0  0  0  0  0  # atno 17320 bound_to 7965
  144.8269  139.5695  143.6961 LP  0  0  0  0  0  0  0  0  0  0  0  0  # atno 17321 bound_to 7965
  140.6427  143.8857  150.6707 LP  0  0  0  0  0  0  0  0  0  0  0  0  # atno 17342 bound_to 10162
  140.2197  143.3819  152.1653 LP  0  0  0  0  0  0  0  0  0  0  0  0  # atno 17343 bound_to 10162
  157.5355  131.0938  150.9898 LP  0  0  0  0  0  0  0  0  0  0  0  0  # atno 17370 bound_to 10713
  157.0193  130.5667  149.5329 LP  0  0  0  0  0  0  0  0  0  0  0  0  # atno 17371 bound_to 10713
  140.3655  134.7651  157.4563 LP  0  0  0  0  0  0  0  0  0  0  0  0  # atno 17394 bound_to 11000
  140.0751  134.5808  155.8599 LP  0  0  0  0  0  0  0  0  0  0  0  0  # atno 17395 bound_to 11000

$$$$
