AV-unprocessed.smi:205|AV-procd|sdf|1600|dock9
  -GOLD-   2262019513D 1   1.00000     0.00000
 Structure written by MMmdl.
 54 56  0  0  0  0  0  0  0  0  1 V2000
  154.0244  139.0309  154.7095 O   0  0  0  0  0  0  0  0  0  0  0  0
  152.8562  138.5668  155.3524 C   0  0  0  0  0  0  0  0  0  0  0  0
  151.7598  138.2909  154.3166 C   0  0  0  0  0  0  0  0  0  0  0  0
  150.8414  139.3711  154.3135 O   0  0  0  0  0  0  0  0  0  0  0  0
  149.4926  138.9428  154.3970 C   0  0  0  0  0  0  0  0  0  0  0  0
  148.5700  140.1749  154.4149 C   0  0  0  0  0  0  0  0  0  0  0  0
  147.1715  139.8652  154.7162 N   0  0  0  0  0  0  0  0  0  0  0  0
  146.2100  140.9670  154.6970 C   0  0  0  0  0  0  0  0  0  0  0  0
  144.9271  140.6708  155.4956 C   0  0  0  0  0  0  0  0  0  0  0  0
  143.9098  141.5875  155.1523 O   0  0  0  0  0  0  0  0  0  0  0  0
  146.6630  138.6580  154.3638 C   0  0  0  0  0  0  0  0  0  0  0  0
  146.3847  137.7865  155.3665 N   0  0  0  0  0  0  0  0  0  0  0  0
  145.8965  136.5745  155.0900 C   0  0  0  0  0  0  0  0  0  0  0  0
  145.6172  136.0396  153.9003 N   0  0  0  0  0  0  0  0  0  0  0  0
  145.8849  136.9135  152.8877 C   0  0  0  0  0  0  0  0  0  0  0  0
  146.3928  138.2365  153.0289 C   0  0  0  0  0  0  0  0  0  0  0  0
  146.5006  138.8331  151.7776 N   0  0  0  0  0  0  0  0  0  0  0  0
  146.0955  137.9127  150.9467 C   0  0  0  0  0  0  0  0  0  0  0  0
  145.7411  136.7154  151.5251 N   0  0  0  0  0  0  0  0  0  0  0  0
  145.2364  135.5564  150.8486 C   0  0  0  0  0  0  0  0  0  0  0  0
  144.0970  134.7260  151.4465 C   0  0  0  0  0  0  0  0  0  0  0  0
  144.7548  133.4255  150.9358 C   0  0  0  0  0  0  0  0  0  0  0  0
  144.8332  132.2889  151.9666 C   0  0  0  0  0  0  0  0  0  0  0  0
  144.9488  132.7953  153.2809 O   0  0  0  0  0  0  0  0  0  0  0  0
  144.1959  132.8179  149.6303 C   0  0  0  0  0  0  0  0  0  0  0  0
  143.8115  133.7924  148.6816 O   0  0  0  0  0  0  0  0  0  0  0  0
  146.0495  134.2583  150.8030 C   0  0  0  0  0  0  0  0  0  0  0  0
  154.4442  138.2992  154.2837 H   0  0  0  0  0  0  0  0  0  0  0  0
  153.0732  137.6796  155.9481 H   0  0  0  0  0  0  0  0  0  0  0  0
  152.5271  139.3459  156.0404 H   0  0  0  0  0  0  0  0  0  0  0  0
  152.2102  138.2176  153.3256 H   0  0  0  0  0  0  0  0  0  0  0  0
  151.2623  137.3401  154.5179 H   0  0  0  0  0  0  0  0  0  0  0  0
  149.2545  138.3284  153.5275 H   0  0  0  0  0  0  0  0  0  0  0  0
  149.3442  138.3158  155.2764 H   0  0  0  0  0  0  0  0  0  0  0  0
  148.9370  140.8789  155.1625 H   0  0  0  0  0  0  0  0  0  0  0  0
  148.6265  140.6974  153.4602 H   0  0  0  0  0  0  0  0  0  0  0  0
  146.6853  141.8550  155.1151 H   0  0  0  0  0  0  0  0  0  0  0  0
  145.9689  141.2280  153.6658 H   0  0  0  0  0  0  0  0  0  0  0  0
  144.5812  139.6457  155.3601 H   0  0  0  0  0  0  0  0  0  0  0  0
  145.1274  140.7986  156.5595 H   0  0  0  0  0  0  0  0  0  0  0  0
  143.5041  141.3000  154.3487 H   0  0  0  0  0  0  0  0  0  0  0  0
  145.7084  135.9405  155.9440 H   0  0  0  0  0  0  0  0  0  0  0  0
  146.0532  138.0818  149.8804 H   0  0  0  0  0  0  0  0  0  0  0  0
  144.9816  135.8882  149.8413 H   0  0  0  0  0  0  0  0  0  0  0  0
  144.0700  134.7853  152.5359 H   0  0  0  0  0  0  0  0  0  0  0  0
  143.1156  134.9398  151.0216 H   0  0  0  0  0  0  0  0  0  0  0  0
  143.9567  131.6422  151.9110 H   0  0  0  0  0  0  0  0  0  0  0  0
  145.6985  131.6517  151.7807 H   0  0  0  0  0  0  0  0  0  0  0  0
  144.1054  132.7277  153.7024 H   0  0  0  0  0  0  0  0  0  0  0  0
  144.9364  132.1718  149.1574 H   0  0  0  0  0  0  0  0  0  0  0  0
  143.3228  132.1965  149.8309 H   0  0  0  0  0  0  0  0  0  0  0  0
  144.5834  134.2617  148.4041 H   0  0  0  0  0  0  0  0  0  0  0  0
  146.6000  134.1067  149.8740 H   0  0  0  0  0  0  0  0  0  0  0  0
  146.7108  134.1548  151.6650 H   0  0  0  0  0  0  0  0  0  0  0  0
  1  2  1  0  0  0  0
  1 28  1  0  0  0  0
  2  3  1  0  0  0  0
  2 29  1  0  0  0  0
  2 30  1  0  0  0  0
  3  4  1  0  0  0  0
  3 31  1  0  0  0  0
  3 32  1  0  0  0  0
  4  5  1  0  0  0  0
  5  6  1  0  0  0  0
  5 33  1  0  0  0  0
  5 34  1  0  0  0  0
  6  7  1  0  0  0  0
  6 35  1  0  0  0  0
  6 36  1  0  0  0  0
  7  8  1  0  0  0  0
  7 11  1  0  0  0  0
  8  9  1  0  0  0  0
  8 37  1  0  0  0  0
  8 38  1  0  0  0  0
  9 10  1  0  0  0  0
  9 39  1  0  0  0  0
  9 40  1  0  0  0  0
 10 41  1  0  0  0  0
 11 16  1  0  0  0  0
 11 12  2  0  0  0  0
 12 13  1  0  0  0  0
 13 14  2  0  0  0  0
 13 42  1  0  0  0  0
 14 15  1  0  0  0  0
 15 19  1  0  0  0  0
 15 16  2  0  0  0  0
 16 17  1  0  0  0  0
 17 18  2  0  0  0  0
 18 19  1  0  0  0  0
 18 43  1  0  0  0  0
 19 20  1  0  0  0  0
 20 27  1  0  0  0  0
 20 21  1  0  0  0  0
 20 44  1  0  0  0  0
 21 22  1  0  0  0  0
 21 45  1  0  0  0  0
 21 46  1  0  0  0  0
 22 23  1  0  0  0  0
 22 25  1  0  0  0  0
 22 27  1  0  0  0  0
 23 24  1  0  0  0  0
 23 47  1  0  0  0  0
 23 48  1  0  0  0  0
 24 49  1  0  0  0  0
 25 26  1  0  0  0  0
 25 50  1  0  0  0  0
 25 51  1  0  0  0  0
 26 52  1  0  0  0  0
 27 53  1  0  0  0  0
 27 54  1  0  0  0  0
M  END
> <s_m_source_file>
AV-unprocessed.smi

> <i_m_source_file_index>
205

> <i_lp_mmshare_version>
43012

> <i_f3d_flags>
0

> <s_epik_input>
W09IXVtDSDJdW0NIMl1PW0NIMl1bQ0gyXU4oW0NIMl1bQ0gyXVtPSF0pYyhuW2NIXW4xKWMoYzEyKW5bY0hdbjJbQ0hdKFtDSDJdMylbQ0gyXUMzKFtDSDJdW09IXSlbQ0gyXVtPSF0=

> <s_epik_cmdline>
J2VwaWtfcHl0aG9uJywgJy1waCcsICc3LjAnLCAnLXRuJywgJzgnLCAnLW1hJywgJzIwMCcsICctbWV0YWxfYmluZGluZycsICctaW1hZScsICc8aW5maWxlLm1hZT4nLCAnLW9tYWUnLCAnPG91dGZpbGUubWFlPic=

> <r_lp_tautomer_probability>
1

> <r_epik_Ionization_Penalty>
0.00545557

> <r_epik_Ionization_Penalty_Charging>
0

> <r_epik_Ionization_Penalty_Neutral>
0.00545557

> <r_epik_State_Penalty>
0.00384469

> <r_epik_Charging_Adjusted_Penalty>
0.00384469

> <i_epik_Tot_Q>
0

> <i_epik_Tot_abs_Q>
0

> <r_epik_Metal_State_Penalty>
-0

> <b_epik_Metal_Only>
0

> <s_lp_Force_Field>
OPLS_2005

> <r_lp_Energy>
40.5801

> <b_lp_Chiralities_Consistent>
1

> <s_lp_Variant>
AV-unprocessed.smi:205-1

> <Gold.Version>
5.8.1

> <Gold.Id.Protein>
6NUR|6NUR_protein|mol2

> <Gold.PLP.Fitness>
51.5934

> <Gold.PLP.PLP>
-40.7659

> <Gold.PLP.part.hbond>
-6.0000

> <Gold.PLP.part.metal>
0.0000

> <Gold.PLP.part.buried>
-2.6937

> <Gold.PLP.part.nonpolar>
-33.5601

> <Gold.PLP.part.repulsive>
0.5806

> <Gold.PLP.ligand.clash>
0.0000

> <Gold.PLP.ligand.torsion>
3.2840

> <Gold.PLP.Chemscore.Hbond>
4.9513

> <Gold.PLP.Chemscore.CHOScore>
0.3521

> <Gold.PLP.Chemscore.Metal>
0.0000

> <Gold.Chemscore.Hbonds>
donor molecule, donor type, donor heavy atom, donor atom, acceptor molecule, acceptor atom, score
      L1  H    10    41       P1 10175  1.00
      L1  H    24    49       P1 10957  0.99
      L1  H    26    52       P1  7921  1.00
      P1  H  7989  7998       L1     4  1.00
      P1  H  7997  8010       L1     1  0.94
      L1  C    18    43       P1 10171  0.35

> <Gold.PLP.Chemscore.Internal.Correction>
1.4855

> <Gold.Rescore>
     Score         DG    S(hbond)    S(metal)    S(lipo)     H(rot)  DE(clash)    DE(int)     intcor
      6.47     -11.18       4.10        0.00      79.50       6.76       1.45       3.27       ----

> <Gold.Chemscore.Fitness>
6.4711

> <Gold.Chemscore.DG>
-11.1841

> <Gold.Chemscore.ZeroCoef>
-5.4800

> <Gold.Chemscore.Hbond>
4.1042

> <Gold.Chemscore.Metal>
0.0000

> <Gold.Chemscore.Lipo>
79.5006

> <Gold.Chemscore.Internal_Hbond>
0.0000

> <Gold.Chemscore.DEClash>
1.4473

> <Gold.Chemscore.DEInternal>
3.2657

> <Gold.Chemscore.Rot>
6.7600

> <Gold.Chemscore.Internal.Correction>
   9.000000E+99

> <Gold.Chemscore.Hbonds>
donor molecule, donor type, donor heavy atom, donor atom, acceptor molecule, acceptor atom, score
      L1  H    10    41       P1 10175  0.36
      L1  H    24    49       P1 10957  0.63
      L1  H    26    52       P1  7921  1.00
      P1  H  7989  7998       L1     4  0.70
      P1  H  7997  8010       L1     1  0.41

> <Gold.Chemscore.Hbond.Weighted>
-13.7080

> <Gold.Chemscore.Metal.Weighted>
-0.0000

> <Gold.Chemscore.Lipo.Weighted>
-9.3016

> <Gold.Chemscore.Internal_Hbond.Weighted>
0.0000

> <Gold.Chemscore.DEClash.Weighted>
1.4473

> <Gold.Chemscore.DEInternal.Weighted>
3.2657

> <Gold.Chemscore.Rot.Weighted>
17.3055

> <Gold.Chemscore.Internal.Correction.Weighted>
   9.000000E+99

> <Gold.Protein.RotatedTorsions>
[ 6907 6896 6895 6894 ] final   25.94 input  -60.11 | X-H torsion
[ 7974 7965 7964 7962 ] final   22.98 input  175.53 | X-H torsion
[ 8008 7997 7996 7995 ] final  116.77 input   59.86 | X-H torsion
[ 10167 10162 10161 10158 ] final  -93.37 input  -65.29 | X-H torsion
[ 10718 10713 10712 10709 ] final  -23.32 input   66.30 | X-H torsion
[ 10763 10752 10751 10750 ] final -137.69 input  -60.55 | X-H torsion
[ 11005 11000 10999 10996 ] final  117.99 input  -57.11 | X-H torsion

> <Gold.Protein.ActiveResidues>
 VAL166  LYS551  ARG553  GLY616  TRP617  ASP618  TYR619  PRO620  LYS621  CYS622 
 ASP623  PHE694  ASN695  SER759  ASP760  ASP761  ALA762  ILE779  LEU786  VAL792 
 PHE793  MET794  SER795  GLU796  ALA797  LYS798  CYS799  TRP800  GLU811  SER814 

> <Gold.Protein.RotatedAtoms>
  151.9801  135.0033  160.0556 H   0  0  0  0  0  0  0  0  0  0  0  0  # atno 6907 bound_to 6896
  152.1704  133.4635  159.4915 H   0  0  0  0  0  0  0  0  0  0  0  0  # atno 6908 bound_to 6896
  150.6901  134.1877  159.4316 H   0  0  0  0  0  0  0  0  0  0  0  0  # atno 6909 bound_to 6896
  146.2005  139.7808  142.8765 H   0  0  0  0  0  0  0  0  0  0  0  0  # atno 7974 bound_to 7965
  156.2458  140.2910  156.0575 H   0  0  0  0  0  0  0  0  0  0  0  0  # atno 8008 bound_to 7997
  155.1813  140.0404  157.2900 H   0  0  0  0  0  0  0  0  0  0  0  0  # atno 8009 bound_to 7997
  154.6258  140.2487  155.7500 H   0  0  0  0  0  0  0  0  0  0  0  0  # atno 8010 bound_to 7997
  140.3254  143.3025  152.0001 H   0  0  0  0  0  0  0  0  0  0  0  0  # atno 10167 bound_to 10162
  156.4926  130.4570  149.6746 H   0  0  0  0  0  0  0  0  0  0  0  0  # atno 10718 bound_to 10713
  154.8655  135.3634  154.5264 H   0  0  0  0  0  0  0  0  0  0  0  0  # atno 10763 bound_to 10752
  153.5892  135.7016  153.5435 H   0  0  0  0  0  0  0  0  0  0  0  0  # atno 10764 bound_to 10752
  153.3388  135.4103  155.1517 H   0  0  0  0  0  0  0  0  0  0  0  0  # atno 10765 bound_to 10752
  139.9094  134.9616  156.7435 H   0  0  0  0  0  0  0  0  0  0  0  0  # atno 11005 bound_to 11000
  145.3501  141.0306  143.3343 LP  0  0  0  0  0  0  0  0  0  0  0  0  # atno 17320 bound_to 7965
  144.8672  139.5090  143.6784 LP  0  0  0  0  0  0  0  0  0  0  0  0  # atno 17321 bound_to 7965
  139.4866  144.6278  151.7130 LP  0  0  0  0  0  0  0  0  0  0  0  0  # atno 17342 bound_to 10162
  140.5446  144.0524  150.6102 LP  0  0  0  0  0  0  0  0  0  0  0  0  # atno 17343 bound_to 10162
  156.3411  130.7382  151.2328 LP  0  0  0  0  0  0  0  0  0  0  0  0  # atno 17370 bound_to 10713
  157.7472  131.0403  150.4593 LP  0  0  0  0  0  0  0  0  0  0  0  0  # atno 17371 bound_to 10713
  140.6830  133.9457  155.7921 LP  0  0  0  0  0  0  0  0  0  0  0  0  # atno 17394 bound_to 11000
  141.0496  134.0504  157.3800 LP  0  0  0  0  0  0  0  0  0  0  0  0  # atno 17395 bound_to 11000

$$$$
