AV-unprocessed.smi:2819|AV-procd|sdf|10853|dock8
  -GOLD-   2272015293D 1   1.00000     0.00000
 Structure written by MMmdl.
 50 51  0  0  0  0  0  0  0  0  2 V2000
  147.4307  130.7532  153.1958 C   0  0  0  0  0  0  0  0  0  0  0  0
  146.2575  130.6039  152.3411 N   0  0  0  0  0  0  0  0  0  0  0  0
  145.7296  129.2787  152.0442 C   0  0  0  0  0  0  0  0  0  0  0  0
  145.6357  131.7505  151.7998 C   0  0  0  0  0  0  0  0  0  0  0  0
  144.4047  131.6819  151.1034 C   0  0  0  0  0  0  0  0  0  0  0  0
  143.8858  132.8939  150.6075 C   0  0  0  0  0  0  0  0  0  0  0  0
  144.5253  134.0693  150.7828 N   0  0  0  0  0  0  0  0  0  0  0  0
  145.6794  134.0410  151.4530 C   0  0  0  0  0  0  0  0  0  0  0  0
  146.2860  135.2703  151.5926 N   0  0  0  0  0  0  0  0  0  0  0  0
  145.7662  136.4776  151.8845 C   0  0  0  0  0  0  0  0  0  0  0  0
  144.5713  136.7186  152.0623 O   0  0  0  0  0  0  0  0  0  0  0  0
  146.7248  137.4128  151.9671 N   0  0  0  0  0  0  0  0  0  0  0  0
  146.5050  138.8275  152.2668 C   0  0  0  0  0  0  0  0  0  0  0  0
  146.6405  139.1737  153.7811 C   0  0  0  0  0  0  0  0  0  0  0  0
  145.9194  138.1141  154.6519 C   0  0  0  0  0  0  0  0  0  0  0  0
  148.1326  139.1223  154.1950 C   0  0  0  0  0  0  0  0  0  0  0  0
  146.0753  140.5382  154.0838 N   0  3  0  0  0  0  0  0  0  0  0  0
  145.7791  140.8169  155.5178 C   0  0  0  0  0  0  0  0  0  0  0  0
  145.0372  142.1559  155.6670 C   0  0  0  0  0  0  0  0  0  0  0  0
  145.8152  143.2010  155.1018 O   0  0  0  0  0  0  0  0  0  0  0  0
  146.0334  142.9999  153.7127 C   0  0  0  0  0  0  0  0  0  0  0  0
  146.8135  141.6926  153.4957 C   0  0  0  0  0  0  0  0  0  0  0  0
  146.2558  132.9440  151.9623 N   0  0  0  0  0  0  0  0  0  0  0  0
  148.2347  131.2571  152.6581 H   0  0  0  0  0  0  0  0  0  0  0  0
  147.8072  129.7859  153.5285 H   0  0  0  0  0  0  0  0  0  0  0  0
  147.1868  131.3401  154.0821 H   0  0  0  0  0  0  0  0  0  0  0  0
  145.7557  129.0880  150.9709 H   0  0  0  0  0  0  0  0  0  0  0  0
  144.6996  129.1903  152.3907 H   0  0  0  0  0  0  0  0  0  0  0  0
  146.3137  128.5001  152.5348 H   0  0  0  0  0  0  0  0  0  0  0  0
  143.8698  130.7578  150.9459 H   0  0  0  0  0  0  0  0  0  0  0  0
  142.9522  132.9199  150.0655 H   0  0  0  0  0  0  0  0  0  0  0  0
  147.2862  135.2538  151.4592 H   0  0  0  0  0  0  0  0  0  0  0  0
  147.6796  137.1271  151.8047 H   0  0  0  0  0  0  0  0  0  0  0  0
  147.2434  139.3779  151.6847 H   0  0  0  0  0  0  0  0  0  0  0  0
  145.5337  139.1354  151.8787 H   0  0  0  0  0  0  0  0  0  0  0  0
  146.4348  137.1535  154.6324 H   0  0  0  0  0  0  0  0  0  0  0  0
  144.9032  137.9188  154.3100 H   0  0  0  0  0  0  0  0  0  0  0  0
  145.8688  138.4245  155.6961 H   0  0  0  0  0  0  0  0  0  0  0  0
  148.5221  138.1037  154.1735 H   0  0  0  0  0  0  0  0  0  0  0  0
  148.2772  139.4970  155.2090 H   0  0  0  0  0  0  0  0  0  0  0  0
  148.7701  139.7021  153.5278 H   0  0  0  0  0  0  0  0  0  0  0  0
  145.1550  140.0411  155.9569 H   0  0  0  0  0  0  0  0  0  0  0  0
  146.7036  140.8531  156.0943 H   0  0  0  0  0  0  0  0  0  0  0  0
  144.0567  142.1143  155.1897 H   0  0  0  0  0  0  0  0  0  0  0  0
  144.8681  142.3757  156.7215 H   0  0  0  0  0  0  0  0  0  0  0  0
  145.0816  142.9802  153.1794 H   0  0  0  0  0  0  0  0  0  0  0  0
  146.5999  143.8443  153.3196 H   0  0  0  0  0  0  0  0  0  0  0  0
  147.7999  141.7837  153.9507 H   0  0  0  0  0  0  0  0  0  0  0  0
  146.9638  141.5725  152.4247 H   0  0  0  0  0  0  0  0  0  0  0  0
  145.1756  140.5438  153.6248 H   0  0  0  0  0  0  0  0  0  0  0  0
  1  2  1  0  0  0  0
  1 24  1  0  0  0  0
  1 25  1  0  0  0  0
  1 26  1  0  0  0  0
  2  3  1  0  0  0  0
  2  4  1  0  0  0  0
  3 27  1  0  0  0  0
  3 28  1  0  0  0  0
  3 29  1  0  0  0  0
  4 23  1  0  0  0  0
  4  5  2  0  0  0  0
  5  6  1  0  0  0  0
  5 30  1  0  0  0  0
  6  7  2  0  0  0  0
  6 31  1  0  0  0  0
  7  8  1  0  0  0  0
  8  9  1  0  0  0  0
  8 23  2  0  0  0  0
  9 10  1  0  0  0  0
  9 32  1  0  0  0  0
 10 11  2  0  0  0  0
 10 12  1  0  0  0  0
 12 13  1  0  0  0  0
 12 33  1  0  0  0  0
 13 14  1  0  0  0  0
 13 34  1  0  0  0  0
 13 35  1  0  0  0  0
 14 15  1  0  0  0  0
 14 16  1  0  0  0  0
 14 17  1  0  0  0  0
 15 36  1  0  0  0  0
 15 37  1  0  0  0  0
 15 38  1  0  0  0  0
 16 39  1  0  0  0  0
 16 40  1  0  0  0  0
 16 41  1  0  0  0  0
 17 22  1  0  0  0  0
 17 18  1  0  0  0  0
 17 50  1  0  0  0  0
 18 19  1  0  0  0  0
 18 42  1  0  0  0  0
 18 43  1  0  0  0  0
 19 20  1  0  0  0  0
 19 44  1  0  0  0  0
 19 45  1  0  0  0  0
 20 21  1  0  0  0  0
 21 22  1  0  0  0  0
 21 46  1  0  0  0  0
 21 47  1  0  0  0  0
 22 48  1  0  0  0  0
 22 49  1  0  0  0  0
M  CHG  1  17   1
M  END
> <s_m_source_file>
AV-unprocessed.smi

> <i_m_source_file_index>
2819

> <i_lp_mmshare_version>
43012

> <i_f3d_flags>
0

> <s_epik_input>
W0NIM11OKFtDSDNdKWMxW2NIXVtjSF1uYyhuMSlbTkhdQyg9TylbTkhdW0NIMl1DKFtDSDNdKShbQ0gzXSlOMltDSDJdW0NIMl1PW0NIMl1bQ0gyXTI=

> <s_epik_cmdline>
J2VwaWtfcHl0aG9uJywgJy1waCcsICc3LjAnLCAnLXRuJywgJzgnLCAnLW1hJywgJzIwMCcsICctbWV0YWxfYmluZGluZycsICctaW1hZScsICc8aW5maWxlLm1hZT4nLCAnLW9tYWUnLCAnPG91dGZpbGUubWFlPic=

> <r_epik_Ionization_Penalty>
1.64867

> <r_epik_Ionization_Penalty_Charging>
0.602531

> <r_epik_Ionization_Penalty_Neutral>
1.04614

> <r_epik_State_Penalty>
1.74763

> <r_epik_Charging_Adjusted_Penalty>
2.35016

> <i_epik_Tot_Q>
1

> <i_epik_Tot_abs_Q>
1

> <r_epik_Metal_State_Penalty>
1.04264

> <b_epik_Metal_Only>
0

> <s_lp_Force_Field>
OPLS_2005

> <r_lp_Energy>
22.1801

> <b_lp_Chiralities_Consistent>
1

> <s_lp_Variant>
AV-unprocessed.smi:2819-4

> <Gold.Version>
5.8.1

> <Gold.Id.Protein>
6NUR|6NUR_protein|mol2

> <Gold.PLP.Fitness>
50.4575

> <Gold.PLP.PLP>
-37.5432

> <Gold.PLP.part.hbond>
-2.9355

> <Gold.PLP.part.metal>
0.0000

> <Gold.PLP.part.buried>
-8.5106

> <Gold.PLP.part.nonpolar>
-28.4182

> <Gold.PLP.part.repulsive>
1.7851

> <Gold.PLP.ligand.clash>
0.0000

> <Gold.PLP.ligand.torsion>
0.9719

> <Gold.PLP.Chemscore.Hbond>
3.9120

> <Gold.PLP.Chemscore.CHOScore>
1.0000

> <Gold.PLP.Chemscore.Metal>
0.0000

> <Gold.Chemscore.Hbonds>
donor molecule, donor type, donor heavy atom, donor atom, acceptor molecule, acceptor atom, score
      L1  H     9    32       P1  7948  0.90
      L1  H    12    33       P1  7948  1.00
      L1  H    17    50       P1 10175  2.00
      L1  C     6    31       P1 10186  1.00

> <Gold.PLP.Chemscore.Internal.Correction>
0.1221

> <Gold.Rescore>
     Score         DG    S(hbond)    S(metal)    S(lipo)     H(rot)  DE(clash)    DE(int)     intcor
     16.88     -19.07       2.90        0.00      67.35       1.55       0.06       2.13       ----

> <Gold.Chemscore.Fitness>
16.8797

> <Gold.Chemscore.DG>
-19.0675

> <Gold.Chemscore.ZeroCoef>
-5.4800

> <Gold.Chemscore.Hbond>
2.8973

> <Gold.Chemscore.Metal>
0.0000

> <Gold.Chemscore.Lipo>
67.3493

> <Gold.Chemscore.Internal_Hbond>
0.0000

> <Gold.Chemscore.DEClash>
0.0557

> <Gold.Chemscore.DEInternal>
2.1321

> <Gold.Chemscore.Rot>
1.5506

> <Gold.Chemscore.Internal.Correction>
   9.000000E+99

> <Gold.Chemscore.Hbonds>
donor molecule, donor type, donor heavy atom, donor atom, acceptor molecule, acceptor atom, score
      L1  H     9    32       P1  7948  0.75
      L1  H    12    33       P1  7948  0.93
      L1  H    17    50       P1 10175  0.99

> <Gold.Chemscore.Hbond.Weighted>
-9.6771

> <Gold.Chemscore.Metal.Weighted>
-0.0000

> <Gold.Chemscore.Lipo.Weighted>
-7.8799

> <Gold.Chemscore.Internal_Hbond.Weighted>
0.0000

> <Gold.Chemscore.DEClash.Weighted>
0.0557

> <Gold.Chemscore.DEInternal.Weighted>
2.1321

> <Gold.Chemscore.Rot.Weighted>
3.9695

> <Gold.Chemscore.Internal.Correction.Weighted>
   9.000000E+99

> <Gold.Protein.RotatedTorsions>
[ 6907 6896 6895 6894 ] final -153.18 input  -60.11 | X-H torsion
[ 7974 7965 7964 7962 ] final  141.60 input  175.53 | X-H torsion
[ 8008 7997 7996 7995 ] final  161.56 input   59.86 | X-H torsion
[ 10167 10162 10161 10158 ] final  -81.20 input  -65.29 | X-H torsion
[ 10718 10713 10712 10709 ] final    2.98 input   66.30 | X-H torsion
[ 10763 10752 10751 10750 ] final   76.29 input  -60.55 | X-H torsion
[ 11005 11000 10999 10996 ] final    5.84 input  -57.11 | X-H torsion

> <Gold.Protein.ActiveResidues>
 VAL166  LYS551  ARG553  GLY616  TRP617  ASP618  TYR619  PRO620  LYS621  CYS622 
 ASP623  PHE694  ASN695  SER759  ASP760  ASP761  ALA762  ILE779  LEU786  VAL792 
 PHE793  MET794  SER795  GLU796  ALA797  LYS798  CYS799  TRP800  GLU811  SER814 

> <Gold.Protein.RotatedAtoms>
  151.2388  133.4411  159.2606 H   0  0  0  0  0  0  0  0  0  0  0  0  # atno 6907 bound_to 6896
  151.0725  134.9807  159.8326 H   0  0  0  0  0  0  0  0  0  0  0  0  # atno 6908 bound_to 6896
  152.5414  134.2332  159.8886 H   0  0  0  0  0  0  0  0  0  0  0  0  # atno 6909 bound_to 6896
  144.9082  139.5329  143.5721 H   0  0  0  0  0  0  0  0  0  0  0  0  # atno 7974 bound_to 7965
  156.2094  140.1774  156.7728 H   0  0  0  0  0  0  0  0  0  0  0  0  # atno 8008 bound_to 7997
  154.5701  140.0684  156.8981 H   0  0  0  0  0  0  0  0  0  0  0  0  # atno 8009 bound_to 7997
  155.2688  140.3341  155.4269 H   0  0  0  0  0  0  0  0  0  0  0  0  # atno 8010 bound_to 7997
  140.4434  143.2507  151.8593 H   0  0  0  0  0  0  0  0  0  0  0  0  # atno 10167 bound_to 10162
  156.8710  130.5620  149.5657 H   0  0  0  0  0  0  0  0  0  0  0  0  # atno 10718 bound_to 10713
  153.0714  135.4957  154.8314 H   0  0  0  0  0  0  0  0  0  0  0  0  # atno 10763 bound_to 10752
  154.7028  135.3005  154.9317 H   0  0  0  0  0  0  0  0  0  0  0  0  # atno 10764 bound_to 10752
  154.0036  135.6763  153.4813 H   0  0  0  0  0  0  0  0  0  0  0  0  # atno 10765 bound_to 10752
  140.5662  134.0145  155.7991 H   0  0  0  0  0  0  0  0  0  0  0  0  # atno 11005 bound_to 11000
  146.3144  139.7866  142.8994 LP  0  0  0  0  0  0  0  0  0  0  0  0  # atno 17320 bound_to 7965
  145.3500  141.0305  143.3344 LP  0  0  0  0  0  0  0  0  0  0  0  0  # atno 17321 bound_to 7965
  139.4791  144.5203  151.8810 LP  0  0  0  0  0  0  0  0  0  0  0  0  # atno 17342 bound_to 10162
  140.4292  144.2139  150.5887 LP  0  0  0  0  0  0  0  0  0  0  0  0  # atno 17343 bound_to 10162
  156.0726  130.5756  150.9413 LP  0  0  0  0  0  0  0  0  0  0  0  0  # atno 17370 bound_to 10713
  157.6196  131.0931  150.8647 LP  0  0  0  0  0  0  0  0  0  0  0  0  # atno 17371 bound_to 10713
  141.1084  133.9656  157.2955 LP  0  0  0  0  0  0  0  0  0  0  0  0  # atno 17394 bound_to 11000
  139.9383  135.0194  156.8628 LP  0  0  0  0  0  0  0  0  0  0  0  0  # atno 17395 bound_to 11000

$$$$
