AV-unprocessed.smi:1412|AV-procd|sdf|5740|dock10
  -GOLD-   22720 5373D 1   1.00000     0.00000
 Structure written by MMmdl.
 41 42  0  0  0  0  0  0  0  0  1 V2000
  152.8727  138.5611  155.0073 C   0  0  0  0  0  0  0  0  0  0  0  0
  151.4128  138.9765  154.7411 C   0  0  0  0  0  0  0  0  0  0  0  0
  150.3857  138.8334  155.9155 C   0  0  1  0  0  0  0  0  0  0  0  0
  148.9561  138.8647  155.3171 C   0  0  0  0  0  0  0  0  0  0  0  0
  150.5805  137.4317  156.5700 C   0  0  0  0  0  0  0  0  0  0  0  0
  149.4156  137.0314  157.3555 N   0  0  0  0  0  0  0  0  0  0  0  0
  149.4324  136.6972  158.6522 C   0  0  0  0  0  0  0  0  0  0  0  0
  150.4580  136.6592  159.3317 O   0  0  0  0  0  0  0  0  0  0  0  0
  148.1957  136.4188  159.0953 N   0  0  0  0  0  0  0  0  0  0  0  0
  147.7995  136.0659  160.4095 C   0  0  0  0  0  0  0  0  0  0  0  0
  147.7323  137.0370  161.3278 N   0  0  0  0  0  0  0  0  0  0  0  0
  147.3370  136.5534  162.5692 N   0  0  0  0  0  0  0  0  0  0  0  0
  147.1224  135.2347  162.5386 C   0  0  0  0  0  0  0  0  0  0  0  0
  147.3806  134.4512  160.9899 S   0  0  0  0  0  0  0  0  0  0  0  0
  150.6018  139.9231  156.9176 N   0  0  0  0  0  0  0  0  0  0  0  0
  151.8148  139.7855  157.7354 C   0  0  0  0  0  0  0  0  0  0  0  0
  151.9107  140.8664  158.8257 C   0  0  0  0  0  0  0  0  0  0  0  0
  151.8571  142.1561  158.2304 O   0  0  0  0  0  0  0  0  0  0  0  0
  150.6634  142.3550  157.4850 C   0  0  0  0  0  0  0  0  0  0  0  0
  150.5590  141.2905  156.3799 C   0  0  0  0  0  0  0  0  0  0  0  0
  153.4539  138.6233  154.0874 H   0  0  0  0  0  0  0  0  0  0  0  0
  152.9499  137.5359  155.3668 H   0  0  0  0  0  0  0  0  0  0  0  0
  153.3617  139.2152  155.7287 H   0  0  0  0  0  0  0  0  0  0  0  0
  151.4192  140.0092  154.3893 H   0  0  0  0  0  0  0  0  0  0  0  0
  151.0828  138.3784  153.8922 H   0  0  0  0  0  0  0  0  0  0  0  0
  148.7929  138.0410  154.6229 H   0  0  0  0  0  0  0  0  0  0  0  0
  148.7615  139.7838  154.7649 H   0  0  0  0  0  0  0  0  0  0  0  0
  148.1876  138.7709  156.0835 H   0  0  0  0  0  0  0  0  0  0  0  0
  150.7786  136.6622  155.8250 H   0  0  0  0  0  0  0  0  0  0  0  0
  151.4785  137.4245  157.1885 H   0  0  0  0  0  0  0  0  0  0  0  0
  148.5282  137.0322  156.8735 H   0  0  0  0  0  0  0  0  0  0  0  0
  147.4488  136.4816  158.4194 H   0  0  0  0  0  0  0  0  0  0  0  0
  146.8098  134.7198  163.4349 H   0  0  0  0  0  0  0  0  0  0  0  0
  151.8435  138.8212  158.2379 H   0  0  0  0  0  0  0  0  0  0  0  0
  152.7024  139.8430  157.1055 H   0  0  0  0  0  0  0  0  0  0  0  0
  151.1014  140.7573  159.5494 H   0  0  0  0  0  0  0  0  0  0  0  0
  152.8467  140.7670  159.3752 H   0  0  0  0  0  0  0  0  0  0  0  0
  149.7981  142.3094  158.1483 H   0  0  0  0  0  0  0  0  0  0  0  0
  150.6795  143.3534  157.0479 H   0  0  0  0  0  0  0  0  0  0  0  0
  151.3715  141.4442  155.6701 H   0  0  0  0  0  0  0  0  0  0  0  0
  149.6300  141.4750  155.8455 H   0  0  0  0  0  0  0  0  0  0  0  0
  1  2  1  0  0  0  0
  1 21  1  0  0  0  0
  1 22  1  0  0  0  0
  1 23  1  0  0  0  0
  2  3  1  0  0  0  0
  2 24  1  0  0  0  0
  2 25  1  0  0  0  0
  3  4  1  0  0  0  0
  3  5  1  0  0  0  0
  3 15  1  0  0  0  0
  4 26  1  0  0  0  0
  4 27  1  0  0  0  0
  4 28  1  0  0  0  0
  5  6  1  0  0  0  0
  5 29  1  0  0  0  0
  5 30  1  0  0  0  0
  6  7  1  0  0  0  0
  6 31  1  0  0  0  0
  7  8  2  0  0  0  0
  7  9  1  0  0  0  0
  9 10  1  0  0  0  0
  9 32  1  0  0  0  0
 10 14  1  0  0  0  0
 10 11  2  0  0  0  0
 11 12  1  0  0  0  0
 12 13  2  0  0  0  0
 13 14  1  0  0  0  0
 13 33  1  0  0  0  0
 15 20  1  0  0  0  0
 15 16  1  0  0  0  0
 16 17  1  0  0  0  0
 16 34  1  0  0  0  0
 16 35  1  0  0  0  0
 17 18  1  0  0  0  0
 17 36  1  0  0  0  0
 17 37  1  0  0  0  0
 18 19  1  0  0  0  0
 19 20  1  0  0  0  0
 19 38  1  0  0  0  0
 19 39  1  0  0  0  0
 20 40  1  0  0  0  0
 20 41  1  0  0  0  0
M  END
> <s_m_source_file>
AV-unprocessed.smi

> <i_m_source_file_index>
1412

> <i_lp_mmshare_version>
43012

> <i_f3d_flags>
0

> <s_epik_input>
W0NIMl0xW0NIMl1PW0NIMl1bQ0gyXU4xW0NAQF0oW0NIM10pKFtDSDJdW0NIM10pW0NIMl1bTkhdQyg9TylbTkhdYzJubltjSF1zMg==

> <s_epik_cmdline>
J2VwaWtfcHl0aG9uJywgJy1waCcsICc3LjAnLCAnLXRuJywgJzgnLCAnLW1hJywgJzIwMCcsICctbWV0YWxfYmluZGluZycsICctaW1hZScsICc8aW5maWxlLm1hZT4nLCAnLW9tYWUnLCAnPG91dGZpbGUubWFlPic=

> <r_lp_tautomer_probability>
1

> <r_epik_Ionization_Penalty>
0.295854

> <r_epik_Ionization_Penalty_Charging>
0

> <r_epik_Ionization_Penalty_Neutral>
0.295854

> <r_epik_State_Penalty>
0.288723

> <r_epik_Charging_Adjusted_Penalty>
0.288723

> <i_epik_Tot_Q>
0

> <i_epik_Tot_abs_Q>
0

> <r_epik_Metal_State_Penalty>
0.510549

> <b_epik_Metal_Only>
0

> <s_lp_Force_Field>
OPLS_2005

> <r_lp_Energy>
43.1066

> <b_lp_Chiralities_Consistent>
1

> <s_lp_Variant>
AV-unprocessed.smi:1412-1

> <Gold.Version>
5.8.1

> <Gold.Id.Protein>
6NUR|6NUR_protein|mol2

> <Gold.PLP.Fitness>
37.5924

> <Gold.PLP.PLP>
-32.1376

> <Gold.PLP.part.hbond>
-3.6193

> <Gold.PLP.part.metal>
0.0000

> <Gold.PLP.part.buried>
-4.3351

> <Gold.PLP.part.nonpolar>
-24.6395

> <Gold.PLP.part.repulsive>
0.2204

> <Gold.PLP.ligand.clash>
0.0000

> <Gold.PLP.ligand.torsion>
1.2479

> <Gold.PLP.Chemscore.Hbond>
2.6289

> <Gold.PLP.Chemscore.CHOScore>
0.0000

> <Gold.PLP.Chemscore.Metal>
0.0000

> <Gold.Chemscore.Hbonds>
donor molecule, donor type, donor heavy atom, donor atom, acceptor molecule, acceptor atom, score
      P1  H  6896  6908       L1     8  1.00
      P1  H  6931  6943       L1    11  0.90
      P1  H  6934  6947       L1    11  0.70

> <Gold.PLP.Chemscore.Internal.Correction>
0.0637

> <Gold.Rescore>
     Score         DG    S(hbond)    S(metal)    S(lipo)     H(rot)  DE(clash)    DE(int)     intcor
     14.67     -16.05       2.08        0.00      71.64       1.86       0.02       1.36       ----

> <Gold.Chemscore.Fitness>
14.6710

> <Gold.Chemscore.DG>
-16.0483

> <Gold.Chemscore.ZeroCoef>
-5.4800

> <Gold.Chemscore.Hbond>
2.0807

> <Gold.Chemscore.Metal>
0.0000

> <Gold.Chemscore.Lipo>
71.6444

> <Gold.Chemscore.Internal_Hbond>
0.0000

> <Gold.Chemscore.DEClash>
0.0197

> <Gold.Chemscore.DEInternal>
1.3576

> <Gold.Chemscore.Rot>
1.8609

> <Gold.Chemscore.Internal.Correction>
   9.000000E+99

> <Gold.Chemscore.Hbonds>
donor molecule, donor type, donor heavy atom, donor atom, acceptor molecule, acceptor atom, score
      P1  H  6896  6908       L1     8  0.94
      P1  H  6931  6943       L1    11  0.17
      P1  H  6934  6947       L1    11  0.62

> <Gold.Chemscore.Hbond.Weighted>
-6.9497

> <Gold.Chemscore.Metal.Weighted>
-0.0000

> <Gold.Chemscore.Lipo.Weighted>
-8.3824

> <Gold.Chemscore.Internal_Hbond.Weighted>
0.0000

> <Gold.Chemscore.DEClash.Weighted>
0.0197

> <Gold.Chemscore.DEInternal.Weighted>
1.3576

> <Gold.Chemscore.Rot.Weighted>
4.7638

> <Gold.Chemscore.Internal.Correction.Weighted>
   9.000000E+99

> <Gold.Protein.RotatedTorsions>
[ 6907 6896 6895 6894 ] final -152.65 input  -60.11 | X-H torsion
[ 7974 7965 7964 7962 ] final  -90.59 input  175.53 | X-H torsion
[ 8008 7997 7996 7995 ] final -103.81 input   59.86 | X-H torsion
[ 10167 10162 10161 10158 ] final   90.40 input  -65.29 | X-H torsion
[ 10718 10713 10712 10709 ] final -158.73 input   66.30 | X-H torsion
[ 10763 10752 10751 10750 ] final  -82.09 input  -60.55 | X-H torsion
[ 11005 11000 10999 10996 ] final   76.82 input  -57.11 | X-H torsion

> <Gold.Protein.ActiveResidues>
 VAL166  LYS551  ARG553  GLY616  TRP617  ASP618  TYR619  PRO620  LYS621  CYS622 
 ASP623  PHE694  ASN695  SER759  ASP760  ASP761  ALA762  ILE779  LEU786  VAL792 
 PHE793  MET794  SER795  GLU796  ALA797  LYS798  CYS799  TRP800  GLU811  SER814 

> <Gold.Protein.RotatedAtoms>
  151.2309  133.4451  159.2603 H   0  0  0  0  0  0  0  0  0  0  0  0  # atno 6907 bound_to 6896
  151.0795  134.9849  159.8359 H   0  0  0  0  0  0  0  0  0  0  0  0  # atno 6908 bound_to 6896
  152.5422  134.2250  159.8855 H   0  0  0  0  0  0  0  0  0  0  0  0  # atno 6909 bound_to 6896
  145.4245  140.9553  143.2162 H   0  0  0  0  0  0  0  0  0  0  0  0  # atno 7974 bound_to 7965
  154.8763  140.0421  157.1755 H   0  0  0  0  0  0  0  0  0  0  0  0  # atno 8008 bound_to 7997
  154.8685  140.2955  155.5474 H   0  0  0  0  0  0  0  0  0  0  0  0  # atno 8009 bound_to 7997
  156.2999  140.2433  156.3671 H   0  0  0  0  0  0  0  0  0  0  0  0  # atno 8010 bound_to 7997
  139.8477  144.6609  150.9207 H   0  0  0  0  0  0  0  0  0  0  0  0  # atno 10167 bound_to 10162
  156.5583  130.8635  151.2801 H   0  0  0  0  0  0  0  0  0  0  0  0  # atno 10718 bound_to 10713
  154.5716  135.5603  153.7100 H   0  0  0  0  0  0  0  0  0  0  0  0  # atno 10763 bound_to 10752
  153.0050  135.6298  154.2107 H   0  0  0  0  0  0  0  0  0  0  0  0  # atno 10764 bound_to 10752
  154.2047  135.2876  155.2959 H   0  0  0  0  0  0  0  0  0  0  0  0  # atno 10765 bound_to 10752
  139.9281  134.7632  156.1443 H   0  0  0  0  0  0  0  0  0  0  0  0  # atno 11005 bound_to 11000
  144.8223  139.5770  143.6981 LP  0  0  0  0  0  0  0  0  0  0  0  0  # atno 17320 bound_to 7965
  146.2639  139.6475  142.9343 LP  0  0  0  0  0  0  0  0  0  0  0  0  # atno 17321 bound_to 7965
  140.7791  143.3855  151.1401 LP  0  0  0  0  0  0  0  0  0  0  0  0  # atno 17342 bound_to 10162
  139.7496  143.8799  152.3073 LP  0  0  0  0  0  0  0  0  0  0  0  0  # atno 17343 bound_to 10162
  157.7374  130.9795  150.2189 LP  0  0  0  0  0  0  0  0  0  0  0  0  # atno 17370 bound_to 10713
  156.2822  130.3735  149.7924 LP  0  0  0  0  0  0  0  0  0  0  0  0  # atno 17371 bound_to 10713
  141.0853  133.6737  156.2423 LP  0  0  0  0  0  0  0  0  0  0  0  0  # atno 17394 bound_to 11000
  140.6278  134.5296  157.5556 LP  0  0  0  0  0  0  0  0  0  0  0  0  # atno 17395 bound_to 11000

$$$$
