AV-unprocessed.smi:3095|AV-procd|sdf|11794|dock4
  -GOLD-   2272017173D 1   1.00000     0.00000
 Structure written by MMmdl.
 24 25  0  0  0  0  0  0  0  0  1 V2000
  152.7916  143.2011  162.2369 C   0  0  0  0  0  0  0  0  0  0  0  0
  152.3131  143.3016  160.8226 C   0  0  0  0  0  0  0  0  0  0  0  0
  152.2183  144.4400  160.0618 C   0  0  0  0  0  0  0  0  0  0  0  0
  151.6056  144.1047  158.4659 S   0  0  0  0  0  0  0  0  0  0  0  0
  151.5143  142.3988  158.8899 C   0  0  0  0  0  0  0  0  0  0  0  0
  150.9901  141.3589  157.9513 C   0  0  2  0  0  0  0  0  0  0  0  0
  151.9731  140.1862  157.7706 C   0  0  0  0  0  0  0  0  0  0  0  0
  151.4520  139.2358  156.7896 N   0  0  0  0  0  0  0  0  0  0  0  0
  151.1485  139.8987  155.5222 C   0  0  0  0  0  0  0  0  0  0  0  0
  150.1931  141.0838  155.7524 C   0  0  0  0  0  0  0  0  0  0  0  0
  150.7679  141.9873  156.6909 O   0  0  0  0  0  0  0  0  0  0  0  0
  151.9003  142.1502  160.1460 N   0  0  0  0  0  0  0  0  0  0  0  0
  153.0143  144.1840  162.6533 H   0  0  0  0  0  0  0  0  0  0  0  0
  153.6998  142.6015  162.3033 H   0  0  0  0  0  0  0  0  0  0  0  0
  152.0399  142.7361  162.8749 H   0  0  0  0  0  0  0  0  0  0  0  0
  152.4677  145.4525  160.3425 H   0  0  0  0  0  0  0  0  0  0  0  0
  150.0399  140.9961  158.3478 H   0  0  0  0  0  0  0  0  0  0  0  0
  152.9413  140.5645  157.4395 H   0  0  0  0  0  0  0  0  0  0  0  0
  152.1410  139.6855  158.7244 H   0  0  0  0  0  0  0  0  0  0  0  0
  152.1337  138.4999  156.6338 H   0  0  0  0  0  0  0  0  0  0  0  0
  152.0697  140.2563  155.0606 H   0  0  0  0  0  0  0  0  0  0  0  0
  150.7041  139.1883  154.8250 H   0  0  0  0  0  0  0  0  0  0  0  0
  150.0200  141.6127  154.8151 H   0  0  0  0  0  0  0  0  0  0  0  0
  149.2204  140.7387  156.1070 H   0  0  0  0  0  0  0  0  0  0  0  0
  1  2  1  0  0  0  0
  1 13  1  0  0  0  0
  1 14  1  0  0  0  0
  1 15  1  0  0  0  0
  2 12  1  0  0  0  0
  2  3  2  0  0  0  0
  3  4  1  0  0  0  0
  3 16  1  0  0  0  0
  4  5  1  0  0  0  0
  5  6  1  0  0  0  0
  5 12  2  0  0  0  0
  6 11  1  0  0  0  0
  6  7  1  0  0  0  0
  6 17  1  0  0  0  0
  7  8  1  0  0  0  0
  7 18  1  0  0  0  0
  7 19  1  0  0  0  0
  8  9  1  0  0  0  0
  8 20  1  0  0  0  0
  9 10  1  0  0  0  0
  9 21  1  0  0  0  0
  9 22  1  0  0  0  0
 10 11  1  0  0  0  0
 10 23  1  0  0  0  0
 10 24  1  0  0  0  0
M  END
> <s_m_source_file>
AV-unprocessed.smi

> <i_m_source_file_index>
3095

> <i_lp_mmshare_version>
43012

> <i_f3d_flags>
0

> <s_epik_input>
W0NIM11jMVtjSF1zYyhuMSlbQ0BASF0yW0NIMl1bTkhdW0NIMl1bQ0gyXU8y

> <s_epik_cmdline>
J2VwaWtfcHl0aG9uJywgJy1waCcsICc3LjAnLCAnLXRuJywgJzgnLCAnLW1hJywgJzIwMCcsICctbWV0YWxfYmluZGluZycsICctaW1hZScsICc8aW5maWxlLm1hZT4nLCAnLW9tYWUnLCAnPG91dGZpbGUubWFlPic=

> <r_epik_Ionization_Penalty>
0.982843

> <r_epik_Ionization_Penalty_Charging>
0

> <r_epik_Ionization_Penalty_Neutral>
0.982843

> <r_epik_State_Penalty>
2.16535

> <r_epik_Charging_Adjusted_Penalty>
2.16535

> <i_epik_Tot_Q>
0

> <i_epik_Tot_abs_Q>
0

> <r_epik_Metal_State_Penalty>
2.16288

> <b_epik_Metal_Only>
0

> <s_lp_Force_Field>
OPLS_2005

> <r_lp_Energy>
7.28811

> <b_lp_Chiralities_Consistent>
1

> <s_lp_Variant>
AV-unprocessed.smi:3095-3

> <Gold.Version>
5.8.1

> <Gold.Id.Protein>
6NUR|6NUR_protein|mol2

> <Gold.PLP.Fitness>
28.7110

> <Gold.PLP.PLP>
-28.8288

> <Gold.PLP.part.hbond>
-0.3340

> <Gold.PLP.part.metal>
0.0000

> <Gold.PLP.part.buried>
-4.4086

> <Gold.PLP.part.nonpolar>
-24.3068

> <Gold.PLP.part.repulsive>
0.0926

> <Gold.PLP.ligand.clash>
0.0000

> <Gold.PLP.ligand.torsion>
0.0644

> <Gold.PLP.Chemscore.Hbond>
0.0000

> <Gold.PLP.Chemscore.CHOScore>
0.0000

> <Gold.PLP.Chemscore.Metal>
0.0000

> <Gold.PLP.Chemscore.Internal.Correction>
0.0110

> <Gold.Rescore>
     Score         DG    S(hbond)    S(metal)    S(lipo)     H(rot)  DE(clash)    DE(int)     intcor
     12.85     -12.90       0.00        0.00      85.29       1.00       0.00       0.04       ----

> <Gold.Chemscore.Fitness>
12.8501

> <Gold.Chemscore.DG>
-12.8984

> <Gold.Chemscore.ZeroCoef>
-5.4800

> <Gold.Chemscore.Hbond>
0.0000

> <Gold.Chemscore.Metal>
0.0000

> <Gold.Chemscore.Lipo>
85.2851

> <Gold.Chemscore.Internal_Hbond>
0.0000

> <Gold.Chemscore.DEClash>
0.0048

> <Gold.Chemscore.DEInternal>
0.0434

> <Gold.Chemscore.Rot>
1.0000

> <Gold.Chemscore.Internal.Correction>
   9.000000E+99

> <Gold.Chemscore.Hbond.Weighted>
-0.0000

> <Gold.Chemscore.Metal.Weighted>
-0.0000

> <Gold.Chemscore.Lipo.Weighted>
-9.9784

> <Gold.Chemscore.Internal_Hbond.Weighted>
0.0000

> <Gold.Chemscore.DEClash.Weighted>
0.0048

> <Gold.Chemscore.DEInternal.Weighted>
0.0434

> <Gold.Chemscore.Rot.Weighted>
2.5600

> <Gold.Chemscore.Internal.Correction.Weighted>
   9.000000E+99

> <Gold.Protein.RotatedTorsions>
[ 6907 6896 6895 6894 ] final  -47.46 input  -60.11 | X-H torsion
[ 7974 7965 7964 7962 ] final -157.75 input  175.53 | X-H torsion
[ 8008 7997 7996 7995 ] final  -13.27 input   59.86 | X-H torsion
[ 10167 10162 10161 10158 ] final  -55.45 input  -65.29 | X-H torsion
[ 10718 10713 10712 10709 ] final   42.39 input   66.30 | X-H torsion
[ 10763 10752 10751 10750 ] final  -49.30 input  -60.55 | X-H torsion
[ 11005 11000 10999 10996 ] final   27.27 input  -57.11 | X-H torsion

> <Gold.Protein.ActiveResidues>
 VAL166  LYS551  ARG553  GLY616  TRP617  ASP618  TYR619  PRO620  LYS621  CYS622 
 ASP623  PHE694  ASN695  SER759  ASP760  ASP761  ALA762  ILE779  LEU786  VAL792 
 PHE793  MET794  SER795  GLU796  ALA797  LYS798  CYS799  TRP800  GLU811  SER814 

> <Gold.Protein.RotatedAtoms>
  150.9006  134.8418  159.7357 H   0  0  0  0  0  0  0  0  0  0  0  0  # atno 6907 bound_to 6896
  152.4890  134.4508  159.9584 H   0  0  0  0  0  0  0  0  0  0  0  0  # atno 6908 bound_to 6896
  151.4561  133.3566  159.2837 H   0  0  0  0  0  0  0  0  0  0  0  0  # atno 6909 bound_to 6896
  144.7534  140.3924  143.6030 H   0  0  0  0  0  0  0  0  0  0  0  0  # atno 7974 bound_to 7965
  154.5307  140.2254  155.8810 H   0  0  0  0  0  0  0  0  0  0  0  0  # atno 8008 bound_to 7997
  156.1760  140.3111  155.9024 H   0  0  0  0  0  0  0  0  0  0  0  0  # atno 8009 bound_to 7997
  155.3458  140.0453  157.3036 H   0  0  0  0  0  0  0  0  0  0  0  0  # atno 8010 bound_to 7997
  140.6374  143.2489  151.5081 H   0  0  0  0  0  0  0  0  0  0  0  0  # atno 10167 bound_to 10162
  157.4043  130.7878  149.7375 H   0  0  0  0  0  0  0  0  0  0  0  0  # atno 10718 bound_to 10713
  154.0919  135.6576  153.4854 H   0  0  0  0  0  0  0  0  0  0  0  0  # atno 10763 bound_to 10752
  153.0319  135.5204  154.7372 H   0  0  0  0  0  0  0  0  0  0  0  0  # atno 10764 bound_to 10752
  154.6498  135.2999  154.9969 H   0  0  0  0  0  0  0  0  0  0  0  0  # atno 10765 bound_to 10752
  140.3281  134.2468  155.7706 H   0  0  0  0  0  0  0  0  0  0  0  0  # atno 11005 bound_to 11000
  145.6862  139.1629  143.2673 LP  0  0  0  0  0  0  0  0  0  0  0  0  # atno 17320 bound_to 7965
  146.1515  140.6918  142.9320 LP  0  0  0  0  0  0  0  0  0  0  0  0  # atno 17321 bound_to 7965
  139.5584  144.2218  152.1650 LP  0  0  0  0  0  0  0  0  0  0  0  0  # atno 17342 bound_to 10162
  140.1478  144.5142  150.6705 LP  0  0  0  0  0  0  0  0  0  0  0  0  # atno 17343 bound_to 10162
  155.9832  130.4003  150.3376 LP  0  0  0  0  0  0  0  0  0  0  0  0  # atno 17370 bound_to 10713
  157.1507  131.0320  151.2886 LP  0  0  0  0  0  0  0  0  0  0  0  0  # atno 17371 bound_to 10713
  141.2070  133.7817  157.0144 LP  0  0  0  0  0  0  0  0  0  0  0  0  # atno 17394 bound_to 11000
  140.0884  134.9607  157.1737 LP  0  0  0  0  0  0  0  0  0  0  0  0  # atno 17395 bound_to 11000

$$$$
