AV-unprocessed.smi:2153|AV-procd|sdf|8768|dock10
  -GOLD-   2272011553D 1   1.00000     0.00000
 Structure written by MMmdl.
 48 49  0  0  0  0  0  0  0  0  1 V2000
  144.2095  135.2793  150.7388 C   0  0  0  0  0  0  0  0  0  0  0  0
  144.7491  133.8407  150.7312 C   0  0  2  0  0  0  0  0  0  0  0  0
  143.6911  132.8303  151.2222 C   0  0  0  0  0  0  0  0  0  0  0  0
  144.2221  131.3891  151.1774 C   0  0  0  0  0  0  0  0  0  0  0  0
  145.5334  131.2543  151.9644 C   0  0  0  0  0  0  0  0  0  0  0  0
  146.5875  132.2575  151.4712 C   0  0  0  0  0  0  0  0  0  0  0  0
  146.0615  133.7080  151.5370 C   0  0  2  0  0  0  0  0  0  0  0  0
  145.7861  134.0883  152.8795 O   0  0  0  0  0  0  0  0  0  0  0  0
  146.9173  134.3944  153.6805 C   0  0  0  0  0  0  0  0  0  0  0  0
  146.6219  135.6661  154.4915 C   0  0  0  0  0  0  0  0  0  0  0  0
  147.2461  136.8437  153.8951 N   0  0  0  0  0  0  0  0  0  0  0  0
  146.9883  138.1139  154.2440 C   0  0  0  0  0  0  0  0  0  0  0  0
  146.1420  138.4243  155.0820 O   0  0  0  0  0  0  0  0  0  0  0  0
  147.7945  139.2019  153.5242 C   0  0  0  0  0  0  0  0  0  0  0  0
  149.1262  139.3769  154.1183 N   0  0  0  0  0  0  0  0  0  0  0  0
  150.0592  138.3637  153.9903 C   0  0  0  0  0  0  0  0  0  0  0  0
  151.2992  138.4187  154.5233 C   0  0  0  0  0  0  0  0  0  0  0  0
  151.7304  139.5779  155.2937 C   0  0  0  0  0  0  0  0  0  0  0  0
  152.8523  139.6769  155.7921 O   0  0  0  0  0  0  0  0  0  0  0  0
  150.7560  140.5954  155.4195 N   0  0  0  0  0  0  0  0  0  0  0  0
  151.1201  141.7796  156.1698 C   0  0  0  0  0  0  0  0  0  0  0  0
  149.4712  140.5468  154.8314 C   0  0  0  0  0  0  0  0  0  0  0  0
  148.6724  141.4813  154.9257 O   0  0  0  0  0  0  0  0  0  0  0  0
  143.9307  135.5964  151.7443 H   0  0  0  0  0  0  0  0  0  0  0  0
  143.3253  135.3687  150.1073 H   0  0  0  0  0  0  0  0  0  0  0  0
  144.9551  135.9800  150.3626 H   0  0  0  0  0  0  0  0  0  0  0  0
  144.9778  133.5950  149.6932 H   0  0  0  0  0  0  0  0  0  0  0  0
  143.3876  133.0734  152.2415 H   0  0  0  0  0  0  0  0  0  0  0  0
  142.7919  132.9045  150.6100 H   0  0  0  0  0  0  0  0  0  0  0  0
  143.4744  130.7055  151.5795 H   0  0  0  0  0  0  0  0  0  0  0  0
  144.3866  131.0924  150.1410 H   0  0  0  0  0  0  0  0  0  0  0  0
  145.3399  131.4269  153.0226 H   0  0  0  0  0  0  0  0  0  0  0  0
  145.9156  130.2369  151.8797 H   0  0  0  0  0  0  0  0  0  0  0  0
  147.5062  132.1446  152.0454 H   0  0  0  0  0  0  0  0  0  0  0  0
  146.8522  132.0195  150.4402 H   0  0  0  0  0  0  0  0  0  0  0  0
  146.8042  134.3860  151.1124 H   0  0  0  0  0  0  0  0  0  0  0  0
  147.1671  133.5745  154.3534 H   0  0  0  0  0  0  0  0  0  0  0  0
  147.7807  134.5617  153.0352 H   0  0  0  0  0  0  0  0  0  0  0  0
  145.5460  135.8392  154.5125 H   0  0  0  0  0  0  0  0  0  0  0  0
  146.9352  135.5431  155.5298 H   0  0  0  0  0  0  0  0  0  0  0  0
  147.9460  136.6789  153.1865 H   0  0  0  0  0  0  0  0  0  0  0  0
  147.8871  138.9577  152.4645 H   0  0  0  0  0  0  0  0  0  0  0  0
  147.2346  140.1381  153.5582 H   0  0  0  0  0  0  0  0  0  0  0  0
  149.7836  137.4771  153.4378 H   0  0  0  0  0  0  0  0  0  0  0  0
  151.9787  137.5907  154.3845 H   0  0  0  0  0  0  0  0  0  0  0  0
  150.2266  142.2491  156.5828 H   0  0  0  0  0  0  0  0  0  0  0  0
  151.6374  142.4461  155.4787 H   0  0  0  0  0  0  0  0  0  0  0  0
  151.7614  141.4910  157.0043 H   0  0  0  0  0  0  0  0  0  0  0  0
  1  2  1  0  0  0  0
  1 24  1  0  0  0  0
  1 25  1  0  0  0  0
  1 26  1  0  0  0  0
  2  7  1  0  0  0  0
  2  3  1  0  0  0  0
  2 27  1  0  0  0  0
  3  4  1  0  0  0  0
  3 28  1  0  0  0  0
  3 29  1  0  0  0  0
  4  5  1  0  0  0  0
  4 30  1  0  0  0  0
  4 31  1  0  0  0  0
  5  6  1  0  0  0  0
  5 32  1  0  0  0  0
  5 33  1  0  0  0  0
  6  7  1  0  0  0  0
  6 34  1  0  0  0  0
  6 35  1  0  0  0  0
  7  8  1  0  0  0  0
  7 36  1  0  0  0  0
  8  9  1  0  0  0  0
  9 10  1  0  0  0  0
  9 37  1  0  0  0  0
  9 38  1  0  0  0  0
 10 11  1  0  0  0  0
 10 39  1  0  0  0  0
 10 40  1  0  0  0  0
 11 12  1  0  0  0  0
 11 41  1  0  0  0  0
 12 13  2  0  0  0  0
 12 14  1  0  0  0  0
 14 15  1  0  0  0  0
 14 42  1  0  0  0  0
 14 43  1  0  0  0  0
 15 22  1  0  0  0  0
 15 16  1  0  0  0  0
 16 17  2  0  0  0  0
 16 44  1  0  0  0  0
 17 18  1  0  0  0  0
 17 45  1  0  0  0  0
 18 19  2  0  0  0  0
 18 20  1  0  0  0  0
 20 21  1  0  0  0  0
 20 22  1  0  0  0  0
 21 46  1  0  0  0  0
 21 47  1  0  0  0  0
 21 48  1  0  0  0  0
 22 23  2  0  0  0  0
M  END
> <s_m_source_file>
AV-unprocessed.smi

> <i_m_source_file_index>
2153

> <i_lp_mmshare_version>
43012

> <i_f3d_flags>
0

> <s_epik_input>
W0NIM11bQ0BASF0xW0NIMl1bQ0gyXVtDSDJdW0NIMl1bQ0BIXTFPW0NIMl1bQ0gyXVtOSF1DKD1PKVtDSDJdbjJbY0hdW2NIXWMoPU8pbihbQ0gzXSljMj1P

> <s_epik_cmdline>
J2VwaWtfcHl0aG9uJywgJy1waCcsICc3LjAnLCAnLXRuJywgJzgnLCAnLW1hJywgJzIwMCcsICctbWV0YWxfYmluZGluZycsICctaW1hZScsICc8aW5maWxlLm1hZT4nLCAnLW9tYWUnLCAnPG91dGZpbGUubWFlPic=

> <r_lp_tautomer_probability>
1

> <r_epik_Ionization_Penalty>
4.02205e-08

> <r_epik_Ionization_Penalty_Charging>
1.23606e-08

> <r_epik_Ionization_Penalty_Neutral>
2.78599e-08

> <r_epik_State_Penalty>
-0

> <r_epik_Charging_Adjusted_Penalty>
1.23606e-08

> <i_epik_Tot_Q>
0

> <i_epik_Tot_abs_Q>
0

> <r_epik_Metal_State_Penalty>
-0

> <b_epik_Metal_Only>
0

> <s_lp_Force_Field>
OPLS_2005

> <r_lp_Energy>
17.534

> <b_lp_Chiralities_Consistent>
1

> <s_lp_Variant>
AV-unprocessed.smi:2153-3

> <Gold.Version>
5.8.1

> <Gold.Id.Protein>
6NUR|6NUR_protein|mol2

> <Gold.PLP.Fitness>
47.4690

> <Gold.PLP.PLP>
-40.7132

> <Gold.PLP.part.hbond>
-2.0000

> <Gold.PLP.part.metal>
0.0000

> <Gold.PLP.part.buried>
0.5415

> <Gold.PLP.part.nonpolar>
-37.9688

> <Gold.PLP.part.repulsive>
0.2778

> <Gold.PLP.ligand.clash>
0.0000

> <Gold.PLP.ligand.torsion>
1.1620

> <Gold.PLP.Chemscore.Hbond>
2.0000

> <Gold.PLP.Chemscore.CHOScore>
1.0000

> <Gold.PLP.Chemscore.Metal>
0.0000

> <Gold.Chemscore.Hbonds>
donor molecule, donor type, donor heavy atom, donor atom, acceptor molecule, acceptor atom, score
      L1  H    11    41       P1  7948  1.00
      P1  H  7997  8009       L1    19  1.00
      L1  C    16    44       P1  7948  1.00

> <Gold.PLP.Chemscore.Internal.Correction>
0.0798

> <Gold.Rescore>
     Score         DG    S(hbond)    S(metal)    S(lipo)     H(rot)  DE(clash)    DE(int)     intcor
     15.12     -16.62       1.99        0.00      86.33       2.20       0.21       1.29       ----

> <Gold.Chemscore.Fitness>
15.1173

> <Gold.Chemscore.DG>
-16.6192

> <Gold.Chemscore.ZeroCoef>
-5.4800

> <Gold.Chemscore.Hbond>
1.9945

> <Gold.Chemscore.Metal>
0.0000

> <Gold.Chemscore.Lipo>
86.3344

> <Gold.Chemscore.Internal_Hbond>
0.0000

> <Gold.Chemscore.DEClash>
0.2087

> <Gold.Chemscore.DEInternal>
1.2932

> <Gold.Chemscore.Rot>
2.1968

> <Gold.Chemscore.Internal.Correction>
   9.000000E+99

> <Gold.Chemscore.Hbonds>
donor molecule, donor type, donor heavy atom, donor atom, acceptor molecule, acceptor atom, score
      L1  H    11    41       P1  7948  1.00
      P1  H  7997  8009       L1    19  0.99

> <Gold.Chemscore.Hbond.Weighted>
-6.6618

> <Gold.Chemscore.Metal.Weighted>
-0.0000

> <Gold.Chemscore.Lipo.Weighted>
-10.1011

> <Gold.Chemscore.Internal_Hbond.Weighted>
0.0000

> <Gold.Chemscore.DEClash.Weighted>
0.2087

> <Gold.Chemscore.DEInternal.Weighted>
1.2932

> <Gold.Chemscore.Rot.Weighted>
5.6238

> <Gold.Chemscore.Internal.Correction.Weighted>
   9.000000E+99

> <Gold.Protein.RotatedTorsions>
[ 6907 6896 6895 6894 ] final -142.69 input  -60.11 | X-H torsion
[ 7974 7965 7964 7962 ] final -107.82 input  175.53 | X-H torsion
[ 8008 7997 7996 7995 ] final -156.91 input   59.86 | X-H torsion
[ 10167 10162 10161 10158 ] final  -44.92 input  -65.29 | X-H torsion
[ 10718 10713 10712 10709 ] final   97.81 input   66.30 | X-H torsion
[ 10763 10752 10751 10750 ] final -124.45 input  -60.55 | X-H torsion
[ 11005 11000 10999 10996 ] final  -35.35 input  -57.11 | X-H torsion

> <Gold.Protein.ActiveResidues>
 VAL166  LYS551  ARG553  GLY616  TRP617  ASP618  TYR619  PRO620  LYS621  CYS622 
 ASP623  PHE694  ASN695  SER759  ASP760  ASP761  ALA762  ILE779  LEU786  VAL792 
 PHE793  MET794  SER795  GLU796  ALA797  LYS798  CYS799  TRP800  GLU811  SER814 

> <Gold.Protein.RotatedAtoms>
  151.0905  133.5320  159.2615 H   0  0  0  0  0  0  0  0  0  0  0  0  # atno 6907 bound_to 6896
  151.2189  135.0510  159.8951 H   0  0  0  0  0  0  0  0  0  0  0  0  # atno 6908 bound_to 6896
  152.5433  134.0710  159.8247 H   0  0  0  0  0  0  0  0  0  0  0  0  # atno 6909 bound_to 6896
  145.2005  140.9054  143.3372 H   0  0  0  0  0  0  0  0  0  0  0  0  # atno 7974 bound_to 7965
  155.7244  140.0794  157.2317 H   0  0  0  0  0  0  0  0  0  0  0  0  # atno 8008 bound_to 7997
  154.4041  140.1607  156.2492 H   0  0  0  0  0  0  0  0  0  0  0  0  # atno 8009 bound_to 7997
  155.9167  140.3400  155.6143 H   0  0  0  0  0  0  0  0  0  0  0  0  # atno 8010 bound_to 7997
  140.6878  143.2905  151.3565 H   0  0  0  0  0  0  0  0  0  0  0  0  # atno 10167 bound_to 10162
  157.6906  131.0621  150.4701 H   0  0  0  0  0  0  0  0  0  0  0  0  # atno 10718 bound_to 10713
  154.8723  135.4063  154.3107 H   0  0  0  0  0  0  0  0  0  0  0  0  # atno 10763 bound_to 10752
  153.3951  135.7016  153.6472 H   0  0  0  0  0  0  0  0  0  0  0  0  # atno 10764 bound_to 10752
  153.5238  135.3681  155.2615 H   0  0  0  0  0  0  0  0  0  0  0  0  # atno 10765 bound_to 10752
  140.9789  133.7067  156.1650 H   0  0  0  0  0  0  0  0  0  0  0  0  # atno 11005 bound_to 11000
  144.9952  139.3651  143.6195 LP  0  0  0  0  0  0  0  0  0  0  0  0  # atno 17320 bound_to 7965
  146.3418  139.9152  142.8774 LP  0  0  0  0  0  0  0  0  0  0  0  0  # atno 17321 bound_to 7965
  139.6252  144.0828  152.2428 LP  0  0  0  0  0  0  0  0  0  0  0  0  # atno 17342 bound_to 10162
  140.0285  144.6099  150.7507 LP  0  0  0  0  0  0  0  0  0  0  0  0  # atno 17343 bound_to 10162
  156.5040  130.4123  149.6337 LP  0  0  0  0  0  0  0  0  0  0  0  0  # atno 17370 bound_to 10713
  156.3302  130.7327  151.2255 LP  0  0  0  0  0  0  0  0  0  0  0  0  # atno 17371 bound_to 10713
  140.7216  134.4352  157.5574 LP  0  0  0  0  0  0  0  0  0  0  0  0  # atno 17394 bound_to 11000
  139.8942  134.8712  156.2188 LP  0  0  0  0  0  0  0  0  0  0  0  0  # atno 17395 bound_to 11000

$$$$
