AV-unprocessed.smi:3347|AV-procd|sdf|12913|dock4
  -GOLD-   2272019323D 1   1.00000     0.00000
 Structure written by MMmdl.
 40 42  0  0  0  0  0  0  0  0  2 V2000
  150.4799  134.8829  155.9350 O   0  0  0  0  0  0  0  0  0  0  0  0
  150.0364  135.2485  154.8467 C   0  0  0  0  0  0  0  0  0  0  0  0
  149.2793  134.4709  154.0590 N   0  0  0  0  0  0  0  0  0  0  0  0
  148.8851  133.0964  154.3537 C   0  0  0  0  0  0  0  0  0  0  0  0
  147.5970  132.6912  153.6113 C   0  0  2  0  0  0  0  0  0  0  0  0
  147.3777  131.1869  153.4537 C   0  0  0  0  0  0  0  0  0  0  0  0
  146.3725  131.1148  152.3087 C   0  0  0  0  0  0  0  0  0  0  0  0
  146.7391  132.2162  151.3931 N   0  3  1  0  0  0  0  0  0  0  0  0
  145.5894  132.7986  150.6684 C   0  0  0  0  0  0  0  0  0  0  0  0
  144.3390  132.9087  151.5077 C   0  0  0  0  0  0  0  0  0  0  0  0
  144.4540  131.8260  150.4563 C   0  0  0  0  0  0  0  0  0  0  0  0
  147.5319  133.2026  152.1647 C   0  0  0  0  0  0  0  0  0  0  0  0
  150.2163  136.4631  154.3001 N   0  0  0  0  0  0  0  0  0  0  0  0
  150.9431  137.5701  154.8165 C   0  0  0  0  0  0  0  0  0  0  0  0
  151.9186  137.4796  155.8391 C   0  0  0  0  0  0  0  0  0  0  0  0
  152.5815  138.6517  156.2515 C   0  0  0  0  0  0  0  0  0  0  0  0
  152.2522  139.8681  155.6230 C   0  0  0  0  0  0  0  0  0  0  0  0
  151.3351  139.9671  154.6380 N   0  0  0  0  0  0  0  0  0  0  0  0
  150.7038  138.8394  154.2476 C   0  0  0  0  0  0  0  0  0  0  0  0
  148.9567  134.8571  153.1836 H   0  0  0  0  0  0  0  0  0  0  0  0
  149.7032  132.4461  154.0428 H   0  0  0  0  0  0  0  0  0  0  0  0
  148.7728  132.9484  155.4293 H   0  0  0  0  0  0  0  0  0  0  0  0
  146.7386  133.0994  154.1480 H   0  0  0  0  0  0  0  0  0  0  0  0
  148.3075  130.6953  153.1635 H   0  0  0  0  0  0  0  0  0  0  0  0
  147.0124  130.7105  154.3639 H   0  0  0  0  0  0  0  0  0  0  0  0
  146.3838  130.1506  151.7998 H   0  0  0  0  0  0  0  0  0  0  0  0
  145.3665  131.2763  152.6999 H   0  0  0  0  0  0  0  0  0  0  0  0
  145.8199  133.5511  149.9160 H   0  0  0  0  0  0  0  0  0  0  0  0
  144.3904  132.6035  152.5514 H   0  0  0  0  0  0  0  0  0  0  0  0
  143.6655  133.7372  151.2983 H   0  0  0  0  0  0  0  0  0  0  0  0
  143.8560  131.9417  149.5545 H   0  0  0  0  0  0  0  0  0  0  0  0
  144.5813  130.8015  150.8013 H   0  0  0  0  0  0  0  0  0  0  0  0
  147.1106  134.2080  152.1177 H   0  0  0  0  0  0  0  0  0  0  0  0
  148.5277  133.2462  151.7220 H   0  0  0  0  0  0  0  0  0  0  0  0
  149.7270  136.6364  153.4343 H   0  0  0  0  0  0  0  0  0  0  0  0
  152.1815  136.5423  156.3036 H   0  0  0  0  0  0  0  0  0  0  0  0
  153.3295  138.6174  157.0296 H   0  0  0  0  0  0  0  0  0  0  0  0
  152.7429  140.7847  155.9153 H   0  0  0  0  0  0  0  0  0  0  0  0
  149.9784  138.9564  153.4557 H   0  0  0  0  0  0  0  0  0  0  0  0
  147.3659  131.8266  150.7034 H   0  0  0  0  0  0  0  0  0  0  0  0
  1  2  2  0  0  0  0
  2  3  1  0  0  0  0
  2 13  1  0  0  0  0
  3  4  1  0  0  0  0
  3 20  1  0  0  0  0
  4  5  1  0  0  0  0
  4 21  1  0  0  0  0
  4 22  1  0  0  0  0
  5 12  1  0  0  0  0
  5  6  1  0  0  0  0
  5 23  1  0  0  0  0
  6  7  1  0  0  0  0
  6 24  1  0  0  0  0
  6 25  1  0  0  0  0
  7  8  1  0  0  0  0
  7 26  1  0  0  0  0
  7 27  1  0  0  0  0
  8  9  1  0  0  0  0
  8 12  1  0  0  0  0
  8 40  1  0  0  0  0
  9 11  1  0  0  0  0
  9 10  1  0  0  0  0
  9 28  1  0  0  0  0
 10 11  1  0  0  0  0
 10 29  1  0  0  0  0
 10 30  1  0  0  0  0
 11 31  1  0  0  0  0
 11 32  1  0  0  0  0
 12 33  1  0  0  0  0
 12 34  1  0  0  0  0
 13 14  1  0  0  0  0
 13 35  1  0  0  0  0
 14 19  1  0  0  0  0
 14 15  2  0  0  0  0
 15 16  1  0  0  0  0
 15 36  1  0  0  0  0
 16 17  2  0  0  0  0
 16 37  1  0  0  0  0
 17 18  1  0  0  0  0
 17 38  1  0  0  0  0
 18 19  2  0  0  0  0
 19 39  1  0  0  0  0
M  CHG  1   8   1
M  END
> <s_m_source_file>
AV-unprocessed.smi

> <i_m_source_file_index>
3347

> <i_lp_mmshare_version>
43012

> <i_f3d_flags>
0

> <s_epik_input>
W2NIXTFuW2NIXVtjSF1bY0hdYzFbTkhdQyg9TylbTkhdW0NIMl1bQ0BASF0yW0NIMl1bQ0gyXU4oW0NIMl0yKVtDSF0zW0NIMl1bQ0gyXTM=

> <s_epik_cmdline>
J2VwaWtfcHl0aG9uJywgJy1waCcsICc3LjAnLCAnLXRuJywgJzgnLCAnLW1hJywgJzIwMCcsICctbWV0YWxfYmluZGluZycsICctaW1hZScsICc8aW5maWxlLm1hZT4nLCAnLW9tYWUnLCAnPG91dGZpbGUubWFlPic=

> <r_epik_Ionization_Penalty>
0.00442629

> <r_epik_Ionization_Penalty_Charging>
0.000203384

> <r_epik_Ionization_Penalty_Neutral>
0.00422291

> <r_epik_State_Penalty>
0.00301008

> <r_epik_Charging_Adjusted_Penalty>
0.00321347

> <i_epik_Tot_Q>
1

> <i_epik_Tot_abs_Q>
1

> <r_epik_Metal_State_Penalty>
-0

> <b_epik_Metal_Only>
0

> <s_lp_Force_Field>
OPLS_2005

> <r_lp_Energy>
40.4553

> <b_lp_Chiralities_Consistent>
1

> <s_lp_Variant>
AV-unprocessed.smi:3347-3

> <Gold.Version>
5.8.1

> <Gold.Id.Protein>
6NUR|6NUR_protein|mol2

> <Gold.PLP.Fitness>
50.5863

> <Gold.PLP.PLP>
-37.0235

> <Gold.PLP.part.hbond>
-4.8811

> <Gold.PLP.part.metal>
0.0000

> <Gold.PLP.part.buried>
-4.4711

> <Gold.PLP.part.nonpolar>
-27.8534

> <Gold.PLP.part.repulsive>
0.2115

> <Gold.PLP.ligand.clash>
0.0000

> <Gold.PLP.ligand.torsion>
1.0546

> <Gold.PLP.Chemscore.Hbond>
3.9500

> <Gold.PLP.Chemscore.CHOScore>
0.8546

> <Gold.PLP.Chemscore.Metal>
0.0000

> <Gold.Chemscore.Hbonds>
donor molecule, donor type, donor heavy atom, donor atom, acceptor molecule, acceptor atom, score
      L1  H     3    20       P1  7948  0.85
      L1  H     8    40       P1 10747  1.00
      L1  H    13    35       P1  7948  1.00
      P1  H  7989  7998       L1    18  0.88
      L1  C    19    39       P1  7957  0.94

> <Gold.PLP.Chemscore.Internal.Correction>
1.2582

> <Gold.Rescore>
     Score         DG    S(hbond)    S(metal)    S(lipo)     H(rot)  DE(clash)    DE(int)     intcor
     20.06     -22.32       2.92        0.00      91.72       1.42       0.18       2.08       ----

> <Gold.Chemscore.Fitness>
20.0641

> <Gold.Chemscore.DG>
-22.3157

> <Gold.Chemscore.ZeroCoef>
-5.4800

> <Gold.Chemscore.Hbond>
2.9176

> <Gold.Chemscore.Metal>
0.0000

> <Gold.Chemscore.Lipo>
91.7177

> <Gold.Chemscore.Internal_Hbond>
0.0000

> <Gold.Chemscore.DEClash>
0.1759

> <Gold.Chemscore.DEInternal>
2.0758

> <Gold.Chemscore.Rot>
1.4219

> <Gold.Chemscore.Internal.Correction>
   9.000000E+99

> <Gold.Chemscore.Hbonds>
donor molecule, donor type, donor heavy atom, donor atom, acceptor molecule, acceptor atom, score
      L1  H     3    20       P1  7948  0.14
      L1  H     8    40       P1 10747  0.94
      L1  H    13    35       P1  7948  0.44
      P1  H  7989  7998       L1    18  0.66

> <Gold.Chemscore.Hbond.Weighted>
-9.7448

> <Gold.Chemscore.Metal.Weighted>
-0.0000

> <Gold.Chemscore.Lipo.Weighted>
-10.7310

> <Gold.Chemscore.Internal_Hbond.Weighted>
0.0000

> <Gold.Chemscore.DEClash.Weighted>
0.1759

> <Gold.Chemscore.DEInternal.Weighted>
2.0758

> <Gold.Chemscore.Rot.Weighted>
3.6401

> <Gold.Chemscore.Internal.Correction.Weighted>
   9.000000E+99

> <Gold.Protein.RotatedTorsions>
[ 6907 6896 6895 6894 ] final -174.61 input  -60.11 | X-H torsion
[ 7974 7965 7964 7962 ] final -108.58 input  175.53 | X-H torsion
[ 8008 7997 7996 7995 ] final  -46.13 input   59.86 | X-H torsion
[ 10167 10162 10161 10158 ] final  174.76 input  -65.29 | X-H torsion
[ 10718 10713 10712 10709 ] final  143.24 input   66.30 | X-H torsion
[ 10763 10752 10751 10750 ] final  175.56 input  -60.55 | X-H torsion
[ 11005 11000 10999 10996 ] final   -9.51 input  -57.11 | X-H torsion

> <Gold.Protein.ActiveResidues>
 VAL166  LYS551  ARG553  GLY616  TRP617  ASP618  TYR619  PRO620  LYS621  CYS622 
 ASP623  PHE694  ASN695  SER759  ASP760  ASP761  ALA762  ILE779  LEU786  VAL792 
 PHE793  MET794  SER795  GLU796  ALA797  LYS798  CYS799  TRP800  GLU811  SER814 

> <Gold.Protein.RotatedAtoms>
  151.5751  133.3385  159.2997 H   0  0  0  0  0  0  0  0  0  0  0  0  # atno 6907 bound_to 6896
  150.8345  134.7615  159.6892 H   0  0  0  0  0  0  0  0  0  0  0  0  # atno 6908 bound_to 6896
  152.4424  134.5571  159.9935 H   0  0  0  0  0  0  0  0  0  0  0  0  # atno 6909 bound_to 6896
  145.1911  140.9015  143.3424 H   0  0  0  0  0  0  0  0  0  0  0  0  # atno 7974 bound_to 7965
  154.4005  140.1379  156.3961 H   0  0  0  0  0  0  0  0  0  0  0  0  # atno 8008 bound_to 7997
  155.7869  140.3480  155.5307 H   0  0  0  0  0  0  0  0  0  0  0  0  # atno 8009 bound_to 7997
  155.8618  140.0958  157.1598 H   0  0  0  0  0  0  0  0  0  0  0  0  # atno 8010 bound_to 7997
  139.5153  144.3109  152.0292 H   0  0  0  0  0  0  0  0  0  0  0  0  # atno 10167 bound_to 10162
  157.3713  131.0979  151.0825 H   0  0  0  0  0  0  0  0  0  0  0  0  # atno 10718 bound_to 10713
  154.4692  135.2770  155.1655 H   0  0  0  0  0  0  0  0  0  0  0  0  # atno 10763 bound_to 10752
  154.3411  135.6170  153.5600 H   0  0  0  0  0  0  0  0  0  0  0  0  # atno 10764 bound_to 10752
  152.9862  135.5788  154.5070 H   0  0  0  0  0  0  0  0  0  0  0  0  # atno 10765 bound_to 10752
  140.7349  133.8718  155.8922 H   0  0  0  0  0  0  0  0  0  0  0  0  # atno 11005 bound_to 11000
  145.0041  139.3571  143.6153 LP  0  0  0  0  0  0  0  0  0  0  0  0  # atno 17320 bound_to 7965
  146.3436  139.9276  142.8758 LP  0  0  0  0  0  0  0  0  0  0  0  0  # atno 17321 bound_to 7965
  140.2554  144.4125  150.6206 LP  0  0  0  0  0  0  0  0  0  0  0  0  # atno 17342 bound_to 10162
  140.6195  143.2175  151.6723 LP  0  0  0  0  0  0  0  0  0  0  0  0  # atno 17343 bound_to 10162
  157.1929  130.6360  149.5711 LP  0  0  0  0  0  0  0  0  0  0  0  0  # atno 17370 bound_to 10713
  155.9756  130.4716  150.6471 LP  0  0  0  0  0  0  0  0  0  0  0  0  # atno 17371 bound_to 10713
  140.9888  134.1306  157.4427 LP  0  0  0  0  0  0  0  0  0  0  0  0  # atno 17394 bound_to 11000
  139.8818  135.0034  156.6184 LP  0  0  0  0  0  0  0  0  0  0  0  0  # atno 17395 bound_to 11000

$$$$
