AV-unprocessed.smi:2740|AV-procd|sdf|10556|dock3
  -GOLD-   2272015 03D 1   1.00000     0.00000
 Structure written by MMmdl.
 30 31  0  0  0  0  0  0  0  0  2 V2000
  153.4086  142.6157  162.8575 C   0  0  0  0  0  0  0  0  0  0  0  0
  152.7161  143.1140  161.6344 C   0  0  0  0  0  0  0  0  0  0  0  0
  152.1638  144.3523  161.4331 C   0  0  0  0  0  0  0  0  0  0  0  0
  151.5873  144.5121  160.1722 N   0  0  0  0  0  0  0  0  0  0  0  0
  151.6938  143.4269  159.3982 C   0  0  0  0  0  0  0  0  0  0  0  0
  151.2066  143.3678  158.1479 N   0  5  0  0  0  0  0  0  0  0  0  0
  150.7803  142.1867  157.6448 C   0  0  0  0  0  0  0  0  0  0  0  0
  151.1016  141.0646  158.0433 O   0  0  0  0  0  0  0  0  0  0  0  0
  149.9283  142.3120  156.6171 N   0  0  0  0  0  0  0  0  0  0  0  0
  149.3125  141.2121  155.8824 C   0  0  0  0  0  0  0  0  0  0  0  0
  150.3415  140.4535  155.0279 C   0  0  2  0  0  0  0  0  0  0  0  0
  149.7739  139.2155  154.3346 C   0  0  0  0  0  0  0  0  0  0  0  0
  150.9792  138.2989  154.1794 C   0  0  0  0  0  0  0  0  0  0  0  0
  152.0615  138.9527  155.0427 C   0  0  0  0  0  0  0  0  0  0  0  0
  151.3677  139.9018  155.8383 O   0  0  0  0  0  0  0  0  0  0  0  0
  152.5197  142.1049  160.2266 S   0  0  0  0  0  0  0  0  0  0  0  0
  154.3125  143.1937  163.0503 H   0  0  0  0  0  0  0  0  0  0  0  0
  153.6950  141.5691  162.7509 H   0  0  0  0  0  0  0  0  0  0  0  0
  152.7609  142.7001  163.7300 H   0  0  0  0  0  0  0  0  0  0  0  0
  152.1355  145.1773  162.1293 H   0  0  0  0  0  0  0  0  0  0  0  0
  149.6876  143.2478  156.3249 H   0  0  0  0  0  0  0  0  0  0  0  0
  148.8460  140.5356  156.5988 H   0  0  0  0  0  0  0  0  0  0  0  0
  148.5084  141.5958  155.2523 H   0  0  0  0  0  0  0  0  0  0  0  0
  150.7908  141.1139  154.2836 H   0  0  0  0  0  0  0  0  0  0  0  0
  149.0297  138.7331  154.9697 H   0  0  0  0  0  0  0  0  0  0  0  0
  149.2980  139.4551  153.3834 H   0  0  0  0  0  0  0  0  0  0  0  0
  150.7430  137.2937  154.5304 H   0  0  0  0  0  0  0  0  0  0  0  0
  151.3027  138.2249  153.1407 H   0  0  0  0  0  0  0  0  0  0  0  0
  152.5980  138.2327  155.6611 H   0  0  0  0  0  0  0  0  0  0  0  0
  152.7884  139.4735  154.4176 H   0  0  0  0  0  0  0  0  0  0  0  0
  1  2  1  0  0  0  0
  1 17  1  0  0  0  0
  1 18  1  0  0  0  0
  1 19  1  0  0  0  0
  2 16  1  0  0  0  0
  2  3  2  0  0  0  0
  3  4  1  0  0  0  0
  3 20  1  0  0  0  0
  4  5  2  0  0  0  0
  5  6  1  0  0  0  0
  5 16  1  0  0  0  0
  6  7  1  0  0  0  0
  7  8  2  0  0  0  0
  7  9  1  0  0  0  0
  9 10  1  0  0  0  0
  9 21  1  0  0  0  0
 10 11  1  0  0  0  0
 10 22  1  0  0  0  0
 10 23  1  0  0  0  0
 11 15  1  0  0  0  0
 11 12  1  0  0  0  0
 11 24  1  0  0  0  0
 12 13  1  0  0  0  0
 12 25  1  0  0  0  0
 12 26  1  0  0  0  0
 13 14  1  0  0  0  0
 13 27  1  0  0  0  0
 13 28  1  0  0  0  0
 14 15  1  0  0  0  0
 14 29  1  0  0  0  0
 14 30  1  0  0  0  0
M  CHG  1   6  -1
M  END
> <s_m_source_file>
AV-unprocessed.smi

> <i_m_source_file_index>
2740

> <i_lp_mmshare_version>
43012

> <i_f3d_flags>
0

> <s_epik_input>
W0NIM11jMVtjSF1uYyhzMSlbTkhdQyg9TylbTkhdW0NIMl1bQ0BASF0yW0NIMl1bQ0gyXVtDSDJdTzI=

> <s_epik_cmdline>
J2VwaWtfcHl0aG9uJywgJy1waCcsICc3LjAnLCAnLXRuJywgJzgnLCAnLW1hJywgJzIwMCcsICctbWV0YWxfYmluZGluZycsICctaW1hZScsICc8aW5maWxlLm1hZT4nLCAnLW9tYWUnLCAnPG91dGZpbGUubWFlPic=

> <r_lp_tautomer_probability>
0.999

> <r_epik_Ionization_Penalty>
8.54039

> <r_epik_Ionization_Penalty_Charging>
6.77868

> <r_epik_Ionization_Penalty_Neutral>
1.76171

> <r_epik_State_Penalty>
6.77885

> <r_epik_Charging_Adjusted_Penalty>
13.5575

> <i_epik_Tot_Q>
-1

> <i_epik_Tot_abs_Q>
1

> <r_epik_Metal_State_Penalty>
2.69888

> <b_epik_Metal_Only>
1

> <s_lp_Force_Field>
OPLS_2005

> <r_lp_Energy>
13.1736

> <b_lp_Chiralities_Consistent>
1

> <s_lp_Variant>
AV-unprocessed.smi:2740-3

> <Gold.Version>
5.8.1

> <Gold.Id.Protein>
6NUR|6NUR_protein|mol2

> <Gold.PLP.Fitness>
39.2163

> <Gold.PLP.PLP>
-36.8506

> <Gold.PLP.part.hbond>
-1.0000

> <Gold.PLP.part.metal>
0.0000

> <Gold.PLP.part.buried>
-4.6377

> <Gold.PLP.part.nonpolar>
-30.8415

> <Gold.PLP.part.repulsive>
0.2373

> <Gold.PLP.ligand.clash>
0.0000

> <Gold.PLP.ligand.torsion>
0.3378

> <Gold.PLP.Chemscore.Hbond>
1.0000

> <Gold.PLP.Chemscore.CHOScore>
0.0000

> <Gold.PLP.Chemscore.Metal>
0.0000

> <Gold.Chemscore.Hbonds>
donor molecule, donor type, donor heavy atom, donor atom, acceptor molecule, acceptor atom, score
      L1  H     9    21       P1  8028  1.00

> <Gold.PLP.Chemscore.Internal.Correction>
0.0413

> <Gold.Rescore>
     Score         DG    S(hbond)    S(metal)    S(lipo)     H(rot)  DE(clash)    DE(int)     intcor
     12.06     -15.35       1.00        0.00      83.25       1.25       0.08       3.21       ----

> <Gold.Chemscore.Fitness>
12.0565

> <Gold.Chemscore.DG>
-15.3511

> <Gold.Chemscore.ZeroCoef>
-5.4800

> <Gold.Chemscore.Hbond>
0.9983

> <Gold.Chemscore.Metal>
0.0000

> <Gold.Chemscore.Lipo>
83.2517

> <Gold.Chemscore.Internal_Hbond>
0.0000

> <Gold.Chemscore.DEClash>
0.0838

> <Gold.Chemscore.DEInternal>
3.2108

> <Gold.Chemscore.Rot>
1.2514

> <Gold.Chemscore.Internal.Correction>
   9.000000E+99

> <Gold.Chemscore.Hbonds>
donor molecule, donor type, donor heavy atom, donor atom, acceptor molecule, acceptor atom, score
      L1  H     9    21       P1  8028  1.00

> <Gold.Chemscore.Hbond.Weighted>
-3.3342

> <Gold.Chemscore.Metal.Weighted>
-0.0000

> <Gold.Chemscore.Lipo.Weighted>
-9.7405

> <Gold.Chemscore.Internal_Hbond.Weighted>
0.0000

> <Gold.Chemscore.DEClash.Weighted>
0.0838

> <Gold.Chemscore.DEInternal.Weighted>
3.2108

> <Gold.Chemscore.Rot.Weighted>
3.2036

> <Gold.Chemscore.Internal.Correction.Weighted>
   9.000000E+99

> <Gold.Protein.RotatedTorsions>
[ 6907 6896 6895 6894 ] final  172.81 input  -60.11 | X-H torsion
[ 7974 7965 7964 7962 ] final  -99.90 input  175.53 | X-H torsion
[ 8008 7997 7996 7995 ] final  169.99 input   59.86 | X-H torsion
[ 10167 10162 10161 10158 ] final  119.83 input  -65.29 | X-H torsion
[ 10718 10713 10712 10709 ] final  160.37 input   66.30 | X-H torsion
[ 10763 10752 10751 10750 ] final   58.83 input  -60.55 | X-H torsion
[ 11005 11000 10999 10996 ] final  -52.00 input  -57.11 | X-H torsion

> <Gold.Protein.ActiveResidues>
 VAL166  LYS551  ARG553  GLY616  TRP617  ASP618  TYR619  PRO620  LYS621  CYS622 
 ASP623  PHE694  ASN695  SER759  ASP760  ASP761  ALA762  ILE779  LEU786  VAL792 
 PHE793  MET794  SER795  GLU796  ALA797  LYS798  CYS799  TRP800  GLU811  SER814 

> <Gold.Protein.RotatedAtoms>
  151.7783  133.3347  159.3463 H   0  0  0  0  0  0  0  0  0  0  0  0  # atno 6907 bound_to 6896
  150.7435  134.5954  159.6018 H   0  0  0  0  0  0  0  0  0  0  0  0  # atno 6908 bound_to 6896
  152.3293  134.7281  160.0345 H   0  0  0  0  0  0  0  0  0  0  0  0  # atno 6909 bound_to 6896
  145.3015  140.9378  143.2821 H   0  0  0  0  0  0  0  0  0  0  0  0  # atno 7974 bound_to 7965
  156.1407  140.1549  156.8925 H   0  0  0  0  0  0  0  0  0  0  0  0  # atno 8008 bound_to 7997
  154.4985  140.0831  156.7786 H   0  0  0  0  0  0  0  0  0  0  0  0  # atno 8009 bound_to 7997
  155.4084  140.3417  155.4264 H   0  0  0  0  0  0  0  0  0  0  0  0  # atno 8010 bound_to 7997
  139.6021  144.7059  151.3039 H   0  0  0  0  0  0  0  0  0  0  0  0  # atno 10167 bound_to 10162
  157.1513  131.0564  151.2279 H   0  0  0  0  0  0  0  0  0  0  0  0  # atno 10718 bound_to 10713
  152.9880  135.5593  154.5615 H   0  0  0  0  0  0  0  0  0  0  0  0  # atno 10763 bound_to 10752
  154.5033  135.2798  155.1405 H   0  0  0  0  0  0  0  0  0  0  0  0  # atno 10764 bound_to 10752
  154.2826  135.6342  153.5406 H   0  0  0  0  0  0  0  0  0  0  0  0  # atno 10765 bound_to 10752
  141.0901  133.6634  156.3960 H   0  0  0  0  0  0  0  0  0  0  0  0  # atno 11005 bound_to 11000
  144.9089  139.4553  143.6596 LP  0  0  0  0  0  0  0  0  0  0  0  0  # atno 17320 bound_to 7965
  146.3150  139.7886  142.8990 LP  0  0  0  0  0  0  0  0  0  0  0  0  # atno 17321 bound_to 7965
  140.7257  143.7010  150.7845 LP  0  0  0  0  0  0  0  0  0  0  0  0  # atno 17342 bound_to 10162
  140.0588  143.5176  152.2638 LP  0  0  0  0  0  0  0  0  0  0  0  0  # atno 17343 bound_to 10162
  157.4218  130.7441  149.6919 LP  0  0  0  0  0  0  0  0  0  0  0  0  # atno 17370 bound_to 10713
  155.9770  130.4068  150.3741 LP  0  0  0  0  0  0  0  0  0  0  0  0  # atno 17371 bound_to 10713
  140.5271  134.6248  157.5338 LP  0  0  0  0  0  0  0  0  0  0  0  0  # atno 17394 bound_to 11000
  139.9726  134.7268  156.0012 LP  0  0  0  0  0  0  0  0  0  0  0  0  # atno 17395 bound_to 11000

$$$$
