AV-unprocessed.smi:2209|AV-procd|sdf|8948|dock8
  -GOLD-   2272012163D 1   1.00000     0.00000
 Structure written by MMmdl.
 26 27  0  0  0  0  0  0  0  0  2 V2000
  153.3482  137.5039  156.9879 C   0  0  0  0  0  0  0  0  0  0  0  0
  152.5609  138.5388  157.7173 C   0  0  0  0  0  0  0  0  0  0  0  0
  151.6129  138.2036  158.5838 N   0  0  0  0  0  0  0  0  0  0  0  0
  151.1332  139.4418  159.0344 O   0  0  0  0  0  0  0  0  0  0  0  0
  151.8575  140.3804  158.3789 C   0  0  0  0  0  0  0  0  0  0  0  0
  151.5776  141.8266  158.6437 C   0  0  1  0  0  0  0  0  0  0  0  0
  152.8209  142.5710  159.1661 C   0  0  0  0  0  0  0  0  0  0  0  0
  152.4978  144.0529  159.4122 C   0  0  0  0  0  0  0  0  0  0  0  0
  151.9018  144.7028  158.1525 C   0  0  0  0  0  0  0  0  0  0  0  0
  150.7057  143.9608  157.6977 N   0  3  0  0  0  0  0  0  0  0  0  0
  150.9825  142.5356  157.4099 C   0  0  0  0  0  0  0  0  0  0  0  0
  152.7607  139.8740  157.5417 N   0  0  0  0  0  0  0  0  0  0  0  0
  153.0350  136.4994  157.2748 H   0  0  0  0  0  0  0  0  0  0  0  0
  154.4095  137.6107  157.2130 H   0  0  0  0  0  0  0  0  0  0  0  0
  153.2089  137.6138  155.9122 H   0  0  0  0  0  0  0  0  0  0  0  0
  150.8241  141.8620  159.4325 H   0  0  0  0  0  0  0  0  0  0  0  0
  153.1791  142.1097  160.0872 H   0  0  0  0  0  0  0  0  0  0  0  0
  153.6331  142.4926  158.4421 H   0  0  0  0  0  0  0  0  0  0  0  0
  151.7917  144.1420  160.2390 H   0  0  0  0  0  0  0  0  0  0  0  0
  153.3993  144.5856  159.7166 H   0  0  0  0  0  0  0  0  0  0  0  0
  151.6227  145.7369  158.3564 H   0  0  0  0  0  0  0  0  0  0  0  0
  152.6402  144.7239  157.3497 H   0  0  0  0  0  0  0  0  0  0  0  0
  150.0025  144.0129  158.4211 H   0  0  0  0  0  0  0  0  0  0  0  0
  151.6682  142.4720  156.5636 H   0  0  0  0  0  0  0  0  0  0  0  0
  150.0541  142.0522  157.1042 H   0  0  0  0  0  0  0  0  0  0  0  0
  150.3458  144.3999  156.8623 H   0  0  0  0  0  0  0  0  0  0  0  0
  1  2  1  0  0  0  0
  1 13  1  0  0  0  0
  1 14  1  0  0  0  0
  1 15  1  0  0  0  0
  2 12  1  0  0  0  0
  2  3  2  0  0  0  0
  3  4  1  0  0  0  0
  4  5  1  0  0  0  0
  5  6  1  0  0  0  0
  5 12  2  0  0  0  0
  6 11  1  0  0  0  0
  6  7  1  0  0  0  0
  6 16  1  0  0  0  0
  7  8  1  0  0  0  0
  7 17  1  0  0  0  0
  7 18  1  0  0  0  0
  8  9  1  0  0  0  0
  8 19  1  0  0  0  0
  8 20  1  0  0  0  0
  9 10  1  0  0  0  0
  9 21  1  0  0  0  0
  9 22  1  0  0  0  0
 10 11  1  0  0  0  0
 10 23  1  0  0  0  0
 10 26  1  0  0  0  0
 11 24  1  0  0  0  0
 11 25  1  0  0  0  0
M  CHG  1  10   1
M  END
> <s_m_source_file>
AV-unprocessed.smi

> <i_m_source_file_index>
2209

> <i_lp_mmshare_version>
43012

> <i_f3d_flags>
0

> <s_epik_input>
W0NIM11jMW5vYyhuMSlbQ0BASF0yW0NIMl1bQ0gyXVtDSDJdW05IXVtDSDJdMg==

> <s_epik_cmdline>
J2VwaWtfcHl0aG9uJywgJy1waCcsICc3LjAnLCAnLXRuJywgJzgnLCAnLW1hJywgJzIwMCcsICctbWV0YWxfYmluZGluZycsICctaW1hZScsICc8aW5maWxlLm1hZT4nLCAnLW9tYWUnLCAnPG91dGZpbGUubWFlPic=

> <r_lp_tautomer_probability>
1

> <r_epik_Ionization_Penalty>
0.000532935

> <r_epik_Ionization_Penalty_Charging>
0.000532935

> <r_epik_Ionization_Penalty_Neutral>
4.97553e-13

> <r_epik_State_Penalty>
0.000332992

> <r_epik_Charging_Adjusted_Penalty>
0.000865928

> <i_epik_Tot_Q>
1

> <i_epik_Tot_abs_Q>
1

> <r_epik_Metal_State_Penalty>
-0

> <b_epik_Metal_Only>
0

> <s_lp_Force_Field>
OPLS_2005

> <r_lp_Energy>
10.4199

> <b_lp_Chiralities_Consistent>
1

> <s_lp_Variant>
AV-unprocessed.smi:2209-2

> <Gold.Version>
5.8.1

> <Gold.Id.Protein>
6NUR|6NUR_protein|mol2

> <Gold.PLP.Fitness>
33.2805

> <Gold.PLP.PLP>
-24.3415

> <Gold.PLP.part.hbond>
-2.0867

> <Gold.PLP.part.metal>
0.0000

> <Gold.PLP.part.buried>
-3.7189

> <Gold.PLP.part.nonpolar>
-18.7985

> <Gold.PLP.part.repulsive>
0.0168

> <Gold.PLP.ligand.clash>
0.0000

> <Gold.PLP.ligand.torsion>
0.0472

> <Gold.PLP.Chemscore.Hbond>
3.0000

> <Gold.PLP.Chemscore.CHOScore>
0.0000

> <Gold.PLP.Chemscore.Metal>
0.0000

> <Gold.Chemscore.Hbonds>
donor molecule, donor type, donor heavy atom, donor atom, acceptor molecule, acceptor atom, score
      L1  H    10    26       P1  8028  2.00
      P1  H  7997  8009       L1    12  1.00

> <Gold.PLP.Chemscore.Internal.Correction>
0.0335

> <Gold.Rescore>
     Score         DG    S(hbond)    S(metal)    S(lipo)     H(rot)  DE(clash)    DE(int)     intcor
     16.27     -16.37       1.90        0.00      60.66       1.00       0.02       0.08       ----

> <Gold.Chemscore.Fitness>
16.2715

> <Gold.Chemscore.DG>
-16.3723

> <Gold.Chemscore.ZeroCoef>
-5.4800

> <Gold.Chemscore.Hbond>
1.9026

> <Gold.Chemscore.Metal>
0.0000

> <Gold.Chemscore.Lipo>
60.6648

> <Gold.Chemscore.Internal_Hbond>
0.0000

> <Gold.Chemscore.DEClash>
0.0163

> <Gold.Chemscore.DEInternal>
0.0845

> <Gold.Chemscore.Rot>
1.0000

> <Gold.Chemscore.Internal.Correction>
   9.000000E+99

> <Gold.Chemscore.Hbonds>
donor molecule, donor type, donor heavy atom, donor atom, acceptor molecule, acceptor atom, score
      L1  H    10    26       P1  8028  0.87
      P1  H  7997  8009       L1    12  0.60

> <Gold.Chemscore.Hbond.Weighted>
-6.3545

> <Gold.Chemscore.Metal.Weighted>
-0.0000

> <Gold.Chemscore.Lipo.Weighted>
-7.0978

> <Gold.Chemscore.Internal_Hbond.Weighted>
0.0000

> <Gold.Chemscore.DEClash.Weighted>
0.0163

> <Gold.Chemscore.DEInternal.Weighted>
0.0845

> <Gold.Chemscore.Rot.Weighted>
2.5600

> <Gold.Chemscore.Internal.Correction.Weighted>
   9.000000E+99

> <Gold.Protein.RotatedTorsions>
[ 6907 6896 6895 6894 ] final  -11.72 input  -60.11 | X-H torsion
[ 7974 7965 7964 7962 ] final   62.75 input  175.53 | X-H torsion
[ 8008 7997 7996 7995 ] final  167.81 input   59.86 | X-H torsion
[ 10167 10162 10161 10158 ] final    5.85 input  -65.29 | X-H torsion
[ 10718 10713 10712 10709 ] final  100.96 input   66.30 | X-H torsion
[ 10763 10752 10751 10750 ] final   11.65 input  -60.55 | X-H torsion
[ 11005 11000 10999 10996 ] final  158.18 input  -57.11 | X-H torsion

> <Gold.Protein.ActiveResidues>
 VAL166  LYS551  ARG553  GLY616  TRP617  ASP618  TYR619  PRO620  LYS621  CYS622 
 ASP623  PHE694  ASN695  SER759  ASP760  ASP761  ALA762  ILE779  LEU786  VAL792 
 PHE793  MET794  SER795  GLU796  ALA797  LYS798  CYS799  TRP800  GLU811  SER814 

> <Gold.Protein.RotatedAtoms>
  151.3818  135.0941  159.9498 H   0  0  0  0  0  0  0  0  0  0  0  0  # atno 6907 bound_to 6896
  152.5106  133.9064  159.7477 H   0  0  0  0  0  0  0  0  0  0  0  0  # atno 6908 bound_to 6896
  150.9499  133.6505  159.2803 H   0  0  0  0  0  0  0  0  0  0  0  0  # atno 6909 bound_to 6896
  145.8697  139.3370  143.0769 H   0  0  0  0  0  0  0  0  0  0  0  0  # atno 7974 bound_to 7965
  156.1602  140.1607  156.8625 H   0  0  0  0  0  0  0  0  0  0  0  0  # atno 8008 bound_to 7997
  154.5153  140.0791  156.8105 H   0  0  0  0  0  0  0  0  0  0  0  0  # atno 8009 bound_to 7997
  155.3723  140.3401  155.4246 H   0  0  0  0  0  0  0  0  0  0  0  0  # atno 8010 bound_to 7997
  140.6460  143.7662  150.7499 H   0  0  0  0  0  0  0  0  0  0  0  0  # atno 10167 bound_to 10162
  157.6841  131.0713  150.5180 H   0  0  0  0  0  0  0  0  0  0  0  0  # atno 10718 bound_to 10713
  153.1904  135.6841  153.8361 H   0  0  0  0  0  0  0  0  0  0  0  0  # atno 10763 bound_to 10752
  153.7662  135.3202  155.3346 H   0  0  0  0  0  0  0  0  0  0  0  0  # atno 10764 bound_to 10752
  154.8113  135.4715  154.0623 H   0  0  0  0  0  0  0  0  0  0  0  0  # atno 10765 bound_to 10752
  140.1841  134.8455  157.2836 H   0  0  0  0  0  0  0  0  0  0  0  0  # atno 11005 bound_to 11000
  145.9151  140.9154  143.0434 LP  0  0  0  0  0  0  0  0  0  0  0  0  # atno 17320 bound_to 7965
  144.6726  140.1212  143.7449 LP  0  0  0  0  0  0  0  0  0  0  0  0  # atno 17321 bound_to 7965
  140.1303  143.4532  152.2258 LP  0  0  0  0  0  0  0  0  0  0  0  0  # atno 17342 bound_to 10162
  139.5670  144.7441  151.3994 LP  0  0  0  0  0  0  0  0  0  0  0  0  # atno 17343 bound_to 10162
  156.5495  130.4228  149.6115 LP  0  0  0  0  0  0  0  0  0  0  0  0  # atno 17370 bound_to 10713
  156.2915  130.7127  151.1977 LP  0  0  0  0  0  0  0  0  0  0  0  0  # atno 17371 bound_to 10713
  140.2234  134.3996  155.7555 LP  0  0  0  0  0  0  0  0  0  0  0  0  # atno 17394 bound_to 11000
  141.2224  133.7178  156.8527 LP  0  0  0  0  0  0  0  0  0  0  0  0  # atno 17395 bound_to 11000

$$$$
