AV-unprocessed.smi:3021|AV-procd|sdf|11498|dock6
  -GOLD-   2272016433D 1   1.00000     0.00000
 Structure written by MMmdl.
 35 37  0  0  0  0  0  0  0  0  1 V2000
  149.1481  142.1243  155.7730 O   0  0  0  0  0  0  0  0  0  0  0  0
  149.8049  141.3552  156.7617 C   0  0  2  0  0  0  0  0  0  0  0  0
  149.3247  141.8313  158.1411 C   0  0  0  0  0  0  0  0  0  0  0  0
  147.9329  141.5829  158.2470 O   0  0  0  0  0  0  0  0  0  0  0  0
  147.1484  142.7563  158.1027 C   0  0  0  0  0  0  0  0  0  0  0  0
  146.9032  143.3180  159.4677 C   0  0  0  0  0  0  0  0  0  0  0  0
  147.2372  144.5066  160.0561 C   0  0  0  0  0  0  0  0  0  0  0  0
  146.7187  144.4622  161.3799 C   0  0  0  0  0  0  0  0  0  0  0  0
  146.1042  143.2491  161.5029 C   0  0  0  0  0  0  0  0  0  0  0  0
  146.2060  142.5396  160.3466 O   0  0  0  0  0  0  0  0  0  0  0  0
  151.3283  141.5151  156.5911 C   0  0  0  0  0  0  0  0  0  0  0  0
  152.0626  141.1306  157.7841 N   0  0  0  0  0  0  0  0  0  0  0  0
  152.6765  139.9143  157.8265 N   0  0  0  0  0  0  0  0  0  0  0  0
  153.2733  139.7889  158.9740 N   0  0  0  0  0  0  0  0  0  0  0  0
  153.0510  140.9465  159.7012 C   0  0  0  0  0  0  0  0  0  0  0  0
  153.4668  141.3425  160.9919 C   0  0  0  0  0  0  0  0  0  0  0  0
  153.0957  142.6045  161.5057 C   0  0  0  0  0  0  0  0  0  0  0  0
  153.6245  143.0531  163.0883 Cl  0  0  0  0  0  0  0  0  0  0  0  0
  152.3026  143.4859  160.7318 C   0  0  0  0  0  0  0  0  0  0  0  0
  151.8400  145.0334  161.3450 Cl  0  0  0  0  0  0  0  0  0  0  0  0
  151.8811  143.1039  159.4425 C   0  0  0  0  0  0  0  0  0  0  0  0
  152.2606  141.8437  158.9506 C   0  0  0  0  0  0  0  0  0  0  0  0
  149.2332  143.0375  156.0021 H   0  0  0  0  0  0  0  0  0  0  0  0
  149.5410  140.3052  156.6274 H   0  0  0  0  0  0  0  0  0  0  0  0
  149.8339  141.2670  158.9241 H   0  0  0  0  0  0  0  0  0  0  0  0
  149.5563  142.8864  158.2990 H   0  0  0  0  0  0  0  0  0  0  0  0
  147.6682  143.4894  157.4847 H   0  0  0  0  0  0  0  0  0  0  0  0
  146.1985  142.5225  157.6202 H   0  0  0  0  0  0  0  0  0  0  0  0
  147.7877  145.3105  159.5901 H   0  0  0  0  0  0  0  0  0  0  0  0
  146.7863  145.2215  162.1448 H   0  0  0  0  0  0  0  0  0  0  0  0
  145.5718  142.7547  162.3020 H   0  0  0  0  0  0  0  0  0  0  0  0
  151.6852  140.9148  155.7530 H   0  0  0  0  0  0  0  0  0  0  0  0
  151.5751  142.5516  156.3563 H   0  0  0  0  0  0  0  0  0  0  0  0
  154.0732  140.6753  161.5866 H   0  0  0  0  0  0  0  0  0  0  0  0
  151.2787  143.7681  158.8405 H   0  0  0  0  0  0  0  0  0  0  0  0
  1  2  1  0  0  0  0
  1 23  1  0  0  0  0
  2  3  1  0  0  0  0
  2 11  1  0  0  0  0
  2 24  1  0  0  0  0
  3  4  1  0  0  0  0
  3 25  1  0  0  0  0
  3 26  1  0  0  0  0
  4  5  1  0  0  0  0
  5  6  1  0  0  0  0
  5 27  1  0  0  0  0
  5 28  1  0  0  0  0
  6 10  1  0  0  0  0
  6  7  2  0  0  0  0
  7  8  1  0  0  0  0
  7 29  1  0  0  0  0
  8  9  2  0  0  0  0
  8 30  1  0  0  0  0
  9 10  1  0  0  0  0
  9 31  1  0  0  0  0
 11 12  1  0  0  0  0
 11 32  1  0  0  0  0
 11 33  1  0  0  0  0
 12 22  1  0  0  0  0
 12 13  1  0  0  0  0
 13 14  2  0  0  0  0
 14 15  1  0  0  0  0
 15 22  2  0  0  0  0
 15 16  1  0  0  0  0
 16 17  2  0  0  0  0
 16 34  1  0  0  0  0
 17 18  1  0  0  0  0
 17 19  1  0  0  0  0
 19 20  1  0  0  0  0
 19 21  2  0  0  0  0
 21 22  1  0  0  0  0
 21 35  1  0  0  0  0
M  END
> <s_m_source_file>
AV-unprocessed.smi

> <i_m_source_file_index>
3021

> <i_lp_mmshare_version>
43012

> <i_f3d_flags>
0

> <s_epik_input>
W2NIXTFjKENsKWMoQ2wpW2NIXWMoYzEyKW4obm4yKVtDSDJdW0NASF0oW09IXSlbQ0gyXU9bQ0gyXWMzW2NIXVtjSF1bY0hdbzM=

> <s_epik_cmdline>
J2VwaWtfcHl0aG9uJywgJy1waCcsICc3LjAnLCAnLXRuJywgJzgnLCAnLW1hJywgJzIwMCcsICctbWV0YWxfYmluZGluZycsICctaW1hZScsICc8aW5maWxlLm1hZT4nLCAnLW9tYWUnLCAnPG91dGZpbGUubWFlPic=

> <r_lp_tautomer_probability>
1

> <r_epik_Ionization_Penalty>
6.1367e-06

> <r_epik_Ionization_Penalty_Charging>
0

> <r_epik_Ionization_Penalty_Neutral>
6.1367e-06

> <r_epik_State_Penalty>
-0

> <r_epik_Charging_Adjusted_Penalty>
0

> <i_epik_Tot_Q>
0

> <i_epik_Tot_abs_Q>
0

> <r_epik_Metal_State_Penalty>
-0

> <b_epik_Metal_Only>
0

> <s_lp_Force_Field>
OPLS_2005

> <r_lp_Energy>
8.1305

> <b_lp_Chiralities_Consistent>
1

> <s_lp_Variant>
AV-unprocessed.smi:3021-1

> <Gold.Version>
5.8.1

> <Gold.Id.Protein>
6NUR|6NUR_protein|mol2

> <Gold.PLP.Fitness>
50.9402

> <Gold.PLP.PLP>
-45.4240

> <Gold.PLP.part.hbond>
-3.8061

> <Gold.PLP.part.metal>
0.0000

> <Gold.PLP.part.buried>
-4.8074

> <Gold.PLP.part.nonpolar>
-35.8585

> <Gold.PLP.part.repulsive>
0.0683

> <Gold.PLP.ligand.clash>
0.0000

> <Gold.PLP.ligand.torsion>
0.9607

> <Gold.PLP.Chemscore.Hbond>
2.4393

> <Gold.PLP.Chemscore.CHOScore>
0.0000

> <Gold.PLP.Chemscore.Metal>
0.0000

> <Gold.Chemscore.Hbonds>
donor molecule, donor type, donor heavy atom, donor atom, acceptor molecule, acceptor atom, score
      L1  H     1    23       P1  8028  0.99
      P1  H  6934  6946       L1    10  1.00
      P1  H  7997  8009       L1    13  0.38

> <Gold.PLP.Chemscore.Internal.Correction>
0.1196

> <Gold.Rescore>
     Score         DG    S(hbond)    S(metal)    S(lipo)     H(rot)  DE(clash)    DE(int)     intcor
     16.01     -18.41       1.64        0.00     117.75       2.46       0.42       1.98       ----

> <Gold.Chemscore.Fitness>
16.0137

> <Gold.Chemscore.DG>
-18.4116

> <Gold.Chemscore.ZeroCoef>
-5.4800

> <Gold.Chemscore.Hbond>
1.6360

> <Gold.Chemscore.Metal>
0.0000

> <Gold.Chemscore.Lipo>
117.7523

> <Gold.Chemscore.Internal_Hbond>
0.0000

> <Gold.Chemscore.DEClash>
0.4212

> <Gold.Chemscore.DEInternal>
1.9767

> <Gold.Chemscore.Rot>
2.4647

> <Gold.Chemscore.Internal.Correction>
   9.000000E+99

> <Gold.Chemscore.Hbonds>
donor molecule, donor type, donor heavy atom, donor atom, acceptor molecule, acceptor atom, score
      L1  H     1    23       P1  8028  0.93
      P1  H  6934  6946       L1    10  0.66
      P1  H  7997  8009       L1    13  0.01

> <Gold.Chemscore.Hbond.Weighted>
-5.4642

> <Gold.Chemscore.Metal.Weighted>
-0.0000

> <Gold.Chemscore.Lipo.Weighted>
-13.7770

> <Gold.Chemscore.Internal_Hbond.Weighted>
0.0000

> <Gold.Chemscore.DEClash.Weighted>
0.4212

> <Gold.Chemscore.DEInternal.Weighted>
1.9767

> <Gold.Chemscore.Rot.Weighted>
6.3097

> <Gold.Chemscore.Internal.Correction.Weighted>
   9.000000E+99

> <Gold.Protein.RotatedTorsions>
[ 6907 6896 6895 6894 ] final  143.28 input  -60.11 | X-H torsion
[ 7974 7965 7964 7962 ] final   37.99 input  175.53 | X-H torsion
[ 8008 7997 7996 7995 ] final  159.10 input   59.86 | X-H torsion
[ 10167 10162 10161 10158 ] final -165.83 input  -65.29 | X-H torsion
[ 10718 10713 10712 10709 ] final  110.93 input   66.30 | X-H torsion
[ 10763 10752 10751 10750 ] final -156.42 input  -60.55 | X-H torsion
[ 11005 11000 10999 10996 ] final   48.99 input  -57.11 | X-H torsion

> <Gold.Protein.ActiveResidues>
 VAL166  LYS551  ARG553  GLY616  TRP617  ASP618  TYR619  PRO620  LYS621  CYS622 
 ASP623  PHE694  ASN695  SER759  ASP760  ASP761  ALA762  ILE779  LEU786  VAL792 
 PHE793  MET794  SER795  GLU796  ALA797  LYS798  CYS799  TRP800  GLU811  SER814 

> <Gold.Protein.RotatedAtoms>
  152.2082  133.4891  159.5095 H   0  0  0  0  0  0  0  0  0  0  0  0  # atno 6907 bound_to 6896
  150.6984  134.1502  159.4146 H   0  0  0  0  0  0  0  0  0  0  0  0  # atno 6908 bound_to 6896
  151.9420  135.0208  160.0587 H   0  0  0  0  0  0  0  0  0  0  0  0  # atno 6909 bound_to 6896
  146.1096  139.5826  142.9361 H   0  0  0  0  0  0  0  0  0  0  0  0  # atno 7974 bound_to 7965
  156.2260  140.1840  156.7361 H   0  0  0  0  0  0  0  0  0  0  0  0  # atno 8008 bound_to 7997
  154.5943  140.0646  156.9309 H   0  0  0  0  0  0  0  0  0  0  0  0  # atno 8009 bound_to 7997
  155.2283  140.3313  155.4309 H   0  0  0  0  0  0  0  0  0  0  0  0  # atno 8010 bound_to 7997
  139.6156  144.0727  152.1884 H   0  0  0  0  0  0  0  0  0  0  0  0  # atno 10167 bound_to 10162
  157.6470  131.0941  150.6674 H   0  0  0  0  0  0  0  0  0  0  0  0  # atno 10718 bound_to 10713
  154.7714  135.3146  154.8181 H   0  0  0  0  0  0  0  0  0  0  0  0  # atno 10763 bound_to 10752
  153.8915  135.6825  153.4764 H   0  0  0  0  0  0  0  0  0  0  0  0  # atno 10764 bound_to 10752
  153.1329  135.4772  154.9311 H   0  0  0  0  0  0  0  0  0  0  0  0  # atno 10765 bound_to 10752
  140.1142  134.4915  155.8652 H   0  0  0  0  0  0  0  0  0  0  0  0  # atno 11005 bound_to 11000
  145.5691  141.0396  143.2184 LP  0  0  0  0  0  0  0  0  0  0  0  0  # atno 17320 bound_to 7965
  144.7500  139.7219  143.7277 LP  0  0  0  0  0  0  0  0  0  0  0  0  # atno 17321 bound_to 7965
  140.0357  144.6047  150.7452 LP  0  0  0  0  0  0  0  0  0  0  0  0  # atno 17342 bound_to 10162
  140.7348  143.2733  151.3819 LP  0  0  0  0  0  0  0  0  0  0  0  0  # atno 17343 bound_to 10162
  156.6990  130.4617  149.5578 LP  0  0  0  0  0  0  0  0  0  0  0  0  # atno 17370 bound_to 10713
  156.1808  130.6498  151.0949 LP  0  0  0  0  0  0  0  0  0  0  0  0  # atno 17371 bound_to 10713
  141.2137  133.6737  156.6763 LP  0  0  0  0  0  0  0  0  0  0  0  0  # atno 17394 bound_to 11000
  140.3051  134.8132  157.4130 LP  0  0  0  0  0  0  0  0  0  0  0  0  # atno 17395 bound_to 11000

$$$$
