AV-unprocessed.smi:3342|AV-procd|sdf|12890|dock8
  -GOLD-   2272019293D 1   1.00000     0.00000
 Structure written by MMmdl.
 41 42  0  0  0  0  0  0  0  0  1 V2000
  155.3663  139.1211  160.6206 C   0  0  0  0  0  0  0  0  0  0  0  0
  154.1500  139.7623  159.9344 C   0  0  1  0  0  0  0  0  0  0  0  0
  154.3463  141.2780  159.7418 C   0  0  0  0  0  0  0  0  0  0  0  0
  153.3855  142.0593  160.4987 N   0  0  0  0  0  0  0  0  0  0  0  0
  153.3949  142.3041  161.8659 C   0  0  0  0  0  0  0  0  0  0  0  0
  152.2974  143.0917  162.1312 C   0  0  0  0  0  0  0  0  0  0  0  0
  151.6024  143.3407  160.9501 N   0  0  0  0  0  0  0  0  0  0  0  0
  152.3055  142.6971  160.0272 C   0  0  0  0  0  0  0  0  0  0  0  0
  153.9106  139.1250  158.6418 N   0  0  0  0  0  0  0  0  0  0  0  0
  153.5402  137.8479  158.4491 C   0  0  0  0  0  0  0  0  0  0  0  0
  153.4008  137.0588  159.3846 O   0  0  0  0  0  0  0  0  0  0  0  0
  153.3314  137.5089  157.1515 N   0  0  0  0  0  0  0  0  0  0  0  0
  152.4253  136.4582  156.6569 C   0  0  0  0  0  0  0  0  0  0  0  0
  151.2051  137.1277  156.0002 C   0  0  0  0  0  0  0  0  0  0  0  0
  151.6399  138.0813  154.8623 C   0  0  0  0  0  0  0  0  0  0  0  0
  150.4371  138.8477  154.2957 C   0  0  0  0  0  0  0  0  0  0  0  0
  149.6746  138.2107  153.4035 N   0  0  0  0  0  0  0  0  0  0  0  0
  150.1966  139.9982  154.6568 O   0  0  0  0  0  0  0  0  0  0  0  0
  152.7404  139.0534  155.3494 C   0  0  0  0  0  0  0  0  0  0  0  0
  153.8867  138.2935  156.0419 C   0  0  0  0  0  0  0  0  0  0  0  0
  155.5510  139.5757  161.5940 H   0  0  0  0  0  0  0  0  0  0  0  0
  156.2693  139.2405  160.0210 H   0  0  0  0  0  0  0  0  0  0  0  0
  155.2127  138.0536  160.7822 H   0  0  0  0  0  0  0  0  0  0  0  0
  153.2790  139.6131  160.5755 H   0  0  0  0  0  0  0  0  0  0  0  0
  155.3466  141.5719  160.0623 H   0  0  0  0  0  0  0  0  0  0  0  0
  154.2640  141.5462  158.6873 H   0  0  0  0  0  0  0  0  0  0  0  0
  154.1614  141.9114  162.5178 H   0  0  0  0  0  0  0  0  0  0  0  0
  151.9575  143.4952  163.0737 H   0  0  0  0  0  0  0  0  0  0  0  0
  152.0298  142.6915  158.9827 H   0  0  0  0  0  0  0  0  0  0  0  0
  154.0079  139.7101  157.8250 H   0  0  0  0  0  0  0  0  0  0  0  0
  152.9538  135.8485  155.9226 H   0  0  0  0  0  0  0  0  0  0  0  0
  152.0957  135.7572  157.4238 H   0  0  0  0  0  0  0  0  0  0  0  0
  150.5327  136.3627  155.6099 H   0  0  0  0  0  0  0  0  0  0  0  0
  150.6447  137.6733  156.7612 H   0  0  0  0  0  0  0  0  0  0  0  0
  152.0672  137.4715  154.0643 H   0  0  0  0  0  0  0  0  0  0  0  0
  148.8711  138.6732  153.0038 H   0  0  0  0  0  0  0  0  0  0  0  0
  149.9048  137.2656  153.1330 H   0  0  0  0  0  0  0  0  0  0  0  0
  153.1348  139.6238  154.5076 H   0  0  0  0  0  0  0  0  0  0  0  0
  152.3235  139.7818  156.0472 H   0  0  0  0  0  0  0  0  0  0  0  0
  154.6558  138.9971  156.3637 H   0  0  0  0  0  0  0  0  0  0  0  0
  154.3773  137.6245  155.3335 H   0  0  0  0  0  0  0  0  0  0  0  0
  1  2  1  0  0  0  0
  1 21  1  0  0  0  0
  1 22  1  0  0  0  0
  1 23  1  0  0  0  0
  2  3  1  0  0  0  0
  2  9  1  0  0  0  0
  2 24  1  0  0  0  0
  3  4  1  0  0  0  0
  3 25  1  0  0  0  0
  3 26  1  0  0  0  0
  4  8  1  0  0  0  0
  4  5  1  0  0  0  0
  5  6  2  0  0  0  0
  5 27  1  0  0  0  0
  6  7  1  0  0  0  0
  6 28  1  0  0  0  0
  7  8  2  0  0  0  0
  8 29  1  0  0  0  0
  9 10  1  0  0  0  0
  9 30  1  0  0  0  0
 10 11  2  0  0  0  0
 10 12  1  0  0  0  0
 12 20  1  0  0  0  0
 12 13  1  0  0  0  0
 13 14  1  0  0  0  0
 13 31  1  0  0  0  0
 13 32  1  0  0  0  0
 14 15  1  0  0  0  0
 14 33  1  0  0  0  0
 14 34  1  0  0  0  0
 15 16  1  0  0  0  0
 15 19  1  0  0  0  0
 15 35  1  0  0  0  0
 16 17  1  0  0  0  0
 16 18  2  0  0  0  0
 17 36  1  0  0  0  0
 17 37  1  0  0  0  0
 19 20  1  0  0  0  0
 19 38  1  0  0  0  0
 19 39  1  0  0  0  0
 20 40  1  0  0  0  0
 20 41  1  0  0  0  0
M  END
> <s_m_source_file>
AV-unprocessed.smi

> <i_m_source_file_index>
3342

> <i_lp_mmshare_version>
43012

> <i_f3d_flags>
0

> <s_epik_input>
W2NIXTFuW2NIXVtjSF1uMVtDSDJdW0NAQEhdKFtDSDNdKVtOSF1DKD1PKU4yW0NIMl1bQ0gyXVtDSF0oQyg9TylbTkgyXSlbQ0gyXVtDSDJdMg==

> <s_epik_cmdline>
J2VwaWtfcHl0aG9uJywgJy1waCcsICc3LjAnLCAnLXRuJywgJzgnLCAnLW1hJywgJzIwMCcsICctbWV0YWxfYmluZGluZycsICctaW1hZScsICc8aW5maWxlLm1hZT4nLCAnLW9tYWUnLCAnPG91dGZpbGUubWFlPic=

> <r_lp_tautomer_probability>
1

> <r_epik_Ionization_Penalty>
0.624431

> <r_epik_Ionization_Penalty_Charging>
0.624374

> <r_epik_Ionization_Penalty_Neutral>
5.67186e-05

> <r_epik_State_Penalty>
0.640677

> <r_epik_Charging_Adjusted_Penalty>
1.26505

> <i_epik_Tot_Q>
0

> <i_epik_Tot_abs_Q>
0

> <r_epik_Metal_State_Penalty>
0.307574

> <b_epik_Metal_Only>
0

> <s_lp_Force_Field>
OPLS_2005

> <r_lp_Energy>
30.3525

> <b_lp_Chiralities_Consistent>
1

> <s_lp_Variant>
AV-unprocessed.smi:3342-4

> <Gold.Version>
5.8.1

> <Gold.Id.Protein>
6NUR|6NUR_protein|mol2

> <Gold.PLP.Fitness>
46.2934

> <Gold.PLP.PLP>
-40.8452

> <Gold.PLP.part.hbond>
-4.0000

> <Gold.PLP.part.metal>
0.0000

> <Gold.PLP.part.buried>
-5.8479

> <Gold.PLP.part.nonpolar>
-30.6358

> <Gold.PLP.part.repulsive>
0.3552

> <Gold.PLP.ligand.clash>
0.7355

> <Gold.PLP.ligand.torsion>
1.8970

> <Gold.PLP.Chemscore.Hbond>
3.2960

> <Gold.PLP.Chemscore.CHOScore>
0.0000

> <Gold.PLP.Chemscore.Metal>
0.0000

> <Gold.Chemscore.Hbonds>
donor molecule, donor type, donor heavy atom, donor atom, acceptor molecule, acceptor atom, score
      L1  H    17    36       P1  7957  0.01
      L1  H    17    37       P1  7948  0.53
      P1  H  7989  7998       L1    18  0.79

> <Gold.PLP.Chemscore.Internal.Correction>
0.0897

> <Gold.Rescore>
     Score         DG    S(hbond)    S(metal)    S(lipo)     H(rot)  DE(clash)    DE(int)     intcor
     16.86     -18.80       3.26        0.00      70.53       2.28       0.02       1.92       ----

> <Gold.Chemscore.Fitness>
16.8560

> <Gold.Chemscore.DG>
-18.7977

> <Gold.Chemscore.ZeroCoef>
-5.4800

> <Gold.Chemscore.Hbond>
3.2609

> <Gold.Chemscore.Metal>
0.0000

> <Gold.Chemscore.Lipo>
70.5323

> <Gold.Chemscore.Internal_Hbond>
0.0000

> <Gold.Chemscore.DEClash>
0.0234

> <Gold.Chemscore.DEInternal>
1.9182

> <Gold.Chemscore.Rot>
2.2757

> <Gold.Chemscore.Internal.Correction>
   9.000000E+99

> <Gold.Chemscore.Hbonds>
donor molecule, donor type, donor heavy atom, donor atom, acceptor molecule, acceptor atom, score
      L1  H    17    36       P1  7957  0.02
      L1  H    17    37       P1  7948  0.16
      P1  H  7989  7998       L1    18  0.11

> <Gold.Chemscore.Hbond.Weighted>
-10.8913

> <Gold.Chemscore.Metal.Weighted>
-0.0000

> <Gold.Chemscore.Lipo.Weighted>
-8.2523

> <Gold.Chemscore.Internal_Hbond.Weighted>
0.0000

> <Gold.Chemscore.DEClash.Weighted>
0.0234

> <Gold.Chemscore.DEInternal.Weighted>
1.9182

> <Gold.Chemscore.Rot.Weighted>
5.8259

> <Gold.Chemscore.Internal.Correction.Weighted>
   9.000000E+99

> <Gold.Protein.RotatedTorsions>
[ 6907 6896 6895 6894 ] final   -4.82 input  -60.11 | X-H torsion
[ 7974 7965 7964 7962 ] final  -29.72 input  175.53 | X-H torsion
[ 8008 7997 7996 7995 ] final   80.13 input   59.86 | X-H torsion
[ 10167 10162 10161 10158 ] final   63.26 input  -65.29 | X-H torsion
[ 10718 10713 10712 10709 ] final   27.55 input   66.30 | X-H torsion
[ 10763 10752 10751 10750 ] final   43.33 input  -60.55 | X-H torsion
[ 11005 11000 10999 10996 ] final  170.00 input  -57.11 | X-H torsion

> <Gold.Protein.ActiveResidues>
 VAL166  LYS551  ARG553  GLY616  TRP617  ASP618  TYR619  PRO620  LYS621  CYS622 
 ASP623  PHE694  ASN695  SER759  ASP760  ASP761  ALA762  ILE779  LEU786  VAL792 
 PHE793  MET794  SER795  GLU796  ALA797  LYS798  CYS799  TRP800  GLU811  SER814 

> <Gold.Protein.RotatedAtoms>
  151.4915  135.1057  159.9804 H   0  0  0  0  0  0  0  0  0  0  0  0  # atno 6907 bound_to 6896
  152.4739  133.8089  159.7003 H   0  0  0  0  0  0  0  0  0  0  0  0  # atno 6908 bound_to 6896
  150.8765  133.7370  159.2971 H   0  0  0  0  0  0  0  0  0  0  0  0  # atno 6909 bound_to 6896
  146.1196  140.5449  142.8741 H   0  0  0  0  0  0  0  0  0  0  0  0  # atno 7974 bound_to 7965
  155.8792  140.3445  155.5876 H   0  0  0  0  0  0  0  0  0  0  0  0  # atno 8008 bound_to 7997
  155.7739  140.0849  157.2113 H   0  0  0  0  0  0  0  0  0  0  0  0  # atno 8009 bound_to 7997
  154.4023  140.1513  156.2961 H   0  0  0  0  0  0  0  0  0  0  0  0  # atno 8010 bound_to 7997
  140.1350  144.4607  150.6843 H   0  0  0  0  0  0  0  0  0  0  0  0  # atno 10167 bound_to 10162
  157.2216  130.6981  149.6273 H   0  0  0  0  0  0  0  0  0  0  0  0  # atno 10718 bound_to 10713
  152.9863  135.6104  154.3095 H   0  0  0  0  0  0  0  0  0  0  0  0  # atno 10763 bound_to 10752
  154.2811  135.2777  155.2698 H   0  0  0  0  0  0  0  0  0  0  0  0  # atno 10764 bound_to 10752
  154.5037  135.5860  153.6607 H   0  0  0  0  0  0  0  0  0  0  0  0  # atno 10765 bound_to 10752
  140.3038  134.7574  157.3937 H   0  0  0  0  0  0  0  0  0  0  0  0  # atno 11005 bound_to 11000
  144.7584  140.5364  143.6752 LP  0  0  0  0  0  0  0  0  0  0  0  0  # atno 17320 bound_to 7965
  145.5495  139.1476  143.3402 LP  0  0  0  0  0  0  0  0  0  0  0  0  # atno 17321 bound_to 7965
  140.6794  143.2320  151.5422 LP  0  0  0  0  0  0  0  0  0  0  0  0  # atno 17342 bound_to 10162
  139.5500  144.2419  152.1514 LP  0  0  0  0  0  0  0  0  0  0  0  0  # atno 17343 bound_to 10162
  155.9682  130.4518  150.5749 LP  0  0  0  0  0  0  0  0  0  0  0  0  # atno 17370 bound_to 10713
  157.3569  131.0743  151.1668 LP  0  0  0  0  0  0  0  0  0  0  0  0  # atno 17371 bound_to 10713
  140.1086  134.5376  155.8287 LP  0  0  0  0  0  0  0  0  0  0  0  0  # atno 17394 bound_to 11000
  141.2122  133.6717  156.6646 LP  0  0  0  0  0  0  0  0  0  0  0  0  # atno 17395 bound_to 11000

$$$$
