AV-unprocessed.smi:174|AV-procd|sdf|1428|dock5
  -GOLD-   2262019203D 1   1.00000     0.00000
 Structure written by MMmdl.
 51 54  0  0  0  0  0  0  0  0  1 V2000
  144.9516  135.8707  150.0013 N   0  0  0  0  0  0  0  0  0  0  0  0
  144.7870  134.9730  150.9752 C   0  0  0  0  0  0  0  0  0  0  0  0
  145.3548  133.8818  150.9596 O   0  0  0  0  0  0  0  0  0  0  0  0
  143.8627  135.3792  152.1322 C   0  0  0  0  0  0  0  0  0  0  0  0
  144.4970  136.2988  153.0888 N   0  0  0  0  0  0  0  0  0  0  0  0
  145.1303  137.4919  152.5203 C   0  0  0  0  0  0  0  0  0  0  0  0
  146.3574  137.9308  153.3252 C   0  0  0  0  0  0  0  0  0  0  0  0
  146.0091  138.0830  154.7323 N   0  0  0  0  0  0  0  0  0  0  0  0
  146.7859  138.8505  155.5474 C   0  0  0  0  0  0  0  0  0  0  0  0
  146.4076  138.9689  156.8485 N   0  0  0  0  0  0  0  0  0  0  0  0
  147.1168  139.7098  157.7035 C   0  0  0  0  0  0  0  0  0  0  0  0
  148.2285  140.4089  157.4762 N   0  0  0  0  0  0  0  0  0  0  0  0
  148.6260  140.2924  156.1778 C   0  0  0  0  0  0  0  0  0  0  0  0
  147.9730  139.5439  155.1543 C   0  0  0  0  0  0  0  0  0  0  0  0
  148.6921  139.6654  153.9684 N   0  0  0  0  0  0  0  0  0  0  0  0
  149.6958  140.4422  154.2691 C   0  0  0  0  0  0  0  0  0  0  0  0
  149.7324  140.8655  155.5763 N   0  0  0  0  0  0  0  0  0  0  0  0
  150.7330  141.7288  156.1783 C   0  0  0  0  0  0  0  0  0  0  0  0
  150.5775  141.8187  157.7110 C   0  0  1  0  0  0  0  0  0  0  0  0
  150.7372  140.5413  158.2956 O   0  0  0  0  0  0  0  0  0  0  0  0
  151.5400  142.8108  158.3960 C   0  0  1  0  0  0  0  0  0  0  0  0
  151.6085  144.2232  157.8073 C   0  0  0  0  0  0  0  0  0  0  0  0
  152.1198  145.0130  158.9904 C   0  0  0  0  0  0  0  0  0  0  0  0
  151.3792  144.3493  160.1481 C   0  0  0  0  0  0  0  0  0  0  0  0
  151.1977  142.9872  159.7688 O   0  0  0  0  0  0  0  0  0  0  0  0
  145.1753  137.0545  155.3764 C   0  0  0  0  0  0  0  0  0  0  0  0
  144.4637  136.0737  154.4248 C   0  0  0  0  0  0  0  0  0  0  0  0
  143.8950  135.0996  154.9187 O   0  0  0  0  0  0  0  0  0  0  0  0
  145.5473  135.6531  149.2157 H   0  0  0  0  0  0  0  0  0  0  0  0
  144.4798  136.7617  150.0508 H   0  0  0  0  0  0  0  0  0  0  0  0
  142.9691  135.8422  151.7113 H   0  0  0  0  0  0  0  0  0  0  0  0
  143.5102  134.4823  152.6447 H   0  0  0  0  0  0  0  0  0  0  0  0
  145.4282  137.3113  151.4866 H   0  0  0  0  0  0  0  0  0  0  0  0
  144.3917  138.2945  152.4984 H   0  0  0  0  0  0  0  0  0  0  0  0
  147.1562  137.1942  153.2262 H   0  0  0  0  0  0  0  0  0  0  0  0
  146.7191  138.8732  152.9127 H   0  0  0  0  0  0  0  0  0  0  0  0
  146.7386  139.7477  158.7145 H   0  0  0  0  0  0  0  0  0  0  0  0
  150.4418  140.7287  153.5421 H   0  0  0  0  0  0  0  0  0  0  0  0
  151.7189  141.3565  155.9007 H   0  0  0  0  0  0  0  0  0  0  0  0
  150.6367  142.7186  155.7308 H   0  0  0  0  0  0  0  0  0  0  0  0
  149.5596  142.1415  157.9335 H   0  0  0  0  0  0  0  0  0  0  0  0
  151.1999  140.6419  159.1134 H   0  0  0  0  0  0  0  0  0  0  0  0
  152.5471  142.3897  158.3854 H   0  0  0  0  0  0  0  0  0  0  0  0
  152.2600  144.2885  156.9356 H   0  0  0  0  0  0  0  0  0  0  0  0
  150.6239  144.5938  157.5247 H   0  0  0  0  0  0  0  0  0  0  0  0
  153.1957  144.8706  159.1001 H   0  0  0  0  0  0  0  0  0  0  0  0
  151.9212  146.0822  158.9128 H   0  0  0  0  0  0  0  0  0  0  0  0
  151.9201  144.4329  161.0908 H   0  0  0  0  0  0  0  0  0  0  0  0
  150.3966  144.8036  160.2801 H   0  0  0  0  0  0  0  0  0  0  0  0
  145.7921  136.4745  156.0650 H   0  0  0  0  0  0  0  0  0  0  0  0
  144.4002  137.5389  155.9719 H   0  0  0  0  0  0  0  0  0  0  0  0
  1  2  1  0  0  0  0
  1 29  1  0  0  0  0
  1 30  1  0  0  0  0
  2  3  2  0  0  0  0
  2  4  1  0  0  0  0
  4  5  1  0  0  0  0
  4 31  1  0  0  0  0
  4 32  1  0  0  0  0
  5 27  1  0  0  0  0
  5  6  1  0  0  0  0
  6  7  1  0  0  0  0
  6 33  1  0  0  0  0
  6 34  1  0  0  0  0
  7  8  1  0  0  0  0
  7 35  1  0  0  0  0
  7 36  1  0  0  0  0
  8  9  1  0  0  0  0
  8 26  1  0  0  0  0
  9 14  1  0  0  0  0
  9 10  2  0  0  0  0
 10 11  1  0  0  0  0
 11 12  2  0  0  0  0
 11 37  1  0  0  0  0
 12 13  1  0  0  0  0
 13 17  1  0  0  0  0
 13 14  2  0  0  0  0
 14 15  1  0  0  0  0
 15 16  2  0  0  0  0
 16 17  1  0  0  0  0
 16 38  1  0  0  0  0
 17 18  1  0  0  0  0
 18 19  1  0  0  0  0
 18 39  1  0  0  0  0
 18 40  1  0  0  0  0
 19 20  1  0  0  0  0
 19 21  1  0  0  0  0
 19 41  1  0  0  0  0
 20 42  1  0  0  0  0
 21 25  1  0  0  0  0
 21 22  1  0  0  0  0
 21 43  1  0  0  0  0
 22 23  1  0  0  0  0
 22 44  1  0  0  0  0
 22 45  1  0  0  0  0
 23 24  1  0  0  0  0
 23 46  1  0  0  0  0
 23 47  1  0  0  0  0
 24 25  1  0  0  0  0
 24 48  1  0  0  0  0
 24 49  1  0  0  0  0
 26 27  1  0  0  0  0
 26 50  1  0  0  0  0
 26 51  1  0  0  0  0
 27 28  2  0  0  0  0
M  END
> <s_m_source_file>
AV-unprocessed.smi

> <i_m_source_file_index>
174

> <i_lp_mmshare_version>
43012

> <i_f3d_flags>
0

> <s_epik_input>
W05IMl1DKD1PKVtDSDJdTjFbQ0gyXVtDSDJdTihbQ0gyXUMxPU8pYyhuW2NIXW4yKWMoYzIzKW5bY0hdbjNbQ0gyXVtDQEhdKFtPSF0pW0NAQEhdNFtDSDJdW0NIMl1bQ0gyXU80

> <s_epik_cmdline>
J2VwaWtfcHl0aG9uJywgJy1waCcsICc3LjAnLCAnLXRuJywgJzgnLCAnLW1hJywgJzIwMCcsICctbWV0YWxfYmluZGluZycsICctaW1hZScsICc8aW5maWxlLm1hZT4nLCAnLW9tYWUnLCAnPG91dGZpbGUubWFlPic=

> <r_lp_tautomer_probability>
1

> <r_epik_Ionization_Penalty>
0.000250477

> <r_epik_Ionization_Penalty_Charging>
0

> <r_epik_Ionization_Penalty_Neutral>
0.000250477

> <r_epik_State_Penalty>
-0

> <r_epik_Charging_Adjusted_Penalty>
0

> <i_epik_Tot_Q>
0

> <i_epik_Tot_abs_Q>
0

> <r_epik_Metal_State_Penalty>
-0

> <b_epik_Metal_Only>
0

> <s_lp_Force_Field>
OPLS_2005

> <r_lp_Energy>
38.9575

> <b_lp_Chiralities_Consistent>
1

> <s_lp_Variant>
AV-unprocessed.smi:174-4

> <Gold.Version>
5.8.1

> <Gold.Id.Protein>
6NUR|6NUR_protein|mol2

> <Gold.PLP.Fitness>
42.5264

> <Gold.PLP.PLP>
-35.9575

> <Gold.PLP.part.hbond>
-2.3912

> <Gold.PLP.part.metal>
0.0000

> <Gold.PLP.part.buried>
-4.6567

> <Gold.PLP.part.nonpolar>
-30.9394

> <Gold.PLP.part.repulsive>
1.4925

> <Gold.PLP.ligand.clash>
0.0107

> <Gold.PLP.ligand.torsion>
0.5826

> <Gold.PLP.Chemscore.Hbond>
2.0000

> <Gold.PLP.Chemscore.CHOScore>
0.4753

> <Gold.PLP.Chemscore.Metal>
0.0000

> <Gold.Chemscore.Hbonds>
donor molecule, donor type, donor heavy atom, donor atom, acceptor molecule, acceptor atom, score
      L1  H     1    29       P1  7921  1.00
      L1  H     1    30       P1 10171  1.00
      L1  C    16    38       P1  7957  0.49

> <Gold.PLP.Chemscore.Internal.Correction>
0.3191

> <Gold.Rescore>
     Score         DG    S(hbond)    S(metal)    S(lipo)     H(rot)  DE(clash)    DE(int)     intcor
      8.36     -11.87       1.99        0.00      73.57       3.46       0.23       3.28       ----

> <Gold.Chemscore.Fitness>
8.3613

> <Gold.Chemscore.DG>
-11.8731

> <Gold.Chemscore.ZeroCoef>
-5.4800

> <Gold.Chemscore.Hbond>
1.9883

> <Gold.Chemscore.Metal>
0.0000

> <Gold.Chemscore.Lipo>
73.5685

> <Gold.Chemscore.Internal_Hbond>
0.0000

> <Gold.Chemscore.DEClash>
0.2322

> <Gold.Chemscore.DEInternal>
3.2796

> <Gold.Chemscore.Rot>
3.4591

> <Gold.Chemscore.Internal.Correction>
   9.000000E+99

> <Gold.Chemscore.Hbonds>
donor molecule, donor type, donor heavy atom, donor atom, acceptor molecule, acceptor atom, score
      L1  H     1    29       P1  7921  1.00
      L1  H     1    30       P1 10171  1.00

> <Gold.Chemscore.Hbond.Weighted>
-6.6409

> <Gold.Chemscore.Metal.Weighted>
-0.0000

> <Gold.Chemscore.Lipo.Weighted>
-8.6075

> <Gold.Chemscore.Internal_Hbond.Weighted>
0.0000

> <Gold.Chemscore.DEClash.Weighted>
0.2322

> <Gold.Chemscore.DEInternal.Weighted>
3.2796

> <Gold.Chemscore.Rot.Weighted>
8.8553

> <Gold.Chemscore.Internal.Correction.Weighted>
   9.000000E+99

> <Gold.Protein.RotatedTorsions>
[ 6907 6896 6895 6894 ] final  120.40 input  -60.11 | X-H torsion
[ 7974 7965 7964 7962 ] final  151.75 input  175.53 | X-H torsion
[ 8008 7997 7996 7995 ] final  -83.36 input   59.86 | X-H torsion
[ 10167 10162 10161 10158 ] final   32.38 input  -65.29 | X-H torsion
[ 10718 10713 10712 10709 ] final  142.83 input   66.30 | X-H torsion
[ 10763 10752 10751 10750 ] final    3.25 input  -60.55 | X-H torsion
[ 11005 11000 10999 10996 ] final  -45.96 input  -57.11 | X-H torsion

> <Gold.Protein.ActiveResidues>
 VAL166  LYS551  ARG553  GLY616  TRP617  ASP618  TYR619  PRO620  LYS621  CYS622 
 ASP623  PHE694  ASN695  SER759  ASP760  ASP761  ALA762  ILE779  LEU786  VAL792 
 PHE793  MET794  SER795  GLU796  ALA797  LYS798  CYS799  TRP800  GLU811  SER814 

> <Gold.Protein.RotatedAtoms>
  152.4401  133.7432  159.6652 H   0  0  0  0  0  0  0  0  0  0  0  0  # atno 6907 bound_to 6896
  150.8290  133.8112  159.3112 H   0  0  0  0  0  0  0  0  0  0  0  0  # atno 6908 bound_to 6896
  151.5772  135.1062  160.0060 H   0  0  0  0  0  0  0  0  0  0  0  0  # atno 6909 bound_to 6896
  144.8270  139.6578  143.6075 H   0  0  0  0  0  0  0  0  0  0  0  0  # atno 7974 bound_to 7965
  154.6182  140.0620  156.9582 H   0  0  0  0  0  0  0  0  0  0  0  0  # atno 8008 bound_to 7997
  155.1860  140.3303  155.4348 H   0  0  0  0  0  0  0  0  0  0  0  0  # atno 8009 bound_to 7997
  156.2417  140.1889  156.6953 H   0  0  0  0  0  0  0  0  0  0  0  0  # atno 8010 bound_to 7997
  140.4504  144.1057  150.6190 H   0  0  0  0  0  0  0  0  0  0  0  0  # atno 10167 bound_to 10162
  157.3760  131.0985  151.0784 H   0  0  0  0  0  0  0  0  0  0  0  0  # atno 10718 bound_to 10713
  153.2856  135.6944  153.7343 H   0  0  0  0  0  0  0  0  0  0  0  0  # atno 10763 bound_to 10752
  153.6314  135.3409  155.3043 H   0  0  0  0  0  0  0  0  0  0  0  0  # atno 10764 bound_to 10752
  154.8508  135.4410  154.1922 H   0  0  0  0  0  0  0  0  0  0  0  0  # atno 10765 bound_to 10752
  141.0548  133.6729  156.3086 H   0  0  0  0  0  0  0  0  0  0  0  0  # atno 11005 bound_to 11000
  146.2575  139.6336  142.9385 LP  0  0  0  0  0  0  0  0  0  0  0  0  # atno 17320 bound_to 7965
  145.4978  141.0438  143.2557 LP  0  0  0  0  0  0  0  0  0  0  0  0  # atno 17321 bound_to 7965
  140.4214  143.2610  151.9710 LP  0  0  0  0  0  0  0  0  0  0  0  0  # atno 17342 bound_to 10162
  139.4796  144.5827  151.7905 LP  0  0  0  0  0  0  0  0  0  0  0  0  # atno 17343 bound_to 10162
  157.1870  130.6335  149.5691 LP  0  0  0  0  0  0  0  0  0  0  0  0  # atno 17370 bound_to 10713
  155.9765  130.4734  150.6534 LP  0  0  0  0  0  0  0  0  0  0  0  0  # atno 17371 bound_to 10713
  140.5984  134.5579  157.5513 LP  0  0  0  0  0  0  0  0  0  0  0  0  # atno 17394 bound_to 11000
  139.9381  134.7838  156.0749 LP  0  0  0  0  0  0  0  0  0  0  0  0  # atno 17395 bound_to 11000

$$$$
