AV-unprocessed.smi:1703|AV-procd|sdf|6855|dock1
  -GOLD-   22720 8 33D 1   1.00000     0.00000
 Structure written by MMmdl.
 48 50  0  0  0  0  0  0  0  0  1 V2000
  154.2738  135.6316  164.0761 C   0  0  0  0  0  0  0  0  0  0  0  0
  154.0995  137.1126  163.6979 C   0  0  2  0  0  0  0  0  0  0  0  0
  153.6669  137.3232  162.2333 C   0  0  0  0  0  0  0  0  0  0  0  0
  154.7449  137.0744  161.2818 N   0  0  0  0  0  0  0  0  0  0  0  0
  154.2839  137.2920  159.9098 C   0  0  0  0  0  0  0  0  0  0  0  0
  153.7104  138.6959  159.6160 C   0  0  1  0  0  0  0  0  0  0  0  0
  154.7073  139.4568  158.9666 O   0  0  0  0  0  0  0  0  0  0  0  0
  152.4710  138.6774  158.6976 C   0  0  0  0  0  0  0  0  0  0  0  0
  152.1073  139.9983  158.2019 N   0  0  0  0  0  0  0  0  0  0  0  0
  151.5692  140.3231  156.9991 C   0  0  0  0  0  0  0  0  0  0  0  0
  151.2435  139.2926  155.9617 C   0  0  0  0  0  0  0  0  0  0  0  0
  151.0005  139.8578  154.6914 O   0  0  0  0  0  0  0  0  0  0  0  0
  151.3365  141.6208  156.7986 N   0  0  0  0  0  0  0  0  0  0  0  0
  151.7518  142.1912  157.9857 C   0  0  0  0  0  0  0  0  0  0  0  0
  151.7615  143.5420  158.4010 C   0  0  0  0  0  0  0  0  0  0  0  0
  152.2401  143.8921  159.6806 C   0  0  0  0  0  0  0  0  0  0  0  0
  152.7140  142.8986  160.5618 C   0  0  0  0  0  0  0  0  0  0  0  0
  152.7131  141.5469  160.1678 C   0  0  0  0  0  0  0  0  0  0  0  0
  152.2356  141.2025  158.8887 C   0  0  0  0  0  0  0  0  0  0  0  0
  155.8857  137.9160  161.6332 C   0  0  0  0  0  0  0  0  0  0  0  0
  156.3608  137.6691  163.0769 C   0  0  1  0  0  0  0  0  0  0  0  0
  157.4979  138.6145  163.4785 C   0  0  0  0  0  0  0  0  0  0  0  0
  155.2748  137.8743  163.9786 O   0  0  0  0  0  0  0  0  0  0  0  0
  153.3346  135.0899  163.9626 H   0  0  0  0  0  0  0  0  0  0  0  0
  154.5895  135.5306  165.1145 H   0  0  0  0  0  0  0  0  0  0  0  0
  155.0143  135.1323  163.4515 H   0  0  0  0  0  0  0  0  0  0  0  0
  153.3148  137.5142  164.3397 H   0  0  0  0  0  0  0  0  0  0  0  0
  152.8154  136.6790  162.0105 H   0  0  0  0  0  0  0  0  0  0  0  0
  153.3125  138.3487  162.1166 H   0  0  0  0  0  0  0  0  0  0  0  0
  155.1109  137.1182  159.2196 H   0  0  0  0  0  0  0  0  0  0  0  0
  153.5381  136.5331  159.6729 H   0  0  0  0  0  0  0  0  0  0  0  0
  153.4481  139.2044  160.5416 H   0  0  0  0  0  0  0  0  0  0  0  0
  155.4658  139.4930  159.5297 H   0  0  0  0  0  0  0  0  0  0  0  0
  152.6392  138.0175  157.8459 H   0  0  0  0  0  0  0  0  0  0  0  0
  151.6146  138.2631  159.2313 H   0  0  0  0  0  0  0  0  0  0  0  0
  152.0750  138.5920  155.8773 H   0  0  0  0  0  0  0  0  0  0  0  0
  150.3761  138.7108  156.2709 H   0  0  0  0  0  0  0  0  0  0  0  0
  150.7049  139.1742  154.1101 H   0  0  0  0  0  0  0  0  0  0  0  0
  151.3995  144.3101  157.7337 H   0  0  0  0  0  0  0  0  0  0  0  0
  152.2431  144.9276  159.9880 H   0  0  0  0  0  0  0  0  0  0  0  0
  153.0786  143.1751  161.5404 H   0  0  0  0  0  0  0  0  0  0  0  0
  153.0780  140.7847  160.8401 H   0  0  0  0  0  0  0  0  0  0  0  0
  156.7211  137.7259  160.9611 H   0  0  0  0  0  0  0  0  0  0  0  0
  155.6199  138.9674  161.5108 H   0  0  0  0  0  0  0  0  0  0  0  0
  156.7196  136.6437  163.1709 H   0  0  0  0  0  0  0  0  0  0  0  0
  158.3635  138.4854  162.8283 H   0  0  0  0  0  0  0  0  0  0  0  0
  157.8201  138.4233  164.5024 H   0  0  0  0  0  0  0  0  0  0  0  0
  157.1848  139.6570  163.4167 H   0  0  0  0  0  0  0  0  0  0  0  0
  1  2  1  0  0  0  0
  1 24  1  0  0  0  0
  1 25  1  0  0  0  0
  1 26  1  0  0  0  0
  2 23  1  0  0  0  0
  2  3  1  0  0  0  0
  2 27  1  0  0  0  0
  3  4  1  0  0  0  0
  3 28  1  0  0  0  0
  3 29  1  0  0  0  0
  4  5  1  0  0  0  0
  4 20  1  0  0  0  0
  5  6  1  0  0  0  0
  5 30  1  0  0  0  0
  5 31  1  0  0  0  0
  6  7  1  0  0  0  0
  6  8  1  0  0  0  0
  6 32  1  0  0  0  0
  7 33  1  0  0  0  0
  8  9  1  0  0  0  0
  8 34  1  0  0  0  0
  8 35  1  0  0  0  0
  9 19  1  0  0  0  0
  9 10  1  0  0  0  0
 10 11  1  0  0  0  0
 10 13  2  0  0  0  0
 11 12  1  0  0  0  0
 11 36  1  0  0  0  0
 11 37  1  0  0  0  0
 12 38  1  0  0  0  0
 13 14  1  0  0  0  0
 14 19  2  0  0  0  0
 14 15  1  0  0  0  0
 15 16  2  0  0  0  0
 15 39  1  0  0  0  0
 16 17  1  0  0  0  0
 16 40  1  0  0  0  0
 17 18  2  0  0  0  0
 17 41  1  0  0  0  0
 18 19  1  0  0  0  0
 18 42  1  0  0  0  0
 20 21  1  0  0  0  0
 20 43  1  0  0  0  0
 20 44  1  0  0  0  0
 21 22  1  0  0  0  0
 21 23  1  0  0  0  0
 21 45  1  0  0  0  0
 22 46  1  0  0  0  0
 22 47  1  0  0  0  0
 22 48  1  0  0  0  0
M  END
> <s_m_source_file>
AV-unprocessed.smi

> <i_m_source_file_index>
1703

> <i_lp_mmshare_version>
43012

> <i_f3d_flags>
0

> <s_epik_input>
W0NIM11bQ0BASF0xW0NIMl1OKFtDSDJdW0NASF0oTzEpW0NIM10pW0NIMl1bQ0BIXShbT0hdKVtDSDJdbihjKG4yKVtDSDJdW09IXSljKGMyMylbY0hdW2NIXVtjSF1bY0hdMw==

> <s_epik_cmdline>
J2VwaWtfcHl0aG9uJywgJy1waCcsICc3LjAnLCAnLXRuJywgJzgnLCAnLW1hJywgJzIwMCcsICctbWV0YWxfYmluZGluZycsICctaW1hZScsICc8aW5maWxlLm1hZT4nLCAnLW9tYWUnLCAnPG91dGZpbGUubWFlPic=

> <r_epik_Ionization_Penalty>
0.307685

> <r_epik_Ionization_Penalty_Charging>
0

> <r_epik_Ionization_Penalty_Neutral>
0.307685

> <r_epik_State_Penalty>
0.277856

> <r_epik_Charging_Adjusted_Penalty>
0.277856

> <i_epik_Tot_Q>
0

> <i_epik_Tot_abs_Q>
0

> <r_epik_Metal_State_Penalty>
0.238959

> <b_epik_Metal_Only>
0

> <s_lp_Force_Field>
OPLS_2005

> <r_lp_Energy>
33.3157

> <b_lp_Chiralities_Consistent>
1

> <s_lp_Variant>
AV-unprocessed.smi:1703-3

> <Gold.Version>
5.8.1

> <Gold.Id.Protein>
6NUR|6NUR_protein|mol2

> <Gold.PLP.Fitness>
44.2755

> <Gold.PLP.PLP>
-40.5687

> <Gold.PLP.part.hbond>
-2.0000

> <Gold.PLP.part.metal>
0.0000

> <Gold.PLP.part.buried>
-5.3072

> <Gold.PLP.part.nonpolar>
-32.6152

> <Gold.PLP.part.repulsive>
0.0725

> <Gold.PLP.ligand.clash>
0.0000

> <Gold.PLP.ligand.torsion>
1.1764

> <Gold.PLP.Chemscore.Hbond>
2.0000

> <Gold.PLP.Chemscore.CHOScore>
0.0000

> <Gold.PLP.Chemscore.Metal>
0.0000

> <Gold.Chemscore.Hbonds>
donor molecule, donor type, donor heavy atom, donor atom, acceptor molecule, acceptor atom, score
      P1  H  7989  7998       L1    12  0.85
      P1  H  7997  8010       L1     7  1.00

> <Gold.PLP.Chemscore.Internal.Correction>
0.0595

> <Gold.Rescore>
     Score         DG    S(hbond)    S(metal)    S(lipo)     H(rot)  DE(clash)    DE(int)     intcor
     14.43     -15.46       1.20        0.00     114.08       2.88       0.02       1.02       ----

> <Gold.Chemscore.Fitness>
14.4310

> <Gold.Chemscore.DG>
-15.4646

> <Gold.Chemscore.ZeroCoef>
-5.4800

> <Gold.Chemscore.Hbond>
1.1988

> <Gold.Chemscore.Metal>
0.0000

> <Gold.Chemscore.Lipo>
114.0842

> <Gold.Chemscore.Internal_Hbond>
0.0000

> <Gold.Chemscore.DEClash>
0.0184

> <Gold.Chemscore.DEInternal>
1.0152

> <Gold.Chemscore.Rot>
2.8778

> <Gold.Chemscore.Internal.Correction>
   9.000000E+99

> <Gold.Chemscore.Hbonds>
donor molecule, donor type, donor heavy atom, donor atom, acceptor molecule, acceptor atom, score
      P1  H  7989  7998       L1    12  0.15
      P1  H  7997  8010       L1     7  0.33

> <Gold.Chemscore.Hbond.Weighted>
-4.0038

> <Gold.Chemscore.Metal.Weighted>
-0.0000

> <Gold.Chemscore.Lipo.Weighted>
-13.3479

> <Gold.Chemscore.Internal_Hbond.Weighted>
0.0000

> <Gold.Chemscore.DEClash.Weighted>
0.0184

> <Gold.Chemscore.DEInternal.Weighted>
1.0152

> <Gold.Chemscore.Rot.Weighted>
7.3671

> <Gold.Chemscore.Internal.Correction.Weighted>
   9.000000E+99

> <Gold.Protein.RotatedTorsions>
[ 6907 6896 6895 6894 ] final -163.62 input  -60.11 | X-H torsion
[ 7974 7965 7964 7962 ] final  178.87 input  175.53 | X-H torsion
[ 8008 7997 7996 7995 ] final  -17.69 input   59.86 | X-H torsion
[ 10167 10162 10161 10158 ] final  -45.43 input  -65.29 | X-H torsion
[ 10718 10713 10712 10709 ] final  -60.30 input   66.30 | X-H torsion
[ 10763 10752 10751 10750 ] final  -42.30 input  -60.55 | X-H torsion
[ 11005 11000 10999 10996 ] final   35.68 input  -57.11 | X-H torsion

> <Gold.Protein.ActiveResidues>
 VAL166  LYS551  ARG553  GLY616  TRP617  ASP618  TYR619  PRO620  LYS621  CYS622 
 ASP623  PHE694  ASN695  SER759  ASP760  ASP761  ALA762  ILE779  LEU786  VAL792 
 PHE793  MET794  SER795  GLU796  ALA797  LYS798  CYS799  TRP800  GLU811  SER814 

> <Gold.Protein.RotatedAtoms>
  151.3988  133.3764  159.2729 H   0  0  0  0  0  0  0  0  0  0  0  0  # atno 6907 bound_to 6896
  150.9449  134.8856  159.7646 H   0  0  0  0  0  0  0  0  0  0  0  0  # atno 6908 bound_to 6896
  152.5087  134.3941  159.9446 H   0  0  0  0  0  0  0  0  0  0  0  0  # atno 6909 bound_to 6896
  144.7151  140.0462  143.6436 H   0  0  0  0  0  0  0  0  0  0  0  0  # atno 7974 bound_to 7965
  154.4960  140.2136  155.9447 H   0  0  0  0  0  0  0  0  0  0  0  0  # atno 8008 bound_to 7997
  156.1370  140.3186  155.8404 H   0  0  0  0  0  0  0  0  0  0  0  0  # atno 8009 bound_to 7997
  155.4191  140.0495  157.3017 H   0  0  0  0  0  0  0  0  0  0  0  0  # atno 8010 bound_to 7997
  140.6858  143.2880  151.3637 H   0  0  0  0  0  0  0  0  0  0  0  0  # atno 10167 bound_to 10162
  156.1000  130.4187  150.0835 H   0  0  0  0  0  0  0  0  0  0  0  0  # atno 10718 bound_to 10713
  153.9768  135.6722  153.4748 H   0  0  0  0  0  0  0  0  0  0  0  0  # atno 10763 bound_to 10752
  153.0767  135.4945  154.8416 H   0  0  0  0  0  0  0  0  0  0  0  0  # atno 10764 bound_to 10752
  154.7188  135.3112  154.9042 H   0  0  0  0  0  0  0  0  0  0  0  0  # atno 10765 bound_to 10752
  140.2402  134.3424  155.7929 H   0  0  0  0  0  0  0  0  0  0  0  0  # atno 11005 bound_to 11000
  145.9982  139.3070  143.0943 LP  0  0  0  0  0  0  0  0  0  0  0  0  # atno 17320 bound_to 7965
  145.8824  140.9355  143.0594 LP  0  0  0  0  0  0  0  0  0  0  0  0  # atno 17321 bound_to 7965
  139.6216  144.0896  152.2396 LP  0  0  0  0  0  0  0  0  0  0  0  0  # atno 17342 bound_to 10162
  140.0342  144.6057  150.7463 LP  0  0  0  0  0  0  0  0  0  0  0  0  # atno 17343 bound_to 10162
  156.8824  130.9561  151.3598 LP  0  0  0  0  0  0  0  0  0  0  0  0  # atno 17370 bound_to 10713
  157.6169  130.8625  149.9043 LP  0  0  0  0  0  0  0  0  0  0  0  0  # atno 17371 bound_to 10713
  141.2211  133.7294  156.8872 LP  0  0  0  0  0  0  0  0  0  0  0  0  # atno 17394 bound_to 11000
  140.1661  134.9132  157.2776 LP  0  0  0  0  0  0  0  0  0  0  0  0  # atno 17395 bound_to 11000

$$$$
