AV-unprocessed.smi:3057|AV-procd|sdf|11665|dock9
  -GOLD-   2272017 73D 1   1.00000     0.00000
 Structure written by MMmdl.
 41 43  0  0  0  0  0  0  0  0  2 V2000
  146.1142  142.5077  157.6475 C   0  0  0  0  0  0  0  0  0  0  0  0
  145.2740  142.0559  156.4375 C   0  0  1  0  0  0  0  0  0  0  0  0
  144.0261  142.9391  156.2565 C   0  0  0  0  0  0  0  0  0  0  0  0
  144.4485  143.9957  155.2247 C   0  0  0  0  0  0  0  0  0  0  0  0
  145.5931  143.3057  154.5004 C   0  0  0  0  0  0  0  0  0  0  0  0
  146.0166  143.6676  153.4036 O   0  0  0  0  0  0  0  0  0  0  0  0
  146.0010  142.2363  155.1954 N   0  0  0  0  0  0  0  0  0  0  0  0
  146.8034  141.1168  154.6961 C   0  0  1  0  0  0  0  0  0  0  0  0
  148.3015  141.4622  154.7395 C   0  0  0  0  0  0  0  0  0  0  0  0
  148.8717  141.9327  153.7543 O   0  0  0  0  0  0  0  0  0  0  0  0
  148.9253  141.2267  155.9029 N   0  0  0  0  0  0  0  0  0  0  0  0
  150.3405  141.4680  156.1509 C   0  0  0  0  0  0  0  0  0  0  0  0
  150.6591  141.3110  157.6442 C   0  0  0  0  0  0  0  0  0  0  0  0
  151.2595  142.5695  158.2404 C   0  0  0  0  0  0  0  0  0  0  0  0
  152.2880  142.5287  159.2070 C   0  0  0  0  0  0  0  0  0  0  0  0
  152.7995  143.7394  159.7197 C   0  0  0  0  0  0  0  0  0  0  0  0
  152.2722  144.9630  159.2569 C   0  0  0  0  0  0  0  0  0  0  0  0
  151.2447  144.9451  158.2917 C   0  0  0  0  0  0  0  0  0  0  0  0
  150.7818  143.7650  157.8243 N   0  3  0  0  0  0  0  0  0  0  0  0
  146.5070  139.9152  155.6278 C   0  0  0  0  0  0  0  0  0  0  0  0
  144.9512  140.2851  156.4856 S   0  0  0  0  0  0  0  0  0  0  0  0
  146.4077  143.5543  157.5616 H   0  0  0  0  0  0  0  0  0  0  0  0
  147.0251  141.9184  157.7514 H   0  0  0  0  0  0  0  0  0  0  0  0
  145.5509  142.3983  158.5747 H   0  0  0  0  0  0  0  0  0  0  0  0
  143.1959  142.3544  155.8573 H   0  0  0  0  0  0  0  0  0  0  0  0
  143.6872  143.3868  157.1915 H   0  0  0  0  0  0  0  0  0  0  0  0
  143.6369  144.2621  154.5471 H   0  0  0  0  0  0  0  0  0  0  0  0
  144.8201  144.9001  155.7073 H   0  0  0  0  0  0  0  0  0  0  0  0
  146.4889  140.8821  153.6772 H   0  0  0  0  0  0  0  0  0  0  0  0
  148.3831  140.8438  156.6640 H   0  0  0  0  0  0  0  0  0  0  0  0
  150.9488  140.7712  155.5715 H   0  0  0  0  0  0  0  0  0  0  0  0
  150.5923  142.4737  155.8123 H   0  0  0  0  0  0  0  0  0  0  0  0
  149.7541  141.0505  158.1949 H   0  0  0  0  0  0  0  0  0  0  0  0
  151.3578  140.4862  157.7924 H   0  0  0  0  0  0  0  0  0  0  0  0
  152.6820  141.5838  159.5526 H   0  0  0  0  0  0  0  0  0  0  0  0
  153.5866  143.7296  160.4593 H   0  0  0  0  0  0  0  0  0  0  0  0
  152.6500  145.9009  159.6370 H   0  0  0  0  0  0  0  0  0  0  0  0
  150.7827  145.8318  157.8824 H   0  0  0  0  0  0  0  0  0  0  0  0
  146.4297  138.9778  155.0768 H   0  0  0  0  0  0  0  0  0  0  0  0
  147.2775  139.7862  156.3897 H   0  0  0  0  0  0  0  0  0  0  0  0
  150.0379  143.7758  157.1259 H   0  0  0  0  0  0  0  0  0  0  0  0
  1  2  1  0  0  0  0
  1 22  1  0  0  0  0
  1 23  1  0  0  0  0
  1 24  1  0  0  0  0
  2  7  1  0  0  0  0
  2 21  1  0  0  0  0
  2  3  1  0  0  0  0
  3  4  1  0  0  0  0
  3 25  1  0  0  0  0
  3 26  1  0  0  0  0
  4  5  1  0  0  0  0
  4 27  1  0  0  0  0
  4 28  1  0  0  0  0
  5  6  2  0  0  0  0
  5  7  1  0  0  0  0
  7  8  1  0  0  0  0
  8  9  1  0  0  0  0
  8 20  1  0  0  0  0
  8 29  1  0  0  0  0
  9 10  2  0  0  0  0
  9 11  1  0  0  0  0
 11 12  1  0  0  0  0
 11 30  1  0  0  0  0
 12 13  1  0  0  0  0
 12 31  1  0  0  0  0
 12 32  1  0  0  0  0
 13 14  1  0  0  0  0
 13 33  1  0  0  0  0
 13 34  1  0  0  0  0
 14 19  1  0  0  0  0
 14 15  2  0  0  0  0
 15 16  1  0  0  0  0
 15 35  1  0  0  0  0
 16 17  2  0  0  0  0
 16 36  1  0  0  0  0
 17 18  1  0  0  0  0
 17 37  1  0  0  0  0
 18 19  2  0  0  0  0
 18 38  1  0  0  0  0
 19 41  1  0  0  0  0
 20 21  1  0  0  0  0
 20 39  1  0  0  0  0
 20 40  1  0  0  0  0
M  CHG  1  19   1
M  END
> <s_m_source_file>
AV-unprocessed.smi

> <i_m_source_file_index>
3057

> <i_lp_mmshare_version>
43012

> <i_f3d_flags>
0

> <s_epik_input>
W0NIMl0xW0NIMl1DKD1PKU4oW0NAQF0xMltDSDNdKVtDQEhdKFtDSDJdUzIpQyg9TylbTkhdW0NIMl1bQ0gyXWMzW2NIXVtjSF1bY0hdW2NIXW4z

> <s_epik_cmdline>
J2VwaWtfcHl0aG9uJywgJy1waCcsICc3LjAnLCAnLXRuJywgJzgnLCAnLW1hJywgJzIwMCcsICctbWV0YWxfYmluZGluZycsICctaW1hZScsICc8aW5maWxlLm1hZT4nLCAnLW9tYWUnLCAnPG91dGZpbGUubWFlPic=

> <r_epik_Ionization_Penalty>
1.8888

> <r_epik_Ionization_Penalty_Charging>
1.8888

> <r_epik_Ionization_Penalty_Neutral>
1.66252e-07

> <r_epik_State_Penalty>
2.00916

> <r_epik_Charging_Adjusted_Penalty>
3.89796

> <i_epik_Tot_Q>
1

> <i_epik_Tot_abs_Q>
1

> <r_epik_Metal_State_Penalty>
2.03343

> <b_epik_Metal_Only>
0

> <s_lp_Force_Field>
OPLS_2005

> <r_lp_Energy>
32.3191

> <b_lp_Chiralities_Consistent>
1

> <s_lp_Variant>
AV-unprocessed.smi:3057-5

> <Gold.Version>
5.8.1

> <Gold.Id.Protein>
6NUR|6NUR_protein|mol2

> <Gold.PLP.Fitness>
42.8202

> <Gold.PLP.PLP>
-38.2352

> <Gold.PLP.part.hbond>
-2.6754

> <Gold.PLP.part.metal>
0.0000

> <Gold.PLP.part.buried>
-5.6049

> <Gold.PLP.part.nonpolar>
-30.9253

> <Gold.PLP.part.repulsive>
0.5098

> <Gold.PLP.ligand.clash>
0.0000

> <Gold.PLP.ligand.torsion>
1.4630

> <Gold.PLP.Chemscore.Hbond>
2.4960

> <Gold.PLP.Chemscore.CHOScore>
0.0000

> <Gold.PLP.Chemscore.Metal>
0.0000

> <Gold.Chemscore.Hbonds>
donor molecule, donor type, donor heavy atom, donor atom, acceptor molecule, acceptor atom, score
      L1  H    19    41       P1  8028  1.79
      P1  H  8011  8017       L1    10  0.50

> <Gold.PLP.Chemscore.Internal.Correction>
0.0230

> <Gold.Rescore>
     Score         DG    S(hbond)    S(metal)    S(lipo)     H(rot)  DE(clash)    DE(int)     intcor
     14.70     -16.29       1.47        0.00      86.03       1.62       0.15       1.43       ----

> <Gold.Chemscore.Fitness>
14.7047

> <Gold.Chemscore.DG>
-16.2922

> <Gold.Chemscore.ZeroCoef>
-5.4800

> <Gold.Chemscore.Hbond>
1.4679

> <Gold.Chemscore.Metal>
0.0000

> <Gold.Chemscore.Lipo>
86.0281

> <Gold.Chemscore.Internal_Hbond>
0.0000

> <Gold.Chemscore.DEClash>
0.1536

> <Gold.Chemscore.DEInternal>
1.4339

> <Gold.Chemscore.Rot>
1.6234

> <Gold.Chemscore.Internal.Correction>
   9.000000E+99

> <Gold.Chemscore.Hbonds>
donor molecule, donor type, donor heavy atom, donor atom, acceptor molecule, acceptor atom, score
      L1  H    19    41       P1  8028  0.78
      P1  H  8011  8017       L1    10  0.50

> <Gold.Chemscore.Hbond.Weighted>
-4.9027

> <Gold.Chemscore.Metal.Weighted>
-0.0000

> <Gold.Chemscore.Lipo.Weighted>
-10.0653

> <Gold.Chemscore.Internal_Hbond.Weighted>
0.0000

> <Gold.Chemscore.DEClash.Weighted>
0.1536

> <Gold.Chemscore.DEInternal.Weighted>
1.4339

> <Gold.Chemscore.Rot.Weighted>
4.1558

> <Gold.Chemscore.Internal.Correction.Weighted>
   9.000000E+99

> <Gold.Protein.RotatedTorsions>
[ 6907 6896 6895 6894 ] final  -29.70 input  -60.11 | X-H torsion
[ 7974 7965 7964 7962 ] final   90.25 input  175.53 | X-H torsion
[ 8008 7997 7996 7995 ] final  -78.74 input   59.86 | X-H torsion
[ 10167 10162 10161 10158 ] final  131.06 input  -65.29 | X-H torsion
[ 10718 10713 10712 10709 ] final -139.25 input   66.30 | X-H torsion
[ 10763 10752 10751 10750 ] final  -93.22 input  -60.55 | X-H torsion
[ 11005 11000 10999 10996 ] final -155.42 input  -57.11 | X-H torsion

> <Gold.Protein.ActiveResidues>
 VAL166  LYS551  ARG553  GLY616  TRP617  ASP618  TYR619  PRO620  LYS621  CYS622 
 ASP623  PHE694  ASN695  SER759  ASP760  ASP761  ALA762  ILE779  LEU786  VAL792 
 PHE793  MET794  SER795  GLU796  ALA797  LYS798  CYS799  TRP800  GLU811  SER814 

> <Gold.Protein.RotatedAtoms>
  151.1156  135.0051  159.8514 H   0  0  0  0  0  0  0  0  0  0  0  0  # atno 6907 bound_to 6896
  152.5445  134.1783  159.8635 H   0  0  0  0  0  0  0  0  0  0  0  0  # atno 6908 bound_to 6896
  151.1837  133.4664  159.2627 H   0  0  0  0  0  0  0  0  0  0  0  0  # atno 6909 bound_to 6896
  145.5216  139.2279  143.2669 H   0  0  0  0  0  0  0  0  0  0  0  0  # atno 7974 bound_to 7965
  154.5718  140.0689  156.8975 H   0  0  0  0  0  0  0  0  0  0  0  0  # atno 8008 bound_to 7997
  155.2621  140.3359  155.4254 H   0  0  0  0  0  0  0  0  0  0  0  0  # atno 8009 bound_to 7997
  156.2124  140.1764  156.7651 H   0  0  0  0  0  0  0  0  0  0  0  0  # atno 8010 bound_to 7997
  139.5401  144.6722  151.4653 H   0  0  0  0  0  0  0  0  0  0  0  0  # atno 10167 bound_to 10162
  156.3086  130.7469  151.1539 H   0  0  0  0  0  0  0  0  0  0  0  0  # atno 10718 bound_to 10713
  154.6937  135.5202  153.8429 H   0  0  0  0  0  0  0  0  0  0  0  0  # atno 10763 bound_to 10752
  153.0651  135.6582  154.0382 H   0  0  0  0  0  0  0  0  0  0  0  0  # atno 10764 bound_to 10752
  154.0252  135.2990  155.3355 H   0  0  0  0  0  0  0  0  0  0  0  0  # atno 10765 bound_to 10752
  140.6867  134.4086  157.5222 H   0  0  0  0  0  0  0  0  0  0  0  0  # atno 11005 bound_to 11000
  146.2102  140.6028  142.9063 LP  0  0  0  0  0  0  0  0  0  0  0  0  # atno 17320 bound_to 7965
  144.7673  140.5559  143.6694 LP  0  0  0  0  0  0  0  0  0  0  0  0  # atno 17321 bound_to 7965
  140.6627  143.8464  150.6906 LP  0  0  0  0  0  0  0  0  0  0  0  0  # atno 17342 bound_to 10162
  140.1863  143.4073  152.1896 LP  0  0  0  0  0  0  0  0  0  0  0  0  # atno 17343 bound_to 10162
  157.7386  131.0539  150.5287 LP  0  0  0  0  0  0  0  0  0  0  0  0  # atno 17370 bound_to 10713
  156.5423  130.4211  149.6147 LP  0  0  0  0  0  0  0  0  0  0  0  0  # atno 17371 bound_to 10713
  139.8935  134.8728  156.2218 LP  0  0  0  0  0  0  0  0  0  0  0  0  # atno 17394 bound_to 11000
  141.0274  133.7007  156.1372 LP  0  0  0  0  0  0  0  0  0  0  0  0  # atno 17395 bound_to 11000

$$$$
