AV-unprocessed.smi:21|AV-procd|sdf|156|dock9
  -GOLD-   2262015383D 1   1.00000     0.00000
 Structure written by MMmdl.
 61 64  0  0  0  0  0  0  0  0  1 V2000
  154.8072  139.9475  160.3711 C   0  0  0  0  0  0  0  0  0  0  0  0
  154.5450  141.2710  159.9330 O   0  0  0  0  0  0  0  0  0  0  0  0
  153.1583  141.5737  159.8638 C   0  0  2  0  0  0  0  0  0  0  0  0
  152.4864  140.8725  158.6715 C   0  0  0  0  0  0  0  0  0  0  0  0
  151.7532  141.9986  157.9282 C   0  0  2  0  0  0  0  0  0  0  0  0
  151.5011  141.6975  156.4325 C   0  0  0  0  0  0  0  0  0  0  0  0
  150.4451  140.7097  156.2043 N   0  0  0  0  0  0  0  0  0  0  0  0
  149.2550  140.7935  157.0464 C   0  0  0  0  0  0  0  0  0  0  0  0
  150.7949  139.4917  155.7069 C   0  0  0  0  0  0  0  0  0  0  0  0
  150.9222  139.3420  154.3601 N   0  0  0  0  0  0  0  0  0  0  0  0
  151.2174  138.1516  153.8314 C   0  0  0  0  0  0  0  0  0  0  0  0
  151.4260  136.9918  154.4546 N   0  0  0  0  0  0  0  0  0  0  0  0
  151.3208  137.1344  155.8062 C   0  0  0  0  0  0  0  0  0  0  0  0
  151.0216  138.3355  156.5113 C   0  0  0  0  0  0  0  0  0  0  0  0
  151.0279  138.0839  157.8797 N   0  0  0  0  0  0  0  0  0  0  0  0
  151.2890  136.8095  157.9755 C   0  0  0  0  0  0  0  0  0  0  0  0
  151.4661  136.1596  156.7763 N   0  0  0  0  0  0  0  0  0  0  0  0
  151.7513  134.7503  156.5799 C   0  0  0  0  0  0  0  0  0  0  0  0
  150.5577  133.9474  155.9963 C   0  0  2  0  0  0  0  0  0  0  0  0
  149.1952  134.4184  156.5673 C   0  0  0  0  0  0  0  0  0  0  0  0
  149.1885  134.4336  157.9799 O   0  0  0  0  0  0  0  0  0  0  0  0
  150.7632  132.4273  156.2260 C   0  0  2  0  0  0  0  0  0  0  0  0
  152.1602  131.9158  155.9136 C   0  0  0  0  0  0  0  0  0  0  0  0
  151.9297  130.4176  155.7666 C   0  0  0  0  0  0  0  0  0  0  0  0
  150.6434  130.2955  155.1748 O   0  0  0  0  0  0  0  0  0  0  0  0
  149.9256  131.5182  155.3152 C   0  0  0  0  0  0  0  0  0  0  0  0
  152.5800  143.1705  158.1690 N   0  0  0  0  0  0  0  0  0  0  0  0
  151.9172  144.4345  157.8755 C   0  0  0  0  0  0  0  0  0  0  0  0
  152.9613  143.0650  159.5658 C   0  0  0  0  0  0  0  0  0  0  0  0
  152.6634  141.3284  160.8055 H   0  0  0  0  0  0  0  0  0  0  0  0
  150.7919  142.1520  158.4221 H   0  0  0  0  0  0  0  0  0  0  0  0
  155.8821  139.7680  160.3673 H   0  0  0  0  0  0  0  0  0  0  0  0
  154.3413  139.2067  159.7205 H   0  0  0  0  0  0  0  0  0  0  0  0
  154.4445  139.7924  161.3881 H   0  0  0  0  0  0  0  0  0  0  0  0
  153.2434  140.4289  158.0226 H   0  0  0  0  0  0  0  0  0  0  0  0
  151.8131  140.0764  158.9902 H   0  0  0  0  0  0  0  0  0  0  0  0
  151.1892  142.6100  155.9257 H   0  0  0  0  0  0  0  0  0  0  0  0
  152.4342  141.4155  155.9512 H   0  0  0  0  0  0  0  0  0  0  0  0
  148.4023  140.3172  156.5607 H   0  0  0  0  0  0  0  0  0  0  0  0
  148.9901  141.8341  157.2348 H   0  0  0  0  0  0  0  0  0  0  0  0
  149.4237  140.3080  158.0084 H   0  0  0  0  0  0  0  0  0  0  0  0
  151.2913  138.1239  152.7543 H   0  0  0  0  0  0  0  0  0  0  0  0
  151.3483  136.3041  158.9283 H   0  0  0  0  0  0  0  0  0  0  0  0
  152.6174  134.6912  155.9211 H   0  0  0  0  0  0  0  0  0  0  0  0
  152.0608  134.3227  157.5344 H   0  0  0  0  0  0  0  0  0  0  0  0
  150.5390  134.1057  154.9167 H   0  0  0  0  0  0  0  0  0  0  0  0
  148.9634  135.4349  156.2531 H   0  0  0  0  0  0  0  0  0  0  0  0
  148.3840  133.7866  156.2047 H   0  0  0  0  0  0  0  0  0  0  0  0
  148.3963  134.0165  158.2829 H   0  0  0  0  0  0  0  0  0  0  0  0
  150.5340  132.1834  157.2649 H   0  0  0  0  0  0  0  0  0  0  0  0
  152.5189  132.3337  154.9716 H   0  0  0  0  0  0  0  0  0  0  0  0
  152.8905  132.1441  156.6902 H   0  0  0  0  0  0  0  0  0  0  0  0
  152.6965  129.9314  155.1633 H   0  0  0  0  0  0  0  0  0  0  0  0
  151.9112  129.9381  156.7460 H   0  0  0  0  0  0  0  0  0  0  0  0
  148.9293  131.3327  155.7176 H   0  0  0  0  0  0  0  0  0  0  0  0
  149.8113  131.9585  154.3237 H   0  0  0  0  0  0  0  0  0  0  0  0
  152.5643  145.2737  158.1321 H   0  0  0  0  0  0  0  0  0  0  0  0
  150.9900  144.5364  158.4410 H   0  0  0  0  0  0  0  0  0  0  0  0
  151.6804  144.5172  156.8151 H   0  0  0  0  0  0  0  0  0  0  0  0
  152.1560  143.4432  160.1980 H   0  0  0  0  0  0  0  0  0  0  0  0
  153.8504  143.6582  159.7824 H   0  0  0  0  0  0  0  0  0  0  0  0
  1  2  1  0  0  0  0
  1 32  1  0  0  0  0
  1 33  1  0  0  0  0
  1 34  1  0  0  0  0
  2  3  1  0  0  0  0
  3 30  1  0  0  0  0
  3 29  1  0  0  0  0
  3  4  1  0  0  0  0
  4  5  1  0  0  0  0
  4 35  1  0  0  0  0
  4 36  1  0  0  0  0
  5 31  1  0  0  0  0
  5  6  1  0  0  0  0
  5 27  1  0  0  0  0
  6  7  1  0  0  0  0
  6 37  1  0  0  0  0
  6 38  1  0  0  0  0
  7  8  1  0  0  0  0
  7  9  1  0  0  0  0
  8 39  1  0  0  0  0
  8 40  1  0  0  0  0
  8 41  1  0  0  0  0
  9 14  1  0  0  0  0
  9 10  2  0  0  0  0
 10 11  1  0  0  0  0
 11 12  2  0  0  0  0
 11 42  1  0  0  0  0
 12 13  1  0  0  0  0
 13 17  1  0  0  0  0
 13 14  2  0  0  0  0
 14 15  1  0  0  0  0
 15 16  2  0  0  0  0
 16 17  1  0  0  0  0
 16 43  1  0  0  0  0
 17 18  1  0  0  0  0
 18 19  1  0  0  0  0
 18 44  1  0  0  0  0
 18 45  1  0  0  0  0
 19 20  1  0  0  0  0
 19 22  1  0  0  0  0
 19 46  1  0  0  0  0
 20 21  1  0  0  0  0
 20 47  1  0  0  0  0
 20 48  1  0  0  0  0
 21 49  1  0  0  0  0
 22 26  1  0  0  0  0
 22 23  1  0  0  0  0
 22 50  1  0  0  0  0
 23 24  1  0  0  0  0
 23 51  1  0  0  0  0
 23 52  1  0  0  0  0
 24 25  1  0  0  0  0
 24 53  1  0  0  0  0
 24 54  1  0  0  0  0
 25 26  1  0  0  0  0
 26 55  1  0  0  0  0
 26 56  1  0  0  0  0
 27 28  1  0  0  0  0
 27 29  1  0  0  0  0
 28 57  1  0  0  0  0
 28 58  1  0  0  0  0
 28 59  1  0  0  0  0
 29 60  1  0  0  0  0
 29 61  1  0  0  0  0
M  END
> <s_m_source_file>
AV-unprocessed.smi

> <i_m_source_file_index>
21

> <i_lp_mmshare_version>
43012

> <i_f3d_flags>
0

> <s_epik_input>
W0NIM11PW0NASF0xW0NIMl1bQ0BIXShOKFtDSDNdKVtDSDJdMSlbQ0gyXU4oW0NIM10pYyhuW2NIXW4yKWMoYzIzKW5bY0hdbjNbQ0gyXVtDQEhdKFtDSDJdW09IXSlbQ0BASF00W0NIMl1bQ0gyXU9bQ0gyXTQ=

> <s_epik_cmdline>
J2VwaWtfcHl0aG9uJywgJy1waCcsICc3LjAnLCAnLXRuJywgJzgnLCAnLW1hJywgJzIwMCcsICctbWV0YWxfYmluZGluZycsICctaW1hZScsICc8aW5maWxlLm1hZT4nLCAnLW9tYWUnLCAnPG91dGZpbGUubWFlPic=

> <r_lp_tautomer_probability>
1

> <r_epik_Ionization_Penalty>
2.17574

> <r_epik_Ionization_Penalty_Charging>
0

> <r_epik_Ionization_Penalty_Neutral>
2.17574

> <r_epik_State_Penalty>
2.31336

> <r_epik_Charging_Adjusted_Penalty>
2.31336

> <i_epik_Tot_Q>
0

> <i_epik_Tot_abs_Q>
0

> <r_epik_Metal_State_Penalty>
2.31025

> <b_epik_Metal_Only>
0

> <s_lp_Force_Field>
OPLS_2005

> <r_lp_Energy>
68.7045

> <b_lp_Chiralities_Consistent>
1

> <s_lp_Variant>
AV-unprocessed.smi:21-36

> <Gold.Version>
5.8.1

> <Gold.Id.Protein>
6NUR|6NUR_protein|mol2

> <Gold.PLP.Fitness>
48.8412

> <Gold.PLP.PLP>
-40.9981

> <Gold.PLP.part.hbond>
-3.0000

> <Gold.PLP.part.metal>
0.0000

> <Gold.PLP.part.buried>
-6.1687

> <Gold.PLP.part.nonpolar>
-31.9350

> <Gold.PLP.part.repulsive>
0.3261

> <Gold.PLP.ligand.clash>
0.0000

> <Gold.PLP.ligand.torsion>
2.1484

> <Gold.PLP.Chemscore.Hbond>
3.0000

> <Gold.PLP.Chemscore.CHOScore>
0.8101

> <Gold.PLP.Chemscore.Metal>
0.0000

> <Gold.Chemscore.Hbonds>
donor molecule, donor type, donor heavy atom, donor atom, acceptor molecule, acceptor atom, score
      P1  H  6896  6907       L1    21  0.98
      P1  H  7989  7998       L1    10  1.00
      P1  H 10752 10763       L1    12  1.00
      L1  C    11    42       P1  7949  0.85

> <Gold.PLP.Chemscore.Internal.Correction>
0.7096

> <Gold.Rescore>
     Score         DG    S(hbond)    S(metal)    S(lipo)     H(rot)  DE(clash)    DE(int)     intcor
     16.16     -18.83       2.61        0.00     105.22       3.00       0.84       1.83       ----

> <Gold.Chemscore.Fitness>
16.1636

> <Gold.Chemscore.DG>
-18.8321

> <Gold.Chemscore.ZeroCoef>
-5.4800

> <Gold.Chemscore.Hbond>
2.6137

> <Gold.Chemscore.Metal>
0.0000

> <Gold.Chemscore.Lipo>
105.2161

> <Gold.Chemscore.Internal_Hbond>
0.0000

> <Gold.Chemscore.DEClash>
0.8376

> <Gold.Chemscore.DEInternal>
1.8308

> <Gold.Chemscore.Rot>
3.0031

> <Gold.Chemscore.Internal.Correction>
   9.000000E+99

> <Gold.Chemscore.Hbonds>
donor molecule, donor type, donor heavy atom, donor atom, acceptor molecule, acceptor atom, score
      P1  H  6896  6907       L1    21  0.60
      P1  H  7989  7998       L1    10  0.82
      P1  H 10752 10763       L1    12  0.28

> <Gold.Chemscore.Hbond.Weighted>
-8.7298

> <Gold.Chemscore.Metal.Weighted>
-0.0000

> <Gold.Chemscore.Lipo.Weighted>
-12.3103

> <Gold.Chemscore.Internal_Hbond.Weighted>
0.0000

> <Gold.Chemscore.DEClash.Weighted>
0.8376

> <Gold.Chemscore.DEInternal.Weighted>
1.8308

> <Gold.Chemscore.Rot.Weighted>
7.6880

> <Gold.Chemscore.Internal.Correction.Weighted>
   9.000000E+99

> <Gold.Protein.RotatedTorsions>
[ 6907 6896 6895 6894 ] final -103.44 input  -60.11 | X-H torsion
[ 7974 7965 7964 7962 ] final    3.17 input  175.53 | X-H torsion
[ 8008 7997 7996 7995 ] final  175.87 input   59.86 | X-H torsion
[ 10167 10162 10161 10158 ] final -103.75 input  -65.29 | X-H torsion
[ 10718 10713 10712 10709 ] final  -99.84 input   66.30 | X-H torsion
[ 10763 10752 10751 10750 ] final   44.54 input  -60.55 | X-H torsion
[ 11005 11000 10999 10996 ] final  -57.29 input  -57.11 | X-H torsion

> <Gold.Protein.ActiveResidues>
 VAL166  LYS551  ARG553  GLY616  TRP617  ASP618  TYR619  PRO620  LYS621  CYS622 
 ASP623  PHE694  ASN695  SER759  ASP760  ASP761  ALA762  ILE779  LEU786  VAL792 
 PHE793  MET794  SER795  GLU796  ALA797  LYS798  CYS799  TRP800  GLU811  SER814 

> <Gold.Protein.RotatedAtoms>
  150.7240  134.0429  159.3771 H   0  0  0  0  0  0  0  0  0  0  0  0  # atno 6907 bound_to 6896
  151.8403  135.0590  160.0456 H   0  0  0  0  0  0  0  0  0  0  0  0  # atno 6908 bound_to 6896
  152.2867  133.5486  159.5568 H   0  0  0  0  0  0  0  0  0  0  0  0  # atno 6909 bound_to 6896
  146.2445  140.0726  142.8361 H   0  0  0  0  0  0  0  0  0  0  0  0  # atno 7974 bound_to 7965
  156.0825  140.1398  156.9694 H   0  0  0  0  0  0  0  0  0  0  0  0  # atno 8008 bound_to 7997
  154.4593  140.0949  156.6897 H   0  0  0  0  0  0  0  0  0  0  0  0  # atno 8009 bound_to 7997
  155.5052  140.3452  155.4380 H   0  0  0  0  0  0  0  0  0  0  0  0  # atno 8010 bound_to 7997
  140.2166  143.3707  152.1005 H   0  0  0  0  0  0  0  0  0  0  0  0  # atno 10167 bound_to 10162
  156.0145  130.5301  150.6730 H   0  0  0  0  0  0  0  0  0  0  0  0  # atno 10718 bound_to 10713
  152.9839  135.6067  154.3291 H   0  0  0  0  0  0  0  0  0  0  0  0  # atno 10763 bound_to 10752
  154.2995  135.2773  155.2619 H   0  0  0  0  0  0  0  0  0  0  0  0  # atno 10764 bound_to 10752
  154.4878  135.5900  153.6493 H   0  0  0  0  0  0  0  0  0  0  0  0  # atno 10765 bound_to 10752
  141.1158  133.6610  156.4748 H   0  0  0  0  0  0  0  0  0  0  0  0  # atno 11005 bound_to 11000
  145.0803  140.9216  143.4829 LP  0  0  0  0  0  0  0  0  0  0  0  0  # atno 17320 bound_to 7965
  145.0877  139.2913  143.5751 LP  0  0  0  0  0  0  0  0  0  0  0  0  # atno 17321 bound_to 7965
  139.5160  144.6970  151.5601 LP  0  0  0  0  0  0  0  0  0  0  0  0  # atno 17342 bound_to 10162
  140.6285  143.9122  150.6585 LP  0  0  0  0  0  0  0  0  0  0  0  0  # atno 17343 bound_to 10162
  157.4448  131.0865  151.0906 LP  0  0  0  0  0  0  0  0  0  0  0  0  # atno 17370 bound_to 10713
  157.1440  130.6155  149.5563 LP  0  0  0  0  0  0  0  0  0  0  0  0  # atno 17371 bound_to 10713
  140.4649  134.6807  157.5102 LP  0  0  0  0  0  0  0  0  0  0  0  0  # atno 17394 bound_to 11000
  140.0080  134.6734  155.9425 LP  0  0  0  0  0  0  0  0  0  0  0  0  # atno 17395 bound_to 11000

$$$$
