AV-unprocessed.smi:2000|AV-procd|sdf|8101|dock3
  -GOLD-   2272010323D 1   1.00000     0.00000
 Structure written by MMmdl.
 43 44  0  0  0  0  0  0  0  0  1 V2000
  156.9681  139.8961  160.2591 C   0  0  0  0  0  0  0  0  0  0  0  0
  155.6094  139.3926  160.7726 C   0  0  1  0  0  0  0  0  0  0  0  0
  154.5161  139.5218  159.7030 C   0  0  0  0  0  0  0  0  0  0  0  0
  154.6644  139.0104  158.5926 O   0  0  0  0  0  0  0  0  0  0  0  0
  153.4229  140.2219  160.0458 N   0  0  0  0  0  0  0  0  0  0  0  0
  152.2840  140.4748  159.1676 C   0  0  0  0  0  0  0  0  0  0  0  0
  152.0932  141.9361  158.7511 C   0  0  0  0  0  0  0  0  0  0  0  0
  152.5405  142.9971  159.5740 C   0  0  0  0  0  0  0  0  0  0  0  0
  152.3256  144.3263  159.1683 C   0  0  0  0  0  0  0  0  0  0  0  0
  151.6612  144.5522  157.9505 C   0  0  0  0  0  0  0  0  0  0  0  0
  151.2197  143.5559  157.1570 N   0  0  0  0  0  0  0  0  0  0  0  0
  151.4248  142.2726  157.5433 C   0  0  0  0  0  0  0  0  0  0  0  0
  150.9653  141.2616  156.6812 N   0  0  0  0  0  0  0  0  0  0  0  0
  152.0430  140.4206  156.1759 C   0  0  0  0  0  0  0  0  0  0  0  0
  151.4594  139.2262  155.4009 C   0  0  0  0  0  0  0  0  0  0  0  0
  150.5988  139.6963  154.3664 O   0  0  0  0  0  0  0  0  0  0  0  0
  149.5081  140.4556  154.8805 C   0  0  0  0  0  0  0  0  0  0  0  0
  150.0482  141.6860  155.6289 C   0  0  0  0  0  0  0  0  0  0  0  0
  155.7575  137.6290  161.3262 S   0  0  0  0  0  0  0  0  0  0  0  0
  154.0755  137.2539  161.9772 C   0  0  0  0  0  0  0  0  0  0  0  0
  155.9914  136.7759  160.1508 O   0  0  0  0  0  0  0  0  0  0  0  0
  156.7054  137.5824  162.4498 O   0  0  0  0  0  0  0  0  0  0  0  0
  156.8981  140.9189  159.8870 H   0  0  0  0  0  0  0  0  0  0  0  0
  157.3474  139.2700  159.4503 H   0  0  0  0  0  0  0  0  0  0  0  0
  157.7117  139.8874  161.0562 H   0  0  0  0  0  0  0  0  0  0  0  0
  155.3294  139.9812  161.6471 H   0  0  0  0  0  0  0  0  0  0  0  0
  153.3777  140.6143  160.9751 H   0  0  0  0  0  0  0  0  0  0  0  0
  152.3707  139.8356  158.2881 H   0  0  0  0  0  0  0  0  0  0  0  0
  151.3822  140.1527  159.6884 H   0  0  0  0  0  0  0  0  0  0  0  0
  153.0412  142.8100  160.5121 H   0  0  0  0  0  0  0  0  0  0  0  0
  152.6602  145.1526  159.7777 H   0  0  0  0  0  0  0  0  0  0  0  0
  151.4769  145.5588  157.6053 H   0  0  0  0  0  0  0  0  0  0  0  0
  152.6853  141.0120  155.5216 H   0  0  0  0  0  0  0  0  0  0  0  0
  152.6651  140.0650  156.9982 H   0  0  0  0  0  0  0  0  0  0  0  0
  152.2621  138.6386  154.9551 H   0  0  0  0  0  0  0  0  0  0  0  0
  150.9111  138.5611  156.0699 H   0  0  0  0  0  0  0  0  0  0  0  0
  148.8708  140.7682  154.0533 H   0  0  0  0  0  0  0  0  0  0  0  0
  148.8966  139.8360  155.5386 H   0  0  0  0  0  0  0  0  0  0  0  0
  149.2256  142.2555  156.0629 H   0  0  0  0  0  0  0  0  0  0  0  0
  150.5638  142.3422  154.9260 H   0  0  0  0  0  0  0  0  0  0  0  0
  154.0743  136.2544  162.4116 H   0  0  0  0  0  0  0  0  0  0  0  0
  153.3467  137.2896  161.1679 H   0  0  0  0  0  0  0  0  0  0  0  0
  153.8086  137.9804  162.7443 H   0  0  0  0  0  0  0  0  0  0  0  0
  1  2  1  0  0  0  0
  1 23  1  0  0  0  0
  1 24  1  0  0  0  0
  1 25  1  0  0  0  0
  2  3  1  0  0  0  0
  2 19  1  0  0  0  0
  2 26  1  0  0  0  0
  3  4  2  0  0  0  0
  3  5  1  0  0  0  0
  5  6  1  0  0  0  0
  5 27  1  0  0  0  0
  6  7  1  0  0  0  0
  6 28  1  0  0  0  0
  6 29  1  0  0  0  0
  7 12  1  0  0  0  0
  7  8  2  0  0  0  0
  8  9  1  0  0  0  0
  8 30  1  0  0  0  0
  9 10  2  0  0  0  0
  9 31  1  0  0  0  0
 10 11  1  0  0  0  0
 10 32  1  0  0  0  0
 11 12  2  0  0  0  0
 12 13  1  0  0  0  0
 13 18  1  0  0  0  0
 13 14  1  0  0  0  0
 14 15  1  0  0  0  0
 14 33  1  0  0  0  0
 14 34  1  0  0  0  0
 15 16  1  0  0  0  0
 15 35  1  0  0  0  0
 15 36  1  0  0  0  0
 16 17  1  0  0  0  0
 17 18  1  0  0  0  0
 17 37  1  0  0  0  0
 17 38  1  0  0  0  0
 18 39  1  0  0  0  0
 18 40  1  0  0  0  0
 19 20  1  0  0  0  0
 19 21  2  0  0  0  0
 19 22  2  0  0  0  0
 20 41  1  0  0  0  0
 20 42  1  0  0  0  0
 20 43  1  0  0  0  0
M  END
> <s_m_source_file>
AV-unprocessed.smi

> <i_m_source_file_index>
2000

> <i_lp_mmshare_version>
43012

> <i_f3d_flags>
0

> <s_epik_input>
W0NIM11TKD1PKSg9TylbQ0BIXShbQ0gzXSlDKD1PKVtOSF1bQ0gyXWMxW2NIXVtjSF1bY0hdbmMxTjJbQ0gyXVtDSDJdT1tDSDJdW0NIMl0y

> <s_epik_cmdline>
J2VwaWtfcHl0aG9uJywgJy1waCcsICc3LjAnLCAnLXRuJywgJzgnLCAnLW1hJywgJzIwMCcsICctbWV0YWxfYmluZGluZycsICctaW1hZScsICc8aW5maWxlLm1hZT4nLCAnLW9tYWUnLCAnPG91dGZpbGUubWFlPic=

> <r_lp_tautomer_probability>
1

> <r_epik_Ionization_Penalty>
0.00349769

> <r_epik_Ionization_Penalty_Charging>
0

> <r_epik_Ionization_Penalty_Neutral>
0.00349769

> <r_epik_State_Penalty>
0.00248024

> <r_epik_Charging_Adjusted_Penalty>
0.00248024

> <i_epik_Tot_Q>
0

> <i_epik_Tot_abs_Q>
0

> <r_epik_Metal_State_Penalty>
-0

> <b_epik_Metal_Only>
0

> <s_lp_Force_Field>
OPLS_2005

> <r_lp_Energy>
18.4728

> <b_lp_Chiralities_Consistent>
1

> <s_lp_Variant>
AV-unprocessed.smi:2000-2

> <Gold.Version>
5.8.1

> <Gold.Id.Protein>
6NUR|6NUR_protein|mol2

> <Gold.PLP.Fitness>
43.3116

> <Gold.PLP.PLP>
-38.3527

> <Gold.PLP.part.hbond>
-2.0000

> <Gold.PLP.part.metal>
0.0000

> <Gold.PLP.part.buried>
-5.3077

> <Gold.PLP.part.nonpolar>
-31.1153

> <Gold.PLP.part.repulsive>
0.9104

> <Gold.PLP.ligand.clash>
0.0000

> <Gold.PLP.ligand.torsion>
0.6920

> <Gold.PLP.Chemscore.Hbond>
2.0000

> <Gold.PLP.Chemscore.CHOScore>
0.0000

> <Gold.PLP.Chemscore.Metal>
0.0000

> <Gold.Chemscore.Hbonds>
donor molecule, donor type, donor heavy atom, donor atom, acceptor molecule, acceptor atom, score
      P1  H  7989  7998       L1    16  1.00
      P1  H  7997  8008       L1     4  1.00

> <Gold.PLP.Chemscore.Internal.Correction>
0.3428

> <Gold.Rescore>
     Score         DG    S(hbond)    S(metal)    S(lipo)     H(rot)  DE(clash)    DE(int)     intcor
     14.98     -17.28       1.57        0.00     101.53       2.08       0.41       1.89       ----

> <Gold.Chemscore.Fitness>
14.9843

> <Gold.Chemscore.DG>
-17.2778

> <Gold.Chemscore.ZeroCoef>
-5.4800

> <Gold.Chemscore.Hbond>
1.5673

> <Gold.Chemscore.Metal>
0.0000

> <Gold.Chemscore.Lipo>
101.5259

> <Gold.Chemscore.Internal_Hbond>
0.0000

> <Gold.Chemscore.DEClash>
0.4054

> <Gold.Chemscore.DEInternal>
1.8882

> <Gold.Chemscore.Rot>
2.0764

> <Gold.Chemscore.Internal.Correction>
   9.000000E+99

> <Gold.Chemscore.Hbonds>
donor molecule, donor type, donor heavy atom, donor atom, acceptor molecule, acceptor atom, score
      P1  H  7989  7998       L1    16  0.22
      P1  H  7997  8008       L1     4  0.94

> <Gold.Chemscore.Hbond.Weighted>
-5.2348

> <Gold.Chemscore.Metal.Weighted>
-0.0000

> <Gold.Chemscore.Lipo.Weighted>
-11.8785

> <Gold.Chemscore.Internal_Hbond.Weighted>
0.0000

> <Gold.Chemscore.DEClash.Weighted>
0.4054

> <Gold.Chemscore.DEInternal.Weighted>
1.8882

> <Gold.Chemscore.Rot.Weighted>
5.3155

> <Gold.Chemscore.Internal.Correction.Weighted>
   9.000000E+99

> <Gold.Protein.RotatedTorsions>
[ 6907 6896 6895 6894 ] final -124.35 input  -60.11 | X-H torsion
[ 7974 7965 7964 7962 ] final   43.88 input  175.53 | X-H torsion
[ 8008 7997 7996 7995 ] final -130.92 input   59.86 | X-H torsion
[ 10167 10162 10161 10158 ] final -139.72 input  -65.29 | X-H torsion
[ 10718 10713 10712 10709 ] final   16.35 input   66.30 | X-H torsion
[ 10763 10752 10751 10750 ] final  -68.17 input  -60.55 | X-H torsion
[ 11005 11000 10999 10996 ] final   -2.42 input  -57.11 | X-H torsion

> <Gold.Protein.ActiveResidues>
 VAL166  LYS551  ARG553  GLY616  TRP617  ASP618  TYR619  PRO620  LYS621  CYS622 
 ASP623  PHE694  ASN695  SER759  ASP760  ASP761  ALA762  ILE779  LEU786  VAL792 
 PHE793  MET794  SER795  GLU796  ALA797  LYS798  CYS799  TRP800  GLU811  SER814 

> <Gold.Protein.RotatedAtoms>
  150.8759  133.7439  159.2946 H   0  0  0  0  0  0  0  0  0  0  0  0  # atno 6907 bound_to 6896
  151.5036  135.1061  159.9845 H   0  0  0  0  0  0  0  0  0  0  0  0  # atno 6908 bound_to 6896
  152.4727  133.8021  159.7014 H   0  0  0  0  0  0  0  0  0  0  0  0  # atno 6909 bound_to 6896
  146.0617  139.5137  142.9654 H   0  0  0  0  0  0  0  0  0  0  0  0  # atno 7974 bound_to 7965
  155.3037  140.0454  157.3031 H   0  0  0  0  0  0  0  0  0  0  0  0  # atno 8008 bound_to 7997
  154.5472  140.2306  155.8511 H   0  0  0  0  0  0  0  0  0  0  0  0  # atno 8009 bound_to 7997
  156.1935  140.3044  155.9386 H   0  0  0  0  0  0  0  0  0  0  0  0  # atno 8010 bound_to 7997
  139.8352  143.7394  152.2665 H   0  0  0  0  0  0  0  0  0  0  0  0  # atno 10167 bound_to 10162
  157.0666  130.6331  149.5797 H   0  0  0  0  0  0  0  0  0  0  0  0  # atno 10718 bound_to 10713
  154.3852  135.6065  153.5812 H   0  0  0  0  0  0  0  0  0  0  0  0  # atno 10763 bound_to 10752
  152.9788  135.5870  154.4363 H   0  0  0  0  0  0  0  0  0  0  0  0  # atno 10764 bound_to 10752
  154.4138  135.2844  155.1997 H   0  0  0  0  0  0  0  0  0  0  0  0  # atno 10765 bound_to 10752
  140.6582  133.9344  155.8420 H   0  0  0  0  0  0  0  0  0  0  0  0  # atno 11005 bound_to 11000
  145.6548  141.0254  143.1740 LP  0  0  0  0  0  0  0  0  0  0  0  0  # atno 17320 bound_to 7965
  144.7179  139.8133  143.7392 LP  0  0  0  0  0  0  0  0  0  0  0  0  # atno 17321 bound_to 7965
  139.7614  144.7505  151.0358 LP  0  0  0  0  0  0  0  0  0  0  0  0  # atno 17342 bound_to 10162
  140.7803  143.4746  151.0099 LP  0  0  0  0  0  0  0  0  0  0  0  0  # atno 17343 bound_to 10162
  155.9962  130.5031  150.7489 LP  0  0  0  0  0  0  0  0  0  0  0  0  # atno 17370 bound_to 10713
  157.4911  131.0911  151.0425 LP  0  0  0  0  0  0  0  0  0  0  0  0  # atno 17371 bound_to 10713
  141.0485  134.0519  157.3813 LP  0  0  0  0  0  0  0  0  0  0  0  0  # atno 17394 bound_to 11000
  139.9022  135.0168  156.7322 LP  0  0  0  0  0  0  0  0  0  0  0  0  # atno 17395 bound_to 11000

$$$$
