AV-unprocessed.smi:2698|AV-procd|sdf|10419|dock9
  -GOLD-   2272014453D 1   1.00000     0.00000
 Structure written by MMmdl.
 33 33  0  0  0  0  0  0  0  0  2 V2000
  152.3599  144.0956  160.0953 C   0  0  0  0  0  0  0  0  0  0  0  0
  152.2357  142.5609  160.0637 C   0  0  0  0  0  0  0  0  0  0  0  0
  153.4161  141.9111  160.8012 C   0  0  0  0  0  0  0  0  0  0  0  0
  152.1087  141.9869  158.6337 C   0  0  0  0  0  0  0  0  0  0  0  0
  151.6768  140.5192  158.6089 C   0  0  0  0  0  0  0  0  0  0  0  0
  150.5910  140.1880  159.0847 O   0  0  0  0  0  0  0  0  0  0  0  0
  152.5434  139.6577  158.0551 N   0  0  0  0  0  0  0  0  0  0  0  0
  152.3683  138.2106  157.9368 C   0  0  2  0  0  0  0  0  0  0  0  0
  150.9805  137.9149  157.3256 C   0  0  0  0  0  0  0  0  0  0  0  0
  150.6970  138.5829  155.9986 C   0  0  0  0  0  0  0  0  0  0  0  0
  150.8024  139.8916  155.5751 C   0  0  0  0  0  0  0  0  0  0  0  0
  150.4261  139.9905  154.2333 N   0  0  0  0  0  0  0  0  0  0  0  0
  150.1216  138.7443  153.8917 C   0  0  0  0  0  0  0  0  0  0  0  0
  150.2691  137.8711  154.8914 N   0  0  0  0  0  0  0  0  0  0  0  0
  152.4926  137.5715  159.3266 C   0  0  0  0  0  0  0  0  0  0  0  0
  151.4876  136.9850  159.7879 O   0  0  0  0  0  0  0  0  0  0  0  0
  153.5950  137.6805  159.9065 O   0  5  0  0  0  0  0  0  0  0  0  0
  150.0944  136.8771  154.8503 H   0  0  0  0  0  0  0  0  0  0  0  0
  153.2235  144.4345  159.5223 H   0  0  0  0  0  0  0  0  0  0  0  0
  152.4768  144.4569  161.1173 H   0  0  0  0  0  0  0  0  0  0  0  0
  151.4752  144.5824  159.6854 H   0  0  0  0  0  0  0  0  0  0  0  0
  151.3313  142.2959  160.6138 H   0  0  0  0  0  0  0  0  0  0  0  0
  154.3621  142.1331  160.3065 H   0  0  0  0  0  0  0  0  0  0  0  0
  153.3068  140.8269  160.8404 H   0  0  0  0  0  0  0  0  0  0  0  0
  153.4850  142.2702  161.8284 H   0  0  0  0  0  0  0  0  0  0  0  0
  151.3930  142.5745  158.0568 H   0  0  0  0  0  0  0  0  0  0  0  0
  153.0624  142.0752  158.1110 H   0  0  0  0  0  0  0  0  0  0  0  0
  153.3996  140.0314  157.6724 H   0  0  0  0  0  0  0  0  0  0  0  0
  153.1357  137.7753  157.2938 H   0  0  0  0  0  0  0  0  0  0  0  0
  150.8623  136.8402  157.1801 H   0  0  0  0  0  0  0  0  0  0  0  0
  150.1983  138.2153  158.0250 H   0  0  0  0  0  0  0  0  0  0  0  0
  151.1171  140.7650  156.1269 H   0  0  0  0  0  0  0  0  0  0  0  0
  149.7900  138.4642  152.9028 H   0  0  0  0  0  0  0  0  0  0  0  0
  1  2  1  0  0  0  0
  1 19  1  0  0  0  0
  1 20  1  0  0  0  0
  1 21  1  0  0  0  0
  2  3  1  0  0  0  0
  2  4  1  0  0  0  0
  2 22  1  0  0  0  0
  3 23  1  0  0  0  0
  3 24  1  0  0  0  0
  3 25  1  0  0  0  0
  4  5  1  0  0  0  0
  4 26  1  0  0  0  0
  4 27  1  0  0  0  0
  5  6  2  0  0  0  0
  5  7  1  0  0  0  0
  7  8  1  0  0  0  0
  7 28  1  0  0  0  0
  8  9  1  0  0  0  0
  8 15  1  0  0  0  0
  8 29  1  0  0  0  0
  9 30  1  0  0  0  0
  9 31  1  0  0  0  0
  9 10  1  0  0  0  0
 10 11  2  0  0  0  0
 10 14  1  0  0  0  0
 11 32  1  0  0  0  0
 11 12  1  0  0  0  0
 12 13  2  0  0  0  0
 13 14  1  0  0  0  0
 13 33  1  0  0  0  0
 14 18  1  0  0  0  0
 15 16  2  0  0  0  0
 15 17  1  0  0  0  0
M  CHG  1  17  -1
M  END
> <s_m_source_file>
AV-unprocessed.smi

> <i_m_source_file_index>
2698

> <i_lp_mmshare_version>
43012

> <i_f3d_flags>
0

> <s_epik_input>
W0NIM11bQ0hdKFtDSDNdKVtDSDJdQyg9TylbTkhdW0NAQEhdKEMoPU8pW09IXSlbQ0gyXWMxW2NIXVtuSF1bY0hdbjE=

> <s_epik_cmdline>
J2VwaWtfcHl0aG9uJywgJy1waCcsICc3LjAnLCAnLXRuJywgJzgnLCAnLW1hJywgJzIwMCcsICctbWV0YWxfYmluZGluZycsICctaW1hZScsICc8aW5maWxlLm1hZT4nLCAnLW9tYWUnLCAnPG91dGZpbGUubWFlPic=

> <r_lp_tautomer_probability>
0.5

> <r_epik_Ionization_Penalty>
0.536153

> <r_epik_Ionization_Penalty_Charging>
0.536153

> <r_epik_Ionization_Penalty_Neutral>
4.95393e-08

> <r_epik_State_Penalty>
0.778213

> <r_epik_Charging_Adjusted_Penalty>
1.31437

> <i_epik_Tot_Q>
-1

> <i_epik_Tot_abs_Q>
1

> <r_epik_Metal_State_Penalty>
0.658344

> <b_epik_Metal_Only>
0

> <s_lp_Force_Field>
OPLS_2005

> <r_lp_Energy>
3.7745

> <b_lp_Chiralities_Consistent>
1

> <s_lp_Variant>
AV-unprocessed.smi:2698-3

> <Gold.Version>
5.8.1

> <Gold.Id.Protein>
6NUR|6NUR_protein|mol2

> <Gold.PLP.Fitness>
39.9254

> <Gold.PLP.PLP>
-25.9873

> <Gold.PLP.part.hbond>
-2.3442

> <Gold.PLP.part.metal>
0.0000

> <Gold.PLP.part.buried>
-4.4261

> <Gold.PLP.part.nonpolar>
-20.8167

> <Gold.PLP.part.repulsive>
1.1331

> <Gold.PLP.ligand.clash>
0.0000

> <Gold.PLP.ligand.torsion>
0.2592

> <Gold.PLP.Chemscore.Hbond>
3.0000

> <Gold.PLP.Chemscore.CHOScore>
1.7983

> <Gold.PLP.Chemscore.Metal>
0.0000

> <Gold.Chemscore.Hbonds>
donor molecule, donor type, donor heavy atom, donor atom, acceptor molecule, acceptor atom, score
      P1  H  6896  6907       L1    16  2.00
      P1  H  7989  7998       L1    12  1.00
      L1  C    13    33       P1  7948  0.94
      L1  C    13    33       P1  7957  0.85

> <Gold.PLP.Chemscore.Internal.Correction>
0.0616

> <Gold.Rescore>
     Score         DG    S(hbond)    S(metal)    S(lipo)     H(rot)  DE(clash)    DE(int)     intcor
     10.09     -11.79       1.99        0.00      63.10       3.01       0.05       1.65       ----

> <Gold.Chemscore.Fitness>
10.0879

> <Gold.Chemscore.DG>
-11.7896

> <Gold.Chemscore.ZeroCoef>
-5.4800

> <Gold.Chemscore.Hbond>
1.9892

> <Gold.Chemscore.Metal>
0.0000

> <Gold.Chemscore.Lipo>
63.0993

> <Gold.Chemscore.Internal_Hbond>
0.0000

> <Gold.Chemscore.DEClash>
0.0494

> <Gold.Chemscore.DEInternal>
1.6522

> <Gold.Chemscore.Rot>
3.0145

> <Gold.Chemscore.Internal.Correction>
   9.000000E+99

> <Gold.Chemscore.Hbonds>
donor molecule, donor type, donor heavy atom, donor atom, acceptor molecule, acceptor atom, score
      P1  H  6896  6907       L1    16  0.97
      P1  H  7989  7998       L1    12  0.54

> <Gold.Chemscore.Hbond.Weighted>
-6.6440

> <Gold.Chemscore.Metal.Weighted>
-0.0000

> <Gold.Chemscore.Lipo.Weighted>
-7.3826

> <Gold.Chemscore.Internal_Hbond.Weighted>
0.0000

> <Gold.Chemscore.DEClash.Weighted>
0.0494

> <Gold.Chemscore.DEInternal.Weighted>
1.6522

> <Gold.Chemscore.Rot.Weighted>
7.7171

> <Gold.Chemscore.Internal.Correction.Weighted>
   9.000000E+99

> <Gold.Protein.RotatedTorsions>
[ 6907 6896 6895 6894 ] final   -2.06 input  -60.11 | X-H torsion
[ 7974 7965 7964 7962 ] final   45.98 input  175.53 | X-H torsion
[ 8008 7997 7996 7995 ] final -164.44 input   59.86 | X-H torsion
[ 10167 10162 10161 10158 ] final    0.57 input  -65.29 | X-H torsion
[ 10718 10713 10712 10709 ] final  -93.80 input   66.30 | X-H torsion
[ 10763 10752 10751 10750 ] final -157.49 input  -60.55 | X-H torsion
[ 11005 11000 10999 10996 ] final   76.48 input  -57.11 | X-H torsion

> <Gold.Protein.ActiveResidues>
 VAL166  LYS551  ARG553  GLY616  TRP617  ASP618  TYR619  PRO620  LYS621  CYS622 
 ASP623  PHE694  ASN695  SER759  ASP760  ASP761  ALA762  ILE779  LEU786  VAL792 
 PHE793  MET794  SER795  GLU796  ALA797  LYS798  CYS799  TRP800  GLU811  SER814 

> <Gold.Protein.RotatedAtoms>
  151.5360  135.1068  159.9914 H   0  0  0  0  0  0  0  0  0  0  0  0  # atno 6907 bound_to 6896
  152.4557  133.7714  159.6811 H   0  0  0  0  0  0  0  0  0  0  0  0  # atno 6908 bound_to 6896
  150.8500  133.7736  159.3054 H   0  0  0  0  0  0  0  0  0  0  0  0  # atno 6909 bound_to 6896
  146.0431  139.4905  142.9766 H   0  0  0  0  0  0  0  0  0  0  0  0  # atno 7974 bound_to 7965
  155.8357  140.0940  157.1765 H   0  0  0  0  0  0  0  0  0  0  0  0  # atno 8008 bound_to 7997
  154.3980  140.1410  156.3728 H   0  0  0  0  0  0  0  0  0  0  0  0  # atno 8009 bound_to 7997
  155.8118  140.3449  155.5465 H   0  0  0  0  0  0  0  0  0  0  0  0  # atno 8010 bound_to 7997
  140.6722  143.7016  150.7947 H   0  0  0  0  0  0  0  0  0  0  0  0  # atno 10167 bound_to 10162
  156.0018  130.5042  150.5831 H   0  0  0  0  0  0  0  0  0  0  0  0  # atno 10718 bound_to 10713
  154.7632  135.3123  154.8337 H   0  0  0  0  0  0  0  0  0  0  0  0  # atno 10763 bound_to 10752
  153.9093  135.6807  153.4756 H   0  0  0  0  0  0  0  0  0  0  0  0  # atno 10764 bound_to 10752
  153.1235  135.4812  154.9166 H   0  0  0  0  0  0  0  0  0  0  0  0  # atno 10765 bound_to 10752
  139.9296  134.7604  156.1400 H   0  0  0  0  0  0  0  0  0  0  0  0  # atno 11005 bound_to 11000
  145.6851  141.0180  143.1585 LP  0  0  0  0  0  0  0  0  0  0  0  0  # atno 17320 bound_to 7965
  144.7084  139.8467  143.7422 LP  0  0  0  0  0  0  0  0  0  0  0  0  # atno 17321 bound_to 7965
  140.0703  143.5068  152.2583 LP  0  0  0  0  0  0  0  0  0  0  0  0  # atno 17342 bound_to 10162
  139.5996  144.7578  151.3202 LP  0  0  0  0  0  0  0  0  0  0  0  0  # atno 17343 bound_to 10162
  157.3708  131.0765  151.1559 LP  0  0  0  0  0  0  0  0  0  0  0  0  # atno 17370 bound_to 10713
  157.2313  130.6526  149.5851 LP  0  0  0  0  0  0  0  0  0  0  0  0  # atno 17371 bound_to 10713
  141.0877  133.6727  156.2472 LP  0  0  0  0  0  0  0  0  0  0  0  0  # atno 17394 bound_to 11000
  140.6238  134.5334  157.5551 LP  0  0  0  0  0  0  0  0  0  0  0  0  # atno 17395 bound_to 11000

$$$$
