AV-unprocessed.smi:1177|AV-procd|sdf|4955|dock10
  -GOLD-   22720 3543D 1   1.00000     0.00000
 Structure written by MMmdl.
 31 32  0  0  0  0  0  0  0  0  2 V2000
  146.8638  142.3943  159.8843 O   0  0  0  0  0  0  0  0  0  0  0  0
  147.2775  143.3294  159.1977 C   0  0  0  0  0  0  0  0  0  0  0  0
  148.0247  143.1733  158.0958 N   0  0  0  0  0  0  0  0  0  0  0  0
  148.4519  141.8876  157.5568 C   0  0  0  0  0  0  0  0  0  0  0  0
  149.8795  141.9583  156.9884 C   0  0  0  0  0  0  0  0  0  0  0  0
  150.8047  142.7810  157.8630 C   0  0  0  0  0  0  0  0  0  0  0  0
  151.5546  142.2083  158.9133 C   0  0  0  0  0  0  0  0  0  0  0  0
  152.3936  143.0344  159.6902 C   0  0  0  0  0  0  0  0  0  0  0  0
  152.4629  144.4134  159.4025 C   0  0  0  0  0  0  0  0  0  0  0  0
  151.6907  144.9326  158.3434 C   0  0  0  0  0  0  0  0  0  0  0  0
  150.9000  144.1086  157.6212 N   0  3  0  0  0  0  0  0  0  0  0  0
  147.0427  144.6217  159.4608 N   0  0  0  0  0  0  0  0  0  0  0  0
  146.2861  145.1158  160.5655 C   0  0  0  0  0  0  0  0  0  0  0  0
  146.2132  144.2551  161.8081 C   0  0  0  0  0  0  0  0  0  0  0  0
  145.0062  144.3908  160.9216 C   0  0  0  0  0  0  0  0  0  0  0  0
  148.3168  144.0001  157.5950 H   0  0  0  0  0  0  0  0  0  0  0  0
  148.3825  141.1211  158.3307 H   0  0  0  0  0  0  0  0  0  0  0  0
  147.7530  141.5995  156.7711 H   0  0  0  0  0  0  0  0  0  0  0  0
  150.2880  140.9525  156.8809 H   0  0  0  0  0  0  0  0  0  0  0  0
  149.8701  142.3934  155.9880 H   0  0  0  0  0  0  0  0  0  0  0  0
  151.4890  141.1505  159.1235 H   0  0  0  0  0  0  0  0  0  0  0  0
  152.9758  142.6154  160.4978 H   0  0  0  0  0  0  0  0  0  0  0  0
  153.0989  145.0631  159.9860 H   0  0  0  0  0  0  0  0  0  0  0  0
  151.6813  145.9734  158.0543 H   0  0  0  0  0  0  0  0  0  0  0  0
  147.4279  145.3115  158.8323 H   0  0  0  0  0  0  0  0  0  0  0  0
  146.2873  146.1925  160.7310 H   0  0  0  0  0  0  0  0  0  0  0  0
  146.7373  143.3011  161.7995 H   0  0  0  0  0  0  0  0  0  0  0  0
  146.1900  144.7641  162.7695 H   0  0  0  0  0  0  0  0  0  0  0  0
  144.1767  144.9907  161.2906 H   0  0  0  0  0  0  0  0  0  0  0  0
  144.7250  143.5272  160.3219 H   0  0  0  0  0  0  0  0  0  0  0  0
  150.3492  144.5056  156.8591 H   0  0  0  0  0  0  0  0  0  0  0  0
  1  2  2  0  0  0  0
  2  3  1  0  0  0  0
  2 12  1  0  0  0  0
  3  4  1  0  0  0  0
  3 16  1  0  0  0  0
  4  5  1  0  0  0  0
  4 17  1  0  0  0  0
  4 18  1  0  0  0  0
  5  6  1  0  0  0  0
  5 19  1  0  0  0  0
  5 20  1  0  0  0  0
  6 11  1  0  0  0  0
  6  7  2  0  0  0  0
  7  8  1  0  0  0  0
  7 21  1  0  0  0  0
  8  9  2  0  0  0  0
  8 22  1  0  0  0  0
  9 10  1  0  0  0  0
  9 23  1  0  0  0  0
 10 11  2  0  0  0  0
 10 24  1  0  0  0  0
 11 31  1  0  0  0  0
 12 13  1  0  0  0  0
 12 25  1  0  0  0  0
 13 15  1  0  0  0  0
 13 14  1  0  0  0  0
 13 26  1  0  0  0  0
 14 15  1  0  0  0  0
 14 27  1  0  0  0  0
 14 28  1  0  0  0  0
 15 29  1  0  0  0  0
 15 30  1  0  0  0  0
M  CHG  1  11   1
M  END
> <s_m_source_file>
AV-unprocessed.smi

> <i_m_source_file_index>
1177

> <i_lp_mmshare_version>
43012

> <i_f3d_flags>
0

> <s_epik_input>
W0NIMl0xW0NIMl1bQ0hdMVtOSF1DKD1PKVtOSF1bQ0gyXVtDSDJdYzJbY0hdW2NIXVtjSF1bY0hdbjI=

> <s_epik_cmdline>
J2VwaWtfcHl0aG9uJywgJy1waCcsICc3LjAnLCAnLXRuJywgJzgnLCAnLW1hJywgJzIwMCcsICctbWV0YWxfYmluZGluZycsICctaW1hZScsICc8aW5maWxlLm1hZT4nLCAnLW9tYWUnLCAnPG91dGZpbGUubWFlPic=

> <r_epik_Ionization_Penalty>
1.56288

> <r_epik_Ionization_Penalty_Charging>
1.56282

> <r_epik_Ionization_Penalty_Neutral>
5.89877e-05

> <r_epik_State_Penalty>
1.65797

> <r_epik_Charging_Adjusted_Penalty>
3.22079

> <i_epik_Tot_Q>
1

> <i_epik_Tot_abs_Q>
1

> <r_epik_Metal_State_Penalty>
1.69932

> <b_epik_Metal_Only>
0

> <s_lp_Force_Field>
OPLS_2005

> <r_lp_Energy>
17.5296

> <b_lp_Chiralities_Consistent>
1

> <s_lp_Variant>
AV-unprocessed.smi:1177-2

> <Gold.Version>
5.8.1

> <Gold.Id.Protein>
6NUR|6NUR_protein|mol2

> <Gold.PLP.Fitness>
44.5618

> <Gold.PLP.PLP>
-33.0867

> <Gold.PLP.part.hbond>
-6.0000

> <Gold.PLP.part.metal>
0.0000

> <Gold.PLP.part.buried>
-3.0651

> <Gold.PLP.part.nonpolar>
-24.8383

> <Gold.PLP.part.repulsive>
0.2106

> <Gold.PLP.ligand.clash>
0.0000

> <Gold.PLP.ligand.torsion>
0.9247

> <Gold.PLP.Chemscore.Hbond>
4.4286

> <Gold.PLP.Chemscore.CHOScore>
0.0000

> <Gold.PLP.Chemscore.Metal>
0.0000

> <Gold.Chemscore.Hbonds>
donor molecule, donor type, donor heavy atom, donor atom, acceptor molecule, acceptor atom, score
      L1  H     3    16       P1  8029  0.18
      L1  H    11    31       P1  8028  2.00
      L1  H    12    25       P1  8029  1.00
      P1  H  6933  6944       L1     1  0.29
      P1  H  6934  6946       L1     1  0.94

> <Gold.PLP.Chemscore.Internal.Correction>
0.0386

> <Gold.Rescore>
     Score         DG    S(hbond)    S(metal)    S(lipo)     H(rot)  DE(clash)    DE(int)     intcor
     18.27     -21.33       3.21        0.00      81.17       1.70       0.16       2.90       ----

> <Gold.Chemscore.Fitness>
18.2669

> <Gold.Chemscore.DG>
-21.3266

> <Gold.Chemscore.ZeroCoef>
-5.4800

> <Gold.Chemscore.Hbond>
3.2057

> <Gold.Chemscore.Metal>
0.0000

> <Gold.Chemscore.Lipo>
81.1661

> <Gold.Chemscore.Internal_Hbond>
0.0000

> <Gold.Chemscore.DEClash>
0.1578

> <Gold.Chemscore.DEInternal>
2.9019

> <Gold.Chemscore.Rot>
1.7019

> <Gold.Chemscore.Internal.Correction>
   9.000000E+99

> <Gold.Chemscore.Hbonds>
donor molecule, donor type, donor heavy atom, donor atom, acceptor molecule, acceptor atom, score
      L1  H    11    31       P1  8028  0.85
      L1  H    12    25       P1  8029  0.98
      P1  H  6933  6944       L1     1  0.08
      P1  H  6934  6946       L1     1  0.92

> <Gold.Chemscore.Hbond.Weighted>
-10.7069

> <Gold.Chemscore.Metal.Weighted>
-0.0000

> <Gold.Chemscore.Lipo.Weighted>
-9.4964

> <Gold.Chemscore.Internal_Hbond.Weighted>
0.0000

> <Gold.Chemscore.DEClash.Weighted>
0.1578

> <Gold.Chemscore.DEInternal.Weighted>
2.9019

> <Gold.Chemscore.Rot.Weighted>
4.3568

> <Gold.Chemscore.Internal.Correction.Weighted>
   9.000000E+99

> <Gold.Protein.RotatedTorsions>
[ 6907 6896 6895 6894 ] final -152.79 input  -60.11 | X-H torsion
[ 7974 7965 7964 7962 ] final -106.41 input  175.53 | X-H torsion
[ 8008 7997 7996 7995 ] final -108.72 input   59.86 | X-H torsion
[ 10167 10162 10161 10158 ] final   -6.46 input  -65.29 | X-H torsion
[ 10718 10713 10712 10709 ] final  -89.06 input   66.30 | X-H torsion
[ 10763 10752 10751 10750 ] final   58.14 input  -60.55 | X-H torsion
[ 11005 11000 10999 10996 ] final  -33.88 input  -57.11 | X-H torsion

> <Gold.Protein.ActiveResidues>
 VAL166  LYS551  ARG553  GLY616  TRP617  ASP618  TYR619  PRO620  LYS621  CYS622 
 ASP623  PHE694  ASN695  SER759  ASP760  ASP761  ALA762  ILE779  LEU786  VAL792 
 PHE793  MET794  SER795  GLU796  ALA797  LYS798  CYS799  TRP800  GLU811  SER814 

> <Gold.Protein.RotatedAtoms>
  151.2329  133.4440  159.2604 H   0  0  0  0  0  0  0  0  0  0  0  0  # atno 6907 bound_to 6896
  151.0777  134.9839  159.8351 H   0  0  0  0  0  0  0  0  0  0  0  0  # atno 6908 bound_to 6896
  152.5420  134.2271  159.8863 H   0  0  0  0  0  0  0  0  0  0  0  0  # atno 6909 bound_to 6896
  145.2183  140.9124  143.3274 H   0  0  0  0  0  0  0  0  0  0  0  0  # atno 7974 bound_to 7965
  154.9486  140.0401  157.2132 H   0  0  0  0  0  0  0  0  0  0  0  0  # atno 8008 bound_to 7997
  154.8000  140.2850  155.5906 H   0  0  0  0  0  0  0  0  0  0  0  0  # atno 8009 bound_to 7997
  156.2960  140.2557  156.2867 H   0  0  0  0  0  0  0  0  0  0  0  0  # atno 8010 bound_to 7997
  140.6997  143.6191  150.8629 H   0  0  0  0  0  0  0  0  0  0  0  0  # atno 10167 bound_to 10162
  155.9984  130.4858  150.5114 H   0  0  0  0  0  0  0  0  0  0  0  0  # atno 10718 bound_to 10713
  152.9864  135.5617  154.5504 H   0  0  0  0  0  0  0  0  0  0  0  0  # atno 10763 bound_to 10752
  154.4942  135.2794  155.1474 H   0  0  0  0  0  0  0  0  0  0  0  0  # atno 10764 bound_to 10752
  154.2931  135.6322  153.5446 H   0  0  0  0  0  0  0  0  0  0  0  0  # atno 10765 bound_to 10752
  140.9671  133.7131  156.1463 H   0  0  0  0  0  0  0  0  0  0  0  0  # atno 11005 bound_to 11000
  144.9790  139.3802  143.6271 LP  0  0  0  0  0  0  0  0  0  0  0  0  # atno 17320 bound_to 7965
  146.3382  139.8922  142.8807 LP  0  0  0  0  0  0  0  0  0  0  0  0  # atno 17321 bound_to 7965
  139.9912  143.5844  152.2909 LP  0  0  0  0  0  0  0  0  0  0  0  0  # atno 17342 bound_to 10162
  139.6500  144.7660  151.2166 LP  0  0  0  0  0  0  0  0  0  0  0  0  # atno 17343 bound_to 10162
  157.3086  131.0659  151.2017 LP  0  0  0  0  0  0  0  0  0  0  0  0  # atno 17370 bound_to 10713
  157.2971  130.6824  149.6144 LP  0  0  0  0  0  0  0  0  0  0  0  0  # atno 17371 bound_to 10713
  140.7383  134.4178  157.5558 LP  0  0  0  0  0  0  0  0  0  0  0  0  # atno 17394 bound_to 11000
  139.8898  134.8820  156.2400 LP  0  0  0  0  0  0  0  0  0  0  0  0  # atno 17395 bound_to 11000

$$$$
