AV-unprocessed.smi:1875|AV-procd|sdf|7613|dock8
  -GOLD-   22720 9333D 1   1.00000     0.00000
 Structure written by MMmdl.
 48 50  0  0  0  0  0  0  0  0  2 V2000
  143.1963  146.3718  154.8641 C   0  0  0  0  0  0  0  0  0  0  0  0
  144.1732  145.3604  154.3006 C   0  0  0  0  0  0  0  0  0  0  0  0
  144.5140  145.5024  153.0162 N   0  0  0  0  0  0  0  0  0  0  0  0
  145.3779  144.5969  152.5076 C   0  0  0  0  0  0  0  0  0  0  0  0
  145.8971  143.5461  153.2911 C   0  0  0  0  0  0  0  0  0  0  0  0
  145.4671  143.4999  154.6338 C   0  0  0  0  0  0  0  0  0  0  0  0
  145.9392  142.4144  155.5778 C   0  0  0  0  0  0  0  0  0  0  0  0
  147.4072  142.2904  155.5220 N   0  3  0  0  0  0  0  0  0  0  0  0
  147.8895  141.2588  154.5832 C   0  0  0  0  0  0  0  0  0  0  0  0
  149.2889  140.7526  154.9793 C   0  0  1  0  0  0  0  0  0  0  0  0
  149.9190  140.2325  153.8250 O   0  0  0  0  0  0  0  0  0  0  0  0
  150.1863  141.8423  155.6067 C   0  0  0  0  0  0  0  0  0  0  0  0
  151.0752  141.3454  156.6452 N   0  0  0  0  0  0  0  0  0  0  0  0
  151.7654  140.1882  156.6376 C   0  0  0  0  0  0  0  0  0  0  0  0
  152.5227  139.9223  157.6972 N   0  0  0  0  0  0  0  0  0  0  0  0
  152.3109  141.0441  158.4799 C   0  0  0  0  0  0  0  0  0  0  0  0
  152.8323  141.3898  159.7457 C   0  0  0  0  0  0  0  0  0  0  0  0
  152.4773  142.6077  160.3679 C   0  0  0  0  0  0  0  0  0  0  0  0
  153.0618  142.9394  161.7298 C   0  0  0  0  0  0  0  0  0  0  0  0
  151.5866  143.5021  159.7216 C   0  0  0  0  0  0  0  0  0  0  0  0
  151.1925  144.8173  160.3701 C   0  0  0  0  0  0  0  0  0  0  0  0
  151.0559  143.1719  158.4570 C   0  0  0  0  0  0  0  0  0  0  0  0
  151.4146  141.9559  157.8487 C   0  0  0  0  0  0  0  0  0  0  0  0
  144.5986  144.4064  155.1356 N   0  0  0  0  0  0  0  0  0  0  0  0
  143.2487  147.3152  154.3196 H   0  0  0  0  0  0  0  0  0  0  0  0
  143.4111  146.5782  155.9133 H   0  0  0  0  0  0  0  0  0  0  0  0
  142.1777  145.9900  154.7910 H   0  0  0  0  0  0  0  0  0  0  0  0
  145.6540  144.7088  151.4695 H   0  0  0  0  0  0  0  0  0  0  0  0
  146.5858  142.8220  152.8810 H   0  0  0  0  0  0  0  0  0  0  0  0
  145.6269  142.6483  156.5964 H   0  0  0  0  0  0  0  0  0  0  0  0
  145.4752  141.4651  155.3061 H   0  0  0  0  0  0  0  0  0  0  0  0
  147.7905  143.1843  155.2500 H   0  0  0  0  0  0  0  0  0  0  0  0
  147.1744  140.4355  154.5507 H   0  0  0  0  0  0  0  0  0  0  0  0
  147.9254  141.6927  153.5831 H   0  0  0  0  0  0  0  0  0  0  0  0
  149.1887  139.9392  155.6995 H   0  0  0  0  0  0  0  0  0  0  0  0
  149.3676  140.4044  153.0763 H   0  0  0  0  0  0  0  0  0  0  0  0
  150.7976  142.3055  154.8309 H   0  0  0  0  0  0  0  0  0  0  0  0
  149.5749  142.6416  156.0275 H   0  0  0  0  0  0  0  0  0  0  0  0
  151.7024  139.4974  155.8097 H   0  0  0  0  0  0  0  0  0  0  0  0
  153.5120  140.7091  160.2369 H   0  0  0  0  0  0  0  0  0  0  0  0
  153.6131  143.8791  161.6919 H   0  0  0  0  0  0  0  0  0  0  0  0
  153.7485  142.1630  162.0684 H   0  0  0  0  0  0  0  0  0  0  0  0
  152.2691  143.0323  162.4724 H   0  0  0  0  0  0  0  0  0  0  0  0
  150.4791  145.3663  159.7550 H   0  0  0  0  0  0  0  0  0  0  0  0
  152.0691  145.4500  160.5117 H   0  0  0  0  0  0  0  0  0  0  0  0
  150.7303  144.6420  161.3419 H   0  0  0  0  0  0  0  0  0  0  0  0
  150.3774  143.8454  157.9548 H   0  0  0  0  0  0  0  0  0  0  0  0
  147.7449  142.0632  156.4465 H   0  0  0  0  0  0  0  0  0  0  0  0
  1  2  1  0  0  0  0
  1 25  1  0  0  0  0
  1 26  1  0  0  0  0
  1 27  1  0  0  0  0
  2 24  1  0  0  0  0
  2  3  2  0  0  0  0
  3  4  1  0  0  0  0
  4  5  2  0  0  0  0
  4 28  1  0  0  0  0
  5  6  1  0  0  0  0
  5 29  1  0  0  0  0
  6  7  1  0  0  0  0
  6 24  2  0  0  0  0
  7  8  1  0  0  0  0
  7 30  1  0  0  0  0
  7 31  1  0  0  0  0
  8  9  1  0  0  0  0
  8 32  1  0  0  0  0
  8 48  1  0  0  0  0
  9 10  1  0  0  0  0
  9 33  1  0  0  0  0
  9 34  1  0  0  0  0
 10 11  1  0  0  0  0
 10 12  1  0  0  0  0
 10 35  1  0  0  0  0
 11 36  1  0  0  0  0
 12 13  1  0  0  0  0
 12 37  1  0  0  0  0
 12 38  1  0  0  0  0
 13 23  1  0  0  0  0
 13 14  1  0  0  0  0
 14 15  2  0  0  0  0
 14 39  1  0  0  0  0
 15 16  1  0  0  0  0
 16 23  2  0  0  0  0
 16 17  1  0  0  0  0
 17 18  2  0  0  0  0
 17 40  1  0  0  0  0
 18 19  1  0  0  0  0
 18 20  1  0  0  0  0
 19 41  1  0  0  0  0
 19 42  1  0  0  0  0
 19 43  1  0  0  0  0
 20 21  1  0  0  0  0
 20 22  2  0  0  0  0
 21 44  1  0  0  0  0
 21 45  1  0  0  0  0
 21 46  1  0  0  0  0
 22 23  1  0  0  0  0
 22 47  1  0  0  0  0
M  CHG  1   8   1
M  END
> <s_m_source_file>
AV-unprocessed.smi

> <i_m_source_file_index>
1875

> <i_lp_mmshare_version>
43012

> <i_f3d_flags>
0

> <s_epik_input>
W0NIM11jMW5bY0hdW2NIXWMobjEpW0NIMl1bTkhdW0NIMl1bQ0BIXShbT0hdKVtDSDJdbihbY0hdbjIpYyhjMjMpW2NIXWMoW0NIM10pYyhbY0hdMylbQ0gzXQ==

> <s_epik_cmdline>
J2VwaWtfcHl0aG9uJywgJy1waCcsICc3LjAnLCAnLXRuJywgJzgnLCAnLW1hJywgJzIwMCcsICctbWV0YWxfYmluZGluZycsICctaW1hZScsICc8aW5maWxlLm1hZT4nLCAnLW9tYWUnLCAnPG91dGZpbGUubWFlPic=

> <r_lp_tautomer_probability>
1

> <r_epik_Ionization_Penalty>
0.192455

> <r_epik_Ionization_Penalty_Charging>
0.102343

> <r_epik_Ionization_Penalty_Neutral>
0.0901122

> <r_epik_State_Penalty>
0.175389

> <r_epik_Charging_Adjusted_Penalty>
0.277732

> <i_epik_Tot_Q>
1

> <i_epik_Tot_abs_Q>
1

> <r_epik_Metal_State_Penalty>
0.167659

> <b_epik_Metal_Only>
0

> <s_epik_Chemistry_Notes>
This compound contains an electron-poor aromatic ring that is susceptible to covalent hydrolysis at low pH, typically resulting in measured values for nitrogen ring protonation that are around two units higher than predicted values.

> <s_lp_Force_Field>
OPLS_2005

> <r_lp_Energy>
1.49454

> <b_lp_Chiralities_Consistent>
1

> <s_lp_Variant>
AV-unprocessed.smi:1875-2

> <Gold.Version>
5.8.1

> <Gold.Id.Protein>
6NUR|6NUR_protein|mol2

> <Gold.PLP.Fitness>
65.7556

> <Gold.PLP.PLP>
-55.6625

> <Gold.PLP.part.hbond>
-4.8361

> <Gold.PLP.part.metal>
0.0000

> <Gold.PLP.part.buried>
-8.6164

> <Gold.PLP.part.nonpolar>
-42.4675

> <Gold.PLP.part.repulsive>
0.3098

> <Gold.PLP.ligand.clash>
0.0000

> <Gold.PLP.ligand.torsion>
1.4850

> <Gold.PLP.Chemscore.Hbond>
4.3193

> <Gold.PLP.Chemscore.CHOScore>
0.0000

> <Gold.PLP.Chemscore.Metal>
0.0000

> <Gold.Chemscore.Hbonds>
donor molecule, donor type, donor heavy atom, donor atom, acceptor molecule, acceptor atom, score
      L1  H     8    32       P1  8028  2.00
      L1  H    11    36       P1  7957  0.64
      P1  H  7989  7998       L1    11  0.74
      P1  H  7997  8009       L1    15  0.76

> <Gold.PLP.Chemscore.Internal.Correction>
0.1053

> <Gold.Rescore>
     Score         DG    S(hbond)    S(metal)    S(lipo)     H(rot)  DE(clash)    DE(int)     intcor
     20.78     -22.22       2.51        0.00     132.77       2.80       0.24       1.20       ----

> <Gold.Chemscore.Fitness>
20.7769

> <Gold.Chemscore.DG>
-22.2204

> <Gold.Chemscore.ZeroCoef>
-5.4800

> <Gold.Chemscore.Hbond>
2.5109

> <Gold.Chemscore.Metal>
0.0000

> <Gold.Chemscore.Lipo>
132.7696

> <Gold.Chemscore.Internal_Hbond>
0.0000

> <Gold.Chemscore.DEClash>
0.2421

> <Gold.Chemscore.DEInternal>
1.2014

> <Gold.Chemscore.Rot>
2.8047

> <Gold.Chemscore.Internal.Correction>
   9.000000E+99

> <Gold.Chemscore.Hbonds>
donor molecule, donor type, donor heavy atom, donor atom, acceptor molecule, acceptor atom, score
      L1  H     8    32       P1  8028  0.53
      L1  H    11    36       P1  7957  0.63
      P1  H  7989  7998       L1    11  0.45
      P1  H  7997  8009       L1    15  0.15

> <Gold.Chemscore.Hbond.Weighted>
-8.3865

> <Gold.Chemscore.Metal.Weighted>
-0.0000

> <Gold.Chemscore.Lipo.Weighted>
-15.5340

> <Gold.Chemscore.Internal_Hbond.Weighted>
0.0000

> <Gold.Chemscore.DEClash.Weighted>
0.2421

> <Gold.Chemscore.DEInternal.Weighted>
1.2014

> <Gold.Chemscore.Rot.Weighted>
7.1801

> <Gold.Chemscore.Internal.Correction.Weighted>
   9.000000E+99

> <Gold.Protein.RotatedTorsions>
[ 6907 6896 6895 6894 ] final  -31.68 input  -60.11 | X-H torsion
[ 7974 7965 7964 7962 ] final  102.02 input  175.53 | X-H torsion
[ 8008 7997 7996 7995 ] final  163.72 input   59.86 | X-H torsion
[ 10167 10162 10161 10158 ] final -116.32 input  -65.29 | X-H torsion
[ 10718 10713 10712 10709 ] final    8.50 input   66.30 | X-H torsion
[ 10763 10752 10751 10750 ] final  -55.68 input  -60.55 | X-H torsion
[ 11005 11000 10999 10996 ] final   79.28 input  -57.11 | X-H torsion

> <Gold.Protein.ActiveResidues>
 VAL166  LYS551  ARG553  GLY616  TRP617  ASP618  TYR619  PRO620  LYS621  CYS622 
 ASP623  PHE694  ASN695  SER759  ASP760  ASP761  ALA762  ILE779  LEU786  VAL792 
 PHE793  MET794  SER795  GLU796  ALA797  LYS798  CYS799  TRP800  GLU811  SER814 

> <Gold.Protein.RotatedAtoms>
  151.0888  134.9904  159.8392 H   0  0  0  0  0  0  0  0  0  0  0  0  # atno 6907 bound_to 6896
  152.5427  134.2090  159.8752 H   0  0  0  0  0  0  0  0  0  0  0  0  # atno 6908 bound_to 6896
  151.2125  133.4504  159.2632 H   0  0  0  0  0  0  0  0  0  0  0  0  # atno 6909 bound_to 6896
  145.3646  139.2411  143.3488 H   0  0  0  0  0  0  0  0  0  0  0  0  # atno 7974 bound_to 7965
  156.1935  140.1716  156.8045 H   0  0  0  0  0  0  0  0  0  0  0  0  # atno 8008 bound_to 7997
  154.5500  140.0719  156.8684 H   0  0  0  0  0  0  0  0  0  0  0  0  # atno 8009 bound_to 7997
  155.3046  140.3363  155.4248 H   0  0  0  0  0  0  0  0  0  0  0  0  # atno 8010 bound_to 7997
  140.0805  143.4792  152.1928 H   0  0  0  0  0  0  0  0  0  0  0  0  # atno 10167 bound_to 10162
  156.9525  130.5902  149.5657 H   0  0  0  0  0  0  0  0  0  0  0  0  # atno 10718 bound_to 10713
  154.1947  135.6421  153.5070 H   0  0  0  0  0  0  0  0  0  0  0  0  # atno 10763 bound_to 10752
  153.0026  135.5437  154.6378 H   0  0  0  0  0  0  0  0  0  0  0  0  # atno 10764 bound_to 10752
  154.5776  135.2922  155.0738 H   0  0  0  0  0  0  0  0  0  0  0  0  # atno 10765 bound_to 10752
  139.9179  134.7830  156.1759 H   0  0  0  0  0  0  0  0  0  0  0  0  # atno 11005 bound_to 11000
  146.2912  140.4286  142.8738 LP  0  0  0  0  0  0  0  0  0  0  0  0  # atno 17320 bound_to 7965
  144.8621  140.7154  143.6100 LP  0  0  0  0  0  0  0  0  0  0  0  0  # atno 17321 bound_to 7965
  139.5782  144.7498  151.3708 LP  0  0  0  0  0  0  0  0  0  0  0  0  # atno 17342 bound_to 10162
  140.7080  143.7464  150.7516 LP  0  0  0  0  0  0  0  0  0  0  0  0  # atno 17343 bound_to 10162
  156.0357  130.5444  150.8646 LP  0  0  0  0  0  0  0  0  0  0  0  0  # atno 17370 bound_to 10713
  157.5712  131.0946  150.9414 LP  0  0  0  0  0  0  0  0  0  0  0  0  # atno 17371 bound_to 10713
  141.0672  133.6814  156.2068 LP  0  0  0  0  0  0  0  0  0  0  0  0  # atno 17394 bound_to 11000
  140.6566  134.5012  157.5581 LP  0  0  0  0  0  0  0  0  0  0  0  0  # atno 17395 bound_to 11000

$$$$
