AV-unprocessed.smi:3056|AV-procd|sdf|11659|dock10
  -GOLD-   2272017 63D 1   1.00000     0.00000
 Structure written by MMmdl.
 47 48  0  0  0  0  0  0  0  0  1 V2000
  143.7748  132.8155  150.6480 C   0  0  0  0  0  0  0  0  0  0  0  0
  145.0579  132.4894  151.3564 C   0  0  0  0  0  0  0  0  0  0  0  0
  145.5164  131.2155  151.7967 C   0  0  0  0  0  0  0  0  0  0  0  0
  146.6917  131.2728  152.4001 N   0  0  0  0  0  0  0  0  0  0  0  0
  147.0308  132.5816  152.3625 N   0  0  0  0  0  0  0  0  0  0  0  0
  148.2727  133.0419  152.9735 C   0  0  2  0  0  0  0  0  0  0  0  0
  149.0970  131.8326  153.4577 C   0  0  0  0  0  0  0  0  0  0  0  0
  148.0126  134.0933  154.0908 C   0  0  1  0  0  0  0  0  0  0  0  0
  147.7062  133.4494  155.4546 C   0  0  0  0  0  0  0  0  0  0  0  0
  149.2043  134.9207  154.2956 N   0  0  0  0  0  0  0  0  0  0  0  0
  149.1740  135.7756  155.4977 C   0  0  0  0  0  0  0  0  0  0  0  0
  150.5264  136.3902  155.9117 C   0  0  0  0  0  0  0  0  0  0  0  0
  151.4996  135.6497  156.0647 O   0  0  0  0  0  0  0  0  0  0  0  0
  150.6126  137.7320  156.0801 N   0  0  0  0  0  0  0  0  0  0  0  0
  151.8611  138.4165  156.4278 C   0  0  0  0  0  0  0  0  0  0  0  0
  152.2625  139.3176  155.2471 C   0  0  0  0  0  0  0  0  0  0  0  0
  151.2114  140.2409  154.9721 O   0  0  0  0  0  0  0  0  0  0  0  0
  149.9711  139.6097  154.6569 C   0  0  2  0  0  0  0  0  0  0  0  0
  148.9384  140.7032  154.3623 C   0  0  0  0  0  0  0  0  0  0  0  0
  149.5461  138.7087  155.8340 C   0  0  0  0  0  0  0  0  0  0  0  0
  146.0605  133.3359  151.7361 C   0  0  0  0  0  0  0  0  0  0  0  0
  143.1186  131.9480  150.5763 H   0  0  0  0  0  0  0  0  0  0  0  0
  143.9548  133.1667  149.6319 H   0  0  0  0  0  0  0  0  0  0  0  0
  143.2178  133.5968  151.1656 H   0  0  0  0  0  0  0  0  0  0  0  0
  145.0295  130.2561  151.7011 H   0  0  0  0  0  0  0  0  0  0  0  0
  148.8518  133.5240  152.1840 H   0  0  0  0  0  0  0  0  0  0  0  0
  150.1109  132.1217  153.7332 H   0  0  0  0  0  0  0  0  0  0  0  0
  149.1847  131.0805  152.6729 H   0  0  0  0  0  0  0  0  0  0  0  0
  148.6388  131.3559  154.3249 H   0  0  0  0  0  0  0  0  0  0  0  0
  147.1534  134.7068  153.8162 H   0  0  0  0  0  0  0  0  0  0  0  0
  146.7635  132.9029  155.4374 H   0  0  0  0  0  0  0  0  0  0  0  0
  147.6155  134.2047  156.2364 H   0  0  0  0  0  0  0  0  0  0  0  0
  148.4915  132.7546  155.7547 H   0  0  0  0  0  0  0  0  0  0  0  0
  149.3912  135.4523  153.4579 H   0  0  0  0  0  0  0  0  0  0  0  0
  148.4816  136.5964  155.3093 H   0  0  0  0  0  0  0  0  0  0  0  0
  148.7631  135.2021  156.3260 H   0  0  0  0  0  0  0  0  0  0  0  0
  151.7079  139.0173  157.3254 H   0  0  0  0  0  0  0  0  0  0  0  0
  152.6753  137.7291  156.6606 H   0  0  0  0  0  0  0  0  0  0  0  0
  153.1684  139.8744  155.4865 H   0  0  0  0  0  0  0  0  0  0  0  0
  152.4784  138.7218  154.3587 H   0  0  0  0  0  0  0  0  0  0  0  0
  150.1006  139.0022  153.7594 H   0  0  0  0  0  0  0  0  0  0  0  0
  147.9713  140.2709  154.1050 H   0  0  0  0  0  0  0  0  0  0  0  0
  149.2573  141.3247  153.5254 H   0  0  0  0  0  0  0  0  0  0  0  0
  148.7956  141.3540  155.2255 H   0  0  0  0  0  0  0  0  0  0  0  0
  148.5795  138.2609  155.6121 H   0  0  0  0  0  0  0  0  0  0  0  0
  149.3965  139.3071  156.7343 H   0  0  0  0  0  0  0  0  0  0  0  0
  146.1585  134.4054  151.6212 H   0  0  0  0  0  0  0  0  0  0  0  0
  1  2  1  0  0  0  0
  1 22  1  0  0  0  0
  1 23  1  0  0  0  0
  1 24  1  0  0  0  0
  2 21  2  0  0  0  0
  2  3  1  0  0  0  0
  3  4  2  0  0  0  0
  3 25  1  0  0  0  0
  4  5  1  0  0  0  0
  5  6  1  0  0  0  0
  5 21  1  0  0  0  0
  6  7  1  0  0  0  0
  6  8  1  0  0  0  0
  6 26  1  0  0  0  0
  7 27  1  0  0  0  0
  7 28  1  0  0  0  0
  7 29  1  0  0  0  0
  8  9  1  0  0  0  0
  8 10  1  0  0  0  0
  8 30  1  0  0  0  0
  9 31  1  0  0  0  0
  9 32  1  0  0  0  0
  9 33  1  0  0  0  0
 10 11  1  0  0  0  0
 10 34  1  0  0  0  0
 11 12  1  0  0  0  0
 11 35  1  0  0  0  0
 11 36  1  0  0  0  0
 12 13  2  0  0  0  0
 12 14  1  0  0  0  0
 14 20  1  0  0  0  0
 14 15  1  0  0  0  0
 15 16  1  0  0  0  0
 15 37  1  0  0  0  0
 15 38  1  0  0  0  0
 16 17  1  0  0  0  0
 16 39  1  0  0  0  0
 16 40  1  0  0  0  0
 17 18  1  0  0  0  0
 18 19  1  0  0  0  0
 18 20  1  0  0  0  0
 18 41  1  0  0  0  0
 19 42  1  0  0  0  0
 19 43  1  0  0  0  0
 19 44  1  0  0  0  0
 20 45  1  0  0  0  0
 20 46  1  0  0  0  0
 21 47  1  0  0  0  0
M  END
> <s_m_source_file>
AV-unprocessed.smi

> <i_m_source_file_index>
3056

> <i_lp_mmshare_version>
43012

> <i_f3d_flags>
0

> <s_epik_input>
W0NIM11jMVtjSF1ubihbY0hdMSlbQ0BIXShbQ0gzXSlbQ0BIXShbQ0gzXSlbTkhdW0NIMl1DKD1PKU4yW0NIMl1bQ0gyXU9bQ0BASF0oW0NIM10pW0NIMl0y

> <s_epik_cmdline>
J2VwaWtfcHl0aG9uJywgJy1waCcsICc3LjAnLCAnLXRuJywgJzgnLCAnLW1hJywgJzIwMCcsICctbWV0YWxfYmluZGluZycsICctaW1hZScsICc8aW5maWxlLm1hZT4nLCAnLW9tYWUnLCAnPG91dGZpbGUubWFlPic=

> <r_lp_tautomer_probability>
1

> <r_epik_Ionization_Penalty>
0.667689

> <r_epik_Ionization_Penalty_Charging>
0

> <r_epik_Ionization_Penalty_Neutral>
0.667689

> <r_epik_State_Penalty>
0.684601

> <r_epik_Charging_Adjusted_Penalty>
0.684601

> <i_epik_Tot_Q>
0

> <i_epik_Tot_abs_Q>
0

> <r_epik_Metal_State_Penalty>
0.681448

> <b_epik_Metal_Only>
0

> <s_lp_Force_Field>
OPLS_2005

> <r_lp_Energy>
30.5855

> <b_lp_Chiralities_Consistent>
1

> <s_lp_Variant>
AV-unprocessed.smi:3056-15

> <Gold.Version>
5.8.1

> <Gold.Id.Protein>
6NUR|6NUR_protein|mol2

> <Gold.PLP.Fitness>
42.6654

> <Gold.PLP.PLP>
-35.1573

> <Gold.PLP.part.hbond>
-3.0000

> <Gold.PLP.part.metal>
0.0000

> <Gold.PLP.part.buried>
-6.2236

> <Gold.PLP.part.nonpolar>
-27.2759

> <Gold.PLP.part.repulsive>
0.2061

> <Gold.PLP.ligand.clash>
0.0000

> <Gold.PLP.ligand.torsion>
0.6443

> <Gold.PLP.Chemscore.Hbond>
2.9000

> <Gold.PLP.Chemscore.CHOScore>
0.0000

> <Gold.PLP.Chemscore.Metal>
0.0000

> <Gold.Chemscore.Hbonds>
donor molecule, donor type, donor heavy atom, donor atom, acceptor molecule, acceptor atom, score
      L1  H    10    34       P1  7948  0.90
      P1  H  7989  7998       L1    17  1.00
      P1  H 10752 10765       L1    13  1.00

> <Gold.PLP.Chemscore.Internal.Correction>
0.0967

> <Gold.Rescore>
     Score         DG    S(hbond)    S(metal)    S(lipo)     H(rot)  DE(clash)    DE(int)     intcor
     15.94     -16.45       1.64        0.00      83.68       1.68       0.10       0.42       ----

> <Gold.Chemscore.Fitness>
15.9378

> <Gold.Chemscore.DG>
-16.4547

> <Gold.Chemscore.ZeroCoef>
-5.4800

> <Gold.Chemscore.Hbond>
1.6416

> <Gold.Chemscore.Metal>
0.0000

> <Gold.Chemscore.Lipo>
83.6828

> <Gold.Chemscore.Internal_Hbond>
0.0000

> <Gold.Chemscore.DEClash>
0.0987

> <Gold.Chemscore.DEInternal>
0.4182

> <Gold.Chemscore.Rot>
1.6793

> <Gold.Chemscore.Internal.Correction>
   9.000000E+99

> <Gold.Chemscore.Hbonds>
donor molecule, donor type, donor heavy atom, donor atom, acceptor molecule, acceptor atom, score
      L1  H    10    34       P1  7948  0.18
      P1  H  7989  7998       L1    17  0.14
      P1  H 10752 10765       L1    13  0.99

> <Gold.Chemscore.Hbond.Weighted>
-5.4828

> <Gold.Chemscore.Metal.Weighted>
-0.0000

> <Gold.Chemscore.Lipo.Weighted>
-9.7909

> <Gold.Chemscore.Internal_Hbond.Weighted>
0.0000

> <Gold.Chemscore.DEClash.Weighted>
0.0987

> <Gold.Chemscore.DEInternal.Weighted>
0.4182

> <Gold.Chemscore.Rot.Weighted>
4.2990

> <Gold.Chemscore.Internal.Correction.Weighted>
   9.000000E+99

> <Gold.Protein.RotatedTorsions>
[ 6907 6896 6895 6894 ] final  178.86 input  -60.11 | X-H torsion
[ 7974 7965 7964 7962 ] final  177.74 input  175.53 | X-H torsion
[ 8008 7997 7996 7995 ] final -124.91 input   59.86 | X-H torsion
[ 10167 10162 10161 10158 ] final -115.22 input  -65.29 | X-H torsion
[ 10718 10713 10712 10709 ] final -146.95 input   66.30 | X-H torsion
[ 10763 10752 10751 10750 ] final -151.04 input  -60.55 | X-H torsion
[ 11005 11000 10999 10996 ] final   63.37 input  -57.11 | X-H torsion

> <Gold.Protein.ActiveResidues>
 VAL166  LYS551  ARG553  GLY616  TRP617  ASP618  TYR619  PRO620  LYS621  CYS622 
 ASP623  PHE694  ASN695  SER759  ASP760  ASP761  ALA762  ILE779  LEU786  VAL792 
 PHE793  MET794  SER795  GLU796  ALA797  LYS798  CYS799  TRP800  GLU811  SER814 

> <Gold.Protein.RotatedAtoms>
  151.6810  133.3312  159.3219 H   0  0  0  0  0  0  0  0  0  0  0  0  # atno 6907 bound_to 6896
  150.7823  134.6781  159.6438 H   0  0  0  0  0  0  0  0  0  0  0  0  # atno 6908 bound_to 6896
  152.3883  134.6485  160.0169 H   0  0  0  0  0  0  0  0  0  0  0  0  # atno 6909 bound_to 6896
  144.7165  140.0292  143.6439 H   0  0  0  0  0  0  0  0  0  0  0  0  # atno 7974 bound_to 7965
  155.2046  140.0417  157.2923 H   0  0  0  0  0  0  0  0  0  0  0  0  # atno 8008 bound_to 7997
  154.6052  140.2462  155.7712 H   0  0  0  0  0  0  0  0  0  0  0  0  # atno 8009 bound_to 7997
  156.2345  140.2926  156.0286 H   0  0  0  0  0  0  0  0  0  0  0  0  # atno 8010 bound_to 7997
  140.0925  143.4687  152.1861 H   0  0  0  0  0  0  0  0  0  0  0  0  # atno 10167 bound_to 10162
  156.4013  130.7935  151.2146 H   0  0  0  0  0  0  0  0  0  0  0  0  # atno 10718 bound_to 10713
  154.8082  135.3269  154.7375 H   0  0  0  0  0  0  0  0  0  0  0  0  # atno 10763 bound_to 10752
  153.8029  135.6902  153.4857 H   0  0  0  0  0  0  0  0  0  0  0  0  # atno 10764 bound_to 10752
  153.1842  135.4575  155.0013 H   0  0  0  0  0  0  0  0  0  0  0  0  # atno 10765 bound_to 10752
  140.0029  134.6414  155.9901 H   0  0  0  0  0  0  0  0  0  0  0  0  # atno 11005 bound_to 11000
  146.0116  139.3175  143.0867 LP  0  0  0  0  0  0  0  0  0  0  0  0  # atno 17320 bound_to 7965
  145.8674  140.9440  143.0668 LP  0  0  0  0  0  0  0  0  0  0  0  0  # atno 17321 bound_to 7965
  139.5717  144.7466  151.3874 LP  0  0  0  0  0  0  0  0  0  0  0  0  # atno 17342 bound_to 10162
  140.7021  143.7605  150.7420 LP  0  0  0  0  0  0  0  0  0  0  0  0  # atno 17343 bound_to 10162
  157.7504  131.0286  150.4055 LP  0  0  0  0  0  0  0  0  0  0  0  0  # atno 17370 bound_to 10713
  156.4335  130.3977  149.6744 LP  0  0  0  0  0  0  0  0  0  0  0  0  # atno 17371 bound_to 10713
  141.1655  133.6537  156.4466 LP  0  0  0  0  0  0  0  0  0  0  0  0  # atno 17394 bound_to 11000
  140.4694  134.6767  157.5122 LP  0  0  0  0  0  0  0  0  0  0  0  0  # atno 17395 bound_to 11000

$$$$
