AV-unprocessed.smi:1157|AV-procd|sdf|4910|dock6
  -GOLD-   22720 3483D 1   1.00000     0.00000
 Structure written by MMmdl.
 55 57  0  0  0  0  0  0  0  0  4 V2000
  144.1268  135.5084  152.8609 C   0  0  0  0  0  0  0  0  0  0  0  0
  145.4976  136.1177  152.4424 C   0  0  0  0  0  0  0  0  0  0  0  0
  145.6939  135.7164  150.9504 C   0  0  0  0  0  0  0  0  0  0  0  0
  145.4780  137.6894  152.5974 C   0  0  0  0  0  0  0  0  0  0  0  0
  146.8304  138.2534  152.6718 N   0  5  0  0  0  0  0  0  0  0  0  0
  147.2164  139.2530  153.5089 C   0  0  0  0  0  0  0  0  0  0  0  0
  146.5430  140.2149  153.8951 O   0  0  0  0  0  0  0  0  0  0  0  0
  148.4943  139.1129  153.9051 N   0  0  0  0  0  0  0  0  0  0  0  0
  149.2734  139.9636  154.7346 C   0  0  0  0  0  0  0  0  0  0  0  0
  150.3957  139.4045  155.3802 C   0  0  0  0  0  0  0  0  0  0  0  0
  151.1936  140.2082  156.2196 C   0  0  0  0  0  0  0  0  0  0  0  0
  150.8525  141.5667  156.4189 C   0  0  0  0  0  0  0  0  0  0  0  0
  151.6090  142.4317  157.2317 N   0  0  0  0  0  0  0  0  0  0  0  0
  151.3417  143.8595  157.2898 C   0  0  0  0  0  0  0  0  0  0  0  0
  152.2902  144.3830  158.3674 C   0  0  0  0  0  0  0  0  0  0  0  0
  152.3902  143.2087  159.3419 C   0  0  0  0  0  0  0  0  0  0  0  0
  152.2580  141.9683  158.4496 C   0  0  0  0  0  0  0  0  0  0  0  0
  149.7563  142.0571  155.7927 N   0  3  0  0  0  0  0  0  0  0  0  0
  148.9659  141.3227  154.9800 C   0  0  0  0  0  0  0  0  0  0  0  0
  146.5881  135.4521  153.2653 N   0  3  0  0  0  0  0  0  0  0  0  0
  146.7392  135.8807  154.6900 C   0  0  0  0  0  0  0  0  0  0  0  0
  148.0516  135.3387  155.2791 C   0  0  0  0  0  0  0  0  0  0  0  0
  148.0779  133.9223  155.1730 O   0  0  0  0  0  0  0  0  0  0  0  0
  148.0306  133.4959  153.8188 C   0  0  0  0  0  0  0  0  0  0  0  0
  146.7179  133.9652  153.1704 C   0  0  0  0  0  0  0  0  0  0  0  0
  143.3267  135.7730  152.1667 H   0  0  0  0  0  0  0  0  0  0  0  0
  143.7885  135.8244  153.8493 H   0  0  0  0  0  0  0  0  0  0  0  0
  144.1735  134.4188  152.8700 H   0  0  0  0  0  0  0  0  0  0  0  0
  144.8269  135.9679  150.3362 H   0  0  0  0  0  0  0  0  0  0  0  0
  145.8328  134.6389  150.8537 H   0  0  0  0  0  0  0  0  0  0  0  0
  146.5515  136.1962  150.4754 H   0  0  0  0  0  0  0  0  0  0  0  0
  144.9394  138.1170  151.7520 H   0  0  0  0  0  0  0  0  0  0  0  0
  144.8751  137.9455  153.4691 H   0  0  0  0  0  0  0  0  0  0  0  0
  148.9919  138.3437  153.4809 H   0  0  0  0  0  0  0  0  0  0  0  0
  150.6533  138.3667  155.2254 H   0  0  0  0  0  0  0  0  0  0  0  0
  152.0612  139.7736  156.6933 H   0  0  0  0  0  0  0  0  0  0  0  0
  151.5169  144.3439  156.3286 H   0  0  0  0  0  0  0  0  0  0  0  0
  150.3025  144.0240  157.5781 H   0  0  0  0  0  0  0  0  0  0  0  0
  153.2704  144.5834  157.9320 H   0  0  0  0  0  0  0  0  0  0  0  0
  151.9351  145.3009  158.8365 H   0  0  0  0  0  0  0  0  0  0  0  0
  153.3124  143.2157  159.9233 H   0  0  0  0  0  0  0  0  0  0  0  0
  151.5539  143.2461  160.0415 H   0  0  0  0  0  0  0  0  0  0  0  0
  151.6870  141.1857  158.9507 H   0  0  0  0  0  0  0  0  0  0  0  0
  153.2402  141.5687  158.1952 H   0  0  0  0  0  0  0  0  0  0  0  0
  148.1187  141.8509  154.5688 H   0  0  0  0  0  0  0  0  0  0  0  0
  146.7554  136.9641  154.7877 H   0  0  0  0  0  0  0  0  0  0  0  0
  145.9028  135.5182  155.2890 H   0  0  0  0  0  0  0  0  0  0  0  0
  148.9150  135.7718  154.7711 H   0  0  0  0  0  0  0  0  0  0  0  0
  148.1315  135.6132  156.3311 H   0  0  0  0  0  0  0  0  0  0  0  0
  148.8945  133.8777  153.2722 H   0  0  0  0  0  0  0  0  0  0  0  0
  148.0936  132.4081  153.7914 H   0  0  0  0  0  0  0  0  0  0  0  0
  145.8801  133.4759  153.6685 H   0  0  0  0  0  0  0  0  0  0  0  0
  146.7176  133.6240  152.1374 H   0  0  0  0  0  0  0  0  0  0  0  0
  147.4305  135.7922  152.8246 H   0  0  0  0  0  0  0  0  0  0  0  0
  149.5108  143.0356  155.9424 H   0  0  0  0  0  0  0  0  0  0  0  0
  1  2  1  0  0  0  0
  1 26  1  0  0  0  0
  1 27  1  0  0  0  0
  1 28  1  0  0  0  0
  2  3  1  0  0  0  0
  2  4  1  0  0  0  0
  2 20  1  0  0  0  0
  3 29  1  0  0  0  0
  3 30  1  0  0  0  0
  3 31  1  0  0  0  0
  4  5  1  0  0  0  0
  4 32  1  0  0  0  0
  4 33  1  0  0  0  0
  5  6  1  0  0  0  0
  6  7  2  0  0  0  0
  6  8  1  0  0  0  0
  8  9  1  0  0  0  0
  8 34  1  0  0  0  0
  9 19  1  0  0  0  0
  9 10  2  0  0  0  0
 10 11  1  0  0  0  0
 10 35  1  0  0  0  0
 11 12  2  0  0  0  0
 11 36  1  0  0  0  0
 12 13  1  0  0  0  0
 12 18  1  0  0  0  0
 13 17  1  0  0  0  0
 13 14  1  0  0  0  0
 14 15  1  0  0  0  0
 14 37  1  0  0  0  0
 14 38  1  0  0  0  0
 15 16  1  0  0  0  0
 15 39  1  0  0  0  0
 15 40  1  0  0  0  0
 16 17  1  0  0  0  0
 16 41  1  0  0  0  0
 16 42  1  0  0  0  0
 17 43  1  0  0  0  0
 17 44  1  0  0  0  0
 18 19  2  0  0  0  0
 18 55  1  0  0  0  0
 19 45  1  0  0  0  0
 20 25  1  0  0  0  0
 20 21  1  0  0  0  0
 20 54  1  0  0  0  0
 21 22  1  0  0  0  0
 21 46  1  0  0  0  0
 21 47  1  0  0  0  0
 22 23  1  0  0  0  0
 22 48  1  0  0  0  0
 22 49  1  0  0  0  0
 23 24  1  0  0  0  0
 24 25  1  0  0  0  0
 24 50  1  0  0  0  0
 24 51  1  0  0  0  0
 25 52  1  0  0  0  0
 25 53  1  0  0  0  0
M  CHG  1   5  -1
M  CHG  1  18   1
M  CHG  1  20   1
M  END
> <s_m_source_file>
AV-unprocessed.smi

> <i_m_source_file_index>
1157

> <i_lp_mmshare_version>
43012

> <i_f3d_flags>
0

> <s_epik_input>
W0NIMl0xW0NIMl1PW0NIMl1bQ0gyXU4xQyhbQ0gzXSkoW0NIM10pW0NIMl1bTkhdQyg9TylbTkhdYzJbY0hdW2NIXWMobltjSF0yKU4zW0NIMl1bQ0gyXVtDSDJdW0NIMl0z

> <s_epik_cmdline>
J2VwaWtfcHl0aG9uJywgJy1waCcsICc3LjAnLCAnLXRuJywgJzgnLCAnLW1hJywgJzIwMCcsICctbWV0YWxfYmluZGluZycsICctaW1hZScsICc8aW5maWxlLm1hZT4nLCAnLW9tYWUnLCAnPG91dGZpbGUubWFlPic=

> <r_lp_tautomer_probability>
0.999994

> <r_epik_Ionization_Penalty>
8.57565

> <r_epik_Ionization_Penalty_Charging>
8.57565

> <r_epik_Ionization_Penalty_Neutral>
3.57932e-06

> <r_epik_State_Penalty>
8.56988

> <r_epik_Charging_Adjusted_Penalty>
17.1455

> <i_epik_Tot_Q>
1

> <i_epik_Tot_abs_Q>
3

> <r_epik_Metal_State_Penalty>
4.56714

> <b_epik_Metal_Only>
1

> <s_lp_Force_Field>
OPLS_2005

> <r_lp_Energy>
57.9076

> <b_lp_Chiralities_Consistent>
1

> <s_lp_Variant>
AV-unprocessed.smi:1157-5

> <Gold.Version>
5.8.1

> <Gold.Id.Protein>
6NUR|6NUR_protein|mol2

> <Gold.PLP.Fitness>
52.0936

> <Gold.PLP.PLP>
-42.0551

> <Gold.PLP.part.hbond>
-3.0000

> <Gold.PLP.part.metal>
0.0000

> <Gold.PLP.part.buried>
-3.4475

> <Gold.PLP.part.nonpolar>
-37.1918

> <Gold.PLP.part.repulsive>
0.9558

> <Gold.PLP.ligand.clash>
0.0000

> <Gold.PLP.ligand.torsion>
1.1808

> <Gold.PLP.Chemscore.Hbond>
4.0000

> <Gold.PLP.Chemscore.CHOScore>
0.0000

> <Gold.PLP.Chemscore.Metal>
0.0000

> <Gold.Chemscore.Hbonds>
donor molecule, donor type, donor heavy atom, donor atom, acceptor molecule, acceptor atom, score
      L1  H    18    55       P1  8028  2.00
      L1  H    20    54       P1  7948  2.00

> <Gold.PLP.Chemscore.Internal.Correction>
0.4001

> <Gold.Rescore>
     Score         DG    S(hbond)    S(metal)    S(lipo)     H(rot)  DE(clash)    DE(int)     intcor
     18.00     -21.17       1.99        0.00     108.47       1.42       0.81       2.35       ----

> <Gold.Chemscore.Fitness>
18.0046

> <Gold.Chemscore.DG>
-21.1664

> <Gold.Chemscore.ZeroCoef>
-5.4800

> <Gold.Chemscore.Hbond>
1.9884

> <Gold.Chemscore.Metal>
0.0000

> <Gold.Chemscore.Lipo>
108.4739

> <Gold.Chemscore.Internal_Hbond>
0.0000

> <Gold.Chemscore.DEClash>
0.8089

> <Gold.Chemscore.DEInternal>
2.3529

> <Gold.Chemscore.Rot>
1.4243

> <Gold.Chemscore.Internal.Correction>
   9.000000E+99

> <Gold.Chemscore.Hbonds>
donor molecule, donor type, donor heavy atom, donor atom, acceptor molecule, acceptor atom, score
      L1  H    18    55       P1  8028  1.00
      L1  H    20    54       P1  7948  1.00

> <Gold.Chemscore.Hbond.Weighted>
-6.6412

> <Gold.Chemscore.Metal.Weighted>
-0.0000

> <Gold.Chemscore.Lipo.Weighted>
-12.6914

> <Gold.Chemscore.Internal_Hbond.Weighted>
0.0000

> <Gold.Chemscore.DEClash.Weighted>
0.8089

> <Gold.Chemscore.DEInternal.Weighted>
2.3529

> <Gold.Chemscore.Rot.Weighted>
3.6462

> <Gold.Chemscore.Internal.Correction.Weighted>
   9.000000E+99

> <Gold.Protein.RotatedTorsions>
[ 6907 6896 6895 6894 ] final -120.13 input  -60.11 | X-H torsion
[ 7974 7965 7964 7962 ] final  -61.18 input  175.53 | X-H torsion
[ 8008 7997 7996 7995 ] final   35.01 input   59.86 | X-H torsion
[ 10167 10162 10161 10158 ] final  -11.32 input  -65.29 | X-H torsion
[ 10718 10713 10712 10709 ] final   39.73 input   66.30 | X-H torsion
[ 10763 10752 10751 10750 ] final  -60.35 input  -60.55 | X-H torsion
[ 11005 11000 10999 10996 ] final  -60.82 input  -57.11 | X-H torsion

> <Gold.Protein.ActiveResidues>
 VAL166  LYS551  ARG553  GLY616  TRP617  ASP618  TYR619  PRO620  LYS621  CYS622 
 ASP623  PHE694  ASN695  SER759  ASP760  ASP761  ALA762  ILE779  LEU786  VAL792 
 PHE793  MET794  SER795  GLU796  ALA797  LYS798  CYS799  TRP800  GLU811  SER814 

> <Gold.Protein.RotatedAtoms>
  150.8366  133.8004  159.3077 H   0  0  0  0  0  0  0  0  0  0  0  0  # atno 6907 bound_to 6896
  151.5718  135.1060  160.0006 H   0  0  0  0  0  0  0  0  0  0  0  0  # atno 6908 bound_to 6896
  152.4437  133.7454  159.6720 H   0  0  0  0  0  0  0  0  0  0  0  0  # atno 6909 bound_to 6896
  145.8065  140.8624  143.0204 H   0  0  0  0  0  0  0  0  0  0  0  0  # atno 7974 bound_to 7965
  155.1642  140.3286  155.4405 H   0  0  0  0  0  0  0  0  0  0  0  0  # atno 8008 bound_to 7997
  156.2532  140.1955  156.6698 H   0  0  0  0  0  0  0  0  0  0  0  0  # atno 8009 bound_to 7997
  154.6383  140.0573  156.9802 H   0  0  0  0  0  0  0  0  0  0  0  0  # atno 8010 bound_to 7997
  140.7135  143.5652  150.9152 H   0  0  0  0  0  0  0  0  0  0  0  0  # atno 10167 bound_to 10162
  157.3740  130.7717  149.7140 H   0  0  0  0  0  0  0  0  0  0  0  0  # atno 10718 bound_to 10713
  154.2679  135.6296  153.5299 H   0  0  0  0  0  0  0  0  0  0  0  0  # atno 10763 bound_to 10752
  152.9885  135.5603  154.5632 H   0  0  0  0  0  0  0  0  0  0  0  0  # atno 10764 bound_to 10752
  154.5196  135.2881  155.1249 H   0  0  0  0  0  0  0  0  0  0  0  0  # atno 10765 bound_to 10752
  141.1301  133.6625  156.5281 H   0  0  0  0  0  0  0  0  0  0  0  0  # atno 11005 bound_to 11000
  144.6762  140.0334  143.7482 LP  0  0  0  0  0  0  0  0  0  0  0  0  # atno 17320 bound_to 7965
  145.9822  139.2950  143.1035 LP  0  0  0  0  0  0  0  0  0  0  0  0  # atno 17321 bound_to 7965
  139.9378  143.6417  152.3061 LP  0  0  0  0  0  0  0  0  0  0  0  0  # atno 17342 bound_to 10162
  139.6891  144.7648  151.1470 LP  0  0  0  0  0  0  0  0  0  0  0  0  # atno 17343 bound_to 10162
  155.9761  130.4080  150.3801 LP  0  0  0  0  0  0  0  0  0  0  0  0  # atno 17370 bound_to 10713
  157.1895  131.0412  151.2707 LP  0  0  0  0  0  0  0  0  0  0  0  0  # atno 17371 bound_to 10713
  140.4238  134.7163  157.4904 LP  0  0  0  0  0  0  0  0  0  0  0  0  # atno 17394 bound_to 11000
  140.0341  134.6363  155.9067 LP  0  0  0  0  0  0  0  0  0  0  0  0  # atno 17395 bound_to 11000

$$$$
