AV-unprocessed.smi:1782|AV-procd|sdf|7191|dock5
  -GOLD-   22720 8433D 1   1.00000     0.00000
 Structure written by MMmdl.
 42 44  0  0  0  0  0  0  0  0  2 V2000
  148.7771  141.2458  156.8556 O   0  0  0  0  0  0  0  0  0  0  0  0
  149.4790  140.8892  155.9085 C   0  0  0  0  0  0  0  0  0  0  0  0
  151.0101  140.9189  156.0141 C   0  0  0  0  0  0  0  0  0  0  0  0
  151.4895  141.7153  157.1571 N   0  0  0  0  0  0  0  0  0  0  0  0
  151.0540  143.0504  157.2334 C   0  0  0  0  0  0  0  0  0  0  0  0
  151.4381  143.8615  158.2282 C   0  0  0  0  0  0  0  0  0  0  0  0
  152.3243  143.3329  159.2363 C   0  0  0  0  0  0  0  0  0  0  0  0
  152.7597  142.0524  159.1902 C   0  0  0  0  0  0  0  0  0  0  0  0
  153.7076  141.4805  160.2420 C   0  0  0  0  0  0  0  0  0  0  0  0
  154.9668  141.5189  159.8049 F   0  0  0  0  0  0  0  0  0  0  0  0
  153.6373  142.1848  161.3724 F   0  0  0  0  0  0  0  0  0  0  0  0
  153.4156  140.2122  160.5345 F   0  0  0  0  0  0  0  0  0  0  0  0
  152.3269  141.1655  158.0909 C   0  0  0  0  0  0  0  0  0  0  0  0
  152.6935  139.9918  158.0063 O   0  0  0  0  0  0  0  0  0  0  0  0
  148.9726  140.4463  154.7482 N   0  0  0  0  0  0  0  0  0  0  0  0
  147.5484  140.3688  154.4429 C   0  0  1  0  0  0  0  0  0  0  0  0
  146.7179  139.6226  155.4919 C   0  0  0  0  0  0  0  0  0  0  0  0
  145.3337  140.2911  155.4398 C   0  0  0  0  0  0  0  0  0  0  0  0
  145.4569  141.4616  154.5400 N   0  3  1  0  0  0  0  0  0  0  0  0
  144.6392  142.6258  154.9407 C   0  0  0  0  0  0  0  0  0  0  0  0
  145.0367  143.9078  154.2490 C   0  0  0  0  0  0  0  0  0  0  0  0
  145.4153  143.6777  155.6962 C   0  0  0  0  0  0  0  0  0  0  0  0
  146.8967  141.7479  154.4187 C   0  0  0  0  0  0  0  0  0  0  0  0
  151.3639  139.8894  156.0828 H   0  0  0  0  0  0  0  0  0  0  0  0
  151.4377  141.3058  155.0870 H   0  0  0  0  0  0  0  0  0  0  0  0
  150.3989  143.3709  156.4362 H   0  0  0  0  0  0  0  0  0  0  0  0
  151.0972  144.8854  158.2712 H   0  0  0  0  0  0  0  0  0  0  0  0
  152.6402  143.9872  160.0349 H   0  0  0  0  0  0  0  0  0  0  0  0
  149.6179  140.1644  154.0239 H   0  0  0  0  0  0  0  0  0  0  0  0
  147.4070  139.8987  153.4672 H   0  0  0  0  0  0  0  0  0  0  0  0
  146.6710  138.5514  155.2933 H   0  0  0  0  0  0  0  0  0  0  0  0
  147.1489  139.7550  156.4857 H   0  0  0  0  0  0  0  0  0  0  0  0
  144.5729  139.6133  155.0517 H   0  0  0  0  0  0  0  0  0  0  0  0
  145.0273  140.5948  156.4422 H   0  0  0  0  0  0  0  0  0  0  0  0
  143.5956  142.4287  155.1804 H   0  0  0  0  0  0  0  0  0  0  0  0
  145.8332  143.8680  153.5079 H   0  0  0  0  0  0  0  0  0  0  0  0
  144.2519  144.6346  154.0486 H   0  0  0  0  0  0  0  0  0  0  0  0
  144.8796  144.2534  156.4485 H   0  0  0  0  0  0  0  0  0  0  0  0
  146.4639  143.4858  155.9173 H   0  0  0  0  0  0  0  0  0  0  0  0
  147.2271  142.3442  155.2718 H   0  0  0  0  0  0  0  0  0  0  0  0
  147.1201  142.3021  153.5063 H   0  0  0  0  0  0  0  0  0  0  0  0
  145.1448  141.1598  153.6280 H   0  0  0  0  0  0  0  0  0  0  0  0
  1  2  2  0  0  0  0
  2  3  1  0  0  0  0
  2 15  1  0  0  0  0
  3  4  1  0  0  0  0
  3 24  1  0  0  0  0
  3 25  1  0  0  0  0
  4 13  1  0  0  0  0
  4  5  1  0  0  0  0
  5  6  2  0  0  0  0
  5 26  1  0  0  0  0
  6  7  1  0  0  0  0
  6 27  1  0  0  0  0
  7  8  2  0  0  0  0
  7 28  1  0  0  0  0
  8  9  1  0  0  0  0
  8 13  1  0  0  0  0
  9 10  1  0  0  0  0
  9 11  1  0  0  0  0
  9 12  1  0  0  0  0
 13 14  2  0  0  0  0
 15 16  1  0  0  0  0
 15 29  1  0  0  0  0
 16 23  1  0  0  0  0
 16 17  1  0  0  0  0
 16 30  1  0  0  0  0
 17 18  1  0  0  0  0
 17 31  1  0  0  0  0
 17 32  1  0  0  0  0
 18 19  1  0  0  0  0
 18 33  1  0  0  0  0
 18 34  1  0  0  0  0
 19 20  1  0  0  0  0
 19 23  1  0  0  0  0
 19 42  1  0  0  0  0
 20 22  1  0  0  0  0
 20 21  1  0  0  0  0
 20 35  1  0  0  0  0
 21 22  1  0  0  0  0
 21 36  1  0  0  0  0
 21 37  1  0  0  0  0
 22 38  1  0  0  0  0
 22 39  1  0  0  0  0
 23 40  1  0  0  0  0
 23 41  1  0  0  0  0
M  CHG  1  19   1
M  END
> <s_m_source_file>
AV-unprocessed.smi

> <i_m_source_file_index>
1782

> <i_lp_mmshare_version>
43012

> <i_f3d_flags>
0

> <s_epik_input>
W0NIMl0xW0NIMl1bQ0hdMU4oW0NIMl0yKVtDSDJdW0NIMl1bQ0BIXTJbTkhdQyg9TylbQ0gyXW4zW2NIXVtjSF1bY0hdYyhDKEYpKEYpRiljMz1P

> <s_epik_cmdline>
J2VwaWtfcHl0aG9uJywgJy1waCcsICc3LjAnLCAnLXRuJywgJzgnLCAnLW1hJywgJzIwMCcsICctbWV0YWxfYmluZGluZycsICctaW1hZScsICc8aW5maWxlLm1hZT4nLCAnLW9tYWUnLCAnPG91dGZpbGUubWFlPic=

> <r_lp_tautomer_probability>
1

> <r_epik_Ionization_Penalty>
0.00106789

> <r_epik_Ionization_Penalty_Charging>
0.00106781

> <r_epik_Ionization_Penalty_Neutral>
8.2288e-08

> <r_epik_State_Penalty>
0.000699156

> <r_epik_Charging_Adjusted_Penalty>
0.00176697

> <i_epik_Tot_Q>
1

> <i_epik_Tot_abs_Q>
1

> <r_epik_Metal_State_Penalty>
-0

> <b_epik_Metal_Only>
0

> <s_lp_Force_Field>
OPLS_2005

> <r_lp_Energy>
45.6714

> <b_lp_Chiralities_Consistent>
1

> <s_lp_Variant>
AV-unprocessed.smi:1782-4

> <Gold.Version>
5.8.1

> <Gold.Id.Protein>
6NUR|6NUR_protein|mol2

> <Gold.PLP.Fitness>
51.1211

> <Gold.PLP.PLP>
-41.3159

> <Gold.PLP.part.hbond>
-2.0000

> <Gold.PLP.part.metal>
0.0000

> <Gold.PLP.part.buried>
-6.8108

> <Gold.PLP.part.nonpolar>
-33.7793

> <Gold.PLP.part.repulsive>
0.1799

> <Gold.PLP.ligand.clash>
0.0768

> <Gold.PLP.ligand.torsion>
1.8306

> <Gold.PLP.Chemscore.Hbond>
2.9840

> <Gold.PLP.Chemscore.CHOScore>
1.0000

> <Gold.PLP.Chemscore.Metal>
0.0000

> <Gold.Chemscore.Hbonds>
donor molecule, donor type, donor heavy atom, donor atom, acceptor molecule, acceptor atom, score
      L1  H    19    42       P1 10175  1.95
      P1  H  7997  8008       L1    14  0.80
      L1  C     5    26       P1  8028  1.00

> <Gold.PLP.Chemscore.Internal.Correction>
1.5912

> <Gold.Rescore>
     Score         DG    S(hbond)    S(metal)    S(lipo)     H(rot)  DE(clash)    DE(int)     intcor
     10.75     -16.08       1.71        0.00      81.45       1.81       0.30       5.03       ----

> <Gold.Chemscore.Fitness>
10.7458

> <Gold.Chemscore.DG>
-16.0768

> <Gold.Chemscore.ZeroCoef>
-5.4800

> <Gold.Chemscore.Hbond>
1.7067

> <Gold.Chemscore.Metal>
0.0000

> <Gold.Chemscore.Lipo>
81.4546

> <Gold.Chemscore.Internal_Hbond>
0.0000

> <Gold.Chemscore.DEClash>
0.3000

> <Gold.Chemscore.DEInternal>
5.0309

> <Gold.Chemscore.Rot>
1.8101

> <Gold.Chemscore.Internal.Correction>
   9.000000E+99

> <Gold.Chemscore.Hbonds>
donor molecule, donor type, donor heavy atom, donor atom, acceptor molecule, acceptor atom, score
      L1  H    19    42       P1 10175  0.46
      P1  H  7997  8008       L1    14  0.39

> <Gold.Chemscore.Hbond.Weighted>
-5.7004

> <Gold.Chemscore.Metal.Weighted>
-0.0000

> <Gold.Chemscore.Lipo.Weighted>
-9.5302

> <Gold.Chemscore.Internal_Hbond.Weighted>
0.0000

> <Gold.Chemscore.DEClash.Weighted>
0.3000

> <Gold.Chemscore.DEInternal.Weighted>
5.0309

> <Gold.Chemscore.Rot.Weighted>
4.6338

> <Gold.Chemscore.Internal.Correction.Weighted>
   9.000000E+99

> <Gold.Protein.RotatedTorsions>
[ 6907 6896 6895 6894 ] final   88.09 input  -60.11 | X-H torsion
[ 7974 7965 7964 7962 ] final   41.13 input  175.53 | X-H torsion
[ 8008 7997 7996 7995 ] final  -77.39 input   59.86 | X-H torsion
[ 10167 10162 10161 10158 ] final -104.54 input  -65.29 | X-H torsion
[ 10718 10713 10712 10709 ] final -131.39 input   66.30 | X-H torsion
[ 10763 10752 10751 10750 ] final  175.68 input  -60.55 | X-H torsion
[ 11005 11000 10999 10996 ] final -138.00 input  -57.11 | X-H torsion

> <Gold.Protein.ActiveResidues>
 VAL166  LYS551  ARG553  GLY616  TRP617  ASP618  TYR619  PRO620  LYS621  CYS622 
 ASP623  PHE694  ASN695  SER759  ASP760  ASP761  ALA762  ILE779  LEU786  VAL792 
 PHE793  MET794  SER795  GLU796  ALA797  LYS798  CYS799  TRP800  GLU811  SER814 

> <Gold.Protein.RotatedAtoms>
  152.5420  134.2175  159.8774 H   0  0  0  0  0  0  0  0  0  0  0  0  # atno 6907 bound_to 6896
  151.2154  133.4525  159.2607 H   0  0  0  0  0  0  0  0  0  0  0  0  # atno 6908 bound_to 6896
  151.0857  134.9898  159.8433 H   0  0  0  0  0  0  0  0  0  0  0  0  # atno 6909 bound_to 6896
  146.0849  139.5452  142.9513 H   0  0  0  0  0  0  0  0  0  0  0  0  # atno 7974 bound_to 7965
  154.5592  140.0711  156.8792 H   0  0  0  0  0  0  0  0  0  0  0  0  # atno 8008 bound_to 7997
  155.2843  140.3374  155.4238 H   0  0  0  0  0  0  0  0  0  0  0  0  # atno 8009 bound_to 7997
  156.2028  140.1728  156.7849 H   0  0  0  0  0  0  0  0  0  0  0  0  # atno 8010 bound_to 7997
  140.2082  143.3767  152.1073 H   0  0  0  0  0  0  0  0  0  0  0  0  # atno 10167 bound_to 10162
  156.2239  130.6996  151.0786 H   0  0  0  0  0  0  0  0  0  0  0  0  # atno 10718 bound_to 10713
  154.4709  135.2771  155.1643 H   0  0  0  0  0  0  0  0  0  0  0  0  # atno 10763 bound_to 10752
  154.3392  135.6173  153.5592 H   0  0  0  0  0  0  0  0  0  0  0  0  # atno 10764 bound_to 10752
  152.9864  135.5784  154.5090 H   0  0  0  0  0  0  0  0  0  0  0  0  # atno 10765 bound_to 10752
  140.8658  134.2113  157.4681 H   0  0  0  0  0  0  0  0  0  0  0  0  # atno 11005 bound_to 11000
  145.6149  141.0333  143.1946 LP  0  0  0  0  0  0  0  0  0  0  0  0  # atno 17320 bound_to 7965
  144.7319  139.7701  143.7344 LP  0  0  0  0  0  0  0  0  0  0  0  0  # atno 17321 bound_to 7965
  139.5190  144.7014  151.5483 LP  0  0  0  0  0  0  0  0  0  0  0  0  # atno 17342 bound_to 10162
  140.6342  143.9016  150.6633 LP  0  0  0  0  0  0  0  0  0  0  0  0  # atno 17343 bound_to 10162
  157.7101  131.0738  150.6531 LP  0  0  0  0  0  0  0  0  0  0  0  0  # atno 17370 bound_to 10713
  156.6595  130.4508  149.5692 LP  0  0  0  0  0  0  0  0  0  0  0  0  # atno 17371 bound_to 10713
  139.8709  134.9751  156.4870 LP  0  0  0  0  0  0  0  0  0  0  0  0  # atno 17394 bound_to 11000
  140.8631  133.8045  155.9285 LP  0  0  0  0  0  0  0  0  0  0  0  0  # atno 17395 bound_to 11000

$$$$
