AV-unprocessed.smi:95|AV-procd|sdf|858|dock1
  -GOLD-   2262017303D 1   1.00000     0.00000
 Structure written by MMmdl.
 42 45  0  0  0  0  0  0  0  0  2 V2000
  151.9257  140.3129  154.6573 O   0  0  0  0  0  0  0  0  0  0  0  0
  150.8646  139.6869  154.6946 C   0  0  0  0  0  0  0  0  0  0  0  0
  150.7547  138.2679  154.3788 C   0  0  0  0  0  0  0  0  0  0  0  0
  151.8565  137.5744  154.0465 F   0  0  0  0  0  0  0  0  0  0  0  0
  149.5651  137.6309  154.4362 C   0  0  0  0  0  0  0  0  0  0  0  0
  148.3777  138.2645  154.7690 N   0  0  0  0  0  0  0  0  0  0  0  0
  147.0809  137.4967  154.9302 C   0  0  1  0  0  0  0  0  0  0  0  0
  145.8983  138.0749  154.1333 C   0  0  0  0  0  0  0  0  0  0  0  0
  145.7830  137.1033  152.9749 C   0  0  0  0  0  0  0  0  0  0  0  0
  146.2461  135.8025  153.6191 C   0  0  0  0  0  0  0  0  0  0  0  0
  147.3088  136.1948  154.4786 O   0  0  0  0  0  0  0  0  0  0  0  0
  148.4063  139.6228  155.1607 C   0  0  0  0  0  0  0  0  0  0  0  0
  147.3877  140.1855  155.5686 O   0  0  0  0  0  0  0  0  0  0  0  0
  149.6473  140.2989  155.0769 N   0  0  0  0  0  0  0  0  0  0  0  0
  149.7053  141.6995  155.4621 C   0  0  0  0  0  0  0  0  0  0  0  0
  150.4188  141.9667  156.7795 C   0  0  0  0  0  0  0  0  0  0  0  0
  151.1744  140.9830  157.4557 C   0  0  0  0  0  0  0  0  0  0  0  0
  151.8146  141.3154  158.6668 C   0  0  0  0  0  0  0  0  0  0  0  0
  151.6853  142.6239  159.1788 C   0  0  0  0  0  0  0  0  0  0  0  0
  152.3096  142.9964  160.3868 C   0  0  0  0  0  0  0  0  0  0  0  0
  152.1638  144.3095  160.8774 C   0  0  0  0  0  0  0  0  0  0  0  0
  151.3959  145.2523  160.1646 C   0  0  0  0  0  0  0  0  0  0  0  0
  150.7699  144.8870  158.9562 C   0  0  0  0  0  0  0  0  0  0  0  0
  150.9145  143.5748  158.4637 C   0  0  0  0  0  0  0  0  0  0  0  0
  150.3212  143.2083  157.3062 N   0  3  0  0  0  0  0  0  0  0  0  0
  149.5661  136.5751  154.2175 H   0  0  0  0  0  0  0  0  0  0  0  0
  146.8554  137.5057  155.9978 H   0  0  0  0  0  0  0  0  0  0  0  0
  145.0061  138.0093  154.7575 H   0  0  0  0  0  0  0  0  0  0  0  0
  146.0307  139.1194  153.8512 H   0  0  0  0  0  0  0  0  0  0  0  0
  144.7729  137.0410  152.5693 H   0  0  0  0  0  0  0  0  0  0  0  0
  146.4582  137.3823  152.1657 H   0  0  0  0  0  0  0  0  0  0  0  0
  145.4456  135.3648  154.2174 H   0  0  0  0  0  0  0  0  0  0  0  0
  146.5726  135.0617  152.8889 H   0  0  0  0  0  0  0  0  0  0  0  0
  150.1853  142.2301  154.6369 H   0  0  0  0  0  0  0  0  0  0  0  0
  148.6926  142.1018  155.4967 H   0  0  0  0  0  0  0  0  0  0  0  0
  151.2661  139.9839  157.0553 H   0  0  0  0  0  0  0  0  0  0  0  0
  152.3964  140.5720  159.1924 H   0  0  0  0  0  0  0  0  0  0  0  0
  152.9002  142.2808  160.9406 H   0  0  0  0  0  0  0  0  0  0  0  0
  152.6419  144.5946  161.8033 H   0  0  0  0  0  0  0  0  0  0  0  0
  151.2873  146.2572  160.5457 H   0  0  0  0  0  0  0  0  0  0  0  0
  150.1832  145.6152  158.4150 H   0  0  0  0  0  0  0  0  0  0  0  0
  149.7737  143.9053  156.8016 H   0  0  0  0  0  0  0  0  0  0  0  0
  1  2  2  0  0  0  0
  2 14  1  0  0  0  0
  2  3  1  0  0  0  0
  3  4  1  0  0  0  0
  3  5  2  0  0  0  0
  5  6  1  0  0  0  0
  5 26  1  0  0  0  0
  6  7  1  0  0  0  0
  6 12  1  0  0  0  0
  7 11  1  0  0  0  0
  7  8  1  0  0  0  0
  7 27  1  0  0  0  0
  8  9  1  0  0  0  0
  8 28  1  0  0  0  0
  8 29  1  0  0  0  0
  9 10  1  0  0  0  0
  9 30  1  0  0  0  0
  9 31  1  0  0  0  0
 10 11  1  0  0  0  0
 10 32  1  0  0  0  0
 10 33  1  0  0  0  0
 12 13  2  0  0  0  0
 12 14  1  0  0  0  0
 14 15  1  0  0  0  0
 15 16  1  0  0  0  0
 15 34  1  0  0  0  0
 15 35  1  0  0  0  0
 16 25  1  0  0  0  0
 16 17  2  0  0  0  0
 17 18  1  0  0  0  0
 17 36  1  0  0  0  0
 18 19  2  0  0  0  0
 18 37  1  0  0  0  0
 19 24  1  0  0  0  0
 19 20  1  0  0  0  0
 20 21  2  0  0  0  0
 20 38  1  0  0  0  0
 21 22  1  0  0  0  0
 21 39  1  0  0  0  0
 22 23  2  0  0  0  0
 22 40  1  0  0  0  0
 23 24  1  0  0  0  0
 23 41  1  0  0  0  0
 24 25  2  0  0  0  0
 25 42  1  0  0  0  0
M  CHG  1  25   1
M  END
> <s_m_source_file>
AV-unprocessed.smi

> <i_m_source_file_index>
95

> <i_lp_mmshare_version>
43012

> <i_f3d_flags>
0

> <s_epik_input>
TzFbQ0gyXVtDSDJdW0NIMl1bQ0BIXTFuKFtjSF1jKEYpYzI9TyljKD1PKW4yW0NIMl1jKFtjSF1bY0hdMyluYyhjMzQpW2NIXVtjSF1bY0hdW2NIXTQ=

> <s_epik_cmdline>
J2VwaWtfcHl0aG9uJywgJy1waCcsICc3LjAnLCAnLXRuJywgJzgnLCAnLW1hJywgJzIwMCcsICctbWV0YWxfYmluZGluZycsICctaW1hZScsICc8aW5maWxlLm1hZT4nLCAnLW9tYWUnLCAnPG91dGZpbGUubWFlPic=

> <r_lp_tautomer_probability>
1

> <r_epik_Ionization_Penalty>
1.83445

> <r_epik_Ionization_Penalty_Charging>
1.83445

> <r_epik_Ionization_Penalty_Neutral>
6.33322e-12

> <r_epik_State_Penalty>
1.95069

> <r_epik_Charging_Adjusted_Penalty>
3.78513

> <i_epik_Tot_Q>
1

> <i_epik_Tot_abs_Q>
1

> <r_epik_Metal_State_Penalty>
6.02102

> <b_epik_Metal_Only>
0

> <s_epik_Chemistry_Notes>
This compound contains an acetal/aminal-like group ( X-CH(R)-Y where X, Y are N, S, or O) that may be acid/base labile, releasing an aldehyde.

> <s_lp_Force_Field>
OPLS_2005

> <r_lp_Energy>
36.6829

> <b_lp_Chiralities_Consistent>
1

> <s_lp_Variant>
AV-unprocessed.smi:95-4

> <Gold.Version>
5.8.1

> <Gold.Id.Protein>
6NUR|6NUR_protein|mol2

> <Gold.PLP.Fitness>
51.0380

> <Gold.PLP.PLP>
-41.5388

> <Gold.PLP.part.hbond>
-1.8855

> <Gold.PLP.part.metal>
0.0000

> <Gold.PLP.part.buried>
-3.1204

> <Gold.PLP.part.nonpolar>
-37.4331

> <Gold.PLP.part.repulsive>
0.1673

> <Gold.PLP.ligand.clash>
0.0000

> <Gold.PLP.ligand.torsion>
0.2988

> <Gold.PLP.Chemscore.Hbond>
2.9760

> <Gold.PLP.Chemscore.CHOScore>
0.3566

> <Gold.PLP.Chemscore.Metal>
0.0000

> <Gold.Chemscore.Hbonds>
donor molecule, donor type, donor heavy atom, donor atom, acceptor molecule, acceptor atom, score
      L1  H    25    42       P1  8028  2.00
      P1  H  7989  7998       L1     1  0.25
      L1  C     5    26       P1  7948  0.59

> <Gold.PLP.Chemscore.Internal.Correction>
0.0989

> <Gold.Rescore>
     Score         DG    S(hbond)    S(metal)    S(lipo)     H(rot)  DE(clash)    DE(int)     intcor
     18.46     -20.14       1.89        0.00     104.95       1.54       0.03       1.64       ----

> <Gold.Chemscore.Fitness>
18.4640

> <Gold.Chemscore.DG>
-20.1433

> <Gold.Chemscore.ZeroCoef>
-5.4800

> <Gold.Chemscore.Hbond>
1.8949

> <Gold.Chemscore.Metal>
0.0000

> <Gold.Chemscore.Lipo>
104.9457

> <Gold.Chemscore.Internal_Hbond>
0.0000

> <Gold.Chemscore.DEClash>
0.0348

> <Gold.Chemscore.DEInternal>
1.6445

> <Gold.Chemscore.Rot>
1.5407

> <Gold.Chemscore.Internal.Correction>
   9.000000E+99

> <Gold.Chemscore.Hbonds>
donor molecule, donor type, donor heavy atom, donor atom, acceptor molecule, acceptor atom, score
      L1  H    25    42       P1  8028  0.97
      P1  H  7989  7998       L1     1  0.03

> <Gold.Chemscore.Hbond.Weighted>
-6.3289

> <Gold.Chemscore.Metal.Weighted>
-0.0000

> <Gold.Chemscore.Lipo.Weighted>
-12.2786

> <Gold.Chemscore.Internal_Hbond.Weighted>
0.0000

> <Gold.Chemscore.DEClash.Weighted>
0.0348

> <Gold.Chemscore.DEInternal.Weighted>
1.6445

> <Gold.Chemscore.Rot.Weighted>
3.9443

> <Gold.Chemscore.Internal.Correction.Weighted>
   9.000000E+99

> <Gold.Protein.RotatedTorsions>
[ 6907 6896 6895 6894 ] final   90.83 input  -60.11 | X-H torsion
[ 7974 7965 7964 7962 ] final -160.60 input  175.53 | X-H torsion
[ 8008 7997 7996 7995 ] final  -36.18 input   59.86 | X-H torsion
[ 10167 10162 10161 10158 ] final   90.89 input  -65.29 | X-H torsion
[ 10718 10713 10712 10709 ] final  -64.51 input   66.30 | X-H torsion
[ 10763 10752 10751 10750 ] final   60.82 input  -60.55 | X-H torsion
[ 11005 11000 10999 10996 ] final -140.24 input  -57.11 | X-H torsion

> <Gold.Protein.ActiveResidues>
 VAL166  LYS551  ARG553  GLY616  TRP617  ASP618  TYR619  PRO620  LYS621  CYS622 
 ASP623  PHE694  ASN695  SER759  ASP760  ASP761  ALA762  ILE779  LEU786  VAL792 
 PHE793  MET794  SER795  GLU796  ALA797  LYS798  CYS799  TRP800  GLU811  SER814 

> <Gold.Protein.RotatedAtoms>
  152.5447  134.1751  159.8612 H   0  0  0  0  0  0  0  0  0  0  0  0  # atno 6907 bound_to 6896
  151.1758  133.4748  159.2601 H   0  0  0  0  0  0  0  0  0  0  0  0  # atno 6908 bound_to 6896
  151.1228  135.0100  159.8601 H   0  0  0  0  0  0  0  0  0  0  0  0  # atno 6909 bound_to 6896
  144.7421  140.3518  143.6114 H   0  0  0  0  0  0  0  0  0  0  0  0  # atno 7974 bound_to 7965
  154.4078  140.1637  156.2332 H   0  0  0  0  0  0  0  0  0  0  0  0  # atno 8008 bound_to 7997
  155.9264  140.3418  155.6191 H   0  0  0  0  0  0  0  0  0  0  0  0  # atno 8009 bound_to 7997
  155.7159  140.0762  157.2342 H   0  0  0  0  0  0  0  0  0  0  0  0  # atno 8010 bound_to 7997
  139.8429  144.6632  150.9262 H   0  0  0  0  0  0  0  0  0  0  0  0  # atno 10167 bound_to 10162
  156.0724  130.4234  150.1431 H   0  0  0  0  0  0  0  0  0  0  0  0  # atno 10718 bound_to 10713
  152.9932  135.5522  154.5935 H   0  0  0  0  0  0  0  0  0  0  0  0  # atno 10763 bound_to 10752
  154.5292  135.2812  155.1197 H   0  0  0  0  0  0  0  0  0  0  0  0  # atno 10764 bound_to 10752
  154.2519  135.6397  153.5296 H   0  0  0  0  0  0  0  0  0  0  0  0  # atno 10765 bound_to 10752
  140.8441  134.2365  157.4795 H   0  0  0  0  0  0  0  0  0  0  0  0  # atno 11005 bound_to 11000
  145.7268  139.1725  143.2453 LP  0  0  0  0  0  0  0  0  0  0  0  0  # atno 17320 bound_to 7965
  146.1236  140.7277  142.9446 LP  0  0  0  0  0  0  0  0  0  0  0  0  # atno 17321 bound_to 7965
  140.7796  143.3896  151.1333 LP  0  0  0  0  0  0  0  0  0  0  0  0  # atno 17342 bound_to 10162
  139.7541  143.8734  152.3084 LP  0  0  0  0  0  0  0  0  0  0  0  0  # atno 17343 bound_to 10162
  156.9479  130.9765  151.3504 LP  0  0  0  0  0  0  0  0  0  0  0  0  # atno 17370 bound_to 10713
  157.5803  130.8371  149.8512 LP  0  0  0  0  0  0  0  0  0  0  0  0  # atno 17371 bound_to 10713
  139.8703  134.9650  156.4515 LP  0  0  0  0  0  0  0  0  0  0  0  0  # atno 17394 bound_to 11000
  140.8862  133.7881  155.9521 LP  0  0  0  0  0  0  0  0  0  0  0  0  # atno 17395 bound_to 11000

$$$$
