AV-unprocessed.smi:1535|AV-procd|sdf|6172|dock2
  -GOLD-   22720 6323D 1   1.00000     0.00000
 Structure written by MMmdl.
 46 47  0  0  0  0  0  0  0  0  1 V2000
  151.5688  144.7726  159.0900 C   0  0  0  0  0  0  0  0  0  0  0  0
  152.0289  143.3461  159.3334 C   0  0  0  0  0  0  0  0  0  0  0  0
  152.9550  143.0905  160.3697 C   0  0  0  0  0  0  0  0  0  0  0  0
  153.4073  141.7782  160.6297 C   0  0  0  0  0  0  0  0  0  0  0  0
  154.2962  141.3065  161.5798 N   0  0  0  0  0  0  0  0  0  0  0  0
  154.3035  140.0032  161.3156 C   0  0  0  0  0  0  0  0  0  0  0  0
  153.5259  139.5741  160.3027 N   0  0  0  0  0  0  0  0  0  0  0  0
  153.3756  138.2065  159.8316 C   0  0  0  0  0  0  0  0  0  0  0  0
  154.2079  137.1810  160.6314 C   0  0  2  0  0  0  0  0  0  0  0  0
  154.0665  135.9088  160.0306 O   0  0  0  0  0  0  0  0  0  0  0  0
  153.7763  137.0666  162.1110 C   0  0  0  0  0  0  0  0  0  0  0  0
  154.7554  136.4533  163.0127 N   0  0  0  0  0  0  0  0  0  0  0  0
  154.4637  136.7616  164.4118 C   0  0  0  0  0  0  0  0  0  0  0  0
  154.8087  135.0060  162.7941 C   0  0  0  0  0  0  0  0  0  0  0  0
  155.4207  134.1847  163.9451 C   0  0  1  0  0  0  0  0  0  0  0  0
  154.3352  133.6818  164.9046 C   0  0  0  0  0  0  0  0  0  0  0  0
  156.2246  133.0606  163.4364 C   0  0  0  0  0  0  0  0  0  0  0  0
  156.8562  132.1774  163.0366 N   0  0  0  0  0  0  0  0  0  0  0  0
  152.9048  140.7202  159.8171 C   0  0  0  0  0  0  0  0  0  0  0  0
  151.9834  140.9624  158.7826 C   0  0  0  0  0  0  0  0  0  0  0  0
  151.5419  142.2792  158.5364 C   0  0  0  0  0  0  0  0  0  0  0  0
  150.5456  142.5293  157.4183 C   0  0  0  0  0  0  0  0  0  0  0  0
  151.9870  145.4566  159.8287 H   0  0  0  0  0  0  0  0  0  0  0  0
  150.4826  144.8413  159.1497 H   0  0  0  0  0  0  0  0  0  0  0  0
  151.8844  145.1106  158.1027 H   0  0  0  0  0  0  0  0  0  0  0  0
  153.3267  143.9029  160.9764 H   0  0  0  0  0  0  0  0  0  0  0  0
  154.9134  139.3191  161.8876 H   0  0  0  0  0  0  0  0  0  0  0  0
  152.3173  137.9433  159.8643 H   0  0  0  0  0  0  0  0  0  0  0  0
  153.6638  138.1738  158.7805 H   0  0  0  0  0  0  0  0  0  0  0  0
  155.2531  137.4743  160.5500 H   0  0  0  0  0  0  0  0  0  0  0  0
  154.8445  135.7323  159.5233 H   0  0  0  0  0  0  0  0  0  0  0  0
  153.5204  138.0577  162.4883 H   0  0  0  0  0  0  0  0  0  0  0  0
  152.8491  136.4925  162.1433 H   0  0  0  0  0  0  0  0  0  0  0  0
  155.2198  136.3447  165.0751 H   0  0  0  0  0  0  0  0  0  0  0  0
  153.4934  136.3617  164.7097 H   0  0  0  0  0  0  0  0  0  0  0  0
  154.4578  137.8345  164.5949 H   0  0  0  0  0  0  0  0  0  0  0  0
  153.8067  134.6347  162.5730 H   0  0  0  0  0  0  0  0  0  0  0  0
  155.4037  134.8022  161.9024 H   0  0  0  0  0  0  0  0  0  0  0  0
  156.1001  134.8085  164.5244 H   0  0  0  0  0  0  0  0  0  0  0  0
  154.7729  133.1111  165.7241 H   0  0  0  0  0  0  0  0  0  0  0  0
  153.6226  133.0351  164.3918 H   0  0  0  0  0  0  0  0  0  0  0  0
  153.7806  134.5132  165.3400 H   0  0  0  0  0  0  0  0  0  0  0  0
  151.6197  140.1414  158.1830 H   0  0  0  0  0  0  0  0  0  0  0  0
  150.3279  141.6140  156.8672 H   0  0  0  0  0  0  0  0  0  0  0  0
  150.9379  143.2596  156.7104 H   0  0  0  0  0  0  0  0  0  0  0  0
  149.6072  142.9082  157.8237 H   0  0  0  0  0  0  0  0  0  0  0  0
  1  2  1  0  0  0  0
  1 23  1  0  0  0  0
  1 24  1  0  0  0  0
  1 25  1  0  0  0  0
  2 21  1  0  0  0  0
  2  3  2  0  0  0  0
  3  4  1  0  0  0  0
  3 26  1  0  0  0  0
  4 19  2  0  0  0  0
  4  5  1  0  0  0  0
  5  6  2  0  0  0  0
  6  7  1  0  0  0  0
  6 27  1  0  0  0  0
  7  8  1  0  0  0  0
  7 19  1  0  0  0  0
  8  9  1  0  0  0  0
  8 28  1  0  0  0  0
  8 29  1  0  0  0  0
  9 10  1  0  0  0  0
  9 11  1  0  0  0  0
  9 30  1  0  0  0  0
 10 31  1  0  0  0  0
 11 12  1  0  0  0  0
 11 32  1  0  0  0  0
 11 33  1  0  0  0  0
 12 13  1  0  0  0  0
 12 14  1  0  0  0  0
 13 34  1  0  0  0  0
 13 35  1  0  0  0  0
 13 36  1  0  0  0  0
 14 15  1  0  0  0  0
 14 37  1  0  0  0  0
 14 38  1  0  0  0  0
 15 16  1  0  0  0  0
 15 17  1  0  0  0  0
 15 39  1  0  0  0  0
 16 40  1  0  0  0  0
 16 41  1  0  0  0  0
 16 42  1  0  0  0  0
 17 18  3  0  0  0  0
 19 20  1  0  0  0  0
 20 21  2  0  0  0  0
 20 43  1  0  0  0  0
 21 22  1  0  0  0  0
 22 44  1  0  0  0  0
 22 45  1  0  0  0  0
 22 46  1  0  0  0  0
M  END
> <s_m_source_file>
AV-unprocessed.smi

> <i_m_source_file_index>
1535

> <i_lp_mmshare_version>
43012

> <i_f3d_flags>
0

> <s_epik_input>
W0NIM11jKFtjSF0xKWMoW0NIM10pW2NIXWMoYzEyKW4oW2NIXW4yKVtDSDJdW0NASF0oW09IXSlbQ0gyXU4oW0NIM10pW0NIMl1bQ0BIXShbQ0gzXSlDI04=

> <s_epik_cmdline>
J2VwaWtfcHl0aG9uJywgJy1waCcsICc3LjAnLCAnLXRuJywgJzgnLCAnLW1hJywgJzIwMCcsICctbWV0YWxfYmluZGluZycsICctaW1hZScsICc8aW5maWxlLm1hZT4nLCAnLW9tYWUnLCAnPG91dGZpbGUubWFlPic=

> <r_epik_Ionization_Penalty>
0.098511

> <r_epik_Ionization_Penalty_Charging>
0

> <r_epik_Ionization_Penalty_Neutral>
0.098511

> <r_epik_State_Penalty>
0.0881608

> <r_epik_Charging_Adjusted_Penalty>
0.0881608

> <i_epik_Tot_Q>
0

> <i_epik_Tot_abs_Q>
0

> <r_epik_Metal_State_Penalty>
0.0128087

> <b_epik_Metal_Only>
0

> <s_lp_Force_Field>
OPLS_2005

> <r_lp_Energy>
20.9194

> <b_lp_Chiralities_Consistent>
1

> <s_lp_Variant>
AV-unprocessed.smi:1535-3

> <Gold.Version>
5.8.1

> <Gold.Id.Protein>
6NUR|6NUR_protein|mol2

> <Gold.PLP.Fitness>
50.4801

> <Gold.PLP.PLP>
-48.9652

> <Gold.PLP.part.hbond>
-2.0000

> <Gold.PLP.part.metal>
0.0000

> <Gold.PLP.part.buried>
-4.8402

> <Gold.PLP.part.nonpolar>
-41.7193

> <Gold.PLP.part.repulsive>
0.0113

> <Gold.PLP.ligand.clash>
0.0000

> <Gold.PLP.ligand.torsion>
0.9788

> <Gold.PLP.Chemscore.Hbond>
1.0000

> <Gold.PLP.Chemscore.CHOScore>
0.0000

> <Gold.PLP.Chemscore.Metal>
0.0000

> <Gold.Chemscore.Hbonds>
donor molecule, donor type, donor heavy atom, donor atom, acceptor molecule, acceptor atom, score
      P1  H  6896  6908       L1    10  0.93

> <Gold.PLP.Chemscore.Internal.Correction>
0.4725

> <Gold.Rescore>
     Score         DG    S(hbond)    S(metal)    S(lipo)     H(rot)  DE(clash)    DE(int)     intcor
     15.57     -17.66       0.99        0.00     130.82       2.51       0.20       1.88       ----

> <Gold.Chemscore.Fitness>
15.5709

> <Gold.Chemscore.DG>
-17.6599

> <Gold.Chemscore.ZeroCoef>
-5.4800

> <Gold.Chemscore.Hbond>
0.9888

> <Gold.Chemscore.Metal>
0.0000

> <Gold.Chemscore.Lipo>
130.8227

> <Gold.Chemscore.Internal_Hbond>
0.0000

> <Gold.Chemscore.DEClash>
0.2047

> <Gold.Chemscore.DEInternal>
1.8843

> <Gold.Chemscore.Rot>
2.5113

> <Gold.Chemscore.Internal.Correction>
   9.000000E+99

> <Gold.Chemscore.Hbonds>
donor molecule, donor type, donor heavy atom, donor atom, acceptor molecule, acceptor atom, score
      P1  H  6896  6908       L1    10  0.86

> <Gold.Chemscore.Hbond.Weighted>
-3.3026

> <Gold.Chemscore.Metal.Weighted>
-0.0000

> <Gold.Chemscore.Lipo.Weighted>
-15.3063

> <Gold.Chemscore.Internal_Hbond.Weighted>
0.0000

> <Gold.Chemscore.DEClash.Weighted>
0.2047

> <Gold.Chemscore.DEInternal.Weighted>
1.8843

> <Gold.Chemscore.Rot.Weighted>
6.4289

> <Gold.Chemscore.Internal.Correction.Weighted>
   9.000000E+99

> <Gold.Protein.RotatedTorsions>
[ 6907 6896 6895 6894 ] final  -51.54 input  -60.11 | X-H torsion
[ 7974 7965 7964 7962 ] final   69.35 input  175.53 | X-H torsion
[ 8008 7997 7996 7995 ] final  172.23 input   59.86 | X-H torsion
[ 10167 10162 10161 10158 ] final -175.93 input  -65.29 | X-H torsion
[ 10718 10713 10712 10709 ] final   -1.00 input   66.30 | X-H torsion
[ 10763 10752 10751 10750 ] final  -99.32 input  -60.55 | X-H torsion
[ 11005 11000 10999 10996 ] final  -50.12 input  -57.11 | X-H torsion

> <Gold.Protein.ActiveResidues>
 VAL166  LYS551  ARG553  GLY616  TRP617  ASP618  TYR619  PRO620  LYS621  CYS622 
 ASP623  PHE694  ASN695  SER759  ASP760  ASP761  ALA762  ILE779  LEU786  VAL792 
 PHE793  MET794  SER795  GLU796  ALA797  LYS798  CYS799  TRP800  GLU811  SER814 

> <Gold.Protein.RotatedAtoms>
  150.8602  134.7951  159.7076 H   0  0  0  0  0  0  0  0  0  0  0  0  # atno 6907 bound_to 6896
  152.4641  134.5113  159.9764 H   0  0  0  0  0  0  0  0  0  0  0  0  # atno 6908 bound_to 6896
  151.5218  133.3427  159.2938 H   0  0  0  0  0  0  0  0  0  0  0  0  # atno 6909 bound_to 6896
  145.7915  139.2936  143.1207 H   0  0  0  0  0  0  0  0  0  0  0  0  # atno 7974 bound_to 7965
  156.1194  140.1491  156.9226 H   0  0  0  0  0  0  0  0  0  0  0  0  # atno 8008 bound_to 7997
  154.4824  140.0875  156.7451 H   0  0  0  0  0  0  0  0  0  0  0  0  # atno 8009 bound_to 7997
  155.4455  140.3432  155.4297 H   0  0  0  0  0  0  0  0  0  0  0  0  # atno 8010 bound_to 7997
  139.5555  144.2000  152.1152 H   0  0  0  0  0  0  0  0  0  0  0  0  # atno 10167 bound_to 10162
  156.8121  130.5428  149.5707 H   0  0  0  0  0  0  0  0  0  0  0  0  # atno 10718 bound_to 10713
  154.7488  135.4977  153.9251 H   0  0  0  0  0  0  0  0  0  0  0  0  # atno 10763 bound_to 10752
  153.1120  135.6711  153.9491 H   0  0  0  0  0  0  0  0  0  0  0  0  # atno 10764 bound_to 10752
  153.9247  135.3084  155.3426 H   0  0  0  0  0  0  0  0  0  0  0  0  # atno 10765 bound_to 10752
  141.0798  133.6656  156.3685 H   0  0  0  0  0  0  0  0  0  0  0  0  # atno 11005 bound_to 11000
  145.9972  140.8552  143.0037 LP  0  0  0  0  0  0  0  0  0  0  0  0  # atno 17320 bound_to 7965
  144.6781  140.2300  143.7356 LP  0  0  0  0  0  0  0  0  0  0  0  0  # atno 17321 bound_to 7965
  140.1503  144.5121  150.6691 LP  0  0  0  0  0  0  0  0  0  0  0  0  # atno 17342 bound_to 10162
  140.6827  143.2334  151.5342 LP  0  0  0  0  0  0  0  0  0  0  0  0  # atno 17343 bound_to 10162
  156.1038  130.5989  150.9938 LP  0  0  0  0  0  0  0  0  0  0  0  0  # atno 17370 bound_to 10713
  157.6500  131.0898  150.8070 LP  0  0  0  0  0  0  0  0  0  0  0  0  # atno 17371 bound_to 10713
  140.5494  134.6043  157.5403 LP  0  0  0  0  0  0  0  0  0  0  0  0  # atno 17394 bound_to 11000
  139.9611  134.7450  156.0235 LP  0  0  0  0  0  0  0  0  0  0  0  0  # atno 17395 bound_to 11000

$$$$
