AV-unprocessed.smi:2902|AV-procd|sdf|11153|dock5
  -GOLD-   2272016 33D 1   1.00000     0.00000
 Structure written by MMmdl.
 47 48  0  0  0  0  0  0  0  0  1 V2000
  151.9639  139.0501  155.5527 C   0  0  0  0  0  0  0  0  0  0  0  0
  151.0488  140.2569  155.3106 C   0  0  0  0  0  0  0  0  0  0  0  0
  150.6321  140.9592  156.6163 C   0  0  2  0  0  0  0  0  0  0  0  0
  151.8194  141.2866  157.3388 O   0  0  0  0  0  0  0  0  0  0  0  0
  151.6788  142.1895  158.4337 C   0  0  0  0  0  0  0  0  0  0  0  0
  152.1557  143.6106  158.1180 C   0  0  0  0  0  0  0  0  0  0  0  0
  152.5527  144.2125  159.4718 C   0  0  0  0  0  0  0  0  0  0  0  0
  152.7593  143.0286  160.4293 C   0  0  0  0  0  0  0  0  0  0  0  0
  152.5902  141.7639  159.5829 C   0  0  0  0  0  0  0  0  0  0  0  0
  149.7237  140.0554  157.4634 C   0  0  0  0  0  0  0  0  0  0  0  0
  150.0977  139.6597  158.5676 O   0  0  0  0  0  0  0  0  0  0  0  0
  148.5346  139.7406  156.9248 N   0  0  0  0  0  0  0  0  0  0  0  0
  147.5205  138.8710  157.5218 C   0  0  1  0  0  0  0  0  0  0  0  0
  146.4950  138.5285  156.4284 C   0  0  0  0  0  0  0  0  0  0  0  0
  148.1865  137.6157  158.1508 C   0  0  2  0  0  0  0  0  0  0  0  0
  148.7789  136.6531  157.1031 C   0  0  0  0  0  0  0  0  0  0  0  0
  147.2579  136.8999  159.0195 N   0  0  0  0  0  0  0  0  0  0  0  0
  146.8401  135.6331  158.9756 C   0  0  0  0  0  0  0  0  0  0  0  0
  146.0241  135.3010  159.9660 N   0  0  0  0  0  0  0  0  0  0  0  0
  145.9804  136.4919  160.6339 C   0  0  0  0  0  0  0  0  0  0  0  0
  146.7033  137.4819  160.1111 N   0  0  0  0  0  0  0  0  0  0  0  0
  152.2470  138.5829  154.6095 H   0  0  0  0  0  0  0  0  0  0  0  0
  151.4682  138.2941  156.1621 H   0  0  0  0  0  0  0  0  0  0  0  0
  152.8794  139.3465  156.0649 H   0  0  0  0  0  0  0  0  0  0  0  0
  151.5697  140.9631  154.6617 H   0  0  0  0  0  0  0  0  0  0  0  0
  150.1636  139.9329  154.7614 H   0  0  0  0  0  0  0  0  0  0  0  0
  150.0904  141.8697  156.3551 H   0  0  0  0  0  0  0  0  0  0  0  0
  150.6530  142.2169  158.8038 H   0  0  0  0  0  0  0  0  0  0  0  0
  153.0329  143.5668  157.4708 H   0  0  0  0  0  0  0  0  0  0  0  0
  151.3969  144.2037  157.6069 H   0  0  0  0  0  0  0  0  0  0  0  0
  153.4543  144.8192  159.3799 H   0  0  0  0  0  0  0  0  0  0  0  0
  151.7607  144.8610  159.8488 H   0  0  0  0  0  0  0  0  0  0  0  0
  153.7337  143.0588  160.9178 H   0  0  0  0  0  0  0  0  0  0  0  0
  152.0003  143.0543  161.2122 H   0  0  0  0  0  0  0  0  0  0  0  0
  152.1859  140.9266  160.1523 H   0  0  0  0  0  0  0  0  0  0  0  0
  153.5610  141.4587  159.1894 H   0  0  0  0  0  0  0  0  0  0  0  0
  148.3195  140.1243  156.0160 H   0  0  0  0  0  0  0  0  0  0  0  0
  146.9865  139.4120  158.3052 H   0  0  0  0  0  0  0  0  0  0  0  0
  145.6421  137.9834  156.8321 H   0  0  0  0  0  0  0  0  0  0  0  0
  146.9405  137.9202  155.6407 H   0  0  0  0  0  0  0  0  0  0  0  0
  146.1018  139.4346  155.9655 H   0  0  0  0  0  0  0  0  0  0  0  0
  149.0106  137.9511  158.7827 H   0  0  0  0  0  0  0  0  0  0  0  0
  149.6077  137.1086  156.5616 H   0  0  0  0  0  0  0  0  0  0  0  0
  148.0307  136.3469  156.3712 H   0  0  0  0  0  0  0  0  0  0  0  0
  149.1674  135.7514  157.5776 H   0  0  0  0  0  0  0  0  0  0  0  0
  147.1490  134.9357  158.2110 H   0  0  0  0  0  0  0  0  0  0  0  0
  145.4000  136.6327  161.5339 H   0  0  0  0  0  0  0  0  0  0  0  0
  1  2  1  0  0  0  0
  1 22  1  0  0  0  0
  1 23  1  0  0  0  0
  1 24  1  0  0  0  0
  2  3  1  0  0  0  0
  2 25  1  0  0  0  0
  2 26  1  0  0  0  0
  3  4  1  0  0  0  0
  3 10  1  0  0  0  0
  3 27  1  0  0  0  0
  4  5  1  0  0  0  0
  5  9  1  0  0  0  0
  5  6  1  0  0  0  0
  5 28  1  0  0  0  0
  6  7  1  0  0  0  0
  6 29  1  0  0  0  0
  6 30  1  0  0  0  0
  7  8  1  0  0  0  0
  7 31  1  0  0  0  0
  7 32  1  0  0  0  0
  8  9  1  0  0  0  0
  8 33  1  0  0  0  0
  8 34  1  0  0  0  0
  9 35  1  0  0  0  0
  9 36  1  0  0  0  0
 10 11  2  0  0  0  0
 10 12  1  0  0  0  0
 12 13  1  0  0  0  0
 12 37  1  0  0  0  0
 13 14  1  0  0  0  0
 13 15  1  0  0  0  0
 13 38  1  0  0  0  0
 14 39  1  0  0  0  0
 14 40  1  0  0  0  0
 14 41  1  0  0  0  0
 15 16  1  0  0  0  0
 15 17  1  0  0  0  0
 15 42  1  0  0  0  0
 16 43  1  0  0  0  0
 16 44  1  0  0  0  0
 16 45  1  0  0  0  0
 17 21  1  0  0  0  0
 17 18  1  0  0  0  0
 18 19  2  0  0  0  0
 18 46  1  0  0  0  0
 19 20  1  0  0  0  0
 20 21  2  0  0  0  0
 20 47  1  0  0  0  0
M  END
> <s_m_source_file>
AV-unprocessed.smi

> <i_m_source_file_index>
2902

> <i_lp_mmshare_version>
43012

> <i_f3d_flags>
0

> <s_epik_input>
W0NIMl0xW0NIMl1bQ0gyXVtDSDJdW0NIXTFPW0NAQEhdKFtDSDJdW0NIM10pQyg9TylbTkhdW0NASF0oW0NIM10pW0NASF0oW0NIM10pbjJbY0hdbltjSF1uMg==

> <s_epik_cmdline>
J2VwaWtfcHl0aG9uJywgJy1waCcsICc3LjAnLCAnLXRuJywgJzgnLCAnLW1hJywgJzIwMCcsICctbWV0YWxfYmluZGluZycsICctaW1hZScsICc8aW5maWxlLm1hZT4nLCAnLW9tYWUnLCAnPG91dGZpbGUubWFlPic=

> <r_lp_tautomer_probability>
1

> <r_epik_Ionization_Penalty>
6.95617e-05

> <r_epik_Ionization_Penalty_Charging>
0

> <r_epik_Ionization_Penalty_Neutral>
6.95617e-05

> <r_epik_State_Penalty>
-0

> <r_epik_Charging_Adjusted_Penalty>
0

> <i_epik_Tot_Q>
0

> <i_epik_Tot_abs_Q>
0

> <r_epik_Metal_State_Penalty>
-0

> <b_epik_Metal_Only>
0

> <s_lp_Force_Field>
OPLS_2005

> <r_lp_Energy>
29.2018

> <b_lp_Chiralities_Consistent>
1

> <s_lp_Variant>
AV-unprocessed.smi:2902-3

> <Gold.Version>
5.8.1

> <Gold.Id.Protein>
6NUR|6NUR_protein|mol2

> <Gold.PLP.Fitness>
40.7948

> <Gold.PLP.PLP>
-37.4275

> <Gold.PLP.part.hbond>
-2.0041

> <Gold.PLP.part.metal>
0.0000

> <Gold.PLP.part.buried>
-1.9174

> <Gold.PLP.part.nonpolar>
-33.7766

> <Gold.PLP.part.repulsive>
0.1018

> <Gold.PLP.ligand.clash>
0.0000

> <Gold.PLP.ligand.torsion>
1.0550

> <Gold.PLP.Chemscore.Hbond>
1.7600

> <Gold.PLP.Chemscore.CHOScore>
0.0000

> <Gold.PLP.Chemscore.Metal>
0.0000

> <Gold.Chemscore.Hbonds>
donor molecule, donor type, donor heavy atom, donor atom, acceptor molecule, acceptor atom, score
      P1  H  6934  6947       L1    21  1.00

> <Gold.PLP.Chemscore.Internal.Correction>
0.1973

> <Gold.Rescore>
     Score         DG    S(hbond)    S(metal)    S(lipo)     H(rot)  DE(clash)    DE(int)     intcor
      9.69     -13.62       1.66        0.00      81.00       2.69       0.08       3.85       ----

> <Gold.Chemscore.Fitness>
9.6919

> <Gold.Chemscore.DG>
-13.6160

> <Gold.Chemscore.ZeroCoef>
-5.4800

> <Gold.Chemscore.Hbond>
1.6631

> <Gold.Chemscore.Metal>
0.0000

> <Gold.Chemscore.Lipo>
80.9973

> <Gold.Chemscore.Internal_Hbond>
0.0000

> <Gold.Chemscore.DEClash>
0.0781

> <Gold.Chemscore.DEInternal>
3.8460

> <Gold.Chemscore.Rot>
2.6935

> <Gold.Chemscore.Internal.Correction>
   9.000000E+99

> <Gold.Chemscore.Hbonds>
donor molecule, donor type, donor heavy atom, donor atom, acceptor molecule, acceptor atom, score
      P1  H  6934  6947       L1    21  1.00

> <Gold.Chemscore.Hbond.Weighted>
-5.5546

> <Gold.Chemscore.Metal.Weighted>
-0.0000

> <Gold.Chemscore.Lipo.Weighted>
-9.4767

> <Gold.Chemscore.Internal_Hbond.Weighted>
0.0000

> <Gold.Chemscore.DEClash.Weighted>
0.0781

> <Gold.Chemscore.DEInternal.Weighted>
3.8460

> <Gold.Chemscore.Rot.Weighted>
6.8954

> <Gold.Chemscore.Internal.Correction.Weighted>
   9.000000E+99

> <Gold.Protein.RotatedTorsions>
[ 6907 6896 6895 6894 ] final   17.43 input  -60.11 | X-H torsion
[ 7974 7965 7964 7962 ] final  175.48 input  175.53 | X-H torsion
[ 8008 7997 7996 7995 ] final  149.77 input   59.86 | X-H torsion
[ 10167 10162 10161 10158 ] final   96.46 input  -65.29 | X-H torsion
[ 10718 10713 10712 10709 ] final   -3.20 input   66.30 | X-H torsion
[ 10763 10752 10751 10750 ] final   57.39 input  -60.55 | X-H torsion
[ 11005 11000 10999 10996 ] final -100.01 input  -57.11 | X-H torsion

> <Gold.Protein.ActiveResidues>
 VAL166  LYS551  ARG553  GLY616  TRP617  ASP618  TYR619  PRO620  LYS621  CYS622 
 ASP623  PHE694  ASN695  SER759  ASP760  ASP761  ALA762  ILE779  LEU786  VAL792 
 PHE793  MET794  SER795  GLU796  ALA797  LYS798  CYS799  TRP800  GLU811  SER814 

> <Gold.Protein.RotatedAtoms>
  151.8495  135.0562  160.0457 H   0  0  0  0  0  0  0  0  0  0  0  0  # atno 6907 bound_to 6896
  152.2747  133.5410  159.5469 H   0  0  0  0  0  0  0  0  0  0  0  0  # atno 6908 bound_to 6896
  150.7165  134.0564  159.3858 H   0  0  0  0  0  0  0  0  0  0  0  0  # atno 6909 bound_to 6896
  144.7201  139.9953  143.6440 H   0  0  0  0  0  0  0  0  0  0  0  0  # atno 7974 bound_to 7965
  156.2742  140.2093  156.5911 H   0  0  0  0  0  0  0  0  0  0  0  0  # atno 8008 bound_to 7997
  154.6981  140.0523  157.0454 H   0  0  0  0  0  0  0  0  0  0  0  0  # atno 8009 bound_to 7997
  155.0772  140.3183  155.4615 H   0  0  0  0  0  0  0  0  0  0  0  0  # atno 8010 bound_to 7997
  139.7892  144.6859  150.9916 H   0  0  0  0  0  0  0  0  0  0  0  0  # atno 10167 bound_to 10162
  156.7796  130.5326  149.5753 H   0  0  0  0  0  0  0  0  0  0  0  0  # atno 10718 bound_to 10713
  152.9849  135.5643  154.5383 H   0  0  0  0  0  0  0  0  0  0  0  0  # atno 10763 bound_to 10752
  154.4842  135.2790  155.1549 H   0  0  0  0  0  0  0  0  0  0  0  0  # atno 10764 bound_to 10752
  154.3045  135.6301  153.5492 H   0  0  0  0  0  0  0  0  0  0  0  0  # atno 10765 bound_to 10752
  141.1287  133.8365  157.1046 H   0  0  0  0  0  0  0  0  0  0  0  0  # atno 11005 bound_to 11000
  146.0379  139.3395  143.0715 LP  0  0  0  0  0  0  0  0  0  0  0  0  # atno 17320 bound_to 7965
  145.8371  140.9600  143.0818 LP  0  0  0  0  0  0  0  0  0  0  0  0  # atno 17321 bound_to 7965
  140.7820  143.4399  151.0567 LP  0  0  0  0  0  0  0  0  0  0  0  0  # atno 17342 bound_to 10162
  139.8076  143.7995  152.3168 LP  0  0  0  0  0  0  0  0  0  0  0  0  # atno 17343 bound_to 10162
  156.1226  130.6121  151.0216 LP  0  0  0  0  0  0  0  0  0  0  0  0  # atno 17370 bound_to 10713
  157.6652  131.0873  150.7744 LP  0  0  0  0  0  0  0  0  0  0  0  0  # atno 17371 bound_to 10713
  140.0312  134.9900  157.0784 LP  0  0  0  0  0  0  0  0  0  0  0  0  # atno 17394 bound_to 11000
  140.4282  134.1809  155.7167 LP  0  0  0  0  0  0  0  0  0  0  0  0  # atno 17395 bound_to 11000

$$$$
