AV-unprocessed.smi:571|AV-procd|sdf|2964|dock4
  -GOLD-   2262023473D 1   1.00000     0.00000
 Structure written by MMmdl.
 44 45  0  0  0  0  0  0  0  0  2 V2000
  150.4519  134.0442  156.0142 C   0  0  0  0  0  0  0  0  0  0  0  0
  149.8308  134.5010  154.6872 C   0  0  1  0  0  0  0  0  0  0  0  0
  148.2967  134.6476  154.8047 C   0  0  0  0  0  0  0  0  0  0  0  0
  147.5970  134.5327  153.4992 N   0  3  0  0  0  0  0  0  0  0  0  0
  146.1746  134.9550  153.5700 C   0  0  0  0  0  0  0  0  0  0  0  0
  145.5338  134.9722  152.1719 C   0  0  0  0  0  0  0  0  0  0  0  0
  145.6657  133.6050  151.4880 C   0  0  0  0  0  0  0  0  0  0  0  0
  147.1370  133.1706  151.4622 C   0  0  0  0  0  0  0  0  0  0  0  0
  147.7415  133.1904  152.8758 C   0  0  0  0  0  0  0  0  0  0  0  0
  150.4530  135.7607  154.2811 N   0  0  0  0  0  0  0  0  0  0  0  0
  150.3372  136.9451  154.9078 C   0  0  0  0  0  0  0  0  0  0  0  0
  149.6931  137.0875  155.9462 O   0  0  0  0  0  0  0  0  0  0  0  0
  151.0580  138.1636  154.3059 C   0  0  0  0  0  0  0  0  0  0  0  0
  150.7376  139.4545  154.9414 N   0  0  0  0  0  0  0  0  0  0  0  0
  149.6031  140.1385  154.4609 C   0  0  0  0  0  0  0  0  0  0  0  0
  149.2198  141.3211  154.9672 C   0  0  0  0  0  0  0  0  0  0  0  0
  150.0063  141.8939  156.0339 C   0  0  0  0  0  0  0  0  0  0  0  0
  151.0902  141.2458  156.5044 C   0  0  0  0  0  0  0  0  0  0  0  0
  151.5087  139.9494  155.9589 C   0  0  0  0  0  0  0  0  0  0  0  0
  152.4861  139.3408  156.3946 O   0  0  0  0  0  0  0  0  0  0  0  0
  150.0352  133.0887  156.3339 H   0  0  0  0  0  0  0  0  0  0  0  0
  150.2722  134.7682  156.8101 H   0  0  0  0  0  0  0  0  0  0  0  0
  151.5308  133.9158  155.9196 H   0  0  0  0  0  0  0  0  0  0  0  0
  150.0628  133.7306  153.9508 H   0  0  0  0  0  0  0  0  0  0  0  0
  147.8902  133.9154  155.5042 H   0  0  0  0  0  0  0  0  0  0  0  0
  148.0872  135.6269  155.2380 H   0  0  0  0  0  0  0  0  0  0  0  0
  145.6255  134.2831  154.2317 H   0  0  0  0  0  0  0  0  0  0  0  0
  146.1072  135.9540  154.0028 H   0  0  0  0  0  0  0  0  0  0  0  0
  144.4826  135.2516  152.2464 H   0  0  0  0  0  0  0  0  0  0  0  0
  146.0147  135.7359  151.5590 H   0  0  0  0  0  0  0  0  0  0  0  0
  145.0718  132.8647  152.0255 H   0  0  0  0  0  0  0  0  0  0  0  0
  145.2672  133.6501  150.4740 H   0  0  0  0  0  0  0  0  0  0  0  0
  147.2222  132.1714  151.0338 H   0  0  0  0  0  0  0  0  0  0  0  0
  147.7058  133.8363  150.8115 H   0  0  0  0  0  0  0  0  0  0  0  0
  148.7935  132.9136  152.8152 H   0  0  0  0  0  0  0  0  0  0  0  0
  147.2544  132.4417  153.5025 H   0  0  0  0  0  0  0  0  0  0  0  0
  151.0009  135.7366  153.4327 H   0  0  0  0  0  0  0  0  0  0  0  0
  152.1332  137.9798  154.3418 H   0  0  0  0  0  0  0  0  0  0  0  0
  150.8186  138.2040  153.2424 H   0  0  0  0  0  0  0  0  0  0  0  0
  149.0686  139.6406  153.6647 H   0  0  0  0  0  0  0  0  0  0  0  0
  148.3464  141.8308  154.5875 H   0  0  0  0  0  0  0  0  0  0  0  0
  149.7249  142.8473  156.4563 H   0  0  0  0  0  0  0  0  0  0  0  0
  151.6667  141.6904  157.3025 H   0  0  0  0  0  0  0  0  0  0  0  0
  148.0512  135.1902  152.8811 H   0  0  0  0  0  0  0  0  0  0  0  0
  1  2  1  0  0  0  0
  1 21  1  0  0  0  0
  1 22  1  0  0  0  0
  1 23  1  0  0  0  0
  2  3  1  0  0  0  0
  2 10  1  0  0  0  0
  2 24  1  0  0  0  0
  3  4  1  0  0  0  0
  3 25  1  0  0  0  0
  3 26  1  0  0  0  0
  4  9  1  0  0  0  0
  4  5  1  0  0  0  0
  4 44  1  0  0  0  0
  5  6  1  0  0  0  0
  5 27  1  0  0  0  0
  5 28  1  0  0  0  0
  6  7  1  0  0  0  0
  6 29  1  0  0  0  0
  6 30  1  0  0  0  0
  7  8  1  0  0  0  0
  7 31  1  0  0  0  0
  7 32  1  0  0  0  0
  8  9  1  0  0  0  0
  8 33  1  0  0  0  0
  8 34  1  0  0  0  0
  9 35  1  0  0  0  0
  9 36  1  0  0  0  0
 10 11  1  0  0  0  0
 10 37  1  0  0  0  0
 11 12  2  0  0  0  0
 11 13  1  0  0  0  0
 13 14  1  0  0  0  0
 13 38  1  0  0  0  0
 13 39  1  0  0  0  0
 14 19  1  0  0  0  0
 14 15  1  0  0  0  0
 15 16  2  0  0  0  0
 15 40  1  0  0  0  0
 16 17  1  0  0  0  0
 16 41  1  0  0  0  0
 17 18  2  0  0  0  0
 17 42  1  0  0  0  0
 18 19  1  0  0  0  0
 18 43  1  0  0  0  0
 19 20  2  0  0  0  0
M  CHG  1   4   1
M  END
> <s_m_source_file>
AV-unprocessed.smi

> <i_m_source_file_index>
571

> <i_lp_mmshare_version>
43012

> <i_f3d_flags>
0

> <s_epik_input>
W0NIMl0xW0NIMl1bQ0gyXVtDSDJdW0NIMl1OMVtDSDJdW0NAQEhdKFtDSDNdKVtOSF1DKD1PKVtDSDJdbjJbY0hdW2NIXVtjSF1bY0hdYzI9Tw==

> <s_epik_cmdline>
J2VwaWtfcHl0aG9uJywgJy1waCcsICc3LjAnLCAnLXRuJywgJzgnLCAnLW1hJywgJzIwMCcsICctbWV0YWxfYmluZGluZycsICctaW1hZScsICc8aW5maWxlLm1hZT4nLCAnLW9tYWUnLCAnPG91dGZpbGUubWFlPic=

> <r_lp_tautomer_probability>
1

> <r_epik_Ionization_Penalty>
0.00237248

> <r_epik_Ionization_Penalty_Charging>
0.0023724

> <r_epik_Ionization_Penalty_Neutral>
8.2065e-08

> <r_epik_State_Penalty>
0.00163922

> <r_epik_Charging_Adjusted_Penalty>
0.00401161

> <i_epik_Tot_Q>
1

> <i_epik_Tot_abs_Q>
1

> <r_epik_Metal_State_Penalty>
-0

> <b_epik_Metal_Only>
0

> <s_lp_Force_Field>
OPLS_2005

> <r_lp_Energy>
32.4052

> <b_lp_Chiralities_Consistent>
1

> <s_lp_Variant>
AV-unprocessed.smi:571-2

> <Gold.Version>
5.8.1

> <Gold.Id.Protein>
6NUR|6NUR_protein|mol2

> <Gold.PLP.Fitness>
50.7487

> <Gold.PLP.PLP>
-37.5863

> <Gold.PLP.part.hbond>
-4.0000

> <Gold.PLP.part.metal>
0.0000

> <Gold.PLP.part.buried>
-0.4269

> <Gold.PLP.part.nonpolar>
-32.4411

> <Gold.PLP.part.repulsive>
0.1357

> <Gold.PLP.ligand.clash>
0.0000

> <Gold.PLP.ligand.torsion>
0.7404

> <Gold.PLP.Chemscore.Hbond>
3.8968

> <Gold.PLP.Chemscore.CHOScore>
0.9421

> <Gold.PLP.Chemscore.Metal>
0.0000

> <Gold.Chemscore.Hbonds>
donor molecule, donor type, donor heavy atom, donor atom, acceptor molecule, acceptor atom, score
      L1  H     4    44       P1  7948  2.00
      L1  H    10    37       P1  7949  0.85
      P1  H  7997  8008       L1    20  1.00
      L1  C    15    40       P1  7957  0.72

> <Gold.PLP.Chemscore.Internal.Correction>
0.1266

> <Gold.Rescore>
     Score         DG    S(hbond)    S(metal)    S(lipo)     H(rot)  DE(clash)    DE(int)     intcor
     14.94     -16.95       2.15        0.00      77.04       1.84       0.58       1.42       ----

> <Gold.Chemscore.Fitness>
14.9437

> <Gold.Chemscore.DG>
-16.9463

> <Gold.Chemscore.ZeroCoef>
-5.4800

> <Gold.Chemscore.Hbond>
2.1457

> <Gold.Chemscore.Metal>
0.0000

> <Gold.Chemscore.Lipo>
77.0367

> <Gold.Chemscore.Internal_Hbond>
0.0000

> <Gold.Chemscore.DEClash>
0.5803

> <Gold.Chemscore.DEInternal>
1.4223

> <Gold.Chemscore.Rot>
1.8413

> <Gold.Chemscore.Internal.Correction>
   9.000000E+99

> <Gold.Chemscore.Hbonds>
donor molecule, donor type, donor heavy atom, donor atom, acceptor molecule, acceptor atom, score
      L1  H     4    44       P1  7948  0.98
      L1  H    10    37       P1  7949  0.14
      P1  H  7997  8008       L1    20  0.94

> <Gold.Chemscore.Hbond.Weighted>
-7.1667

> <Gold.Chemscore.Metal.Weighted>
-0.0000

> <Gold.Chemscore.Lipo.Weighted>
-9.0133

> <Gold.Chemscore.Internal_Hbond.Weighted>
0.0000

> <Gold.Chemscore.DEClash.Weighted>
0.5803

> <Gold.Chemscore.DEInternal.Weighted>
1.4223

> <Gold.Chemscore.Rot.Weighted>
4.7137

> <Gold.Chemscore.Internal.Correction.Weighted>
   9.000000E+99

> <Gold.Protein.RotatedTorsions>
[ 6907 6896 6895 6894 ] final   67.06 input  -60.11 | X-H torsion
[ 7974 7965 7964 7962 ] final -129.72 input  175.53 | X-H torsion
[ 8008 7997 7996 7995 ] final  -40.64 input   59.86 | X-H torsion
[ 10167 10162 10161 10158 ] final   56.71 input  -65.29 | X-H torsion
[ 10718 10713 10712 10709 ] final  -25.83 input   66.30 | X-H torsion
[ 10763 10752 10751 10750 ] final  145.51 input  -60.55 | X-H torsion
[ 11005 11000 10999 10996 ] final  -97.90 input  -57.11 | X-H torsion

> <Gold.Protein.ActiveResidues>
 VAL166  LYS551  ARG553  GLY616  TRP617  ASP618  TYR619  PRO620  LYS621  CYS622 
 ASP623  PHE694  ASN695  SER759  ASP760  ASP761  ALA762  ILE779  LEU786  VAL792 
 PHE793  MET794  SER795  GLU796  ALA797  LYS798  CYS799  TRP800  GLU811  SER814 

> <Gold.Protein.RotatedAtoms>
  152.4525  134.5363  159.9825 H   0  0  0  0  0  0  0  0  0  0  0  0  # atno 6907 bound_to 6896
  151.5432  133.3423  159.2947 H   0  0  0  0  0  0  0  0  0  0  0  0  # atno 6908 bound_to 6896
  150.8458  134.7798  159.7032 H   0  0  0  0  0  0  0  0  0  0  0  0  # atno 6909 bound_to 6896
  144.9544  140.7380  143.4767 H   0  0  0  0  0  0  0  0  0  0  0  0  # atno 7974 bound_to 7965
  154.4010  140.1520  156.3060 H   0  0  0  0  0  0  0  0  0  0  0  0  # atno 8008 bound_to 7997
  155.8658  140.3451  155.5766 H   0  0  0  0  0  0  0  0  0  0  0  0  # atno 8009 bound_to 7997
  155.7829  140.0846  157.2040 H   0  0  0  0  0  0  0  0  0  0  0  0  # atno 8010 bound_to 7997
  140.2058  144.3941  150.6509 H   0  0  0  0  0  0  0  0  0  0  0  0  # atno 10167 bound_to 10162
  156.4592  130.4500  149.6940 H   0  0  0  0  0  0  0  0  0  0  0  0  # atno 10718 bound_to 10713
  154.0066  135.2918  155.3397 H   0  0  0  0  0  0  0  0  0  0  0  0  # atno 10763 bound_to 10752
  154.7128  135.5142  153.8695 H   0  0  0  0  0  0  0  0  0  0  0  0  # atno 10764 bound_to 10752
  153.0742  135.6658  154.0302 H   0  0  0  0  0  0  0  0  0  0  0  0  # atno 10765 bound_to 10752
  141.1363  133.8205  157.0768 H   0  0  0  0  0  0  0  0  0  0  0  0  # atno 11005 bound_to 11000
  145.2794  139.1924  143.4799 LP  0  0  0  0  0  0  0  0  0  0  0  0  # atno 17320 bound_to 7965
  146.3332  140.2753  142.8608 LP  0  0  0  0  0  0  0  0  0  0  0  0  # atno 17321 bound_to 7965
  140.6358  143.2195  151.6397 LP  0  0  0  0  0  0  0  0  0  0  0  0  # atno 17342 bound_to 10162
  139.5199  144.3239  152.0886 LP  0  0  0  0  0  0  0  0  0  0  0  0  # atno 17343 bound_to 10162
  156.3735  130.7542  151.2528 LP  0  0  0  0  0  0  0  0  0  0  0  0  # atno 17370 bound_to 10713
  157.7499  131.0316  150.4190 LP  0  0  0  0  0  0  0  0  0  0  0  0  # atno 17371 bound_to 10713
  140.0476  134.9822  157.1078 LP  0  0  0  0  0  0  0  0  0  0  0  0  # atno 17394 bound_to 11000
  140.4038  134.2054  155.7163 LP  0  0  0  0  0  0  0  0  0  0  0  0  # atno 17395 bound_to 11000

$$$$
