AV-unprocessed.smi:271|AV-procd|sdf|2051|dock10
  -GOLD-   2262021283D 1   1.00000     0.00000
 Structure written by MMmdl.
 58 60  0  0  0  0  0  0  0  0  1 V2000
  152.8823  138.3474  159.6568 C   0  0  0  0  0  0  0  0  0  0  0  0
  151.7714  138.2329  158.6020 C   0  0  0  0  0  0  0  0  0  0  0  0
  151.5125  139.6022  157.9503 C   0  0  0  0  0  0  0  0  0  0  0  0
  150.4928  137.6347  159.2196 C   0  0  0  0  0  0  0  0  0  0  0  0
  149.4048  137.2866  158.1795 C   0  0  0  0  0  0  0  0  0  0  0  0
  148.1869  136.7218  158.7639 N   0  0  0  0  0  0  0  0  0  0  0  0
  148.3906  135.5164  159.5637 C   0  0  0  0  0  0  0  0  0  0  0  0
  147.3618  135.3545  160.6940 C   0  0  0  0  0  0  0  0  0  0  0  0
  147.7049  136.1526  161.8800 C   0  0  0  0  0  0  0  0  0  0  0  0
  147.9752  136.7810  162.8132 N   0  0  0  0  0  0  0  0  0  0  0  0
  147.1673  136.5998  157.8834 C   0  0  0  0  0  0  0  0  0  0  0  0
  146.0221  137.2691  158.1641 N   0  0  0  0  0  0  0  0  0  0  0  0
  145.0008  137.2340  157.3030 C   0  0  0  0  0  0  0  0  0  0  0  0
  144.9242  136.6148  156.1230 N   0  0  0  0  0  0  0  0  0  0  0  0
  146.0735  135.9356  155.8435 C   0  0  0  0  0  0  0  0  0  0  0  0
  147.2289  135.8589  156.6696 C   0  0  0  0  0  0  0  0  0  0  0  0
  148.1933  135.0617  156.0650 N   0  0  0  0  0  0  0  0  0  0  0  0
  147.6492  134.7076  154.9333 C   0  0  0  0  0  0  0  0  0  0  0  0
  146.3911  135.2182  154.7040 N   0  0  0  0  0  0  0  0  0  0  0  0
  145.5774  135.0209  153.5189 C   0  0  0  0  0  0  0  0  0  0  0  0
  146.2210  135.5431  152.2060 C   0  0  2  0  0  0  0  0  0  0  0  0
  145.8417  137.0295  152.0108 C   0  0  0  0  0  0  0  0  0  0  0  0
  146.4049  137.5628  150.8290 O   0  0  0  0  0  0  0  0  0  0  0  0
  145.9238  134.6754  150.9454 C   0  0  1  0  0  0  0  0  0  0  0  0
  146.2467  133.1969  151.1005 C   0  0  0  0  0  0  0  0  0  0  0  0
  145.4552  132.5724  149.9612 C   0  0  0  0  0  0  0  0  0  0  0  0
  144.2414  133.3060  149.9372 O   0  0  0  0  0  0  0  0  0  0  0  0
  144.4473  134.5912  150.5164 C   0  0  0  0  0  0  0  0  0  0  0  0
  152.5915  139.0167  160.4673 H   0  0  0  0  0  0  0  0  0  0  0  0
  153.8023  138.7357  159.2189 H   0  0  0  0  0  0  0  0  0  0  0  0
  153.1132  137.3755  160.0938 H   0  0  0  0  0  0  0  0  0  0  0  0
  152.1277  137.5510  157.8288 H   0  0  0  0  0  0  0  0  0  0  0  0
  151.1221  140.3182  158.6744 H   0  0  0  0  0  0  0  0  0  0  0  0
  150.7962  139.5322  157.1325 H   0  0  0  0  0  0  0  0  0  0  0  0
  152.4313  140.0187  157.5367 H   0  0  0  0  0  0  0  0  0  0  0  0
  150.7467  136.7236  159.7631 H   0  0  0  0  0  0  0  0  0  0  0  0
  150.1105  138.3335  159.9648 H   0  0  0  0  0  0  0  0  0  0  0  0
  149.1453  138.1622  157.5860 H   0  0  0  0  0  0  0  0  0  0  0  0
  149.8133  136.5594  157.4770 H   0  0  0  0  0  0  0  0  0  0  0  0
  148.3724  134.6391  158.9156 H   0  0  0  0  0  0  0  0  0  0  0  0
  149.3896  135.5565  159.9991 H   0  0  0  0  0  0  0  0  0  0  0  0
  146.3733  135.6679  160.3571 H   0  0  0  0  0  0  0  0  0  0  0  0
  147.2848  134.3151  161.0126 H   0  0  0  0  0  0  0  0  0  0  0  0
  144.1236  137.7919  157.5959 H   0  0  0  0  0  0  0  0  0  0  0  0
  148.1659  134.0838  154.2184 H   0  0  0  0  0  0  0  0  0  0  0  0
  145.3548  133.9569  153.4309 H   0  0  0  0  0  0  0  0  0  0  0  0
  144.6235  135.5205  153.6920 H   0  0  0  0  0  0  0  0  0  0  0  0
  147.3020  135.5350  152.3496 H   0  0  0  0  0  0  0  0  0  0  0  0
  144.7582  137.1407  151.9602 H   0  0  0  0  0  0  0  0  0  0  0  0
  146.1661  137.6332  152.8582 H   0  0  0  0  0  0  0  0  0  0  0  0
  145.7355  138.0442  150.3673 H   0  0  0  0  0  0  0  0  0  0  0  0
  146.5057  135.0561  150.1043 H   0  0  0  0  0  0  0  0  0  0  0  0
  147.3130  132.9791  151.0317 H   0  0  0  0  0  0  0  0  0  0  0  0
  145.8798  132.8216  152.0571 H   0  0  0  0  0  0  0  0  0  0  0  0
  145.9742  132.7115  149.0118 H   0  0  0  0  0  0  0  0  0  0  0  0
  145.2777  131.5062  150.1025 H   0  0  0  0  0  0  0  0  0  0  0  0
  143.7770  134.6828  151.3715 H   0  0  0  0  0  0  0  0  0  0  0  0
  144.1843  135.3646  149.7962 H   0  0  0  0  0  0  0  0  0  0  0  0
  1  2  1  0  0  0  0
  1 29  1  0  0  0  0
  1 30  1  0  0  0  0
  1 31  1  0  0  0  0
  2  3  1  0  0  0  0
  2  4  1  0  0  0  0
  2 32  1  0  0  0  0
  3 33  1  0  0  0  0
  3 34  1  0  0  0  0
  3 35  1  0  0  0  0
  4  5  1  0  0  0  0
  4 36  1  0  0  0  0
  4 37  1  0  0  0  0
  5  6  1  0  0  0  0
  5 38  1  0  0  0  0
  5 39  1  0  0  0  0
  6  7  1  0  0  0  0
  6 11  1  0  0  0  0
  7  8  1  0  0  0  0
  7 40  1  0  0  0  0
  7 41  1  0  0  0  0
  8  9  1  0  0  0  0
  8 42  1  0  0  0  0
  8 43  1  0  0  0  0
  9 10  3  0  0  0  0
 11 16  1  0  0  0  0
 11 12  2  0  0  0  0
 12 13  1  0  0  0  0
 13 14  2  0  0  0  0
 13 44  1  0  0  0  0
 14 15  1  0  0  0  0
 15 19  1  0  0  0  0
 15 16  2  0  0  0  0
 16 17  1  0  0  0  0
 17 18  2  0  0  0  0
 18 19  1  0  0  0  0
 18 45  1  0  0  0  0
 19 20  1  0  0  0  0
 20 21  1  0  0  0  0
 20 46  1  0  0  0  0
 20 47  1  0  0  0  0
 21 22  1  0  0  0  0
 21 24  1  0  0  0  0
 21 48  1  0  0  0  0
 22 23  1  0  0  0  0
 22 49  1  0  0  0  0
 22 50  1  0  0  0  0
 23 51  1  0  0  0  0
 24 28  1  0  0  0  0
 24 25  1  0  0  0  0
 24 52  1  0  0  0  0
 25 26  1  0  0  0  0
 25 53  1  0  0  0  0
 25 54  1  0  0  0  0
 26 27  1  0  0  0  0
 26 55  1  0  0  0  0
 26 56  1  0  0  0  0
 27 28  1  0  0  0  0
 28 57  1  0  0  0  0
 28 58  1  0  0  0  0
M  END
> <s_m_source_file>
AV-unprocessed.smi

> <i_m_source_file_index>
271

> <i_lp_mmshare_version>
43012

> <i_f3d_flags>
0

> <s_epik_input>
W0NIM11bQ0hdKFtDSDNdKVtDSDJdW0NIMl1OKFtDSDJdW0NIMl1DI04pYyhuW2NIXW4xKWMoYzEyKW5bY0hdbjJbQ0gyXVtDQEhdKFtDSDJdW09IXSlbQ0BASF0zW0NIMl1bQ0gyXU9bQ0gyXTM=

> <s_epik_cmdline>
J2VwaWtfcHl0aG9uJywgJy1waCcsICc3LjAnLCAnLXRuJywgJzgnLCAnLW1hJywgJzIwMCcsICctbWV0YWxfYmluZGluZycsICctaW1hZScsICc8aW5maWxlLm1hZT4nLCAnLW9tYWUnLCAnPG91dGZpbGUubWFlPic=

> <r_lp_tautomer_probability>
1

> <r_epik_Ionization_Penalty>
0.000825874

> <r_epik_Ionization_Penalty_Charging>
0

> <r_epik_Ionization_Penalty_Neutral>
0.000825874

> <r_epik_State_Penalty>
0.000396768

> <r_epik_Charging_Adjusted_Penalty>
0.000396768

> <i_epik_Tot_Q>
0

> <i_epik_Tot_abs_Q>
0

> <r_epik_Metal_State_Penalty>
-0

> <b_epik_Metal_Only>
0

> <s_lp_Force_Field>
OPLS_2005

> <r_lp_Energy>
35.9661

> <b_lp_Chiralities_Consistent>
1

> <s_lp_Variant>
AV-unprocessed.smi:271-3

> <Gold.Version>
5.8.1

> <Gold.Id.Protein>
6NUR|6NUR_protein|mol2

> <Gold.PLP.Fitness>
40.2199

> <Gold.PLP.PLP>
-32.6802

> <Gold.PLP.part.hbond>
-4.0000

> <Gold.PLP.part.metal>
0.0000

> <Gold.PLP.part.buried>
-4.7145

> <Gold.PLP.part.nonpolar>
-24.3737

> <Gold.PLP.part.repulsive>
0.2342

> <Gold.PLP.ligand.clash>
0.0000

> <Gold.PLP.ligand.torsion>
1.0432

> <Gold.PLP.Chemscore.Hbond>
2.9280

> <Gold.PLP.Chemscore.CHOScore>
0.0000

> <Gold.PLP.Chemscore.Metal>
0.0000

> <Gold.Chemscore.Hbonds>
donor molecule, donor type, donor heavy atom, donor atom, acceptor molecule, acceptor atom, score
      L1  H    23    51       P1 10171  1.00
      P1  H  6931  6943       L1    10  0.93
      P1  H  7954  7966       L1    23  1.00

> <Gold.PLP.Chemscore.Internal.Correction>
0.8422

> <Gold.Rescore>
     Score         DG    S(hbond)    S(metal)    S(lipo)     H(rot)  DE(clash)    DE(int)     intcor
     11.62     -12.97       2.60        0.00      72.33       3.77       0.44       0.91       ----

> <Gold.Chemscore.Fitness>
11.6221

> <Gold.Chemscore.DG>
-12.9745

> <Gold.Chemscore.ZeroCoef>
-5.4800

> <Gold.Chemscore.Hbond>
2.5983

> <Gold.Chemscore.Metal>
0.0000

> <Gold.Chemscore.Lipo>
72.3320

> <Gold.Chemscore.Internal_Hbond>
0.0000

> <Gold.Chemscore.DEClash>
0.4420

> <Gold.Chemscore.DEInternal>
0.9104

> <Gold.Chemscore.Rot>
3.7683

> <Gold.Chemscore.Internal.Correction>
   9.000000E+99

> <Gold.Chemscore.Hbonds>
donor molecule, donor type, donor heavy atom, donor atom, acceptor molecule, acceptor atom, score
      L1  H    23    51       P1 10171  0.95
      P1  H  6931  6943       L1    10  0.22
      P1  H  7954  7966       L1    23  0.61

> <Gold.Chemscore.Hbond.Weighted>
-8.6785

> <Gold.Chemscore.Metal.Weighted>
-0.0000

> <Gold.Chemscore.Lipo.Weighted>
-8.4628

> <Gold.Chemscore.Internal_Hbond.Weighted>
0.0000

> <Gold.Chemscore.DEClash.Weighted>
0.4420

> <Gold.Chemscore.DEInternal.Weighted>
0.9104

> <Gold.Chemscore.Rot.Weighted>
9.6468

> <Gold.Chemscore.Internal.Correction.Weighted>
   9.000000E+99

> <Gold.Protein.RotatedTorsions>
[ 6907 6896 6895 6894 ] final  125.03 input  -60.11 | X-H torsion
[ 7974 7965 7964 7962 ] final  -86.20 input  175.53 | X-H torsion
[ 8008 7997 7996 7995 ] final  137.96 input   59.86 | X-H torsion
[ 10167 10162 10161 10158 ] final -142.52 input  -65.29 | X-H torsion
[ 10718 10713 10712 10709 ] final  -73.06 input   66.30 | X-H torsion
[ 10763 10752 10751 10750 ] final   58.51 input  -60.55 | X-H torsion
[ 11005 11000 10999 10996 ] final  165.81 input  -57.11 | X-H torsion

> <Gold.Protein.ActiveResidues>
 VAL166  LYS551  ARG553  GLY616  TRP617  ASP618  TYR619  PRO620  LYS621  CYS622 
 ASP623  PHE694  ASN695  SER759  ASP760  ASP761  ALA762  ILE779  LEU786  VAL792 
 PHE793  MET794  SER795  GLU796  ALA797  LYS798  CYS799  TRP800  GLU811  SER814 

> <Gold.Protein.RotatedAtoms>
  152.4027  133.6842  159.6329 H   0  0  0  0  0  0  0  0  0  0  0  0  # atno 6907 bound_to 6896
  150.7916  133.8763  159.3281 H   0  0  0  0  0  0  0  0  0  0  0  0  # atno 6908 bound_to 6896
  151.6524  135.1001  160.0215 H   0  0  0  0  0  0  0  0  0  0  0  0  # atno 6909 bound_to 6896
  145.4830  140.9556  143.1854 H   0  0  0  0  0  0  0  0  0  0  0  0  # atno 7974 bound_to 7965
  156.3000  140.2406  156.3994 H   0  0  0  0  0  0  0  0  0  0  0  0  # atno 8008 bound_to 7997
  154.8540  140.0423  157.1643 H   0  0  0  0  0  0  0  0  0  0  0  0  # atno 8009 bound_to 7997
  154.8967  140.2971  155.5344 H   0  0  0  0  0  0  0  0  0  0  0  0  # atno 8010 bound_to 7997
  139.8081  143.7740  152.2662 H   0  0  0  0  0  0  0  0  0  0  0  0  # atno 10167 bound_to 10162
  156.0295  130.4386  150.2686 H   0  0  0  0  0  0  0  0  0  0  0  0  # atno 10718 bound_to 10713
  152.9872  135.5604  154.5564 H   0  0  0  0  0  0  0  0  0  0  0  0  # atno 10763 bound_to 10752
  154.4991  135.2796  155.1437 H   0  0  0  0  0  0  0  0  0  0  0  0  # atno 10764 bound_to 10752
  154.2874  135.6333  153.5424 H   0  0  0  0  0  0  0  0  0  0  0  0  # atno 10765 bound_to 10752
  140.2599  134.7910  157.3581 H   0  0  0  0  0  0  0  0  0  0  0  0  # atno 11005 bound_to 11000
  144.7878  139.6391  143.7126 LP  0  0  0  0  0  0  0  0  0  0  0  0  # atno 17320 bound_to 7965
  146.2329  139.5849  142.9543 LP  0  0  0  0  0  0  0  0  0  0  0  0  # atno 17321 bound_to 7965
  139.7881  144.7420  150.9993 LP  0  0  0  0  0  0  0  0  0  0  0  0  # atno 17342 bound_to 10162
  140.7818  143.4471  151.0467 LP  0  0  0  0  0  0  0  0  0  0  0  0  # atno 17343 bound_to 10162
  157.0788  131.0137  151.3164 LP  0  0  0  0  0  0  0  0  0  0  0  0  # atno 17370 bound_to 10713
  157.4943  130.7841  149.7539 LP  0  0  0  0  0  0  0  0  0  0  0  0  # atno 17371 bound_to 10713
  140.1474  134.4893  155.7986 LP  0  0  0  0  0  0  0  0  0  0  0  0  # atno 17394 bound_to 11000
  141.2191  133.6849  156.7319 LP  0  0  0  0  0  0  0  0  0  0  0  0  # atno 17395 bound_to 11000

$$$$
