AV-unprocessed.smi:38|AV-procd|sdf|343|dock6
  -GOLD-   2262016183D 1   1.00000     0.00000
 Structure written by MMmdl.
 27 28  0  0  0  0  0  0  0  0  2 V2000
  149.8906  133.7525  157.4041 O   0  0  0  0  0  0  0  0  0  0  0  0
  150.3529  134.8062  156.9693 C   0  0  0  0  0  0  0  0  0  0  0  0
  151.1044  135.6533  157.7305 N   0  5  0  0  0  0  0  0  0  0  0  0
  151.6160  136.8229  157.2459 C   0  0  0  0  0  0  0  0  0  0  0  0
  152.3105  137.5832  157.9209 O   0  0  0  0  0  0  0  0  0  0  0  0
  151.3480  137.1849  155.8971 N   0  0  0  0  0  0  0  0  0  0  0  0
  151.9158  138.4789  155.3521 C   0  0  1  0  0  0  0  0  0  0  0  0
  151.2200  138.8549  154.0415 C   0  0  0  0  0  0  0  0  0  0  0  0
  150.1577  139.8201  154.5239 C   0  0  2  0  0  0  0  0  0  0  0  0
  149.7660  140.6981  153.4885 O   0  0  0  0  0  0  0  0  0  0  0  0
  150.8846  140.5404  155.6621 C   0  0  1  0  0  0  0  0  0  0  0  0
  149.9379  141.1641  156.6999 C   0  0  0  0  0  0  0  0  0  0  0  0
  148.9486  141.9380  156.0554 O   0  0  0  0  0  0  0  0  0  0  0  0
  151.6753  139.5144  156.2633 O   0  0  0  0  0  0  0  0  0  0  0  0
  150.5975  136.3378  155.0986 C   0  0  0  0  0  0  0  0  0  0  0  0
  150.0987  135.1809  155.5798 C   0  0  0  0  0  0  0  0  0  0  0  0
  149.3756  134.3796  154.7788 F   0  0  0  0  0  0  0  0  0  0  0  0
  152.9910  138.3206  155.2545 H   0  0  0  0  0  0  0  0  0  0  0  0
  149.2932  139.2712  154.9001 H   0  0  0  0  0  0  0  0  0  0  0  0
  151.5556  141.2923  155.2415 H   0  0  0  0  0  0  0  0  0  0  0  0
  151.9477  139.3586  153.4032 H   0  0  0  0  0  0  0  0  0  0  0  0
  150.8262  137.9873  153.5103 H   0  0  0  0  0  0  0  0  0  0  0  0
  149.7605  140.2168  152.6755 H   0  0  0  0  0  0  0  0  0  0  0  0
  149.4250  140.3794  157.2564 H   0  0  0  0  0  0  0  0  0  0  0  0
  150.4806  141.7705  157.4248 H   0  0  0  0  0  0  0  0  0  0  0  0
  149.2240  142.8418  156.0610 H   0  0  0  0  0  0  0  0  0  0  0  0
  150.4031  136.5921  154.0688 H   0  0  0  0  0  0  0  0  0  0  0  0
  1  2  2  0  0  0  0
  2 16  1  0  0  0  0
  2  3  1  0  0  0  0
  3  4  1  0  0  0  0
  4  5  2  0  0  0  0
  4  6  1  0  0  0  0
  6  7  1  0  0  0  0
  6 15  1  0  0  0  0
  7 18  1  0  0  0  0
  7 14  1  0  0  0  0
  7  8  1  0  0  0  0
  8  9  1  0  0  0  0
  8 21  1  0  0  0  0
  8 22  1  0  0  0  0
  9 19  1  0  0  0  0
  9 10  1  0  0  0  0
  9 11  1  0  0  0  0
 10 23  1  0  0  0  0
 11 20  1  0  0  0  0
 11 12  1  0  0  0  0
 11 14  1  0  0  0  0
 12 13  1  0  0  0  0
 12 24  1  0  0  0  0
 12 25  1  0  0  0  0
 13 26  1  0  0  0  0
 15 16  2  0  0  0  0
 15 27  1  0  0  0  0
 16 17  1  0  0  0  0
M  CHG  1   3  -1
M  END
> <s_m_source_file>
AV-unprocessed.smi

> <i_m_source_file_index>
38

> <i_lp_mmshare_version>
43012

> <i_f3d_flags>
0

> <s_epik_input>
Tz1jMVtuSF1jKD1PKW4oW2NIXWMxRilbQ0BIXTJbQ0gyXVtDQEhdKFtPSF0pW0NASF0oTzIpW0NIMl1bT0hd

> <s_epik_cmdline>
J2VwaWtfcHl0aG9uJywgJy1waCcsICc3LjAnLCAnLXRuJywgJzgnLCAnLW1hJywgJzIwMCcsICctbWV0YWxfYmluZGluZycsICctaW1hZScsICc8aW5maWxlLm1hZT4nLCAnLW9tYWUnLCAnPG91dGZpbGUubWFlPic=

> <r_epik_Ionization_Penalty>
1.68146

> <r_epik_Ionization_Penalty_Charging>
3.4211e-08

> <r_epik_Ionization_Penalty_Neutral>
1.68146

> <r_epik_State_Penalty>
1.78593

> <r_epik_Charging_Adjusted_Penalty>
1.78593

> <i_epik_Tot_Q>
-1

> <i_epik_Tot_abs_Q>
1

> <r_epik_Metal_State_Penalty>
0.0113696

> <b_epik_Metal_Only>
0

> <s_epik_Chemistry_Notes>
This compound contains an acetal/aminal-like group ( X-CH(R)-Y where X, Y are N, S, or O) that may be acid/base labile, releasing an aldehyde.

> <s_lp_Force_Field>
OPLS_2005

> <r_lp_Energy>
36.3434

> <b_lp_Chiralities_Consistent>
1

> <s_lp_Variant>
AV-unprocessed.smi:38-9

> <Gold.Version>
5.8.1

> <Gold.Id.Protein>
6NUR|6NUR_protein|mol2

> <Gold.PLP.Fitness>
36.8103

> <Gold.PLP.PLP>
-24.5870

> <Gold.PLP.part.hbond>
-5.3436

> <Gold.PLP.part.metal>
0.0000

> <Gold.PLP.part.buried>
-2.1348

> <Gold.PLP.part.nonpolar>
-17.0949

> <Gold.PLP.part.repulsive>
0.0000

> <Gold.PLP.ligand.clash>
0.0000

> <Gold.PLP.ligand.torsion>
0.4324

> <Gold.PLP.Chemscore.Hbond>
3.3496

> <Gold.PLP.Chemscore.CHOScore>
1.0097

> <Gold.PLP.Chemscore.Metal>
0.0000

> <Gold.Chemscore.Hbonds>
donor molecule, donor type, donor heavy atom, donor atom, acceptor molecule, acceptor atom, score
      L1  H    10    23       P1  7957  0.99
      L1  H    13    26       P1  8028  1.00
      P1  H  6896  6908       L1     1  0.81
      P1  H  6896  6909       L1     3  0.11
      P1  H  8011  8017       L1    10  0.27
      L1  C    15    27       P1  7948  0.57
      L1  C    15    27       P1  7949  0.19

> <Gold.PLP.Chemscore.Internal.Correction>
0.0104

> <Gold.Rescore>
     Score         DG    S(hbond)    S(metal)    S(lipo)     H(rot)  DE(clash)    DE(int)     intcor
     10.05     -11.45       2.75        0.00      35.43       2.88       0.06       1.34       ----

> <Gold.Chemscore.Fitness>
10.0531

> <Gold.Chemscore.DG>
-11.4484

> <Gold.Chemscore.ZeroCoef>
-5.4800

> <Gold.Chemscore.Hbond>
2.7545

> <Gold.Chemscore.Metal>
0.0000

> <Gold.Chemscore.Lipo>
35.4259

> <Gold.Chemscore.Internal_Hbond>
0.0000

> <Gold.Chemscore.DEClash>
0.0556

> <Gold.Chemscore.DEInternal>
1.3397

> <Gold.Chemscore.Rot>
2.8815

> <Gold.Chemscore.Internal.Correction>
   9.000000E+99

> <Gold.Chemscore.Hbonds>
donor molecule, donor type, donor heavy atom, donor atom, acceptor molecule, acceptor atom, score
      L1  H    10    23       P1  7957  0.91
      L1  H    13    26       P1  8028  0.93
      P1  H  6896  6908       L1     1  0.17
      P1  H  6896  6909       L1     3  0.06

> <Gold.Chemscore.Hbond.Weighted>
-9.2001

> <Gold.Chemscore.Metal.Weighted>
-0.0000

> <Gold.Chemscore.Lipo.Weighted>
-4.1448

> <Gold.Chemscore.Internal_Hbond.Weighted>
0.0000

> <Gold.Chemscore.DEClash.Weighted>
0.0556

> <Gold.Chemscore.DEInternal.Weighted>
1.3397

> <Gold.Chemscore.Rot.Weighted>
7.3765

> <Gold.Chemscore.Internal.Correction.Weighted>
   9.000000E+99

> <Gold.Protein.RotatedTorsions>
[ 6907 6896 6895 6894 ] final  108.05 input  -60.11 | X-H torsion
[ 7974 7965 7964 7962 ] final -136.98 input  175.53 | X-H torsion
[ 8008 7997 7996 7995 ] final  -34.63 input   59.86 | X-H torsion
[ 10167 10162 10161 10158 ] final   79.14 input  -65.29 | X-H torsion
[ 10718 10713 10712 10709 ] final   71.92 input   66.30 | X-H torsion
[ 10763 10752 10751 10750 ] final    4.02 input  -60.55 | X-H torsion
[ 11005 11000 10999 10996 ] final  -49.39 input  -57.11 | X-H torsion

> <Gold.Protein.ActiveResidues>
 VAL166  LYS551  ARG553  GLY616  TRP617  ASP618  TYR619  PRO620  LYS621  CYS622 
 ASP623  PHE694  ASN695  SER759  ASP760  ASP761  ALA762  ILE779  LEU786  VAL792 
 PHE793  MET794  SER795  GLU796  ALA797  LYS798  CYS799  TRP800  GLU811  SER814 

> <Gold.Protein.RotatedAtoms>
  152.5129  133.9146  159.7504 H   0  0  0  0  0  0  0  0  0  0  0  0  # atno 6907 bound_to 6896
  150.9531  133.6519  159.2775 H   0  0  0  0  0  0  0  0  0  0  0  0  # atno 6908 bound_to 6896
  151.3790  135.0941  159.9542 H   0  0  0  0  0  0  0  0  0  0  0  0  # atno 6909 bound_to 6896
  144.8881  140.6603  143.5163 H   0  0  0  0  0  0  0  0  0  0  0  0  # atno 7974 bound_to 7965
  154.4116  140.1679  156.2080 H   0  0  0  0  0  0  0  0  0  0  0  0  # atno 8008 bound_to 7997
  155.9468  140.3404  155.6350 H   0  0  0  0  0  0  0  0  0  0  0  0  # atno 8009 bound_to 7997
  155.6920  140.0735  157.2435 H   0  0  0  0  0  0  0  0  0  0  0  0  # atno 8010 bound_to 7997
  139.9634  144.5945  150.8051 H   0  0  0  0  0  0  0  0  0  0  0  0  # atno 10167 bound_to 10162
  157.6475  130.9552  150.0856 H   0  0  0  0  0  0  0  0  0  0  0  0  # atno 10718 bound_to 10713
  153.2763  135.6936  153.7430 H   0  0  0  0  0  0  0  0  0  0  0  0  # atno 10763 bound_to 10752
  153.6435  135.3389  155.3079 H   0  0  0  0  0  0  0  0  0  0  0  0  # atno 10764 bound_to 10752
  154.8480  135.4437  154.1801 H   0  0  0  0  0  0  0  0  0  0  0  0  # atno 10765 bound_to 10752
  141.0756  133.6666  156.3579 H   0  0  0  0  0  0  0  0  0  0  0  0  # atno 11005 bound_to 11000
  145.3833  139.1632  143.4269 LP  0  0  0  0  0  0  0  0  0  0  0  0  # atno 17320 bound_to 7965
  146.3037  140.3915  142.8695 LP  0  0  0  0  0  0  0  0  0  0  0  0  # atno 17321 bound_to 7965
  140.7545  143.3029  151.3034 LP  0  0  0  0  0  0  0  0  0  0  0  0  # atno 17342 bound_to 10162
  139.6536  144.0317  152.2644 LP  0  0  0  0  0  0  0  0  0  0  0  0  # atno 17343 bound_to 10162
  156.1820  130.3650  149.9023 LP  0  0  0  0  0  0  0  0  0  0  0  0  # atno 17370 bound_to 10713
  156.6973  130.8919  151.3595 LP  0  0  0  0  0  0  0  0  0  0  0  0  # atno 17371 bound_to 10713
  140.5579  134.5963  157.5426 LP  0  0  0  0  0  0  0  0  0  0  0  0  # atno 17394 bound_to 11000
  139.9569  134.7520  156.0322 LP  0  0  0  0  0  0  0  0  0  0  0  0  # atno 17395 bound_to 11000

$$$$
