AV-unprocessed.smi:21|AV-procd|sdf|168|dock1
  -GOLD-   2262015413D 1   1.00000     0.00000
 Structure written by MMmdl.
 61 64  0  0  0  0  0  0  0  0  1 V2000
  152.4746  143.3085  162.2211 C   0  0  0  0  0  0  0  0  0  0  0  0
  151.5084  143.4264  161.1882 O   0  0  0  0  0  0  0  0  0  0  0  0
  152.0266  143.1186  159.9016 C   0  0  2  0  0  0  0  0  0  0  0  0
  150.9198  143.0171  158.8421 C   0  0  0  0  0  0  0  0  0  0  0  0
  151.2712  141.7448  158.0598 C   0  0  2  0  0  0  0  0  0  0  0  0
  150.0818  141.1334  157.2811 C   0  0  0  0  0  0  0  0  0  0  0  0
  150.4024  140.7723  155.8983 N   0  0  0  0  0  0  0  0  0  0  0  0
  149.7306  141.5129  154.8346 C   0  0  0  0  0  0  0  0  0  0  0  0
  150.7613  139.4833  155.6532 C   0  0  0  0  0  0  0  0  0  0  0  0
  151.3348  139.1700  154.4598 N   0  0  0  0  0  0  0  0  0  0  0  0
  151.6238  137.9017  154.1578 C   0  0  0  0  0  0  0  0  0  0  0  0
  151.4217  136.8047  154.8879 N   0  0  0  0  0  0  0  0  0  0  0  0
  150.8734  137.1104  156.0979 C   0  0  0  0  0  0  0  0  0  0  0  0
  150.5360  138.4123  156.5668 C   0  0  0  0  0  0  0  0  0  0  0  0
  150.0441  138.3279  157.8646 N   0  0  0  0  0  0  0  0  0  0  0  0
  150.0643  137.0526  158.1357 C   0  0  0  0  0  0  0  0  0  0  0  0
  150.5033  136.2441  157.1122 N   0  0  0  0  0  0  0  0  0  0  0  0
  150.5937  134.7942  157.1289 C   0  0  0  0  0  0  0  0  0  0  0  0
  149.5829  134.0780  156.1887 C   0  0  1  0  0  0  0  0  0  0  0  0
  149.7429  134.6263  154.7509 C   0  0  0  0  0  0  0  0  0  0  0  0
  148.7845  135.6264  154.4732 O   0  0  0  0  0  0  0  0  0  0  0  0
  149.7075  132.5257  156.1952 C   0  0  1  0  0  0  0  0  0  0  0  0
  149.2343  131.7934  154.9488 C   0  0  0  0  0  0  0  0  0  0  0  0
  149.9314  130.4482  155.0803 C   0  0  0  0  0  0  0  0  0  0  0  0
  151.2121  130.7632  155.6015 O   0  0  0  0  0  0  0  0  0  0  0  0
  151.1555  132.0126  156.2838 C   0  0  0  0  0  0  0  0  0  0  0  0
  151.8306  140.8662  159.0752 N   0  0  0  0  0  0  0  0  0  0  0  0
  152.5632  139.7271  158.5382 C   0  0  0  0  0  0  0  0  0  0  0  0
  152.6726  141.7266  159.8901 C   0  0  0  0  0  0  0  0  0  0  0  0
  152.7793  143.8533  159.6097 H   0  0  0  0  0  0  0  0  0  0  0  0
  152.0612  141.9981  157.3505 H   0  0  0  0  0  0  0  0  0  0  0  0
  152.0145  143.5348  163.1825 H   0  0  0  0  0  0  0  0  0  0  0  0
  153.3041  144.0014  162.0772 H   0  0  0  0  0  0  0  0  0  0  0  0
  152.8728  142.2946  162.2737 H   0  0  0  0  0  0  0  0  0  0  0  0
  149.9478  142.8993  159.3244 H   0  0  0  0  0  0  0  0  0  0  0  0
  150.8785  143.9052  158.2116 H   0  0  0  0  0  0  0  0  0  0  0  0
  149.7546  140.2196  157.7763 H   0  0  0  0  0  0  0  0  0  0  0  0
  149.2281  141.8047  157.3354 H   0  0  0  0  0  0  0  0  0  0  0  0
  150.2755  141.4219  153.8943 H   0  0  0  0  0  0  0  0  0  0  0  0
  149.6735  142.5725  155.0841 H   0  0  0  0  0  0  0  0  0  0  0  0
  148.7150  141.1448  154.6851 H   0  0  0  0  0  0  0  0  0  0  0  0
  152.0674  137.7415  153.1864 H   0  0  0  0  0  0  0  0  0  0  0  0
  149.7263  136.6624  159.0846 H   0  0  0  0  0  0  0  0  0  0  0  0
  151.6186  134.5465  156.8523 H   0  0  0  0  0  0  0  0  0  0  0  0
  150.4634  134.4438  158.1535 H   0  0  0  0  0  0  0  0  0  0  0  0
  148.5712  134.3245  156.5122 H   0  0  0  0  0  0  0  0  0  0  0  0
  150.7436  135.0327  154.6006 H   0  0  0  0  0  0  0  0  0  0  0  0
  149.6030  133.8434  154.0067 H   0  0  0  0  0  0  0  0  0  0  0  0
  148.7370  135.7466  153.5369 H   0  0  0  0  0  0  0  0  0  0  0  0
  149.1516  132.1288  157.0463 H   0  0  0  0  0  0  0  0  0  0  0  0
  148.1544  131.6685  154.9027 H   0  0  0  0  0  0  0  0  0  0  0  0
  149.5674  132.3070  154.0459 H   0  0  0  0  0  0  0  0  0  0  0  0
  149.4052  129.8150  155.7958 H   0  0  0  0  0  0  0  0  0  0  0  0
  149.9966  129.9106  154.1347 H   0  0  0  0  0  0  0  0  0  0  0  0
  151.8459  132.6949  155.7864 H   0  0  0  0  0  0  0  0  0  0  0  0
  151.4839  131.8986  157.3170 H   0  0  0  0  0  0  0  0  0  0  0  0
  153.0018  139.1395  159.3453 H   0  0  0  0  0  0  0  0  0  0  0  0
  153.3689  140.0503  157.8777 H   0  0  0  0  0  0  0  0  0  0  0  0
  151.9044  139.0671  157.9745 H   0  0  0  0  0  0  0  0  0  0  0  0
  153.6656  141.8074  159.4447 H   0  0  0  0  0  0  0  0  0  0  0  0
  152.7996  141.3169  160.8927 H   0  0  0  0  0  0  0  0  0  0  0  0
  1  2  1  0  0  0  0
  1 32  1  0  0  0  0
  1 33  1  0  0  0  0
  1 34  1  0  0  0  0
  2  3  1  0  0  0  0
  3 30  1  0  0  0  0
  3 29  1  0  0  0  0
  3  4  1  0  0  0  0
  4  5  1  0  0  0  0
  4 35  1  0  0  0  0
  4 36  1  0  0  0  0
  5 31  1  0  0  0  0
  5  6  1  0  0  0  0
  5 27  1  0  0  0  0
  6  7  1  0  0  0  0
  6 37  1  0  0  0  0
  6 38  1  0  0  0  0
  7  8  1  0  0  0  0
  7  9  1  0  0  0  0
  8 39  1  0  0  0  0
  8 40  1  0  0  0  0
  8 41  1  0  0  0  0
  9 14  1  0  0  0  0
  9 10  2  0  0  0  0
 10 11  1  0  0  0  0
 11 12  2  0  0  0  0
 11 42  1  0  0  0  0
 12 13  1  0  0  0  0
 13 17  1  0  0  0  0
 13 14  2  0  0  0  0
 14 15  1  0  0  0  0
 15 16  2  0  0  0  0
 16 17  1  0  0  0  0
 16 43  1  0  0  0  0
 17 18  1  0  0  0  0
 18 19  1  0  0  0  0
 18 44  1  0  0  0  0
 18 45  1  0  0  0  0
 19 20  1  0  0  0  0
 19 22  1  0  0  0  0
 19 46  1  0  0  0  0
 20 21  1  0  0  0  0
 20 47  1  0  0  0  0
 20 48  1  0  0  0  0
 21 49  1  0  0  0  0
 22 26  1  0  0  0  0
 22 23  1  0  0  0  0
 22 50  1  0  0  0  0
 23 24  1  0  0  0  0
 23 51  1  0  0  0  0
 23 52  1  0  0  0  0
 24 25  1  0  0  0  0
 24 53  1  0  0  0  0
 24 54  1  0  0  0  0
 25 26  1  0  0  0  0
 26 55  1  0  0  0  0
 26 56  1  0  0  0  0
 27 28  1  0  0  0  0
 27 29  1  0  0  0  0
 28 57  1  0  0  0  0
 28 58  1  0  0  0  0
 28 59  1  0  0  0  0
 29 60  1  0  0  0  0
 29 61  1  0  0  0  0
M  END
> <s_m_source_file>
AV-unprocessed.smi

> <i_m_source_file_index>
21

> <i_lp_mmshare_version>
43012

> <i_f3d_flags>
0

> <s_epik_input>
W0NIM11PW0NASF0xW0NIMl1bQ0BIXShOKFtDSDNdKVtDSDJdMSlbQ0gyXU4oW0NIM10pYyhuW2NIXW4yKWMoYzIzKW5bY0hdbjNbQ0gyXVtDQEhdKFtDSDJdW09IXSlbQ0BASF00W0NIMl1bQ0gyXU9bQ0gyXTQ=

> <s_epik_cmdline>
J2VwaWtfcHl0aG9uJywgJy1waCcsICc3LjAnLCAnLXRuJywgJzgnLCAnLW1hJywgJzIwMCcsICctbWV0YWxfYmluZGluZycsICctaW1hZScsICc8aW5maWxlLm1hZT4nLCAnLW9tYWUnLCAnPG91dGZpbGUubWFlPic=

> <r_lp_tautomer_probability>
1

> <r_epik_Ionization_Penalty>
2.17574

> <r_epik_Ionization_Penalty_Charging>
0

> <r_epik_Ionization_Penalty_Neutral>
2.17574

> <r_epik_State_Penalty>
2.31336

> <r_epik_Charging_Adjusted_Penalty>
2.31336

> <i_epik_Tot_Q>
0

> <i_epik_Tot_abs_Q>
0

> <r_epik_Metal_State_Penalty>
2.31025

> <b_epik_Metal_Only>
0

> <s_lp_Force_Field>
OPLS_2005

> <r_lp_Energy>
69.8341

> <b_lp_Chiralities_Consistent>
1

> <s_lp_Variant>
AV-unprocessed.smi:21-48

> <Gold.Version>
5.8.1

> <Gold.Id.Protein>
6NUR|6NUR_protein|mol2

> <Gold.PLP.Fitness>
53.6584

> <Gold.PLP.PLP>
-46.4817

> <Gold.PLP.part.hbond>
-3.6090

> <Gold.PLP.part.metal>
0.0000

> <Gold.PLP.part.buried>
-3.7984

> <Gold.PLP.part.nonpolar>
-38.8343

> <Gold.PLP.part.repulsive>
0.4231

> <Gold.PLP.ligand.clash>
0.0000

> <Gold.PLP.ligand.torsion>
2.5519

> <Gold.PLP.Chemscore.Hbond>
3.0000

> <Gold.PLP.Chemscore.CHOScore>
0.8598

> <Gold.PLP.Chemscore.Metal>
0.0000

> <Gold.Chemscore.Hbonds>
donor molecule, donor type, donor heavy atom, donor atom, acceptor molecule, acceptor atom, score
      L1  H    21    49       P1  7948  1.00
      P1  H  7989  7998       L1    10  1.00
      P1  H 10752 10763       L1    12  1.00
      L1  C    11    42       P1  7949  0.74

> <Gold.PLP.Chemscore.Internal.Correction>
0.7010

> <Gold.Rescore>
     Score         DG    S(hbond)    S(metal)    S(lipo)     H(rot)  DE(clash)    DE(int)     intcor
     12.27     -19.05       2.67        0.00     105.51       3.00       0.44       6.34       ----

> <Gold.Chemscore.Fitness>
12.2711

> <Gold.Chemscore.DG>
-19.0481

> <Gold.Chemscore.ZeroCoef>
-5.4800

> <Gold.Chemscore.Hbond>
2.6682

> <Gold.Chemscore.Metal>
0.0000

> <Gold.Chemscore.Lipo>
105.5058

> <Gold.Chemscore.Internal_Hbond>
0.0000

> <Gold.Chemscore.DEClash>
0.4388

> <Gold.Chemscore.DEInternal>
6.3382

> <Gold.Chemscore.Rot>
3.0031

> <Gold.Chemscore.Internal.Correction>
   9.000000E+99

> <Gold.Chemscore.Hbonds>
donor molecule, donor type, donor heavy atom, donor atom, acceptor molecule, acceptor atom, score
      L1  H    21    49       P1  7948  0.98
      P1  H  7989  7998       L1    10  0.64
      P1  H 10752 10763       L1    12  0.49

> <Gold.Chemscore.Hbond.Weighted>
-8.9119

> <Gold.Chemscore.Metal.Weighted>
-0.0000

> <Gold.Chemscore.Lipo.Weighted>
-12.3442

> <Gold.Chemscore.Internal_Hbond.Weighted>
0.0000

> <Gold.Chemscore.DEClash.Weighted>
0.4388

> <Gold.Chemscore.DEInternal.Weighted>
6.3382

> <Gold.Chemscore.Rot.Weighted>
7.6880

> <Gold.Chemscore.Internal.Correction.Weighted>
   9.000000E+99

> <Gold.Protein.RotatedTorsions>
[ 6907 6896 6895 6894 ] final   18.14 input  -60.11 | X-H torsion
[ 7974 7965 7964 7962 ] final -130.97 input  175.53 | X-H torsion
[ 8008 7997 7996 7995 ] final  156.21 input   59.86 | X-H torsion
[ 10167 10162 10161 10158 ] final   55.09 input  -65.29 | X-H torsion
[ 10718 10713 10712 10709 ] final  -94.05 input   66.30 | X-H torsion
[ 10763 10752 10751 10750 ] final   51.27 input  -60.55 | X-H torsion
[ 11005 11000 10999 10996 ] final    9.56 input  -57.11 | X-H torsion

> <Gold.Protein.ActiveResidues>
 VAL166  LYS551  ARG553  GLY616  TRP617  ASP618  TYR619  PRO620  LYS621  CYS622 
 ASP623  PHE694  ASN695  SER759  ASP760  ASP761  ALA762  ILE779  LEU786  VAL792 
 PHE793  MET794  SER795  GLU796  ALA797  LYS798  CYS799  TRP800  GLU811  SER814 

> <Gold.Protein.RotatedAtoms>
  151.8607  135.0525  160.0468 H   0  0  0  0  0  0  0  0  0  0  0  0  # atno 6907 bound_to 6896
  152.2665  133.5339  159.5421 H   0  0  0  0  0  0  0  0  0  0  0  0  # atno 6908 bound_to 6896
  150.7135  134.0673  159.3894 H   0  0  0  0  0  0  0  0  0  0  0  0  # atno 6909 bound_to 6896
  144.9424  140.7253  143.4838 H   0  0  0  0  0  0  0  0  0  0  0  0  # atno 7974 bound_to 7965
  156.2435  140.1918  156.6920 H   0  0  0  0  0  0  0  0  0  0  0  0  # atno 8008 bound_to 7997
  154.6245  140.0604  156.9682 H   0  0  0  0  0  0  0  0  0  0  0  0  # atno 8009 bound_to 7997
  155.1809  140.3276  155.4378 H   0  0  0  0  0  0  0  0  0  0  0  0  # atno 8010 bound_to 7997
  140.2231  144.3767  150.6443 H   0  0  0  0  0  0  0  0  0  0  0  0  # atno 10167 bound_to 10162
  156.0021  130.5052  150.5869 H   0  0  0  0  0  0  0  0  0  0  0  0  # atno 10718 bound_to 10713
  152.9785  135.5851  154.4388 H   0  0  0  0  0  0  0  0  0  0  0  0  # atno 10763 bound_to 10752
  154.3992  135.2768  155.2109 H   0  0  0  0  0  0  0  0  0  0  0  0  # atno 10764 bound_to 10752
  154.3948  135.6117  153.5917 H   0  0  0  0  0  0  0  0  0  0  0  0  # atno 10765 bound_to 10752
  140.5243  134.0528  155.7854 H   0  0  0  0  0  0  0  0  0  0  0  0  # atno 11005 bound_to 11000
  145.2971  139.1863  143.4709 LP  0  0  0  0  0  0  0  0  0  0  0  0  # atno 17320 bound_to 7965
  146.3290  140.2956  142.8618 LP  0  0  0  0  0  0  0  0  0  0  0  0  # atno 17321 bound_to 7965
  140.6240  143.2179  151.6635 LP  0  0  0  0  0  0  0  0  0  0  0  0  # atno 17342 bound_to 10162
  139.5137  144.3435  152.0718 LP  0  0  0  0  0  0  0  0  0  0  0  0  # atno 17343 bound_to 10162
  157.3740  131.0770  151.1534 LP  0  0  0  0  0  0  0  0  0  0  0  0  # atno 17370 bound_to 10713
  157.2278  130.6511  149.5837 LP  0  0  0  0  0  0  0  0  0  0  0  0  # atno 17371 bound_to 10713
  141.1316  133.9291  157.2522 LP  0  0  0  0  0  0  0  0  0  0  0  0  # atno 17394 bound_to 11000
  139.9588  135.0159  156.9204 LP  0  0  0  0  0  0  0  0  0  0  0  0  # atno 17395 bound_to 11000

$$$$
