AV-unprocessed.smi:710|AV-procd|sdf|3462|dock9
  -GOLD-   22720 0453D 1   1.00000     0.00000
 Structure written by MMmdl.
 40 41  0  0  0  0  0  0  0  0  1 V2000
  153.9687  140.9866  160.9843 C   0  0  0  0  0  0  0  0  0  0  0  0
  153.2077  141.7742  159.9565 C   0  0  0  0  0  0  0  0  0  0  0  0
  153.3244  143.0915  159.9297 N   0  0  0  0  0  0  0  0  0  0  0  0
  152.5381  143.4859  158.9081 N   0  0  0  0  0  0  0  0  0  0  0  0
  152.4390  144.8971  158.5905 C   0  0  0  0  0  0  0  0  0  0  0  0
  151.9176  142.4161  158.2927 C   0  0  0  0  0  0  0  0  0  0  0  0
  150.9986  142.5929  157.1264 C   0  0  0  0  0  0  0  0  0  0  0  0
  152.3293  141.2844  158.9461 C   0  0  0  0  0  0  0  0  0  0  0  0
  151.9617  139.8463  158.6744 C   0  0  0  0  0  0  0  0  0  0  0  0
  152.0103  139.5687  157.1711 C   0  0  0  0  0  0  0  0  0  0  0  0
  153.0770  139.2849  156.6273 O   0  0  0  0  0  0  0  0  0  0  0  0
  150.8454  139.6517  156.5136 N   0  0  0  0  0  0  0  0  0  0  0  0
  150.6777  139.4581  155.0796 C   0  0  0  0  0  0  0  0  0  0  0  0
  149.2794  139.9115  154.6081 C   0  0  1  0  0  0  0  0  0  0  0  0
  149.0061  139.2613  153.3788 O   0  0  0  0  0  0  0  0  0  0  0  0
  148.1762  139.5048  155.5988 C   0  0  0  0  0  0  0  0  0  0  0  0
  146.8936  140.2458  155.2057 C   0  0  0  0  0  0  0  0  0  0  0  0
  147.3743  141.8519  154.5208 S   0  0  0  0  0  0  0  0  0  0  0  0
  149.1355  141.4334  154.4247 C   0  0  0  0  0  0  0  0  0  0  0  0
  154.4549  140.1222  160.5315 H   0  0  0  0  0  0  0  0  0  0  0  0
  153.3019  140.6209  161.7654 H   0  0  0  0  0  0  0  0  0  0  0  0
  154.7438  141.5869  161.4625 H   0  0  0  0  0  0  0  0  0  0  0  0
  152.6481  145.0508  157.5314 H   0  0  0  0  0  0  0  0  0  0  0  0
  153.1546  145.4755  159.1769 H   0  0  0  0  0  0  0  0  0  0  0  0
  151.4319  145.2516  158.8111 H   0  0  0  0  0  0  0  0  0  0  0  0
  150.4658  141.6703  156.8982 H   0  0  0  0  0  0  0  0  0  0  0  0
  151.5580  142.8837  156.2370 H   0  0  0  0  0  0  0  0  0  0  0  0
  150.2550  143.3641  157.3274 H   0  0  0  0  0  0  0  0  0  0  0  0
  152.6406  139.1623  159.1850 H   0  0  0  0  0  0  0  0  0  0  0  0
  150.9641  139.6092  159.0452 H   0  0  0  0  0  0  0  0  0  0  0  0
  150.0201  139.9000  157.0395 H   0  0  0  0  0  0  0  0  0  0  0  0
  151.4606  139.9889  154.5344 H   0  0  0  0  0  0  0  0  0  0  0  0
  150.8114  138.3960  154.8674 H   0  0  0  0  0  0  0  0  0  0  0  0
  149.3967  139.7649  152.6808 H   0  0  0  0  0  0  0  0  0  0  0  0
  148.0255  138.4248  155.6341 H   0  0  0  0  0  0  0  0  0  0  0  0
  148.4623  139.8156  156.6046 H   0  0  0  0  0  0  0  0  0  0  0  0
  146.3616  139.6920  154.4316 H   0  0  0  0  0  0  0  0  0  0  0  0
  146.2155  140.3676  156.0506 H   0  0  0  0  0  0  0  0  0  0  0  0
  149.6377  141.9553  155.2399 H   0  0  0  0  0  0  0  0  0  0  0  0
  149.5717  141.7910  153.4911 H   0  0  0  0  0  0  0  0  0  0  0  0
  1  2  1  0  0  0  0
  1 20  1  0  0  0  0
  1 21  1  0  0  0  0
  1 22  1  0  0  0  0
  2  8  1  0  0  0  0
  2  3  2  0  0  0  0
  3  4  1  0  0  0  0
  4  5  1  0  0  0  0
  4  6  1  0  0  0  0
  5 23  1  0  0  0  0
  5 24  1  0  0  0  0
  5 25  1  0  0  0  0
  6  7  1  0  0  0  0
  6  8  2  0  0  0  0
  7 26  1  0  0  0  0
  7 27  1  0  0  0  0
  7 28  1  0  0  0  0
  8  9  1  0  0  0  0
  9 10  1  0  0  0  0
  9 29  1  0  0  0  0
  9 30  1  0  0  0  0
 10 11  2  0  0  0  0
 10 12  1  0  0  0  0
 12 13  1  0  0  0  0
 12 31  1  0  0  0  0
 13 14  1  0  0  0  0
 13 32  1  0  0  0  0
 13 33  1  0  0  0  0
 14 19  1  0  0  0  0
 14 15  1  0  0  0  0
 14 16  1  0  0  0  0
 15 34  1  0  0  0  0
 16 17  1  0  0  0  0
 16 35  1  0  0  0  0
 16 36  1  0  0  0  0
 17 18  1  0  0  0  0
 17 37  1  0  0  0  0
 17 38  1  0  0  0  0
 18 19  1  0  0  0  0
 19 39  1  0  0  0  0
 19 40  1  0  0  0  0
M  END
> <s_m_source_file>
AV-unprocessed.smi

> <i_m_source_file_index>
710

> <i_lp_mmshare_version>
43012

> <i_f3d_flags>
0

> <s_epik_input>
W0NIM11jMW5uKFtDSDNdKWMoW0NIM10pYzFbQ0gyXUMoPU8pW05IXVtDSDJdW0NAQF0yKFtPSF0pW0NIMl1bQ0gyXVNbQ0gyXTI=

> <s_epik_cmdline>
J2VwaWtfcHl0aG9uJywgJy1waCcsICc3LjAnLCAnLXRuJywgJzgnLCAnLW1hJywgJzIwMCcsICctbWV0YWxfYmluZGluZycsICctaW1hZScsICc8aW5maWxlLm1hZT4nLCAnLW9tYWUnLCAnPG91dGZpbGUubWFlPic=

> <r_lp_tautomer_probability>
1

> <r_epik_Ionization_Penalty>
0.00343686

> <r_epik_Ionization_Penalty_Charging>
0

> <r_epik_Ionization_Penalty_Neutral>
0.00343686

> <r_epik_State_Penalty>
0.00243544

> <r_epik_Charging_Adjusted_Penalty>
0.00243544

> <i_epik_Tot_Q>
0

> <i_epik_Tot_abs_Q>
0

> <r_epik_Metal_State_Penalty>
-0

> <b_epik_Metal_Only>
0

> <s_lp_Force_Field>
OPLS_2005

> <r_lp_Energy>
10.7161

> <b_lp_Chiralities_Consistent>
1

> <s_lp_Variant>
AV-unprocessed.smi:710-1

> <Gold.Version>
5.8.1

> <Gold.Id.Protein>
6NUR|6NUR_protein|mol2

> <Gold.PLP.Fitness>
45.8830

> <Gold.PLP.PLP>
-41.6366

> <Gold.PLP.part.hbond>
-1.5966

> <Gold.PLP.part.metal>
0.0000

> <Gold.PLP.part.buried>
-5.1407

> <Gold.PLP.part.nonpolar>
-34.7072

> <Gold.PLP.part.repulsive>
0.0590

> <Gold.PLP.ligand.clash>
0.0000

> <Gold.PLP.ligand.torsion>
0.8830

> <Gold.PLP.Chemscore.Hbond>
2.0000

> <Gold.PLP.Chemscore.CHOScore>
0.0000

> <Gold.PLP.Chemscore.Metal>
0.0000

> <Gold.Chemscore.Hbonds>
donor molecule, donor type, donor heavy atom, donor atom, acceptor molecule, acceptor atom, score
      L1  H    15    34       P1  7957  1.00
      P1  H  7997  8008       L1    11  0.94

> <Gold.PLP.Chemscore.Internal.Correction>
0.0125

> <Gold.Rescore>
     Score         DG    S(hbond)    S(metal)    S(lipo)     H(rot)  DE(clash)    DE(int)     intcor
     17.65     -18.56       1.99        0.00     100.48       2.07       0.02       0.89       ----

> <Gold.Chemscore.Fitness>
17.6544

> <Gold.Chemscore.DG>
-18.5580

> <Gold.Chemscore.ZeroCoef>
-5.4800

> <Gold.Chemscore.Hbond>
1.9862

> <Gold.Chemscore.Metal>
0.0000

> <Gold.Chemscore.Lipo>
100.4797

> <Gold.Chemscore.Internal_Hbond>
0.0000

> <Gold.Chemscore.DEClash>
0.0184

> <Gold.Chemscore.DEInternal>
0.8852

> <Gold.Chemscore.Rot>
2.0750

> <Gold.Chemscore.Internal.Correction>
   9.000000E+99

> <Gold.Chemscore.Hbonds>
donor molecule, donor type, donor heavy atom, donor atom, acceptor molecule, acceptor atom, score
      L1  H    15    34       P1  7957  0.91
      P1  H  7997  8008       L1    11  0.90

> <Gold.Chemscore.Hbond.Weighted>
-6.6338

> <Gold.Chemscore.Metal.Weighted>
-0.0000

> <Gold.Chemscore.Lipo.Weighted>
-11.7561

> <Gold.Chemscore.Internal_Hbond.Weighted>
0.0000

> <Gold.Chemscore.DEClash.Weighted>
0.0184

> <Gold.Chemscore.DEInternal.Weighted>
0.8852

> <Gold.Chemscore.Rot.Weighted>
5.3120

> <Gold.Chemscore.Internal.Correction.Weighted>
   9.000000E+99

> <Gold.Protein.RotatedTorsions>
[ 6907 6896 6895 6894 ] final   93.22 input  -60.11 | X-H torsion
[ 7974 7965 7964 7962 ] final   25.56 input  175.53 | X-H torsion
[ 8008 7997 7996 7995 ] final  -54.47 input   59.86 | X-H torsion
[ 10167 10162 10161 10158 ] final    3.42 input  -65.29 | X-H torsion
[ 10718 10713 10712 10709 ] final  -62.16 input   66.30 | X-H torsion
[ 10763 10752 10751 10750 ] final -165.53 input  -60.55 | X-H torsion
[ 11005 11000 10999 10996 ] final -113.53 input  -57.11 | X-H torsion

> <Gold.Protein.ActiveResidues>
 VAL166  LYS551  ARG553  GLY616  TRP617  ASP618  TYR619  PRO620  LYS621  CYS622 
 ASP623  PHE694  ASN695  SER759  ASP760  ASP761  ALA762  ILE779  LEU786  VAL792 
 PHE793  MET794  SER795  GLU796  ALA797  LYS798  CYS799  TRP800  GLU811  SER814 

> <Gold.Protein.RotatedAtoms>
  152.5452  134.1381  159.8467 H   0  0  0  0  0  0  0  0  0  0  0  0  # atno 6907 bound_to 6896
  151.1420  133.4958  159.2604 H   0  0  0  0  0  0  0  0  0  0  0  0  # atno 6908 bound_to 6896
  151.1563  135.0262  159.8745 H   0  0  0  0  0  0  0  0  0  0  0  0  # atno 6909 bound_to 6896
  146.1882  139.7449  142.8851 H   0  0  0  0  0  0  0  0  0  0  0  0  # atno 7974 bound_to 7965
  154.4164  140.1175  156.5321 H   0  0  0  0  0  0  0  0  0  0  0  0  # atno 8008 bound_to 7997
  155.6595  140.3496  155.4758 H   0  0  0  0  0  0  0  0  0  0  0  0  # atno 8009 bound_to 7997
  155.9725  140.1144  157.0789 H   0  0  0  0  0  0  0  0  0  0  0  0  # atno 8010 bound_to 7997
  140.6586  143.7362  150.7698 H   0  0  0  0  0  0  0  0  0  0  0  0  # atno 10167 bound_to 10162
  156.0874  130.4206  150.1095 H   0  0  0  0  0  0  0  0  0  0  0  0  # atno 10718 bound_to 10713
  154.6923  135.2973  154.9462 H   0  0  0  0  0  0  0  0  0  0  0  0  # atno 10763 bound_to 10752
  154.0421  135.6656  153.4795 H   0  0  0  0  0  0  0  0  0  0  0  0  # atno 10764 bound_to 10752
  153.0621  135.5109  154.8022 H   0  0  0  0  0  0  0  0  0  0  0  0  # atno 10765 bound_to 10752
  141.0608  133.9538  157.2670 H   0  0  0  0  0  0  0  0  0  0  0  0  # atno 11005 bound_to 11000
  145.3873  141.0367  143.3143 LP  0  0  0  0  0  0  0  0  0  0  0  0  # atno 17320 bound_to 7965
  144.8437  139.5431  143.6888 LP  0  0  0  0  0  0  0  0  0  0  0  0  # atno 17321 bound_to 7965
  140.1027  143.4773  152.2416 LP  0  0  0  0  0  0  0  0  0  0  0  0  # atno 17342 bound_to 10162
  139.5814  144.7512  151.3629 LP  0  0  0  0  0  0  0  0  0  0  0  0  # atno 17343 bound_to 10162
  156.9113  130.9652  151.3562 LP  0  0  0  0  0  0  0  0  0  0  0  0  # atno 17370 bound_to 10713
  157.6012  130.8514  149.8805 LP  0  0  0  0  0  0  0  0  0  0  0  0  # atno 17371 bound_to 10713
  139.9431  135.0188  156.8770 LP  0  0  0  0  0  0  0  0  0  0  0  0  # atno 17394 bound_to 11000
  140.5872  134.0296  155.7486 LP  0  0  0  0  0  0  0  0  0  0  0  0  # atno 17395 bound_to 11000

$$$$
