AV-unprocessed.smi:196|AV-procd|sdf|1530|dock7
  -GOLD-   2262019383D 1   1.00000     0.00000
 Structure written by MMmdl.
 47 50  0  0  0  0  0  0  0  0  1 V2000
  146.4232  138.2359  155.9991 C   0  0  0  0  0  0  0  0  0  0  0  0
  147.2726  139.4477  155.5818 C   0  0  2  0  0  0  0  0  0  0  0  0
  146.4452  140.5780  155.3455 O   0  0  0  0  0  0  0  0  0  0  0  0
  147.2054  141.4991  154.5850 C   0  0  0  0  0  0  0  0  0  0  0  0
  147.8667  140.6044  153.5444 C   0  0  0  0  0  0  0  0  0  0  0  0
  148.1329  139.2981  154.2982 C   0  0  2  0  0  0  0  0  0  0  0  0
  147.6868  138.2229  153.4884 O   0  0  0  0  0  0  0  0  0  0  0  0
  149.6404  139.0960  154.5943 C   0  0  0  0  0  0  0  0  0  0  0  0
  150.1859  140.0686  155.5295 N   0  0  0  0  0  0  0  0  0  0  0  0
  150.1066  141.4396  155.4352 C   0  0  0  0  0  0  0  0  0  0  0  0
  150.6647  142.0974  156.4139 N   0  0  0  0  0  0  0  0  0  0  0  0
  151.1885  141.1073  157.2380 C   0  0  0  0  0  0  0  0  0  0  0  0
  151.9113  141.1149  158.4666 C   0  0  0  0  0  0  0  0  0  0  0  0
  152.2582  142.2560  159.1223 N   0  0  0  0  0  0  0  0  0  0  0  0
  153.4864  142.2605  159.9106 C   0  0  0  0  0  0  0  0  0  0  0  0
  153.1874  143.1134  161.1428 C   0  0  2  0  0  0  0  0  0  0  0  0
  152.7257  142.3335  162.1218 F   0  0  0  0  0  0  0  0  0  0  0  0
  152.0761  144.0409  160.6643 C   0  0  0  0  0  0  0  0  0  0  0  0
  151.2593  143.1685  159.6970 C   0  0  1  0  0  0  0  0  0  0  0  0
  150.5051  144.0411  158.6737 C   0  0  0  0  0  0  0  0  0  0  0  0
  149.1683  144.0593  158.7004 N   0  0  0  0  0  0  0  0  0  0  0  0
  151.1402  144.7041  157.8564 O   0  0  0  0  0  0  0  0  0  0  0  0
  152.2451  139.9085  158.9970 N   0  0  0  0  0  0  0  0  0  0  0  0
  151.9133  138.7758  158.3715 C   0  0  0  0  0  0  0  0  0  0  0  0
  151.2494  138.6202  157.2254 N   0  0  0  0  0  0  0  0  0  0  0  0
  150.8972  139.8246  156.6917 C   0  0  0  0  0  0  0  0  0  0  0  0
  154.0612  143.6408  161.5263 H   0  0  0  0  0  0  0  0  0  0  0  0
  150.5339  142.5931  160.2749 H   0  0  0  0  0  0  0  0  0  0  0  0
  147.0468  137.3578  156.1685 H   0  0  0  0  0  0  0  0  0  0  0  0
  145.6833  137.9836  155.2392 H   0  0  0  0  0  0  0  0  0  0  0  0
  145.8846  138.4421  156.9241 H   0  0  0  0  0  0  0  0  0  0  0  0
  147.9173  139.7218  156.4180 H   0  0  0  0  0  0  0  0  0  0  0  0
  146.5783  142.2718  154.1404 H   0  0  0  0  0  0  0  0  0  0  0  0
  147.9503  141.9796  155.2213 H   0  0  0  0  0  0  0  0  0  0  0  0
  147.1635  140.4469  152.7245 H   0  0  0  0  0  0  0  0  0  0  0  0
  148.7645  141.0550  153.1199 H   0  0  0  0  0  0  0  0  0  0  0  0
  148.4417  137.7538  153.1676 H   0  0  0  0  0  0  0  0  0  0  0  0
  149.8180  138.0975  154.9965 H   0  0  0  0  0  0  0  0  0  0  0  0
  150.2151  139.1565  153.6690 H   0  0  0  0  0  0  0  0  0  0  0  0
  149.6100  141.9419  154.6181 H   0  0  0  0  0  0  0  0  0  0  0  0
  153.8174  141.2607  160.1973 H   0  0  0  0  0  0  0  0  0  0  0  0
  154.2758  142.7191  159.3139 H   0  0  0  0  0  0  0  0  0  0  0  0
  151.4764  144.4357  161.4851 H   0  0  0  0  0  0  0  0  0  0  0  0
  152.5200  144.8895  160.1402 H   0  0  0  0  0  0  0  0  0  0  0  0
  148.6596  144.6205  158.0329 H   0  0  0  0  0  0  0  0  0  0  0  0
  148.6725  143.5064  159.3841 H   0  0  0  0  0  0  0  0  0  0  0  0
  152.2236  137.8641  158.8605 H   0  0  0  0  0  0  0  0  0  0  0  0
  1  2  1  0  0  0  0
  1 29  1  0  0  0  0
  1 30  1  0  0  0  0
  1 31  1  0  0  0  0
  2  6  1  0  0  0  0
  2  3  1  0  0  0  0
  2 32  1  0  0  0  0
  3  4  1  0  0  0  0
  4  5  1  0  0  0  0
  4 33  1  0  0  0  0
  4 34  1  0  0  0  0
  5  6  1  0  0  0  0
  5 35  1  0  0  0  0
  5 36  1  0  0  0  0
  6  7  1  0  0  0  0
  6  8  1  0  0  0  0
  7 37  1  0  0  0  0
  8  9  1  0  0  0  0
  8 38  1  0  0  0  0
  8 39  1  0  0  0  0
  9 26  1  0  0  0  0
  9 10  1  0  0  0  0
 10 11  2  0  0  0  0
 10 40  1  0  0  0  0
 11 12  1  0  0  0  0
 12 26  2  0  0  0  0
 12 13  1  0  0  0  0
 13 14  1  0  0  0  0
 13 23  2  0  0  0  0
 14 19  1  0  0  0  0
 14 15  1  0  0  0  0
 15 16  1  0  0  0  0
 15 41  1  0  0  0  0
 15 42  1  0  0  0  0
 16 27  1  0  0  0  0
 16 17  1  0  0  0  0
 16 18  1  0  0  0  0
 18 19  1  0  0  0  0
 18 43  1  0  0  0  0
 18 44  1  0  0  0  0
 19 28  1  0  0  0  0
 19 20  1  0  0  0  0
 20 21  1  0  0  0  0
 20 22  2  0  0  0  0
 21 45  1  0  0  0  0
 21 46  1  0  0  0  0
 23 24  1  0  0  0  0
 24 25  2  0  0  0  0
 24 47  1  0  0  0  0
 25 26  1  0  0  0  0
M  END
> <s_m_source_file>
AV-unprocessed.smi

> <i_m_source_file_index>
196

> <i_lp_mmshare_version>
43012

> <i_f3d_flags>
0

> <s_epik_input>
W0NIMl0xW0NIMl1PW0NAQEhdKFtDSDNdKVtDQEBdMShbT0hdKVtDSDJdbihbY0hdbjIpYyhjMjMpbltjSF1uYzNONFtDSDJdW0NASF0oRilbQ0gyXVtDQEhdNEMoPU8pW05IMl0=

> <s_epik_cmdline>
J2VwaWtfcHl0aG9uJywgJy1waCcsICc3LjAnLCAnLXRuJywgJzgnLCAnLW1hJywgJzIwMCcsICctbWV0YWxfYmluZGluZycsICctaW1hZScsICc8aW5maWxlLm1hZT4nLCAnLW9tYWUnLCAnPG91dGZpbGUubWFlPic=

> <r_lp_tautomer_probability>
1

> <r_epik_Ionization_Penalty>
0.000857933

> <r_epik_Ionization_Penalty_Charging>
0

> <r_epik_Ionization_Penalty_Neutral>
0.000857933

> <r_epik_State_Penalty>
0.000462053

> <r_epik_Charging_Adjusted_Penalty>
0.000462053

> <i_epik_Tot_Q>
0

> <i_epik_Tot_abs_Q>
0

> <r_epik_Metal_State_Penalty>
-0

> <b_epik_Metal_Only>
0

> <s_lp_Force_Field>
OPLS_2005

> <r_lp_Energy>
46.3924

> <b_lp_Chiralities_Consistent>
1

> <s_lp_Variant>
AV-unprocessed.smi:196-3

> <Gold.Version>
5.8.1

> <Gold.Id.Protein>
6NUR|6NUR_protein|mol2

> <Gold.PLP.Fitness>
45.3595

> <Gold.PLP.PLP>
-41.9797

> <Gold.PLP.part.hbond>
-3.1358

> <Gold.PLP.part.metal>
0.0000

> <Gold.PLP.part.buried>
-3.4658

> <Gold.PLP.part.nonpolar>
-36.6333

> <Gold.PLP.part.repulsive>
0.4557

> <Gold.PLP.ligand.clash>
0.0000

> <Gold.PLP.ligand.torsion>
1.0101

> <Gold.PLP.Chemscore.Hbond>
1.7071

> <Gold.PLP.Chemscore.CHOScore>
0.0000

> <Gold.PLP.Chemscore.Metal>
0.0000

> <Gold.Chemscore.Hbonds>
donor molecule, donor type, donor heavy atom, donor atom, acceptor molecule, acceptor atom, score
      L1  H     7    37       P1  7948  0.78
      L1  H    21    45       P1  8029  1.00

> <Gold.PLP.Chemscore.Internal.Correction>
0.2787

> <Gold.Rescore>
     Score         DG    S(hbond)    S(metal)    S(lipo)     H(rot)  DE(clash)    DE(int)     intcor
     10.43     -12.74       1.49        0.00      76.41       2.60       1.10       1.20       ----

> <Gold.Chemscore.Fitness>
10.4338

> <Gold.Chemscore.DG>
-12.7355

> <Gold.Chemscore.ZeroCoef>
-5.4800

> <Gold.Chemscore.Hbond>
1.4860

> <Gold.Chemscore.Metal>
0.0000

> <Gold.Chemscore.Lipo>
76.4085

> <Gold.Chemscore.Internal_Hbond>
0.0000

> <Gold.Chemscore.DEClash>
1.1003

> <Gold.Chemscore.DEInternal>
1.2014

> <Gold.Chemscore.Rot>
2.5968

> <Gold.Chemscore.Internal.Correction>
   9.000000E+99

> <Gold.Chemscore.Hbonds>
donor molecule, donor type, donor heavy atom, donor atom, acceptor molecule, acceptor atom, score
      L1  H     7    37       P1  7948  0.75
      L1  H    21    45       P1  8029  0.26

> <Gold.Chemscore.Hbond.Weighted>
-4.9634

> <Gold.Chemscore.Metal.Weighted>
-0.0000

> <Gold.Chemscore.Lipo.Weighted>
-8.9398

> <Gold.Chemscore.Internal_Hbond.Weighted>
0.0000

> <Gold.Chemscore.DEClash.Weighted>
1.1003

> <Gold.Chemscore.DEInternal.Weighted>
1.2014

> <Gold.Chemscore.Rot.Weighted>
6.6477

> <Gold.Chemscore.Internal.Correction.Weighted>
   9.000000E+99

> <Gold.Protein.RotatedTorsions>
[ 6907 6896 6895 6894 ] final  -12.79 input  -60.11 | X-H torsion
[ 7974 7965 7964 7962 ] final  -45.93 input  175.53 | X-H torsion
[ 8008 7997 7996 7995 ] final   97.11 input   59.86 | X-H torsion
[ 10167 10162 10161 10158 ] final    2.39 input  -65.29 | X-H torsion
[ 10718 10713 10712 10709 ] final   -9.71 input   66.30 | X-H torsion
[ 10763 10752 10751 10750 ] final  157.99 input  -60.55 | X-H torsion
[ 11005 11000 10999 10996 ] final -121.25 input  -57.11 | X-H torsion

> <Gold.Protein.ActiveResidues>
 VAL166  LYS551  ARG553  GLY616  TRP617  ASP618  TYR619  PRO620  LYS621  CYS622 
 ASP623  PHE694  ASN695  SER759  ASP760  ASP761  ALA762  ILE779  LEU786  VAL792 
 PHE793  MET794  SER795  GLU796  ALA797  LYS798  CYS799  TRP800  GLU811  SER814 

> <Gold.Protein.RotatedAtoms>
  151.3650  135.0911  159.9446 H   0  0  0  0  0  0  0  0  0  0  0  0  # atno 6907 bound_to 6896
  152.5151  133.9220  159.7549 H   0  0  0  0  0  0  0  0  0  0  0  0  # atno 6908 bound_to 6896
  150.9622  133.6378  159.2781 H   0  0  0  0  0  0  0  0  0  0  0  0  # atno 6909 bound_to 6896
  145.9771  140.7322  142.9382 H   0  0  0  0  0  0  0  0  0  0  0  0  # atno 7974 bound_to 7965
  156.0867  140.3263  155.7763 H   0  0  0  0  0  0  0  0  0  0  0  0  # atno 8008 bound_to 7997
  155.5064  140.0573  157.2948 H   0  0  0  0  0  0  0  0  0  0  0  0  # atno 8009 bound_to 7997
  154.4613  140.1968  156.0253 H   0  0  0  0  0  0  0  0  0  0  0  0  # atno 8010 bound_to 7997
  140.6637  143.7236  150.7786 H   0  0  0  0  0  0  0  0  0  0  0  0  # atno 10167 bound_to 10162
  156.6841  130.5045  149.5962 H   0  0  0  0  0  0  0  0  0  0  0  0  # atno 10718 bound_to 10713
  154.2090  135.2787  155.2965 H   0  0  0  0  0  0  0  0  0  0  0  0  # atno 10763 bound_to 10752
  154.5793  135.5594  153.7173 H   0  0  0  0  0  0  0  0  0  0  0  0  # atno 10764 bound_to 10752
  153.0069  135.6341  154.2229 H   0  0  0  0  0  0  0  0  0  0  0  0  # atno 10765 bound_to 10752
  141.0083  134.0301  157.3447 H   0  0  0  0  0  0  0  0  0  0  0  0  # atno 11005 bound_to 11000
  144.6851  140.2846  143.7287 LP  0  0  0  0  0  0  0  0  0  0  0  0  # atno 17320 bound_to 7965
  145.7823  139.1896  143.2151 LP  0  0  0  0  0  0  0  0  0  0  0  0  # atno 17321 bound_to 7965
  140.0909  143.4878  152.2479 LP  0  0  0  0  0  0  0  0  0  0  0  0  # atno 17342 bound_to 10162
  139.5879  144.7538  151.3474 LP  0  0  0  0  0  0  0  0  0  0  0  0  # atno 17343 bound_to 10162
  156.1846  130.6521  151.0991 LP  0  0  0  0  0  0  0  0  0  0  0  0  # atno 17370 bound_to 10713
  157.7033  131.0767  150.6750 LP  0  0  0  0  0  0  0  0  0  0  0  0  # atno 17371 bound_to 10713
  139.9076  135.0183  156.7553 LP  0  0  0  0  0  0  0  0  0  0  0  0  # atno 17394 bound_to 11000
  140.6775  133.9504  155.7891 LP  0  0  0  0  0  0  0  0  0  0  0  0  # atno 17395 bound_to 11000

$$$$
