AV-unprocessed.smi:72|AV-procd|sdf|730|dock8
  -GOLD-   2262017 63D 1   1.00000     0.00000
 Structure written by MMmdl.
 28 29  0  0  0  0  0  0  0  0  2 V2000
  152.8263  139.4875  159.1205 N   0  0  0  0  0  0  0  0  0  0  0  0
  152.1069  139.6319  158.0948 C   0  0  0  0  0  0  0  0  0  0  0  0
  150.7164  140.0063  158.2337 N   0  0  0  0  0  0  0  0  0  0  0  0
  150.0148  140.1377  157.1500 C   0  0  0  0  0  0  0  0  0  0  0  0
  150.5891  139.9169  155.8299 N   0  0  0  0  0  0  0  0  0  0  0  0
  149.7517  140.0851  154.5759 C   0  0  1  0  0  0  0  0  0  0  0  0
  148.6776  139.1921  154.6218 O   0  0  0  0  0  0  0  0  0  0  0  0
  147.4966  139.8368  154.1565 C   0  0  1  0  0  0  0  0  0  0  0  0
  146.2331  139.1251  154.6714 C   0  0  0  0  0  0  0  0  0  0  0  0
  145.1564  140.0358  154.7423 O   0  0  0  0  0  0  0  0  0  0  0  0
  147.6762  141.2871  154.6251 C   0  0  1  0  0  0  0  0  0  0  0  0
  147.2845  141.4364  155.9803 O   0  0  0  0  0  0  0  0  0  0  0  0
  149.1713  141.5079  154.4200 C   0  0  1  0  0  0  0  0  0  0  0  0
  149.7117  142.4981  155.2786 O   0  0  0  0  0  0  0  0  0  0  0  0
  151.9615  139.5656  155.7221 C   0  0  0  0  0  0  0  0  0  0  0  0
  152.4382  139.4143  154.5971 O   0  0  0  0  0  0  0  0  0  0  0  0
  152.6908  139.4241  156.8645 N   0  5  0  0  0  0  0  0  0  0  0  0
  150.3863  139.7957  153.7373 H   0  0  0  0  0  0  0  0  0  0  0  0
  147.5113  139.8325  153.0647 H   0  0  0  0  0  0  0  0  0  0  0  0
  147.0835  141.9789  154.0257 H   0  0  0  0  0  0  0  0  0  0  0  0
  149.3456  141.8137  153.3875 H   0  0  0  0  0  0  0  0  0  0  0  0
  152.3218  139.6580  159.9782 H   0  0  0  0  0  0  0  0  0  0  0  0
  148.9621  140.4222  157.1585 H   0  0  0  0  0  0  0  0  0  0  0  0
  145.9701  138.2758  154.0399 H   0  0  0  0  0  0  0  0  0  0  0  0
  146.4017  138.7431  155.6786 H   0  0  0  0  0  0  0  0  0  0  0  0
  144.7300  140.0628  153.8995 H   0  0  0  0  0  0  0  0  0  0  0  0
  146.5272  142.0015  156.0089 H   0  0  0  0  0  0  0  0  0  0  0  0
  149.1288  143.2424  155.2760 H   0  0  0  0  0  0  0  0  0  0  0  0
  1  2  2  0  0  0  0
  1 22  1  0  0  0  0
  2 17  1  0  0  0  0
  2  3  1  0  0  0  0
  3  4  2  0  0  0  0
  4  5  1  0  0  0  0
  4 23  1  0  0  0  0
  5  6  1  0  0  0  0
  5 15  1  0  0  0  0
  6 18  1  0  0  0  0
  6 13  1  0  0  0  0
  6  7  1  0  0  0  0
  7  8  1  0  0  0  0
  8 19  1  0  0  0  0
  8  9  1  0  0  0  0
  8 11  1  0  0  0  0
  9 10  1  0  0  0  0
  9 24  1  0  0  0  0
  9 25  1  0  0  0  0
 10 26  1  0  0  0  0
 11 20  1  0  0  0  0
 11 12  1  0  0  0  0
 11 13  1  0  0  0  0
 12 27  1  0  0  0  0
 13 21  1  0  0  0  0
 13 14  1  0  0  0  0
 14 28  1  0  0  0  0
 15 16  2  0  0  0  0
 15 17  1  0  0  0  0
M  CHG  1  17  -1
M  END
> <s_m_source_file>
AV-unprocessed.smi

> <i_m_source_file_index>
72

> <i_lp_mmshare_version>
43012

> <i_f3d_flags>
0

> <s_epik_input>
W05IMl1jMW5bY0hdbihjKD1PKW4xKVtDQEBIXTJPW0NASF0oW0NIMl1bT0hdKVtDQEBIXShbT0hdKVtDQEhdMltPSF0=

> <s_epik_cmdline>
J2VwaWtfcHl0aG9uJywgJy1waCcsICc3LjAnLCAnLXRuJywgJzgnLCAnLW1hJywgJzIwMCcsICctbWV0YWxfYmluZGluZycsICctaW1hZScsICc8aW5maWxlLm1hZT4nLCAnLW9tYWUnLCAnPG91dGZpbGUubWFlPic=

> <r_lp_tautomer_probability>
7.17554e-07

> <r_epik_Ionization_Penalty>
12.8705

> <r_epik_Ionization_Penalty_Charging>
5.64144

> <r_epik_Ionization_Penalty_Neutral>
7.22905

> <r_epik_State_Penalty>
3.30104

> <r_epik_Charging_Adjusted_Penalty>
8.94249

> <i_epik_Tot_Q>
-1

> <i_epik_Tot_abs_Q>
1

> <r_epik_Metal_State_Penalty>
0.529074

> <b_epik_Metal_Only>
1

> <s_epik_Chemistry_Notes>
This compound contains an acetal/aminal-like group ( X-CH(R)-Y where X, Y are N, S, or O) that may be acid/base labile, releasing an aldehyde.

> <s_lp_Force_Field>
OPLS_2005

> <r_lp_Energy>
43.5676

> <b_lp_Chiralities_Consistent>
1

> <s_lp_Variant>
AV-unprocessed.smi:72-68

> <Gold.Version>
5.8.1

> <Gold.Id.Protein>
6NUR|6NUR_protein|mol2

> <Gold.PLP.Fitness>
35.4775

> <Gold.PLP.PLP>
-22.2378

> <Gold.PLP.part.hbond>
-3.5818

> <Gold.PLP.part.metal>
0.0000

> <Gold.PLP.part.buried>
-1.6230

> <Gold.PLP.part.nonpolar>
-15.8554

> <Gold.PLP.part.repulsive>
0.1632

> <Gold.PLP.ligand.clash>
0.0000

> <Gold.PLP.ligand.torsion>
0.2829

> <Gold.PLP.Chemscore.Hbond>
4.6000

> <Gold.PLP.Chemscore.CHOScore>
0.0000

> <Gold.PLP.Chemscore.Metal>
0.0000

> <Gold.Chemscore.Hbonds>
donor molecule, donor type, donor heavy atom, donor atom, acceptor molecule, acceptor atom, score
      L1  H    10    26       P1 10175  1.00
      L1  H    14    28       P1  8028  0.98
      P1  H  7989  7998       L1    16  0.66
      P1  H  7997  8010       L1    17  2.00

> <Gold.PLP.Chemscore.Internal.Correction>
0.0055

> <Gold.Rescore>
     Score         DG    S(hbond)    S(metal)    S(lipo)     H(rot)  DE(clash)    DE(int)     intcor
      7.81      -8.37       3.23        0.00      20.89       4.04       0.14       0.42       ----

> <Gold.Chemscore.Fitness>
7.8148

> <Gold.Chemscore.DG>
-8.3702

> <Gold.Chemscore.ZeroCoef>
-5.4800

> <Gold.Chemscore.Hbond>
3.2302

> <Gold.Chemscore.Metal>
0.0000

> <Gold.Chemscore.Lipo>
20.8909

> <Gold.Chemscore.Internal_Hbond>
0.0000

> <Gold.Chemscore.DEClash>
0.1378

> <Gold.Chemscore.DEInternal>
0.4175

> <Gold.Chemscore.Rot>
4.0403

> <Gold.Chemscore.Internal.Correction>
   9.000000E+99

> <Gold.Chemscore.Hbonds>
donor molecule, donor type, donor heavy atom, donor atom, acceptor molecule, acceptor atom, score
      L1  H    10    26       P1 10175  1.00
      L1  H    14    28       P1  8028  0.87
      P1  H  7989  7998       L1    16  0.36
      P1  H  7997  8010       L1    17  0.78

> <Gold.Chemscore.Hbond.Weighted>
-10.7890

> <Gold.Chemscore.Metal.Weighted>
-0.0000

> <Gold.Chemscore.Lipo.Weighted>
-2.4442

> <Gold.Chemscore.Internal_Hbond.Weighted>
0.0000

> <Gold.Chemscore.DEClash.Weighted>
0.1378

> <Gold.Chemscore.DEInternal.Weighted>
0.4175

> <Gold.Chemscore.Rot.Weighted>
10.3431

> <Gold.Chemscore.Internal.Correction.Weighted>
   9.000000E+99

> <Gold.Protein.RotatedTorsions>
[ 6907 6896 6895 6894 ] final -176.28 input  -60.11 | X-H torsion
[ 7974 7965 7964 7962 ] final   93.80 input  175.53 | X-H torsion
[ 8008 7997 7996 7995 ] final   52.68 input   59.86 | X-H torsion
[ 10167 10162 10161 10158 ] final  -74.19 input  -65.29 | X-H torsion
[ 10718 10713 10712 10709 ] final -141.55 input   66.30 | X-H torsion
[ 10763 10752 10751 10750 ] final  158.51 input  -60.55 | X-H torsion
[ 11005 11000 10999 10996 ] final   62.18 input  -57.11 | X-H torsion

> <Gold.Protein.ActiveResidues>
 VAL166  LYS551  ARG553  GLY616  TRP617  ASP618  TYR619  PRO620  LYS621  CYS622 
 ASP623  PHE694  ASN695  SER759  ASP760  ASP761  ALA762  ILE779  LEU786  VAL792 
 PHE793  MET794  SER795  GLU796  ALA797  LYS798  CYS799  TRP800  GLU811  SER814 

> <Gold.Protein.RotatedAtoms>
  151.6023  133.3355  159.3049 H   0  0  0  0  0  0  0  0  0  0  0  0  # atno 6907 bound_to 6896
  150.8201  134.7408  159.6776 H   0  0  0  0  0  0  0  0  0  0  0  0  # atno 6908 bound_to 6896
  152.4295  134.5810  159.9999 H   0  0  0  0  0  0  0  0  0  0  0  0  # atno 6909 bound_to 6896
  145.4741  139.2281  143.2918 H   0  0  0  0  0  0  0  0  0  0  0  0  # atno 7974 bound_to 7965
  155.4558  140.3460  155.4306 H   0  0  0  0  0  0  0  0  0  0  0  0  # atno 8008 bound_to 7997
  156.1192  140.1482  156.9258 H   0  0  0  0  0  0  0  0  0  0  0  0  # atno 8009 bound_to 7997
  154.4811  140.0869  156.7358 H   0  0  0  0  0  0  0  0  0  0  0  0  # atno 8010 bound_to 7997
  140.5047  143.2355  151.7693 H   0  0  0  0  0  0  0  0  0  0  0  0  # atno 10167 bound_to 10162
  156.3353  130.7608  151.1734 H   0  0  0  0  0  0  0  0  0  0  0  0  # atno 10718 bound_to 10713
  154.2172  135.2783  155.2937 H   0  0  0  0  0  0  0  0  0  0  0  0  # atno 10763 bound_to 10752
  154.5731  135.5612  153.7117 H   0  0  0  0  0  0  0  0  0  0  0  0  # atno 10764 bound_to 10752
  153.0050  135.6326  154.2312 H   0  0  0  0  0  0  0  0  0  0  0  0  # atno 10765 bound_to 10752
  140.0110  134.6296  155.9781 H   0  0  0  0  0  0  0  0  0  0  0  0  # atno 11005 bound_to 11000
  146.2379  140.5522  142.8947 LP  0  0  0  0  0  0  0  0  0  0  0  0  # atno 17320 bound_to 7965
  144.7927  140.6064  143.6530 LP  0  0  0  0  0  0  0  0  0  0  0  0  # atno 17321 bound_to 7965
  139.4881  144.4473  151.9695 LP  0  0  0  0  0  0  0  0  0  0  0  0  # atno 17342 bound_to 10162
  140.3563  144.3027  150.5940 LP  0  0  0  0  0  0  0  0  0  0  0  0  # atno 17343 bound_to 10162
  157.7437  131.0470  150.4920 LP  0  0  0  0  0  0  0  0  0  0  0  0  # atno 17370 bound_to 10713
  156.5092  130.4135  149.6310 LP  0  0  0  0  0  0  0  0  0  0  0  0  # atno 17371 bound_to 10713
  141.1711  133.6537  156.4654 LP  0  0  0  0  0  0  0  0  0  0  0  0  # atno 17394 bound_to 11000
  140.4555  134.6890  157.5060 LP  0  0  0  0  0  0  0  0  0  0  0  0  # atno 17395 bound_to 11000

$$$$
