AV-unprocessed.smi:1278|AV-procd|sdf|5352|dock10
  -GOLD-   22720 4483D 1   1.00000     0.00000
 Structure written by MMmdl.
 38 39  0  0  0  0  0  0  0  0  3 V2000
  145.9770  142.9396  153.5492 C   0  0  0  0  0  0  0  0  0  0  0  0
  146.9200  142.1716  154.4921 C   0  0  1  0  0  0  0  0  0  0  0  0
  146.3940  142.1045  155.9380 C   0  0  0  0  0  0  0  0  0  0  0  0
  145.2290  141.1123  156.0619 C   0  0  0  0  0  0  0  0  0  0  0  0
  145.6134  139.7349  155.4989 C   0  0  0  0  0  0  0  0  0  0  0  0
  146.0773  139.8410  154.0915 N   0  3  2  0  0  0  0  0  0  0  0  0
  146.3089  138.5113  153.4749 C   0  0  0  0  0  0  0  0  0  0  0  0
  146.4972  138.5997  151.9484 C   0  0  0  0  0  0  0  0  0  0  0  0
  145.6739  137.6161  151.2550 N   0  0  0  0  0  0  0  0  0  0  0  0
  145.5234  136.3325  151.6116 C   0  0  0  0  0  0  0  0  0  0  0  0
  146.1062  135.9000  152.6091 O   0  0  0  0  0  0  0  0  0  0  0  0
  144.7136  135.6309  150.7878 N   0  5  0  0  0  0  0  0  0  0  0  0
  144.9697  134.3364  150.5375 C   0  0  0  0  0  0  0  0  0  0  0  0
  144.0837  133.5160  149.9615 N   0  0  0  0  0  0  0  0  0  0  0  0
  144.5599  132.2144  149.7933 C   0  0  0  0  0  0  0  0  0  0  0  0
  145.8418  132.0421  150.2439 C   0  0  0  0  0  0  0  0  0  0  0  0
  146.4937  133.5188  150.8949 S   0  0  0  0  0  0  0  0  0  0  0  0
  147.2436  140.7574  153.9674 C   0  0  0  0  0  0  0  0  0  0  0  0
  145.0153  142.4391  153.4377 H   0  0  0  0  0  0  0  0  0  0  0  0
  146.4136  143.0369  152.5547 H   0  0  0  0  0  0  0  0  0  0  0  0
  145.7861  143.9465  153.9214 H   0  0  0  0  0  0  0  0  0  0  0  0
  147.8548  142.7333  154.5134 H   0  0  0  0  0  0  0  0  0  0  0  0
  147.2016  141.7878  156.5994 H   0  0  0  0  0  0  0  0  0  0  0  0
  146.0884  143.0935  156.2819 H   0  0  0  0  0  0  0  0  0  0  0  0
  144.9349  141.0156  157.1075 H   0  0  0  0  0  0  0  0  0  0  0  0
  144.3551  141.4948  155.5339 H   0  0  0  0  0  0  0  0  0  0  0  0
  146.3965  139.2813  156.1086 H   0  0  0  0  0  0  0  0  0  0  0  0
  144.7464  139.0756  155.5546 H   0  0  0  0  0  0  0  0  0  0  0  0
  147.1656  138.0261  153.9455 H   0  0  0  0  0  0  0  0  0  0  0  0
  145.4473  137.8736  153.6771 H   0  0  0  0  0  0  0  0  0  0  0  0
  146.2621  139.6029  151.5892 H   0  0  0  0  0  0  0  0  0  0  0  0
  147.5322  138.4055  151.6703 H   0  0  0  0  0  0  0  0  0  0  0  0
  145.1733  137.9302  150.4361 H   0  0  0  0  0  0  0  0  0  0  0  0
  143.9173  131.4729  149.3424 H   0  0  0  0  0  0  0  0  0  0  0  0
  146.4396  131.1434  150.2311 H   0  0  0  0  0  0  0  0  0  0  0  0
  147.5706  140.8267  152.9304 H   0  0  0  0  0  0  0  0  0  0  0  0
  148.0825  140.3407  154.5274 H   0  0  0  0  0  0  0  0  0  0  0  0
  145.3158  140.2600  153.5771 H   0  0  0  0  0  0  0  0  0  0  0  0
  1  2  1  0  0  0  0
  1 19  1  0  0  0  0
  1 20  1  0  0  0  0
  1 21  1  0  0  0  0
  2 18  1  0  0  0  0
  2  3  1  0  0  0  0
  2 22  1  0  0  0  0
  3  4  1  0  0  0  0
  3 23  1  0  0  0  0
  3 24  1  0  0  0  0
  4  5  1  0  0  0  0
  4 25  1  0  0  0  0
  4 26  1  0  0  0  0
  5  6  1  0  0  0  0
  5 27  1  0  0  0  0
  5 28  1  0  0  0  0
  6  7  1  0  0  0  0
  6 18  1  0  0  0  0
  6 38  1  0  0  0  0
  7  8  1  0  0  0  0
  7 29  1  0  0  0  0
  7 30  1  0  0  0  0
  8  9  1  0  0  0  0
  8 31  1  0  0  0  0
  8 32  1  0  0  0  0
  9 10  1  0  0  0  0
  9 33  1  0  0  0  0
 10 11  2  0  0  0  0
 10 12  1  0  0  0  0
 12 13  1  0  0  0  0
 13 17  1  0  0  0  0
 13 14  2  0  0  0  0
 14 15  1  0  0  0  0
 15 16  2  0  0  0  0
 15 34  1  0  0  0  0
 16 17  1  0  0  0  0
 16 35  1  0  0  0  0
 18 36  1  0  0  0  0
 18 37  1  0  0  0  0
M  CHG  1   6   1
M  CHG  1  12  -1
M  END
> <s_m_source_file>
AV-unprocessed.smi

> <i_m_source_file_index>
1278

> <i_lp_mmshare_version>
43012

> <i_f3d_flags>
0

> <s_epik_input>
W0NIM11bQ0BASF0xW0NIMl1bQ0gyXVtDSDJdTihbQ0gyXTEpW0NIMl1bQ0gyXVtOSF1DKD1PKVtOSF1jMm5bY0hdW2NIXXMy

> <s_epik_cmdline>
J2VwaWtfcHl0aG9uJywgJy1waCcsICc3LjAnLCAnLXRuJywgJzgnLCAnLW1hJywgJzIwMCcsICctbWV0YWxfYmluZGluZycsICctaW1hZScsICc8aW5maWxlLm1hZT4nLCAnLW9tYWUnLCAnPG91dGZpbGUubWFlPic=

> <r_lp_tautomer_probability>
0.999

> <r_epik_Ionization_Penalty>
6.22019

> <r_epik_Ionization_Penalty_Charging>
5.38911

> <r_epik_Ionization_Penalty_Neutral>
0.831074

> <r_epik_State_Penalty>
5.38904

> <r_epik_Charging_Adjusted_Penalty>
10.7782

> <i_epik_Tot_Q>
0

> <i_epik_Tot_abs_Q>
2

> <r_epik_Metal_State_Penalty>
1.41502

> <b_epik_Metal_Only>
1

> <s_lp_Force_Field>
OPLS_2005

> <r_lp_Energy>
8.87374

> <b_lp_Chiralities_Consistent>
1

> <s_lp_Variant>
AV-unprocessed.smi:1278-6

> <Gold.Version>
5.8.1

> <Gold.Id.Protein>
6NUR|6NUR_protein|mol2

> <Gold.PLP.Fitness>
43.0111

> <Gold.PLP.PLP>
-32.4788

> <Gold.PLP.part.hbond>
-1.9770

> <Gold.PLP.part.metal>
0.0000

> <Gold.PLP.part.buried>
-7.5270

> <Gold.PLP.part.nonpolar>
-25.8861

> <Gold.PLP.part.repulsive>
1.8677

> <Gold.PLP.ligand.clash>
0.0000

> <Gold.PLP.ligand.torsion>
0.7725

> <Gold.PLP.Chemscore.Hbond>
3.0000

> <Gold.PLP.Chemscore.CHOScore>
1.0000

> <Gold.PLP.Chemscore.Metal>
0.0000

> <Gold.Chemscore.Hbonds>
donor molecule, donor type, donor heavy atom, donor atom, acceptor molecule, acceptor atom, score
      L1  H     6    38       P1 10175  2.00
      L1  H     9    33       P1 10171  0.99
      L1  C    16    35       P1 10747  0.97

> <Gold.PLP.Chemscore.Internal.Correction>
0.0773

> <Gold.Rescore>
     Score         DG    S(hbond)    S(metal)    S(lipo)     H(rot)  DE(clash)    DE(int)     intcor
     11.81     -16.31       1.95        0.00      71.04       1.57       1.25       3.25       ----

> <Gold.Chemscore.Fitness>
11.8080

> <Gold.Chemscore.DG>
-16.3076

> <Gold.Chemscore.ZeroCoef>
-5.4800

> <Gold.Chemscore.Hbond>
1.9548

> <Gold.Chemscore.Metal>
0.0000

> <Gold.Chemscore.Lipo>
71.0395

> <Gold.Chemscore.Internal_Hbond>
0.0000

> <Gold.Chemscore.DEClash>
1.2456

> <Gold.Chemscore.DEInternal>
3.2539

> <Gold.Chemscore.Rot>
1.5676

> <Gold.Chemscore.Internal.Correction>
   9.000000E+99

> <Gold.Chemscore.Hbonds>
donor molecule, donor type, donor heavy atom, donor atom, acceptor molecule, acceptor atom, score
      L1  H     6    38       P1 10175  0.97
      L1  H     9    33       P1 10171  0.92

> <Gold.Chemscore.Hbond.Weighted>
-6.5290

> <Gold.Chemscore.Metal.Weighted>
-0.0000

> <Gold.Chemscore.Lipo.Weighted>
-8.3116

> <Gold.Chemscore.Internal_Hbond.Weighted>
0.0000

> <Gold.Chemscore.DEClash.Weighted>
1.2456

> <Gold.Chemscore.DEInternal.Weighted>
3.2539

> <Gold.Chemscore.Rot.Weighted>
4.0130

> <Gold.Chemscore.Internal.Correction.Weighted>
   9.000000E+99

> <Gold.Protein.RotatedTorsions>
[ 6907 6896 6895 6894 ] final   20.41 input  -60.11 | X-H torsion
[ 7974 7965 7964 7962 ] final -104.28 input  175.53 | X-H torsion
[ 8008 7997 7996 7995 ] final  -54.00 input   59.86 | X-H torsion
[ 10167 10162 10161 10158 ] final -138.87 input  -65.29 | X-H torsion
[ 10718 10713 10712 10709 ] final  -27.85 input   66.30 | X-H torsion
[ 10763 10752 10751 10750 ] final -139.86 input  -60.55 | X-H torsion
[ 11005 11000 10999 10996 ] final  105.41 input  -57.11 | X-H torsion

> <Gold.Protein.ActiveResidues>
 VAL166  LYS551  ARG553  GLY616  TRP617  ASP618  TYR619  PRO620  LYS621  CYS622 
 ASP623  PHE694  ASN695  SER759  ASP760  ASP761  ALA762  ILE779  LEU786  VAL792 
 PHE793  MET794  SER795  GLU796  ALA797  LYS798  CYS799  TRP800  GLU811  SER814 

> <Gold.Protein.RotatedAtoms>
  151.8959  135.0398  160.0501 H   0  0  0  0  0  0  0  0  0  0  0  0  # atno 6907 bound_to 6896
  152.2398  133.5121  159.5272 H   0  0  0  0  0  0  0  0  0  0  0  0  # atno 6908 bound_to 6896
  150.7050  134.1021  159.4012 H   0  0  0  0  0  0  0  0  0  0  0  0  # atno 6909 bound_to 6896
  145.2452  140.9219  143.3127 H   0  0  0  0  0  0  0  0  0  0  0  0  # atno 7974 bound_to 7965
  154.4149  140.1186  156.5245 H   0  0  0  0  0  0  0  0  0  0  0  0  # atno 8008 bound_to 7997
  155.6669  140.3496  155.4784 H   0  0  0  0  0  0  0  0  0  0  0  0  # atno 8009 bound_to 7997
  155.9666  140.1133  157.0839 H   0  0  0  0  0  0  0  0  0  0  0  0  # atno 8010 bound_to 7997
  139.8436  143.7290  152.2662 H   0  0  0  0  0  0  0  0  0  0  0  0  # atno 10167 bound_to 10162
  156.4328  130.4448  149.7105 H   0  0  0  0  0  0  0  0  0  0  0  0  # atno 10718 bound_to 10713
  154.8596  135.3570  154.5614 H   0  0  0  0  0  0  0  0  0  0  0  0  # atno 10763 bound_to 10752
  153.6229  135.7005  153.5308 H   0  0  0  0  0  0  0  0  0  0  0  0  # atno 10764 bound_to 10752
  153.3114  135.4177  155.1298 H   0  0  0  0  0  0  0  0  0  0  0  0  # atno 10765 bound_to 10752
  139.8802  134.9334  156.5509 H   0  0  0  0  0  0  0  0  0  0  0  0  # atno 11005 bound_to 11000
  144.9553  139.4038  143.6382 LP  0  0  0  0  0  0  0  0  0  0  0  0  # atno 17320 bound_to 7965
  146.3318  139.8580  142.8861 LP  0  0  0  0  0  0  0  0  0  0  0  0  # atno 17321 bound_to 7965
  139.7535  144.7527  151.0471 LP  0  0  0  0  0  0  0  0  0  0  0  0  # atno 17342 bound_to 10162
  140.7795  143.4833  150.9989 LP  0  0  0  0  0  0  0  0  0  0  0  0  # atno 17343 bound_to 10162
  156.4001  130.7670  151.2678 LP  0  0  0  0  0  0  0  0  0  0  0  0  # atno 17370 bound_to 10713
  157.7508  131.0242  150.3867 LP  0  0  0  0  0  0  0  0  0  0  0  0  # atno 17371 bound_to 10713
  140.8241  133.8331  155.8922 LP  0  0  0  0  0  0  0  0  0  0  0  0  # atno 17394 bound_to 11000
  140.9391  134.1924  157.4810 LP  0  0  0  0  0  0  0  0  0  0  0  0  # atno 17395 bound_to 11000

$$$$
