AV-unprocessed.smi:36|AV-procd|sdf|296|dock6
  -GOLD-   2262016 93D 1   1.00000     0.00000
 Structure written by MMmdl.
 63 66  0  0  0  0  0  0  0  0  2 V2000
  148.6707  134.2464  154.6340 C   0  0  0  0  0  0  0  0  0  0  0  0
  149.5678  134.8899  155.7048 C   0  0  0  0  0  0  0  0  0  0  0  0
  150.2408  133.7951  156.5490 C   0  0  0  0  0  0  0  0  0  0  0  0
  150.6428  135.7596  155.0319 C   0  0  0  0  0  0  0  0  0  0  0  0
  148.5039  135.9922  156.8469 Si  0  0  0  0  0  0  0  0  0  0  0  0
  147.0968  134.9899  157.6385 C   0  0  0  0  0  0  0  0  0  0  0  0
  149.5623  136.7936  158.2063 C   0  0  0  0  0  0  0  0  0  0  0  0
  147.8362  137.2297  155.9033 O   0  0  0  0  0  0  0  0  0  0  0  0
  146.7804  137.0419  154.9829 C   0  0  0  0  0  0  0  0  0  0  0  0
  146.4292  138.3884  154.3300 C   0  0  1  0  0  0  0  0  0  0  0  0
  146.5482  139.4698  155.2534 O   0  0  0  0  0  0  0  0  0  0  0  0
  147.0582  140.6098  154.6277 C   0  0  1  0  0  0  0  0  0  0  0  0
  148.4132  140.8908  155.1966 N   0  0  0  0  0  0  0  0  0  0  0  0
  149.6259  140.8096  154.6096 C   0  0  0  0  0  0  0  0  0  0  0  0
  150.6889  141.1161  155.3513 N   0  0  0  0  0  0  0  0  0  0  0  0
  150.1001  141.4367  156.5656 C   0  0  0  0  0  0  0  0  0  0  0  0
  150.6380  141.8602  157.8123 C   0  0  0  0  0  0  0  0  0  0  0  0
  151.9540  142.0184  158.0208 N   0  5  0  0  0  0  0  0  0  0  0  0
  152.6485  141.0805  158.7134 C   0  0  0  0  0  0  0  0  0  0  0  0
  153.0568  139.9895  158.3098 O   0  0  0  0  0  0  0  0  0  0  0  0
  152.9906  141.5098  160.1154 C   0  0  0  0  0  0  0  0  0  0  0  0
  153.8104  140.6850  160.9197 C   0  0  0  0  0  0  0  0  0  0  0  0
  154.1252  141.0576  162.2410 C   0  0  0  0  0  0  0  0  0  0  0  0
  153.6152  142.2552  162.7766 C   0  0  0  0  0  0  0  0  0  0  0  0
  152.7861  143.0775  161.9909 C   0  0  0  0  0  0  0  0  0  0  0  0
  152.4709  142.7055  160.6694 C   0  0  0  0  0  0  0  0  0  0  0  0
  149.7544  142.0825  158.8189 N   0  0  0  0  0  0  0  0  0  0  0  0
  148.4419  141.9169  158.6166 C   0  0  0  0  0  0  0  0  0  0  0  0
  147.8038  141.5349  157.5060 N   0  0  0  0  0  0  0  0  0  0  0  0
  148.6838  141.3001  156.4895 C   0  0  0  0  0  0  0  0  0  0  0  0
  147.1704  140.2987  153.1325 C   0  0  0  0  0  0  0  0  0  0  0  0
  147.2704  138.7852  153.1084 C   0  0  1  0  0  0  0  0  0  0  0  0
  148.6163  138.3574  153.2056 O   0  0  0  0  0  0  0  0  0  0  0  0
  149.2488  133.6099  153.9634 H   0  0  0  0  0  0  0  0  0  0  0  0
  148.1758  135.0019  154.0233 H   0  0  0  0  0  0  0  0  0  0  0  0
  147.8946  133.6279  155.0855 H   0  0  0  0  0  0  0  0  0  0  0  0
  149.5024  133.1586  157.0372 H   0  0  0  0  0  0  0  0  0  0  0  0
  150.8693  134.2268  157.3286 H   0  0  0  0  0  0  0  0  0  0  0  0
  150.8726  133.1526  155.9349 H   0  0  0  0  0  0  0  0  0  0  0  0
  151.2877  135.1642  154.3847 H   0  0  0  0  0  0  0  0  0  0  0  0
  151.2781  136.2466  155.7727 H   0  0  0  0  0  0  0  0  0  0  0  0
  150.1950  136.5417  154.4182 H   0  0  0  0  0  0  0  0  0  0  0  0
  147.4795  134.1580  158.2287 H   0  0  0  0  0  0  0  0  0  0  0  0
  146.4270  134.5745  156.8860 H   0  0  0  0  0  0  0  0  0  0  0  0
  146.4928  135.6054  158.3040 H   0  0  0  0  0  0  0  0  0  0  0  0
  150.0431  136.0440  158.8344 H   0  0  0  0  0  0  0  0  0  0  0  0
  148.9612  137.4259  158.8593 H   0  0  0  0  0  0  0  0  0  0  0  0
  150.3491  137.4190  157.7851 H   0  0  0  0  0  0  0  0  0  0  0  0
  147.0387  136.2917  154.2350 H   0  0  0  0  0  0  0  0  0  0  0  0
  145.9241  136.6602  155.5393 H   0  0  0  0  0  0  0  0  0  0  0  0
  145.3857  138.3651  154.0113 H   0  0  0  0  0  0  0  0  0  0  0  0
  146.4712  141.4994  154.8587 H   0  0  0  0  0  0  0  0  0  0  0  0
  149.7394  140.5133  153.5782 H   0  0  0  0  0  0  0  0  0  0  0  0
  154.2092  139.7617  160.5242 H   0  0  0  0  0  0  0  0  0  0  0  0
  154.7577  140.4227  162.8438 H   0  0  0  0  0  0  0  0  0  0  0  0
  153.8563  142.5408  163.7898 H   0  0  0  0  0  0  0  0  0  0  0  0
  152.3886  143.9937  162.4021 H   0  0  0  0  0  0  0  0  0  0  0  0
  151.8243  143.3462  160.0869 H   0  0  0  0  0  0  0  0  0  0  0  0
  147.8115  142.1185  159.4697 H   0  0  0  0  0  0  0  0  0  0  0  0
  146.2446  140.6184  152.6526 H   0  0  0  0  0  0  0  0  0  0  0  0
  148.0036  140.8196  152.6579 H   0  0  0  0  0  0  0  0  0  0  0  0
  146.8551  138.3720  152.1887 H   0  0  0  0  0  0  0  0  0  0  0  0
  149.1460  138.8970  152.6388 H   0  0  0  0  0  0  0  0  0  0  0  0
  1  2  1  0  0  0  0
  1 34  1  0  0  0  0
  1 35  1  0  0  0  0
  1 36  1  0  0  0  0
  2  3  1  0  0  0  0
  2  4  1  0  0  0  0
  2  5  1  0  0  0  0
  3 37  1  0  0  0  0
  3 38  1  0  0  0  0
  3 39  1  0  0  0  0
  4 40  1  0  0  0  0
  4 41  1  0  0  0  0
  4 42  1  0  0  0  0
  5  6  1  0  0  0  0
  5  7  1  0  0  0  0
  5  8  1  0  0  0  0
  6 43  1  0  0  0  0
  6 44  1  0  0  0  0
  6 45  1  0  0  0  0
  7 46  1  0  0  0  0
  7 47  1  0  0  0  0
  7 48  1  0  0  0  0
  8  9  1  0  0  0  0
  9 10  1  0  0  0  0
  9 49  1  0  0  0  0
  9 50  1  0  0  0  0
 10 32  1  0  0  0  0
 10 11  1  0  0  0  0
 10 51  1  0  0  0  0
 11 12  1  0  0  0  0
 12 13  1  0  0  0  0
 12 31  1  0  0  0  0
 12 52  1  0  0  0  0
 13 30  1  0  0  0  0
 13 14  1  0  0  0  0
 14 15  2  0  0  0  0
 14 53  1  0  0  0  0
 15 16  1  0  0  0  0
 16 30  2  0  0  0  0
 16 17  1  0  0  0  0
 17 18  1  0  0  0  0
 17 27  2  0  0  0  0
 18 19  1  0  0  0  0
 19 20  2  0  0  0  0
 19 21  1  0  0  0  0
 21 26  1  0  0  0  0
 21 22  2  0  0  0  0
 22 23  1  0  0  0  0
 22 54  1  0  0  0  0
 23 24  2  0  0  0  0
 23 55  1  0  0  0  0
 24 25  1  0  0  0  0
 24 56  1  0  0  0  0
 25 26  2  0  0  0  0
 25 57  1  0  0  0  0
 26 58  1  0  0  0  0
 27 28  1  0  0  0  0
 28 29  2  0  0  0  0
 28 59  1  0  0  0  0
 29 30  1  0  0  0  0
 31 32  1  0  0  0  0
 31 60  1  0  0  0  0
 31 61  1  0  0  0  0
 32 33  1  0  0  0  0
 32 62  1  0  0  0  0
 33 63  1  0  0  0  0
M  CHG  1  18  -1
M  END
> <s_m_source_file>
AV-unprocessed.smi

> <i_m_source_file_index>
36

> <i_lp_mmshare_version>
43012

> <i_f3d_flags>
0

> <s_epik_input>
W0NIM11DKFtDSDNdKShbQ0gzXSlbU2ldKFtDSDNdKShbQ0gzXSlPW0NIMl1bQ0BASF0xT1tDQEhdKFtDSDJdW0NASF0xW09IXSluKFtjSF1uMiljKGMyMyluW2NIXW5jM1tOSF1DKD1PKWM0W2NIXVtjSF1bY0hdW2NIXVtjSF00

> <s_epik_cmdline>
J2VwaWtfcHl0aG9uJywgJy1waCcsICc3LjAnLCAnLXRuJywgJzgnLCAnLW1hJywgJzIwMCcsICctbWV0YWxfYmluZGluZycsICctaW1hZScsICc8aW5maWxlLm1hZT4nLCAnLW9tYWUnLCAnPG91dGZpbGUubWFlPic=

> <r_lp_tautomer_probability>
1

> <r_epik_Ionization_Penalty>
4.75685

> <r_epik_Ionization_Penalty_Charging>
3.55822

> <r_epik_Ionization_Penalty_Neutral>
1.19863

> <r_epik_State_Penalty>
3.564

> <r_epik_Charging_Adjusted_Penalty>
7.12222

> <i_epik_Tot_Q>
-1

> <i_epik_Tot_abs_Q>
1

> <r_epik_Metal_State_Penalty>
0.523258

> <b_epik_Metal_Only>
1

> <s_epik_Chemistry_Notes>
This compound contains an acetal/aminal-like group ( X-CH(R)-Y where X, Y are N, S, or O) that may be acid/base labile, releasing an aldehyde.

> <s_lp_Force_Field>
OPLS_2005

> <r_lp_Energy>
35.5948

> <b_lp_Chiralities_Consistent>
1

> <s_lp_Variant>
AV-unprocessed.smi:36-18

> <Gold.Version>
5.8.1

> <Gold.Id.Protein>
6NUR|6NUR_protein|mol2

> <Gold.PLP.Fitness>
56.7639

> <Gold.PLP.PLP>
-50.8086

> <Gold.PLP.part.hbond>
-4.1933

> <Gold.PLP.part.metal>
0.0000

> <Gold.PLP.part.buried>
-2.2518

> <Gold.PLP.part.nonpolar>
-44.2797

> <Gold.PLP.part.repulsive>
0.4418

> <Gold.PLP.ligand.clash>
0.0000

> <Gold.PLP.ligand.torsion>
1.9343

> <Gold.PLP.Chemscore.Hbond>
2.2009

> <Gold.PLP.Chemscore.CHOScore>
1.0000

> <Gold.PLP.Chemscore.Metal>
0.0000

> <Gold.Chemscore.Hbonds>
donor molecule, donor type, donor heavy atom, donor atom, acceptor molecule, acceptor atom, score
      L1  H    33    63       P1  7957  1.00
      P1  H  7989  7998       L1    15  0.03
      P1  H  7997  8008       L1    20  1.00
      L1  C    14    53       P1  7957  1.00

> <Gold.PLP.Chemscore.Internal.Correction>
0.2211

> <Gold.Rescore>
     Score         DG    S(hbond)    S(metal)    S(lipo)     H(rot)  DE(clash)    DE(int)     intcor
     14.42     -17.78       1.95        0.00     108.05       2.67       0.55       2.82       ----

> <Gold.Chemscore.Fitness>
14.4210

> <Gold.Chemscore.DG>
-17.7824

> <Gold.Chemscore.ZeroCoef>
-5.4800

> <Gold.Chemscore.Hbond>
1.9452

> <Gold.Chemscore.Metal>
0.0000

> <Gold.Chemscore.Lipo>
108.0455

> <Gold.Chemscore.Internal_Hbond>
0.0000

> <Gold.Chemscore.DEClash>
0.5454

> <Gold.Chemscore.DEInternal>
2.8160

> <Gold.Chemscore.Rot>
2.6702

> <Gold.Chemscore.Internal.Correction>
   9.000000E+99

> <Gold.Chemscore.Hbonds>
donor molecule, donor type, donor heavy atom, donor atom, acceptor molecule, acceptor atom, score
      L1  H    33    63       P1  7957  0.97
      P1  H  7997  8008       L1    20  0.82

> <Gold.Chemscore.Hbond.Weighted>
-6.4968

> <Gold.Chemscore.Metal.Weighted>
-0.0000

> <Gold.Chemscore.Lipo.Weighted>
-12.6413

> <Gold.Chemscore.Internal_Hbond.Weighted>
0.0000

> <Gold.Chemscore.DEClash.Weighted>
0.5454

> <Gold.Chemscore.DEInternal.Weighted>
2.8160

> <Gold.Chemscore.Rot.Weighted>
6.8358

> <Gold.Chemscore.Internal.Correction.Weighted>
   9.000000E+99

> <Gold.Protein.RotatedTorsions>
[ 6907 6896 6895 6894 ] final  151.33 input  -60.11 | X-H torsion
[ 7974 7965 7964 7962 ] final -112.47 input  175.53 | X-H torsion
[ 8008 7997 7996 7995 ] final  -74.63 input   59.86 | X-H torsion
[ 10167 10162 10161 10158 ] final  -15.50 input  -65.29 | X-H torsion
[ 10718 10713 10712 10709 ] final  -23.69 input   66.30 | X-H torsion
[ 10763 10752 10751 10750 ] final   64.87 input  -60.55 | X-H torsion
[ 11005 11000 10999 10996 ] final   95.88 input  -57.11 | X-H torsion

> <Gold.Protein.ActiveResidues>
 VAL166  LYS551  ARG553  GLY616  TRP617  ASP618  TYR619  PRO620  LYS621  CYS622 
 ASP623  PHE694  ASN695  SER759  ASP760  ASP761  ALA762  ILE779  LEU786  VAL792 
 PHE793  MET794  SER795  GLU796  ALA797  LYS798  CYS799  TRP800  GLU811  SER814 

> <Gold.Protein.RotatedAtoms>
  152.1022  133.4255  159.4591 H   0  0  0  0  0  0  0  0  0  0  0  0  # atno 6907 bound_to 6896
  150.6864  134.2747  159.4612 H   0  0  0  0  0  0  0  0  0  0  0  0  # atno 6908 bound_to 6896
  152.0609  134.9595  160.0625 H   0  0  0  0  0  0  0  0  0  0  0  0  # atno 6909 bound_to 6896
  145.1437  140.8791  143.3687 H   0  0  0  0  0  0  0  0  0  0  0  0  # atno 7974 bound_to 7965
  154.5347  140.0758  156.8407 H   0  0  0  0  0  0  0  0  0  0  0  0  # atno 8008 bound_to 7997
  155.3301  140.3401  155.4221 H   0  0  0  0  0  0  0  0  0  0  0  0  # atno 8009 bound_to 7997
  156.1817  140.1654  156.8249 H   0  0  0  0  0  0  0  0  0  0  0  0  # atno 8010 bound_to 7997
  140.7219  143.5212  150.9631 H   0  0  0  0  0  0  0  0  0  0  0  0  # atno 10167 bound_to 10162
  156.4876  130.4559  149.6774 H   0  0  0  0  0  0  0  0  0  0  0  0  # atno 10718 bound_to 10713
  153.0073  135.5377  154.6579 H   0  0  0  0  0  0  0  0  0  0  0  0  # atno 10763 bound_to 10752
  154.5795  135.2848  155.0749 H   0  0  0  0  0  0  0  0  0  0  0  0  # atno 10764 bound_to 10752
  154.1884  135.6504  153.5106 H   0  0  0  0  0  0  0  0  0  0  0  0  # atno 10765 bound_to 10752
  139.8785  134.8922  156.4076 H   0  0  0  0  0  0  0  0  0  0  0  0  # atno 11005 bound_to 11000
  145.0505  139.3185  143.5931 LP  0  0  0  0  0  0  0  0  0  0  0  0  # atno 17320 bound_to 7965
  146.3502  139.9911  142.8685 LP  0  0  0  0  0  0  0  0  0  0  0  0  # atno 17321 bound_to 7965
  139.8929  143.6930  152.3142 LP  0  0  0  0  0  0  0  0  0  0  0  0  # atno 17342 bound_to 10162
  139.7253  144.7594  151.0889 LP  0  0  0  0  0  0  0  0  0  0  0  0  # atno 17343 bound_to 10162
  156.3458  130.7406  151.2358 LP  0  0  0  0  0  0  0  0  0  0  0  0  # atno 17370 bound_to 10713
  157.7477  131.0391  150.4533 LP  0  0  0  0  0  0  0  0  0  0  0  0  # atno 17371 bound_to 10713
  140.9223  133.7636  155.9922 LP  0  0  0  0  0  0  0  0  0  0  0  0  # atno 17394 bound_to 11000
  140.8425  134.3049  157.5308 LP  0  0  0  0  0  0  0  0  0  0  0  0  # atno 17395 bound_to 11000

$$$$
