AV-unprocessed.smi:1198|AV-procd|sdf|5011|dock2
  -GOLD-   22720 4 23D 1   1.00000     0.00000
 Structure written by MMmdl.
 40 41  0  0  0  0  0  0  0  0  2 V2000
  150.6658  142.3627  157.3583 C   0  0  0  0  0  0  0  0  0  0  0  0
  151.3054  141.4238  156.5006 O   0  0  0  0  0  0  0  0  0  0  0  0
  150.5161  140.6313  155.6930 C   0  0  0  0  0  0  0  0  0  0  0  0
  149.1177  140.7860  155.7557 C   0  0  0  0  0  0  0  0  0  0  0  0
  148.3096  139.9800  154.9321 C   0  0  0  0  0  0  0  0  0  0  0  0
  148.9164  139.0448  154.0694 C   0  0  0  0  0  0  0  0  0  0  0  0
  148.0591  138.2493  153.2588 N   0  0  0  0  0  0  0  0  0  0  0  0
  146.7217  138.1178  153.2991 C   0  0  0  0  0  0  0  0  0  0  0  0
  145.9663  138.6931  154.0811 O   0  0  0  0  0  0  0  0  0  0  0  0
  146.2952  137.2524  152.3677 N   0  0  0  0  0  0  0  0  0  0  0  0
  144.9029  136.8811  152.1313 C   0  0  0  0  0  0  0  0  0  0  0  0
  144.7509  135.3884  151.7794 C   0  0  1  0  0  0  0  0  0  0  0  0
  143.6212  134.6548  152.5033 C   0  0  0  0  0  0  0  0  0  0  0  0
  143.3954  133.4326  151.6189 C   0  0  0  0  0  0  0  0  0  0  0  0
  143.6049  133.9100  150.2359 N   0  3  2  0  0  0  0  0  0  0  0  0
  144.1024  132.8746  149.3061 C   0  0  0  0  0  0  0  0  0  0  0  0
  144.4384  135.1343  150.2968 C   0  0  0  0  0  0  0  0  0  0  0  0
  150.3313  138.9620  154.0844 C   0  0  0  0  0  0  0  0  0  0  0  0
  151.1118  139.7329  154.8712 N   0  0  0  0  0  0  0  0  0  0  0  0
  151.4215  142.9055  157.9261 H   0  0  0  0  0  0  0  0  0  0  0  0
  150.0079  141.8665  158.0734 H   0  0  0  0  0  0  0  0  0  0  0  0
  150.0903  143.0949  156.7900 H   0  0  0  0  0  0  0  0  0  0  0  0
  148.6730  141.5093  156.4230 H   0  0  0  0  0  0  0  0  0  0  0  0
  147.2345  140.0824  154.9647 H   0  0  0  0  0  0  0  0  0  0  0  0
  148.5320  137.6890  152.5649 H   0  0  0  0  0  0  0  0  0  0  0  0
  146.9860  136.8245  151.7685 H   0  0  0  0  0  0  0  0  0  0  0  0
  144.2826  137.1389  152.9917 H   0  0  0  0  0  0  0  0  0  0  0  0
  144.5374  137.4879  151.3025 H   0  0  0  0  0  0  0  0  0  0  0  0
  145.6853  134.8757  152.0148 H   0  0  0  0  0  0  0  0  0  0  0  0
  143.8737  134.3892  153.5304 H   0  0  0  0  0  0  0  0  0  0  0  0
  142.7201  135.2697  152.5238 H   0  0  0  0  0  0  0  0  0  0  0  0
  144.1333  132.6669  151.8650 H   0  0  0  0  0  0  0  0  0  0  0  0
  142.4039  132.9977  151.7480 H   0  0  0  0  0  0  0  0  0  0  0  0
  145.0824  132.5076  149.6140 H   0  0  0  0  0  0  0  0  0  0  0  0
  144.1885  133.2783  148.2969 H   0  0  0  0  0  0  0  0  0  0  0  0
  143.4136  132.0297  149.2738 H   0  0  0  0  0  0  0  0  0  0  0  0
  143.8570  135.9541  149.8734 H   0  0  0  0  0  0  0  0  0  0  0  0
  145.3547  135.0474  149.7107 H   0  0  0  0  0  0  0  0  0  0  0  0
  150.8800  138.2687  153.4686 H   0  0  0  0  0  0  0  0  0  0  0  0
  142.7012  134.2066  149.8952 H   0  0  0  0  0  0  0  0  0  0  0  0
  1  2  1  0  0  0  0
  1 20  1  0  0  0  0
  1 21  1  0  0  0  0
  1 22  1  0  0  0  0
  2  3  1  0  0  0  0
  3 19  1  0  0  0  0
  3  4  2  0  0  0  0
  4  5  1  0  0  0  0
  4 23  1  0  0  0  0
  5  6  2  0  0  0  0
  5 24  1  0  0  0  0
  6  7  1  0  0  0  0
  6 18  1  0  0  0  0
  7  8  1  0  0  0  0
  7 25  1  0  0  0  0
  8  9  2  0  0  0  0
  8 10  1  0  0  0  0
 10 11  1  0  0  0  0
 10 26  1  0  0  0  0
 11 12  1  0  0  0  0
 11 27  1  0  0  0  0
 11 28  1  0  0  0  0
 12 17  1  0  0  0  0
 12 13  1  0  0  0  0
 12 29  1  0  0  0  0
 13 14  1  0  0  0  0
 13 30  1  0  0  0  0
 13 31  1  0  0  0  0
 14 15  1  0  0  0  0
 14 32  1  0  0  0  0
 14 33  1  0  0  0  0
 15 16  1  0  0  0  0
 15 17  1  0  0  0  0
 15 40  1  0  0  0  0
 16 34  1  0  0  0  0
 16 35  1  0  0  0  0
 16 36  1  0  0  0  0
 17 37  1  0  0  0  0
 17 38  1  0  0  0  0
 18 19  2  0  0  0  0
 18 39  1  0  0  0  0
M  CHG  1  15   1
M  END
> <s_m_source_file>
AV-unprocessed.smi

> <i_m_source_file_index>
1198

> <i_lp_mmshare_version>
43012

> <i_f3d_flags>
0

> <s_epik_input>
W0NIM11PYzFbY0hdW2NIXWMoW2NIXW4xKVtOSF1DKD1PKVtOSF1bQ0gyXVtDQEBIXTJbQ0gyXVtDSDJdTihbQ0gzXSlbQ0gyXTI=

> <s_epik_cmdline>
J2VwaWtfcHl0aG9uJywgJy1waCcsICc3LjAnLCAnLXRuJywgJzgnLCAnLW1hJywgJzIwMCcsICctbWV0YWxfYmluZGluZycsICctaW1hZScsICc8aW5maWxlLm1hZT4nLCAnLW9tYWUnLCAnPG91dGZpbGUubWFlPic=

> <r_lp_tautomer_probability>
1

> <r_epik_Ionization_Penalty>
0.00131396

> <r_epik_Ionization_Penalty_Charging>
0.0012301

> <r_epik_Ionization_Penalty_Neutral>
8.38549e-05

> <r_epik_State_Penalty>
0.00081314

> <r_epik_Charging_Adjusted_Penalty>
0.00204324

> <i_epik_Tot_Q>
1

> <i_epik_Tot_abs_Q>
1

> <r_epik_Metal_State_Penalty>
-0

> <b_epik_Metal_Only>
0

> <s_lp_Force_Field>
OPLS_2005

> <r_lp_Energy>
29.7758

> <b_lp_Chiralities_Consistent>
1

> <s_lp_Variant>
AV-unprocessed.smi:1198-2

> <Gold.Version>
5.8.1

> <Gold.Id.Protein>
6NUR|6NUR_protein|mol2

> <Gold.PLP.Fitness>
44.0030

> <Gold.PLP.PLP>
-32.6992

> <Gold.PLP.part.hbond>
-4.5200

> <Gold.PLP.part.metal>
0.0000

> <Gold.PLP.part.buried>
-3.1000

> <Gold.PLP.part.nonpolar>
-25.2309

> <Gold.PLP.part.repulsive>
0.3167

> <Gold.PLP.ligand.clash>
0.7344

> <Gold.PLP.ligand.torsion>
0.8333

> <Gold.PLP.Chemscore.Hbond>
4.5660

> <Gold.PLP.Chemscore.CHOScore>
0.0000

> <Gold.PLP.Chemscore.Metal>
0.0000

> <Gold.Chemscore.Hbonds>
donor molecule, donor type, donor heavy atom, donor atom, acceptor molecule, acceptor atom, score
      L1  H     7    25       P1  7948  1.00
      L1  H    10    26       P1  7948  0.79
      L1  H    15    40       P1 10186  2.00
      P1  H  7989  7998       L1    19  0.75

> <Gold.PLP.Chemscore.Internal.Correction>
0.0068

> <Gold.Rescore>
     Score         DG    S(hbond)    S(metal)    S(lipo)     H(rot)  DE(clash)    DE(int)     intcor
     17.21     -19.45       2.89        0.00      70.00       1.51       0.03       2.21       ----

> <Gold.Chemscore.Fitness>
17.2129

> <Gold.Chemscore.DG>
-19.4545

> <Gold.Chemscore.ZeroCoef>
-5.4800

> <Gold.Chemscore.Hbond>
2.8931

> <Gold.Chemscore.Metal>
0.0000

> <Gold.Chemscore.Lipo>
69.9961

> <Gold.Chemscore.Internal_Hbond>
0.0000

> <Gold.Chemscore.DEClash>
0.0277

> <Gold.Chemscore.DEInternal>
2.2139

> <Gold.Chemscore.Rot>
1.5149

> <Gold.Chemscore.Internal.Correction>
   9.000000E+99

> <Gold.Chemscore.Hbonds>
donor molecule, donor type, donor heavy atom, donor atom, acceptor molecule, acceptor atom, score
      L1  H     7    25       P1  7948  0.98
      L1  H    10    26       P1  7948  0.74
      L1  H    15    40       P1 10186  0.99
      P1  H  7989  7998       L1    19  0.02

> <Gold.Chemscore.Hbond.Weighted>
-9.6631

> <Gold.Chemscore.Metal.Weighted>
-0.0000

> <Gold.Chemscore.Lipo.Weighted>
-8.1895

> <Gold.Chemscore.Internal_Hbond.Weighted>
0.0000

> <Gold.Chemscore.DEClash.Weighted>
0.0277

> <Gold.Chemscore.DEInternal.Weighted>
2.2139

> <Gold.Chemscore.Rot.Weighted>
3.8781

> <Gold.Chemscore.Internal.Correction.Weighted>
   9.000000E+99

> <Gold.Protein.RotatedTorsions>
[ 6907 6896 6895 6894 ] final  172.20 input  -60.11 | X-H torsion
[ 7974 7965 7964 7962 ] final -173.64 input  175.53 | X-H torsion
[ 8008 7997 7996 7995 ] final   89.13 input   59.86 | X-H torsion
[ 10167 10162 10161 10158 ] final   11.70 input  -65.29 | X-H torsion
[ 10718 10713 10712 10709 ] final -172.58 input   66.30 | X-H torsion
[ 10763 10752 10751 10750 ] final  -90.53 input  -60.55 | X-H torsion
[ 11005 11000 10999 10996 ] final  -22.18 input  -57.11 | X-H torsion

> <Gold.Protein.ActiveResidues>
 VAL166  LYS551  ARG553  GLY616  TRP617  ASP618  TYR619  PRO620  LYS621  CYS622 
 ASP623  PHE694  ASN695  SER759  ASP760  ASP761  ALA762  ILE779  LEU786  VAL792 
 PHE793  MET794  SER795  GLU796  ALA797  LYS798  CYS799  TRP800  GLU811  SER814 

> <Gold.Protein.RotatedAtoms>
  151.7881  133.3356  159.3490 H   0  0  0  0  0  0  0  0  0  0  0  0  # atno 6907 bound_to 6896
  150.7402  134.5868  159.5976 H   0  0  0  0  0  0  0  0  0  0  0  0  # atno 6908 bound_to 6896
  152.3229  134.7359  160.0360 H   0  0  0  0  0  0  0  0  0  0  0  0  # atno 6909 bound_to 6896
  144.7136  140.1592  143.6377 H   0  0  0  0  0  0  0  0  0  0  0  0  # atno 7974 bound_to 7965
  155.9962  140.3364  155.6801 H   0  0  0  0  0  0  0  0  0  0  0  0  # atno 8008 bound_to 7997
  155.6353  140.0689  157.2654 H   0  0  0  0  0  0  0  0  0  0  0  0  # atno 8009 bound_to 7997
  154.4235  140.1752  156.1503 H   0  0  0  0  0  0  0  0  0  0  0  0  # atno 8010 bound_to 7997
  140.6115  143.8397  150.7071 H   0  0  0  0  0  0  0  0  0  0  0  0  # atno 10167 bound_to 10162
  156.7576  130.9401  151.3117 H   0  0  0  0  0  0  0  0  0  0  0  0  # atno 10718 bound_to 10713
  154.6667  135.5301  153.8086 H   0  0  0  0  0  0  0  0  0  0  0  0  # atno 10763 bound_to 10752
  153.0475  135.6519  154.0788 H   0  0  0  0  0  0  0  0  0  0  0  0  # atno 10764 bound_to 10752
  154.0692  135.2955  155.3291 H   0  0  0  0  0  0  0  0  0  0  0  0  # atno 10765 bound_to 10752
  140.8632  133.7773  156.0099 H   0  0  0  0  0  0  0  0  0  0  0  0  # atno 11005 bound_to 11000
  145.9046  139.2450  143.1473 LP  0  0  0  0  0  0  0  0  0  0  0  0  # atno 17320 bound_to 7965
  145.9777  140.8708  143.0130 LP  0  0  0  0  0  0  0  0  0  0  0  0  # atno 17321 bound_to 7965
  140.1967  143.3992  152.1823 LP  0  0  0  0  0  0  0  0  0  0  0  0  # atno 17342 bound_to 10162
  139.5365  144.7214  151.4876 LP  0  0  0  0  0  0  0  0  0  0  0  0  # atno 17343 bound_to 10162
  157.6749  130.9085  150.0126 LP  0  0  0  0  0  0  0  0  0  0  0  0  # atno 17370 bound_to 10713
  156.1360  130.3642  149.9657 LP  0  0  0  0  0  0  0  0  0  0  0  0  # atno 17371 bound_to 10713
  140.8658  134.2786  157.5213 LP  0  0  0  0  0  0  0  0  0  0  0  0  # atno 17394 bound_to 11000
  139.8708  134.9542  156.4168 LP  0  0  0  0  0  0  0  0  0  0  0  0  # atno 17395 bound_to 11000

$$$$
