AV-unprocessed.smi:1599|AV-procd|sdf|6424|dock7
  -GOLD-   22720 7 63D 1   1.00000     0.00000
 Structure written by MMmdl.
 39 40  0  0  0  0  0  0  0  0  1 V2000
  153.0294  138.1540  154.9103 C   0  0  0  0  0  0  0  0  0  0  0  0
  151.5437  138.4470  154.6540 C   0  0  1  0  0  0  0  0  0  0  0  0
  150.8287  137.1884  154.4526 N   0  0  0  0  0  0  0  0  0  0  0  0
  151.0354  136.0524  155.1335 C   0  0  0  0  0  0  0  0  0  0  0  0
  151.8581  135.9383  156.0417 O   0  0  0  0  0  0  0  0  0  0  0  0
  150.2344  135.0702  154.6909 N   0  0  0  0  0  0  0  0  0  0  0  0
  150.1889  133.7301  155.1490 C   0  0  0  0  0  0  0  0  0  0  0  0
  150.8354  133.1379  156.2705 C   0  0  0  0  0  0  0  0  0  0  0  0
  150.5433  131.8492  156.3608 N   0  0  0  0  0  0  0  0  0  0  0  0
  149.7132  131.5995  155.3173 N   0  0  0  0  0  0  0  0  0  0  0  0
  149.1975  130.2567  155.1130 C   0  0  0  0  0  0  0  0  0  0  0  0
  150.2958  129.2975  154.6456 C   0  0  0  0  0  0  0  0  0  0  0  0
  150.0980  128.6644  153.4864 N   0  0  0  0  0  0  0  0  0  0  0  0
  151.3100  129.1272  155.3196 O   0  0  0  0  0  0  0  0  0  0  0  0
  149.4796  132.7291  154.5567 C   0  0  0  0  0  0  0  0  0  0  0  0
  150.8984  139.2318  155.8117 C   0  0  2  0  0  0  0  0  0  0  0  0
  149.4399  139.6259  155.5796 C   0  0  0  0  0  0  0  0  0  0  0  0
  149.2478  140.7896  156.5347 C   0  0  0  0  0  0  0  0  0  0  0  0
  150.6667  141.3242  156.7531 C   0  0  0  0  0  0  0  0  0  0  0  0
  151.5207  140.4974  155.9707 O   0  0  0  0  0  0  0  0  0  0  0  0
  153.5948  139.0764  155.0456 H   0  0  0  0  0  0  0  0  0  0  0  0
  153.4743  137.6184  154.0708 H   0  0  0  0  0  0  0  0  0  0  0  0
  153.1672  137.5458  155.8048 H   0  0  0  0  0  0  0  0  0  0  0  0
  151.4714  139.0624  153.7553 H   0  0  0  0  0  0  0  0  0  0  0  0
  150.1282  137.1815  153.7260 H   0  0  0  0  0  0  0  0  0  0  0  0
  149.6015  135.3018  153.9395 H   0  0  0  0  0  0  0  0  0  0  0  0
  151.4922  133.5773  157.0062 H   0  0  0  0  0  0  0  0  0  0  0  0
  148.7549  129.9118  156.0487 H   0  0  0  0  0  0  0  0  0  0  0  0
  148.3988  130.2800  154.3700 H   0  0  0  0  0  0  0  0  0  0  0  0
  150.7918  128.0193  153.1373 H   0  0  0  0  0  0  0  0  0  0  0  0
  149.2504  128.8325  152.9639 H   0  0  0  0  0  0  0  0  0  0  0  0
  148.8449  132.7194  153.6829 H   0  0  0  0  0  0  0  0  0  0  0  0
  150.9850  138.6754  156.7473 H   0  0  0  0  0  0  0  0  0  0  0  0
  149.3012  139.9659  154.5521 H   0  0  0  0  0  0  0  0  0  0  0  0
  148.7420  138.8081  155.7621 H   0  0  0  0  0  0  0  0  0  0  0  0
  148.5768  141.5444  156.1240 H   0  0  0  0  0  0  0  0  0  0  0  0
  148.8276  140.4448  157.4801 H   0  0  0  0  0  0  0  0  0  0  0  0
  150.7672  142.3660  156.4476 H   0  0  0  0  0  0  0  0  0  0  0  0
  150.9488  141.2497  157.8039 H   0  0  0  0  0  0  0  0  0  0  0  0
  1  2  1  0  0  0  0
  1 21  1  0  0  0  0
  1 22  1  0  0  0  0
  1 23  1  0  0  0  0
  2  3  1  0  0  0  0
  2 16  1  0  0  0  0
  2 24  1  0  0  0  0
  3  4  1  0  0  0  0
  3 25  1  0  0  0  0
  4  5  2  0  0  0  0
  4  6  1  0  0  0  0
  6  7  1  0  0  0  0
  6 26  1  0  0  0  0
  7 15  2  0  0  0  0
  7  8  1  0  0  0  0
  8  9  2  0  0  0  0
  8 27  1  0  0  0  0
  9 10  1  0  0  0  0
 10 11  1  0  0  0  0
 10 15  1  0  0  0  0
 11 12  1  0  0  0  0
 11 28  1  0  0  0  0
 11 29  1  0  0  0  0
 12 13  1  0  0  0  0
 12 14  2  0  0  0  0
 13 30  1  0  0  0  0
 13 31  1  0  0  0  0
 15 32  1  0  0  0  0
 16 20  1  0  0  0  0
 16 17  1  0  0  0  0
 16 33  1  0  0  0  0
 17 18  1  0  0  0  0
 17 34  1  0  0  0  0
 17 35  1  0  0  0  0
 18 19  1  0  0  0  0
 18 36  1  0  0  0  0
 18 37  1  0  0  0  0
 19 20  1  0  0  0  0
 19 38  1  0  0  0  0
 19 39  1  0  0  0  0
M  END
> <s_m_source_file>
AV-unprocessed.smi

> <i_m_source_file_index>
1599

> <i_lp_mmshare_version>
43012

> <i_f3d_flags>
0

> <s_epik_input>
TzFbQ0gyXVtDSDJdW0NIMl1bQ0BIXTFbQ0BIXShbQ0gzXSlbTkhdQyg9TylbTkhdYzJbY0hdbm4oW2NIXTIpW0NIMl1DKD1PKVtOSDJd

> <s_epik_cmdline>
J2VwaWtfcHl0aG9uJywgJy1waCcsICc3LjAnLCAnLXRuJywgJzgnLCAnLW1hJywgJzIwMCcsICctbWV0YWxfYmluZGluZycsICctaW1hZScsICc8aW5maWxlLm1hZT4nLCAnLW9tYWUnLCAnPG91dGZpbGUubWFlPic=

> <r_lp_tautomer_probability>
1

> <r_epik_Ionization_Penalty>
4.15391e-05

> <r_epik_Ionization_Penalty_Charging>
0

> <r_epik_Ionization_Penalty_Neutral>
4.15391e-05

> <r_epik_State_Penalty>
-0

> <r_epik_Charging_Adjusted_Penalty>
0

> <i_epik_Tot_Q>
0

> <i_epik_Tot_abs_Q>
0

> <r_epik_Metal_State_Penalty>
-0

> <b_epik_Metal_Only>
0

> <s_lp_Force_Field>
OPLS_2005

> <r_lp_Energy>
20.7391

> <b_lp_Chiralities_Consistent>
1

> <s_lp_Variant>
AV-unprocessed.smi:1599-2

> <Gold.Version>
5.8.1

> <Gold.Id.Protein>
6NUR|6NUR_protein|mol2

> <Gold.PLP.Fitness>
45.7003

> <Gold.PLP.PLP>
-33.1056

> <Gold.PLP.part.hbond>
-6.5066

> <Gold.PLP.part.metal>
0.0000

> <Gold.PLP.part.buried>
-3.1884

> <Gold.PLP.part.nonpolar>
-24.4872

> <Gold.PLP.part.repulsive>
0.3504

> <Gold.PLP.ligand.clash>
0.0054

> <Gold.PLP.ligand.torsion>
0.4492

> <Gold.PLP.Chemscore.Hbond>
4.4800

> <Gold.PLP.Chemscore.CHOScore>
0.0000

> <Gold.PLP.Chemscore.Metal>
0.0000

> <Gold.Chemscore.Hbonds>
donor molecule, donor type, donor heavy atom, donor atom, acceptor molecule, acceptor atom, score
      L1  H     3    25       P1  7948  0.18
      L1  H     6    26       P1  7948  0.22
      L1  H    13    30       P1 10737  0.86
      P1  H 10752 10765       L1     5  0.95

> <Gold.PLP.Chemscore.Internal.Correction>
0.0586

> <Gold.Rescore>
     Score         DG    S(hbond)    S(metal)    S(lipo)     H(rot)  DE(clash)    DE(int)     intcor
     10.51     -15.23       2.75        0.00      54.74       2.28       1.36       3.36       ----

> <Gold.Chemscore.Fitness>
10.5081

> <Gold.Chemscore.DG>
-15.2320

> <Gold.Chemscore.ZeroCoef>
-5.4800

> <Gold.Chemscore.Hbond>
2.7514

> <Gold.Chemscore.Metal>
0.0000

> <Gold.Chemscore.Lipo>
54.7431

> <Gold.Chemscore.Internal_Hbond>
0.0000

> <Gold.Chemscore.DEClash>
1.3615

> <Gold.Chemscore.DEInternal>
3.3624

> <Gold.Chemscore.Rot>
2.2823

> <Gold.Chemscore.Internal.Correction>
   9.000000E+99

> <Gold.Chemscore.Hbonds>
donor molecule, donor type, donor heavy atom, donor atom, acceptor molecule, acceptor atom, score
      L1  H     3    25       P1  7948  0.06
      L1  H     6    26       P1  7948  0.04
      L1  H    13    30       P1 10737  0.85
      P1  H 10752 10765       L1     5  0.22

> <Gold.Chemscore.Hbond.Weighted>
-9.1897

> <Gold.Chemscore.Metal.Weighted>
-0.0000

> <Gold.Chemscore.Lipo.Weighted>
-6.4049

> <Gold.Chemscore.Internal_Hbond.Weighted>
0.0000

> <Gold.Chemscore.DEClash.Weighted>
1.3615

> <Gold.Chemscore.DEInternal.Weighted>
3.3624

> <Gold.Chemscore.Rot.Weighted>
5.8427

> <Gold.Chemscore.Internal.Correction.Weighted>
   9.000000E+99

> <Gold.Protein.RotatedTorsions>
[ 6907 6896 6895 6894 ] final  -39.52 input  -60.11 | X-H torsion
[ 7974 7965 7964 7962 ] final -111.25 input  175.53 | X-H torsion
[ 8008 7997 7996 7995 ] final    3.83 input   59.86 | X-H torsion
[ 10167 10162 10161 10158 ] final   -1.77 input  -65.29 | X-H torsion
[ 10718 10713 10712 10709 ] final   50.36 input   66.30 | X-H torsion
[ 10763 10752 10751 10750 ] final -144.00 input  -60.55 | X-H torsion
[ 11005 11000 10999 10996 ] final  -30.02 input  -57.11 | X-H torsion

> <Gold.Protein.ActiveResidues>
 VAL166  LYS551  ARG553  GLY616  TRP617  ASP618  TYR619  PRO620  LYS621  CYS622 
 ASP623  PHE694  ASN695  SER759  ASP760  ASP761  ALA762  ILE779  LEU786  VAL792 
 PHE793  MET794  SER795  GLU796  ALA797  LYS798  CYS799  TRP800  GLU811  SER814 

> <Gold.Protein.RotatedAtoms>
  150.9893  134.9232  159.7889 H   0  0  0  0  0  0  0  0  0  0  0  0  # atno 6907 bound_to 6896
  152.5246  134.3303  159.9190 H   0  0  0  0  0  0  0  0  0  0  0  0  # atno 6908 bound_to 6896
  151.3309  133.3960  159.2697 H   0  0  0  0  0  0  0  0  0  0  0  0  # atno 6909 bound_to 6896
  145.1583  140.8865  143.3606 H   0  0  0  0  0  0  0  0  0  0  0  0  # atno 7974 bound_to 7965
  154.7084  140.2687  155.6652 H   0  0  0  0  0  0  0  0  0  0  0  0  # atno 8008 bound_to 7997
  156.2787  140.2758  156.1642 H   0  0  0  0  0  0  0  0  0  0  0  0  # atno 8009 bound_to 7997
  155.0668  140.0372  157.2585 H   0  0  0  0  0  0  0  0  0  0  0  0  # atno 8010 bound_to 7997
  140.6824  143.6736  150.8164 H   0  0  0  0  0  0  0  0  0  0  0  0  # atno 10167 bound_to 10162
  157.4877  130.8356  149.8166 H   0  0  0  0  0  0  0  0  0  0  0  0  # atno 10718 bound_to 10713
  154.8447  135.3452  154.6276 H   0  0  0  0  0  0  0  0  0  0  0  0  # atno 10763 bound_to 10752
  153.6886  135.6976  153.5101 H   0  0  0  0  0  0  0  0  0  0  0  0  # atno 10764 bound_to 10752
  153.2613  135.4322  155.0852 H   0  0  0  0  0  0  0  0  0  0  0  0  # atno 10765 bound_to 10752
  140.9346  133.7316  156.0986 H   0  0  0  0  0  0  0  0  0  0  0  0  # atno 11005 bound_to 11000
  145.0358  139.3302  143.6002 LP  0  0  0  0  0  0  0  0  0  0  0  0  # atno 17320 bound_to 7965
  146.3486  139.9712  142.8706 LP  0  0  0  0  0  0  0  0  0  0  0  0  # atno 17321 bound_to 7965
  140.0438  143.5319  152.2706 LP  0  0  0  0  0  0  0  0  0  0  0  0  # atno 17342 bound_to 10162
  139.6156  144.7618  151.2854 LP  0  0  0  0  0  0  0  0  0  0  0  0  # atno 17343 bound_to 10162
  156.0156  130.3815  150.2122 LP  0  0  0  0  0  0  0  0  0  0  0  0  # atno 17370 bound_to 10713
  157.0310  131.0007  151.3312 LP  0  0  0  0  0  0  0  0  0  0  0  0  # atno 17371 bound_to 10713
  140.7816  134.3719  157.5486 LP  0  0  0  0  0  0  0  0  0  0  0  0  # atno 17394 bound_to 11000
  139.8805  134.9085  156.2969 LP  0  0  0  0  0  0  0  0  0  0  0  0  # atno 17395 bound_to 11000

$$$$
