AV-unprocessed.smi:2974|AV-procd|sdf|11353|dock6
  -GOLD-   2272016273D 1   1.00000     0.00000
 Structure written by MMmdl.
 27 28  0  0  0  0  0  0  0  0  3 V2000
  151.9349  137.4464  154.2677 O   0  0  0  0  0  0  0  0  0  0  0  0
  152.4159  138.5303  154.6651 C   0  0  0  0  0  0  0  0  0  0  0  0
  153.6362  138.7976  154.5931 O   0  5  0  0  0  0  0  0  0  0  0  0
  151.4933  139.5565  155.2538 C   0  0  0  0  0  0  0  0  0  0  0  0
  151.9371  140.5140  156.1950 C   0  0  0  0  0  0  0  0  0  0  0  0
  151.0256  141.4564  156.7169 C   0  0  0  0  0  0  0  0  0  0  0  0
  151.4765  142.4022  157.6478 N   0  0  0  0  0  0  0  0  0  0  0  0
  150.4275  143.2970  158.1203 C   0  0  0  0  0  0  0  0  0  0  0  0
  151.0295  144.3766  159.0365 C   0  0  0  0  0  0  0  0  0  0  0  0
  151.7373  143.7547  160.1054 O   0  0  0  0  0  0  0  0  0  0  0  0
  152.8109  142.9442  159.6355 C   0  0  0  0  0  0  0  0  0  0  0  0
  152.2563  141.8258  158.7361 C   0  0  0  0  0  0  0  0  0  0  0  0
  149.6797  141.4194  156.2814 C   0  0  0  0  0  0  0  0  0  0  0  0
  149.2880  140.4457  155.3416 C   0  0  0  0  0  0  0  0  0  0  0  0
  150.1958  139.5647  154.8705 N   0  3  0  0  0  0  0  0  0  0  0  0
  152.9689  140.5287  156.5170 H   0  0  0  0  0  0  0  0  0  0  0  0
  149.9283  143.7643  157.2703 H   0  0  0  0  0  0  0  0  0  0  0  0
  149.6733  142.7291  158.6667 H   0  0  0  0  0  0  0  0  0  0  0  0
  151.6974  145.0338  158.4774 H   0  0  0  0  0  0  0  0  0  0  0  0
  150.2391  145.0028  159.4504 H   0  0  0  0  0  0  0  0  0  0  0  0
  153.5337  143.5570  159.0942 H   0  0  0  0  0  0  0  0  0  0  0  0
  153.3334  142.5157  160.4907 H   0  0  0  0  0  0  0  0  0  0  0  0
  151.6313  141.1547  159.3269 H   0  0  0  0  0  0  0  0  0  0  0  0
  153.0761  141.2316  158.3301 H   0  0  0  0  0  0  0  0  0  0  0  0
  148.9553  142.1260  156.6593 H   0  0  0  0  0  0  0  0  0  0  0  0
  148.2847  140.3454  154.9547 H   0  0  0  0  0  0  0  0  0  0  0  0
  149.8973  138.8650  154.1899 H   0  0  0  0  0  0  0  0  0  0  0  0
  1  2  2  0  0  0  0
  2  3  1  0  0  0  0
  2  4  1  0  0  0  0
  4 15  1  0  0  0  0
  4  5  2  0  0  0  0
  5  6  1  0  0  0  0
  5 16  1  0  0  0  0
  6  7  1  0  0  0  0
  6 13  2  0  0  0  0
  7 12  1  0  0  0  0
  7  8  1  0  0  0  0
  8  9  1  0  0  0  0
  8 17  1  0  0  0  0
  8 18  1  0  0  0  0
  9 10  1  0  0  0  0
  9 19  1  0  0  0  0
  9 20  1  0  0  0  0
 10 11  1  0  0  0  0
 11 12  1  0  0  0  0
 11 21  1  0  0  0  0
 11 22  1  0  0  0  0
 12 23  1  0  0  0  0
 12 24  1  0  0  0  0
 13 14  1  0  0  0  0
 13 25  1  0  0  0  0
 14 15  2  0  0  0  0
 14 26  1  0  0  0  0
 15 27  1  0  0  0  0
M  CHG  1   3  -1
M  CHG  1  15   1
M  END
> <s_m_source_file>
AV-unprocessed.smi

> <i_m_source_file_index>
2974

> <i_lp_mmshare_version>
43012

> <i_f3d_flags>
0

> <s_epik_input>
Tz1DKFtPSF0pYzFbY0hdYyhbY0hdW2NIXW4xKU4yW0NIMl1bQ0gyXU9bQ0gyXVtDSDJdMg==

> <s_epik_cmdline>
J2VwaWtfcHl0aG9uJywgJy1waCcsICc3LjAnLCAnLXRuJywgJzgnLCAnLW1hJywgJzIwMCcsICctbWV0YWxfYmluZGluZycsICctaW1hZScsICc8aW5maWxlLm1hZT4nLCAnLW9tYWUnLCAnPG91dGZpbGUubWFlPic=

> <r_epik_Ionization_Penalty>
0.0248724

> <r_epik_Ionization_Penalty_Charging>
0.0248724

> <r_epik_Ionization_Penalty_Neutral>
3.18831e-12

> <r_epik_State_Penalty>
0.0202062

> <r_epik_Charging_Adjusted_Penalty>
0.0450787

> <i_epik_Tot_Q>
0

> <i_epik_Tot_abs_Q>
2

> <r_epik_Metal_State_Penalty>
2.1181

> <b_epik_Metal_Only>
0

> <s_lp_Force_Field>
OPLS_2005

> <r_lp_Energy>
18.0137

> <b_lp_Chiralities_Consistent>
1

> <s_lp_Variant>
AV-unprocessed.smi:2974-1

> <Gold.Version>
5.8.1

> <Gold.Id.Protein>
6NUR|6NUR_protein|mol2

> <Gold.PLP.Fitness>
39.0363

> <Gold.PLP.PLP>
-28.6972

> <Gold.PLP.part.hbond>
-2.0000

> <Gold.PLP.part.metal>
0.0000

> <Gold.PLP.part.buried>
-5.1574

> <Gold.PLP.part.nonpolar>
-22.1700

> <Gold.PLP.part.repulsive>
0.3679

> <Gold.PLP.ligand.clash>
0.6410

> <Gold.PLP.ligand.torsion>
0.4216

> <Gold.PLP.Chemscore.Hbond>
3.9040

> <Gold.PLP.Chemscore.CHOScore>
0.0000

> <Gold.PLP.Chemscore.Metal>
0.0000

> <Gold.Chemscore.Hbonds>
donor molecule, donor type, donor heavy atom, donor atom, acceptor molecule, acceptor atom, score
      P1  H  7997  8009       L1     3  1.98
      P1  H 10752 10764       L1     1  1.84

> <Gold.PLP.Chemscore.Internal.Correction>
0.1113

> <Gold.Rescore>
     Score         DG    S(hbond)    S(metal)    S(lipo)     H(rot)  DE(clash)    DE(int)     intcor
     16.72     -17.17       1.80        0.00      70.44       1.00       0.00       0.45       ----

> <Gold.Chemscore.Fitness>
16.7184

> <Gold.Chemscore.DG>
-17.1692

> <Gold.Chemscore.ZeroCoef>
-5.4800

> <Gold.Chemscore.Hbond>
1.7989

> <Gold.Chemscore.Metal>
0.0000

> <Gold.Chemscore.Lipo>
70.4355

> <Gold.Chemscore.Internal_Hbond>
0.0000

> <Gold.Chemscore.DEClash>
0.0015

> <Gold.Chemscore.DEInternal>
0.4493

> <Gold.Chemscore.Rot>
1.0000

> <Gold.Chemscore.Internal.Correction>
   9.000000E+99

> <Gold.Chemscore.Hbonds>
donor molecule, donor type, donor heavy atom, donor atom, acceptor molecule, acceptor atom, score
      P1  H  7997  8009       L1     3  0.89
      P1  H 10752 10764       L1     1  0.83

> <Gold.Chemscore.Hbond.Weighted>
-6.0082

> <Gold.Chemscore.Metal.Weighted>
-0.0000

> <Gold.Chemscore.Lipo.Weighted>
-8.2410

> <Gold.Chemscore.Internal_Hbond.Weighted>
0.0000

> <Gold.Chemscore.DEClash.Weighted>
0.0015

> <Gold.Chemscore.DEInternal.Weighted>
0.4493

> <Gold.Chemscore.Rot.Weighted>
2.5600

> <Gold.Chemscore.Internal.Correction.Weighted>
   9.000000E+99

> <Gold.Protein.RotatedTorsions>
[ 6907 6896 6895 6894 ] final  -95.58 input  -60.11 | X-H torsion
[ 7974 7965 7964 7962 ] final   78.49 input  175.53 | X-H torsion
[ 8008 7997 7996 7995 ] final -124.28 input   59.86 | X-H torsion
[ 10167 10162 10161 10158 ] final    4.95 input  -65.29 | X-H torsion
[ 10718 10713 10712 10709 ] final   -2.16 input   66.30 | X-H torsion
[ 10763 10752 10751 10750 ] final  -80.51 input  -60.55 | X-H torsion
[ 11005 11000 10999 10996 ] final -114.00 input  -57.11 | X-H torsion

> <Gold.Protein.ActiveResidues>
 VAL166  LYS551  ARG553  GLY616  TRP617  ASP618  TYR619  PRO620  LYS621  CYS622 
 ASP623  PHE694  ASN695  SER759  ASP760  ASP761  ALA762  ILE779  LEU786  VAL792 
 PHE793  MET794  SER795  GLU796  ALA797  LYS798  CYS799  TRP800  GLU811  SER814 

> <Gold.Protein.RotatedAtoms>
  150.6967  134.1636  159.4185 H   0  0  0  0  0  0  0  0  0  0  0  0  # atno 6907 bound_to 6896
  151.9616  135.0118  160.0557 H   0  0  0  0  0  0  0  0  0  0  0  0  # atno 6908 bound_to 6896
  152.1922  133.4746  159.5051 H   0  0  0  0  0  0  0  0  0  0  0  0  # atno 6909 bound_to 6896
  145.6765  139.2511  143.1838 H   0  0  0  0  0  0  0  0  0  0  0  0  # atno 7974 bound_to 7965
  155.1942  140.0414  157.2906 H   0  0  0  0  0  0  0  0  0  0  0  0  # atno 8008 bound_to 7997
  154.6118  140.2478  155.7631 H   0  0  0  0  0  0  0  0  0  0  0  0  # atno 8009 bound_to 7997
  156.2383  140.2913  156.0383 H   0  0  0  0  0  0  0  0  0  0  0  0  # atno 8010 bound_to 7997
  140.6508  143.7550  150.7572 H   0  0  0  0  0  0  0  0  0  0  0  0  # atno 10167 bound_to 10162
  156.7949  130.5374  149.5730 H   0  0  0  0  0  0  0  0  0  0  0  0  # atno 10718 bound_to 10713
  154.5520  135.5658  153.6931 H   0  0  0  0  0  0  0  0  0  0  0  0  # atno 10763 bound_to 10752
  152.9992  135.6253  154.2360 H   0  0  0  0  0  0  0  0  0  0  0  0  # atno 10764 bound_to 10752
  154.2295  135.2866  155.2875 H   0  0  0  0  0  0  0  0  0  0  0  0  # atno 10765 bound_to 10752
  141.0579  133.9582  157.2720 H   0  0  0  0  0  0  0  0  0  0  0  0  # atno 11005 bound_to 11000
  146.1001  140.7554  142.9553 LP  0  0  0  0  0  0  0  0  0  0  0  0  # atno 17320 bound_to 7965
  144.7040  140.3773  143.7133 LP  0  0  0  0  0  0  0  0  0  0  0  0  # atno 17321 bound_to 7965
  140.1200  143.4621  152.2319 LP  0  0  0  0  0  0  0  0  0  0  0  0  # atno 17342 bound_to 10162
  139.5723  144.7469  151.3858 LP  0  0  0  0  0  0  0  0  0  0  0  0  # atno 17343 bound_to 10162
  156.1136  130.6058  151.0086 LP  0  0  0  0  0  0  0  0  0  0  0  0  # atno 17370 bound_to 10713
  157.6582  131.0885  150.7899 LP  0  0  0  0  0  0  0  0  0  0  0  0  # atno 17371 bound_to 10713
  139.9407  135.0191  156.8698 LP  0  0  0  0  0  0  0  0  0  0  0  0  # atno 17394 bound_to 11000
  140.5926  134.0247  155.7506 LP  0  0  0  0  0  0  0  0  0  0  0  0  # atno 17395 bound_to 11000

$$$$
