AV-unprocessed.smi:2520|AV-procd|sdf|9907|dock1
  -GOLD-   2272013543D 1   1.00000     0.00000
 Structure written by MMmdl.
 41 44  0  0  0  0  0  0  0  0  1 V2000
  149.5979  135.9741  156.3239 O   0  0  0  0  0  0  0  0  0  0  0  0
  149.4333  136.0330  155.1069 C   0  0  0  0  0  0  0  0  0  0  0  0
  149.5999  134.9425  154.3288 N   0  0  0  0  0  0  0  0  0  0  0  0
  149.9648  133.6026  154.6511 C   0  0  0  0  0  0  0  0  0  0  0  0
  149.5428  132.6335  153.7156 C   0  0  0  0  0  0  0  0  0  0  0  0
  149.8549  131.2853  153.9603 C   0  0  0  0  0  0  0  0  0  0  0  0
  150.5705  130.9933  155.1338 C   0  0  0  0  0  0  0  0  0  0  0  0
  150.9519  131.9509  156.0060 N   0  0  0  0  0  0  0  0  0  0  0  0
  150.6504  133.2312  155.7653 N   0  0  0  0  0  0  0  0  0  0  0  0
  149.0805  137.1637  154.4765 N   0  0  0  0  0  0  0  0  0  0  0  0
  148.9122  138.4623  155.1161 C   0  0  2  0  0  0  0  0  0  0  0  0
  148.3834  139.5222  154.1503 C   0  0  1  0  0  0  0  0  0  0  0  0
  147.1094  140.2803  154.0345 C   0  0  0  0  0  0  0  0  0  0  0  0
  147.7176  141.6926  153.8276 C   0  0  0  0  0  0  0  0  0  0  0  0
  149.1301  141.5638  154.1193 O   0  0  0  0  0  0  0  0  0  0  0  0
  149.1968  140.4685  155.0103 C   0  0  2  0  0  0  0  0  0  0  0  0
  150.2283  139.3297  155.1446 C   0  0  0  0  0  0  0  0  0  0  0  0
  151.0506  139.2869  156.4399 C   0  0  0  0  0  0  0  0  0  0  0  0
  152.5317  139.1789  156.0721 C   0  0  0  0  0  0  0  0  0  0  0  0
  152.5365  138.5861  154.6708 C   0  0  0  0  0  0  0  0  0  0  0  0
  151.2825  139.1709  154.0286 C   0  0  0  0  0  0  0  0  0  0  0  0
  149.3929  135.0930  153.3522 H   0  0  0  0  0  0  0  0  0  0  0  0
  148.9929  132.9136  152.8290 H   0  0  0  0  0  0  0  0  0  0  0  0
  149.5571  130.5054  153.2754 H   0  0  0  0  0  0  0  0  0  0  0  0
  150.8404  129.9766  155.3782 H   0  0  0  0  0  0  0  0  0  0  0  0
  148.9593  137.1287  153.4741 H   0  0  0  0  0  0  0  0  0  0  0  0
  148.3698  138.4295  156.0658 H   0  0  0  0  0  0  0  0  0  0  0  0
  148.8177  139.3824  153.1554 H   0  0  0  0  0  0  0  0  0  0  0  0
  146.4987  139.9579  153.1910 H   0  0  0  0  0  0  0  0  0  0  0  0
  146.5161  140.2212  154.9480 H   0  0  0  0  0  0  0  0  0  0  0  0
  147.5897  142.0445  152.8036 H   0  0  0  0  0  0  0  0  0  0  0  0
  147.2539  142.4188  154.4962 H   0  0  0  0  0  0  0  0  0  0  0  0
  148.7253  140.7185  155.9677 H   0  0  0  0  0  0  0  0  0  0  0  0
  150.8750  140.1620  157.0664 H   0  0  0  0  0  0  0  0  0  0  0  0
  150.7656  138.4202  157.0365 H   0  0  0  0  0  0  0  0  0  0  0  0
  152.9739  140.1757  156.0460 H   0  0  0  0  0  0  0  0  0  0  0  0
  153.1006  138.5815  156.7851 H   0  0  0  0  0  0  0  0  0  0  0  0
  153.4456  138.8175  154.1152 H   0  0  0  0  0  0  0  0  0  0  0  0
  152.4449  137.5009  154.7309 H   0  0  0  0  0  0  0  0  0  0  0  0
  150.9514  138.5479  153.1976 H   0  0  0  0  0  0  0  0  0  0  0  0
  151.5209  140.1479  153.6063 H   0  0  0  0  0  0  0  0  0  0  0  0
  1  2  2  0  0  0  0
  2  3  1  0  0  0  0
  2 10  1  0  0  0  0
  3  4  1  0  0  0  0
  3 22  1  0  0  0  0
  4  9  1  0  0  0  0
  4  5  2  0  0  0  0
  5  6  1  0  0  0  0
  5 23  1  0  0  0  0
  6  7  2  0  0  0  0
  6 24  1  0  0  0  0
  7  8  1  0  0  0  0
  7 25  1  0  0  0  0
  8  9  2  0  0  0  0
 10 11  1  0  0  0  0
 10 26  1  0  0  0  0
 11 17  1  0  0  0  0
 11 12  1  0  0  0  0
 11 27  1  0  0  0  0
 12 16  1  0  0  0  0
 12 13  1  0  0  0  0
 12 28  1  0  0  0  0
 13 14  1  0  0  0  0
 13 29  1  0  0  0  0
 13 30  1  0  0  0  0
 14 15  1  0  0  0  0
 14 31  1  0  0  0  0
 14 32  1  0  0  0  0
 15 16  1  0  0  0  0
 16 17  1  0  0  0  0
 16 33  1  0  0  0  0
 17 21  1  0  0  0  0
 17 18  1  0  0  0  0
 18 19  1  0  0  0  0
 18 34  1  0  0  0  0
 18 35  1  0  0  0  0
 19 20  1  0  0  0  0
 19 36  1  0  0  0  0
 19 37  1  0  0  0  0
 20 21  1  0  0  0  0
 20 38  1  0  0  0  0
 20 39  1  0  0  0  0
 21 40  1  0  0  0  0
 21 41  1  0  0  0  0
M  END
> <s_m_source_file>
AV-unprocessed.smi

> <i_m_source_file_index>
2520

> <i_lp_mmshare_version>
43012

> <i_f3d_flags>
0

> <s_epik_input>
bjFuW2NIXVtjSF1bY0hdYzFbTkhdQyg9TylbTkhdW0NAQEhdMltDQEBIXShbQ0gyXVtDSDJdTzMpW0NASF0zQzI0W0NIMl1bQ0gyXVtDSDJdW0NIMl00

> <s_epik_cmdline>
J2VwaWtfcHl0aG9uJywgJy1waCcsICc3LjAnLCAnLXRuJywgJzgnLCAnLW1hJywgJzIwMCcsICctbWV0YWxfYmluZGluZycsICctaW1hZScsICc8aW5maWxlLm1hZT4nLCAnLW9tYWUnLCAnPG91dGZpbGUubWFlPic=

> <r_lp_tautomer_probability>
1

> <r_epik_Ionization_Penalty>
0.00552561

> <r_epik_Ionization_Penalty_Charging>
0

> <r_epik_Ionization_Penalty_Neutral>
0.00552561

> <r_epik_State_Penalty>
-0

> <r_epik_Charging_Adjusted_Penalty>
0

> <i_epik_Tot_Q>
0

> <i_epik_Tot_abs_Q>
0

> <r_epik_Metal_State_Penalty>
-0

> <b_epik_Metal_Only>
0

> <s_lp_Force_Field>
OPLS_2005

> <r_lp_Energy>
83.7492

> <b_lp_Chiralities_Consistent>
1

> <s_lp_Variant>
AV-unprocessed.smi:2520-1

> <Gold.Version>
5.8.1

> <Gold.Id.Protein>
6NUR|6NUR_protein|mol2

> <Gold.PLP.Fitness>
38.9406

> <Gold.PLP.PLP>
-32.3268

> <Gold.PLP.part.hbond>
-3.8032

> <Gold.PLP.part.metal>
0.0000

> <Gold.PLP.part.buried>
-2.1480

> <Gold.PLP.part.nonpolar>
-25.6097

> <Gold.PLP.part.repulsive>
0.2365

> <Gold.PLP.ligand.clash>
0.0000

> <Gold.PLP.ligand.torsion>
0.3217

> <Gold.PLP.Chemscore.Hbond>
2.3253

> <Gold.PLP.Chemscore.CHOScore>
0.0000

> <Gold.PLP.Chemscore.Metal>
0.0000

> <Gold.Chemscore.Hbonds>
donor molecule, donor type, donor heavy atom, donor atom, acceptor molecule, acceptor atom, score
      L1  H     3    22       P1  7948  0.60
      L1  H    10    26       P1  7948  1.00
      P1  H  8011  8017       L1    15  0.43

> <Gold.PLP.Chemscore.Internal.Correction>
0.2812

> <Gold.Rescore>
     Score         DG    S(hbond)    S(metal)    S(lipo)     H(rot)  DE(clash)    DE(int)     intcor
     15.22     -16.57       1.55        0.00      72.38       1.00       0.08       1.26       ----

> <Gold.Chemscore.Fitness>
15.2224

> <Gold.Chemscore.DG>
-16.5709

> <Gold.Chemscore.ZeroCoef>
-5.4800

> <Gold.Chemscore.Hbond>
1.5517

> <Gold.Chemscore.Metal>
0.0000

> <Gold.Chemscore.Lipo>
72.3789

> <Gold.Chemscore.Internal_Hbond>
0.0000

> <Gold.Chemscore.DEClash>
0.0840

> <Gold.Chemscore.DEInternal>
1.2646

> <Gold.Chemscore.Rot>
1.0000

> <Gold.Chemscore.Internal.Correction>
   9.000000E+99

> <Gold.Chemscore.Hbonds>
donor molecule, donor type, donor heavy atom, donor atom, acceptor molecule, acceptor atom, score
      L1  H     3    22       P1  7948  0.04
      L1  H    10    26       P1  7948  0.96
      P1  H  8011  8017       L1    15  0.06

> <Gold.Chemscore.Hbond.Weighted>
-5.1826

> <Gold.Chemscore.Metal.Weighted>
-0.0000

> <Gold.Chemscore.Lipo.Weighted>
-8.4683

> <Gold.Chemscore.Internal_Hbond.Weighted>
0.0000

> <Gold.Chemscore.DEClash.Weighted>
0.0840

> <Gold.Chemscore.DEInternal.Weighted>
1.2646

> <Gold.Chemscore.Rot.Weighted>
2.5600

> <Gold.Chemscore.Internal.Correction.Weighted>
   9.000000E+99

> <Gold.Protein.RotatedTorsions>
[ 6907 6896 6895 6894 ] final  107.85 input  -60.11 | X-H torsion
[ 7974 7965 7964 7962 ] final   25.91 input  175.53 | X-H torsion
[ 8008 7997 7996 7995 ] final  -47.33 input   59.86 | X-H torsion
[ 10167 10162 10161 10158 ] final  -28.43 input  -65.29 | X-H torsion
[ 10718 10713 10712 10709 ] final  -63.87 input   66.30 | X-H torsion
[ 10763 10752 10751 10750 ] final  -30.81 input  -60.55 | X-H torsion
[ 11005 11000 10999 10996 ] final  -52.11 input  -57.11 | X-H torsion

> <Gold.Protein.ActiveResidues>
 VAL166  LYS551  ARG553  GLY616  TRP617  ASP618  TYR619  PRO620  LYS621  CYS622 
 ASP623  PHE694  ASN695  SER759  ASP760  ASP761  ALA762  ILE779  LEU786  VAL792 
 PHE793  MET794  SER795  GLU796  ALA797  LYS798  CYS799  TRP800  GLU811  SER814 

> <Gold.Protein.RotatedAtoms>
  152.5137  133.9174  159.7517 H   0  0  0  0  0  0  0  0  0  0  0  0  # atno 6907 bound_to 6896
  150.9553  133.6496  159.2771 H   0  0  0  0  0  0  0  0  0  0  0  0  # atno 6908 bound_to 6896
  151.3760  135.0936  159.9533 H   0  0  0  0  0  0  0  0  0  0  0  0  # atno 6909 bound_to 6896
  146.1864  139.7400  142.8863 H   0  0  0  0  0  0  0  0  0  0  0  0  # atno 7974 bound_to 7965
  154.4015  140.1349  156.4157 H   0  0  0  0  0  0  0  0  0  0  0  0  # atno 8008 bound_to 7997
  155.7690  140.3484  155.5217 H   0  0  0  0  0  0  0  0  0  0  0  0  # atno 8009 bound_to 7997
  155.8785  140.0983  157.1492 H   0  0  0  0  0  0  0  0  0  0  0  0  # atno 8010 bound_to 7997
  140.7270  143.4011  151.1263 H   0  0  0  0  0  0  0  0  0  0  0  0  # atno 10167 bound_to 10162
  156.0764  130.4226  150.1339 H   0  0  0  0  0  0  0  0  0  0  0  0  # atno 10718 bound_to 10713
  153.7870  135.6900  153.4878 H   0  0  0  0  0  0  0  0  0  0  0  0  # atno 10763 bound_to 10752
  153.1774  135.4519  154.9981 H   0  0  0  0  0  0  0  0  0  0  0  0  # atno 10764 bound_to 10752
  154.8059  135.3357  154.7369 H   0  0  0  0  0  0  0  0  0  0  0  0  # atno 10765 bound_to 10752
  141.0907  133.6633  156.3976 H   0  0  0  0  0  0  0  0  0  0  0  0  # atno 11005 bound_to 11000
  145.3925  141.0374  143.3116 LP  0  0  0  0  0  0  0  0  0  0  0  0  # atno 17320 bound_to 7965
  144.8406  139.5479  143.6902 LP  0  0  0  0  0  0  0  0  0  0  0  0  # atno 17321 bound_to 7965
  139.7631  143.8606  152.3104 LP  0  0  0  0  0  0  0  0  0  0  0  0  # atno 17342 bound_to 10162
  139.8498  144.7170  150.9227 LP  0  0  0  0  0  0  0  0  0  0  0  0  # atno 17343 bound_to 10162
  156.9380  130.9735  151.3521 LP  0  0  0  0  0  0  0  0  0  0  0  0  # atno 17370 bound_to 10713
  157.5861  130.8410  149.8591 LP  0  0  0  0  0  0  0  0  0  0  0  0  # atno 17371 bound_to 10713
  140.5259  134.6260  157.5334 LP  0  0  0  0  0  0  0  0  0  0  0  0  # atno 17394 bound_to 11000
  139.9732  134.7258  156.0000 LP  0  0  0  0  0  0  0  0  0  0  0  0  # atno 17395 bound_to 11000

$$$$
