AV-unprocessed.smi:940|AV-procd|sdf|4219|dock7
  -GOLD-   22720 2133D 1   1.00000     0.00000
 Structure written by MMmdl.
 36 36  0  0  0  0  0  0  0  0  1 V2000
  149.3369  133.7315  154.3419 C   0  0  0  0  0  0  0  0  0  0  0  0
  149.2213  134.9820  155.2232 C   0  0  0  0  0  0  0  0  0  0  0  0
  149.8430  136.1406  154.5932 N   0  0  0  0  0  0  0  0  0  0  0  0
  150.9236  136.7861  155.0604 C   0  0  0  0  0  0  0  0  0  0  0  0
  151.5200  136.4571  156.0854 O   0  0  0  0  0  0  0  0  0  0  0  0
  151.4108  137.9845  154.2439 C   0  0  0  0  0  0  0  0  0  0  0  0
  150.6270  139.1720  154.5332 N   0  0  0  0  0  0  0  0  0  0  0  0
  149.3984  139.5339  154.0178 C   0  0  0  0  0  0  0  0  0  0  0  0
  149.0482  140.7251  154.5864 C   0  0  0  0  0  0  0  0  0  0  0  0
  150.1470  141.0097  155.4519 C   0  0  0  0  0  0  0  0  0  0  0  0
  150.2850  142.1535  156.2799 N   0  0  0  0  0  0  0  0  0  0  0  0
  151.0699  142.3161  157.3603 C   0  0  0  0  0  0  0  0  0  0  0  0
  151.8379  141.4637  157.8050 O   0  0  0  0  0  0  0  0  0  0  0  0
  150.9771  143.6752  158.0525 C   0  0  0  0  0  0  0  0  0  0  0  0
  150.5559  143.4744  159.3919 O   0  0  0  0  0  0  0  0  0  0  0  0
  150.5017  144.6788  160.1368 C   0  0  0  0  0  0  0  0  0  0  0  0
  151.8816  145.3401  160.1085 C   0  0  0  0  0  0  0  0  0  0  0  0
  151.0914  140.0855  155.4141 N   0  0  0  0  0  0  0  0  0  0  0  0
  148.8459  132.8798  154.8129 H   0  0  0  0  0  0  0  0  0  0  0  0
  150.3792  133.4597  154.1727 H   0  0  0  0  0  0  0  0  0  0  0  0
  148.8685  133.8893  153.3701 H   0  0  0  0  0  0  0  0  0  0  0  0
  148.1701  135.2126  155.3975 H   0  0  0  0  0  0  0  0  0  0  0  0
  149.6650  134.7990  156.2033 H   0  0  0  0  0  0  0  0  0  0  0  0
  149.4186  136.4789  153.7420 H   0  0  0  0  0  0  0  0  0  0  0  0
  152.4616  138.1842  154.4603 H   0  0  0  0  0  0  0  0  0  0  0  0
  151.3396  137.7637  153.1781 H   0  0  0  0  0  0  0  0  0  0  0  0
  148.8804  138.9192  153.2966 H   0  0  0  0  0  0  0  0  0  0  0  0
  148.1467  141.2888  154.3996 H   0  0  0  0  0  0  0  0  0  0  0  0
  149.7258  142.9501  156.0114 H   0  0  0  0  0  0  0  0  0  0  0  0
  151.9576  144.1532  158.0275 H   0  0  0  0  0  0  0  0  0  0  0  0
  150.2737  144.3258  157.5295 H   0  0  0  0  0  0  0  0  0  0  0  0
  149.7575  145.3520  159.7091 H   0  0  0  0  0  0  0  0  0  0  0  0
  150.2085  144.4723  161.1672 H   0  0  0  0  0  0  0  0  0  0  0  0
  151.8783  146.2730  160.6723 H   0  0  0  0  0  0  0  0  0  0  0  0
  152.1851  145.5675  159.0862 H   0  0  0  0  0  0  0  0  0  0  0  0
  152.6375  144.6872  160.5453 H   0  0  0  0  0  0  0  0  0  0  0  0
  1  2  1  0  0  0  0
  1 19  1  0  0  0  0
  1 20  1  0  0  0  0
  1 21  1  0  0  0  0
  2  3  1  0  0  0  0
  2 22  1  0  0  0  0
  2 23  1  0  0  0  0
  3  4  1  0  0  0  0
  3 24  1  0  0  0  0
  4  5  2  0  0  0  0
  4  6  1  0  0  0  0
  6  7  1  0  0  0  0
  6 25  1  0  0  0  0
  6 26  1  0  0  0  0
  7 18  1  0  0  0  0
  7  8  1  0  0  0  0
  8  9  2  0  0  0  0
  8 27  1  0  0  0  0
  9 10  1  0  0  0  0
  9 28  1  0  0  0  0
 10 11  1  0  0  0  0
 10 18  2  0  0  0  0
 11 12  1  0  0  0  0
 11 29  1  0  0  0  0
 12 13  2  0  0  0  0
 12 14  1  0  0  0  0
 14 15  1  0  0  0  0
 14 30  1  0  0  0  0
 14 31  1  0  0  0  0
 15 16  1  0  0  0  0
 16 17  1  0  0  0  0
 16 32  1  0  0  0  0
 16 33  1  0  0  0  0
 17 34  1  0  0  0  0
 17 35  1  0  0  0  0
 17 36  1  0  0  0  0
M  END
> <s_m_source_file>
AV-unprocessed.smi

> <i_m_source_file_index>
940

> <i_lp_mmshare_version>
43012

> <i_f3d_flags>
0

> <s_epik_input>
W0NIM11bQ0gyXVtOSF1DKD1PKVtDSDJdbjFbY0hdW2NIXWMobjEpW05IXUMoPU8pW0NIMl1PW0NIMl1bQ0gzXQ==

> <s_epik_cmdline>
J2VwaWtfcHl0aG9uJywgJy1waCcsICc3LjAnLCAnLXRuJywgJzgnLCAnLW1hJywgJzIwMCcsICctbWV0YWxfYmluZGluZycsICctaW1hZScsICc8aW5maWxlLm1hZT4nLCAnLW9tYWUnLCAnPG91dGZpbGUubWFlPic=

> <r_lp_tautomer_probability>
1

> <r_epik_Ionization_Penalty>
3.22351e-06

> <r_epik_Ionization_Penalty_Charging>
0

> <r_epik_Ionization_Penalty_Neutral>
3.22351e-06

> <r_epik_State_Penalty>
-0

> <r_epik_Charging_Adjusted_Penalty>
0

> <i_epik_Tot_Q>
0

> <i_epik_Tot_abs_Q>
0

> <r_epik_Metal_State_Penalty>
-0

> <b_epik_Metal_Only>
0

> <s_lp_Force_Field>
OPLS_2005

> <r_lp_Energy>
6.8138

> <b_lp_Chiralities_Consistent>
1

> <s_lp_Variant>
AV-unprocessed.smi:940-1

> <Gold.Version>
5.8.1

> <Gold.Id.Protein>
6NUR|6NUR_protein|mol2

> <Gold.PLP.Fitness>
45.3862

> <Gold.PLP.PLP>
-36.6880

> <Gold.PLP.part.hbond>
-4.4180

> <Gold.PLP.part.metal>
0.0000

> <Gold.PLP.part.buried>
-1.3428

> <Gold.PLP.part.nonpolar>
-29.6261

> <Gold.PLP.part.repulsive>
0.2814

> <Gold.PLP.ligand.clash>
0.0000

> <Gold.PLP.ligand.torsion>
0.7154

> <Gold.PLP.Chemscore.Hbond>
2.9440

> <Gold.PLP.Chemscore.CHOScore>
0.4148

> <Gold.PLP.Chemscore.Metal>
0.0000

> <Gold.Chemscore.Hbonds>
donor molecule, donor type, donor heavy atom, donor atom, acceptor molecule, acceptor atom, score
      L1  H     3    24       P1  7948  0.99
      L1  H    11    29       P1  8028  1.00
      P1  H 10752 10764       L1     5  0.52
      L1  C     8    27       P1  7957  0.41

> <Gold.PLP.Chemscore.Internal.Correction>
0.0526

> <Gold.Rescore>
     Score         DG    S(hbond)    S(metal)    S(lipo)     H(rot)  DE(clash)    DE(int)     intcor
     13.18     -15.41       2.50        0.00      64.51       2.34       0.18       2.05       ----

> <Gold.Chemscore.Fitness>
13.1781

> <Gold.Chemscore.DG>
-15.4055

> <Gold.Chemscore.ZeroCoef>
-5.4800

> <Gold.Chemscore.Hbond>
2.5033

> <Gold.Chemscore.Metal>
0.0000

> <Gold.Chemscore.Lipo>
64.5114

> <Gold.Chemscore.Internal_Hbond>
0.0000

> <Gold.Chemscore.DEClash>
0.1791

> <Gold.Chemscore.DEInternal>
2.0482

> <Gold.Chemscore.Rot>
2.3372

> <Gold.Chemscore.Internal.Correction>
   9.000000E+99

> <Gold.Chemscore.Hbonds>
donor molecule, donor type, donor heavy atom, donor atom, acceptor molecule, acceptor atom, score
      L1  H     3    24       P1  7948  0.79
      L1  H    11    29       P1  8028  0.97
      P1  H 10752 10764       L1     5  0.08

> <Gold.Chemscore.Hbond.Weighted>
-8.3609

> <Gold.Chemscore.Metal.Weighted>
-0.0000

> <Gold.Chemscore.Lipo.Weighted>
-7.5478

> <Gold.Chemscore.Internal_Hbond.Weighted>
0.0000

> <Gold.Chemscore.DEClash.Weighted>
0.1791

> <Gold.Chemscore.DEInternal.Weighted>
2.0482

> <Gold.Chemscore.Rot.Weighted>
5.9833

> <Gold.Chemscore.Internal.Correction.Weighted>
   9.000000E+99

> <Gold.Protein.RotatedTorsions>
[ 6907 6896 6895 6894 ] final   -5.92 input  -60.11 | X-H torsion
[ 7974 7965 7964 7962 ] final  148.85 input  175.53 | X-H torsion
[ 8008 7997 7996 7995 ] final    3.82 input   59.86 | X-H torsion
[ 10167 10162 10161 10158 ] final  137.63 input  -65.29 | X-H torsion
[ 10718 10713 10712 10709 ] final -136.13 input   66.30 | X-H torsion
[ 10763 10752 10751 10750 ] final  -25.77 input  -60.55 | X-H torsion
[ 11005 11000 10999 10996 ] final   18.79 input  -57.11 | X-H torsion

> <Gold.Protein.ActiveResidues>
 VAL166  LYS551  ARG553  GLY616  TRP617  ASP618  TYR619  PRO620  LYS621  CYS622 
 ASP623  PHE694  ASN695  SER759  ASP760  ASP761  ALA762  ILE779  LEU786  VAL792 
 PHE793  MET794  SER795  GLU796  ALA797  LYS798  CYS799  TRP800  GLU811  SER814 

> <Gold.Protein.RotatedAtoms>
  151.4738  135.1047  159.9758 H   0  0  0  0  0  0  0  0  0  0  0  0  # atno 6907 bound_to 6896
  152.4806  133.8241  159.7079 H   0  0  0  0  0  0  0  0  0  0  0  0  # atno 6908 bound_to 6896
  150.8875  133.7227  159.2941 H   0  0  0  0  0  0  0  0  0  0  0  0  # atno 6909 bound_to 6896
  144.8483  139.6205  143.5985 H   0  0  0  0  0  0  0  0  0  0  0  0  # atno 7974 bound_to 7965
  154.7084  140.2687  155.6653 H   0  0  0  0  0  0  0  0  0  0  0  0  # atno 8008 bound_to 7997
  156.2787  140.2758  156.1641 H   0  0  0  0  0  0  0  0  0  0  0  0  # atno 8009 bound_to 7997
  155.0669  140.0372  157.2585 H   0  0  0  0  0  0  0  0  0  0  0  0  # atno 8010 bound_to 7997
  139.5138  144.6399  151.5597 H   0  0  0  0  0  0  0  0  0  0  0  0  # atno 10167 bound_to 10162
  156.2737  130.7280  151.1256 H   0  0  0  0  0  0  0  0  0  0  0  0  # atno 10718 bound_to 10713
  153.7052  135.6954  153.5052 H   0  0  0  0  0  0  0  0  0  0  0  0  # atno 10763 bound_to 10752
  153.2313  135.4337  155.0597 H   0  0  0  0  0  0  0  0  0  0  0  0  # atno 10764 bound_to 10752
  154.8332  135.3485  154.6590 H   0  0  0  0  0  0  0  0  0  0  0  0  # atno 10765 bound_to 10752
  140.4209  134.1519  155.7673 H   0  0  0  0  0  0  0  0  0  0  0  0  # atno 11005 bound_to 11000
  146.2763  139.6761  142.9261 LP  0  0  0  0  0  0  0  0  0  0  0  0  # atno 17320 bound_to 7965
  145.4552  141.0430  143.2782 LP  0  0  0  0  0  0  0  0  0  0  0  0  # atno 17321 bound_to 7965
  140.6162  143.9344  150.6490 LP  0  0  0  0  0  0  0  0  0  0  0  0  # atno 17342 bound_to 10162
  140.2603  143.3529  152.1329 LP  0  0  0  0  0  0  0  0  0  0  0  0  # atno 17343 bound_to 10162
  157.7292  131.0626  150.5783 LP  0  0  0  0  0  0  0  0  0  0  0  0  # atno 17370 bound_to 10713
  156.5882  130.4322  149.5948 LP  0  0  0  0  0  0  0  0  0  0  0  0  # atno 17371 bound_to 10713
  141.1784  133.8465  157.1342 LP  0  0  0  0  0  0  0  0  0  0  0  0  # atno 17394 bound_to 11000
  140.0201  134.9950  157.0573 LP  0  0  0  0  0  0  0  0  0  0  0  0  # atno 17395 bound_to 11000

$$$$
