AV-unprocessed.smi:2845|AV-procd|sdf|10945|dock4
  -GOLD-   2272015393D 1   1.00000     0.00000
 Structure written by MMmdl.
 42 44  0  0  0  0  0  0  0  0  1 V2000
  152.8116  143.0731  161.3866 C   0  0  0  0  0  0  0  0  0  0  0  0
  152.2398  142.6762  160.0369 C   0  0  0  0  0  0  0  0  0  0  0  0
  152.7066  141.4978  159.4123 C   0  0  0  0  0  0  0  0  0  0  0  0
  152.2018  141.0950  158.1564 C   0  0  0  0  0  0  0  0  0  0  0  0
  152.5121  139.9958  157.3739 N   0  0  0  0  0  0  0  0  0  0  0  0
  151.7120  140.1778  156.3276 C   0  0  0  0  0  0  0  0  0  0  0  0
  150.9185  141.2659  156.3393 N   0  0  0  0  0  0  0  0  0  0  0  0
  149.9723  141.6667  155.3132 C   0  0  0  0  0  0  0  0  0  0  0  0
  149.2371  140.4662  154.6879 C   0  0  2  0  0  0  0  0  0  0  0  0
  150.1098  139.7746  153.8136 O   0  0  0  0  0  0  0  0  0  0  0  0
  147.9711  140.9009  153.9256 C   0  0  0  0  0  0  0  0  0  0  0  0
  147.1882  139.7698  153.4616 N   0  0  0  0  0  0  0  0  0  0  0  0
  147.0576  139.2510  152.2371 C   0  0  0  0  0  0  0  0  0  0  0  0
  146.2381  138.2095  152.1771 N   0  0  0  0  0  0  0  0  0  0  0  0
  145.8837  138.1421  153.4930 C   0  0  0  0  0  0  0  0  0  0  0  0
  144.7195  136.8800  154.0976 S   0  0  2  0  0  0  0  0  0  0  0  0
  143.6870  136.8298  152.5573 C   0  0  0  0  0  0  0  0  0  0  0  0
  143.8793  137.5638  155.1782 O   0  0  0  0  0  0  0  0  0  0  0  0
  146.4180  139.0480  154.3098 N   0  0  0  0  0  0  0  0  0  0  0  0
  151.2085  141.9094  157.5379 C   0  0  0  0  0  0  0  0  0  0  0  0
  150.7365  143.0842  158.1493 C   0  0  0  0  0  0  0  0  0  0  0  0
  151.2517  143.4723  159.4038 C   0  0  0  0  0  0  0  0  0  0  0  0
  150.7365  144.7438  160.0550 C   0  0  0  0  0  0  0  0  0  0  0  0
  153.5566  142.3550  161.7304 H   0  0  0  0  0  0  0  0  0  0  0  0
  152.0224  143.1211  162.1371 H   0  0  0  0  0  0  0  0  0  0  0  0
  153.2923  144.0497  161.3253 H   0  0  0  0  0  0  0  0  0  0  0  0
  153.4600  140.8916  159.8936 H   0  0  0  0  0  0  0  0  0  0  0  0
  151.7020  139.4803  155.5028 H   0  0  0  0  0  0  0  0  0  0  0  0
  149.2545  142.3537  155.7635 H   0  0  0  0  0  0  0  0  0  0  0  0
  150.5041  142.2322  154.5469 H   0  0  0  0  0  0  0  0  0  0  0  0
  148.9501  139.7762  155.4827 H   0  0  0  0  0  0  0  0  0  0  0  0
  149.7089  139.7334  152.9585 H   0  0  0  0  0  0  0  0  0  0  0  0
  147.3344  141.5061  154.5721 H   0  0  0  0  0  0  0  0  0  0  0  0
  148.2326  141.5274  153.0711 H   0  0  0  0  0  0  0  0  0  0  0  0
  147.5689  139.6468  151.3718 H   0  0  0  0  0  0  0  0  0  0  0  0
  144.2769  137.0974  151.6803 H   0  0  0  0  0  0  0  0  0  0  0  0
  142.8528  137.5268  152.6400 H   0  0  0  0  0  0  0  0  0  0  0  0
  143.2866  135.8271  152.4085 H   0  0  0  0  0  0  0  0  0  0  0  0
  149.9867  143.6833  157.6540 H   0  0  0  0  0  0  0  0  0  0  0  0
  149.9709  145.2218  159.4433 H   0  0  0  0  0  0  0  0  0  0  0  0
  151.5487  145.4578  160.1932 H   0  0  0  0  0  0  0  0  0  0  0  0
  150.2974  144.5246  161.0285 H   0  0  0  0  0  0  0  0  0  0  0  0
  1  2  1  0  0  0  0
  1 24  1  0  0  0  0
  1 25  1  0  0  0  0
  1 26  1  0  0  0  0
  2 22  1  0  0  0  0
  2  3  2  0  0  0  0
  3  4  1  0  0  0  0
  3 27  1  0  0  0  0
  4 20  2  0  0  0  0
  4  5  1  0  0  0  0
  5  6  2  0  0  0  0
  6  7  1  0  0  0  0
  6 28  1  0  0  0  0
  7  8  1  0  0  0  0
  7 20  1  0  0  0  0
  8  9  1  0  0  0  0
  8 29  1  0  0  0  0
  8 30  1  0  0  0  0
  9 10  1  0  0  0  0
  9 11  1  0  0  0  0
  9 31  1  0  0  0  0
 10 32  1  0  0  0  0
 11 12  1  0  0  0  0
 11 33  1  0  0  0  0
 11 34  1  0  0  0  0
 12 19  1  0  0  0  0
 12 13  1  0  0  0  0
 13 14  2  0  0  0  0
 13 35  1  0  0  0  0
 14 15  1  0  0  0  0
 15 16  1  0  0  0  0
 15 19  2  0  0  0  0
 16 17  1  0  0  0  0
 16 18  2  0  0  0  0
 17 36  1  0  0  0  0
 17 37  1  0  0  0  0
 17 38  1  0  0  0  0
 20 21  1  0  0  0  0
 21 22  2  0  0  0  0
 21 39  1  0  0  0  0
 22 23  1  0  0  0  0
 23 40  1  0  0  0  0
 23 41  1  0  0  0  0
 23 42  1  0  0  0  0
M  END
> <s_m_source_file>
AV-unprocessed.smi

> <i_m_source_file_index>
2845

> <i_lp_mmshare_version>
43012

> <i_f3d_flags>
0

> <s_epik_input>
W0NIM11jKFtjSF0xKWMoW0NIM10pW2NIXWMoYzEyKW4oW2NIXW4yKVtDSDJdW0NASF0oW09IXSlbQ0gyXW4zW2NIXW5jKG4zKVtTQF0oPU8pW0NIM10=

> <s_epik_cmdline>
J2VwaWtfcHl0aG9uJywgJy1waCcsICc3LjAnLCAnLXRuJywgJzgnLCAnLW1hJywgJzIwMCcsICctbWV0YWxfYmluZGluZycsICctaW1hZScsICc8aW5maWxlLm1hZT4nLCAnLW9tYWUnLCAnPG91dGZpbGUubWFlPic=

> <r_lp_tautomer_probability>
1

> <r_epik_Ionization_Penalty>
0.0968684

> <r_epik_Ionization_Penalty_Charging>
0

> <r_epik_Ionization_Penalty_Neutral>
0.0968684

> <r_epik_State_Penalty>
0.0870047

> <r_epik_Charging_Adjusted_Penalty>
0.0870047

> <i_epik_Tot_Q>
0

> <i_epik_Tot_abs_Q>
0

> <r_epik_Metal_State_Penalty>
0.0746849

> <b_epik_Metal_Only>
0

> <s_lp_Force_Field>
OPLS_2005

> <r_lp_Energy>
9.81721

> <b_lp_Chiralities_Consistent>
1

> <s_lp_Variant>
AV-unprocessed.smi:2845-3

> <Gold.Version>
5.8.1

> <Gold.Id.Protein>
6NUR|6NUR_protein|mol2

> <Gold.PLP.Fitness>
55.6505

> <Gold.PLP.PLP>
-45.1888

> <Gold.PLP.part.hbond>
-3.0000

> <Gold.PLP.part.metal>
0.0000

> <Gold.PLP.part.buried>
-3.3970

> <Gold.PLP.part.nonpolar>
-38.9643

> <Gold.PLP.part.repulsive>
0.4868

> <Gold.PLP.ligand.clash>
0.0000

> <Gold.PLP.ligand.torsion>
1.1485

> <Gold.PLP.Chemscore.Hbond>
2.9120

> <Gold.PLP.Chemscore.CHOScore>
0.9928

> <Gold.PLP.Chemscore.Metal>
0.0000

> <Gold.Chemscore.Hbonds>
donor molecule, donor type, donor heavy atom, donor atom, acceptor molecule, acceptor atom, score
      L1  H    10    32       P1  7957  1.00
      P1  H  7989  7998       L1    10  0.91
      P1  H  7997  8009       L1     5  1.00
      L1  C    13    35       P1  7957  0.99

> <Gold.PLP.Chemscore.Internal.Correction>
1.0443

> <Gold.Rescore>
     Score         DG    S(hbond)    S(metal)    S(lipo)     H(rot)  DE(clash)    DE(int)     intcor
     15.01     -17.74       2.24        0.00     100.14       2.71       0.67       2.06       ----

> <Gold.Chemscore.Fitness>
15.0124

> <Gold.Chemscore.DG>
-17.7393

> <Gold.Chemscore.ZeroCoef>
-5.4800

> <Gold.Chemscore.Hbond>
2.2401

> <Gold.Chemscore.Metal>
0.0000

> <Gold.Chemscore.Lipo>
100.1445

> <Gold.Chemscore.Internal_Hbond>
0.0000

> <Gold.Chemscore.DEClash>
0.6656

> <Gold.Chemscore.DEInternal>
2.0614

> <Gold.Chemscore.Rot>
2.7108

> <Gold.Chemscore.Internal.Correction>
   9.000000E+99

> <Gold.Chemscore.Hbonds>
donor molecule, donor type, donor heavy atom, donor atom, acceptor molecule, acceptor atom, score
      L1  H    10    32       P1  7957  0.98
      P1  H  7989  7998       L1    10  0.18
      P1  H  7997  8009       L1     5  0.54

> <Gold.Chemscore.Hbond.Weighted>
-7.4821

> <Gold.Chemscore.Metal.Weighted>
-0.0000

> <Gold.Chemscore.Lipo.Weighted>
-11.7169

> <Gold.Chemscore.Internal_Hbond.Weighted>
0.0000

> <Gold.Chemscore.DEClash.Weighted>
0.6656

> <Gold.Chemscore.DEInternal.Weighted>
2.0614

> <Gold.Chemscore.Rot.Weighted>
6.9396

> <Gold.Chemscore.Internal.Correction.Weighted>
   9.000000E+99

> <Gold.Protein.RotatedTorsions>
[ 6907 6896 6895 6894 ] final  -14.38 input  -60.11 | X-H torsion
[ 7974 7965 7964 7962 ] final   -9.83 input  175.53 | X-H torsion
[ 8008 7997 7996 7995 ] final  168.20 input   59.86 | X-H torsion
[ 10167 10162 10161 10158 ] final -146.74 input  -65.29 | X-H torsion
[ 10718 10713 10712 10709 ] final  -67.20 input   66.30 | X-H torsion
[ 10763 10752 10751 10750 ] final -164.59 input  -60.55 | X-H torsion
[ 11005 11000 10999 10996 ] final -127.13 input  -57.11 | X-H torsion

> <Gold.Protein.ActiveResidues>
 VAL166  LYS551  ARG553  GLY616  TRP617  ASP618  TYR619  PRO620  LYS621  CYS622 
 ASP623  PHE694  ASN695  SER759  ASP760  ASP761  ALA762  ILE779  LEU786  VAL792 
 PHE793  MET794  SER795  GLU796  ALA797  LYS798  CYS799  TRP800  GLU811  SER814 

> <Gold.Protein.RotatedAtoms>
  151.3403  135.0862  159.9368 H   0  0  0  0  0  0  0  0  0  0  0  0  # atno 6907 bound_to 6896
  152.5213  133.9454  159.7656 H   0  0  0  0  0  0  0  0  0  0  0  0  # atno 6908 bound_to 6896
  150.9809  133.6193  159.2752 H   0  0  0  0  0  0  0  0  0  0  0  0  # atno 6909 bound_to 6896
  146.2240  140.2674  142.8355 H   0  0  0  0  0  0  0  0  0  0  0  0  # atno 7974 bound_to 7965
  156.1568  140.1597  156.8679 H   0  0  0  0  0  0  0  0  0  0  0  0  # atno 8008 bound_to 7997
  154.5122  140.0798  156.8048 H   0  0  0  0  0  0  0  0  0  0  0  0  # atno 8009 bound_to 7997
  155.3788  140.3404  155.4248 H   0  0  0  0  0  0  0  0  0  0  0  0  # atno 8010 bound_to 7997
  139.7685  143.8272  152.2620 H   0  0  0  0  0  0  0  0  0  0  0  0  # atno 10167 bound_to 10162
  156.0570  130.4274  150.1820 H   0  0  0  0  0  0  0  0  0  0  0  0  # atno 10718 bound_to 10713
  154.7013  135.2988  154.9336 H   0  0  0  0  0  0  0  0  0  0  0  0  # atno 10763 bound_to 10752
  154.0267  135.6675  153.4781 H   0  0  0  0  0  0  0  0  0  0  0  0  # atno 10764 bound_to 10752
  153.0684  135.5075  154.8159 H   0  0  0  0  0  0  0  0  0  0  0  0  # atno 10765 bound_to 10752
  140.9625  134.0917  157.3954 H   0  0  0  0  0  0  0  0  0  0  0  0  # atno 11005 bound_to 11000
  144.9294  140.7958  143.5699 LP  0  0  0  0  0  0  0  0  0  0  0  0  # atno 17320 bound_to 7965
  145.2616  139.1990  143.4889 LP  0  0  0  0  0  0  0  0  0  0  0  0  # atno 17321 bound_to 7965
  139.8299  144.7258  150.9463 LP  0  0  0  0  0  0  0  0  0  0  0  0  # atno 17342 bound_to 10162
  140.7812  143.4079  151.1040 LP  0  0  0  0  0  0  0  0  0  0  0  0  # atno 17343 bound_to 10162
  156.9895  130.9889  151.3418 LP  0  0  0  0  0  0  0  0  0  0  0  0  # atno 17370 bound_to 10713
  157.5548  130.8206  149.8191 LP  0  0  0  0  0  0  0  0  0  0  0  0  # atno 17371 bound_to 10713
  139.8883  135.0096  156.6611 LP  0  0  0  0  0  0  0  0  0  0  0  0  # atno 17394 bound_to 11000
  140.7447  133.8948  155.8303 LP  0  0  0  0  0  0  0  0  0  0  0  0  # atno 17395 bound_to 11000

$$$$
