AV-unprocessed.smi:2074|AV-procd|sdf|8455|dock10
  -GOLD-   2272011153D 1   1.00000     0.00000
 Structure written by MMmdl.
 44 45  0  0  0  0  0  0  0  0  2 V2000
  152.0375  138.4524  154.5790 C   0  0  0  0  0  0  0  0  0  0  0  0
  151.8119  139.5347  155.5955 C   0  0  0  0  0  0  0  0  0  0  0  0
  152.6494  139.6591  156.6111 N   0  0  0  0  0  0  0  0  0  0  0  0
  152.1800  140.7387  157.3652 O   0  0  0  0  0  0  0  0  0  0  0  0
  151.0667  141.2305  156.7643 C   0  0  0  0  0  0  0  0  0  0  0  0
  150.4127  142.3980  157.4228 C   0  0  0  0  0  0  0  0  0  0  0  0
  150.7775  140.5139  155.6353 C   0  0  0  0  0  0  0  0  0  0  0  0
  149.6414  140.7087  154.6641 C   0  0  0  0  0  0  0  0  0  0  0  0
  148.4890  139.7725  155.0269 C   0  0  0  0  0  0  0  0  0  0  0  0
  148.0079  139.8000  156.1593 O   0  0  0  0  0  0  0  0  0  0  0  0
  148.0573  138.9495  154.0577 N   0  0  0  0  0  0  0  0  0  0  0  0
  146.9405  138.0143  154.1738 C   0  0  0  0  0  0  0  0  0  0  0  0
  146.2185  137.7419  152.8235 C   0  0  1  0  0  0  0  0  0  0  0  0
  146.7408  138.6971  151.7224 C   0  0  0  0  0  0  0  0  0  0  0  0
  146.3277  136.3068  152.3920 N   0  3  0  0  0  0  0  0  0  0  0  0
  146.0873  135.3161  153.4799 C   0  0  0  0  0  0  0  0  0  0  0  0
  146.2133  133.8702  152.9703 C   0  0  0  0  0  0  0  0  0  0  0  0
  145.3178  133.6598  151.8909 O   0  0  0  0  0  0  0  0  0  0  0  0
  145.6276  134.5073  150.7966 C   0  0  0  0  0  0  0  0  0  0  0  0
  145.4679  135.9768  151.2200 C   0  0  0  0  0  0  0  0  0  0  0  0
  151.0999  137.9666  154.3090 H   0  0  0  0  0  0  0  0  0  0  0  0
  152.7106  137.6804  154.9545 H   0  0  0  0  0  0  0  0  0  0  0  0
  152.4747  138.8603  153.6677 H   0  0  0  0  0  0  0  0  0  0  0  0
  149.9192  143.0342  156.6879 H   0  0  0  0  0  0  0  0  0  0  0  0
  151.1439  143.0066  157.9550 H   0  0  0  0  0  0  0  0  0  0  0  0
  149.6622  142.0651  158.1398 H   0  0  0  0  0  0  0  0  0  0  0  0
  149.2837  141.7390  154.6646 H   0  0  0  0  0  0  0  0  0  0  0  0
  149.9569  140.5014  153.6409 H   0  0  0  0  0  0  0  0  0  0  0  0
  148.5188  138.9983  153.1608 H   0  0  0  0  0  0  0  0  0  0  0  0
  147.2591  137.0747  154.6284 H   0  0  0  0  0  0  0  0  0  0  0  0
  146.2648  138.4880  154.8845 H   0  0  0  0  0  0  0  0  0  0  0  0
  145.1593  137.9563  152.9752 H   0  0  0  0  0  0  0  0  0  0  0  0
  146.6870  139.7411  152.0280 H   0  0  0  0  0  0  0  0  0  0  0  0
  146.1556  138.6452  150.8064 H   0  0  0  0  0  0  0  0  0  0  0  0
  147.7804  138.4820  151.4735 H   0  0  0  0  0  0  0  0  0  0  0  0
  146.8152  135.4309  154.2812 H   0  0  0  0  0  0  0  0  0  0  0  0
  145.0971  135.4771  153.9089 H   0  0  0  0  0  0  0  0  0  0  0  0
  147.2370  133.6534  152.6604 H   0  0  0  0  0  0  0  0  0  0  0  0
  145.9700  133.1698  153.7695 H   0  0  0  0  0  0  0  0  0  0  0  0
  146.6396  134.3107  150.4382 H   0  0  0  0  0  0  0  0  0  0  0  0
  144.9503  134.2794  149.9731 H   0  0  0  0  0  0  0  0  0  0  0  0
  144.4242  136.1817  151.4631 H   0  0  0  0  0  0  0  0  0  0  0  0
  145.7228  136.5888  150.3575 H   0  0  0  0  0  0  0  0  0  0  0  0
  147.2838  136.1703  152.0958 H   0  0  0  0  0  0  0  0  0  0  0  0
  1  2  1  0  0  0  0
  1 21  1  0  0  0  0
  1 22  1  0  0  0  0
  1 23  1  0  0  0  0
  2  7  1  0  0  0  0
  2  3  2  0  0  0  0
  3  4  1  0  0  0  0
  4  5  1  0  0  0  0
  5  6  1  0  0  0  0
  5  7  2  0  0  0  0
  6 24  1  0  0  0  0
  6 25  1  0  0  0  0
  6 26  1  0  0  0  0
  7  8  1  0  0  0  0
  8  9  1  0  0  0  0
  8 27  1  0  0  0  0
  8 28  1  0  0  0  0
  9 10  2  0  0  0  0
  9 11  1  0  0  0  0
 11 12  1  0  0  0  0
 11 29  1  0  0  0  0
 12 13  1  0  0  0  0
 12 30  1  0  0  0  0
 12 31  1  0  0  0  0
 13 14  1  0  0  0  0
 13 15  1  0  0  0  0
 13 32  1  0  0  0  0
 14 33  1  0  0  0  0
 14 34  1  0  0  0  0
 14 35  1  0  0  0  0
 15 20  1  0  0  0  0
 15 16  1  0  0  0  0
 15 44  1  0  0  0  0
 16 17  1  0  0  0  0
 16 36  1  0  0  0  0
 16 37  1  0  0  0  0
 17 18  1  0  0  0  0
 17 38  1  0  0  0  0
 17 39  1  0  0  0  0
 18 19  1  0  0  0  0
 19 20  1  0  0  0  0
 19 40  1  0  0  0  0
 19 41  1  0  0  0  0
 20 42  1  0  0  0  0
 20 43  1  0  0  0  0
M  CHG  1  15   1
M  END
> <s_m_source_file>
AV-unprocessed.smi

> <i_m_source_file_index>
2074

> <i_lp_mmshare_version>
43012

> <i_f3d_flags>
0

> <s_epik_input>
W0NIM11jMW5vYyhbQ0gzXSljMVtDSDJdQyg9TylbTkhdW0NIMl1bQ0BIXShbQ0gzXSlOMltDSDJdW0NIMl1PW0NIMl1bQ0gyXTI=

> <s_epik_cmdline>
J2VwaWtfcHl0aG9uJywgJy1waCcsICc3LjAnLCAnLXRuJywgJzgnLCAnLW1hJywgJzIwMCcsICctbWV0YWxfYmluZGluZycsICctaW1hZScsICc8aW5maWxlLm1hZT4nLCAnLW9tYWUnLCAnPG91dGZpbGUubWFlPic=

> <r_epik_Ionization_Penalty>
0.663207

> <r_epik_Ionization_Penalty_Charging>
0.663207

> <r_epik_Ionization_Penalty_Neutral>
1.0751e-07

> <r_epik_State_Penalty>
0.682743

> <r_epik_Charging_Adjusted_Penalty>
1.34595

> <i_epik_Tot_Q>
1

> <i_epik_Tot_abs_Q>
1

> <r_epik_Metal_State_Penalty>
0.682743

> <b_epik_Metal_Only>
0

> <s_lp_Force_Field>
OPLS_2005

> <r_lp_Energy>
15.6967

> <b_lp_Chiralities_Consistent>
1

> <s_lp_Variant>
AV-unprocessed.smi:2074-4

> <Gold.Version>
5.8.1

> <Gold.Id.Protein>
6NUR|6NUR_protein|mol2

> <Gold.PLP.Fitness>
37.1423

> <Gold.PLP.PLP>
-32.9326

> <Gold.PLP.part.hbond>
-2.3543

> <Gold.PLP.part.metal>
0.0000

> <Gold.PLP.part.buried>
-1.7391

> <Gold.PLP.part.nonpolar>
-29.3560

> <Gold.PLP.part.repulsive>
0.1203

> <Gold.PLP.ligand.clash>
2.0646

> <Gold.PLP.ligand.torsion>
1.3958

> <Gold.PLP.Chemscore.Hbond>
3.0000

> <Gold.PLP.Chemscore.CHOScore>
0.0000

> <Gold.PLP.Chemscore.Metal>
0.0000

> <Gold.Chemscore.Hbonds>
donor molecule, donor type, donor heavy atom, donor atom, acceptor molecule, acceptor atom, score
      L1  H    15    44       P1  7948  2.00
      P1  H  7997  8009       L1     3  1.00

> <Gold.PLP.Chemscore.Internal.Correction>
0.0657

> <Gold.Rescore>
     Score         DG    S(hbond)    S(metal)    S(lipo)     H(rot)  DE(clash)    DE(int)     intcor
     15.23     -16.88       1.98        0.00      80.31       1.80       0.25       1.40       ----

> <Gold.Chemscore.Fitness>
15.2265

> <Gold.Chemscore.DG>
-16.8777

> <Gold.Chemscore.ZeroCoef>
-5.4800

> <Gold.Chemscore.Hbond>
1.9759

> <Gold.Chemscore.Metal>
0.0000

> <Gold.Chemscore.Lipo>
80.3088

> <Gold.Chemscore.Internal_Hbond>
0.0000

> <Gold.Chemscore.DEClash>
0.2529

> <Gold.Chemscore.DEInternal>
1.3983

> <Gold.Chemscore.Rot>
1.7961

> <Gold.Chemscore.Internal.Correction>
   9.000000E+99

> <Gold.Chemscore.Hbonds>
donor molecule, donor type, donor heavy atom, donor atom, acceptor molecule, acceptor atom, score
      L1  H    11    29       P1  7957  0.02
      L1  H    15    44       P1  7948  1.00
      P1  H  7997  8009       L1     3  0.25

> <Gold.Chemscore.Hbond.Weighted>
-6.5996

> <Gold.Chemscore.Metal.Weighted>
-0.0000

> <Gold.Chemscore.Lipo.Weighted>
-9.3961

> <Gold.Chemscore.Internal_Hbond.Weighted>
0.0000

> <Gold.Chemscore.DEClash.Weighted>
0.2529

> <Gold.Chemscore.DEInternal.Weighted>
1.3983

> <Gold.Chemscore.Rot.Weighted>
4.5980

> <Gold.Chemscore.Internal.Correction.Weighted>
   9.000000E+99

> <Gold.Protein.RotatedTorsions>
[ 6907 6896 6895 6894 ] final  -53.26 input  -60.11 | X-H torsion
[ 7974 7965 7964 7962 ] final   50.19 input  175.53 | X-H torsion
[ 8008 7997 7996 7995 ] final -168.49 input   59.86 | X-H torsion
[ 10167 10162 10161 10158 ] final  104.78 input  -65.29 | X-H torsion
[ 10718 10713 10712 10709 ] final  169.18 input   66.30 | X-H torsion
[ 10763 10752 10751 10750 ] final  104.66 input  -60.55 | X-H torsion
[ 11005 11000 10999 10996 ] final -156.23 input  -57.11 | X-H torsion

> <Gold.Protein.ActiveResidues>
 VAL166  LYS551  ARG553  GLY616  TRP617  ASP618  TYR619  PRO620  LYS621  CYS622 
 ASP623  PHE694  ASN695  SER759  ASP760  ASP761  ALA762  ILE779  LEU786  VAL792 
 PHE793  MET794  SER795  GLU796  ALA797  LYS798  CYS799  TRP800  GLU811  SER814 

> <Gold.Protein.RotatedAtoms>
  150.8443  134.7746  159.6957 H   0  0  0  0  0  0  0  0  0  0  0  0  # atno 6907 bound_to 6896
  152.4523  134.5363  159.9835 H   0  0  0  0  0  0  0  0  0  0  0  0  # atno 6908 bound_to 6896
  151.5496  133.3381  159.2986 H   0  0  0  0  0  0  0  0  0  0  0  0  # atno 6909 bound_to 6896
  146.0036  139.4466  143.0000 H   0  0  0  0  0  0  0  0  0  0  0  0  # atno 7974 bound_to 7965
  155.8921  140.1026  157.1411 H   0  0  0  0  0  0  0  0  0  0  0  0  # atno 8008 bound_to 7997
  154.4016  140.1309  156.4392 H   0  0  0  0  0  0  0  0  0  0  0  0  # atno 8009 bound_to 7997
  155.7522  140.3465  155.5158 H   0  0  0  0  0  0  0  0  0  0  0  0  # atno 8010 bound_to 7997
  139.7148  144.7070  151.0968 H   0  0  0  0  0  0  0  0  0  0  0  0  # atno 10167 bound_to 10162
  157.0263  131.0246  151.2758 H   0  0  0  0  0  0  0  0  0  0  0  0  # atno 10718 bound_to 10713
  153.3689  135.3935  155.1774 H   0  0  0  0  0  0  0  0  0  0  0  0  # atno 10763 bound_to 10752
  154.8691  135.3698  154.5003 H   0  0  0  0  0  0  0  0  0  0  0  0  # atno 10764 bound_to 10752
  153.5469  135.7083  153.5670 H   0  0  0  0  0  0  0  0  0  0  0  0  # atno 10765 bound_to 10752
  140.6778  134.4177  157.5228 H   0  0  0  0  0  0  0  0  0  0  0  0  # atno 11005 bound_to 11000
  145.7450  140.9994  143.1281 LP  0  0  0  0  0  0  0  0  0  0  0  0  # atno 17320 bound_to 7965
  144.6928  139.9145  143.7465 LP  0  0  0  0  0  0  0  0  0  0  0  0  # atno 17321 bound_to 7965
  140.7741  143.5244  150.9497 LP  0  0  0  0  0  0  0  0  0  0  0  0  # atno 17342 bound_to 10162
  139.8930  143.6929  152.3142 LP  0  0  0  0  0  0  0  0  0  0  0  0  # atno 17343 bound_to 10162
  157.5211  130.7999  149.7810 LP  0  0  0  0  0  0  0  0  0  0  0  0  # atno 17370 bound_to 10713
  156.0085  130.3844  150.2348 LP  0  0  0  0  0  0  0  0  0  0  0  0  # atno 17371 bound_to 10713
  139.8961  134.8667  156.2102 LP  0  0  0  0  0  0  0  0  0  0  0  0  # atno 17394 bound_to 11000
  141.0341  133.6972  156.1482 LP  0  0  0  0  0  0  0  0  0  0  0  0  # atno 17395 bound_to 11000

$$$$
