AV-unprocessed.smi:313|AV-procd|sdf|2309|dock9
  -GOLD-   2262022213D 1   1.00000     0.00000
 Structure written by MMmdl.
 50 51  0  0  0  0  0  0  0  0  1 V2000
  150.5489  145.2286  160.2655 C   0  0  0  0  0  0  0  0  0  0  0  0
  151.9946  144.7595  160.0446 C   0  0  0  0  0  0  0  0  0  0  0  0
  152.1236  143.2434  159.8056 C   0  0  2  0  0  0  0  0  0  0  0  0
  153.5776  142.8375  159.5174 C   0  0  0  0  0  0  0  0  0  0  0  0
  151.2613  142.8328  158.7001 N   0  0  0  0  0  0  0  0  0  0  0  0
  151.3063  141.6471  158.0736 C   0  0  0  0  0  0  0  0  0  0  0  0
  152.0997  140.7531  158.3733 O   0  0  0  0  0  0  0  0  0  0  0  0
  150.2804  141.4407  156.9475 C   0  0  2  0  0  0  0  0  0  0  0  0
  148.8950  141.8302  157.4886 C   0  0  0  0  0  0  0  0  0  0  0  0
  150.2285  140.0369  156.5420 N   0  0  0  0  0  0  0  0  0  0  0  0
  150.4449  139.5802  155.2969 C   0  0  0  0  0  0  0  0  0  0  0  0
  150.7312  140.3083  154.3461 O   0  0  0  0  0  0  0  0  0  0  0  0
  150.3807  138.0893  155.1329 C   0  0  0  0  0  0  0  0  0  0  0  0
  149.3523  137.3205  155.7201 C   0  0  0  0  0  0  0  0  0  0  0  0
  149.3296  135.9289  155.5074 C   0  0  0  0  0  0  0  0  0  0  0  0
  150.3316  135.3354  154.7039 C   0  0  0  0  0  0  0  0  0  0  0  0
  150.3244  133.9425  154.4732 N   0  0  0  0  0  0  0  0  0  0  0  0
  149.9998  133.5312  153.1094 C   0  0  0  0  0  0  0  0  0  0  0  0
  149.7287  132.0178  153.0550 C   0  0  0  0  0  0  0  0  0  0  0  0
  150.8383  131.3093  153.5968 O   0  0  0  0  0  0  0  0  0  0  0  0
  151.0638  131.6435  154.9620 C   0  0  0  0  0  0  0  0  0  0  0  0
  151.3862  133.1425  155.0810 C   0  0  0  0  0  0  0  0  0  0  0  0
  151.3169  136.0762  154.1394 N   0  0  0  0  0  0  0  0  0  0  0  0
  151.3335  137.4105  154.3437 C   0  0  0  0  0  0  0  0  0  0  0  0
  150.5177  146.2974  160.4773 H   0  0  0  0  0  0  0  0  0  0  0  0
  150.0925  144.7099  161.1090 H   0  0  0  0  0  0  0  0  0  0  0  0
  149.9290  145.0496  159.3866 H   0  0  0  0  0  0  0  0  0  0  0  0
  152.4256  145.3050  159.2041 H   0  0  0  0  0  0  0  0  0  0  0  0
  152.5860  145.0349  160.9187 H   0  0  0  0  0  0  0  0  0  0  0  0
  151.8033  142.7350  160.7170 H   0  0  0  0  0  0  0  0  0  0  0  0
  154.2344  143.1208  160.3402 H   0  0  0  0  0  0  0  0  0  0  0  0
  153.9522  143.3174  158.6127 H   0  0  0  0  0  0  0  0  0  0  0  0
  153.6683  141.7590  159.3840 H   0  0  0  0  0  0  0  0  0  0  0  0
  150.5741  143.5038  158.3887 H   0  0  0  0  0  0  0  0  0  0  0  0
  150.5285  142.0679  156.0889 H   0  0  0  0  0  0  0  0  0  0  0  0
  148.8708  142.8754  157.8003 H   0  0  0  0  0  0  0  0  0  0  0  0
  148.6066  141.2202  158.3462 H   0  0  0  0  0  0  0  0  0  0  0  0
  148.1293  141.7034  156.7226 H   0  0  0  0  0  0  0  0  0  0  0  0
  150.0333  139.3624  157.2672 H   0  0  0  0  0  0  0  0  0  0  0  0
  148.5847  137.7797  156.3259 H   0  0  0  0  0  0  0  0  0  0  0  0
  148.5544  135.3359  155.9691 H   0  0  0  0  0  0  0  0  0  0  0  0
  149.1292  134.0596  152.7240 H   0  0  0  0  0  0  0  0  0  0  0  0
  150.8376  133.7834  152.4581 H   0  0  0  0  0  0  0  0  0  0  0  0
  148.8194  131.7659  153.6031 H   0  0  0  0  0  0  0  0  0  0  0  0
  149.5758  131.7015  152.0233 H   0  0  0  0  0  0  0  0  0  0  0  0
  150.1890  131.3847  155.5607 H   0  0  0  0  0  0  0  0  0  0  0  0
  151.8956  131.0495  155.3403 H   0  0  0  0  0  0  0  0  0  0  0  0
  152.3325  133.3605  154.5840 H   0  0  0  0  0  0  0  0  0  0  0  0
  151.5014  133.4046  156.1335 H   0  0  0  0  0  0  0  0  0  0  0  0
  152.1383  137.9464  153.8620 H   0  0  0  0  0  0  0  0  0  0  0  0
  1  2  1  0  0  0  0
  1 25  1  0  0  0  0
  1 26  1  0  0  0  0
  1 27  1  0  0  0  0
  2  3  1  0  0  0  0
  2 28  1  0  0  0  0
  2 29  1  0  0  0  0
  3  4  1  0  0  0  0
  3  5  1  0  0  0  0
  3 30  1  0  0  0  0
  4 31  1  0  0  0  0
  4 32  1  0  0  0  0
  4 33  1  0  0  0  0
  5  6  1  0  0  0  0
  5 34  1  0  0  0  0
  6  7  2  0  0  0  0
  6  8  1  0  0  0  0
  8  9  1  0  0  0  0
  8 10  1  0  0  0  0
  8 35  1  0  0  0  0
  9 36  1  0  0  0  0
  9 37  1  0  0  0  0
  9 38  1  0  0  0  0
 10 11  1  0  0  0  0
 10 39  1  0  0  0  0
 11 12  2  0  0  0  0
 11 13  1  0  0  0  0
 13 24  1  0  0  0  0
 13 14  2  0  0  0  0
 14 15  1  0  0  0  0
 14 40  1  0  0  0  0
 15 16  2  0  0  0  0
 15 41  1  0  0  0  0
 16 17  1  0  0  0  0
 16 23  1  0  0  0  0
 17 22  1  0  0  0  0
 17 18  1  0  0  0  0
 18 19  1  0  0  0  0
 18 42  1  0  0  0  0
 18 43  1  0  0  0  0
 19 20  1  0  0  0  0
 19 44  1  0  0  0  0
 19 45  1  0  0  0  0
 20 21  1  0  0  0  0
 21 22  1  0  0  0  0
 21 46  1  0  0  0  0
 21 47  1  0  0  0  0
 22 48  1  0  0  0  0
 22 49  1  0  0  0  0
 23 24  2  0  0  0  0
 24 50  1  0  0  0  0
M  END
> <s_m_source_file>
AV-unprocessed.smi

> <i_m_source_file_index>
313

> <i_lp_mmshare_version>
43012

> <i_f3d_flags>
0

> <s_epik_input>
W0NIM11bQ0gyXVtDQEhdKFtDSDNdKVtOSF1DKD1PKVtDQEhdKFtDSDNdKVtOSF1DKD1PKWMxW2NIXVtjSF1jKG5bY0hdMSlOMltDSDJdW0NIMl1PW0NIMl1bQ0gyXTI=

> <s_epik_cmdline>
J2VwaWtfcHl0aG9uJywgJy1waCcsICc3LjAnLCAnLXRuJywgJzgnLCAnLW1hJywgJzIwMCcsICctbWV0YWxfYmluZGluZycsICctaW1hZScsICc8aW5maWxlLm1hZT4nLCAnLW9tYWUnLCAnPG91dGZpbGUubWFlPic=

> <r_lp_tautomer_probability>
1

> <r_epik_Ionization_Penalty>
9.96442e-06

> <r_epik_Ionization_Penalty_Charging>
0

> <r_epik_Ionization_Penalty_Neutral>
9.96442e-06

> <r_epik_State_Penalty>
-0

> <r_epik_Charging_Adjusted_Penalty>
0

> <i_epik_Tot_Q>
0

> <i_epik_Tot_abs_Q>
0

> <r_epik_Metal_State_Penalty>
-0

> <b_epik_Metal_Only>
0

> <s_lp_Force_Field>
OPLS_2005

> <r_lp_Energy>
19.8546

> <b_lp_Chiralities_Consistent>
1

> <s_lp_Variant>
AV-unprocessed.smi:313-1

> <Gold.Version>
5.8.1

> <Gold.Id.Protein>
6NUR|6NUR_protein|mol2

> <Gold.PLP.Fitness>
42.1160

> <Gold.PLP.PLP>
-39.7237

> <Gold.PLP.part.hbond>
-2.0000

> <Gold.PLP.part.metal>
0.0000

> <Gold.PLP.part.buried>
-6.6146

> <Gold.PLP.part.nonpolar>
-32.2005

> <Gold.PLP.part.repulsive>
0.6325

> <Gold.PLP.ligand.clash>
0.0000

> <Gold.PLP.ligand.torsion>
1.2561

> <Gold.PLP.Chemscore.Hbond>
1.5000

> <Gold.PLP.Chemscore.CHOScore>
0.0000

> <Gold.PLP.Chemscore.Metal>
0.0000

> <Gold.Chemscore.Hbonds>
donor molecule, donor type, donor heavy atom, donor atom, acceptor molecule, acceptor atom, score
      P1  H  7989  7998       L1    12  0.57
      P1  H 10752 10764       L1    23  1.00

> <Gold.PLP.Chemscore.Internal.Correction>
0.4046

> <Gold.Rescore>
     Score         DG    S(hbond)    S(metal)    S(lipo)     H(rot)  DE(clash)    DE(int)     intcor
     12.55     -15.23       1.04        0.00      92.68       1.79       0.13       2.54       ----

> <Gold.Chemscore.Fitness>
12.5546

> <Gold.Chemscore.DG>
-15.2292

> <Gold.Chemscore.ZeroCoef>
-5.4800

> <Gold.Chemscore.Hbond>
1.0434

> <Gold.Chemscore.Metal>
0.0000

> <Gold.Chemscore.Lipo>
92.6792

> <Gold.Chemscore.Internal_Hbond>
0.0000

> <Gold.Chemscore.DEClash>
0.1320

> <Gold.Chemscore.DEInternal>
2.5426

> <Gold.Chemscore.Rot>
1.7888

> <Gold.Chemscore.Internal.Correction>
   9.000000E+99

> <Gold.Chemscore.Hbonds>
donor molecule, donor type, donor heavy atom, donor atom, acceptor molecule, acceptor atom, score
      P1  H  7989  7998       L1    12  0.56
      P1  H 10752 10764       L1    23  0.44

> <Gold.Chemscore.Hbond.Weighted>
-3.4850

> <Gold.Chemscore.Metal.Weighted>
-0.0000

> <Gold.Chemscore.Lipo.Weighted>
-10.8435

> <Gold.Chemscore.Internal_Hbond.Weighted>
0.0000

> <Gold.Chemscore.DEClash.Weighted>
0.1320

> <Gold.Chemscore.DEInternal.Weighted>
2.5426

> <Gold.Chemscore.Rot.Weighted>
4.5793

> <Gold.Chemscore.Internal.Correction.Weighted>
   9.000000E+99

> <Gold.Protein.RotatedTorsions>
[ 6907 6896 6895 6894 ] final   33.29 input  -60.11 | X-H torsion
[ 7974 7965 7964 7962 ] final  -96.84 input  175.53 | X-H torsion
[ 8008 7997 7996 7995 ] final  -34.13 input   59.86 | X-H torsion
[ 10167 10162 10161 10158 ] final   70.84 input  -65.29 | X-H torsion
[ 10718 10713 10712 10709 ] final  -43.93 input   66.30 | X-H torsion
[ 10763 10752 10751 10750 ] final  -73.06 input  -60.55 | X-H torsion
[ 11005 11000 10999 10996 ] final  125.20 input  -57.11 | X-H torsion

> <Gold.Protein.ActiveResidues>
 VAL166  LYS551  ARG553  GLY616  TRP617  ASP618  TYR619  PRO620  LYS621  CYS622 
 ASP623  PHE694  ASN695  SER759  ASP760  ASP761  ALA762  ILE779  LEU786  VAL792 
 PHE793  MET794  SER795  GLU796  ALA797  LYS798  CYS799  TRP800  GLU811  SER814 

> <Gold.Protein.RotatedAtoms>
  152.0864  134.9437  160.0572 H   0  0  0  0  0  0  0  0  0  0  0  0  # atno 6907 bound_to 6896
  152.0706  133.4100  159.4465 H   0  0  0  0  0  0  0  0  0  0  0  0  # atno 6908 bound_to 6896
  150.6836  134.3016  159.4752 H   0  0  0  0  0  0  0  0  0  0  0  0  # atno 6909 bound_to 6896
  145.3416  140.9461  143.2604 H   0  0  0  0  0  0  0  0  0  0  0  0  # atno 7974 bound_to 7965
  154.4129  140.1692  156.1999 H   0  0  0  0  0  0  0  0  0  0  0  0  # atno 8008 bound_to 7997
  155.9532  140.3399  155.6403 H   0  0  0  0  0  0  0  0  0  0  0  0  # atno 8009 bound_to 7997
  155.6843  140.0726  157.2463 H   0  0  0  0  0  0  0  0  0  0  0  0  # atno 8010 bound_to 7997
  140.0526  144.5299  150.7352 H   0  0  0  0  0  0  0  0  0  0  0  0  # atno 10167 bound_to 10162
  156.2439  130.4182  149.8729 H   0  0  0  0  0  0  0  0  0  0  0  0  # atno 10718 bound_to 10713
  154.4542  135.5910  153.6212 H   0  0  0  0  0  0  0  0  0  0  0  0  # atno 10763 bound_to 10752
  152.9816  135.6028  154.3566 H   0  0  0  0  0  0  0  0  0  0  0  0  # atno 10764 bound_to 10752
  154.3431  135.2841  155.2391 H   0  0  0  0  0  0  0  0  0  0  0  0  # atno 10765 bound_to 10752
  139.9395  134.9637  156.8522 H   0  0  0  0  0  0  0  0  0  0  0  0  # atno 11005 bound_to 11000
  144.8786  139.4936  143.6734 LP  0  0  0  0  0  0  0  0  0  0  0  0  # atno 17320 bound_to 7965
  146.3005  139.7411  142.9095 LP  0  0  0  0  0  0  0  0  0  0  0  0  # atno 17321 bound_to 7965
  140.7210  143.2588  151.4280 LP  0  0  0  0  0  0  0  0  0  0  0  0  # atno 17342 bound_to 10162
  139.5943  144.1430  152.2126 LP  0  0  0  0  0  0  0  0  0  0  0  0  # atno 17343 bound_to 10162
  156.6301  130.8662  151.3493 LP  0  0  0  0  0  0  0  0  0  0  0  0  # atno 17370 bound_to 10713
  157.7187  130.9530  150.1352 LP  0  0  0  0  0  0  0  0  0  0  0  0  # atno 17371 bound_to 10713
  140.5989  134.0190  155.7529 LP  0  0  0  0  0  0  0  0  0  0  0  0  # atno 17394 bound_to 11000
  141.1023  133.9748  157.3057 LP  0  0  0  0  0  0  0  0  0  0  0  0  # atno 17395 bound_to 11000

$$$$
