AV-unprocessed.smi:37|AV-procd|sdf|326|dock10
  -GOLD-   2262016153D 1   1.00000     0.00000
 Structure written by MMmdl.
 43 44  0  0  0  0  0  0  0  0  2 V2000
  144.1298  143.9731  161.4663 C   0  0  0  0  0  0  0  0  0  0  0  0
  145.5049  143.3033  161.3424 C   0  0  0  0  0  0  0  0  0  0  0  0
  145.5948  142.3961  160.1178 C   0  0  0  0  0  0  0  0  0  0  0  0
  144.8495  141.4256  159.9816 O   0  0  0  0  0  0  0  0  0  0  0  0
  146.5519  142.7803  159.2596 O   0  0  0  0  0  0  0  0  0  0  0  0
  146.7659  142.0398  158.0701 C   0  0  0  0  0  0  0  0  0  0  0  0
  148.2553  142.0911  157.7062 C   0  0  1  0  0  0  0  0  0  0  0  0
  148.9434  140.9429  158.1889 O   0  0  0  0  0  0  0  0  0  0  0  0
  150.0672  140.6911  157.3946 C   0  0  2  0  0  0  0  0  0  0  0  0
  151.3246  140.8508  158.2196 N   0  0  0  0  0  0  0  0  0  0  0  0
  151.5004  141.9349  159.0642 C   0  0  0  0  0  0  0  0  0  0  0  0
  152.6223  142.0705  159.8003 C   0  0  0  0  0  0  0  0  0  0  0  0
  152.7682  143.1355  160.6074 F   0  0  0  0  0  0  0  0  0  0  0  0
  153.6729  141.0578  159.7120 C   0  0  0  0  0  0  0  0  0  0  0  0
  154.6910  141.1841  160.3906 O   0  0  0  0  0  0  0  0  0  0  0  0
  153.4736  140.0035  158.8687 N   0  5  0  0  0  0  0  0  0  0  0  0
  152.3422  139.8642  158.1176 C   0  0  0  0  0  0  0  0  0  0  0  0
  152.1568  138.9245  157.3440 O   0  0  0  0  0  0  0  0  0  0  0  0
  150.0080  141.6498  156.1851 C   0  0  2  0  0  0  0  0  0  0  0  0
  151.1404  143.2841  156.4002 Br  0  0  0  0  0  0  0  0  0  0  0  0
  148.5520  142.0822  156.2047 C   0  0  1  0  0  0  0  0  0  0  0  0
  147.7287  141.1216  155.5506 O   0  0  0  0  0  0  0  0  0  0  0  0
  147.8788  140.8760  154.2366 C   0  0  0  0  0  0  0  0  0  0  0  0
  148.6940  141.4166  153.4891 O   0  0  0  0  0  0  0  0  0  0  0  0
  146.9155  139.8075  153.7241 C   0  0  0  0  0  0  0  0  0  0  0  0
  147.1597  139.4648  152.2480 C   0  0  0  0  0  0  0  0  0  0  0  0
  144.0858  144.5949  162.3603 H   0  0  0  0  0  0  0  0  0  0  0  0
  143.3337  143.2314  161.5409 H   0  0  0  0  0  0  0  0  0  0  0  0
  143.9163  144.6130  160.6091 H   0  0  0  0  0  0  0  0  0  0  0  0
  146.2858  144.0613  161.2772 H   0  0  0  0  0  0  0  0  0  0  0  0
  145.7110  142.7127  162.2355 H   0  0  0  0  0  0  0  0  0  0  0  0
  146.4346  141.0074  158.1925 H   0  0  0  0  0  0  0  0  0  0  0  0
  146.1737  142.4838  157.2686 H   0  0  0  0  0  0  0  0  0  0  0  0
  148.7113  142.9795  158.1466 H   0  0  0  0  0  0  0  0  0  0  0  0
  150.0268  139.6382  157.1102 H   0  0  0  0  0  0  0  0  0  0  0  0
  150.7389  142.6964  159.1385 H   0  0  0  0  0  0  0  0  0  0  0  0
  150.3144  141.1453  155.2682 H   0  0  0  0  0  0  0  0  0  0  0  0
  148.4051  143.0705  155.7658 H   0  0  0  0  0  0  0  0  0  0  0  0
  147.0277  138.9109  154.3344 H   0  0  0  0  0  0  0  0  0  0  0  0
  145.8927  140.1587  153.8631 H   0  0  0  0  0  0  0  0  0  0  0  0
  146.4933  138.6652  151.9245 H   0  0  0  0  0  0  0  0  0  0  0  0
  148.1839  139.1281  152.0831 H   0  0  0  0  0  0  0  0  0  0  0  0
  146.9797  140.3248  151.6019 H   0  0  0  0  0  0  0  0  0  0  0  0
  1  2  1  0  0  0  0
  1 27  1  0  0  0  0
  1 28  1  0  0  0  0
  1 29  1  0  0  0  0
  2  3  1  0  0  0  0
  2 30  1  0  0  0  0
  2 31  1  0  0  0  0
  3  4  2  0  0  0  0
  3  5  1  0  0  0  0
  5  6  1  0  0  0  0
  6  7  1  0  0  0  0
  6 32  1  0  0  0  0
  6 33  1  0  0  0  0
  7 21  1  0  0  0  0
  7  8  1  0  0  0  0
  7 34  1  0  0  0  0
  8  9  1  0  0  0  0
  9 10  1  0  0  0  0
  9 19  1  0  0  0  0
  9 35  1  0  0  0  0
 10 17  1  0  0  0  0
 10 11  1  0  0  0  0
 11 12  2  0  0  0  0
 11 36  1  0  0  0  0
 12 13  1  0  0  0  0
 12 14  1  0  0  0  0
 14 15  2  0  0  0  0
 14 16  1  0  0  0  0
 16 17  1  0  0  0  0
 17 18  2  0  0  0  0
 19 20  1  0  0  0  0
 19 21  1  0  0  0  0
 19 37  1  0  0  0  0
 21 22  1  0  0  0  0
 21 38  1  0  0  0  0
 22 23  1  0  0  0  0
 23 24  2  0  0  0  0
 23 25  1  0  0  0  0
 25 26  1  0  0  0  0
 25 39  1  0  0  0  0
 25 40  1  0  0  0  0
 26 41  1  0  0  0  0
 26 42  1  0  0  0  0
 26 43  1  0  0  0  0
M  CHG  1  16  -1
M  END
> <s_m_source_file>
AV-unprocessed.smi

> <i_m_source_file_index>
37

> <i_lp_mmshare_version>
43012

> <i_f3d_flags>
0

> <s_epik_input>
W0NIM11bQ0gyXUMoPU8pT1tDSDJdW0NAQEhdMU9bQ0BASF0objJbY0hdYyhGKWMoPU8pW25IXWMyPU8pW0NAQEhdKEJyKVtDQEhdMU9DKD1PKVtDSDJdW0NIM10=

> <s_epik_cmdline>
J2VwaWtfcHl0aG9uJywgJy1waCcsICc3LjAnLCAnLXRuJywgJzgnLCAnLW1hJywgJzIwMCcsICctbWV0YWxfYmluZGluZycsICctaW1hZScsICc8aW5maWxlLm1hZT4nLCAnLW9tYWUnLCAnPG91dGZpbGUubWFlPic=

> <r_epik_Ionization_Penalty>
1.08158

> <r_epik_Ionization_Penalty_Charging>
9.05154e-09

> <r_epik_Ionization_Penalty_Neutral>
1.08158

> <r_epik_State_Penalty>
1.13706

> <r_epik_Charging_Adjusted_Penalty>
1.13706

> <i_epik_Tot_Q>
-1

> <i_epik_Tot_abs_Q>
1

> <r_epik_Metal_State_Penalty>
0.00343535

> <b_epik_Metal_Only>
0

> <s_epik_Chemistry_Notes>
This compound has an ester and may undergo hydrolysis at high or low pH. This compound contains an acetal/aminal-like group ( X-CH(R)-Y where X, Y are N, S, or O) that may be acid/base labile, releasing an aldehyde.

> <s_lp_Force_Field>
OPLS_2005

> <r_lp_Energy>
32.8467

> <b_lp_Chiralities_Consistent>
1

> <s_lp_Variant>
AV-unprocessed.smi:37-24

> <Gold.Version>
5.8.1

> <Gold.Id.Protein>
6NUR|6NUR_protein|mol2

> <Gold.PLP.Fitness>
41.0685

> <Gold.PLP.PLP>
-34.7186

> <Gold.PLP.part.hbond>
-4.3616

> <Gold.PLP.part.metal>
0.0000

> <Gold.PLP.part.buried>
2.9543

> <Gold.PLP.part.nonpolar>
-33.9721

> <Gold.PLP.part.repulsive>
1.0694

> <Gold.PLP.ligand.clash>
0.0000

> <Gold.PLP.ligand.torsion>
1.0551

> <Gold.PLP.Chemscore.Hbond>
2.7613

> <Gold.PLP.Chemscore.CHOScore>
0.0000

> <Gold.PLP.Chemscore.Metal>
0.0000

> <Gold.Chemscore.Hbonds>
donor molecule, donor type, donor heavy atom, donor atom, acceptor molecule, acceptor atom, score
      P1  H  7997  8008       L1    16  1.26
      P1  H  8011  8017       L1    24  0.82

> <Gold.PLP.Chemscore.Internal.Correction>
0.1762

> <Gold.Rescore>
     Score         DG    S(hbond)    S(metal)    S(lipo)     H(rot)  DE(clash)    DE(int)     intcor
      3.65      -8.26       0.93        0.00      68.56       3.27       3.18       1.43       ----

> <Gold.Chemscore.Fitness>
3.6502

> <Gold.Chemscore.DG>
-8.2576

> <Gold.Chemscore.ZeroCoef>
-5.4800

> <Gold.Chemscore.Hbond>
0.9341

> <Gold.Chemscore.Metal>
0.0000

> <Gold.Chemscore.Lipo>
68.5560

> <Gold.Chemscore.Internal_Hbond>
0.0000

> <Gold.Chemscore.DEClash>
3.1788

> <Gold.Chemscore.DEInternal>
1.4286

> <Gold.Chemscore.Rot>
3.2669

> <Gold.Chemscore.Internal.Correction>
   9.000000E+99

> <Gold.Chemscore.Hbonds>
donor molecule, donor type, donor heavy atom, donor atom, acceptor molecule, acceptor atom, score
      P1  H  7997  8008       L1    16  0.09
      P1  H  8011  8017       L1    24  0.81

> <Gold.Chemscore.Hbond.Weighted>
-3.1199

> <Gold.Chemscore.Metal.Weighted>
-0.0000

> <Gold.Chemscore.Lipo.Weighted>
-8.0211

> <Gold.Chemscore.Internal_Hbond.Weighted>
0.0000

> <Gold.Chemscore.DEClash.Weighted>
3.1788

> <Gold.Chemscore.DEInternal.Weighted>
1.4286

> <Gold.Chemscore.Rot.Weighted>
8.3634

> <Gold.Chemscore.Internal.Correction.Weighted>
   9.000000E+99

> <Gold.Protein.RotatedTorsions>
[ 6907 6896 6895 6894 ] final -127.19 input  -60.11 | X-H torsion
[ 7974 7965 7964 7962 ] final  -27.95 input  175.53 | X-H torsion
[ 8008 7997 7996 7995 ] final -108.13 input   59.86 | X-H torsion
[ 10167 10162 10161 10158 ] final   34.07 input  -65.29 | X-H torsion
[ 10718 10713 10712 10709 ] final  -48.07 input   66.30 | X-H torsion
[ 10763 10752 10751 10750 ] final -134.96 input  -60.55 | X-H torsion
[ 11005 11000 10999 10996 ] final -179.08 input  -57.11 | X-H torsion

> <Gold.Protein.ActiveResidues>
 VAL166  LYS551  ARG553  GLY616  TRP617  ASP618  TYR619  PRO620  LYS621  CYS622 
 ASP623  PHE694  ASN695  SER759  ASP760  ASP761  ALA762  ILE779  LEU786  VAL792 
 PHE793  MET794  SER795  GLU796  ALA797  LYS798  CYS799  TRP800  GLU811  SER814 

> <Gold.Protein.RotatedAtoms>
  150.9047  133.7073  159.2869 H   0  0  0  0  0  0  0  0  0  0  0  0  # atno 6907 bound_to 6896
  151.4580  135.1034  159.9726 H   0  0  0  0  0  0  0  0  0  0  0  0  # atno 6908 bound_to 6896
  152.4897  133.8417  159.7211 H   0  0  0  0  0  0  0  0  0  0  0  0  # atno 6909 bound_to 6896
  146.1322  140.5219  142.8688 H   0  0  0  0  0  0  0  0  0  0  0  0  # atno 7974 bound_to 7965
  154.9397  140.0403  157.2090 H   0  0  0  0  0  0  0  0  0  0  0  0  # atno 8008 bound_to 7997
  154.8081  140.2863  155.5851 H   0  0  0  0  0  0  0  0  0  0  0  0  # atno 8009 bound_to 7997
  156.2968  140.2542  156.2964 H   0  0  0  0  0  0  0  0  0  0  0  0  # atno 8010 bound_to 7997
  140.4349  144.1272  150.6165 H   0  0  0  0  0  0  0  0  0  0  0  0  # atno 10167 bound_to 10162
  156.2023  130.4157  149.9224 H   0  0  0  0  0  0  0  0  0  0  0  0  # atno 10718 bound_to 10713
  154.8711  135.3718  154.4820 H   0  0  0  0  0  0  0  0  0  0  0  0  # atno 10763 bound_to 10752
  153.5473  135.7025  153.5613 H   0  0  0  0  0  0  0  0  0  0  0  0  # atno 10764 bound_to 10752
  153.3748  135.4012  155.1779 H   0  0  0  0  0  0  0  0  0  0  0  0  # atno 10765 bound_to 10752
  140.4227  134.6591  157.4672 H   0  0  0  0  0  0  0  0  0  0  0  0  # atno 11005 bound_to 11000
  144.7702  140.5621  143.6675 LP  0  0  0  0  0  0  0  0  0  0  0  0  # atno 17320 bound_to 7965
  145.5235  139.1476  143.3539 LP  0  0  0  0  0  0  0  0  0  0  0  0  # atno 17321 bound_to 7965
  140.4385  143.2537  151.9503 LP  0  0  0  0  0  0  0  0  0  0  0  0  # atno 17342 bound_to 10162
  139.4786  144.5677  151.8139 LP  0  0  0  0  0  0  0  0  0  0  0  0  # atno 17343 bound_to 10162
  156.6930  130.8903  151.3590 LP  0  0  0  0  0  0  0  0  0  0  0  0  # atno 17370 bound_to 10713
  157.6993  130.9315  150.0736 LP  0  0  0  0  0  0  0  0  0  0  0  0  # atno 17371 bound_to 10713
  140.0189  134.6577  155.9269 LP  0  0  0  0  0  0  0  0  0  0  0  0  # atno 17394 bound_to 11000
  141.1778  133.6542  156.4896 LP  0  0  0  0  0  0  0  0  0  0  0  0  # atno 17395 bound_to 11000

$$$$
