AV-unprocessed.smi:1825|AV-procd|sdf|7413|dock7
  -GOLD-   22720 9 93D 1   1.00000     0.00000
 Structure written by MMmdl.
 34 35  0  0  0  0  0  0  0  0  1 V2000
  145.9206  138.7349  153.9026 O   0  0  0  0  0  0  0  0  0  0  0  0
  146.7924  138.1318  153.2762 C   0  0  0  0  0  0  0  0  0  0  0  0
  146.5459  137.0675  152.4994 N   0  0  0  0  0  0  0  0  0  0  0  0
  145.2385  136.4412  152.3188 C   0  0  0  0  0  0  0  0  0  0  0  0
  145.2387  135.3183  151.2502 C   0  0  0  0  0  0  0  0  0  0  0  0
  145.4120  135.9433  149.9914 O   0  0  0  0  0  0  0  0  0  0  0  0
  146.4613  134.3947  151.4702 C   0  0  0  0  0  0  0  0  0  0  0  0
  146.4995  133.1987  150.5020 C   0  0  0  0  0  0  0  0  0  0  0  0
  145.1954  132.3918  150.5624 C   0  0  0  0  0  0  0  0  0  0  0  0
  143.9833  133.2886  150.2756 C   0  0  0  0  0  0  0  0  0  0  0  0
  143.9280  134.4894  151.2373 C   0  0  0  0  0  0  0  0  0  0  0  0
  148.1018  138.4363  153.2784 N   0  0  0  0  0  0  0  0  0  0  0  0
  148.7579  139.4864  153.9720 C   0  0  0  0  0  0  0  0  0  0  0  0
  149.8778  139.3344  154.6888 N   0  0  0  0  0  0  0  0  0  0  0  0
  150.2993  140.5356  155.2642 C   0  0  0  0  0  0  0  0  0  0  0  0
  149.4825  141.5998  154.9736 C   0  0  0  0  0  0  0  0  0  0  0  0
  148.1427  141.1327  153.9606 S   0  0  0  0  0  0  0  0  0  0  0  0
  147.3235  136.6375  152.0208 H   0  0  0  0  0  0  0  0  0  0  0  0
  144.8359  136.0803  153.2673 H   0  0  0  0  0  0  0  0  0  0  0  0
  144.5673  137.2392  152.0000 H   0  0  0  0  0  0  0  0  0  0  0  0
  145.5913  135.2753  149.3478 H   0  0  0  0  0  0  0  0  0  0  0  0
  147.3870  134.9659  151.3844 H   0  0  0  0  0  0  0  0  0  0  0  0
  146.4413  134.0089  152.4905 H   0  0  0  0  0  0  0  0  0  0  0  0
  146.6673  133.5503  149.4832 H   0  0  0  0  0  0  0  0  0  0  0  0
  147.3446  132.5544  150.7454 H   0  0  0  0  0  0  0  0  0  0  0  0
  145.2308  131.5726  149.8436 H   0  0  0  0  0  0  0  0  0  0  0  0
  145.0904  131.9362  151.5479 H   0  0  0  0  0  0  0  0  0  0  0  0
  144.0264  133.6434  149.2452 H   0  0  0  0  0  0  0  0  0  0  0  0
  143.0651  132.7067  150.3598 H   0  0  0  0  0  0  0  0  0  0  0  0
  143.7286  134.1219  152.2449 H   0  0  0  0  0  0  0  0  0  0  0  0
  143.0769  135.1164  150.9691 H   0  0  0  0  0  0  0  0  0  0  0  0
  148.7012  137.8426  152.7244 H   0  0  0  0  0  0  0  0  0  0  0  0
  151.1947  140.5426  155.8681 H   0  0  0  0  0  0  0  0  0  0  0  0
  149.5872  142.6258  155.2932 H   0  0  0  0  0  0  0  0  0  0  0  0
  1  2  2  0  0  0  0
  2  3  1  0  0  0  0
  2 12  1  0  0  0  0
  3  4  1  0  0  0  0
  3 18  1  0  0  0  0
  4  5  1  0  0  0  0
  4 19  1  0  0  0  0
  4 20  1  0  0  0  0
  5 11  1  0  0  0  0
  5  6  1  0  0  0  0
  5  7  1  0  0  0  0
  6 21  1  0  0  0  0
  7  8  1  0  0  0  0
  7 22  1  0  0  0  0
  7 23  1  0  0  0  0
  8  9  1  0  0  0  0
  8 24  1  0  0  0  0
  8 25  1  0  0  0  0
  9 10  1  0  0  0  0
  9 26  1  0  0  0  0
  9 27  1  0  0  0  0
 10 11  1  0  0  0  0
 10 28  1  0  0  0  0
 10 29  1  0  0  0  0
 11 30  1  0  0  0  0
 11 31  1  0  0  0  0
 12 13  1  0  0  0  0
 12 32  1  0  0  0  0
 13 17  1  0  0  0  0
 13 14  2  0  0  0  0
 14 15  1  0  0  0  0
 15 16  2  0  0  0  0
 15 33  1  0  0  0  0
 16 17  1  0  0  0  0
 16 34  1  0  0  0  0
M  END
> <s_m_source_file>
AV-unprocessed.smi

> <i_m_source_file_index>
1825

> <i_lp_mmshare_version>
43012

> <i_f3d_flags>
0

> <s_epik_input>
czFbY0hdW2NIXW5jMVtOSF1DKD1PKVtOSF1bQ0gyXUMyKFtPSF0pW0NIMl1bQ0gyXVtDSDJdW0NIMl1bQ0gyXTI=

> <s_epik_cmdline>
J2VwaWtfcHl0aG9uJywgJy1waCcsICc3LjAnLCAnLXRuJywgJzgnLCAnLW1hJywgJzIwMCcsICctbWV0YWxfYmluZGluZycsICctaW1hZScsICc8aW5maWxlLm1hZT4nLCAnLW9tYWUnLCAnPG91dGZpbGUubWFlPic=

> <r_lp_tautomer_probability>
0.999

> <r_epik_Ionization_Penalty>
0.000358719

> <r_epik_Ionization_Penalty_Charging>
0

> <r_epik_Ionization_Penalty_Neutral>
0.000358719

> <r_epik_State_Penalty>
0.000177984

> <r_epik_Charging_Adjusted_Penalty>
0.000177984

> <i_epik_Tot_Q>
0

> <i_epik_Tot_abs_Q>
0

> <r_epik_Metal_State_Penalty>
0.00708714

> <b_epik_Metal_Only>
0

> <s_lp_Force_Field>
OPLS_2005

> <r_lp_Energy>
11.7205

> <b_lp_Chiralities_Consistent>
1

> <s_lp_Variant>
AV-unprocessed.smi:1825-1

> <Gold.Version>
5.8.1

> <Gold.Id.Protein>
6NUR|6NUR_protein|mol2

> <Gold.PLP.Fitness>
42.4315

> <Gold.PLP.PLP>
-31.5300

> <Gold.PLP.part.hbond>
-4.8194

> <Gold.PLP.part.metal>
0.0000

> <Gold.PLP.part.buried>
-1.3915

> <Gold.PLP.part.nonpolar>
-25.8835

> <Gold.PLP.part.repulsive>
0.3458

> <Gold.PLP.ligand.clash>
0.0000

> <Gold.PLP.ligand.torsion>
0.5167

> <Gold.PLP.Chemscore.Hbond>
2.9760

> <Gold.PLP.Chemscore.CHOScore>
1.0000

> <Gold.PLP.Chemscore.Metal>
0.0000

> <Gold.Chemscore.Hbonds>
donor molecule, donor type, donor heavy atom, donor atom, acceptor molecule, acceptor atom, score
      L1  H     3    18       P1  7948  1.00
      L1  H     6    21       P1  7921  0.98
      L1  H    12    32       P1  7948  0.99
      L1  C    16    34       P1  8028  1.00

> <Gold.PLP.Chemscore.Internal.Correction>
0.0069

> <Gold.Rescore>
     Score         DG    S(hbond)    S(metal)    S(lipo)     H(rot)  DE(clash)    DE(int)     intcor
     17.84     -18.37       2.90        0.00      68.14       1.86       0.09       0.44       ----

> <Gold.Chemscore.Fitness>
17.8384

> <Gold.Chemscore.DG>
-18.3750

> <Gold.Chemscore.ZeroCoef>
-5.4800

> <Gold.Chemscore.Hbond>
2.8973

> <Gold.Chemscore.Metal>
0.0000

> <Gold.Chemscore.Lipo>
68.1405

> <Gold.Chemscore.Internal_Hbond>
0.0000

> <Gold.Chemscore.DEClash>
0.0928

> <Gold.Chemscore.DEInternal>
0.4438

> <Gold.Chemscore.Rot>
1.8572

> <Gold.Chemscore.Internal.Correction>
   9.000000E+99

> <Gold.Chemscore.Hbonds>
donor molecule, donor type, donor heavy atom, donor atom, acceptor molecule, acceptor atom, score
      L1  H     3    18       P1  7948  0.98
      L1  H     6    21       P1  7921  0.93
      L1  H    12    32       P1  7948  0.94

> <Gold.Chemscore.Hbond.Weighted>
-9.6771

> <Gold.Chemscore.Metal.Weighted>
-0.0000

> <Gold.Chemscore.Lipo.Weighted>
-7.9724

> <Gold.Chemscore.Internal_Hbond.Weighted>
0.0000

> <Gold.Chemscore.DEClash.Weighted>
0.0928

> <Gold.Chemscore.DEInternal.Weighted>
0.4438

> <Gold.Chemscore.Rot.Weighted>
4.7545

> <Gold.Chemscore.Internal.Correction.Weighted>
   9.000000E+99

> <Gold.Protein.RotatedTorsions>
[ 6907 6896 6895 6894 ] final -115.27 input  -60.11 | X-H torsion
[ 7974 7965 7964 7962 ] final  -16.83 input  175.53 | X-H torsion
[ 8008 7997 7996 7995 ] final  -91.45 input   59.86 | X-H torsion
[ 10167 10162 10161 10158 ] final  176.75 input  -65.29 | X-H torsion
[ 10718 10713 10712 10709 ] final  -71.40 input   66.30 | X-H torsion
[ 10763 10752 10751 10750 ] final  174.24 input  -60.55 | X-H torsion
[ 11005 11000 10999 10996 ] final  -48.65 input  -57.11 | X-H torsion

> <Gold.Protein.ActiveResidues>
 VAL166  LYS551  ARG553  GLY616  TRP617  ASP618  TYR619  PRO620  LYS621  CYS622 
 ASP623  PHE694  ASN695  SER759  ASP760  ASP761  ALA762  ILE779  LEU786  VAL792 
 PHE793  MET794  SER795  GLU796  ALA797  LYS798  CYS799  TRP800  GLU811  SER814 

> <Gold.Protein.RotatedAtoms>
  150.7965  133.8682  159.3250 H   0  0  0  0  0  0  0  0  0  0  0  0  # atno 6907 bound_to 6896
  151.6505  135.1000  160.0169 H   0  0  0  0  0  0  0  0  0  0  0  0  # atno 6908 bound_to 6896
  152.4048  133.6832  159.6382 H   0  0  0  0  0  0  0  0  0  0  0  0  # atno 6909 bound_to 6896
  146.1969  140.3692  142.8437 H   0  0  0  0  0  0  0  0  0  0  0  0  # atno 7974 bound_to 7965
  154.7109  140.0519  157.0549 H   0  0  0  0  0  0  0  0  0  0  0  0  # atno 8008 bound_to 7997
  155.0556  140.3184  155.4658 H   0  0  0  0  0  0  0  0  0  0  0  0  # atno 8009 bound_to 7997
  156.2789  140.2108  156.5683 H   0  0  0  0  0  0  0  0  0  0  0  0  # atno 8010 bound_to 7997
  139.5226  144.2878  152.0490 H   0  0  0  0  0  0  0  0  0  0  0  0  # atno 10167 bound_to 10162
  156.0364  130.4350  150.2438 H   0  0  0  0  0  0  0  0  0  0  0  0  # atno 10718 bound_to 10713
  154.4512  135.2765  155.1780 H   0  0  0  0  0  0  0  0  0  0  0  0  # atno 10763 bound_to 10752
  154.3606  135.6130  153.5692 H   0  0  0  0  0  0  0  0  0  0  0  0  # atno 10764 bound_to 10752
  152.9847  135.5833  154.4857 H   0  0  0  0  0  0  0  0  0  0  0  0  # atno 10765 bound_to 10752
  141.0713  133.6678  156.3471 H   0  0  0  0  0  0  0  0  0  0  0  0  # atno 11005 bound_to 11000
  144.8600  140.7126  143.6113 LP  0  0  0  0  0  0  0  0  0  0  0  0  # atno 17320 bound_to 7965
  145.3612  139.1681  143.4382 LP  0  0  0  0  0  0  0  0  0  0  0  0  # atno 17321 bound_to 7965
  140.2331  144.4348  150.6291 LP  0  0  0  0  0  0  0  0  0  0  0  0  # atno 17342 bound_to 10162
  140.6342  143.2192  151.6431 LP  0  0  0  0  0  0  0  0  0  0  0  0  # atno 17343 bound_to 10162
  157.0537  131.0070  151.3245 LP  0  0  0  0  0  0  0  0  0  0  0  0  # atno 17370 bound_to 10713
  157.5121  130.7945  149.7717 LP  0  0  0  0  0  0  0  0  0  0  0  0  # atno 17371 bound_to 10713
  140.5667  134.5880  157.5447 LP  0  0  0  0  0  0  0  0  0  0  0  0  # atno 17394 bound_to 11000
  139.9526  134.7590  156.0413 LP  0  0  0  0  0  0  0  0  0  0  0  0  # atno 17395 bound_to 11000

$$$$
