AV-unprocessed.smi:1116|AV-procd|sdf|4809|dock5
  -GOLD-   22720 3363D 1   1.00000     0.00000
 Structure written by MMmdl.
 35 36  0  0  0  0  0  0  0  0  2 V2000
  151.9003  145.0190  160.5377 C   0  0  0  0  0  0  0  0  0  0  0  0
  152.0070  143.6519  159.9539 C   0  0  0  0  0  0  0  0  0  0  0  0
  151.1480  143.1614  159.0562 N   0  0  0  0  0  0  0  0  0  0  0  0
  151.4635  141.8557  158.6667 C   0  0  0  0  0  0  0  0  0  0  0  0
  150.6010  141.1401  157.6723 C   0  0  0  0  0  0  0  0  0  0  0  0
  150.5151  141.8921  156.3334 C   0  0  0  0  0  0  0  0  0  0  0  0
  149.1491  141.9387  155.8263 N   0  0  0  0  0  0  0  0  0  0  0  0
  148.7599  141.5272  154.6100 C   0  0  0  0  0  0  0  0  0  0  0  0
  149.5340  141.0651  153.7712 O   0  0  0  0  0  0  0  0  0  0  0  0
  147.2701  141.6636  154.2916 C   0  0  0  0  0  0  0  0  0  0  0  0
  146.8450  143.1327  154.1106 C   0  0  0  0  0  0  0  0  0  0  0  0
  145.3148  143.3051  154.0135 C   0  0  2  0  0  0  0  0  0  0  0  0
  144.9622  144.4970  153.2613 N   0  5  0  0  0  0  0  0  0  0  0  0
  144.2146  145.3001  154.0544 C   0  0  0  0  0  0  0  0  0  0  0  0
  143.7216  146.3893  153.7700 O   0  0  0  0  0  0  0  0  0  0  0  0
  144.0570  144.7551  155.2652 N   0  0  0  0  0  0  0  0  0  0  0  0
  144.6766  143.5832  155.3612 C   0  0  0  0  0  0  0  0  0  0  0  0
  144.7331  142.8457  156.3443 O   0  0  0  0  0  0  0  0  0  0  0  0
  152.5861  141.3633  159.2844 C   0  0  0  0  0  0  0  0  0  0  0  0
  153.2847  142.5211  160.3826 S   0  0  0  0  0  0  0  0  0  0  0  0
  150.9841  145.5089  160.2066 H   0  0  0  0  0  0  0  0  0  0  0  0
  152.7524  145.6236  160.2266 H   0  0  0  0  0  0  0  0  0  0  0  0
  151.8911  144.9598  161.6261 H   0  0  0  0  0  0  0  0  0  0  0  0
  150.9871  140.1336  157.5069 H   0  0  0  0  0  0  0  0  0  0  0  0
  149.5974  141.0104  158.0795 H   0  0  0  0  0  0  0  0  0  0  0  0
  150.8578  142.9190  156.4637 H   0  0  0  0  0  0  0  0  0  0  0  0
  151.1733  141.4355  155.5923 H   0  0  0  0  0  0  0  0  0  0  0  0
  148.4425  142.3037  156.4488 H   0  0  0  0  0  0  0  0  0  0  0  0
  147.0377  141.0937  153.3909 H   0  0  0  0  0  0  0  0  0  0  0  0
  146.6989  141.2082  155.1011 H   0  0  0  0  0  0  0  0  0  0  0  0
  147.2186  143.7133  154.9559 H   0  0  0  0  0  0  0  0  0  0  0  0
  147.3244  143.5519  153.2236 H   0  0  0  0  0  0  0  0  0  0  0  0
  144.8625  142.4021  153.6011 H   0  0  0  0  0  0  0  0  0  0  0  0
  143.5394  145.1870  156.0161 H   0  0  0  0  0  0  0  0  0  0  0  0
  153.0405  140.3912  159.1616 H   0  0  0  0  0  0  0  0  0  0  0  0
  1  2  1  0  0  0  0
  1 21  1  0  0  0  0
  1 22  1  0  0  0  0
  1 23  1  0  0  0  0
  2 20  1  0  0  0  0
  2  3  2  0  0  0  0
  3  4  1  0  0  0  0
  4  5  1  0  0  0  0
  4 19  2  0  0  0  0
  5  6  1  0  0  0  0
  5 24  1  0  0  0  0
  5 25  1  0  0  0  0
  6  7  1  0  0  0  0
  6 26  1  0  0  0  0
  6 27  1  0  0  0  0
  7  8  1  0  0  0  0
  7 28  1  0  0  0  0
  8  9  2  0  0  0  0
  8 10  1  0  0  0  0
 10 11  1  0  0  0  0
 10 29  1  0  0  0  0
 10 30  1  0  0  0  0
 11 12  1  0  0  0  0
 11 31  1  0  0  0  0
 11 32  1  0  0  0  0
 12 17  1  0  0  0  0
 12 13  1  0  0  0  0
 12 33  1  0  0  0  0
 13 14  1  0  0  0  0
 14 15  2  0  0  0  0
 14 16  1  0  0  0  0
 16 17  1  0  0  0  0
 16 34  1  0  0  0  0
 17 18  2  0  0  0  0
 19 20  1  0  0  0  0
 19 35  1  0  0  0  0
M  CHG  1  13  -1
M  END
> <s_m_source_file>
AV-unprocessed.smi

> <i_m_source_file_index>
1116

> <i_lp_mmshare_version>
43012

> <i_f3d_flags>
0

> <s_epik_input>
W0NIM11jMW5jKFtjSF1zMSlbQ0gyXVtDSDJdW05IXUMoPU8pW0NIMl1bQ0gyXVtDQEBIXTJbTkhdQyg9TylbTkhdQzI9Tw==

> <s_epik_cmdline>
J2VwaWtfcHl0aG9uJywgJy1waCcsICc3LjAnLCAnLXRuJywgJzgnLCAnLW1hJywgJzIwMCcsICctbWV0YWxfYmluZGluZycsICctaW1hZScsICc8aW5maWxlLm1hZT4nLCAnLW9tYWUnLCAnPG91dGZpbGUubWFlPic=

> <r_lp_tautomer_probability>
1

> <r_epik_Ionization_Penalty>
5.7962

> <r_epik_Ionization_Penalty_Charging>
5.79516

> <r_epik_Ionization_Penalty_Neutral>
0.00104588

> <r_epik_State_Penalty>
5.80096

> <r_epik_Charging_Adjusted_Penalty>
11.5961

> <i_epik_Tot_Q>
-1

> <i_epik_Tot_abs_Q>
1

> <r_epik_Metal_State_Penalty>
2.1448

> <b_epik_Metal_Only>
1

> <s_lp_Force_Field>
OPLS_2005

> <r_lp_Energy>
4.59195

> <b_lp_Chiralities_Consistent>
1

> <s_lp_Variant>
AV-unprocessed.smi:1116-3

> <Gold.Version>
5.8.1

> <Gold.Id.Protein>
6NUR|6NUR_protein|mol2

> <Gold.PLP.Fitness>
42.6548

> <Gold.PLP.PLP>
-40.4291

> <Gold.PLP.part.hbond>
-5.0000

> <Gold.PLP.part.metal>
0.0000

> <Gold.PLP.part.buried>
-4.9979

> <Gold.PLP.part.nonpolar>
-33.5561

> <Gold.PLP.part.repulsive>
2.7900

> <Gold.PLP.ligand.clash>
0.0000

> <Gold.PLP.ligand.torsion>
0.8246

> <Gold.PLP.Chemscore.Hbond>
1.2685

> <Gold.PLP.Chemscore.CHOScore>
0.0000

> <Gold.PLP.Chemscore.Metal>
0.0000

> <Gold.Chemscore.Hbonds>
donor molecule, donor type, donor heavy atom, donor atom, acceptor molecule, acceptor atom, score
      P1  H  7989  7998       L1     9  0.28
      P1  H  8011  8017       L1     9  0.94

> <Gold.PLP.Chemscore.Internal.Correction>
0.0694

> <Gold.Rescore>
     Score         DG    S(hbond)    S(metal)    S(lipo)     H(rot)  DE(clash)    DE(int)     intcor
      9.67     -11.63       0.94        0.00      86.37       2.77       1.41       0.56       ----

> <Gold.Chemscore.Fitness>
9.6659

> <Gold.Chemscore.DG>
-11.6313

> <Gold.Chemscore.ZeroCoef>
-5.4800

> <Gold.Chemscore.Hbond>
0.9384

> <Gold.Chemscore.Metal>
0.0000

> <Gold.Chemscore.Lipo>
86.3749

> <Gold.Chemscore.Internal_Hbond>
0.0000

> <Gold.Chemscore.DEClash>
1.4069

> <Gold.Chemscore.DEInternal>
0.5585

> <Gold.Chemscore.Rot>
2.7691

> <Gold.Chemscore.Internal.Correction>
   9.000000E+99

> <Gold.Chemscore.Hbonds>
donor molecule, donor type, donor heavy atom, donor atom, acceptor molecule, acceptor atom, score
      P1  H  7989  7998       L1     9  0.28
      P1  H  8011  8017       L1     9  0.62

> <Gold.Chemscore.Hbond.Weighted>
-3.1343

> <Gold.Chemscore.Metal.Weighted>
-0.0000

> <Gold.Chemscore.Lipo.Weighted>
-10.1059

> <Gold.Chemscore.Internal_Hbond.Weighted>
0.0000

> <Gold.Chemscore.DEClash.Weighted>
1.4069

> <Gold.Chemscore.DEInternal.Weighted>
0.5585

> <Gold.Chemscore.Rot.Weighted>
7.0889

> <Gold.Chemscore.Internal.Correction.Weighted>
   9.000000E+99

> <Gold.Protein.RotatedTorsions>
[ 6907 6896 6895 6894 ] final -159.64 input  -60.11 | X-H torsion
[ 7974 7965 7964 7962 ] final  146.00 input  175.53 | X-H torsion
[ 8008 7997 7996 7995 ] final   78.83 input   59.86 | X-H torsion
[ 10167 10162 10161 10158 ] final -121.67 input  -65.29 | X-H torsion
[ 10718 10713 10712 10709 ] final  105.22 input   66.30 | X-H torsion
[ 10763 10752 10751 10750 ] final  -62.08 input  -60.55 | X-H torsion
[ 11005 11000 10999 10996 ] final  -99.26 input  -57.11 | X-H torsion

> <Gold.Protein.ActiveResidues>
 VAL166  LYS551  ARG553  GLY616  TRP617  ASP618  TYR619  PRO620  LYS621  CYS622 
 ASP623  PHE694  ASN695  SER759  ASP760  ASP761  ALA762  ILE779  LEU786  VAL792 
 PHE793  MET794  SER795  GLU796  ALA797  LYS798  CYS799  TRP800  GLU811  SER814 

> <Gold.Protein.RotatedAtoms>
  151.3366  133.3979  159.2667 H   0  0  0  0  0  0  0  0  0  0  0  0  # atno 6907 bound_to 6896
  150.9912  134.9247  159.7911 H   0  0  0  0  0  0  0  0  0  0  0  0  # atno 6908 bound_to 6896
  152.5247  134.3331  159.9242 H   0  0  0  0  0  0  0  0  0  0  0  0  # atno 6909 bound_to 6896
  144.8706  139.5851  143.5888 H   0  0  0  0  0  0  0  0  0  0  0  0  # atno 7974 bound_to 7965
  155.8612  140.3453  155.5758 H   0  0  0  0  0  0  0  0  0  0  0  0  # atno 8008 bound_to 7997
  155.7931  140.0874  157.2017 H   0  0  0  0  0  0  0  0  0  0  0  0  # atno 8009 bound_to 7997
  154.4012  140.1479  156.3173 H   0  0  0  0  0  0  0  0  0  0  0  0  # atno 8010 bound_to 7997
  140.0225  143.5329  152.2214 H   0  0  0  0  0  0  0  0  0  0  0  0  # atno 10167 bound_to 10162
  157.6713  131.0822  150.5824 H   0  0  0  0  0  0  0  0  0  0  0  0  # atno 10718 bound_to 10713
  154.2943  135.6247  153.5398 H   0  0  0  0  0  0  0  0  0  0  0  0  # atno 10763 bound_to 10752
  152.9848  135.5663  154.5355 H   0  0  0  0  0  0  0  0  0  0  0  0  # atno 10764 bound_to 10752
  154.4972  135.2870  155.1426 H   0  0  0  0  0  0  0  0  0  0  0  0  # atno 10765 bound_to 10752
  141.1315  133.8308  157.0948 H   0  0  0  0  0  0  0  0  0  0  0  0  # atno 11005 bound_to 11000
  146.2928  139.7188  142.9149 LP  0  0  0  0  0  0  0  0  0  0  0  0  # atno 17320 bound_to 7965
  145.4137  141.0399  143.3003 LP  0  0  0  0  0  0  0  0  0  0  0  0  # atno 17321 bound_to 7965
  139.6130  144.7613  151.2909 LP  0  0  0  0  0  0  0  0  0  0  0  0  # atno 17342 bound_to 10162
  140.7336  143.6789  150.8017 LP  0  0  0  0  0  0  0  0  0  0  0  0  # atno 17343 bound_to 10162
  156.6125  130.4384  149.5853 LP  0  0  0  0  0  0  0  0  0  0  0  0  # atno 17370 bound_to 10713
  156.2419  130.6856  151.1564 LP  0  0  0  0  0  0  0  0  0  0  0  0  # atno 17371 bound_to 10713
  140.0370  134.9873  157.0889 LP  0  0  0  0  0  0  0  0  0  0  0  0  # atno 17394 bound_to 11000
  140.4195  134.1895  155.7164 LP  0  0  0  0  0  0  0  0  0  0  0  0  # atno 17395 bound_to 11000

$$$$
