AV-unprocessed.smi:1496|AV-procd|sdf|6057|dock10
  -GOLD-   22720 6173D 1   1.00000     0.00000
 Structure written by MMmdl.
 43 44  0  0  0  0  0  0  0  0  2 V2000
  146.0301  136.6429  155.1215 C   0  0  0  0  0  0  0  0  0  0  0  0
  145.7071  137.7186  154.0721 C   0  0  0  0  0  0  0  0  0  0  0  0
  144.1751  137.8245  153.9126 C   0  0  0  0  0  0  0  0  0  0  0  0
  146.3400  139.0665  154.4913 C   0  0  0  0  0  0  0  0  0  0  0  0
  146.2954  140.0583  153.3901 N   0  3  1  0  0  0  0  0  0  0  0  0
  146.8322  141.3802  153.7981 C   0  0  0  0  0  0  0  0  0  0  0  0
  148.3669  141.4521  153.6816 C   0  0  0  0  0  0  0  0  0  0  0  0
  148.9608  142.1057  154.8423 N   0  0  0  0  0  0  0  0  0  0  0  0
  149.9916  141.6205  155.5491 C   0  0  0  0  0  0  0  0  0  0  0  0
  150.5494  140.5558  155.2842 O   0  0  0  0  0  0  0  0  0  0  0  0
  150.3292  142.4496  156.5516 N   0  0  0  0  0  0  0  0  0  0  0  0
  151.3525  142.2897  157.5249 C   0  0  0  0  0  0  0  0  0  0  0  0
  151.8006  143.3193  158.3880 C   0  0  0  0  0  0  0  0  0  0  0  0
  152.8385  143.0399  159.2978 C   0  0  0  0  0  0  0  0  0  0  0  0
  153.3945  141.7461  159.3079 C   0  0  0  0  0  0  0  0  0  0  0  0
  152.9867  140.7593  158.4823 N   0  0  0  0  0  0  0  0  0  0  0  0
  151.9922  141.0348  157.6119 C   0  0  0  0  0  0  0  0  0  0  0  0
  146.9466  139.5054  152.1788 C   0  0  0  0  0  0  0  0  0  0  0  0
  146.2831  138.1811  151.7757 C   0  0  0  0  0  0  0  0  0  0  0  0
  146.3213  137.2625  152.8637 O   0  0  0  0  0  0  0  0  0  0  0  0
  145.6132  136.9002  156.0956 H   0  0  0  0  0  0  0  0  0  0  0  0
  147.1067  136.5200  155.2448 H   0  0  0  0  0  0  0  0  0  0  0  0
  145.6218  135.6738  154.8322 H   0  0  0  0  0  0  0  0  0  0  0  0
  143.7003  138.0638  154.8646 H   0  0  0  0  0  0  0  0  0  0  0  0
  143.7505  136.8831  153.5622 H   0  0  0  0  0  0  0  0  0  0  0  0
  143.8803  138.6020  153.2085 H   0  0  0  0  0  0  0  0  0  0  0  0
  145.8228  139.4596  155.3680 H   0  0  0  0  0  0  0  0  0  0  0  0
  147.3816  138.9188  154.7822 H   0  0  0  0  0  0  0  0  0  0  0  0
  146.4097  142.1525  153.1535 H   0  0  0  0  0  0  0  0  0  0  0  0
  146.5011  141.6112  154.8118 H   0  0  0  0  0  0  0  0  0  0  0  0
  148.8072  140.4613  153.5673 H   0  0  0  0  0  0  0  0  0  0  0  0
  148.6454  142.0194  152.7931 H   0  0  0  0  0  0  0  0  0  0  0  0
  148.5636  142.9907  155.1233 H   0  0  0  0  0  0  0  0  0  0  0  0
  149.8302  143.3264  156.5910 H   0  0  0  0  0  0  0  0  0  0  0  0
  151.3839  144.3140  158.3614 H   0  0  0  0  0  0  0  0  0  0  0  0
  153.2032  143.8023  159.9702 H   0  0  0  0  0  0  0  0  0  0  0  0
  154.1918  141.4991  159.9933 H   0  0  0  0  0  0  0  0  0  0  0  0
  151.6937  140.2224  156.9654 H   0  0  0  0  0  0  0  0  0  0  0  0
  146.8771  140.2070  151.3487 H   0  0  0  0  0  0  0  0  0  0  0  0
  148.0086  139.3461  152.3729 H   0  0  0  0  0  0  0  0  0  0  0  0
  145.2593  138.3422  151.4384 H   0  0  0  0  0  0  0  0  0  0  0  0
  146.8172  137.7411  150.9333 H   0  0  0  0  0  0  0  0  0  0  0  0
  145.3190  140.1955  153.1706 H   0  0  0  0  0  0  0  0  0  0  0  0
  1  2  1  0  0  0  0
  1 21  1  0  0  0  0
  1 22  1  0  0  0  0
  1 23  1  0  0  0  0
  2 20  1  0  0  0  0
  2  3  1  0  0  0  0
  2  4  1  0  0  0  0
  3 24  1  0  0  0  0
  3 25  1  0  0  0  0
  3 26  1  0  0  0  0
  4  5  1  0  0  0  0
  4 27  1  0  0  0  0
  4 28  1  0  0  0  0
  5  6  1  0  0  0  0
  5 18  1  0  0  0  0
  5 43  1  0  0  0  0
  6  7  1  0  0  0  0
  6 29  1  0  0  0  0
  6 30  1  0  0  0  0
  7  8  1  0  0  0  0
  7 31  1  0  0  0  0
  7 32  1  0  0  0  0
  8  9  1  0  0  0  0
  8 33  1  0  0  0  0
  9 10  2  0  0  0  0
  9 11  1  0  0  0  0
 11 12  1  0  0  0  0
 11 34  1  0  0  0  0
 12 17  1  0  0  0  0
 12 13  2  0  0  0  0
 13 14  1  0  0  0  0
 13 35  1  0  0  0  0
 14 15  2  0  0  0  0
 14 36  1  0  0  0  0
 15 16  1  0  0  0  0
 15 37  1  0  0  0  0
 16 17  2  0  0  0  0
 17 38  1  0  0  0  0
 18 19  1  0  0  0  0
 18 39  1  0  0  0  0
 18 40  1  0  0  0  0
 19 20  1  0  0  0  0
 19 41  1  0  0  0  0
 19 42  1  0  0  0  0
M  CHG  1   5   1
M  END
> <s_m_source_file>
AV-unprocessed.smi

> <i_m_source_file_index>
1496

> <i_lp_mmshare_version>
43012

> <i_f3d_flags>
0

> <s_epik_input>
W0NIM11DMShbQ0gzXSlbQ0gyXU4oW0NIMl1bQ0gyXU8xKVtDSDJdW0NIMl1bTkhdQyg9TylbTkhdYzJbY0hdW2NIXVtjSF1uW2NIXTI=

> <s_epik_cmdline>
J2VwaWtfcHl0aG9uJywgJy1waCcsICc3LjAnLCAnLXRuJywgJzgnLCAnLW1hJywgJzIwMCcsICctbWV0YWxfYmluZGluZycsICctaW1hZScsICc8aW5maWxlLm1hZT4nLCAnLW9tYWUnLCAnPG91dGZpbGUubWFlPic=

> <r_epik_Ionization_Penalty>
0.606681

> <r_epik_Ionization_Penalty_Charging>
0.602531

> <r_epik_Ionization_Penalty_Neutral>
0.00415082

> <r_epik_State_Penalty>
0.607427

> <r_epik_Charging_Adjusted_Penalty>
1.20996

> <i_epik_Tot_Q>
1

> <i_epik_Tot_abs_Q>
1

> <r_epik_Metal_State_Penalty>
0.604583

> <b_epik_Metal_Only>
0

> <s_lp_Force_Field>
OPLS_2005

> <r_lp_Energy>
21.2927

> <b_lp_Chiralities_Consistent>
1

> <s_lp_Variant>
AV-unprocessed.smi:1496-3

> <Gold.Version>
5.8.1

> <Gold.Id.Protein>
6NUR|6NUR_protein|mol2

> <Gold.PLP.Fitness>
46.0465

> <Gold.PLP.PLP>
-32.1419

> <Gold.PLP.part.hbond>
-4.7564

> <Gold.PLP.part.metal>
0.0000

> <Gold.PLP.part.buried>
0.2546

> <Gold.PLP.part.nonpolar>
-26.3764

> <Gold.PLP.part.repulsive>
0.5150

> <Gold.PLP.ligand.clash>
0.0000

> <Gold.PLP.ligand.torsion>
0.6023

> <Gold.PLP.Chemscore.Hbond>
5.0314

> <Gold.PLP.Chemscore.CHOScore>
0.0000

> <Gold.PLP.Chemscore.Metal>
0.0000

> <Gold.Chemscore.Hbonds>
donor molecule, donor type, donor heavy atom, donor atom, acceptor molecule, acceptor atom, score
      L1  H     5    43       P1 10175  2.00
      L1  H     8    33       P1  8028  0.96
      L1  H    11    34       P1  8028  0.98
      P1  H  7989  7998       L1    10  0.78
      P1  H  7997  8009       L1    16  0.28

> <Gold.PLP.Chemscore.Internal.Correction>
0.0151

> <Gold.Rescore>
     Score         DG    S(hbond)    S(metal)    S(lipo)     H(rot)  DE(clash)    DE(int)     intcor
     19.95     -22.10       3.07        0.00      87.25       1.50       0.14       2.01       ----

> <Gold.Chemscore.Fitness>
19.9499

> <Gold.Chemscore.DG>
-22.0982

> <Gold.Chemscore.ZeroCoef>
-5.4800

> <Gold.Chemscore.Hbond>
3.0696

> <Gold.Chemscore.Metal>
0.0000

> <Gold.Chemscore.Lipo>
87.2504

> <Gold.Chemscore.Internal_Hbond>
0.0000

> <Gold.Chemscore.DEClash>
0.1408

> <Gold.Chemscore.DEInternal>
2.0075

> <Gold.Chemscore.Rot>
1.5010

> <Gold.Chemscore.Internal.Correction>
   9.000000E+99

> <Gold.Chemscore.Hbonds>
donor molecule, donor type, donor heavy atom, donor atom, acceptor molecule, acceptor atom, score
      L1  H     5    43       P1 10175  1.00
      L1  H     8    33       P1  8028  0.92
      L1  H    11    34       P1  8028  0.93
      P1  H  7989  7998       L1    10  0.41
      P1  H  7997  8009       L1    16  0.07

> <Gold.Chemscore.Hbond.Weighted>
-10.2525

> <Gold.Chemscore.Metal.Weighted>
-0.0000

> <Gold.Chemscore.Lipo.Weighted>
-10.2083

> <Gold.Chemscore.Internal_Hbond.Weighted>
0.0000

> <Gold.Chemscore.DEClash.Weighted>
0.1408

> <Gold.Chemscore.DEInternal.Weighted>
2.0075

> <Gold.Chemscore.Rot.Weighted>
3.8426

> <Gold.Chemscore.Internal.Correction.Weighted>
   9.000000E+99

> <Gold.Protein.RotatedTorsions>
[ 6907 6896 6895 6894 ] final   24.44 input  -60.11 | X-H torsion
[ 7974 7965 7964 7962 ] final   48.60 input  175.53 | X-H torsion
[ 8008 7997 7996 7995 ] final  152.16 input   59.86 | X-H torsion
[ 10167 10162 10161 10158 ] final   44.16 input  -65.29 | X-H torsion
[ 10718 10713 10712 10709 ] final   47.67 input   66.30 | X-H torsion
[ 10763 10752 10751 10750 ] final   50.51 input  -60.55 | X-H torsion
[ 11005 11000 10999 10996 ] final   77.55 input  -57.11 | X-H torsion

> <Gold.Protein.ActiveResidues>
 VAL166  LYS551  ARG553  GLY616  TRP617  ASP618  TYR619  PRO620  LYS621  CYS622 
 ASP623  PHE694  ASN695  SER759  ASP760  ASP761  ALA762  ILE779  LEU786  VAL792 
 PHE793  MET794  SER795  GLU796  ALA797  LYS798  CYS799  TRP800  GLU811  SER814 

> <Gold.Protein.RotatedAtoms>
  151.9575  135.0139  160.0545 H   0  0  0  0  0  0  0  0  0  0  0  0  # atno 6907 bound_to 6896
  152.1898  133.4760  159.5010 H   0  0  0  0  0  0  0  0  0  0  0  0  # atno 6908 bound_to 6896
  150.6933  134.1644  159.4231 H   0  0  0  0  0  0  0  0  0  0  0  0  # atno 6909 bound_to 6896
  146.0189  139.4628  142.9910 H   0  0  0  0  0  0  0  0  0  0  0  0  # atno 7974 bound_to 7965
  156.2642  140.2028  156.6289 H   0  0  0  0  0  0  0  0  0  0  0  0  # atno 8008 bound_to 7997
  154.6698  140.0551  157.0177 H   0  0  0  0  0  0  0  0  0  0  0  0  # atno 8009 bound_to 7997
  155.1154  140.3219  155.4514 H   0  0  0  0  0  0  0  0  0  0  0  0  # atno 8010 bound_to 7997
  140.3371  144.2516  150.6160 H   0  0  0  0  0  0  0  0  0  0  0  0  # atno 10167 bound_to 10162
  157.4609  130.8196  149.7885 H   0  0  0  0  0  0  0  0  0  0  0  0  # atno 10718 bound_to 10713
  152.9784  135.5876  154.4265 H   0  0  0  0  0  0  0  0  0  0  0  0  # atno 10763 bound_to 10752
  154.3883  135.2767  155.2172 H   0  0  0  0  0  0  0  0  0  0  0  0  # atno 10764 bound_to 10752
  154.4055  135.6093  153.5976 H   0  0  0  0  0  0  0  0  0  0  0  0  # atno 10765 bound_to 10752
  139.9250  134.7692  156.1536 H   0  0  0  0  0  0  0  0  0  0  0  0  # atno 11005 bound_to 11000
  145.7225  141.0070  143.1395 LP  0  0  0  0  0  0  0  0  0  0  0  0  # atno 17320 bound_to 7965
  144.6982  139.8888  143.7452 LP  0  0  0  0  0  0  0  0  0  0  0  0  # atno 17321 bound_to 7965
  140.5343  143.2236  151.8188 LP  0  0  0  0  0  0  0  0  0  0  0  0  # atno 17342 bound_to 10162
  139.4846  144.4680  151.9459 LP  0  0  0  0  0  0  0  0  0  0  0  0  # atno 17343 bound_to 10162
  156.0028  130.3871  150.2541 LP  0  0  0  0  0  0  0  0  0  0  0  0  # atno 17370 bound_to 10713
  157.0719  131.0119  151.3187 LP  0  0  0  0  0  0  0  0  0  0  0  0  # atno 17371 bound_to 10713
  141.0800  133.6758  156.2317 LP  0  0  0  0  0  0  0  0  0  0  0  0  # atno 17394 bound_to 11000
  140.6363  134.5212  157.5565 LP  0  0  0  0  0  0  0  0  0  0  0  0  # atno 17395 bound_to 11000

$$$$
