AV-unprocessed.smi:2453|AV-procd|sdf|9690|dock2
  -GOLD-   2272013323D 1   1.00000     0.00000
 Structure written by MMmdl.
 40 41  0  0  0  0  0  0  0  0  1 V2000
  147.8763  132.9033  152.0810 C   0  0  0  0  0  0  0  0  0  0  0  0
  146.4594  132.9562  151.5371 C   0  0  0  0  0  0  0  0  0  0  0  0
  145.8487  131.7806  151.0494 C   0  0  0  0  0  0  0  0  0  0  0  0
  144.5948  131.7413  150.5534 N   0  0  0  0  0  0  0  0  0  0  0  0
  143.8926  132.8924  150.5304 C   0  0  0  0  0  0  0  0  0  0  0  0
  144.4022  134.1217  150.9915 C   0  0  0  0  0  0  0  0  0  0  0  0
  145.7234  134.1654  151.4994 C   0  0  0  0  0  0  0  0  0  0  0  0
  146.3250  135.3491  152.0141 N   0  0  0  0  0  0  0  0  0  0  0  0
  145.7419  136.3996  152.6170 C   0  0  0  0  0  0  0  0  0  0  0  0
  144.5313  136.5441  152.7862 O   0  0  0  0  0  0  0  0  0  0  0  0
  146.6559  137.3003  153.0059 N   0  0  0  0  0  0  0  0  0  0  0  0
  146.3648  138.5618  153.6855 C   0  0  1  0  0  0  0  0  0  0  0  0
  146.7961  138.4670  155.1651 C   0  0  0  0  0  0  0  0  0  0  0  0
  146.5734  139.7913  155.9092 C   0  0  0  0  0  0  0  0  0  0  0  0
  147.3040  140.9453  155.2098 C   0  0  0  0  0  0  0  0  0  0  0  0
  146.8664  141.0636  153.7423 C   0  0  0  0  0  0  0  0  0  0  0  0
  147.0747  139.7419  152.9708 C   0  0  2  0  0  0  0  0  0  0  0  0
  146.6933  139.8891  151.4804 C   0  0  0  0  0  0  0  0  0  0  0  0
  146.6335  138.6371  150.8281 O   0  0  0  0  0  0  0  0  0  0  0  0
  148.2929  131.8984  152.0065 H   0  0  0  0  0  0  0  0  0  0  0  0
  147.8914  133.1982  153.1305 H   0  0  0  0  0  0  0  0  0  0  0  0
  148.5239  133.5790  151.5216 H   0  0  0  0  0  0  0  0  0  0  0  0
  146.3799  130.8401  151.0595 H   0  0  0  0  0  0  0  0  0  0  0  0
  142.8880  132.8317  150.1390 H   0  0  0  0  0  0  0  0  0  0  0  0
  143.7684  134.9941  150.9588 H   0  0  0  0  0  0  0  0  0  0  0  0
  147.3209  135.4221  151.8677 H   0  0  0  0  0  0  0  0  0  0  0  0
  147.6278  137.1004  152.8205 H   0  0  0  0  0  0  0  0  0  0  0  0
  145.2884  138.7413  153.6525 H   0  0  0  0  0  0  0  0  0  0  0  0
  146.2436  137.6725  155.6684 H   0  0  0  0  0  0  0  0  0  0  0  0
  147.8504  138.1934  155.2254 H   0  0  0  0  0  0  0  0  0  0  0  0
  145.5057  140.0091  155.9579 H   0  0  0  0  0  0  0  0  0  0  0  0
  146.9188  139.7017  156.9394 H   0  0  0  0  0  0  0  0  0  0  0  0
  147.1060  141.8814  155.7328 H   0  0  0  0  0  0  0  0  0  0  0  0
  148.3815  140.7832  155.2611 H   0  0  0  0  0  0  0  0  0  0  0  0
  145.8157  141.3537  153.7057 H   0  0  0  0  0  0  0  0  0  0  0  0
  147.4240  141.8681  153.2617 H   0  0  0  0  0  0  0  0  0  0  0  0
  148.1457  139.5331  152.9939 H   0  0  0  0  0  0  0  0  0  0  0  0
  145.7212  140.3743  151.3875 H   0  0  0  0  0  0  0  0  0  0  0  0
  147.4076  140.5234  150.9552 H   0  0  0  0  0  0  0  0  0  0  0  0
  145.7612  138.5172  150.4844 H   0  0  0  0  0  0  0  0  0  0  0  0
  1  2  1  0  0  0  0
  1 20  1  0  0  0  0
  1 21  1  0  0  0  0
  1 22  1  0  0  0  0
  2  7  1  0  0  0  0
  2  3  2  0  0  0  0
  3  4  1  0  0  0  0
  3 23  1  0  0  0  0
  4  5  2  0  0  0  0
  5  6  1  0  0  0  0
  5 24  1  0  0  0  0
  6  7  2  0  0  0  0
  6 25  1  0  0  0  0
  7  8  1  0  0  0  0
  8  9  1  0  0  0  0
  8 26  1  0  0  0  0
  9 10  2  0  0  0  0
  9 11  1  0  0  0  0
 11 12  1  0  0  0  0
 11 27  1  0  0  0  0
 12 17  1  0  0  0  0
 12 13  1  0  0  0  0
 12 28  1  0  0  0  0
 13 14  1  0  0  0  0
 13 29  1  0  0  0  0
 13 30  1  0  0  0  0
 14 15  1  0  0  0  0
 14 31  1  0  0  0  0
 14 32  1  0  0  0  0
 15 16  1  0  0  0  0
 15 33  1  0  0  0  0
 15 34  1  0  0  0  0
 16 17  1  0  0  0  0
 16 35  1  0  0  0  0
 16 36  1  0  0  0  0
 17 18  1  0  0  0  0
 17 37  1  0  0  0  0
 18 19  1  0  0  0  0
 18 38  1  0  0  0  0
 18 39  1  0  0  0  0
 19 40  1  0  0  0  0
M  END
> <s_m_source_file>
AV-unprocessed.smi

> <i_m_source_file_index>
2453

> <i_lp_mmshare_version>
43012

> <i_f3d_flags>
0

> <s_epik_input>
W0NIM11jMVtjSF1uW2NIXVtjSF1jMVtOSF1DKD1PKVtOSF1bQ0BASF0yW0NIMl1bQ0gyXVtDSDJdW0NIMl1bQ0BIXTJbQ0gyXVtPSF0=

> <s_epik_cmdline>
J2VwaWtfcHl0aG9uJywgJy1waCcsICc3LjAnLCAnLXRuJywgJzgnLCAnLW1hJywgJzIwMCcsICctbWV0YWxfYmluZGluZycsICctaW1hZScsICc8aW5maWxlLm1hZT4nLCAnLW9tYWUnLCAnPG91dGZpbGUubWFlPic=

> <r_epik_Ionization_Penalty>
0.210691

> <r_epik_Ionization_Penalty_Charging>
0

> <r_epik_Ionization_Penalty_Neutral>
0.210691

> <r_epik_State_Penalty>
0.200732

> <r_epik_Charging_Adjusted_Penalty>
0.200732

> <i_epik_Tot_Q>
0

> <i_epik_Tot_abs_Q>
0

> <r_epik_Metal_State_Penalty>
0.147519

> <b_epik_Metal_Only>
0

> <s_lp_Force_Field>
OPLS_2005

> <r_lp_Energy>
20.8004

> <b_lp_Chiralities_Consistent>
1

> <s_lp_Variant>
AV-unprocessed.smi:2453-4

> <Gold.Version>
5.8.1

> <Gold.Id.Protein>
6NUR|6NUR_protein|mol2

> <Gold.PLP.Fitness>
44.3596

> <Gold.PLP.PLP>
-28.6916

> <Gold.PLP.part.hbond>
-4.5144

> <Gold.PLP.part.metal>
0.0000

> <Gold.PLP.part.buried>
0.5202

> <Gold.PLP.part.nonpolar>
-24.3981

> <Gold.PLP.part.repulsive>
0.3539

> <Gold.PLP.ligand.clash>
0.0000

> <Gold.PLP.ligand.torsion>
0.4155

> <Gold.PLP.Chemscore.Hbond>
3.8713

> <Gold.PLP.Chemscore.CHOScore>
1.6225

> <Gold.PLP.Chemscore.Metal>
0.0000

> <Gold.Chemscore.Hbonds>
donor molecule, donor type, donor heavy atom, donor atom, acceptor molecule, acceptor atom, score
      L1  H     8    26       P1  7948  1.00
      L1  H    11    27       P1  7948  1.00
      L1  H    19    40       P1 10171  1.00
      P1  H  7954  7966       L1    19  0.90
      L1  C     3    23       P1 10747  0.43
      L1  C     5    24       P1 10186  1.00

> <Gold.PLP.Chemscore.Internal.Correction>
0.0177

> <Gold.Rescore>
     Score         DG    S(hbond)    S(metal)    S(lipo)     H(rot)  DE(clash)    DE(int)     intcor
     19.47     -22.72       3.79        0.00      77.60       1.75       1.02       2.23       ----

> <Gold.Chemscore.Fitness>
19.4747

> <Gold.Chemscore.DG>
-22.7238

> <Gold.Chemscore.ZeroCoef>
-5.4800

> <Gold.Chemscore.Hbond>
3.7854

> <Gold.Chemscore.Metal>
0.0000

> <Gold.Chemscore.Lipo>
77.5964

> <Gold.Chemscore.Internal_Hbond>
0.0000

> <Gold.Chemscore.DEClash>
1.0188

> <Gold.Chemscore.DEInternal>
2.2303

> <Gold.Chemscore.Rot>
1.7493

> <Gold.Chemscore.Internal.Correction>
   9.000000E+99

> <Gold.Chemscore.Hbonds>
donor molecule, donor type, donor heavy atom, donor atom, acceptor molecule, acceptor atom, score
      L1  H     8    26       P1  7948  0.99
      L1  H    11    27       P1  7948  0.95
      L1  H    19    40       P1 10171  0.97
      P1  H  7954  7966       L1    19  0.84

> <Gold.Chemscore.Hbond.Weighted>
-12.6432

> <Gold.Chemscore.Metal.Weighted>
-0.0000

> <Gold.Chemscore.Lipo.Weighted>
-9.0788

> <Gold.Chemscore.Internal_Hbond.Weighted>
0.0000

> <Gold.Chemscore.DEClash.Weighted>
1.0188

> <Gold.Chemscore.DEInternal.Weighted>
2.2303

> <Gold.Chemscore.Rot.Weighted>
4.4782

> <Gold.Chemscore.Internal.Correction.Weighted>
   9.000000E+99

> <Gold.Protein.RotatedTorsions>
[ 6907 6896 6895 6894 ] final   78.27 input  -60.11 | X-H torsion
[ 7974 7965 7964 7962 ] final  -64.90 input  175.53 | X-H torsion
[ 8008 7997 7996 7995 ] final -111.72 input   59.86 | X-H torsion
[ 10167 10162 10161 10158 ] final   73.27 input  -65.29 | X-H torsion
[ 10718 10713 10712 10709 ] final    6.62 input   66.30 | X-H torsion
[ 10763 10752 10751 10750 ] final -127.85 input  -60.55 | X-H torsion
[ 11005 11000 10999 10996 ] final   41.12 input  -57.11 | X-H torsion

> <Gold.Protein.ActiveResidues>
 VAL166  LYS551  ARG553  GLY616  TRP617  ASP618  TYR619  PRO620  LYS621  CYS622 
 ASP623  PHE694  ASN695  SER759  ASP760  ASP761  ALA762  ILE779  LEU786  VAL792 
 PHE793  MET794  SER795  GLU796  ALA797  LYS798  CYS799  TRP800  GLU811  SER814 

> <Gold.Protein.RotatedAtoms>
  152.5152  134.3690  159.9311 H   0  0  0  0  0  0  0  0  0  0  0  0  # atno 6907 bound_to 6896
  151.3644  133.3871  159.2701 H   0  0  0  0  0  0  0  0  0  0  0  0  # atno 6908 bound_to 6896
  150.9626  134.9031  159.7798 H   0  0  0  0  0  0  0  0  0  0  0  0  # atno 6909 bound_to 6896
  145.7609  140.8862  143.0430 H   0  0  0  0  0  0  0  0  0  0  0  0  # atno 7974 bound_to 7965
  154.9941  140.0395  157.2332 H   0  0  0  0  0  0  0  0  0  0  0  0  # atno 8008 bound_to 7997
  154.7602  140.2783  155.6197 H   0  0  0  0  0  0  0  0  0  0  0  0  # atno 8009 bound_to 7997
  156.2902  140.2630  156.2378 H   0  0  0  0  0  0  0  0  0  0  0  0  # atno 8010 bound_to 7997
  140.0263  144.5501  150.7542 H   0  0  0  0  0  0  0  0  0  0  0  0  # atno 10167 bound_to 10162
  156.9249  130.5804  149.5648 H   0  0  0  0  0  0  0  0  0  0  0  0  # atno 10718 bound_to 10713
  154.8754  135.3948  154.3661 H   0  0  0  0  0  0  0  0  0  0  0  0  # atno 10763 bound_to 10752
  153.4427  135.7027  153.6164 H   0  0  0  0  0  0  0  0  0  0  0  0  # atno 10764 bound_to 10752
  153.4738  135.3784  155.2374 H   0  0  0  0  0  0  0  0  0  0  0  0  # atno 10765 bound_to 10752
  140.1864  134.4040  155.8171 H   0  0  0  0  0  0  0  0  0  0  0  0  # atno 11005 bound_to 11000
  144.6830  139.9722  143.7482 LP  0  0  0  0  0  0  0  0  0  0  0  0  # atno 17320 bound_to 7965
  146.0265  139.3296  143.0781 LP  0  0  0  0  0  0  0  0  0  0  0  0  # atno 17321 bound_to 7965
  140.7321  143.2702  151.3913 LP  0  0  0  0  0  0  0  0  0  0  0  0  # atno 17342 bound_to 10162
  139.6106  144.1106  152.2295 LP  0  0  0  0  0  0  0  0  0  0  0  0  # atno 17343 bound_to 10162
  156.0474  130.5548  150.8911 LP  0  0  0  0  0  0  0  0  0  0  0  0  # atno 17370 bound_to 10713
  157.5884  131.0945  150.9159 LP  0  0  0  0  0  0  0  0  0  0  0  0  # atno 17371 bound_to 10713
  141.2225  133.7025  156.8020 LP  0  0  0  0  0  0  0  0  0  0  0  0  # atno 17394 bound_to 11000
  140.2209  134.8758  157.3375 LP  0  0  0  0  0  0  0  0  0  0  0  0  # atno 17395 bound_to 11000

$$$$
