AV-unprocessed.smi:3164|AV-procd|sdf|12083|dock6
  -GOLD-   2272017513D 1   1.00000     0.00000
 Structure written by MMmdl.
 39 40  0  0  0  0  0  0  0  0  2 V2000
  150.6598  139.4762  154.9364 C   0  0  0  0  0  0  0  0  0  0  0  0
  149.2874  139.9122  154.7244 N   0  0  0  0  0  0  0  0  0  0  0  0
  149.2263  141.3022  154.2929 C   0  0  0  0  0  0  0  0  0  0  0  0
  147.7771  141.7588  154.0549 C   0  0  0  0  0  0  0  0  0  0  0  0
  147.1504  140.8880  153.1170 O   0  0  0  0  0  0  0  0  0  0  0  0
  147.1405  139.5249  153.5371 C   0  0  1  0  0  0  0  0  0  0  0  0
  146.4324  138.6928  152.4593 C   0  0  0  0  0  0  0  0  0  0  0  0
  146.5997  137.2484  152.7115 N   0  3  0  0  0  0  0  0  0  0  0  0
  145.6099  136.3951  152.0232 C   0  0  0  0  0  0  0  0  0  0  0  0
  145.6356  134.9549  152.5593 C   0  0  0  0  0  0  0  0  0  0  0  0
  145.3309  133.9196  151.4908 C   0  0  0  0  0  0  0  0  0  0  0  0
  144.0001  133.6482  151.1066 C   0  0  0  0  0  0  0  0  0  0  0  0
  143.7732  132.6715  150.1172 C   0  0  0  0  0  0  0  0  0  0  0  0
  144.8798  132.0067  149.5550 C   0  0  0  0  0  0  0  0  0  0  0  0
  146.1693  132.3495  150.0079 C   0  0  0  0  0  0  0  0  0  0  0  0
  146.3973  133.2834  150.9568 N   0  0  0  0  0  0  0  0  0  0  0  0
  148.5968  139.0682  153.7581 C   0  0  0  0  0  0  0  0  0  0  0  0
  151.1530  140.1012  155.6818 H   0  0  0  0  0  0  0  0  0  0  0  0
  151.2381  139.5291  154.0129 H   0  0  0  0  0  0  0  0  0  0  0  0
  150.6875  138.4472  155.2962 H   0  0  0  0  0  0  0  0  0  0  0  0
  149.6921  141.9438  155.0420 H   0  0  0  0  0  0  0  0  0  0  0  0
  149.7993  141.4301  153.3731 H   0  0  0  0  0  0  0  0  0  0  0  0
  147.2146  141.7634  154.9899 H   0  0  0  0  0  0  0  0  0  0  0  0
  147.7585  142.7765  153.6649 H   0  0  0  0  0  0  0  0  0  0  0  0
  146.5900  139.4409  154.4764 H   0  0  0  0  0  0  0  0  0  0  0  0
  145.3705  138.9402  152.4233 H   0  0  0  0  0  0  0  0  0  0  0  0
  146.8521  138.9269  151.4800 H   0  0  0  0  0  0  0  0  0  0  0  0
  147.5226  136.9737  152.4059 H   0  0  0  0  0  0  0  0  0  0  0  0
  144.6150  136.8196  152.1619 H   0  0  0  0  0  0  0  0  0  0  0  0
  145.8124  136.3993  150.9513 H   0  0  0  0  0  0  0  0  0  0  0  0
  146.6077  134.7419  153.0060 H   0  0  0  0  0  0  0  0  0  0  0  0
  144.9053  134.8515  153.3631 H   0  0  0  0  0  0  0  0  0  0  0  0
  143.1705  134.1745  151.5557 H   0  0  0  0  0  0  0  0  0  0  0  0
  142.7693  132.4367  149.7957 H   0  0  0  0  0  0  0  0  0  0  0  0
  144.7445  131.2534  148.7928 H   0  0  0  0  0  0  0  0  0  0  0  0
  147.0402  131.8599  149.5983 H   0  0  0  0  0  0  0  0  0  0  0  0
  149.1311  139.0846  152.8065 H   0  0  0  0  0  0  0  0  0  0  0  0
  148.6057  138.0333  154.1025 H   0  0  0  0  0  0  0  0  0  0  0  0
  146.5289  137.0887  153.7066 H   0  0  0  0  0  0  0  0  0  0  0  0
  1  2  1  0  0  0  0
  1 18  1  0  0  0  0
  1 19  1  0  0  0  0
  1 20  1  0  0  0  0
  2 17  1  0  0  0  0
  2  3  1  0  0  0  0
  3  4  1  0  0  0  0
  3 21  1  0  0  0  0
  3 22  1  0  0  0  0
  4  5  1  0  0  0  0
  4 23  1  0  0  0  0
  4 24  1  0  0  0  0
  5  6  1  0  0  0  0
  6  7  1  0  0  0  0
  6 17  1  0  0  0  0
  6 25  1  0  0  0  0
  7  8  1  0  0  0  0
  7 26  1  0  0  0  0
  7 27  1  0  0  0  0
  8  9  1  0  0  0  0
  8 28  1  0  0  0  0
  8 39  1  0  0  0  0
  9 10  1  0  0  0  0
  9 29  1  0  0  0  0
  9 30  1  0  0  0  0
 10 11  1  0  0  0  0
 10 31  1  0  0  0  0
 10 32  1  0  0  0  0
 11 16  1  0  0  0  0
 11 12  2  0  0  0  0
 12 13  1  0  0  0  0
 12 33  1  0  0  0  0
 13 14  2  0  0  0  0
 13 34  1  0  0  0  0
 14 15  1  0  0  0  0
 14 35  1  0  0  0  0
 15 16  2  0  0  0  0
 15 36  1  0  0  0  0
 17 37  1  0  0  0  0
 17 38  1  0  0  0  0
M  CHG  1   8   1
M  END
> <s_m_source_file>
AV-unprocessed.smi

> <i_m_source_file_index>
3164

> <i_lp_mmshare_version>
43012

> <i_f3d_flags>
0

> <s_epik_input>
W0NIM11OMVtDSDJdW0NIMl1PW0NASF0oW0NIMl0xKVtDSDJdW05IXVtDSDJdW0NIMl1jMltjSF1bY0hdW2NIXVtjSF1uMg==

> <s_epik_cmdline>
J2VwaWtfcHl0aG9uJywgJy1waCcsICc3LjAnLCAnLXRuJywgJzgnLCAnLW1hJywgJzIwMCcsICctbWV0YWxfYmluZGluZycsICctaW1hZScsICc8aW5maWxlLm1hZT4nLCAnLW9tYWUnLCAnPG91dGZpbGUubWFlPic=

> <r_epik_Ionization_Penalty>
0.584284

> <r_epik_Ionization_Penalty_Charging>
0.00270218

> <r_epik_Ionization_Penalty_Neutral>
0.581582

> <r_epik_State_Penalty>
0.593163

> <r_epik_Charging_Adjusted_Penalty>
0.595865

> <i_epik_Tot_Q>
1

> <i_epik_Tot_abs_Q>
1

> <r_epik_Metal_State_Penalty>
0.593163

> <b_epik_Metal_Only>
0

> <s_lp_Force_Field>
OPLS_2005

> <r_lp_Energy>
22.7337

> <b_lp_Chiralities_Consistent>
1

> <s_lp_Variant>
AV-unprocessed.smi:3164-5

> <Gold.Version>
5.8.1

> <Gold.Id.Protein>
6NUR|6NUR_protein|mol2

> <Gold.PLP.Fitness>
41.0364

> <Gold.PLP.PLP>
-33.3617

> <Gold.PLP.part.hbond>
-1.0000

> <Gold.PLP.part.metal>
0.0000

> <Gold.PLP.part.buried>
-1.9864

> <Gold.PLP.part.nonpolar>
-30.9661

> <Gold.PLP.part.repulsive>
0.5069

> <Gold.PLP.ligand.clash>
0.0000

> <Gold.PLP.ligand.torsion>
0.6875

> <Gold.PLP.Chemscore.Hbond>
2.0000

> <Gold.PLP.Chemscore.CHOScore>
1.0000

> <Gold.PLP.Chemscore.Metal>
0.0000

> <Gold.Chemscore.Hbonds>
donor molecule, donor type, donor heavy atom, donor atom, acceptor molecule, acceptor atom, score
      L1  H     8    28       P1  7948  2.00
      L1  C    15    36       P1 10747  1.00

> <Gold.PLP.Chemscore.Internal.Correction>
0.0497

> <Gold.Rescore>
     Score         DG    S(hbond)    S(metal)    S(lipo)     H(rot)  DE(clash)    DE(int)     intcor
     15.33     -15.99       1.00        0.00      95.80       1.57       0.08       0.58       ----

> <Gold.Chemscore.Fitness>
15.3317

> <Gold.Chemscore.DG>
-15.9862

> <Gold.Chemscore.ZeroCoef>
-5.4800

> <Gold.Chemscore.Hbond>
0.9952

> <Gold.Chemscore.Metal>
0.0000

> <Gold.Chemscore.Lipo>
95.7968

> <Gold.Chemscore.Internal_Hbond>
0.0000

> <Gold.Chemscore.DEClash>
0.0770

> <Gold.Chemscore.DEInternal>
0.5775

> <Gold.Chemscore.Rot>
1.5726

> <Gold.Chemscore.Internal.Correction>
   9.000000E+99

> <Gold.Chemscore.Hbonds>
donor molecule, donor type, donor heavy atom, donor atom, acceptor molecule, acceptor atom, score
      L1  H     8    28       P1  7948  1.00

> <Gold.Chemscore.Hbond.Weighted>
-3.3239

> <Gold.Chemscore.Metal.Weighted>
-0.0000

> <Gold.Chemscore.Lipo.Weighted>
-11.2082

> <Gold.Chemscore.Internal_Hbond.Weighted>
0.0000

> <Gold.Chemscore.DEClash.Weighted>
0.0770

> <Gold.Chemscore.DEInternal.Weighted>
0.5775

> <Gold.Chemscore.Rot.Weighted>
4.0259

> <Gold.Chemscore.Internal.Correction.Weighted>
   9.000000E+99

> <Gold.Protein.RotatedTorsions>
[ 6907 6896 6895 6894 ] final  -48.11 input  -60.11 | X-H torsion
[ 7974 7965 7964 7962 ] final -127.26 input  175.53 | X-H torsion
[ 8008 7997 7996 7995 ] final  172.03 input   59.86 | X-H torsion
[ 10167 10162 10161 10158 ] final -143.96 input  -65.29 | X-H torsion
[ 10718 10713 10712 10709 ] final -131.16 input   66.30 | X-H torsion
[ 10763 10752 10751 10750 ] final   94.74 input  -60.55 | X-H torsion
[ 11005 11000 10999 10996 ] final -138.49 input  -57.11 | X-H torsion

> <Gold.Protein.ActiveResidues>
 VAL166  LYS551  ARG553  GLY616  TRP617  ASP618  TYR619  PRO620  LYS621  CYS622 
 ASP623  PHE694  ASN695  SER759  ASP760  ASP761  ALA762  ILE779  LEU786  VAL792 
 PHE793  MET794  SER795  GLU796  ALA797  LYS798  CYS799  TRP800  GLU811  SER814 

> <Gold.Protein.RotatedAtoms>
  150.8939  134.8345  159.7312 H   0  0  0  0  0  0  0  0  0  0  0  0  # atno 6907 bound_to 6896
  152.4853  134.4606  159.9614 H   0  0  0  0  0  0  0  0  0  0  0  0  # atno 6908 bound_to 6896
  151.4666  133.3540  159.2852 H   0  0  0  0  0  0  0  0  0  0  0  0  # atno 6909 bound_to 6896
  144.9789  140.7621  143.4624 H   0  0  0  0  0  0  0  0  0  0  0  0  # atno 7974 bound_to 7965
  156.1214  140.1496  156.9199 H   0  0  0  0  0  0  0  0  0  0  0  0  # atno 8008 bound_to 7997
  154.4839  140.0871  156.7482 H   0  0  0  0  0  0  0  0  0  0  0  0  # atno 8009 bound_to 7997
  155.4421  140.3431  155.4293 H   0  0  0  0  0  0  0  0  0  0  0  0  # atno 8010 bound_to 7997
  139.7944  143.7921  152.2653 H   0  0  0  0  0  0  0  0  0  0  0  0  # atno 10167 bound_to 10162
  156.2216  130.6982  151.0762 H   0  0  0  0  0  0  0  0  0  0  0  0  # atno 10718 bound_to 10713
  153.2452  135.4278  155.0739 H   0  0  0  0  0  0  0  0  0  0  0  0  # atno 10763 bound_to 10752
  154.8358  135.3412  154.6592 H   0  0  0  0  0  0  0  0  0  0  0  0  # atno 10764 bound_to 10752
  153.7015  135.7028  153.5118 H   0  0  0  0  0  0  0  0  0  0  0  0  # atno 10765 bound_to 10752
  140.8611  134.2168  157.4707 H   0  0  0  0  0  0  0  0  0  0  0  0  # atno 11005 bound_to 11000
  145.2449  139.2056  143.4973 LP  0  0  0  0  0  0  0  0  0  0  0  0  # atno 17320 bound_to 7965
  146.3403  140.2352  142.8594 LP  0  0  0  0  0  0  0  0  0  0  0  0  # atno 17321 bound_to 7965
  139.8022  144.7369  150.9810 LP  0  0  0  0  0  0  0  0  0  0  0  0  # atno 17342 bound_to 10162
  140.7820  143.4334  151.0660 LP  0  0  0  0  0  0  0  0  0  0  0  0  # atno 17343 bound_to 10162
  157.7090  131.0743  150.6567 LP  0  0  0  0  0  0  0  0  0  0  0  0  # atno 17370 bound_to 10713
  156.6630  130.4517  149.5681 LP  0  0  0  0  0  0  0  0  0  0  0  0  # atno 17371 bound_to 10713
  139.8707  134.9730  156.4792 LP  0  0  0  0  0  0  0  0  0  0  0  0  # atno 17394 bound_to 11000
  140.8682  133.8008  155.9336 LP  0  0  0  0  0  0  0  0  0  0  0  0  # atno 17395 bound_to 11000

$$$$
