AV-unprocessed.smi:2270|AV-procd|sdf|9158|dock8
  -GOLD-   2272012363D 1   1.00000     0.00000
 Structure written by MMmdl.
 52 53  0  0  0  0  0  0  0  0  1 V2000
  147.8025  131.8189  160.9275 C   0  0  0  0  0  0  0  0  0  0  0  0
  147.5150  133.2530  161.3190 C   0  0  0  0  0  0  0  0  0  0  0  0
  146.7779  133.5507  162.4818 C   0  0  0  0  0  0  0  0  0  0  0  0
  146.5406  134.9024  162.7885 C   0  0  0  0  0  0  0  0  0  0  0  0
  147.0460  135.8936  161.9253 C   0  0  0  0  0  0  0  0  0  0  0  0
  147.7762  135.5101  160.7778 C   0  0  0  0  0  0  0  0  0  0  0  0
  148.2440  136.5839  159.9749 N   0  0  0  0  0  0  0  0  0  0  0  0
  149.0529  136.5291  158.9021 C   0  0  0  0  0  0  0  0  0  0  0  0
  149.5278  135.5013  158.4180 O   0  0  0  0  0  0  0  0  0  0  0  0
  149.2917  137.7541  158.4128 N   0  0  0  0  0  0  0  0  0  0  0  0
  150.1477  138.0463  157.2671 C   0  0  0  0  0  0  0  0  0  0  0  0
  150.2033  139.5623  156.9227 C   0  0  2  0  0  0  0  0  0  0  0  0
  150.7746  139.8667  155.5011 C   0  0  0  0  0  0  0  0  0  0  0  0
  149.9247  139.4101  154.2986 C   0  0  0  0  0  0  0  0  0  0  0  0
  152.2371  139.4148  155.3496 C   0  0  0  0  0  0  0  0  0  0  0  0
  150.7305  140.4207  158.0015 N   0  0  0  0  0  0  0  0  0  0  0  0
  152.0795  140.0374  158.4299 C   0  0  0  0  0  0  0  0  0  0  0  0
  152.5326  140.8508  159.6559 C   0  0  0  0  0  0  0  0  0  0  0  0
  152.5208  142.2851  159.3762 N   0  0  0  0  0  0  0  0  0  0  0  0
  152.9595  143.0583  160.5276 C   0  0  0  0  0  0  0  0  0  0  0  0
  151.1788  142.6733  158.9478 C   0  0  0  0  0  0  0  0  0  0  0  0
  150.7198  141.8608  157.7226 C   0  0  0  0  0  0  0  0  0  0  0  0
  147.9988  134.2034  160.4905 N   0  0  0  0  0  0  0  0  0  0  0  0
  147.6978  131.1514  161.7833 H   0  0  0  0  0  0  0  0  0  0  0  0
  148.8184  131.7187  160.5434 H   0  0  0  0  0  0  0  0  0  0  0  0
  147.1080  131.4945  160.1527 H   0  0  0  0  0  0  0  0  0  0  0  0
  146.4027  132.7663  163.1226 H   0  0  0  0  0  0  0  0  0  0  0  0
  145.9802  135.1753  163.6704 H   0  0  0  0  0  0  0  0  0  0  0  0
  146.8729  136.9367  162.1466 H   0  0  0  0  0  0  0  0  0  0  0  0
  147.9329  137.5020  160.2552 H   0  0  0  0  0  0  0  0  0  0  0  0
  148.8605  138.5437  158.8706 H   0  0  0  0  0  0  0  0  0  0  0  0
  151.1434  137.6525  157.4717 H   0  0  0  0  0  0  0  0  0  0  0  0
  149.7697  137.4720  156.4219 H   0  0  0  0  0  0  0  0  0  0  0  0
  149.1578  139.8571  156.8210 H   0  0  0  0  0  0  0  0  0  0  0  0
  150.8061  140.9541  155.4253 H   0  0  0  0  0  0  0  0  0  0  0  0
  149.9680  138.3355  154.1380 H   0  0  0  0  0  0  0  0  0  0  0  0
  150.2945  139.8709  153.3823 H   0  0  0  0  0  0  0  0  0  0  0  0
  148.8797  139.7004  154.3948 H   0  0  0  0  0  0  0  0  0  0  0  0
  152.3227  138.3279  155.3524 H   0  0  0  0  0  0  0  0  0  0  0  0
  152.8537  139.8004  156.1622 H   0  0  0  0  0  0  0  0  0  0  0  0
  152.6644  139.7754  154.4137 H   0  0  0  0  0  0  0  0  0  0  0  0
  152.1026  138.9763  158.6802 H   0  0  0  0  0  0  0  0  0  0  0  0
  152.7953  140.1842  157.6209 H   0  0  0  0  0  0  0  0  0  0  0  0
  151.8823  140.6289  160.5037 H   0  0  0  0  0  0  0  0  0  0  0  0
  153.5375  140.5399  159.9433 H   0  0  0  0  0  0  0  0  0  0  0  0
  152.9670  144.1240  160.2966 H   0  0  0  0  0  0  0  0  0  0  0  0
  153.9710  142.7751  160.8196 H   0  0  0  0  0  0  0  0  0  0  0  0
  152.3014  142.9000  161.3831 H   0  0  0  0  0  0  0  0  0  0  0  0
  150.4694  142.5336  159.7652 H   0  0  0  0  0  0  0  0  0  0  0  0
  151.1643  143.7354  158.7009 H   0  0  0  0  0  0  0  0  0  0  0  0
  151.3705  142.0890  156.8779 H   0  0  0  0  0  0  0  0  0  0  0  0
  149.7238  142.1935  157.4503 H   0  0  0  0  0  0  0  0  0  0  0  0
  1  2  1  0  0  0  0
  1 24  1  0  0  0  0
  1 25  1  0  0  0  0
  1 26  1  0  0  0  0
  2 23  1  0  0  0  0
  2  3  2  0  0  0  0
  3  4  1  0  0  0  0
  3 27  1  0  0  0  0
  4  5  2  0  0  0  0
  4 28  1  0  0  0  0
  5  6  1  0  0  0  0
  5 29  1  0  0  0  0
  6  7  1  0  0  0  0
  6 23  2  0  0  0  0
  7  8  1  0  0  0  0
  7 30  1  0  0  0  0
  8  9  2  0  0  0  0
  8 10  1  0  0  0  0
 10 11  1  0  0  0  0
 10 31  1  0  0  0  0
 11 12  1  0  0  0  0
 11 32  1  0  0  0  0
 11 33  1  0  0  0  0
 12 13  1  0  0  0  0
 12 16  1  0  0  0  0
 12 34  1  0  0  0  0
 13 14  1  0  0  0  0
 13 15  1  0  0  0  0
 13 35  1  0  0  0  0
 14 36  1  0  0  0  0
 14 37  1  0  0  0  0
 14 38  1  0  0  0  0
 15 39  1  0  0  0  0
 15 40  1  0  0  0  0
 15 41  1  0  0  0  0
 16 22  1  0  0  0  0
 16 17  1  0  0  0  0
 17 18  1  0  0  0  0
 17 42  1  0  0  0  0
 17 43  1  0  0  0  0
 18 19  1  0  0  0  0
 18 44  1  0  0  0  0
 18 45  1  0  0  0  0
 19 20  1  0  0  0  0
 19 21  1  0  0  0  0
 20 46  1  0  0  0  0
 20 47  1  0  0  0  0
 20 48  1  0  0  0  0
 21 22  1  0  0  0  0
 21 49  1  0  0  0  0
 21 50  1  0  0  0  0
 22 51  1  0  0  0  0
 22 52  1  0  0  0  0
M  END
> <s_m_source_file>
AV-unprocessed.smi

> <i_m_source_file_index>
2270

> <i_lp_mmshare_version>
43012

> <i_f3d_flags>
0

> <s_epik_input>
W0NIM11jMVtjSF1bY0hdW2NIXWMobjEpW05IXUMoPU8pW05IXVtDSDJdW0NASF0oW0NIXShbQ0gzXSlbQ0gzXSlOMltDSDJdW0NIMl1OKFtDSDNdKVtDSDJdW0NIMl0y

> <s_epik_cmdline>
J2VwaWtfcHl0aG9uJywgJy1waCcsICc3LjAnLCAnLXRuJywgJzgnLCAnLW1hJywgJzIwMCcsICctbWV0YWxfYmluZGluZycsICctaW1hZScsICc8aW5maWxlLm1hZT4nLCAnLW9tYWUnLCAnPG91dGZpbGUubWFlPic=

> <r_epik_Ionization_Penalty>
2.57754

> <r_epik_Ionization_Penalty_Charging>
0

> <r_epik_Ionization_Penalty_Neutral>
2.57754

> <r_epik_State_Penalty>
2.00874

> <r_epik_Charging_Adjusted_Penalty>
2.00874

> <i_epik_Tot_Q>
0

> <i_epik_Tot_abs_Q>
0

> <r_epik_Metal_State_Penalty>
2.00874

> <b_epik_Metal_Only>
0

> <s_lp_Force_Field>
OPLS_2005

> <r_lp_Energy>
48.2009

> <b_lp_Chiralities_Consistent>
1

> <s_lp_Variant>
AV-unprocessed.smi:2270-5

> <Gold.Version>
5.8.1

> <Gold.Id.Protein>
6NUR|6NUR_protein|mol2

> <Gold.PLP.Fitness>
44.4721

> <Gold.PLP.PLP>
-41.7166

> <Gold.PLP.part.hbond>
-1.0000

> <Gold.PLP.part.metal>
0.0000

> <Gold.PLP.part.buried>
-3.9664

> <Gold.PLP.part.nonpolar>
-36.3336

> <Gold.PLP.part.repulsive>
0.3835

> <Gold.PLP.ligand.clash>
0.0000

> <Gold.PLP.ligand.torsion>
0.3444

> <Gold.PLP.Chemscore.Hbond>
1.0000

> <Gold.PLP.Chemscore.CHOScore>
0.0000

> <Gold.PLP.Chemscore.Metal>
0.0000

> <Gold.Chemscore.Hbonds>
donor molecule, donor type, donor heavy atom, donor atom, acceptor molecule, acceptor atom, score
      P1  H  6896  6909       L1     9  1.00

> <Gold.PLP.Chemscore.Internal.Correction>
0.4443

> <Gold.Rescore>
     Score         DG    S(hbond)    S(metal)    S(lipo)     H(rot)  DE(clash)    DE(int)     intcor
     15.96     -17.77       1.00        0.00     110.67       1.56       0.07       1.74       ----

> <Gold.Chemscore.Fitness>
15.9577

> <Gold.Chemscore.DG>
-17.7723

> <Gold.Chemscore.ZeroCoef>
-5.4800

> <Gold.Chemscore.Hbond>
1.0000

> <Gold.Chemscore.Metal>
0.0000

> <Gold.Chemscore.Lipo>
110.6750

> <Gold.Chemscore.Internal_Hbond>
0.0000

> <Gold.Chemscore.DEClash>
0.0738

> <Gold.Chemscore.DEInternal>
1.7408

> <Gold.Chemscore.Rot>
1.5612

> <Gold.Chemscore.Internal.Correction>
   9.000000E+99

> <Gold.Chemscore.Hbonds>
donor molecule, donor type, donor heavy atom, donor atom, acceptor molecule, acceptor atom, score
      P1  H  6896  6909       L1     9  0.88

> <Gold.Chemscore.Hbond.Weighted>
-3.3399

> <Gold.Chemscore.Metal.Weighted>
-0.0000

> <Gold.Chemscore.Lipo.Weighted>
-12.9490

> <Gold.Chemscore.Internal_Hbond.Weighted>
0.0000

> <Gold.Chemscore.DEClash.Weighted>
0.0738

> <Gold.Chemscore.DEInternal.Weighted>
1.7408

> <Gold.Chemscore.Rot.Weighted>
3.9966

> <Gold.Chemscore.Internal.Correction.Weighted>
   9.000000E+99

> <Gold.Protein.RotatedTorsions>
[ 6907 6896 6895 6894 ] final   50.18 input  -60.11 | X-H torsion
[ 7974 7965 7964 7962 ] final  102.86 input  175.53 | X-H torsion
[ 8008 7997 7996 7995 ] final   -5.68 input   59.86 | X-H torsion
[ 10167 10162 10161 10158 ] final  145.68 input  -65.29 | X-H torsion
[ 10718 10713 10712 10709 ] final   27.12 input   66.30 | X-H torsion
[ 10763 10752 10751 10750 ] final  171.39 input  -60.55 | X-H torsion
[ 11005 11000 10999 10996 ] final  141.21 input  -57.11 | X-H torsion

> <Gold.Protein.ActiveResidues>
 VAL166  LYS551  ARG553  GLY616  TRP617  ASP618  TYR619  PRO620  LYS621  CYS622 
 ASP623  PHE694  ASN695  SER759  ASP760  ASP761  ALA762  ILE779  LEU786  VAL792 
 PHE793  MET794  SER795  GLU796  ALA797  LYS798  CYS799  TRP800  GLU811  SER814 

> <Gold.Protein.RotatedAtoms>
  152.2989  134.7634  160.0361 H   0  0  0  0  0  0  0  0  0  0  0  0  # atno 6907 bound_to 6896
  151.8154  133.3382  159.3576 H   0  0  0  0  0  0  0  0  0  0  0  0  # atno 6908 bound_to 6896
  150.7264  134.5554  159.5860 H   0  0  0  0  0  0  0  0  0  0  0  0  # atno 6909 bound_to 6896
  145.3535  139.2434  143.3545 H   0  0  0  0  0  0  0  0  0  0  0  0  # atno 7974 bound_to 7965
  154.6014  140.2452  155.7788 H   0  0  0  0  0  0  0  0  0  0  0  0  # atno 8008 bound_to 7997
  156.2313  140.2965  156.0148 H   0  0  0  0  0  0  0  0  0  0  0  0  # atno 8009 bound_to 7997
  155.2205  140.0400  157.2938 H   0  0  0  0  0  0  0  0  0  0  0  0  # atno 8010 bound_to 7997
  139.4921  144.5884  151.6731 H   0  0  0  0  0  0  0  0  0  0  0  0  # atno 10167 bound_to 10162
  157.2159  130.6956  149.6249 H   0  0  0  0  0  0  0  0  0  0  0  0  # atno 10718 bound_to 10713
  154.4112  135.2756  155.2036 H   0  0  0  0  0  0  0  0  0  0  0  0  # atno 10763 bound_to 10752
  154.4021  135.6042  153.5906 H   0  0  0  0  0  0  0  0  0  0  0  0  # atno 10764 bound_to 10752
  152.9831  135.5929  154.4394 H   0  0  0  0  0  0  0  0  0  0  0  0  # atno 10765 bound_to 10752
  140.0384  134.9317  157.0797 H   0  0  0  0  0  0  0  0  0  0  0  0  # atno 11005 bound_to 11000
  146.2958  140.4156  142.8722 LP  0  0  0  0  0  0  0  0  0  0  0  0  # atno 17320 bound_to 7965
  144.8699  140.7258  143.6053 LP  0  0  0  0  0  0  0  0  0  0  0  0  # atno 17321 bound_to 7965
  140.5505  144.0433  150.6125 LP  0  0  0  0  0  0  0  0  0  0  0  0  # atno 17342 bound_to 10162
  140.3485  143.2977  152.0512 LP  0  0  0  0  0  0  0  0  0  0  0  0  # atno 17343 bound_to 10162
  155.9686  130.4536  150.5817 LP  0  0  0  0  0  0  0  0  0  0  0  0  # atno 17370 bound_to 10713
  157.3625  131.0752  151.1625 LP  0  0  0  0  0  0  0  0  0  0  0  0  # atno 17371 bound_to 10713
  140.4109  134.1982  155.7163 LP  0  0  0  0  0  0  0  0  0  0  0  0  # atno 17394 bound_to 11000
  141.1870  133.8291  157.1049 LP  0  0  0  0  0  0  0  0  0  0  0  0  # atno 17395 bound_to 11000

$$$$
