AV-unprocessed.smi:91|AV-procd|sdf|836|dock9
  -GOLD-   2262017263D 1   1.00000     0.00000
 Structure written by MMmdl.
 60 63  0  0  0  0  0  0  0  0  1 V2000
  154.9006  139.9592  161.8926 C   0  0  0  0  0  0  0  0  0  0  0  0
  154.3481  140.4596  160.6879 O   0  0  0  0  0  0  0  0  0  0  0  0
  153.6841  141.6999  160.8681 C   0  0  0  0  0  0  0  0  0  0  0  0
  152.9594  142.0822  159.5710 C   0  0  1  0  0  0  0  0  0  0  0  0
  152.0221  140.9653  159.0803 C   0  0  0  0  0  0  0  0  0  0  0  0
  151.2429  141.4266  157.9359 N   0  0  0  0  0  0  0  0  0  0  0  0
  150.6707  140.4585  157.1729 C   0  0  0  0  0  0  0  0  0  0  0  0
  150.7392  140.6126  155.8242 N   0  0  0  0  0  0  0  0  0  0  0  0
  150.1985  139.7062  155.0060 C   0  0  0  0  0  0  0  0  0  0  0  0
  149.5526  138.5824  155.3180 N   0  0  0  0  0  0  0  0  0  0  0  0
  149.4785  138.4160  156.6687 C   0  0  0  0  0  0  0  0  0  0  0  0
  150.0005  139.2952  157.6622 C   0  0  0  0  0  0  0  0  0  0  0  0
  149.7305  138.7752  158.9249 N   0  0  0  0  0  0  0  0  0  0  0  0
  149.0863  137.6652  158.6920 C   0  0  0  0  0  0  0  0  0  0  0  0
  148.9002  137.3685  157.3623 N   0  0  0  0  0  0  0  0  0  0  0  0
  148.2352  136.1991  156.8156 C   0  0  0  0  0  0  0  0  0  0  0  0
  149.1647  135.3221  155.9398 C   0  0  1  0  0  0  0  0  0  0  0  0
  150.3071  134.6630  156.7509 C   0  0  0  0  0  0  0  0  0  0  0  0
  149.8031  133.7552  157.7094 O   0  0  0  0  0  0  0  0  0  0  0  0
  148.3562  134.2910  155.1128 C   0  0  2  0  0  0  0  0  0  0  0  0
  149.1454  133.5735  154.0318 C   0  0  0  0  0  0  0  0  0  0  0  0
  148.0400  133.0288  153.1342 C   0  0  0  0  0  0  0  0  0  0  0  0
  146.9794  133.9745  153.2136 O   0  0  0  0  0  0  0  0  0  0  0  0
  147.2245  134.8935  154.2736 C   0  0  0  0  0  0  0  0  0  0  0  0
  150.5100  142.6606  158.1921 C   0  0  0  0  0  0  0  0  0  0  0  0
  151.4471  143.7704  158.7176 C   0  0  0  0  0  0  0  0  0  0  0  0
  152.3740  144.3143  157.6097 C   0  0  0  0  0  0  0  0  0  0  0  0
  150.6108  144.9269  159.2868 C   0  0  0  0  0  0  0  0  0  0  0  0
  152.2029  143.2665  159.8244 O   0  0  0  0  0  0  0  0  0  0  0  0
  155.4009  139.0103  161.6995 H   0  0  0  0  0  0  0  0  0  0  0  0
  154.1248  139.7848  162.6392 H   0  0  0  0  0  0  0  0  0  0  0  0
  155.6365  140.6497  162.3064 H   0  0  0  0  0  0  0  0  0  0  0  0
  152.9779  141.6447  161.6983 H   0  0  0  0  0  0  0  0  0  0  0  0
  154.4196  142.4669  161.1161 H   0  0  0  0  0  0  0  0  0  0  0  0
  153.7147  142.2915  158.8136 H   0  0  0  0  0  0  0  0  0  0  0  0
  152.6129  140.0820  158.8366 H   0  0  0  0  0  0  0  0  0  0  0  0
  151.3337  140.6754  159.8751 H   0  0  0  0  0  0  0  0  0  0  0  0
  150.2997  139.9101  153.9504 H   0  0  0  0  0  0  0  0  0  0  0  0
  148.7381  137.0224  159.4875 H   0  0  0  0  0  0  0  0  0  0  0  0
  147.8333  135.6130  157.6430 H   0  0  0  0  0  0  0  0  0  0  0  0
  147.3773  136.5459  156.2391 H   0  0  0  0  0  0  0  0  0  0  0  0
  149.6488  135.9919  155.2273 H   0  0  0  0  0  0  0  0  0  0  0  0
  150.9945  134.1316  156.0932 H   0  0  0  0  0  0  0  0  0  0  0  0
  150.9087  135.4145  157.2622 H   0  0  0  0  0  0  0  0  0  0  0  0
  149.3868  133.0389  157.2547 H   0  0  0  0  0  0  0  0  0  0  0  0
  147.9277  133.5417  155.7809 H   0  0  0  0  0  0  0  0  0  0  0  0
  149.7639  134.2809  153.4770 H   0  0  0  0  0  0  0  0  0  0  0  0
  149.7908  132.7851  154.4197 H   0  0  0  0  0  0  0  0  0  0  0  0
  148.3708  132.8833  152.1057 H   0  0  0  0  0  0  0  0  0  0  0  0
  147.6800  132.0716  153.5133 H   0  0  0  0  0  0  0  0  0  0  0  0
  146.3195  135.0673  154.8562 H   0  0  0  0  0  0  0  0  0  0  0  0
  147.5309  135.8446  153.8360 H   0  0  0  0  0  0  0  0  0  0  0  0
  150.0133  143.0031  157.2834 H   0  0  0  0  0  0  0  0  0  0  0  0
  149.7337  142.4528  158.9298 H   0  0  0  0  0  0  0  0  0  0  0  0
  151.7973  144.8125  156.8297 H   0  0  0  0  0  0  0  0  0  0  0  0
  152.9479  143.5272  157.1218 H   0  0  0  0  0  0  0  0  0  0  0  0
  153.0817  145.0404  158.0106 H   0  0  0  0  0  0  0  0  0  0  0  0
  149.9779  145.3745  158.5198 H   0  0  0  0  0  0  0  0  0  0  0  0
  151.2488  145.7132  159.6915 H   0  0  0  0  0  0  0  0  0  0  0  0
  149.9610  144.5851  160.0933 H   0  0  0  0  0  0  0  0  0  0  0  0
  1  2  1  0  0  0  0
  1 30  1  0  0  0  0
  1 31  1  0  0  0  0
  1 32  1  0  0  0  0
  2  3  1  0  0  0  0
  3  4  1  0  0  0  0
  3 33  1  0  0  0  0
  3 34  1  0  0  0  0
  4 29  1  0  0  0  0
  4  5  1  0  0  0  0
  4 35  1  0  0  0  0
  5  6  1  0  0  0  0
  5 36  1  0  0  0  0
  5 37  1  0  0  0  0
  6  7  1  0  0  0  0
  6 25  1  0  0  0  0
  7 12  1  0  0  0  0
  7  8  2  0  0  0  0
  8  9  1  0  0  0  0
  9 10  2  0  0  0  0
  9 38  1  0  0  0  0
 10 11  1  0  0  0  0
 11 15  1  0  0  0  0
 11 12  2  0  0  0  0
 12 13  1  0  0  0  0
 13 14  2  0  0  0  0
 14 15  1  0  0  0  0
 14 39  1  0  0  0  0
 15 16  1  0  0  0  0
 16 17  1  0  0  0  0
 16 40  1  0  0  0  0
 16 41  1  0  0  0  0
 17 18  1  0  0  0  0
 17 20  1  0  0  0  0
 17 42  1  0  0  0  0
 18 19  1  0  0  0  0
 18 43  1  0  0  0  0
 18 44  1  0  0  0  0
 19 45  1  0  0  0  0
 20 24  1  0  0  0  0
 20 21  1  0  0  0  0
 20 46  1  0  0  0  0
 21 22  1  0  0  0  0
 21 47  1  0  0  0  0
 21 48  1  0  0  0  0
 22 23  1  0  0  0  0
 22 49  1  0  0  0  0
 22 50  1  0  0  0  0
 23 24  1  0  0  0  0
 24 51  1  0  0  0  0
 24 52  1  0  0  0  0
 25 26  1  0  0  0  0
 25 53  1  0  0  0  0
 25 54  1  0  0  0  0
 26 27  1  0  0  0  0
 26 28  1  0  0  0  0
 26 29  1  0  0  0  0
 27 55  1  0  0  0  0
 27 56  1  0  0  0  0
 27 57  1  0  0  0  0
 28 58  1  0  0  0  0
 28 59  1  0  0  0  0
 28 60  1  0  0  0  0
M  END
> <s_m_source_file>
AV-unprocessed.smi

> <i_m_source_file_index>
91

> <i_lp_mmshare_version>
43012

> <i_f3d_flags>
0

> <s_epik_input>
W0NIM11PW0NIMl1bQ0BASF0oTzEpW0NIMl1OKFtDSDJdQzEoW0NIM10pW0NIM10pYyhuW2NIXW4yKWMoYzIzKW5bY0hdbjNbQ0gyXVtDQEhdKFtDSDJdW09IXSlbQ0BASF00W0NIMl1bQ0gyXU9bQ0gyXTQ=

> <s_epik_cmdline>
J2VwaWtfcHl0aG9uJywgJy1waCcsICc3LjAnLCAnLXRuJywgJzgnLCAnLW1hJywgJzIwMCcsICctbWV0YWxfYmluZGluZycsICctaW1hZScsICc8aW5maWxlLm1hZT4nLCAnLW9tYWUnLCAnPG91dGZpbGUubWFlPic=

> <r_lp_tautomer_probability>
1

> <r_epik_Ionization_Penalty>
8.63591e-05

> <r_epik_Ionization_Penalty_Charging>
0

> <r_epik_Ionization_Penalty_Neutral>
8.63591e-05

> <r_epik_State_Penalty>
-0

> <r_epik_Charging_Adjusted_Penalty>
0

> <i_epik_Tot_Q>
0

> <i_epik_Tot_abs_Q>
0

> <r_epik_Metal_State_Penalty>
-0

> <b_epik_Metal_Only>
0

> <s_lp_Force_Field>
OPLS_2005

> <r_lp_Energy>
46.7978

> <b_lp_Chiralities_Consistent>
1

> <s_lp_Variant>
AV-unprocessed.smi:91-4

> <Gold.Version>
5.8.1

> <Gold.Id.Protein>
6NUR|6NUR_protein|mol2

> <Gold.PLP.Fitness>
47.9235

> <Gold.PLP.PLP>
-45.3019

> <Gold.PLP.part.hbond>
-1.5161

> <Gold.PLP.part.metal>
0.0000

> <Gold.PLP.part.buried>
-7.8005

> <Gold.PLP.part.nonpolar>
-35.6521

> <Gold.PLP.part.repulsive>
0.2593

> <Gold.PLP.ligand.clash>
0.0000

> <Gold.PLP.ligand.torsion>
0.6711

> <Gold.PLP.Chemscore.Hbond>
0.9120

> <Gold.PLP.Chemscore.CHOScore>
0.2193

> <Gold.PLP.Chemscore.Metal>
0.0000

> <Gold.Chemscore.Hbonds>
donor molecule, donor type, donor heavy atom, donor atom, acceptor molecule, acceptor atom, score
      P1  H  6896  6909       L1    19  1.00
      L1  C     9    38       P1  7957  0.15

> <Gold.PLP.Chemscore.Internal.Correction>
0.5700

> <Gold.Rescore>
     Score         DG    S(hbond)    S(metal)    S(lipo)     H(rot)  DE(clash)    DE(int)     intcor
     12.47     -13.09       0.89        0.00     105.76       3.03       0.01       0.61       ----

> <Gold.Chemscore.Fitness>
12.4682

> <Gold.Chemscore.DG>
-13.0890

> <Gold.Chemscore.ZeroCoef>
-5.4800

> <Gold.Chemscore.Hbond>
0.8947

> <Gold.Chemscore.Metal>
0.0000

> <Gold.Chemscore.Lipo>
105.7552

> <Gold.Chemscore.Internal_Hbond>
0.0000

> <Gold.Chemscore.DEClash>
0.0106

> <Gold.Chemscore.DEInternal>
0.6101

> <Gold.Chemscore.Rot>
3.0284

> <Gold.Chemscore.Internal.Correction>
   9.000000E+99

> <Gold.Chemscore.Hbonds>
donor molecule, donor type, donor heavy atom, donor atom, acceptor molecule, acceptor atom, score
      P1  H  6896  6909       L1    19  0.81

> <Gold.Chemscore.Hbond.Weighted>
-2.9884

> <Gold.Chemscore.Metal.Weighted>
-0.0000

> <Gold.Chemscore.Lipo.Weighted>
-12.3734

> <Gold.Chemscore.Internal_Hbond.Weighted>
0.0000

> <Gold.Chemscore.DEClash.Weighted>
0.0106

> <Gold.Chemscore.DEInternal.Weighted>
0.6101

> <Gold.Chemscore.Rot.Weighted>
7.7528

> <Gold.Chemscore.Internal.Correction.Weighted>
   9.000000E+99

> <Gold.Protein.RotatedTorsions>
[ 6907 6896 6895 6894 ] final   -6.69 input  -60.11 | X-H torsion
[ 7974 7965 7964 7962 ] final  147.39 input  175.53 | X-H torsion
[ 8008 7997 7996 7995 ] final   14.94 input   59.86 | X-H torsion
[ 10167 10162 10161 10158 ] final  165.80 input  -65.29 | X-H torsion
[ 10718 10713 10712 10709 ] final  -70.27 input   66.30 | X-H torsion
[ 10763 10752 10751 10750 ] final   99.46 input  -60.55 | X-H torsion
[ 11005 11000 10999 10996 ] final  131.49 input  -57.11 | X-H torsion

> <Gold.Protein.ActiveResidues>
 VAL166  LYS551  ARG553  GLY616  TRP617  ASP618  TYR619  PRO620  LYS621  CYS622 
 ASP623  PHE694  ASN695  SER759  ASP760  ASP761  ALA762  ILE779  LEU786  VAL792 
 PHE793  MET794  SER795  GLU796  ALA797  LYS798  CYS799  TRP800  GLU811  SER814 

> <Gold.Protein.RotatedAtoms>
  151.4616  135.1039  159.9726 H   0  0  0  0  0  0  0  0  0  0  0  0  # atno 6907 bound_to 6896
  152.4851  133.8347  159.7132 H   0  0  0  0  0  0  0  0  0  0  0  0  # atno 6908 bound_to 6896
  150.8953  133.7129  159.2920 H   0  0  0  0  0  0  0  0  0  0  0  0  # atno 6909 bound_to 6896
  144.8595  139.6023  143.5937 H   0  0  0  0  0  0  0  0  0  0  0  0  # atno 7974 bound_to 7965
  154.8555  140.2936  155.5571 H   0  0  0  0  0  0  0  0  0  0  0  0  # atno 8008 bound_to 7997
  156.3018  140.2488  156.3453 H   0  0  0  0  0  0  0  0  0  0  0  0  # atno 8009 bound_to 7997
  154.8975  140.0392  157.1863 H   0  0  0  0  0  0  0  0  0  0  0  0  # atno 8010 bound_to 7997
  139.4912  144.4094  151.9317 H   0  0  0  0  0  0  0  0  0  0  0  0  # atno 10167 bound_to 10162
  156.0415  130.4328  150.2271 H   0  0  0  0  0  0  0  0  0  0  0  0  # atno 10718 bound_to 10713
  153.3017  135.4112  155.1258 H   0  0  0  0  0  0  0  0  0  0  0  0  # atno 10763 bound_to 10752
  154.8551  135.3543  154.5842 H   0  0  0  0  0  0  0  0  0  0  0  0  # atno 10764 bound_to 10752
  153.6268  135.7062  153.5348 H   0  0  0  0  0  0  0  0  0  0  0  0  # atno 10765 bound_to 10752
  139.9733  134.9571  156.9446 H   0  0  0  0  0  0  0  0  0  0  0  0  # atno 11005 bound_to 11000
  146.2849  139.6978  142.9202 LP  0  0  0  0  0  0  0  0  0  0  0  0  # atno 17320 bound_to 7965
  145.4340  141.0417  143.2895 LP  0  0  0  0  0  0  0  0  0  0  0  0  # atno 17321 bound_to 7965
  140.3535  144.3060  150.5945 LP  0  0  0  0  0  0  0  0  0  0  0  0  # atno 17342 bound_to 10162
  140.5465  143.2214  151.7999 LP  0  0  0  0  0  0  0  0  0  0  0  0  # atno 17343 bound_to 10162
  157.0366  131.0023  151.3296 LP  0  0  0  0  0  0  0  0  0  0  0  0  # atno 17370 bound_to 10713
  157.5240  130.8016  149.7840 LP  0  0  0  0  0  0  0  0  0  0  0  0  # atno 17371 bound_to 10713
  140.5247  134.0873  155.7300 LP  0  0  0  0  0  0  0  0  0  0  0  0  # atno 17394 bound_to 11000
  141.1412  133.9135  157.2322 LP  0  0  0  0  0  0  0  0  0  0  0  0  # atno 17395 bound_to 11000

$$$$
