AV-unprocessed.smi:103|AV-procd|sdf|977|dock10
  -GOLD-   2262017533D 1   1.00000     0.00000
 Structure written by MMmdl.
 53 55  0  0  0  0  0  0  0  0  1 V2000
  153.4772  142.0091  159.8604 C   0  0  0  0  0  0  0  0  0  0  0  0
  152.3172  142.7025  159.1577 C   0  0  0  0  0  0  0  0  0  0  0  0
  152.1450  143.9179  159.2560 O   0  0  0  0  0  0  0  0  0  0  0  0
  151.5532  141.8465  158.4528 O   0  0  0  0  0  0  0  0  0  0  0  0
  150.3132  142.2725  157.9043 C   0  0  0  0  0  0  0  0  0  0  0  0
  149.8515  141.3198  156.7845 C   0  0  2  0  0  0  0  0  0  0  0  0
  148.4494  141.4387  156.5786 O   0  0  0  0  0  0  0  0  0  0  0  0
  147.7765  140.6444  157.5019 C   0  0  1  0  0  0  0  0  0  0  0  0
  146.5284  140.1287  156.8510 N   0  0  0  0  0  0  0  0  0  0  0  0
  145.2094  140.3162  157.2107 C   0  0  0  0  0  0  0  0  0  0  0  0
  144.6125  141.3175  158.5674 S   0  0  0  0  0  0  0  0  0  0  0  0
  143.6520  140.0920  159.5457 C   0  0  0  0  0  0  0  0  0  0  0  0
  145.7910  141.7430  159.3389 O   0  0  0  0  0  0  0  0  0  0  0  0
  143.6904  142.3136  158.0013 O   0  0  0  0  0  0  0  0  0  0  0  0
  144.3074  139.7897  156.4276 N   0  0  0  0  0  0  0  0  0  0  0  0
  145.0680  139.1279  155.4737 C   0  0  0  0  0  0  0  0  0  0  0  0
  144.7554  138.3278  154.3459 C   0  0  0  0  0  0  0  0  0  0  0  0
  143.4988  138.0450  153.9762 N   0  0  0  0  0  0  0  0  0  0  0  0
  145.7717  137.8234  153.6082 N   0  0  0  0  0  0  0  0  0  0  0  0
  147.0341  138.0926  153.9554 C   0  0  0  0  0  0  0  0  0  0  0  0
  147.4799  138.8265  154.9777 N   0  0  0  0  0  0  0  0  0  0  0  0
  146.4550  139.3313  155.7254 C   0  0  0  0  0  0  0  0  0  0  0  0
  148.7451  139.5273  157.9469 C   0  0  1  0  0  0  0  0  0  0  0  0
  148.2613  138.2114  157.6794 O   0  0  0  0  0  0  0  0  0  0  0  0
  147.6120  137.5101  158.6223 C   0  0  0  0  0  0  0  0  0  0  0  0
  147.1085  136.1723  158.0985 C   0  0  0  0  0  0  0  0  0  0  0  0
  147.4128  137.8620  159.7844 O   0  0  0  0  0  0  0  0  0  0  0  0
  150.0200  139.8435  157.1665 C   0  0  1  0  0  0  0  0  0  0  0  0
  150.1088  139.0528  155.9845 O   0  0  0  0  0  0  0  0  0  0  0  0
  151.2062  139.0914  155.2127 C   0  0  0  0  0  0  0  0  0  0  0  0
  151.2765  137.9120  154.2523 C   0  0  0  0  0  0  0  0  0  0  0  0
  152.0791  139.9591  155.2347 O   0  0  0  0  0  0  0  0  0  0  0  0
  154.4170  142.2574  159.3672 H   0  0  0  0  0  0  0  0  0  0  0  0
  153.3532  140.9260  159.8425 H   0  0  0  0  0  0  0  0  0  0  0  0
  153.5361  142.3314  160.9001 H   0  0  0  0  0  0  0  0  0  0  0  0
  149.5818  142.2496  158.7123 H   0  0  0  0  0  0  0  0  0  0  0  0
  150.3577  143.3077  157.5627 H   0  0  0  0  0  0  0  0  0  0  0  0
  150.3890  141.5604  155.8665 H   0  0  0  0  0  0  0  0  0  0  0  0
  147.4441  141.2702  158.3271 H   0  0  0  0  0  0  0  0  0  0  0  0
  143.2211  140.5828  160.4179 H   0  0  0  0  0  0  0  0  0  0  0  0
  144.3129  139.2886  159.8706 H   0  0  0  0  0  0  0  0  0  0  0  0
  142.8532  139.6771  158.9317 H   0  0  0  0  0  0  0  0  0  0  0  0
  142.7237  138.4085  154.5117 H   0  0  0  0  0  0  0  0  0  0  0  0
  143.3292  137.4702  153.1635 H   0  0  0  0  0  0  0  0  0  0  0  0
  147.7964  137.6599  153.3245 H   0  0  0  0  0  0  0  0  0  0  0  0
  148.9443  139.6756  159.0092 H   0  0  0  0  0  0  0  0  0  0  0  0
  146.4424  136.3261  157.2493 H   0  0  0  0  0  0  0  0  0  0  0  0
  146.5607  135.6378  158.8748 H   0  0  0  0  0  0  0  0  0  0  0  0
  147.9457  135.5530  157.7763 H   0  0  0  0  0  0  0  0  0  0  0  0
  150.8994  139.6786  157.7912 H   0  0  0  0  0  0  0  0  0  0  0  0
  151.3107  136.9742  154.8070 H   0  0  0  0  0  0  0  0  0  0  0  0
  152.1672  137.9776  153.6274 H   0  0  0  0  0  0  0  0  0  0  0  0
  150.3994  137.8998  153.6050 H   0  0  0  0  0  0  0  0  0  0  0  0
  1  2  1  0  0  0  0
  1 33  1  0  0  0  0
  1 34  1  0  0  0  0
  1 35  1  0  0  0  0
  2  3  2  0  0  0  0
  2  4  1  0  0  0  0
  4  5  1  0  0  0  0
  5  6  1  0  0  0  0
  5 36  1  0  0  0  0
  5 37  1  0  0  0  0
  6 28  1  0  0  0  0
  6  7  1  0  0  0  0
  6 38  1  0  0  0  0
  7  8  1  0  0  0  0
  8  9  1  0  0  0  0
  8 23  1  0  0  0  0
  8 39  1  0  0  0  0
  9 22  1  0  0  0  0
  9 10  1  0  0  0  0
 10 11  1  0  0  0  0
 10 15  2  0  0  0  0
 11 12  1  0  0  0  0
 11 13  2  0  0  0  0
 11 14  2  0  0  0  0
 12 40  1  0  0  0  0
 12 41  1  0  0  0  0
 12 42  1  0  0  0  0
 15 16  1  0  0  0  0
 16 22  2  0  0  0  0
 16 17  1  0  0  0  0
 17 18  1  0  0  0  0
 17 19  2  0  0  0  0
 18 43  1  0  0  0  0
 18 44  1  0  0  0  0
 19 20  1  0  0  0  0
 20 21  2  0  0  0  0
 20 45  1  0  0  0  0
 21 22  1  0  0  0  0
 23 24  1  0  0  0  0
 23 28  1  0  0  0  0
 23 46  1  0  0  0  0
 24 25  1  0  0  0  0
 25 26  1  0  0  0  0
 25 27  2  0  0  0  0
 26 47  1  0  0  0  0
 26 48  1  0  0  0  0
 26 49  1  0  0  0  0
 28 29  1  0  0  0  0
 28 50  1  0  0  0  0
 29 30  1  0  0  0  0
 30 31  1  0  0  0  0
 30 32  2  0  0  0  0
 31 51  1  0  0  0  0
 31 52  1  0  0  0  0
 31 53  1  0  0  0  0
M  END
> <s_m_source_file>
AV-unprocessed.smi

> <i_m_source_file_index>
103

> <i_lp_mmshare_version>
43012

> <i_f3d_flags>
0

> <s_epik_input>
W0NIM11DKD1PKU9bQ0gyXVtDQEBIXTFPW0NASF0oW0NAQEhdKE9DKD1PKVtDSDNdKVtDQEhdMU9DKD1PKVtDSDNdKW4oYyhuMilTKD1PKSg9TylbQ0gzXSljKGMyMyluW2NIXW5jM1tOSDJd

> <s_epik_cmdline>
J2VwaWtfcHl0aG9uJywgJy1waCcsICc3LjAnLCAnLXRuJywgJzgnLCAnLW1hJywgJzIwMCcsICctbWV0YWxfYmluZGluZycsICctaW1hZScsICc8aW5maWxlLm1hZT4nLCAnLW9tYWUnLCAnPG91dGZpbGUubWFlPic=

> <r_lp_tautomer_probability>
1

> <r_epik_Ionization_Penalty>
1.51338e-05

> <r_epik_Ionization_Penalty_Charging>
0

> <r_epik_Ionization_Penalty_Neutral>
1.51338e-05

> <r_epik_State_Penalty>
-0

> <r_epik_Charging_Adjusted_Penalty>
0

> <i_epik_Tot_Q>
0

> <i_epik_Tot_abs_Q>
0

> <r_epik_Metal_State_Penalty>
-0

> <b_epik_Metal_Only>
0

> <s_epik_Chemistry_Notes>
This compound has an ester and may undergo hydrolysis at high or low pH. This compound contains an acetal/aminal-like group ( X-CH(R)-Y where X, Y are N, S, or O) that may be acid/base labile, releasing an aldehyde.

> <s_lp_Force_Field>
OPLS_2005

> <r_lp_Energy>
14.6626

> <b_lp_Chiralities_Consistent>
1

> <s_lp_Variant>
AV-unprocessed.smi:103-1

> <Gold.Version>
5.8.1

> <Gold.Id.Protein>
6NUR|6NUR_protein|mol2

> <Gold.PLP.Fitness>
35.4739

> <Gold.PLP.PLP>
-27.1249

> <Gold.PLP.part.hbond>
-4.4678

> <Gold.PLP.part.metal>
0.0000

> <Gold.PLP.part.buried>
-5.7316

> <Gold.PLP.part.nonpolar>
-18.5064

> <Gold.PLP.part.repulsive>
0.4073

> <Gold.PLP.ligand.clash>
0.0000

> <Gold.PLP.ligand.torsion>
2.1269

> <Gold.PLP.Chemscore.Hbond>
2.4328

> <Gold.PLP.Chemscore.CHOScore>
1.0000

> <Gold.PLP.Chemscore.Metal>
0.0000

> <Gold.Chemscore.Hbonds>
donor molecule, donor type, donor heavy atom, donor atom, acceptor molecule, acceptor atom, score
      P1  H  6934  6946       L1    13  1.00
      P1  H  6934  6947       L1    27  0.74
      P1  H  7989  7998       L1    32  0.76
      L1  C    20    45       P1  7948  1.00

> <Gold.PLP.Chemscore.Internal.Correction>
2.3045

> <Gold.Rescore>
     Score         DG    S(hbond)    S(metal)    S(lipo)     H(rot)  DE(clash)    DE(int)     intcor
      0.29      -7.85       2.72        0.00      35.53       4.25       0.31       7.25       ----

> <Gold.Chemscore.Fitness>
0.2931

> <Gold.Chemscore.DG>
-7.8520

> <Gold.Chemscore.ZeroCoef>
-5.4800

> <Gold.Chemscore.Hbond>
2.7197

> <Gold.Chemscore.Metal>
0.0000

> <Gold.Chemscore.Lipo>
35.5287

> <Gold.Chemscore.Internal_Hbond>
0.0000

> <Gold.Chemscore.DEClash>
0.3102

> <Gold.Chemscore.DEInternal>
7.2487

> <Gold.Chemscore.Rot>
4.2456

> <Gold.Chemscore.Internal.Correction>
   9.000000E+99

> <Gold.Chemscore.Hbonds>
donor molecule, donor type, donor heavy atom, donor atom, acceptor molecule, acceptor atom, score
      P1  H  6934  6946       L1    13  0.95
      P1  H  6934  6947       L1    27  0.71
      P1  H  7989  7998       L1    32  0.17

> <Gold.Chemscore.Hbond.Weighted>
-9.0838

> <Gold.Chemscore.Metal.Weighted>
-0.0000

> <Gold.Chemscore.Lipo.Weighted>
-4.1569

> <Gold.Chemscore.Internal_Hbond.Weighted>
0.0000

> <Gold.Chemscore.DEClash.Weighted>
0.3102

> <Gold.Chemscore.DEInternal.Weighted>
7.2487

> <Gold.Chemscore.Rot.Weighted>
10.8687

> <Gold.Chemscore.Internal.Correction.Weighted>
   9.000000E+99

> <Gold.Protein.RotatedTorsions>
[ 6907 6896 6895 6894 ] final  108.44 input  -60.11 | X-H torsion
[ 7974 7965 7964 7962 ] final   53.67 input  175.53 | X-H torsion
[ 8008 7997 7996 7995 ] final  119.41 input   59.86 | X-H torsion
[ 10167 10162 10161 10158 ] final  -33.55 input  -65.29 | X-H torsion
[ 10718 10713 10712 10709 ] final  158.87 input   66.30 | X-H torsion
[ 10763 10752 10751 10750 ] final   -8.65 input  -60.55 | X-H torsion
[ 11005 11000 10999 10996 ] final -104.99 input  -57.11 | X-H torsion

> <Gold.Protein.ActiveResidues>
 VAL166  LYS551  ARG553  GLY616  TRP617  ASP618  TYR619  PRO620  LYS621  CYS622 
 ASP623  PHE694  ASN695  SER759  ASP760  ASP761  ALA762  ILE779  LEU786  VAL792 
 PHE793  MET794  SER795  GLU796  ALA797  LYS798  CYS799  TRP800  GLU811  SER814 

> <Gold.Protein.RotatedAtoms>
  152.5112  133.9088  159.7477 H   0  0  0  0  0  0  0  0  0  0  0  0  # atno 6907 bound_to 6896
  150.9486  133.6566  159.2783 H   0  0  0  0  0  0  0  0  0  0  0  0  # atno 6908 bound_to 6896
  151.3852  135.0952  159.9561 H   0  0  0  0  0  0  0  0  0  0  0  0  # atno 6909 bound_to 6896
  145.9688  139.4129  143.0203 H   0  0  0  0  0  0  0  0  0  0  0  0  # atno 7974 bound_to 7965
  156.2594  140.2853  156.0987 H   0  0  0  0  0  0  0  0  0  0  0  0  # atno 8008 bound_to 7997
  155.1383  140.0395  157.2809 H   0  0  0  0  0  0  0  0  0  0  0  0  # atno 8009 bound_to 7997
  154.6548  140.2553  155.7180 H   0  0  0  0  0  0  0  0  0  0  0  0  # atno 8010 bound_to 7997
  140.7202  143.3612  151.1959 H   0  0  0  0  0  0  0  0  0  0  0  0  # atno 10167 bound_to 10162
  157.1720  131.0612  151.2177 H   0  0  0  0  0  0  0  0  0  0  0  0  # atno 10718 bound_to 10713
  153.4435  135.7014  153.6154 H   0  0  0  0  0  0  0  0  0  0  0  0  # atno 10763 bound_to 10752
  153.4518  135.3756  155.2288 H   0  0  0  0  0  0  0  0  0  0  0  0  # atno 10764 bound_to 10752
  154.8728  135.3999  154.3837 H   0  0  0  0  0  0  0  0  0  0  0  0  # atno 10765 bound_to 10752
  141.1074  133.8770  157.1679 H   0  0  0  0  0  0  0  0  0  0  0  0  # atno 11005 bound_to 11000
  145.7936  140.9803  143.1036 LP  0  0  0  0  0  0  0  0  0  0  0  0  # atno 17320 bound_to 7965
  144.6832  139.9713  143.7482 LP  0  0  0  0  0  0  0  0  0  0  0  0  # atno 17321 bound_to 7965
  139.7164  143.9293  152.2968 LP  0  0  0  0  0  0  0  0  0  0  0  0  # atno 17342 bound_to 10162
  139.9035  144.6898  150.8639 LP  0  0  0  0  0  0  0  0  0  0  0  0  # atno 17343 bound_to 10162
  157.4034  130.7345  149.6784 LP  0  0  0  0  0  0  0  0  0  0  0  0  # atno 17370 bound_to 10713
  155.9737  130.4114  150.3982 LP  0  0  0  0  0  0  0  0  0  0  0  0  # atno 17371 bound_to 10713
  139.9951  135.0050  157.0064 LP  0  0  0  0  0  0  0  0  0  0  0  0  # atno 17394 bound_to 11000
  140.4865  134.1236  155.7225 LP  0  0  0  0  0  0  0  0  0  0  0  0  # atno 17395 bound_to 11000

$$$$
