AV-unprocessed.smi:2949|AV-procd|sdf|11286|dock3
  -GOLD-   2272016173D 1   1.00000     0.00000
 Structure written by MMmdl.
 34 35  0  0  0  0  0  0  0  0  1 V2000
  146.7272  140.3230  156.2275 N   0  0  0  0  0  0  0  0  0  0  0  0
  146.4678  141.3422  155.4864 C   0  0  0  0  0  0  0  0  0  0  0  0
  145.0310  142.4615  155.6353 S   0  0  0  0  0  0  0  0  0  0  0  0
  145.6339  143.4005  154.2862 C   0  0  0  0  0  0  0  0  0  0  0  0
  146.7720  142.9080  153.8004 C   0  0  0  0  0  0  0  0  0  0  0  0
  147.2601  141.7769  154.4220 N   0  0  0  0  0  0  0  0  0  0  0  0
  148.5405  141.1718  154.0561 C   0  0  0  0  0  0  0  0  0  0  0  0
  149.5153  140.9359  155.2168 C   0  0  0  0  0  0  0  0  0  0  0  0
  149.8165  139.7832  155.5375 O   0  0  0  0  0  0  0  0  0  0  0  0
  149.9681  142.0631  155.8130 N   0  0  0  0  0  0  0  0  0  0  0  0
  150.8241  142.2406  156.8473 C   0  0  0  0  0  0  0  0  0  0  0  0
  151.4318  141.2853  157.3283 O   0  0  0  0  0  0  0  0  0  0  0  0
  150.9706  143.4946  157.3151 N   0  0  0  0  0  0  0  0  0  0  0  0
  152.0944  143.9766  158.1123 C   0  0  0  0  0  0  0  0  0  0  0  0
  152.4677  142.9856  159.2354 C   0  0  0  0  0  0  0  0  0  0  0  0
  152.4959  143.7992  160.5313 C   0  0  0  0  0  0  0  0  0  0  0  0
  151.5141  144.9399  160.2848 C   0  0  0  0  0  0  0  0  0  0  0  0
  151.7244  145.2955  158.8135 C   0  0  0  0  0  0  0  0  0  0  0  0
  145.1068  144.2734  153.9308 H   0  0  0  0  0  0  0  0  0  0  0  0
  147.3430  143.3079  152.9748 H   0  0  0  0  0  0  0  0  0  0  0  0
  148.3642  140.2266  153.5395 H   0  0  0  0  0  0  0  0  0  0  0  0
  149.0369  141.8136  153.3269 H   0  0  0  0  0  0  0  0  0  0  0  0
  149.6058  142.9201  155.4214 H   0  0  0  0  0  0  0  0  0  0  0  0
  150.2452  144.1642  157.0996 H   0  0  0  0  0  0  0  0  0  0  0  0
  152.9503  144.1510  157.4576 H   0  0  0  0  0  0  0  0  0  0  0  0
  151.7154  142.2002  159.3242 H   0  0  0  0  0  0  0  0  0  0  0  0
  153.4225  142.4943  159.0458 H   0  0  0  0  0  0  0  0  0  0  0  0
  152.2369  143.2035  161.4069 H   0  0  0  0  0  0  0  0  0  0  0  0
  153.4960  144.2051  160.6885 H   0  0  0  0  0  0  0  0  0  0  0  0
  150.4933  144.5867  160.4360 H   0  0  0  0  0  0  0  0  0  0  0  0
  151.6774  145.7877  160.9503 H   0  0  0  0  0  0  0  0  0  0  0  0
  152.5601  145.9918  158.7316 H   0  0  0  0  0  0  0  0  0  0  0  0
  150.8537  145.7891  158.3796 H   0  0  0  0  0  0  0  0  0  0  0  0
  146.0095  140.2093  156.9291 H   0  0  0  0  0  0  0  0  0  0  0  0
  1  2  2  0  0  0  0
  1 34  1  0  0  0  0
  2  6  1  0  0  0  0
  2  3  1  0  0  0  0
  3  4  1  0  0  0  0
  4  5  2  0  0  0  0
  4 19  1  0  0  0  0
  5  6  1  0  0  0  0
  5 20  1  0  0  0  0
  6  7  1  0  0  0  0
  7  8  1  0  0  0  0
  7 21  1  0  0  0  0
  7 22  1  0  0  0  0
  8  9  2  0  0  0  0
  8 10  1  0  0  0  0
 10 11  1  0  0  0  0
 10 23  1  0  0  0  0
 11 12  2  0  0  0  0
 11 13  1  0  0  0  0
 13 14  1  0  0  0  0
 13 24  1  0  0  0  0
 14 18  1  0  0  0  0
 14 15  1  0  0  0  0
 14 25  1  0  0  0  0
 15 16  1  0  0  0  0
 15 26  1  0  0  0  0
 15 27  1  0  0  0  0
 16 17  1  0  0  0  0
 16 28  1  0  0  0  0
 16 29  1  0  0  0  0
 17 18  1  0  0  0  0
 17 30  1  0  0  0  0
 17 31  1  0  0  0  0
 18 32  1  0  0  0  0
 18 33  1  0  0  0  0
M  END
> <s_m_source_file>
AV-unprocessed.smi

> <i_m_source_file_index>
2949

> <i_lp_mmshare_version>
43012

> <i_f3d_flags>
0

> <s_epik_input>
W0hdL049YzFcc1tjSF1bY0hdbjFbQ0gyXUMoPU8pW05IXUMoPU8pW05IXVtDSF0yW0NIMl1bQ0gyXVtDSDJdW0NIMl0y

> <s_epik_cmdline>
J2VwaWtfcHl0aG9uJywgJy1waCcsICc3LjAnLCAnLXRuJywgJzgnLCAnLW1hJywgJzIwMCcsICctbWV0YWxfYmluZGluZycsICctaW1hZScsICc8aW5maWxlLm1hZT4nLCAnLW9tYWUnLCAnPG91dGZpbGUubWFlPic=

> <r_epik_Ionization_Penalty>
2.0346

> <r_epik_Ionization_Penalty_Charging>
2.03458

> <r_epik_Ionization_Penalty_Neutral>
2.61125e-05

> <r_epik_State_Penalty>
2.18096

> <r_epik_Charging_Adjusted_Penalty>
4.21554

> <i_epik_Tot_Q>
0

> <i_epik_Tot_abs_Q>
0

> <r_epik_Metal_State_Penalty>
2.18096

> <b_epik_Metal_Only>
0

> <s_lp_Force_Field>
OPLS_2005

> <r_lp_Energy>
22.3694

> <b_lp_Chiralities_Consistent>
1

> <s_lp_Variant>
AV-unprocessed.smi:2949-2

> <Gold.Version>
5.8.1

> <Gold.Id.Protein>
6NUR|6NUR_protein|mol2

> <Gold.PLP.Fitness>
48.1667

> <Gold.PLP.PLP>
-43.3162

> <Gold.PLP.part.hbond>
-2.0000

> <Gold.PLP.part.metal>
0.0000

> <Gold.PLP.part.buried>
-5.8937

> <Gold.PLP.part.nonpolar>
-35.4945

> <Gold.PLP.part.repulsive>
0.1892

> <Gold.PLP.ligand.clash>
0.0000

> <Gold.PLP.ligand.torsion>
0.4304

> <Gold.PLP.Chemscore.Hbond>
1.8960

> <Gold.PLP.Chemscore.CHOScore>
0.0000

> <Gold.PLP.Chemscore.Metal>
0.0000

> <Gold.Chemscore.Hbonds>
donor molecule, donor type, donor heavy atom, donor atom, acceptor molecule, acceptor atom, score
      L1  H    10    23       P1  8028  1.00
      L1  H    13    24       P1  8028  0.89

> <Gold.PLP.Chemscore.Internal.Correction>
0.0234

> <Gold.Rescore>
     Score         DG    S(hbond)    S(metal)    S(lipo)     H(rot)  DE(clash)    DE(int)     intcor
     13.97     -17.08       1.71        0.00      87.38       1.69       0.04       3.08       ----

> <Gold.Chemscore.Fitness>
13.9667

> <Gold.Chemscore.DG>
-17.0805

> <Gold.Chemscore.ZeroCoef>
-5.4800

> <Gold.Chemscore.Hbond>
1.7053

> <Gold.Chemscore.Metal>
0.0000

> <Gold.Chemscore.Lipo>
87.3830

> <Gold.Chemscore.Internal_Hbond>
0.0000

> <Gold.Chemscore.DEClash>
0.0388

> <Gold.Chemscore.DEInternal>
3.0751

> <Gold.Chemscore.Rot>
1.6871

> <Gold.Chemscore.Internal.Correction>
   9.000000E+99

> <Gold.Chemscore.Hbonds>
donor molecule, donor type, donor heavy atom, donor atom, acceptor molecule, acceptor atom, score
      L1  H    10    23       P1  8028  0.94
      L1  H    13    24       P1  8028  0.72

> <Gold.Chemscore.Hbond.Weighted>
-5.6958

> <Gold.Chemscore.Metal.Weighted>
-0.0000

> <Gold.Chemscore.Lipo.Weighted>
-10.2238

> <Gold.Chemscore.Internal_Hbond.Weighted>
0.0000

> <Gold.Chemscore.DEClash.Weighted>
0.0388

> <Gold.Chemscore.DEInternal.Weighted>
3.0751

> <Gold.Chemscore.Rot.Weighted>
4.3191

> <Gold.Chemscore.Internal.Correction.Weighted>
   9.000000E+99

> <Gold.Protein.RotatedTorsions>
[ 6907 6896 6895 6894 ] final  -51.01 input  -60.11 | X-H torsion
[ 7974 7965 7964 7962 ] final -162.46 input  175.53 | X-H torsion
[ 8008 7997 7996 7995 ] final -143.99 input   59.86 | X-H torsion
[ 10167 10162 10161 10158 ] final -150.69 input  -65.29 | X-H torsion
[ 10718 10713 10712 10709 ] final -140.28 input   66.30 | X-H torsion
[ 10763 10752 10751 10750 ] final  107.91 input  -60.55 | X-H torsion
[ 11005 11000 10999 10996 ] final  122.38 input  -57.11 | X-H torsion

> <Gold.Protein.ActiveResidues>
 VAL166  LYS551  ARG553  GLY616  TRP617  ASP618  TYR619  PRO620  LYS621  CYS622 
 ASP623  PHE694  ASN695  SER759  ASP760  ASP761  ALA762  ILE779  LEU786  VAL792 
 PHE793  MET794  SER795  GLU796  ALA797  LYS798  CYS799  TRP800  GLU811  SER814 

> <Gold.Protein.RotatedAtoms>
  150.8652  134.8014  159.7113 H   0  0  0  0  0  0  0  0  0  0  0  0  # atno 6907 bound_to 6896
  152.4676  134.5035  159.9742 H   0  0  0  0  0  0  0  0  0  0  0  0  # atno 6908 bound_to 6896
  151.5132  133.3442  159.2924 H   0  0  0  0  0  0  0  0  0  0  0  0  # atno 6909 bound_to 6896
  144.7356  140.3249  143.6164 H   0  0  0  0  0  0  0  0  0  0  0  0  # atno 7974 bound_to 7965
  155.5196  140.0590  157.2909 H   0  0  0  0  0  0  0  0  0  0  0  0  # atno 8008 bound_to 7997
  154.4522  140.1955  156.0431 H   0  0  0  0  0  0  0  0  0  0  0  0  # atno 8009 bound_to 7997
  156.0727  140.3258  155.7600 H   0  0  0  0  0  0  0  0  0  0  0  0  # atno 8010 bound_to 7997
  139.7332  143.8776  152.2541 H   0  0  0  0  0  0  0  0  0  0  0  0  # atno 10167 bound_to 10162
  156.3205  130.7532  151.1628 H   0  0  0  0  0  0  0  0  0  0  0  0  # atno 10718 bound_to 10713
  153.4133  135.3829  155.2064 H   0  0  0  0  0  0  0  0  0  0  0  0  # atno 10763 bound_to 10752
  154.8739  135.3799  154.4473 H   0  0  0  0  0  0  0  0  0  0  0  0  # atno 10764 bound_to 10752
  153.4984  135.7088  153.5907 H   0  0  0  0  0  0  0  0  0  0  0  0  # atno 10765 bound_to 10752
  139.9266  134.9641  156.8100 H   0  0  0  0  0  0  0  0  0  0  0  0  # atno 11005 bound_to 11000
  145.7531  139.1800  143.2310 LP  0  0  0  0  0  0  0  0  0  0  0  0  # atno 17320 bound_to 7965
  146.1045  140.7504  142.9533 LP  0  0  0  0  0  0  0  0  0  0  0  0  # atno 17321 bound_to 7965
  139.8705  144.7070  150.8993 LP  0  0  0  0  0  0  0  0  0  0  0  0  # atno 17342 bound_to 10162
  140.7774  143.3742  151.1593 LP  0  0  0  0  0  0  0  0  0  0  0  0  # atno 17343 bound_to 10162
  157.7411  131.0509  150.5122 LP  0  0  0  0  0  0  0  0  0  0  0  0  # atno 17370 bound_to 10713
  156.5274  130.4176  149.6219 LP  0  0  0  0  0  0  0  0  0  0  0  0  # atno 17371 bound_to 10713
  140.6320  133.9897  155.7666 LP  0  0  0  0  0  0  0  0  0  0  0  0  # atno 17394 bound_to 11000
  141.0827  134.0038  157.3361 LP  0  0  0  0  0  0  0  0  0  0  0  0  # atno 17395 bound_to 11000

$$$$
