AV-unprocessed.smi:2413|AV-procd|sdf|9537|dock9
  -GOLD-   2272013173D 1   1.00000     0.00000
 Structure written by MMmdl.
 46 47  0  0  0  0  0  0  0  0  2 V2000
  154.3477  143.3044  165.1443 C   0  0  0  0  0  0  0  0  0  0  0  0
  154.8423  141.9350  164.6898 C   0  0  0  0  0  0  0  0  0  0  0  0
  155.2075  141.1075  165.5239 O   0  0  0  0  0  0  0  0  0  0  0  0
  154.8452  141.7059  163.3679 N   0  0  0  0  0  0  0  0  0  0  0  0
  155.2718  140.4641  162.7306 C   0  0  0  0  0  0  0  0  0  0  0  0
  154.2449  139.9388  161.7101 C   0  0  1  0  0  0  0  0  0  0  0  0
  153.7094  141.0372  160.7664 C   0  0  0  0  0  0  0  0  0  0  0  0
  152.8229  140.4507  159.7702 N   0  0  0  0  0  0  0  0  0  0  0  0
  152.1926  141.3994  158.9562 C   0  0  0  0  0  0  0  0  0  0  0  0
  152.5634  142.7577  158.9535 C   0  0  0  0  0  0  0  0  0  0  0  0
  151.8513  143.6046  158.0856 C   0  0  0  0  0  0  0  0  0  0  0  0
  150.8626  143.1095  157.3019 N   0  3  0  0  0  0  0  0  0  0  0  0
  150.5549  141.8007  157.3485 C   0  0  0  0  0  0  0  0  0  0  0  0
  149.4222  141.2823  156.4492 C   0  0  0  0  0  0  0  0  0  0  0  0
  149.2671  139.7449  156.5396 C   0  0  0  0  0  0  0  0  0  0  0  0
  149.7282  141.6274  154.9776 C   0  0  0  0  0  0  0  0  0  0  0  0
  148.0836  141.9102  156.8856 C   0  0  0  0  0  0  0  0  0  0  0  0
  151.2003  140.9503  158.1627 N   0  0  0  0  0  0  0  0  0  0  0  0
  153.4516  139.3668  159.0272 C   0  0  0  0  0  0  0  0  0  0  0  0
  153.9961  138.3115  160.0037 C   0  0  0  0  0  0  0  0  0  0  0  0
  154.8856  138.9336  160.9267 O   0  0  0  0  0  0  0  0  0  0  0  0
  154.1948  143.9768  164.2991 H   0  0  0  0  0  0  0  0  0  0  0  0
  155.0737  143.7628  165.8161 H   0  0  0  0  0  0  0  0  0  0  0  0
  153.4021  143.2040  165.6775 H   0  0  0  0  0  0  0  0  0  0  0  0
  154.5342  142.4481  162.7580 H   0  0  0  0  0  0  0  0  0  0  0  0
  156.2245  140.6504  162.2340 H   0  0  0  0  0  0  0  0  0  0  0  0
  155.4657  139.7074  163.4926 H   0  0  0  0  0  0  0  0  0  0  0  0
  153.4118  139.4829  162.2483 H   0  0  0  0  0  0  0  0  0  0  0  0
  153.1641  141.7923  161.3343 H   0  0  0  0  0  0  0  0  0  0  0  0
  154.5400  141.5422  160.2712 H   0  0  0  0  0  0  0  0  0  0  0  0
  153.3546  143.1369  159.5837 H   0  0  0  0  0  0  0  0  0  0  0  0
  152.0406  144.6640  157.9914 H   0  0  0  0  0  0  0  0  0  0  0  0
  148.4615  139.3897  155.8956 H   0  0  0  0  0  0  0  0  0  0  0  0
  149.0309  139.4216  157.5543 H   0  0  0  0  0  0  0  0  0  0  0  0
  150.1766  139.2285  156.2293 H   0  0  0  0  0  0  0  0  0  0  0  0
  150.6741  141.1891  154.6570 H   0  0  0  0  0  0  0  0  0  0  0  0
  149.7948  142.7042  154.8197 H   0  0  0  0  0  0  0  0  0  0  0  0
  148.9503  141.2524  154.3115 H   0  0  0  0  0  0  0  0  0  0  0  0
  147.2558  141.5432  156.2775 H   0  0  0  0  0  0  0  0  0  0  0  0
  148.0967  142.9964  156.7900 H   0  0  0  0  0  0  0  0  0  0  0  0
  147.8566  141.6744  157.9260 H   0  0  0  0  0  0  0  0  0  0  0  0
  152.7274  138.9128  158.3496 H   0  0  0  0  0  0  0  0  0  0  0  0
  154.2658  139.7585  158.4163 H   0  0  0  0  0  0  0  0  0  0  0  0
  153.1832  137.8191  160.5400 H   0  0  0  0  0  0  0  0  0  0  0  0
  154.5344  137.5363  159.4581 H   0  0  0  0  0  0  0  0  0  0  0  0
  150.3555  143.7372  156.6772 H   0  0  0  0  0  0  0  0  0  0  0  0
  1  2  1  0  0  0  0
  1 22  1  0  0  0  0
  1 23  1  0  0  0  0
  1 24  1  0  0  0  0
  2  3  2  0  0  0  0
  2  4  1  0  0  0  0
  4  5  1  0  0  0  0
  4 25  1  0  0  0  0
  5  6  1  0  0  0  0
  5 26  1  0  0  0  0
  5 27  1  0  0  0  0
  6 21  1  0  0  0  0
  6  7  1  0  0  0  0
  6 28  1  0  0  0  0
  7  8  1  0  0  0  0
  7 29  1  0  0  0  0
  7 30  1  0  0  0  0
  8  9  1  0  0  0  0
  8 19  1  0  0  0  0
  9 18  1  0  0  0  0
  9 10  2  0  0  0  0
 10 11  1  0  0  0  0
 10 31  1  0  0  0  0
 11 12  2  0  0  0  0
 11 32  1  0  0  0  0
 12 13  1  0  0  0  0
 12 46  1  0  0  0  0
 13 14  1  0  0  0  0
 13 18  2  0  0  0  0
 14 15  1  0  0  0  0
 14 16  1  0  0  0  0
 14 17  1  0  0  0  0
 15 33  1  0  0  0  0
 15 34  1  0  0  0  0
 15 35  1  0  0  0  0
 16 36  1  0  0  0  0
 16 37  1  0  0  0  0
 16 38  1  0  0  0  0
 17 39  1  0  0  0  0
 17 40  1  0  0  0  0
 17 41  1  0  0  0  0
 19 20  1  0  0  0  0
 19 42  1  0  0  0  0
 19 43  1  0  0  0  0
 20 21  1  0  0  0  0
 20 44  1  0  0  0  0
 20 45  1  0  0  0  0
M  CHG  1  12   1
M  END
> <s_m_source_file>
AV-unprocessed.smi

> <i_m_source_file_index>
2413

> <i_lp_mmshare_version>
43012

> <i_f3d_flags>
0

> <s_epik_input>
W0NIM11DKD1PKVtOSF1bQ0gyXVtDQEBIXTFbQ0gyXU4oW0NIMl1bQ0gyXU8xKWMyW2NIXVtjSF1uYyhuMilDKFtDSDNdKShbQ0gzXSlbQ0gzXQ==

> <s_epik_cmdline>
J2VwaWtfcHl0aG9uJywgJy1waCcsICc3LjAnLCAnLXRuJywgJzgnLCAnLW1hJywgJzIwMCcsICctbWV0YWxfYmluZGluZycsICctaW1hZScsICc8aW5maWxlLm1hZT4nLCAnLW9tYWUnLCAnPG91dGZpbGUubWFlPic=

> <r_lp_tautomer_probability>
0.999336

> <r_epik_Ionization_Penalty>
2.26127

> <r_epik_Ionization_Penalty_Charging>
2.26127

> <r_epik_Ionization_Penalty_Neutral>
4.08984e-07

> <r_epik_State_Penalty>
2.40914

> <r_epik_Charging_Adjusted_Penalty>
4.67041

> <i_epik_Tot_Q>
1

> <i_epik_Tot_abs_Q>
1

> <r_epik_Metal_State_Penalty>
2.42208

> <b_epik_Metal_Only>
0

> <s_lp_Force_Field>
OPLS_2005

> <r_lp_Energy>
19.627

> <b_lp_Chiralities_Consistent>
1

> <s_lp_Variant>
AV-unprocessed.smi:2413-4

> <Gold.Version>
5.8.1

> <Gold.Id.Protein>
6NUR|6NUR_protein|mol2

> <Gold.PLP.Fitness>
40.0679

> <Gold.PLP.PLP>
-34.5918

> <Gold.PLP.part.hbond>
-1.6979

> <Gold.PLP.part.metal>
0.0000

> <Gold.PLP.part.buried>
-1.0493

> <Gold.PLP.part.nonpolar>
-30.5581

> <Gold.PLP.part.repulsive>
0.0174

> <Gold.PLP.ligand.clash>
0.0157

> <Gold.PLP.ligand.torsion>
0.3138

> <Gold.PLP.Chemscore.Hbond>
2.0000

> <Gold.PLP.Chemscore.CHOScore>
0.0000

> <Gold.PLP.Chemscore.Metal>
0.0000

> <Gold.Chemscore.Hbonds>
donor molecule, donor type, donor heavy atom, donor atom, acceptor molecule, acceptor atom, score
      L1  H    12    46       P1  8028  2.00

> <Gold.PLP.Chemscore.Internal.Correction>
0.1193

> <Gold.Rescore>
     Score         DG    S(hbond)    S(metal)    S(lipo)     H(rot)  DE(clash)    DE(int)     intcor
     12.67     -14.34       0.99        0.00      86.08       1.77       1.54       0.13       ----

> <Gold.Chemscore.Fitness>
12.6687

> <Gold.Chemscore.DG>
-14.3377

> <Gold.Chemscore.ZeroCoef>
-5.4800

> <Gold.Chemscore.Hbond>
0.9948

> <Gold.Chemscore.Metal>
0.0000

> <Gold.Chemscore.Lipo>
86.0789

> <Gold.Chemscore.Internal_Hbond>
0.0000

> <Gold.Chemscore.DEClash>
1.5393

> <Gold.Chemscore.DEInternal>
0.1296

> <Gold.Chemscore.Rot>
1.7719

> <Gold.Chemscore.Internal.Correction>
   9.000000E+99

> <Gold.Chemscore.Hbonds>
donor molecule, donor type, donor heavy atom, donor atom, acceptor molecule, acceptor atom, score
      L1  H    12    46       P1  8028  0.93

> <Gold.Chemscore.Hbond.Weighted>
-3.3225

> <Gold.Chemscore.Metal.Weighted>
-0.0000

> <Gold.Chemscore.Lipo.Weighted>
-10.0712

> <Gold.Chemscore.Internal_Hbond.Weighted>
0.0000

> <Gold.Chemscore.DEClash.Weighted>
1.5393

> <Gold.Chemscore.DEInternal.Weighted>
0.1296

> <Gold.Chemscore.Rot.Weighted>
4.5361

> <Gold.Chemscore.Internal.Correction.Weighted>
   9.000000E+99

> <Gold.Protein.RotatedTorsions>
[ 6907 6896 6895 6894 ] final  133.92 input  -60.11 | X-H torsion
[ 7974 7965 7964 7962 ] final  -23.98 input  175.53 | X-H torsion
[ 8008 7997 7996 7995 ] final  -57.37 input   59.86 | X-H torsion
[ 10167 10162 10161 10158 ] final  100.30 input  -65.29 | X-H torsion
[ 10718 10713 10712 10709 ] final   58.93 input   66.30 | X-H torsion
[ 10763 10752 10751 10750 ] final  -32.53 input  -60.55 | X-H torsion
[ 11005 11000 10999 10996 ] final   98.65 input  -57.11 | X-H torsion

> <Gold.Protein.ActiveResidues>
 VAL166  LYS551  ARG553  GLY616  TRP617  ASP618  TYR619  PRO620  LYS621  CYS622 
 ASP623  PHE694  ASN695  SER759  ASP760  ASP761  ALA762  ILE779  LEU786  VAL792 
 PHE793  MET794  SER795  GLU796  ALA797  LYS798  CYS799  TRP800  GLU811  SER814 

> <Gold.Protein.RotatedAtoms>
  152.3169  133.5811  159.5717 H   0  0  0  0  0  0  0  0  0  0  0  0  # atno 6907 bound_to 6896
  150.7351  134.0070  159.3666 H   0  0  0  0  0  0  0  0  0  0  0  0  # atno 6908 bound_to 6896
  151.7958  135.0723  160.0444 H   0  0  0  0  0  0  0  0  0  0  0  0  # atno 6909 bound_to 6896
  146.1583  140.4689  142.8582 H   0  0  0  0  0  0  0  0  0  0  0  0  # atno 7974 bound_to 7965
  154.4265  140.1108  156.5786 H   0  0  0  0  0  0  0  0  0  0  0  0  # atno 8008 bound_to 7997
  155.6136  140.3494  155.4611 H   0  0  0  0  0  0  0  0  0  0  0  0  # atno 8009 bound_to 7997
  156.0080  140.1213  157.0472 H   0  0  0  0  0  0  0  0  0  0  0  0  # atno 8010 bound_to 7997
  139.7539  144.6975  151.0391 H   0  0  0  0  0  0  0  0  0  0  0  0  # atno 10167 bound_to 10162
  157.5635  130.8854  149.9150 H   0  0  0  0  0  0  0  0  0  0  0  0  # atno 10718 bound_to 10713
  153.8153  135.6879  153.4835 H   0  0  0  0  0  0  0  0  0  0  0  0  # atno 10763 bound_to 10752
  153.1603  135.4582  154.9760 H   0  0  0  0  0  0  0  0  0  0  0  0  # atno 10764 bound_to 10752
  154.7950  135.3316  154.7630 H   0  0  0  0  0  0  0  0  0  0  0  0  # atno 10765 bound_to 10752
  139.8772  134.9059  156.4488 H   0  0  0  0  0  0  0  0  0  0  0  0  # atno 11005 bound_to 11000
  144.7992  140.6182  143.6489 LP  0  0  0  0  0  0  0  0  0  0  0  0  # atno 17320 bound_to 7965
  145.4653  139.1508  143.3844 LP  0  0  0  0  0  0  0  0  0  0  0  0  # atno 17321 bound_to 7965
  140.7801  143.4776  151.0061 LP  0  0  0  0  0  0  0  0  0  0  0  0  # atno 17342 bound_to 10162
  139.8463  143.7497  152.3179 LP  0  0  0  0  0  0  0  0  0  0  0  0  # atno 17343 bound_to 10162
  156.0686  130.3688  150.0825 LP  0  0  0  0  0  0  0  0  0  0  0  0  # atno 17370 bound_to 10713
  156.8986  130.9613  151.3579 LP  0  0  0  0  0  0  0  0  0  0  0  0  # atno 17371 bound_to 10713
  140.8946  133.7823  155.9611 LP  0  0  0  0  0  0  0  0  0  0  0  0  # atno 17394 bound_to 11000
  140.8716  134.2719  157.5188 LP  0  0  0  0  0  0  0  0  0  0  0  0  # atno 17395 bound_to 11000

$$$$
