AV-unprocessed.smi:99|AV-procd|sdf|888|dock3
  -GOLD-   2262017373D 1   1.00000     0.00000
 Structure written by MMmdl.
 52 55  0  0  0  0  0  0  0  0  2 V2000
  152.4633  139.0049  160.2045 O   0  0  0  0  0  0  0  0  0  0  0  0
  151.7192  139.7197  159.5302 C   0  0  0  0  0  0  0  0  0  0  0  0
  150.7559  139.2410  158.7175 O   0  0  0  0  0  0  0  0  0  0  0  0
  150.6456  137.8445  158.4878 C   0  0  0  0  0  0  0  0  0  0  0  0
  151.4409  137.4521  157.2269 C   0  0  1  0  0  0  0  0  0  0  0  0
  151.3187  136.0458  157.0499 O   0  0  0  0  0  0  0  0  0  0  0  0
  150.3000  135.7968  156.1328 C   0  0  2  0  0  0  0  0  0  0  0  0
  150.3437  134.3403  155.6926 N   0  0  0  0  0  0  0  0  0  0  0  0
  151.2835  133.4520  156.1958 C   0  0  0  0  0  0  0  0  0  0  0  0
  151.3477  132.1723  155.7742 C   0  0  0  0  0  0  0  0  0  0  0  0
  150.4218  131.7102  154.7462 C   0  0  0  0  0  0  0  0  0  0  0  0
  150.4522  130.5302  154.4023 O   0  0  0  0  0  0  0  0  0  0  0  0
  149.5642  132.6202  154.2031 N   0  5  0  0  0  0  0  0  0  0  0  0
  149.5134  133.9215  154.6128 C   0  0  0  0  0  0  0  0  0  0  0  0
  148.7845  134.7571  154.0777 O   0  0  0  0  0  0  0  0  0  0  0  0
  150.5585  136.8561  155.0469 C   0  0  2  0  0  0  0  0  0  0  0  0
  151.6266  136.5429  154.1702 O   0  0  0  0  0  0  0  0  0  0  0  0
  150.9643  138.0630  155.8862 C   0  0  1  0  0  0  0  0  0  0  0  0
  149.8381  138.9242  156.0424 O   0  0  0  0  0  0  0  0  0  0  0  0
  149.8701  140.2097  155.6213 C   0  0  0  0  0  0  0  0  0  0  0  0
  150.9062  140.8566  155.4580 O   0  0  0  0  0  0  0  0  0  0  0  0
  148.5084  140.7829  155.4201 C   0  0  0  0  0  0  0  0  0  0  0  0
  148.3717  142.0281  154.7634 C   0  0  0  0  0  0  0  0  0  0  0  0
  147.1028  142.6150  154.5953 C   0  0  0  0  0  0  0  0  0  0  0  0
  145.9544  141.9628  155.0802 C   0  0  0  0  0  0  0  0  0  0  0  0
  146.0763  140.7212  155.7311 C   0  0  0  0  0  0  0  0  0  0  0  0
  147.3445  140.1323  155.8996 C   0  0  0  0  0  0  0  0  0  0  0  0
  151.7562  141.2097  159.5661 C   0  0  0  0  0  0  0  0  0  0  0  0
  150.9668  141.9439  158.6506 C   0  0  0  0  0  0  0  0  0  0  0  0
  151.0098  143.3513  158.6345 C   0  0  0  0  0  0  0  0  0  0  0  0
  151.8412  144.0417  159.5355 C   0  0  0  0  0  0  0  0  0  0  0  0
  152.6282  143.3231  160.4539 C   0  0  0  0  0  0  0  0  0  0  0  0
  152.5867  141.9155  160.4713 C   0  0  0  0  0  0  0  0  0  0  0  0
  151.0322  137.3120  159.3572 H   0  0  0  0  0  0  0  0  0  0  0  0
  149.6009  137.5526  158.3695 H   0  0  0  0  0  0  0  0  0  0  0  0
  152.4958  137.6784  157.3855 H   0  0  0  0  0  0  0  0  0  0  0  0
  149.3226  135.9133  156.6055 H   0  0  0  0  0  0  0  0  0  0  0  0
  152.0078  133.7743  156.9269 H   0  0  0  0  0  0  0  0  0  0  0  0
  152.0916  131.5011  156.1777 H   0  0  0  0  0  0  0  0  0  0  0  0
  149.6535  137.0269  154.4622 H   0  0  0  0  0  0  0  0  0  0  0  0
  151.4051  136.8610  153.3081 H   0  0  0  0  0  0  0  0  0  0  0  0
  151.7941  138.5830  155.4054 H   0  0  0  0  0  0  0  0  0  0  0  0
  149.2399  142.5534  154.3924 H   0  0  0  0  0  0  0  0  0  0  0  0
  147.0118  143.5692  154.0975 H   0  0  0  0  0  0  0  0  0  0  0  0
  144.9816  142.4149  154.9544 H   0  0  0  0  0  0  0  0  0  0  0  0
  145.1959  140.2207  156.1064 H   0  0  0  0  0  0  0  0  0  0  0  0
  147.4034  139.1835  156.4124 H   0  0  0  0  0  0  0  0  0  0  0  0
  150.3284  141.4350  157.9428 H   0  0  0  0  0  0  0  0  0  0  0  0
  150.4066  143.9012  157.9273 H   0  0  0  0  0  0  0  0  0  0  0  0
  151.8759  145.1212  159.5214 H   0  0  0  0  0  0  0  0  0  0  0  0
  153.2683  143.8516  161.1447 H   0  0  0  0  0  0  0  0  0  0  0  0
  153.2098  141.3942  161.1831 H   0  0  0  0  0  0  0  0  0  0  0  0
  1  2  2  0  0  0  0
  2  3  1  0  0  0  0
  2 28  1  0  0  0  0
  3  4  1  0  0  0  0
  4  5  1  0  0  0  0
  4 34  1  0  0  0  0
  4 35  1  0  0  0  0
  5 18  1  0  0  0  0
  5  6  1  0  0  0  0
  5 36  1  0  0  0  0
  6  7  1  0  0  0  0
  7  8  1  0  0  0  0
  7 16  1  0  0  0  0
  7 37  1  0  0  0  0
  8 14  1  0  0  0  0
  8  9  1  0  0  0  0
  9 10  2  0  0  0  0
  9 38  1  0  0  0  0
 10 11  1  0  0  0  0
 10 39  1  0  0  0  0
 11 12  2  0  0  0  0
 11 13  1  0  0  0  0
 13 14  1  0  0  0  0
 14 15  2  0  0  0  0
 16 17  1  0  0  0  0
 16 18  1  0  0  0  0
 16 40  1  0  0  0  0
 17 41  1  0  0  0  0
 18 19  1  0  0  0  0
 18 42  1  0  0  0  0
 19 20  1  0  0  0  0
 20 21  2  0  0  0  0
 20 22  1  0  0  0  0
 22 27  1  0  0  0  0
 22 23  2  0  0  0  0
 23 24  1  0  0  0  0
 23 43  1  0  0  0  0
 24 25  2  0  0  0  0
 24 44  1  0  0  0  0
 25 26  1  0  0  0  0
 25 45  1  0  0  0  0
 26 27  2  0  0  0  0
 26 46  1  0  0  0  0
 27 47  1  0  0  0  0
 28 33  1  0  0  0  0
 28 29  2  0  0  0  0
 29 30  1  0  0  0  0
 29 48  1  0  0  0  0
 30 31  2  0  0  0  0
 30 49  1  0  0  0  0
 31 32  1  0  0  0  0
 31 50  1  0  0  0  0
 32 33  2  0  0  0  0
 32 51  1  0  0  0  0
 33 52  1  0  0  0  0
M  CHG  1  13  -1
M  END
> <s_m_source_file>
AV-unprocessed.smi

> <i_m_source_file_index>
99

> <i_lp_mmshare_version>
43012

> <i_f3d_flags>
0

> <s_epik_input>
W2NIXTFbY0hdW2NIXVtjSF1bY0hdYzFDKD1PKU9bQ0gyXVtDQEBIXTJPW0NAQEhdKG4zW2NIXVtjSF1jKD1PKVtuSF1jMz1PKVtDQEBIXShbT0hdKVtDQEhdMk9DKD1PKWM0W2NIXVtjSF1bY0hdW2NIXVtjSF00

> <s_epik_cmdline>
J2VwaWtfcHl0aG9uJywgJy1waCcsICc3LjAnLCAnLXRuJywgJzgnLCAnLW1hJywgJzIwMCcsICctbWV0YWxfYmluZGluZycsICctaW1hZScsICc8aW5maWxlLm1hZT4nLCAnLW9tYWUnLCAnPG91dGZpbGUubWFlPic=

> <r_lp_tautomer_probability>
1

> <r_epik_Ionization_Penalty>
2.89159

> <r_epik_Ionization_Penalty_Charging>
2.1077e-08

> <r_epik_Ionization_Penalty_Neutral>
2.89159

> <r_epik_State_Penalty>
2.88671

> <r_epik_Charging_Adjusted_Penalty>
2.88671

> <i_epik_Tot_Q>
-1

> <i_epik_Tot_abs_Q>
1

> <r_epik_Metal_State_Penalty>
0.0727308

> <b_epik_Metal_Only>
1

> <s_epik_Chemistry_Notes>
This compound has an ester and may undergo hydrolysis at high or low pH. This compound contains an acetal/aminal-like group ( X-CH(R)-Y where X, Y are N, S, or O) that may be acid/base labile, releasing an aldehyde.

> <s_lp_Force_Field>
OPLS_2005

> <r_lp_Energy>
52.0393

> <b_lp_Chiralities_Consistent>
1

> <s_lp_Variant>
AV-unprocessed.smi:99-24

> <Gold.Version>
5.8.1

> <Gold.Id.Protein>
6NUR|6NUR_protein|mol2

> <Gold.PLP.Fitness>
57.3506

> <Gold.PLP.PLP>
-50.9520

> <Gold.PLP.part.hbond>
-2.9764

> <Gold.PLP.part.metal>
0.0000

> <Gold.PLP.part.buried>
-5.5520

> <Gold.PLP.part.nonpolar>
-43.7264

> <Gold.PLP.part.repulsive>
0.2760

> <Gold.PLP.ligand.clash>
0.0000

> <Gold.PLP.ligand.torsion>
1.4622

> <Gold.PLP.Chemscore.Hbond>
2.9680

> <Gold.PLP.Chemscore.CHOScore>
0.0000

> <Gold.PLP.Chemscore.Metal>
0.0000

> <Gold.Chemscore.Hbonds>
donor molecule, donor type, donor heavy atom, donor atom, acceptor molecule, acceptor atom, score
      L1  H    17    41       P1  7949  0.69
      P1  H  7989  7998       L1    21  0.67
      P1  H 10752 10765       L1    17  1.00

> <Gold.PLP.Chemscore.Internal.Correction>
0.4189

> <Gold.Rescore>
     Score         DG    S(hbond)    S(metal)    S(lipo)     H(rot)  DE(clash)    DE(int)     intcor
     16.05     -19.02       2.30        0.00     118.68       3.13       0.09       2.88       ----

> <Gold.Chemscore.Fitness>
16.0471

> <Gold.Chemscore.DG>
-19.0166

> <Gold.Chemscore.ZeroCoef>
-5.4800

> <Gold.Chemscore.Hbond>
2.2981

> <Gold.Chemscore.Metal>
0.0000

> <Gold.Chemscore.Lipo>
118.6791

> <Gold.Chemscore.Internal_Hbond>
0.0000

> <Gold.Chemscore.DEClash>
0.0911

> <Gold.Chemscore.DEInternal>
2.8784

> <Gold.Chemscore.Rot>
3.1346

> <Gold.Chemscore.Internal.Correction>
   9.000000E+99

> <Gold.Chemscore.Hbonds>
donor molecule, donor type, donor heavy atom, donor atom, acceptor molecule, acceptor atom, score
      L1  H    17    41       P1  7949  0.52
      P1  H  7989  7998       L1    21  0.62
      P1  H 10752 10765       L1    17  0.94

> <Gold.Chemscore.Hbond.Weighted>
-7.6757

> <Gold.Chemscore.Metal.Weighted>
-0.0000

> <Gold.Chemscore.Lipo.Weighted>
-13.8854

> <Gold.Chemscore.Internal_Hbond.Weighted>
0.0000

> <Gold.Chemscore.DEClash.Weighted>
0.0911

> <Gold.Chemscore.DEInternal.Weighted>
2.8784

> <Gold.Chemscore.Rot.Weighted>
8.0246

> <Gold.Chemscore.Internal.Correction.Weighted>
   9.000000E+99

> <Gold.Protein.RotatedTorsions>
[ 6907 6896 6895 6894 ] final   38.64 input  -60.11 | X-H torsion
[ 7974 7965 7964 7962 ] final  -94.00 input  175.53 | X-H torsion
[ 8008 7997 7996 7995 ] final   51.09 input   59.86 | X-H torsion
[ 10167 10162 10161 10158 ] final -146.50 input  -65.29 | X-H torsion
[ 10718 10713 10712 10709 ] final  -21.89 input   66.30 | X-H torsion
[ 10763 10752 10751 10750 ] final  163.85 input  -60.55 | X-H torsion
[ 11005 11000 10999 10996 ] final  -26.19 input  -57.11 | X-H torsion

> <Gold.Protein.ActiveResidues>
 VAL166  LYS551  ARG553  GLY616  TRP617  ASP618  TYR619  PRO620  LYS621  CYS622 
 ASP623  PHE694  ASN695  SER759  ASP760  ASP761  ALA762  ILE779  LEU786  VAL792 
 PHE793  MET794  SER795  GLU796  ALA797  LYS798  CYS799  TRP800  GLU811  SER814 

> <Gold.Protein.RotatedAtoms>
  152.1591  134.8926  160.0542 H   0  0  0  0  0  0  0  0  0  0  0  0  # atno 6907 bound_to 6896
  151.9929  133.3792  159.4159 H   0  0  0  0  0  0  0  0  0  0  0  0  # atno 6908 bound_to 6896
  150.6885  134.3839  159.5090 H   0  0  0  0  0  0  0  0  0  0  0  0  # atno 6909 bound_to 6896
  145.3790  140.9515  143.2404 H   0  0  0  0  0  0  0  0  0  0  0  0  # atno 7974 bound_to 7965
  155.4295  140.3450  155.4279 H   0  0  0  0  0  0  0  0  0  0  0  0  # atno 8008 bound_to 7997
  156.1345  140.1524  156.9047 H   0  0  0  0  0  0  0  0  0  0  0  0  # atno 8009 bound_to 7997
  154.4920  140.0838  156.7596 H   0  0  0  0  0  0  0  0  0  0  0  0  # atno 8010 bound_to 7997
  139.7707  143.8241  152.2624 H   0  0  0  0  0  0  0  0  0  0  0  0  # atno 10167 bound_to 10162
  156.5120  130.4612  149.6643 H   0  0  0  0  0  0  0  0  0  0  0  0  # atno 10718 bound_to 10713
  154.3000  135.2759  155.2615 H   0  0  0  0  0  0  0  0  0  0  0  0  # atno 10763 bound_to 10752
  154.5057  135.5796  153.6568 H   0  0  0  0  0  0  0  0  0  0  0  0  # atno 10764 bound_to 10752
  152.9902  135.6168  154.3170 H   0  0  0  0  0  0  0  0  0  0  0  0  # atno 10765 bound_to 10752
  140.9007  133.7526  156.0540 H   0  0  0  0  0  0  0  0  0  0  0  0  # atno 11005 bound_to 11000
  144.8521  139.5305  143.6851 LP  0  0  0  0  0  0  0  0  0  0  0  0  # atno 17320 bound_to 7965
  146.2851  139.6981  142.9201 LP  0  0  0  0  0  0  0  0  0  0  0  0  # atno 17321 bound_to 7965
  139.8275  144.7268  150.9493 LP  0  0  0  0  0  0  0  0  0  0  0  0  # atno 17342 bound_to 10162
  140.7814  143.4101  151.1007 LP  0  0  0  0  0  0  0  0  0  0  0  0  # atno 17343 bound_to 10162
  156.3231  130.7291  151.2207 LP  0  0  0  0  0  0  0  0  0  0  0  0  # atno 17370 bound_to 10713
  157.7449  131.0450  150.4822 LP  0  0  0  0  0  0  0  0  0  0  0  0  # atno 17371 bound_to 10713
  140.8234  134.3263  157.5374 LP  0  0  0  0  0  0  0  0  0  0  0  0  # atno 17394 bound_to 11000
  139.8742  134.9322  156.3548 LP  0  0  0  0  0  0  0  0  0  0  0  0  # atno 17395 bound_to 11000

$$$$
