AV-unprocessed.smi:72|AV-procd|sdf|727|dock2
  -GOLD-   2262017 53D 1   1.00000     0.00000
 Structure written by MMmdl.
 28 29  0  0  0  0  0  0  0  0  2 V2000
  150.2583  134.4264  155.9339 N   0  0  0  0  0  0  0  0  0  0  0  0
  150.2908  135.6369  155.5823 C   0  0  0  0  0  0  0  0  0  0  0  0
  149.0615  136.3923  155.4766 N   0  0  0  0  0  0  0  0  0  0  0  0
  149.1465  137.6405  155.1318 C   0  0  0  0  0  0  0  0  0  0  0  0
  150.4288  138.2796  154.8697 N   0  0  0  0  0  0  0  0  0  0  0  0
  150.5166  139.7330  154.4547 C   0  0  2  0  0  0  0  0  0  0  0  0
  151.3011  140.4356  155.3778 O   0  0  0  0  0  0  0  0  0  0  0  0
  150.5989  141.5907  155.8196 C   0  0  2  0  0  0  0  0  0  0  0  0
  151.0975  142.0439  157.2041 C   0  0  0  0  0  0  0  0  0  0  0  0
  150.3826  143.1603  157.6932 O   0  0  0  0  0  0  0  0  0  0  0  0
  149.1209  141.2165  155.6956 C   0  0  1  0  0  0  0  0  0  0  0  0
  148.2646  142.3411  155.6218 O   0  0  0  0  0  0  0  0  0  0  0  0
  149.1123  140.3659  154.4296 C   0  0  1  0  0  0  0  0  0  0  0  0
  148.9260  141.1285  153.2513 O   0  0  0  0  0  0  0  0  0  0  0  0
  151.6162  137.5047  154.9451 C   0  0  0  0  0  0  0  0  0  0  0  0
  152.6851  138.0502  154.6691 O   0  0  0  0  0  0  0  0  0  0  0  0
  151.5200  136.1947  155.3067 N   0  5  0  0  0  0  0  0  0  0  0  0
  151.0269  139.7418  153.4902 H   0  0  0  0  0  0  0  0  0  0  0  0
  150.8269  142.3760  155.0965 H   0  0  0  0  0  0  0  0  0  0  0  0
  148.8121  140.5905  156.5333 H   0  0  0  0  0  0  0  0  0  0  0  0
  148.3339  139.6023  154.4653 H   0  0  0  0  0  0  0  0  0  0  0  0
  149.3214  134.0978  156.1161 H   0  0  0  0  0  0  0  0  0  0  0  0
  148.2720  138.2802  155.0141 H   0  0  0  0  0  0  0  0  0  0  0  0
  151.0314  141.2257  157.9215 H   0  0  0  0  0  0  0  0  0  0  0  0
  152.1484  142.3262  157.1392 H   0  0  0  0  0  0  0  0  0  0  0  0
  150.2634  143.7743  156.9850 H   0  0  0  0  0  0  0  0  0  0  0  0
  148.7719  143.1138  155.8178 H   0  0  0  0  0  0  0  0  0  0  0  0
  148.7333  140.5344  152.5418 H   0  0  0  0  0  0  0  0  0  0  0  0
  1  2  2  0  0  0  0
  1 22  1  0  0  0  0
  2 17  1  0  0  0  0
  2  3  1  0  0  0  0
  3  4  2  0  0  0  0
  4  5  1  0  0  0  0
  4 23  1  0  0  0  0
  5  6  1  0  0  0  0
  5 15  1  0  0  0  0
  6 18  1  0  0  0  0
  6 13  1  0  0  0  0
  6  7  1  0  0  0  0
  7  8  1  0  0  0  0
  8 19  1  0  0  0  0
  8  9  1  0  0  0  0
  8 11  1  0  0  0  0
  9 10  1  0  0  0  0
  9 24  1  0  0  0  0
  9 25  1  0  0  0  0
 10 26  1  0  0  0  0
 11 20  1  0  0  0  0
 11 12  1  0  0  0  0
 11 13  1  0  0  0  0
 12 27  1  0  0  0  0
 13 21  1  0  0  0  0
 13 14  1  0  0  0  0
 14 28  1  0  0  0  0
 15 16  2  0  0  0  0
 15 17  1  0  0  0  0
M  CHG  1  17  -1
M  END
> <s_m_source_file>
AV-unprocessed.smi

> <i_m_source_file_index>
72

> <i_lp_mmshare_version>
43012

> <i_f3d_flags>
0

> <s_epik_input>
W05IMl1jMW5bY0hdbihjKD1PKW4xKVtDQEBIXTJPW0NASF0oW0NIMl1bT0hdKVtDQEBIXShbT0hdKVtDQEhdMltPSF0=

> <s_epik_cmdline>
J2VwaWtfcHl0aG9uJywgJy1waCcsICc3LjAnLCAnLXRuJywgJzgnLCAnLW1hJywgJzIwMCcsICctbWV0YWxfYmluZGluZycsICctaW1hZScsICc8aW5maWxlLm1hZT4nLCAnLW9tYWUnLCAnPG91dGZpbGUubWFlPic=

> <r_lp_tautomer_probability>
7.17554e-07

> <r_epik_Ionization_Penalty>
12.8705

> <r_epik_Ionization_Penalty_Charging>
5.64144

> <r_epik_Ionization_Penalty_Neutral>
7.22905

> <r_epik_State_Penalty>
3.30104

> <r_epik_Charging_Adjusted_Penalty>
8.94249

> <i_epik_Tot_Q>
-1

> <i_epik_Tot_abs_Q>
1

> <r_epik_Metal_State_Penalty>
0.529074

> <b_epik_Metal_Only>
1

> <s_epik_Chemistry_Notes>
This compound contains an acetal/aminal-like group ( X-CH(R)-Y where X, Y are N, S, or O) that may be acid/base labile, releasing an aldehyde.

> <s_lp_Force_Field>
OPLS_2005

> <r_lp_Energy>
37.824

> <b_lp_Chiralities_Consistent>
1

> <s_lp_Variant>
AV-unprocessed.smi:72-65

> <Gold.Version>
5.8.1

> <Gold.Id.Protein>
6NUR|6NUR_protein|mol2

> <Gold.PLP.Fitness>
44.9490

> <Gold.PLP.PLP>
-27.8440

> <Gold.PLP.part.hbond>
-6.8575

> <Gold.PLP.part.metal>
0.0000

> <Gold.PLP.part.buried>
-3.2003

> <Gold.PLP.part.nonpolar>
-18.1577

> <Gold.PLP.part.repulsive>
0.2767

> <Gold.PLP.ligand.clash>
0.0000

> <Gold.PLP.ligand.torsion>
0.0084

> <Gold.PLP.Chemscore.Hbond>
5.7040

> <Gold.PLP.Chemscore.CHOScore>
0.0000

> <Gold.PLP.Chemscore.Metal>
0.0000

> <Gold.Chemscore.Hbonds>
donor molecule, donor type, donor heavy atom, donor atom, acceptor molecule, acceptor atom, score
      L1  H    10    26       P1  8028  0.74
      L1  H    12    27       P1  8028  0.90
      L1  H    14    28       P1  7957  0.67
      P1  H  8011  8017       L1    14  0.95
      P1  H 10752 10765       L1    17  2.00

> <Gold.PLP.Chemscore.Internal.Correction>
0.0099

> <Gold.Rescore>
     Score         DG    S(hbond)    S(metal)    S(lipo)     H(rot)  DE(clash)    DE(int)     intcor
      8.49     -11.59       3.92        0.00      28.70       4.04       1.81       1.28       ----

> <Gold.Chemscore.Fitness>
8.4941

> <Gold.Chemscore.DG>
-11.5866

> <Gold.Chemscore.ZeroCoef>
-5.4800

> <Gold.Chemscore.Hbond>
3.9195

> <Gold.Chemscore.Metal>
0.0000

> <Gold.Chemscore.Lipo>
28.7048

> <Gold.Chemscore.Internal_Hbond>
0.0000

> <Gold.Chemscore.DEClash>
1.8141

> <Gold.Chemscore.DEInternal>
1.2785

> <Gold.Chemscore.Rot>
4.0403

> <Gold.Chemscore.Internal.Correction>
   9.000000E+99

> <Gold.Chemscore.Hbonds>
donor molecule, donor type, donor heavy atom, donor atom, acceptor molecule, acceptor atom, score
      L1  H    10    26       P1  8028  0.69
      L1  H    12    27       P1  8028  0.87
      L1  H    14    28       P1  7957  0.66
      P1  H  8011  8017       L1    14  0.21
      P1  H 10752 10765       L1    17  0.26

> <Gold.Chemscore.Hbond.Weighted>
-13.0913

> <Gold.Chemscore.Metal.Weighted>
-0.0000

> <Gold.Chemscore.Lipo.Weighted>
-3.3585

> <Gold.Chemscore.Internal_Hbond.Weighted>
0.0000

> <Gold.Chemscore.DEClash.Weighted>
1.8141

> <Gold.Chemscore.DEInternal.Weighted>
1.2785

> <Gold.Chemscore.Rot.Weighted>
10.3431

> <Gold.Chemscore.Internal.Correction.Weighted>
   9.000000E+99

> <Gold.Protein.RotatedTorsions>
[ 6907 6896 6895 6894 ] final   30.60 input  -60.11 | X-H torsion
[ 7974 7965 7964 7962 ] final  108.53 input  175.53 | X-H torsion
[ 8008 7997 7996 7995 ] final  176.79 input   59.86 | X-H torsion
[ 10167 10162 10161 10158 ] final  -25.77 input  -65.29 | X-H torsion
[ 10718 10713 10712 10709 ] final  107.76 input   66.30 | X-H torsion
[ 10763 10752 10751 10750 ] final  178.14 input  -60.55 | X-H torsion
[ 11005 11000 10999 10996 ] final   93.99 input  -57.11 | X-H torsion

> <Gold.Protein.ActiveResidues>
 VAL166  LYS551  ARG553  GLY616  TRP617  ASP618  TYR619  PRO620  LYS621  CYS622 
 ASP623  PHE694  ASN695  SER759  ASP760  ASP761  ALA762  ILE779  LEU786  VAL792 
 PHE793  MET794  SER795  GLU796  ALA797  LYS798  CYS799  TRP800  GLU811  SER814 

> <Gold.Protein.RotatedAtoms>
  152.0484  134.9669  160.0574 H   0  0  0  0  0  0  0  0  0  0  0  0  # atno 6907 bound_to 6896
  152.1080  133.4280  159.4626 H   0  0  0  0  0  0  0  0  0  0  0  0  # atno 6908 bound_to 6896
  150.6842  134.2601  159.4589 H   0  0  0  0  0  0  0  0  0  0  0  0  # atno 6909 bound_to 6896
  145.2795  139.2638  143.3923 H   0  0  0  0  0  0  0  0  0  0  0  0  # atno 7974 bound_to 7965
  156.0727  140.1375  156.9809 H   0  0  0  0  0  0  0  0  0  0  0  0  # atno 8008 bound_to 7997
  154.4540  140.0968  156.6755 H   0  0  0  0  0  0  0  0  0  0  0  0  # atno 8009 bound_to 7997
  155.5202  140.3456  155.4407 H   0  0  0  0  0  0  0  0  0  0  0  0  # atno 8010 bound_to 7997
  140.7285  143.4236  151.0912 H   0  0  0  0  0  0  0  0  0  0  0  0  # atno 10167 bound_to 10162
  157.6615  131.0879  150.6204 H   0  0  0  0  0  0  0  0  0  0  0  0  # atno 10718 bound_to 10713
  154.5038  135.2785  155.1399 H   0  0  0  0  0  0  0  0  0  0  0  0  # atno 10763 bound_to 10752
  154.3022  135.6246  153.5433 H   0  0  0  0  0  0  0  0  0  0  0  0  # atno 10764 bound_to 10752
  152.9907  135.5699  154.5487 H   0  0  0  0  0  0  0  0  0  0  0  0  # atno 10765 bound_to 10752
  139.8803  134.8821  156.3799 H   0  0  0  0  0  0  0  0  0  0  0  0  # atno 11005 bound_to 11000
  146.3221  140.3258  142.8636 LP  0  0  0  0  0  0  0  0  0  0  0  0  # atno 17320 bound_to 7965
  144.9266  140.7928  143.5715 LP  0  0  0  0  0  0  0  0  0  0  0  0  # atno 17321 bound_to 7965
  139.7884  143.8253  152.3148 LP  0  0  0  0  0  0  0  0  0  0  0  0  # atno 17342 bound_to 10162
  139.8229  144.7288  150.9549 LP  0  0  0  0  0  0  0  0  0  0  0  0  # atno 17343 bound_to 10162
  156.6507  130.4484  149.5720 LP  0  0  0  0  0  0  0  0  0  0  0  0  # atno 17370 bound_to 10713
  156.2140  130.6696  151.1299 LP  0  0  0  0  0  0  0  0  0  0  0  0  # atno 17371 bound_to 10713
  140.9406  133.7517  156.0141 LP  0  0  0  0  0  0  0  0  0  0  0  0  # atno 17394 bound_to 11000
  140.8224  134.3274  157.5377 LP  0  0  0  0  0  0  0  0  0  0  0  0  # atno 17395 bound_to 11000

$$$$
