AV-unprocessed.smi:72|AV-procd|sdf|713|dock4
  -GOLD-   2262017 33D 1   1.00000     0.00000
 Structure written by MMmdl.
 28 29  0  0  0  0  0  0  0  0  2 V2000
  151.6358  134.1347  156.9068 N   0  0  0  0  0  0  0  0  0  0  0  0
  151.3247  135.1921  156.2953 C   0  0  0  0  0  0  0  0  0  0  0  0
  149.9559  135.4198  155.8881 N   0  0  0  0  0  0  0  0  0  0  0  0
  149.6922  136.5088  155.2336 C   0  0  0  0  0  0  0  0  0  0  0  0
  150.7310  137.4758  154.8931 N   0  0  0  0  0  0  0  0  0  0  0  0
  150.4392  138.7590  154.1281 C   0  0  2  0  0  0  0  0  0  0  0  0
  150.9785  139.8562  154.8094 O   0  0  0  0  0  0  0  0  0  0  0  0
  149.9651  140.4884  155.5862 C   0  0  1  0  0  0  0  0  0  0  0  0
  150.3855  141.9078  156.0054 C   0  0  0  0  0  0  0  0  0  0  0  0
  149.4378  142.4487  156.9013 O   0  0  0  0  0  0  0  0  0  0  0  0
  148.7543  140.4003  154.6527 C   0  0  1  0  0  0  0  0  0  0  0  0
  148.7958  141.4372  153.6851 O   0  0  0  0  0  0  0  0  0  0  0  0
  148.9175  139.0116  154.0349 C   0  0  1  0  0  0  0  0  0  0  0  0
  148.4157  138.9446  152.7129 O   0  0  0  0  0  0  0  0  0  0  0  0
  152.0570  137.2451  155.3505 C   0  0  0  0  0  0  0  0  0  0  0  0
  152.9122  138.0955  155.1027 O   0  0  0  0  0  0  0  0  0  0  0  0
  152.3261  136.1017  156.0402 N   0  5  0  0  0  0  0  0  0  0  0  0
  150.9426  138.6417  153.1668 H   0  0  0  0  0  0  0  0  0  0  0  0
  149.7537  139.8862  156.4718 H   0  0  0  0  0  0  0  0  0  0  0  0
  147.8151  140.4862  155.1999 H   0  0  0  0  0  0  0  0  0  0  0  0
  148.3912  138.2830  154.6538 H   0  0  0  0  0  0  0  0  0  0  0  0
  152.6189  134.0998  157.1347 H   0  0  0  0  0  0  0  0  0  0  0  0
  148.6831  136.7579  154.9059 H   0  0  0  0  0  0  0  0  0  0  0  0
  151.3776  141.9126  156.4578 H   0  0  0  0  0  0  0  0  0  0  0  0
  150.4203  142.5619  155.1338 H   0  0  0  0  0  0  0  0  0  0  0  0
  149.0644  143.2237  156.5105 H   0  0  0  0  0  0  0  0  0  0  0  0
  148.8770  141.0385  152.8317 H   0  0  0  0  0  0  0  0  0  0  0  0
  148.4808  138.0479  152.4191 H   0  0  0  0  0  0  0  0  0  0  0  0
  1  2  2  0  0  0  0
  1 22  1  0  0  0  0
  2 17  1  0  0  0  0
  2  3  1  0  0  0  0
  3  4  2  0  0  0  0
  4  5  1  0  0  0  0
  4 23  1  0  0  0  0
  5  6  1  0  0  0  0
  5 15  1  0  0  0  0
  6 18  1  0  0  0  0
  6 13  1  0  0  0  0
  6  7  1  0  0  0  0
  7  8  1  0  0  0  0
  8 19  1  0  0  0  0
  8  9  1  0  0  0  0
  8 11  1  0  0  0  0
  9 10  1  0  0  0  0
  9 24  1  0  0  0  0
  9 25  1  0  0  0  0
 10 26  1  0  0  0  0
 11 20  1  0  0  0  0
 11 12  1  0  0  0  0
 11 13  1  0  0  0  0
 12 27  1  0  0  0  0
 13 21  1  0  0  0  0
 13 14  1  0  0  0  0
 14 28  1  0  0  0  0
 15 16  2  0  0  0  0
 15 17  1  0  0  0  0
M  CHG  1  17  -1
M  END
> <s_m_source_file>
AV-unprocessed.smi

> <i_m_source_file_index>
72

> <i_lp_mmshare_version>
43012

> <i_f3d_flags>
0

> <s_epik_input>
W05IMl1jMW5bY0hdbihjKD1PKW4xKVtDQEBIXTJPW0NASF0oW0NIMl1bT0hdKVtDQEBIXShbT0hdKVtDQEhdMltPSF0=

> <s_epik_cmdline>
J2VwaWtfcHl0aG9uJywgJy1waCcsICc3LjAnLCAnLXRuJywgJzgnLCAnLW1hJywgJzIwMCcsICctbWV0YWxfYmluZGluZycsICctaW1hZScsICc8aW5maWxlLm1hZT4nLCAnLW9tYWUnLCAnPG91dGZpbGUubWFlPic=

> <r_lp_tautomer_probability>
7.17554e-07

> <r_epik_Ionization_Penalty>
12.8705

> <r_epik_Ionization_Penalty_Charging>
5.64144

> <r_epik_Ionization_Penalty_Neutral>
7.22905

> <r_epik_State_Penalty>
3.30104

> <r_epik_Charging_Adjusted_Penalty>
8.94249

> <i_epik_Tot_Q>
-1

> <i_epik_Tot_abs_Q>
1

> <r_epik_Metal_State_Penalty>
0.529074

> <b_epik_Metal_Only>
1

> <s_epik_Chemistry_Notes>
This compound contains an acetal/aminal-like group ( X-CH(R)-Y where X, Y are N, S, or O) that may be acid/base labile, releasing an aldehyde.

> <s_lp_Force_Field>
OPLS_2005

> <r_lp_Energy>
36.0241

> <b_lp_Chiralities_Consistent>
1

> <s_lp_Variant>
AV-unprocessed.smi:72-51

> <Gold.Version>
5.8.1

> <Gold.Id.Protein>
6NUR|6NUR_protein|mol2

> <Gold.PLP.Fitness>
44.3405

> <Gold.PLP.PLP>
-26.7703

> <Gold.PLP.part.hbond>
-8.4697

> <Gold.PLP.part.metal>
0.0000

> <Gold.PLP.part.buried>
-3.0749

> <Gold.PLP.part.nonpolar>
-15.6288

> <Gold.PLP.part.repulsive>
0.1539

> <Gold.PLP.ligand.clash>
0.0000

> <Gold.PLP.ligand.torsion>
0.2959

> <Gold.PLP.Chemscore.Hbond>
6.0463

> <Gold.PLP.Chemscore.CHOScore>
0.0000

> <Gold.PLP.Chemscore.Metal>
0.0000

> <Gold.Chemscore.Hbonds>
donor molecule, donor type, donor heavy atom, donor atom, acceptor molecule, acceptor atom, score
      L1  H    10    26       P1  8028  1.00
      L1  H    12    27       P1  7957  0.89
      L1  H    14    28       P1  7948  1.00
      P1  H  7989  7998       L1     7  1.00
      P1  H 10752 10765       L1    17  1.76

> <Gold.PLP.Chemscore.Internal.Correction>
0.0229

> <Gold.Rescore>
     Score         DG    S(hbond)    S(metal)    S(lipo)     H(rot)  DE(clash)    DE(int)     intcor
      9.51     -12.07       4.17        0.00      25.79       4.04       0.91       1.65       ----

> <Gold.Chemscore.Fitness>
9.5110

> <Gold.Chemscore.DG>
-12.0737

> <Gold.Chemscore.ZeroCoef>
-5.4800

> <Gold.Chemscore.Hbond>
4.1675

> <Gold.Chemscore.Metal>
0.0000

> <Gold.Chemscore.Lipo>
25.7882

> <Gold.Chemscore.Internal_Hbond>
0.0000

> <Gold.Chemscore.DEClash>
0.9093

> <Gold.Chemscore.DEInternal>
1.6534

> <Gold.Chemscore.Rot>
4.0403

> <Gold.Chemscore.Internal.Correction>
   9.000000E+99

> <Gold.Chemscore.Hbonds>
donor molecule, donor type, donor heavy atom, donor atom, acceptor molecule, acceptor atom, score
      L1  H    10    26       P1  8028  0.99
      L1  H    12    27       P1  7957  0.87
      L1  H    14    28       P1  7948  1.00
      P1  H  7989  7998       L1     7  0.35
      P1  H 10752 10765       L1    17  0.27

> <Gold.Chemscore.Hbond.Weighted>
-13.9196

> <Gold.Chemscore.Metal.Weighted>
-0.0000

> <Gold.Chemscore.Lipo.Weighted>
-3.0172

> <Gold.Chemscore.Internal_Hbond.Weighted>
0.0000

> <Gold.Chemscore.DEClash.Weighted>
0.9093

> <Gold.Chemscore.DEInternal.Weighted>
1.6534

> <Gold.Chemscore.Rot.Weighted>
10.3431

> <Gold.Chemscore.Internal.Correction.Weighted>
   9.000000E+99

> <Gold.Protein.RotatedTorsions>
[ 6907 6896 6895 6894 ] final  -24.10 input  -60.11 | X-H torsion
[ 7974 7965 7964 7962 ] final   47.85 input  175.53 | X-H torsion
[ 8008 7997 7996 7995 ] final -159.95 input   59.86 | X-H torsion
[ 10167 10162 10161 10158 ] final  -25.54 input  -65.29 | X-H torsion
[ 10718 10713 10712 10709 ] final  146.59 input   66.30 | X-H torsion
[ 10763 10752 10751 10750 ] final -131.52 input  -60.55 | X-H torsion
[ 11005 11000 10999 10996 ] final -165.31 input  -57.11 | X-H torsion

> <Gold.Protein.ActiveResidues>
 VAL166  LYS551  ARG553  GLY616  TRP617  ASP618  TYR619  PRO620  LYS621  CYS622 
 ASP623  PHE694  ASN695  SER759  ASP760  ASP761  ALA762  ILE779  LEU786  VAL792 
 PHE793  MET794  SER795  GLU796  ALA797  LYS798  CYS799  TRP800  GLU811  SER814 

> <Gold.Protein.RotatedAtoms>
  151.1945  135.0416  159.8845 H   0  0  0  0  0  0  0  0  0  0  0  0  # atno 6907 bound_to 6896
  152.5437  134.0919  159.8291 H   0  0  0  0  0  0  0  0  0  0  0  0  # atno 6908 bound_to 6896
  151.1052  133.5166  159.2640 H   0  0  0  0  0  0  0  0  0  0  0  0  # atno 6909 bound_to 6896
  146.0259  139.4706  142.9868 H   0  0  0  0  0  0  0  0  0  0  0  0  # atno 7974 bound_to 7965
  155.7703  140.0851  157.2111 H   0  0  0  0  0  0  0  0  0  0  0  0  # atno 8008 bound_to 7997
  154.3997  140.1526  156.2991 H   0  0  0  0  0  0  0  0  0  0  0  0  # atno 8009 bound_to 7997
  155.8754  140.3423  155.5853 H   0  0  0  0  0  0  0  0  0  0  0  0  # atno 8010 bound_to 7997
  140.7286  143.4256  151.0882 H   0  0  0  0  0  0  0  0  0  0  0  0  # atno 10167 bound_to 10162
  157.3314  131.0921  151.1159 H   0  0  0  0  0  0  0  0  0  0  0  0  # atno 10718 bound_to 10713
  154.8750  135.3827  154.4260 H   0  0  0  0  0  0  0  0  0  0  0  0  # atno 10763 bound_to 10752
  153.4959  135.7030  153.5863 H   0  0  0  0  0  0  0  0  0  0  0  0  # atno 10764 bound_to 10752
  153.4216  135.3900  155.2082 H   0  0  0  0  0  0  0  0  0  0  0  0  # atno 10765 bound_to 10752
  140.5771  134.5179  157.5172 H   0  0  0  0  0  0  0  0  0  0  0  0  # atno 11005 bound_to 11000
  145.7118  141.0104  143.1449 LP  0  0  0  0  0  0  0  0  0  0  0  0  # atno 17320 bound_to 7965
  144.7009  139.8766  143.7444 LP  0  0  0  0  0  0  0  0  0  0  0  0  # atno 17321 bound_to 7965
  139.7907  143.8223  152.3151 LP  0  0  0  0  0  0  0  0  0  0  0  0  # atno 17342 bound_to 10162
  139.8206  144.7297  150.9578 LP  0  0  0  0  0  0  0  0  0  0  0  0  # atno 17343 bound_to 10162
  157.2406  130.6568  149.5888 LP  0  0  0  0  0  0  0  0  0  0  0  0  # atno 17370 bound_to 10713
  155.9696  130.4569  150.5944 LP  0  0  0  0  0  0  0  0  0  0  0  0  # atno 17371 bound_to 10713
  139.9334  134.7920  156.0868 LP  0  0  0  0  0  0  0  0  0  0  0  0  # atno 17394 bound_to 11000
  141.1019  133.6674  156.2775 LP  0  0  0  0  0  0  0  0  0  0  0  0  # atno 17395 bound_to 11000

$$$$
