AV-unprocessed.smi:3205|AV-procd|sdf|12255|dock4
  -GOLD-   2272018 93D 1   1.00000     0.00000
 Structure written by MMmdl.
 38 39  0  0  0  0  0  0  0  0  2 V2000
  146.8324  139.0044  151.5271 C   0  0  0  0  0  0  0  0  0  0  0  0
  146.6268  138.5731  152.9927 C   0  0  1  0  0  0  0  0  0  0  0  0
  146.8151  137.1093  153.1142 N   0  3  0  0  0  0  0  0  0  0  0  0
  145.6740  136.2764  152.6771 C   0  0  0  0  0  0  0  0  0  0  0  0
  145.6937  136.0567  151.1563 C   0  0  0  0  0  0  0  0  0  0  0  0
  145.6730  134.6468  150.8083 N   0  0  0  0  0  0  0  0  0  0  0  0
  144.6812  133.9374  150.1642 C   0  0  0  0  0  0  0  0  0  0  0  0
  145.1037  132.6423  150.0713 C   0  0  0  0  0  0  0  0  0  0  0  0
  146.3833  132.6576  150.6933 C   0  0  0  0  0  0  0  0  0  0  0  0
  146.7203  133.8586  151.1355 N   0  0  0  0  0  0  0  0  0  0  0  0
  147.5783  139.3028  153.9774 C   0  0  0  0  0  0  0  0  0  0  0  0
  147.7128  140.8044  153.6396 C   0  0  0  0  0  0  0  0  0  0  0  0
  148.7109  141.5031  154.5763 C   0  0  0  0  0  0  0  0  0  0  0  0
  149.9771  140.8622  154.4963 O   0  0  0  0  0  0  0  0  0  0  0  0
  149.9324  139.5065  154.9221 C   0  0  0  0  0  0  0  0  0  0  0  0
  148.9972  138.6965  154.0095 C   0  0  0  0  0  0  0  0  0  0  0  0
  146.5970  140.0578  151.3788 H   0  0  0  0  0  0  0  0  0  0  0  0
  146.1842  138.4500  150.8490 H   0  0  0  0  0  0  0  0  0  0  0  0
  147.8620  138.8425  151.2063 H   0  0  0  0  0  0  0  0  0  0  0  0
  145.6020  138.8107  153.2824 H   0  0  0  0  0  0  0  0  0  0  0  0
  147.6475  136.8346  152.6125 H   0  0  0  0  0  0  0  0  0  0  0  0
  145.7002  135.3118  153.1863 H   0  0  0  0  0  0  0  0  0  0  0  0
  144.7414  136.7630  152.9620 H   0  0  0  0  0  0  0  0  0  0  0  0
  144.8220  136.5307  150.7033 H   0  0  0  0  0  0  0  0  0  0  0  0
  146.5715  136.5243  150.7074 H   0  0  0  0  0  0  0  0  0  0  0  0
  143.7672  134.4065  149.8307 H   0  0  0  0  0  0  0  0  0  0  0  0
  144.5790  131.8102  149.6256 H   0  0  0  0  0  0  0  0  0  0  0  0
  147.0715  131.8378  150.8370 H   0  0  0  0  0  0  0  0  0  0  0  0
  147.1592  139.2198  154.9818 H   0  0  0  0  0  0  0  0  0  0  0  0
  148.0460  140.9234  152.6078 H   0  0  0  0  0  0  0  0  0  0  0  0
  146.7493  141.3089  153.7136 H   0  0  0  0  0  0  0  0  0  0  0  0
  148.8273  142.5474  154.2859 H   0  0  0  0  0  0  0  0  0  0  0  0
  148.3499  141.4978  155.6060 H   0  0  0  0  0  0  0  0  0  0  0  0
  150.9407  139.0940  154.8840 H   0  0  0  0  0  0  0  0  0  0  0  0
  149.6057  139.4507  155.9617 H   0  0  0  0  0  0  0  0  0  0  0  0
  148.9727  137.6683  154.3691 H   0  0  0  0  0  0  0  0  0  0  0  0
  149.4114  138.6673  153.0008 H   0  0  0  0  0  0  0  0  0  0  0  0
  146.9580  136.9085  154.0944 H   0  0  0  0  0  0  0  0  0  0  0  0
  1  2  1  0  0  0  0
  1 17  1  0  0  0  0
  1 18  1  0  0  0  0
  1 19  1  0  0  0  0
  2  3  1  0  0  0  0
  2 11  1  0  0  0  0
  2 20  1  0  0  0  0
  3  4  1  0  0  0  0
  3 21  1  0  0  0  0
  3 38  1  0  0  0  0
  4  5  1  0  0  0  0
  4 22  1  0  0  0  0
  4 23  1  0  0  0  0
  5  6  1  0  0  0  0
  5 24  1  0  0  0  0
  5 25  1  0  0  0  0
  6 10  1  0  0  0  0
  6  7  1  0  0  0  0
  7  8  2  0  0  0  0
  7 26  1  0  0  0  0
  8  9  1  0  0  0  0
  8 27  1  0  0  0  0
  9 10  2  0  0  0  0
  9 28  1  0  0  0  0
 11 16  1  0  0  0  0
 11 12  1  0  0  0  0
 11 29  1  0  0  0  0
 12 13  1  0  0  0  0
 12 30  1  0  0  0  0
 12 31  1  0  0  0  0
 13 14  1  0  0  0  0
 13 32  1  0  0  0  0
 13 33  1  0  0  0  0
 14 15  1  0  0  0  0
 15 16  1  0  0  0  0
 15 34  1  0  0  0  0
 15 35  1  0  0  0  0
 16 36  1  0  0  0  0
 16 37  1  0  0  0  0
M  CHG  1   3   1
M  END
> <s_m_source_file>
AV-unprocessed.smi

> <i_m_source_file_index>
3205

> <i_lp_mmshare_version>
43012

> <i_f3d_flags>
0

> <s_epik_input>
W0NIMl0xW0NIMl1PW0NIMl1bQ0gyXVtDSF0xW0NASF0oW0NIM10pW05IXVtDSDJdW0NIMl1uMltjSF1bY0hdW2NIXW4y

> <s_epik_cmdline>
J2VwaWtfcHl0aG9uJywgJy1waCcsICc3LjAnLCAnLXRuJywgJzgnLCAnLW1hJywgJzIwMCcsICctbWV0YWxfYmluZGluZycsICctaW1hZScsICc8aW5maWxlLm1hZT4nLCAnLW9tYWUnLCAnPG91dGZpbGUubWFlPic=

> <r_lp_tautomer_probability>
1

> <r_epik_Ionization_Penalty>
0.00310903

> <r_epik_Ionization_Penalty_Charging>
0.00310601

> <r_epik_Ionization_Penalty_Neutral>
3.02836e-06

> <r_epik_State_Penalty>
-0

> <r_epik_Charging_Adjusted_Penalty>
0.00310601

> <i_epik_Tot_Q>
1

> <i_epik_Tot_abs_Q>
1

> <r_epik_Metal_State_Penalty>
-0

> <b_epik_Metal_Only>
0

> <s_lp_Force_Field>
OPLS_2005

> <r_lp_Energy>
14.7607

> <b_lp_Chiralities_Consistent>
1

> <s_lp_Variant>
AV-unprocessed.smi:3205-2

> <Gold.Version>
5.8.1

> <Gold.Id.Protein>
6NUR|6NUR_protein|mol2

> <Gold.PLP.Fitness>
44.9523

> <Gold.PLP.PLP>
-32.7270

> <Gold.PLP.part.hbond>
-2.0000

> <Gold.PLP.part.metal>
0.0000

> <Gold.PLP.part.buried>
1.5252

> <Gold.PLP.part.nonpolar>
-31.2835

> <Gold.PLP.part.repulsive>
0.3602

> <Gold.PLP.ligand.clash>
0.0000

> <Gold.PLP.ligand.torsion>
1.0379

> <Gold.PLP.Chemscore.Hbond>
2.7520

> <Gold.PLP.Chemscore.CHOScore>
2.0000

> <Gold.PLP.Chemscore.Metal>
0.0000

> <Gold.Chemscore.Hbonds>
donor molecule, donor type, donor heavy atom, donor atom, acceptor molecule, acceptor atom, score
      L1  H     3    21       P1  7948  2.00
      P1  H  7989  7998       L1    14  0.67
      L1  C     7    26       P1 10186  0.41
      L1  C     9    28       P1 10747  1.00

> <Gold.PLP.Chemscore.Internal.Correction>
0.0452

> <Gold.Rescore>
     Score         DG    S(hbond)    S(metal)    S(lipo)     H(rot)  DE(clash)    DE(int)     intcor
     15.53     -17.33       1.81        0.00      85.86       1.66       0.91       0.88       ----

> <Gold.Chemscore.Fitness>
15.5329

> <Gold.Chemscore.DG>
-17.3274

> <Gold.Chemscore.ZeroCoef>
-5.4800

> <Gold.Chemscore.Hbond>
1.8113

> <Gold.Chemscore.Metal>
0.0000

> <Gold.Chemscore.Lipo>
85.8617

> <Gold.Chemscore.Internal_Hbond>
0.0000

> <Gold.Chemscore.DEClash>
0.9095

> <Gold.Chemscore.DEInternal>
0.8849

> <Gold.Chemscore.Rot>
1.6594

> <Gold.Chemscore.Internal.Correction>
   9.000000E+99

> <Gold.Chemscore.Hbonds>
donor molecule, donor type, donor heavy atom, donor atom, acceptor molecule, acceptor atom, score
      L1  H     3    21       P1  7948  0.99
      P1  H  7989  7998       L1    14  0.24

> <Gold.Chemscore.Hbond.Weighted>
-6.0497

> <Gold.Chemscore.Metal.Weighted>
-0.0000

> <Gold.Chemscore.Lipo.Weighted>
-10.0458

> <Gold.Chemscore.Internal_Hbond.Weighted>
0.0000

> <Gold.Chemscore.DEClash.Weighted>
0.9095

> <Gold.Chemscore.DEInternal.Weighted>
0.8849

> <Gold.Chemscore.Rot.Weighted>
4.2482

> <Gold.Chemscore.Internal.Correction.Weighted>
   9.000000E+99

> <Gold.Protein.RotatedTorsions>
[ 6907 6896 6895 6894 ] final  151.82 input  -60.11 | X-H torsion
[ 7974 7965 7964 7962 ] final   55.51 input  175.53 | X-H torsion
[ 8008 7997 7996 7995 ] final   92.18 input   59.86 | X-H torsion
[ 10167 10162 10161 10158 ] final  -48.36 input  -65.29 | X-H torsion
[ 10718 10713 10712 10709 ] final   64.12 input   66.30 | X-H torsion
[ 10763 10752 10751 10750 ] final -124.53 input  -60.55 | X-H torsion
[ 11005 11000 10999 10996 ] final -116.74 input  -57.11 | X-H torsion

> <Gold.Protein.ActiveResidues>
 VAL166  LYS551  ARG553  GLY616  TRP617  ASP618  TYR619  PRO620  LYS621  CYS622 
 ASP623  PHE694  ASN695  SER759  ASP760  ASP761  ALA762  ILE779  LEU786  VAL792 
 PHE793  MET794  SER795  GLU796  ALA797  LYS798  CYS799  TRP800  GLU811  SER814 

> <Gold.Protein.RotatedAtoms>
  152.0953  133.4221  159.4562 H   0  0  0  0  0  0  0  0  0  0  0  0  # atno 6907 bound_to 6896
  150.6863  134.2824  159.4642 H   0  0  0  0  0  0  0  0  0  0  0  0  # atno 6908 bound_to 6896
  152.0679  134.9552  160.0625 H   0  0  0  0  0  0  0  0  0  0  0  0  # atno 6909 bound_to 6896
  145.9497  139.3961  143.0314 H   0  0  0  0  0  0  0  0  0  0  0  0  # atno 7974 bound_to 7965
  156.0324  140.3328  155.7154 H   0  0  0  0  0  0  0  0  0  0  0  0  # atno 8008 bound_to 7997
  155.5865  140.0642  157.2787 H   0  0  0  0  0  0  0  0  0  0  0  0  # atno 8009 bound_to 7997
  154.4359  140.1835  156.1018 H   0  0  0  0  0  0  0  0  0  0  0  0  # atno 8010 bound_to 7997
  140.6734  143.2743  151.4059 H   0  0  0  0  0  0  0  0  0  0  0  0  # atno 10167 bound_to 10162
  157.6018  130.9142  149.9804 H   0  0  0  0  0  0  0  0  0  0  0  0  # atno 10718 bound_to 10713
  154.8724  135.4060  154.3121 H   0  0  0  0  0  0  0  0  0  0  0  0  # atno 10763 bound_to 10752
  153.3963  135.7016  153.6464 H   0  0  0  0  0  0  0  0  0  0  0  0  # atno 10764 bound_to 10752
  153.5225  135.3684  155.2609 H   0  0  0  0  0  0  0  0  0  0  0  0  # atno 10765 bound_to 10752
  141.0402  133.9847  157.3007 H   0  0  0  0  0  0  0  0  0  0  0  0  # atno 11005 bound_to 11000
  145.8188  140.9689  143.0909 LP  0  0  0  0  0  0  0  0  0  0  0  0  # atno 17320 bound_to 7965
  144.6793  140.0015  143.7484 LP  0  0  0  0  0  0  0  0  0  0  0  0  # atno 17321 bound_to 7965
  139.6014  144.1287  152.2202 LP  0  0  0  0  0  0  0  0  0  0  0  0  # atno 17342 bound_to 10162
  140.0673  144.5808  150.7218 LP  0  0  0  0  0  0  0  0  0  0  0  0  # atno 17343 bound_to 10162
  156.1093  130.3651  150.0077 LP  0  0  0  0  0  0  0  0  0  0  0  0  # atno 17370 bound_to 10713
  156.8179  130.9348  151.3642 LP  0  0  0  0  0  0  0  0  0  0  0  0  # atno 17371 bound_to 10713
  139.9270  135.0201  156.8269 LP  0  0  0  0  0  0  0  0  0  0  0  0  # atno 17394 bound_to 11000
  140.6248  133.9960  155.7635 LP  0  0  0  0  0  0  0  0  0  0  0  0  # atno 17395 bound_to 11000

$$$$
