AV-unprocessed.smi:1063|AV-procd|sdf|4662|dock2
  -GOLD-   22720 3173D 1   1.00000     0.00000
 Structure written by MMmdl.
 38 39  0  0  0  0  0  0  0  0  1 V2000
  152.2175  143.3334  158.7237 C   0  0  0  0  0  0  0  0  0  0  0  0
  151.8233  141.9738  158.1408 C   0  0  0  0  0  0  0  0  0  0  0  0
  151.1214  142.1444  156.4761 S   0  0  0  0  0  0  0  0  0  0  0  0
  150.6606  140.5343  155.9081 C   0  0  0  0  0  0  0  0  0  0  0  0
  150.9284  139.3629  156.6459 C   0  0  0  0  0  0  0  0  0  0  0  0
  150.5189  138.1312  156.1014 C   0  0  0  0  0  0  0  0  0  0  0  0
  149.8629  138.1072  154.8529 C   0  0  0  0  0  0  0  0  0  0  0  0
  149.4628  136.8378  154.3497 N   0  0  0  0  0  0  0  0  0  0  0  0
  149.2670  135.6791  155.0032 C   0  0  0  0  0  0  0  0  0  0  0  0
  149.3618  135.5154  156.2186 O   0  0  0  0  0  0  0  0  0  0  0  0
  148.9442  134.6966  154.1503 N   0  0  0  0  0  0  0  0  0  0  0  0
  148.7074  133.3063  154.5229 C   0  0  0  0  0  0  0  0  0  0  0  0
  148.1304  132.5001  153.3475 C   0  0  2  0  0  0  0  0  0  0  0  0
  147.3790  133.3493  152.3269 C   0  0  0  0  0  0  0  0  0  0  0  0
  146.4955  132.3313  151.6281 C   0  0  0  0  0  0  0  0  0  0  0  0
  146.3615  131.1974  152.6500 C   0  0  0  0  0  0  0  0  0  0  0  0
  147.1198  131.6038  153.7827 O   0  0  0  0  0  0  0  0  0  0  0  0
  149.6444  139.3480  154.2014 C   0  0  0  0  0  0  0  0  0  0  0  0
  150.0342  140.5350  154.7140 N   0  0  0  0  0  0  0  0  0  0  0  0
  152.6345  143.2209  159.7247 H   0  0  0  0  0  0  0  0  0  0  0  0
  151.3544  143.9958  158.7947 H   0  0  0  0  0  0  0  0  0  0  0  0
  152.9679  143.8243  158.1034 H   0  0  0  0  0  0  0  0  0  0  0  0
  152.6973  141.3239  158.0938 H   0  0  0  0  0  0  0  0  0  0  0  0
  151.0902  141.4915  158.7877 H   0  0  0  0  0  0  0  0  0  0  0  0
  151.4306  139.3886  157.6003 H   0  0  0  0  0  0  0  0  0  0  0  0
  150.7076  137.2144  156.6411 H   0  0  0  0  0  0  0  0  0  0  0  0
  149.3176  136.8031  153.3514 H   0  0  0  0  0  0  0  0  0  0  0  0
  148.8804  134.9205  153.1680 H   0  0  0  0  0  0  0  0  0  0  0  0
  149.6201  132.8430  154.9018 H   0  0  0  0  0  0  0  0  0  0  0  0
  147.9955  133.3046  155.3487 H   0  0  0  0  0  0  0  0  0  0  0  0
  148.9187  131.9340  152.8475 H   0  0  0  0  0  0  0  0  0  0  0  0
  146.7574  134.0874  152.8358 H   0  0  0  0  0  0  0  0  0  0  0  0
  148.0426  133.8785  151.6424 H   0  0  0  0  0  0  0  0  0  0  0  0
  145.5310  132.7559  151.3487 H   0  0  0  0  0  0  0  0  0  0  0  0
  146.9770  131.9633  150.7213 H   0  0  0  0  0  0  0  0  0  0  0  0
  145.3247  131.0178  152.9351 H   0  0  0  0  0  0  0  0  0  0  0  0
  146.7701  130.2683  152.2507 H   0  0  0  0  0  0  0  0  0  0  0  0
  149.1448  139.4259  153.2500 H   0  0  0  0  0  0  0  0  0  0  0  0
  1  2  1  0  0  0  0
  1 20  1  0  0  0  0
  1 21  1  0  0  0  0
  1 22  1  0  0  0  0
  2  3  1  0  0  0  0
  2 23  1  0  0  0  0
  2 24  1  0  0  0  0
  3  4  1  0  0  0  0
  4 19  1  0  0  0  0
  4  5  2  0  0  0  0
  5  6  1  0  0  0  0
  5 25  1  0  0  0  0
  6  7  2  0  0  0  0
  6 26  1  0  0  0  0
  7  8  1  0  0  0  0
  7 18  1  0  0  0  0
  8  9  1  0  0  0  0
  8 27  1  0  0  0  0
  9 10  2  0  0  0  0
  9 11  1  0  0  0  0
 11 12  1  0  0  0  0
 11 28  1  0  0  0  0
 12 13  1  0  0  0  0
 12 29  1  0  0  0  0
 12 30  1  0  0  0  0
 13 17  1  0  0  0  0
 13 14  1  0  0  0  0
 13 31  1  0  0  0  0
 14 15  1  0  0  0  0
 14 32  1  0  0  0  0
 14 33  1  0  0  0  0
 15 16  1  0  0  0  0
 15 34  1  0  0  0  0
 15 35  1  0  0  0  0
 16 17  1  0  0  0  0
 16 36  1  0  0  0  0
 16 37  1  0  0  0  0
 18 19  2  0  0  0  0
 18 38  1  0  0  0  0
M  END
> <s_m_source_file>
AV-unprocessed.smi

> <i_m_source_file_index>
1063

> <i_lp_mmshare_version>
43012

> <i_f3d_flags>
0

> <s_epik_input>
W0NIM11bQ0gyXVNjMVtjSF1bY0hdYyhbY0hdbjEpW05IXUMoPU8pW05IXVtDSDJdW0NAQEhdMltDSDJdW0NIMl1bQ0gyXU8y

> <s_epik_cmdline>
J2VwaWtfcHl0aG9uJywgJy1waCcsICc3LjAnLCAnLXRuJywgJzgnLCAnLW1hJywgJzIwMCcsICctbWV0YWxfYmluZGluZycsICctaW1hZScsICc8aW5maWxlLm1hZT4nLCAnLW9tYWUnLCAnPG91dGZpbGUubWFlPic=

> <r_lp_tautomer_probability>
1

> <r_epik_Ionization_Penalty>
0.000426617

> <r_epik_Ionization_Penalty_Charging>
0

> <r_epik_Ionization_Penalty_Neutral>
0.000426617

> <r_epik_State_Penalty>
0.000241115

> <r_epik_Charging_Adjusted_Penalty>
0.000241115

> <i_epik_Tot_Q>
0

> <i_epik_Tot_abs_Q>
0

> <r_epik_Metal_State_Penalty>
-0

> <b_epik_Metal_Only>
0

> <s_lp_Force_Field>
OPLS_2005

> <r_lp_Energy>
19.2569

> <b_lp_Chiralities_Consistent>
1

> <s_lp_Variant>
AV-unprocessed.smi:1063-1

> <Gold.Version>
5.8.1

> <Gold.Id.Protein>
6NUR|6NUR_protein|mol2

> <Gold.PLP.Fitness>
40.4127

> <Gold.PLP.PLP>
-30.2216

> <Gold.PLP.part.hbond>
-3.0000

> <Gold.PLP.part.metal>
0.0000

> <Gold.PLP.part.buried>
-2.2256

> <Gold.PLP.part.nonpolar>
-25.1722

> <Gold.PLP.part.repulsive>
0.2446

> <Gold.PLP.ligand.clash>
0.0000

> <Gold.PLP.ligand.torsion>
0.6742

> <Gold.PLP.Chemscore.Hbond>
2.8272

> <Gold.PLP.Chemscore.CHOScore>
1.0000

> <Gold.PLP.Chemscore.Metal>
0.0000

> <Gold.Chemscore.Hbonds>
donor molecule, donor type, donor heavy atom, donor atom, acceptor molecule, acceptor atom, score
      L1  H     8    27       P1  7948  1.00
      L1  H    11    28       P1  7948  0.98
      P1  H  7989  7998       L1    19  0.85
      L1  C    18    38       P1  7957  1.00

> <Gold.PLP.Chemscore.Internal.Correction>
0.0578

> <Gold.Rescore>
     Score         DG    S(hbond)    S(metal)    S(lipo)     H(rot)  DE(clash)    DE(int)     intcor
     15.36     -17.38       1.80        0.00      82.49       1.47       0.06       1.96       ----

> <Gold.Chemscore.Fitness>
15.3560

> <Gold.Chemscore.DG>
-17.3840

> <Gold.Chemscore.ZeroCoef>
-5.4800

> <Gold.Chemscore.Hbond>
1.7997

> <Gold.Chemscore.Metal>
0.0000

> <Gold.Chemscore.Lipo>
82.4904

> <Gold.Chemscore.Internal_Hbond>
0.0000

> <Gold.Chemscore.DEClash>
0.0637

> <Gold.Chemscore.DEInternal>
1.9642

> <Gold.Chemscore.Rot>
1.4681

> <Gold.Chemscore.Internal.Correction>
   9.000000E+99

> <Gold.Chemscore.Hbonds>
donor molecule, donor type, donor heavy atom, donor atom, acceptor molecule, acceptor atom, score
      L1  H     8    27       P1  7948  0.93
      L1  H    11    28       P1  7948  0.24
      P1  H  7989  7998       L1    19  0.05

> <Gold.Chemscore.Hbond.Weighted>
-6.0110

> <Gold.Chemscore.Metal.Weighted>
-0.0000

> <Gold.Chemscore.Lipo.Weighted>
-9.6514

> <Gold.Chemscore.Internal_Hbond.Weighted>
0.0000

> <Gold.Chemscore.DEClash.Weighted>
0.0637

> <Gold.Chemscore.DEInternal.Weighted>
1.9642

> <Gold.Chemscore.Rot.Weighted>
3.7584

> <Gold.Chemscore.Internal.Correction.Weighted>
   9.000000E+99

> <Gold.Protein.RotatedTorsions>
[ 6907 6896 6895 6894 ] final  -50.19 input  -60.11 | X-H torsion
[ 7974 7965 7964 7962 ] final  -98.80 input  175.53 | X-H torsion
[ 8008 7997 7996 7995 ] final -153.78 input   59.86 | X-H torsion
[ 10167 10162 10161 10158 ] final   90.58 input  -65.29 | X-H torsion
[ 10718 10713 10712 10709 ] final  -21.04 input   66.30 | X-H torsion
[ 10763 10752 10751 10750 ] final   15.38 input  -60.55 | X-H torsion
[ 11005 11000 10999 10996 ] final   35.68 input  -57.11 | X-H torsion

> <Gold.Protein.ActiveResidues>
 VAL166  LYS551  ARG553  GLY616  TRP617  ASP618  TYR619  PRO620  LYS621  CYS622 
 ASP623  PHE694  ASN695  SER759  ASP760  ASP761  ALA762  ILE779  LEU786  VAL792 
 PHE793  MET794  SER795  GLU796  ALA797  LYS798  CYS799  TRP800  GLU811  SER814 

> <Gold.Protein.RotatedAtoms>
  150.8731  134.8109  159.7169 H   0  0  0  0  0  0  0  0  0  0  0  0  # atno 6907 bound_to 6896
  152.4728  134.4914  159.9706 H   0  0  0  0  0  0  0  0  0  0  0  0  # atno 6908 bound_to 6896
  151.5000  133.3468  159.2903 H   0  0  0  0  0  0  0  0  0  0  0  0  # atno 6909 bound_to 6896
  145.3159  140.9411  143.2743 H   0  0  0  0  0  0  0  0  0  0  0  0  # atno 7974 bound_to 7965
  155.6761  140.0739  157.2502 H   0  0  0  0  0  0  0  0  0  0  0  0  # atno 8008 bound_to 7997
  154.4114  140.1690  156.1983 H   0  0  0  0  0  0  0  0  0  0  0  0  # atno 8009 bound_to 7997
  155.9575  140.3372  155.6464 H   0  0  0  0  0  0  0  0  0  0  0  0  # atno 8010 bound_to 7997
  139.8459  144.6618  150.9227 H   0  0  0  0  0  0  0  0  0  0  0  0  # atno 10167 bound_to 10162
  156.5236  130.4638  149.6584 H   0  0  0  0  0  0  0  0  0  0  0  0  # atno 10718 bound_to 10713
  153.1531  135.6782  153.8853 H   0  0  0  0  0  0  0  0  0  0  0  0  # atno 10763 bound_to 10752
  153.8273  135.3122  155.3417 H   0  0  0  0  0  0  0  0  0  0  0  0  # atno 10764 bound_to 10752
  154.7877  135.4853  154.0069 H   0  0  0  0  0  0  0  0  0  0  0  0  # atno 10765 bound_to 10752
  140.2403  134.3423  155.7928 H   0  0  0  0  0  0  0  0  0  0  0  0  # atno 11005 bound_to 11000
  144.8978  139.4689  143.6647 LP  0  0  0  0  0  0  0  0  0  0  0  0  # atno 17320 bound_to 7965
  146.3100  139.7714  142.9027 LP  0  0  0  0  0  0  0  0  0  0  0  0  # atno 17321 bound_to 7965
  140.7793  143.3871  151.1375 LP  0  0  0  0  0  0  0  0  0  0  0  0  # atno 17342 bound_to 10162
  139.7513  143.8774  152.3077 LP  0  0  0  0  0  0  0  0  0  0  0  0  # atno 17343 bound_to 10162
  156.3126  130.7237  151.2133 LP  0  0  0  0  0  0  0  0  0  0  0  0  # atno 17370 bound_to 10713
  157.7433  131.0477  150.4958 LP  0  0  0  0  0  0  0  0  0  0  0  0  # atno 17371 bound_to 10713
  141.2211  133.7295  156.8874 LP  0  0  0  0  0  0  0  0  0  0  0  0  # atno 17394 bound_to 11000
  140.1660  134.9132  157.2775 LP  0  0  0  0  0  0  0  0  0  0  0  0  # atno 17395 bound_to 11000

$$$$
