AV-unprocessed.smi:2411|AV-procd|sdf|9530|dock5
  -GOLD-   2272013163D 1   1.00000     0.00000
 Structure written by MMmdl.
 41 43  0  0  0  0  0  0  0  0  1 V2000
  146.2426  143.2578  153.6426 C   0  0  0  0  0  0  0  0  0  0  0  0
  146.6813  142.5253  154.8228 N   0  0  0  0  0  0  0  0  0  0  0  0
  145.7241  142.4454  155.9194 C   0  0  0  0  0  0  0  0  0  0  0  0
  147.3865  141.3427  154.5192 C   0  0  0  0  0  0  0  0  0  0  0  0
  146.7434  140.3837  153.8093 N   0  0  0  0  0  0  0  0  0  0  0  0
  147.4238  139.2768  153.5074 C   0  0  0  0  0  0  0  0  0  0  0  0
  148.6856  139.0023  153.8373 N   0  0  0  0  0  0  0  0  0  0  0  0
  149.3454  139.9414  154.5464 C   0  0  0  0  0  0  0  0  0  0  0  0
  148.7371  141.1650  154.9194 C   0  0  0  0  0  0  0  0  0  0  0  0
  149.3921  142.1484  155.7104 N   0  0  0  0  0  0  0  0  0  0  0  0
  150.5634  142.0335  156.3559 C   0  0  0  0  0  0  0  0  0  0  0  0
  151.2487  141.0121  156.4035 O   0  0  0  0  0  0  0  0  0  0  0  0
  150.9165  143.1946  156.9242 N   0  0  0  0  0  0  0  0  0  0  0  0
  152.1610  143.4404  157.6490 C   0  0  0  0  0  0  0  0  0  0  0  0
  152.0530  144.0094  159.0635 C   0  0  0  0  0  0  0  0  0  0  0  0
  152.9775  143.3191  160.0609 C   0  0  0  0  0  0  0  0  0  0  0  0
  152.7099  141.8911  160.4731 C   0  0  0  0  0  0  0  0  0  0  0  0
  152.6108  142.9990  161.4957 C   0  0  0  0  0  0  0  0  0  0  0  0
  151.8447  145.5007  159.2628 C   0  0  0  0  0  0  0  0  0  0  0  0
  150.7013  144.5531  159.5097 C   0  0  0  0  0  0  0  0  0  0  0  0
  147.0721  143.4873  152.9743 H   0  0  0  0  0  0  0  0  0  0  0  0
  145.7792  144.2015  153.9317 H   0  0  0  0  0  0  0  0  0  0  0  0
  145.5075  142.6761  153.0853 H   0  0  0  0  0  0  0  0  0  0  0  0
  146.1555  141.9272  156.7766 H   0  0  0  0  0  0  0  0  0  0  0  0
  144.8216  141.9163  155.6107 H   0  0  0  0  0  0  0  0  0  0  0  0
  145.4375  143.4460  156.2435 H   0  0  0  0  0  0  0  0  0  0  0  0
  146.8965  138.5239  152.9408 H   0  0  0  0  0  0  0  0  0  0  0  0
  150.3544  139.6876  154.8332 H   0  0  0  0  0  0  0  0  0  0  0  0
  148.9850  143.0719  155.6798 H   0  0  0  0  0  0  0  0  0  0  0  0
  150.2880  143.9787  156.8278 H   0  0  0  0  0  0  0  0  0  0  0  0
  152.6828  142.4854  157.7139 H   0  0  0  0  0  0  0  0  0  0  0  0
  152.8133  144.0905  157.0634 H   0  0  0  0  0  0  0  0  0  0  0  0
  154.0277  143.5682  159.9203 H   0  0  0  0  0  0  0  0  0  0  0  0
  151.7804  141.4335  160.1398 H   0  0  0  0  0  0  0  0  0  0  0  0
  153.5638  141.2197  160.5370 H   0  0  0  0  0  0  0  0  0  0  0  0
  153.4042  143.0633  162.2374 H   0  0  0  0  0  0  0  0  0  0  0  0
  151.6213  143.2530  161.8656 H   0  0  0  0  0  0  0  0  0  0  0  0
  152.3026  145.9630  160.1350 H   0  0  0  0  0  0  0  0  0  0  0  0
  151.7830  146.1427  158.3872 H   0  0  0  0  0  0  0  0  0  0  0  0
  149.8850  144.5675  158.7909 H   0  0  0  0  0  0  0  0  0  0  0  0
  150.3840  144.4096  160.5387 H   0  0  0  0  0  0  0  0  0  0  0  0
  1  2  1  0  0  0  0
  1 21  1  0  0  0  0
  1 22  1  0  0  0  0
  1 23  1  0  0  0  0
  2  3  1  0  0  0  0
  2  4  1  0  0  0  0
  3 24  1  0  0  0  0
  3 25  1  0  0  0  0
  3 26  1  0  0  0  0
  4  9  1  0  0  0  0
  4  5  2  0  0  0  0
  5  6  1  0  0  0  0
  6  7  2  0  0  0  0
  6 27  1  0  0  0  0
  7  8  1  0  0  0  0
  8  9  2  0  0  0  0
  8 28  1  0  0  0  0
  9 10  1  0  0  0  0
 10 11  1  0  0  0  0
 10 29  1  0  0  0  0
 11 12  2  0  0  0  0
 11 13  1  0  0  0  0
 13 14  1  0  0  0  0
 13 30  1  0  0  0  0
 14 15  1  0  0  0  0
 14 31  1  0  0  0  0
 14 32  1  0  0  0  0
 15 20  1  0  0  0  0
 15 16  1  0  0  0  0
 15 19  1  0  0  0  0
 16 18  1  0  0  0  0
 16 17  1  0  0  0  0
 16 33  1  0  0  0  0
 17 18  1  0  0  0  0
 17 34  1  0  0  0  0
 17 35  1  0  0  0  0
 18 36  1  0  0  0  0
 18 37  1  0  0  0  0
 19 20  1  0  0  0  0
 19 38  1  0  0  0  0
 19 39  1  0  0  0  0
 20 40  1  0  0  0  0
 20 41  1  0  0  0  0
M  END
> <s_m_source_file>
AV-unprocessed.smi

> <i_m_source_file_index>
2411

> <i_lp_mmshare_version>
43012

> <i_f3d_flags>
0

> <s_epik_input>
W0NIM11OKFtDSDNdKWMxbltjSF1uW2NIXWMxW05IXUMoPU8pW05IXVtDSDJdQzIoW0NIMl1bQ0gyXTIpW0NIXTNbQ0gyXVtDSDJdMw==

> <s_epik_cmdline>
J2VwaWtfcHl0aG9uJywgJy1waCcsICc3LjAnLCAnLXRuJywgJzgnLCAnLW1hJywgJzIwMCcsICctbWV0YWxfYmluZGluZycsICctaW1hZScsICc8aW5maWxlLm1hZT4nLCAnLW9tYWUnLCAnPG91dGZpbGUubWFlPic=

> <r_lp_tautomer_probability>
1

> <r_epik_Ionization_Penalty>
0.0183431

> <r_epik_Ionization_Penalty_Charging>
0

> <r_epik_Ionization_Penalty_Neutral>
0.0183431

> <r_epik_State_Penalty>
0.013978

> <r_epik_Charging_Adjusted_Penalty>
0.013978

> <i_epik_Tot_Q>
0

> <i_epik_Tot_abs_Q>
0

> <r_epik_Metal_State_Penalty>
0.0135734

> <b_epik_Metal_Only>
0

> <s_lp_Force_Field>
OPLS_2005

> <r_lp_Energy>
29.7017

> <b_lp_Chiralities_Consistent>
1

> <s_lp_Variant>
AV-unprocessed.smi:2411-1

> <Gold.Version>
5.8.1

> <Gold.Id.Protein>
6NUR|6NUR_protein|mol2

> <Gold.PLP.Fitness>
49.1255

> <Gold.PLP.PLP>
-44.8667

> <Gold.PLP.part.hbond>
-2.0000

> <Gold.PLP.part.metal>
0.0000

> <Gold.PLP.part.buried>
-8.4019

> <Gold.PLP.part.nonpolar>
-37.1401

> <Gold.PLP.part.repulsive>
1.8192

> <Gold.PLP.ligand.clash>
0.0000

> <Gold.PLP.ligand.torsion>
2.0463

> <Gold.PLP.Chemscore.Hbond>
1.8320

> <Gold.PLP.Chemscore.CHOScore>
0.0000

> <Gold.PLP.Chemscore.Metal>
0.0000

> <Gold.Chemscore.Hbonds>
donor molecule, donor type, donor heavy atom, donor atom, acceptor molecule, acceptor atom, score
      L1  H    10    29       P1  8028  1.00
      L1  H    13    30       P1  8028  0.86

> <Gold.PLP.Chemscore.Internal.Correction>
2.8553

> <Gold.Rescore>
     Score         DG    S(hbond)    S(metal)    S(lipo)     H(rot)  DE(clash)    DE(int)     intcor
     15.13     -19.62       1.81        0.00     105.73       1.68       1.20       3.28       ----

> <Gold.Chemscore.Fitness>
15.1343

> <Gold.Chemscore.DG>
-19.6182

> <Gold.Chemscore.ZeroCoef>
-5.4800

> <Gold.Chemscore.Hbond>
1.8137

> <Gold.Chemscore.Metal>
0.0000

> <Gold.Chemscore.Lipo>
105.7275

> <Gold.Chemscore.Internal_Hbond>
0.0000

> <Gold.Chemscore.DEClash>
1.2013

> <Gold.Chemscore.DEInternal>
3.2825

> <Gold.Chemscore.Rot>
1.6757

> <Gold.Chemscore.Internal.Correction>
   9.000000E+99

> <Gold.Chemscore.Hbonds>
donor molecule, donor type, donor heavy atom, donor atom, acceptor molecule, acceptor atom, score
      L1  H    10    29       P1  8028  0.99
      L1  H    13    30       P1  8028  0.85

> <Gold.Chemscore.Hbond.Weighted>
-6.0578

> <Gold.Chemscore.Metal.Weighted>
-0.0000

> <Gold.Chemscore.Lipo.Weighted>
-12.3701

> <Gold.Chemscore.Internal_Hbond.Weighted>
0.0000

> <Gold.Chemscore.DEClash.Weighted>
1.2013

> <Gold.Chemscore.DEInternal.Weighted>
3.2825

> <Gold.Chemscore.Rot.Weighted>
4.2897

> <Gold.Chemscore.Internal.Correction.Weighted>
   9.000000E+99

> <Gold.Protein.RotatedTorsions>
[ 6907 6896 6895 6894 ] final   93.58 input  -60.11 | X-H torsion
[ 7974 7965 7964 7962 ] final  -35.24 input  175.53 | X-H torsion
[ 8008 7997 7996 7995 ] final -157.43 input   59.86 | X-H torsion
[ 10167 10162 10161 10158 ] final  -29.75 input  -65.29 | X-H torsion
[ 10718 10713 10712 10709 ] final  116.26 input   66.30 | X-H torsion
[ 10763 10752 10751 10750 ] final  160.01 input  -60.55 | X-H torsion
[ 11005 11000 10999 10996 ] final   84.98 input  -57.11 | X-H torsion

> <Gold.Protein.ActiveResidues>
 VAL166  LYS551  ARG553  GLY616  TRP617  ASP618  TYR619  PRO620  LYS621  CYS622 
 ASP623  PHE694  ASN695  SER759  ASP760  ASP761  ALA762  ILE779  LEU786  VAL792 
 PHE793  MET794  SER795  GLU796  ALA797  LYS798  CYS799  TRP800  GLU811  SER814 

> <Gold.Protein.RotatedAtoms>
  152.5452  134.1325  159.8444 H   0  0  0  0  0  0  0  0  0  0  0  0  # atno 6907 bound_to 6896
  151.1369  133.4991  159.2605 H   0  0  0  0  0  0  0  0  0  0  0  0  # atno 6908 bound_to 6896
  151.1614  135.0285  159.8767 H   0  0  0  0  0  0  0  0  0  0  0  0  # atno 6909 bound_to 6896
  146.0763  140.6136  142.8929 H   0  0  0  0  0  0  0  0  0  0  0  0  # atno 7974 bound_to 7965
  155.7324  140.0803  157.2283 H   0  0  0  0  0  0  0  0  0  0  0  0  # atno 8008 bound_to 7997
  154.4031  140.1593  156.2578 H   0  0  0  0  0  0  0  0  0  0  0  0  # atno 8009 bound_to 7997
  155.9097  140.3404  155.6092 H   0  0  0  0  0  0  0  0  0  0  0  0  # atno 8010 bound_to 7997
  140.7257  143.3903  151.1442 H   0  0  0  0  0  0  0  0  0  0  0  0  # atno 10167 bound_to 10162
  157.6171  131.1023  150.7447 H   0  0  0  0  0  0  0  0  0  0  0  0  # atno 10718 bound_to 10713
  154.2408  135.2775  155.2854 H   0  0  0  0  0  0  0  0  0  0  0  0  # atno 10763 bound_to 10752
  154.5546  135.5665  153.6956 H   0  0  0  0  0  0  0  0  0  0  0  0  # atno 10764 bound_to 10752
  153.0000  135.6283  154.2552 H   0  0  0  0  0  0  0  0  0  0  0  0  # atno 10765 bound_to 10752
  139.8984  134.8255  156.2520 H   0  0  0  0  0  0  0  0  0  0  0  0  # atno 11005 bound_to 11000
  144.7263  140.4536  143.6970 LP  0  0  0  0  0  0  0  0  0  0  0  0  # atno 17320 bound_to 7965
  145.6301  139.1535  143.2974 LP  0  0  0  0  0  0  0  0  0  0  0  0  # atno 17321 bound_to 7965
  139.7507  143.8783  152.3076 LP  0  0  0  0  0  0  0  0  0  0  0  0  # atno 17342 bound_to 10162
  139.8636  144.7105  150.9071 LP  0  0  0  0  0  0  0  0  0  0  0  0  # atno 17343 bound_to 10162
  156.7812  130.4860  149.5400 LP  0  0  0  0  0  0  0  0  0  0  0  0  # atno 17370 bound_to 10713
  156.1299  130.6170  151.0317 LP  0  0  0  0  0  0  0  0  0  0  0  0  # atno 17371 bound_to 10713
  141.0218  133.7037  156.1280 LP  0  0  0  0  0  0  0  0  0  0  0  0  # atno 17394 bound_to 11000
  140.7223  134.4345  157.5574 LP  0  0  0  0  0  0  0  0  0  0  0  0  # atno 17395 bound_to 11000

$$$$
