AV-unprocessed.smi:3244|AV-procd|sdf|12401|dock4
  -GOLD-   2272018273D 1   1.00000     0.00000
 Structure written by MMmdl.
 40 41  0  0  0  0  0  0  0  0  1 V2000
  152.9991  142.6654  162.1605 C   0  0  0  0  0  0  0  0  0  0  0  0
  153.2110  142.6847  160.6380 C   0  0  0  0  0  0  0  0  0  0  0  0
  151.9634  142.9576  159.9034 N   0  0  0  0  0  0  0  0  0  0  0  0
  151.5784  142.1463  158.8839 C   0  0  0  0  0  0  0  0  0  0  0  0
  152.1574  141.0887  158.6316 O   0  0  0  0  0  0  0  0  0  0  0  0
  150.3824  142.5270  157.9955 C   0  0  0  0  0  0  0  0  0  0  0  0
  150.7467  142.6779  156.5769 N   0  0  0  0  0  0  0  0  0  0  0  0
  150.2858  141.5862  155.7235 C   0  0  1  0  0  0  0  0  0  0  0  0
  151.1048  140.3355  156.0846 C   0  0  0  0  0  0  0  0  0  0  0  0
  148.7554  141.3686  155.8453 C   0  0  0  0  0  0  0  0  0  0  0  0
  148.1796  140.5925  154.7582 N   0  0  0  0  0  0  0  0  0  0  0  0
  147.3801  141.0296  153.7224 C   0  0  0  0  0  0  0  0  0  0  0  0
  147.0819  139.9431  152.9512 C   0  0  0  0  0  0  0  0  0  0  0  0
  147.7495  138.8707  153.6059 C   0  0  0  0  0  0  0  0  0  0  0  0
  148.4010  139.2624  154.6879 N   0  0  0  0  0  0  0  0  0  0  0  0
  151.3434  144.2222  160.2061 C   0  0  0  0  0  0  0  0  0  0  0  0
  151.0814  145.2338  159.1040 C   0  0  0  0  0  0  0  0  0  0  0  0
  152.1516  145.5039  160.1250 C   0  0  0  0  0  0  0  0  0  0  0  0
  153.9228  142.3994  162.6746 H   0  0  0  0  0  0  0  0  0  0  0  0
  152.2407  141.9344  162.4423 H   0  0  0  0  0  0  0  0  0  0  0  0
  152.6855  143.6386  162.5379 H   0  0  0  0  0  0  0  0  0  0  0  0
  153.9663  143.4282  160.3781 H   0  0  0  0  0  0  0  0  0  0  0  0
  153.6414  141.7283  160.3443 H   0  0  0  0  0  0  0  0  0  0  0  0
  149.6022  141.7739  158.1194 H   0  0  0  0  0  0  0  0  0  0  0  0
  149.9325  143.4529  158.3488 H   0  0  0  0  0  0  0  0  0  0  0  0
  150.4190  143.5592  156.2088 H   0  0  0  0  0  0  0  0  0  0  0  0
  150.5222  141.8373  154.6883 H   0  0  0  0  0  0  0  0  0  0  0  0
  150.7926  139.4794  155.4862 H   0  0  0  0  0  0  0  0  0  0  0  0
  150.9945  140.0648  157.1353 H   0  0  0  0  0  0  0  0  0  0  0  0
  152.1674  140.4945  155.8974 H   0  0  0  0  0  0  0  0  0  0  0  0
  148.4903  140.8964  156.7919 H   0  0  0  0  0  0  0  0  0  0  0  0
  148.2590  142.3397  155.8531 H   0  0  0  0  0  0  0  0  0  0  0  0
  147.0958  142.0667  153.6204 H   0  0  0  0  0  0  0  0  0  0  0  0
  146.4780  139.9178  152.0563 H   0  0  0  0  0  0  0  0  0  0  0  0
  147.7784  137.8267  153.3312 H   0  0  0  0  0  0  0  0  0  0  0  0
  150.5865  144.1852  160.9877 H   0  0  0  0  0  0  0  0  0  0  0  0
  151.4221  145.0159  158.0939 H   0  0  0  0  0  0  0  0  0  0  0  0
  150.1660  145.8186  159.1690 H   0  0  0  0  0  0  0  0  0  0  0  0
  151.9540  146.2677  160.8743 H   0  0  0  0  0  0  0  0  0  0  0  0
  153.1814  145.4478  159.7776 H   0  0  0  0  0  0  0  0  0  0  0  0
  1  2  1  0  0  0  0
  1 19  1  0  0  0  0
  1 20  1  0  0  0  0
  1 21  1  0  0  0  0
  2  3  1  0  0  0  0
  2 22  1  0  0  0  0
  2 23  1  0  0  0  0
  3  4  1  0  0  0  0
  3 16  1  0  0  0  0
  4  5  2  0  0  0  0
  4  6  1  0  0  0  0
  6  7  1  0  0  0  0
  6 24  1  0  0  0  0
  6 25  1  0  0  0  0
  7  8  1  0  0  0  0
  7 26  1  0  0  0  0
  8  9  1  0  0  0  0
  8 10  1  0  0  0  0
  8 27  1  0  0  0  0
  9 28  1  0  0  0  0
  9 29  1  0  0  0  0
  9 30  1  0  0  0  0
 10 11  1  0  0  0  0
 10 31  1  0  0  0  0
 10 32  1  0  0  0  0
 11 15  1  0  0  0  0
 11 12  1  0  0  0  0
 12 13  2  0  0  0  0
 12 33  1  0  0  0  0
 13 14  1  0  0  0  0
 13 34  1  0  0  0  0
 14 15  2  0  0  0  0
 14 35  1  0  0  0  0
 16 18  1  0  0  0  0
 16 17  1  0  0  0  0
 16 36  1  0  0  0  0
 17 18  1  0  0  0  0
 17 37  1  0  0  0  0
 17 38  1  0  0  0  0
 18 39  1  0  0  0  0
 18 40  1  0  0  0  0
M  END
> <s_m_source_file>
AV-unprocessed.smi

> <i_m_source_file_index>
3244

> <i_lp_mmshare_version>
43012

> <i_f3d_flags>
0

> <s_epik_input>
W0NIMl0xW0NIMl1bQ0hdMU4oW0NIMl1bQ0gzXSlDKD1PKVtDSDJdW05IXVtDQEhdKFtDSDNdKVtDSDJdbjJbY0hdW2NIXVtjSF1uMg==

> <s_epik_cmdline>
J2VwaWtfcHl0aG9uJywgJy1waCcsICc3LjAnLCAnLXRuJywgJzgnLCAnLW1hJywgJzIwMCcsICctbWV0YWxfYmluZGluZycsICctaW1hZScsICc8aW5maWxlLm1hZT4nLCAnLW9tYWUnLCAnPG91dGZpbGUubWFlPic=

> <r_lp_tautomer_probability>
1

> <r_epik_Ionization_Penalty>
1.02506

> <r_epik_Ionization_Penalty_Charging>
0

> <r_epik_Ionization_Penalty_Neutral>
1.02506

> <r_epik_State_Penalty>
1.07563

> <r_epik_Charging_Adjusted_Penalty>
1.07563

> <i_epik_Tot_Q>
0

> <i_epik_Tot_abs_Q>
0

> <r_epik_Metal_State_Penalty>
1.07558

> <b_epik_Metal_Only>
0

> <s_lp_Force_Field>
OPLS_2005

> <r_lp_Energy>
38.4793

> <b_lp_Chiralities_Consistent>
1

> <s_lp_Variant>
AV-unprocessed.smi:3244-4

> <Gold.Version>
5.8.1

> <Gold.Id.Protein>
6NUR|6NUR_protein|mol2

> <Gold.PLP.Fitness>
47.6300

> <Gold.PLP.PLP>
-42.8140

> <Gold.PLP.part.hbond>
-1.0000

> <Gold.PLP.part.metal>
0.0000

> <Gold.PLP.part.buried>
-4.5992

> <Gold.PLP.part.nonpolar>
-37.3165

> <Gold.PLP.part.repulsive>
0.1127

> <Gold.PLP.ligand.clash>
0.0000

> <Gold.PLP.ligand.torsion>
0.7919

> <Gold.PLP.Chemscore.Hbond>
0.9920

> <Gold.PLP.Chemscore.CHOScore>
1.0000

> <Gold.PLP.Chemscore.Metal>
0.0000

> <Gold.Chemscore.Hbonds>
donor molecule, donor type, donor heavy atom, donor atom, acceptor molecule, acceptor atom, score
      L1  H     7    26       P1  8028  0.99
      L1  C    14    35       P1  7948  1.00

> <Gold.PLP.Chemscore.Internal.Correction>
0.4238

> <Gold.Rescore>
     Score         DG    S(hbond)    S(metal)    S(lipo)     H(rot)  DE(clash)    DE(int)     intcor
     13.84     -15.91       0.95        0.00     104.74       1.95       0.06       2.02       ----

> <Gold.Chemscore.Fitness>
13.8391

> <Gold.Chemscore.DG>
-15.9143

> <Gold.Chemscore.ZeroCoef>
-5.4800

> <Gold.Chemscore.Hbond>
0.9536

> <Gold.Chemscore.Metal>
0.0000

> <Gold.Chemscore.Lipo>
104.7357

> <Gold.Chemscore.Internal_Hbond>
0.0000

> <Gold.Chemscore.DEClash>
0.0582

> <Gold.Chemscore.DEInternal>
2.0170

> <Gold.Chemscore.Rot>
1.9550

> <Gold.Chemscore.Internal.Correction>
   9.000000E+99

> <Gold.Chemscore.Hbonds>
donor molecule, donor type, donor heavy atom, donor atom, acceptor molecule, acceptor atom, score
      L1  H     7    26       P1  8028  0.91

> <Gold.Chemscore.Hbond.Weighted>
-3.1850

> <Gold.Chemscore.Metal.Weighted>
-0.0000

> <Gold.Chemscore.Lipo.Weighted>
-12.2541

> <Gold.Chemscore.Internal_Hbond.Weighted>
0.0000

> <Gold.Chemscore.DEClash.Weighted>
0.0582

> <Gold.Chemscore.DEInternal.Weighted>
2.0170

> <Gold.Chemscore.Rot.Weighted>
5.0047

> <Gold.Chemscore.Internal.Correction.Weighted>
   9.000000E+99

> <Gold.Protein.RotatedTorsions>
[ 6907 6896 6895 6894 ] final  136.44 input  -60.11 | X-H torsion
[ 7974 7965 7964 7962 ] final  141.53 input  175.53 | X-H torsion
[ 8008 7997 7996 7995 ] final   43.88 input   59.86 | X-H torsion
[ 10167 10162 10161 10158 ] final   73.62 input  -65.29 | X-H torsion
[ 10718 10713 10712 10709 ] final  -23.49 input   66.30 | X-H torsion
[ 10763 10752 10751 10750 ] final  -35.03 input  -60.55 | X-H torsion
[ 11005 11000 10999 10996 ] final -117.60 input  -57.11 | X-H torsion

> <Gold.Protein.ActiveResidues>
 VAL166  LYS551  ARG553  GLY616  TRP617  ASP618  TYR619  PRO620  LYS621  CYS622 
 ASP623  PHE694  ASN695  SER759  ASP760  ASP761  ALA762  ILE779  LEU786  VAL792 
 PHE793  MET794  SER795  GLU796  ALA797  LYS798  CYS799  TRP800  GLU811  SER814 

> <Gold.Protein.RotatedAtoms>
  152.2893  133.5545  159.5546 H   0  0  0  0  0  0  0  0  0  0  0  0  # atno 6907 bound_to 6896
  150.7228  134.0452  159.3788 H   0  0  0  0  0  0  0  0  0  0  0  0  # atno 6908 bound_to 6896
  151.8358  135.0606  160.0493 H   0  0  0  0  0  0  0  0  0  0  0  0  # atno 6909 bound_to 6896
  144.9088  139.5321  143.5718 H   0  0  0  0  0  0  0  0  0  0  0  0  # atno 7974 bound_to 7965
  155.3100  140.3390  155.4244 H   0  0  0  0  0  0  0  0  0  0  0  0  # atno 8008 bound_to 7997
  156.1960  140.1715  156.8035 H   0  0  0  0  0  0  0  0  0  0  0  0  # atno 8009 bound_to 7997
  154.5499  140.0707  156.8635 H   0  0  0  0  0  0  0  0  0  0  0  0  # atno 8010 bound_to 7997
  140.0225  144.5529  150.7570 H   0  0  0  0  0  0  0  0  0  0  0  0  # atno 10167 bound_to 10162
  156.4904  130.4565  149.6759 H   0  0  0  0  0  0  0  0  0  0  0  0  # atno 10718 bound_to 10713
  153.8564  135.6844  153.4787 H   0  0  0  0  0  0  0  0  0  0  0  0  # atno 10763 bound_to 10752
  153.1367  135.4674  154.9431 H   0  0  0  0  0  0  0  0  0  0  0  0  # atno 10764 bound_to 10752
  154.7779  135.3259  154.8002 H   0  0  0  0  0  0  0  0  0  0  0  0  # atno 10765 bound_to 10752
  141.0343  133.9933  157.3094 H   0  0  0  0  0  0  0  0  0  0  0  0  # atno 11005 bound_to 11000
  146.3148  139.7878  142.8992 LP  0  0  0  0  0  0  0  0  0  0  0  0  # atno 17320 bound_to 7965
  145.3489  141.0303  143.3350 LP  0  0  0  0  0  0  0  0  0  0  0  0  # atno 17321 bound_to 7965
  140.7336  143.2719  151.3861 LP  0  0  0  0  0  0  0  0  0  0  0  0  # atno 17342 bound_to 10162
  139.6130  144.1060  152.2318 LP  0  0  0  0  0  0  0  0  0  0  0  0  # atno 17343 bound_to 10162
  156.3432  130.7393  151.2341 LP  0  0  0  0  0  0  0  0  0  0  0  0  # atno 17370 bound_to 10713
  157.7474  131.0398  150.4566 LP  0  0  0  0  0  0  0  0  0  0  0  0  # atno 17371 bound_to 10713
  139.9230  135.0201  156.8132 LP  0  0  0  0  0  0  0  0  0  0  0  0  # atno 17394 bound_to 11000
  140.6350  133.9871  155.7680 LP  0  0  0  0  0  0  0  0  0  0  0  0  # atno 17395 bound_to 11000

$$$$
