AV-unprocessed.smi:1906|AV-procd|sdf|7728|dock4
  -GOLD-   22720 9473D 1   1.00000     0.00000
 Structure written by MMmdl.
 35 37  0  0  0  0  0  0  0  0  1 V2000
  152.0777  139.1779  156.0368 C   0  0  0  0  0  0  0  0  0  0  0  0
  150.8526  139.8532  155.5076 C   0  0  0  0  0  0  0  0  0  0  0  0
  150.3173  139.5266  154.3313 N   0  0  0  0  0  0  0  0  0  0  0  0
  149.2299  140.3742  154.2471 C   0  0  0  0  0  0  0  0  0  0  0  0
  148.2554  140.5206  153.2344 C   0  0  0  0  0  0  0  0  0  0  0  0
  147.2194  141.4677  153.3723 C   0  0  0  0  0  0  0  0  0  0  0  0
  147.1429  142.2799  154.5222 C   0  0  0  0  0  0  0  0  0  0  0  0
  148.1040  142.1505  155.5430 C   0  0  0  0  0  0  0  0  0  0  0  0
  149.1367  141.2048  155.3997 C   0  0  0  0  0  0  0  0  0  0  0  0
  150.2191  140.8379  156.1929 N   0  0  0  0  0  0  0  0  0  0  0  0
  150.5690  141.4132  157.4850 C   0  0  0  0  0  0  0  0  0  0  0  0
  151.8539  142.2635  157.4195 C   0  0  1  0  0  0  0  0  0  0  0  0
  151.6321  143.3314  156.5211 O   0  0  0  0  0  0  0  0  0  0  0  0
  152.3033  142.7435  158.7929 C   0  0  0  0  0  0  0  0  0  0  0  0
  152.2257  144.1099  159.1428 C   0  0  0  0  0  0  0  0  0  0  0  0
  152.6232  144.5378  160.4245 C   0  0  0  0  0  0  0  0  0  0  0  0
  153.0991  143.6030  161.3638 C   0  0  0  0  0  0  0  0  0  0  0  0
  153.1781  142.2398  161.0209 C   0  0  0  0  0  0  0  0  0  0  0  0
  153.6327  141.3398  161.9245 F   0  0  0  0  0  0  0  0  0  0  0  0
  152.7818  141.8117  159.7393 C   0  0  0  0  0  0  0  0  0  0  0  0
  152.4437  138.4373  155.3250 H   0  0  0  0  0  0  0  0  0  0  0  0
  151.8535  138.6699  156.9750 H   0  0  0  0  0  0  0  0  0  0  0  0
  152.8690  139.9071  156.2071 H   0  0  0  0  0  0  0  0  0  0  0  0
  148.3052  139.9031  152.3499 H   0  0  0  0  0  0  0  0  0  0  0  0
  146.4794  141.5705  152.5921 H   0  0  0  0  0  0  0  0  0  0  0  0
  146.3460  143.0026  154.6209 H   0  0  0  0  0  0  0  0  0  0  0  0
  148.0488  142.7708  156.4252 H   0  0  0  0  0  0  0  0  0  0  0  0
  149.7301  142.0330  157.8046 H   0  0  0  0  0  0  0  0  0  0  0  0
  150.6652  140.6252  158.2321 H   0  0  0  0  0  0  0  0  0  0  0  0
  152.6564  141.6658  156.9857 H   0  0  0  0  0  0  0  0  0  0  0  0
  150.7151  143.3443  156.2928 H   0  0  0  0  0  0  0  0  0  0  0  0
  151.8529  144.8338  158.4330 H   0  0  0  0  0  0  0  0  0  0  0  0
  152.5599  145.5830  160.6885 H   0  0  0  0  0  0  0  0  0  0  0  0
  153.4018  143.9311  162.3471 H   0  0  0  0  0  0  0  0  0  0  0  0
  152.8373  140.7624  159.4877 H   0  0  0  0  0  0  0  0  0  0  0  0
  1  2  1  0  0  0  0
  1 21  1  0  0  0  0
  1 22  1  0  0  0  0
  1 23  1  0  0  0  0
  2 10  1  0  0  0  0
  2  3  2  0  0  0  0
  3  4  1  0  0  0  0
  4  9  2  0  0  0  0
  4  5  1  0  0  0  0
  5  6  2  0  0  0  0
  5 24  1  0  0  0  0
  6  7  1  0  0  0  0
  6 25  1  0  0  0  0
  7  8  2  0  0  0  0
  7 26  1  0  0  0  0
  8  9  1  0  0  0  0
  8 27  1  0  0  0  0
  9 10  1  0  0  0  0
 10 11  1  0  0  0  0
 11 12  1  0  0  0  0
 11 28  1  0  0  0  0
 11 29  1  0  0  0  0
 12 13  1  0  0  0  0
 12 14  1  0  0  0  0
 12 30  1  0  0  0  0
 13 31  1  0  0  0  0
 14 20  1  0  0  0  0
 14 15  2  0  0  0  0
 15 16  1  0  0  0  0
 15 32  1  0  0  0  0
 16 17  2  0  0  0  0
 16 33  1  0  0  0  0
 17 18  1  0  0  0  0
 17 34  1  0  0  0  0
 18 19  1  0  0  0  0
 18 20  2  0  0  0  0
 20 35  1  0  0  0  0
M  END
> <s_m_source_file>
AV-unprocessed.smi

> <i_m_source_file_index>
1906

> <i_lp_mmshare_version>
43012

> <i_f3d_flags>
0

> <s_epik_input>
W2NIXTFbY0hdW2NIXVtjSF1jKGMxMiluKGMobjIpW0NIM10pW0NIMl1bQ0BIXShbT0hdKWMzW2NIXVtjSF1bY0hdYyhGKVtjSF0z

> <s_epik_cmdline>
J2VwaWtfcHl0aG9uJywgJy1waCcsICc3LjAnLCAnLXRuJywgJzgnLCAnLW1hJywgJzIwMCcsICctbWV0YWxfYmluZGluZycsICctaW1hZScsICc8aW5maWxlLm1hZT4nLCAnLW9tYWUnLCAnPG91dGZpbGUubWFlPic=

> <r_epik_Ionization_Penalty>
0.129664

> <r_epik_Ionization_Penalty_Charging>
0

> <r_epik_Ionization_Penalty_Neutral>
0.129664

> <r_epik_State_Penalty>
0.119073

> <r_epik_Charging_Adjusted_Penalty>
0.119073

> <i_epik_Tot_Q>
0

> <i_epik_Tot_abs_Q>
0

> <r_epik_Metal_State_Penalty>
0.000131867

> <b_epik_Metal_Only>
0

> <s_lp_Force_Field>
OPLS_2005

> <r_lp_Energy>
11.7028

> <b_lp_Chiralities_Consistent>
1

> <s_lp_Variant>
AV-unprocessed.smi:1906-2

> <Gold.Version>
5.8.1

> <Gold.Id.Protein>
6NUR|6NUR_protein|mol2

> <Gold.PLP.Fitness>
53.1894

> <Gold.PLP.PLP>
-49.4828

> <Gold.PLP.part.hbond>
-2.0000

> <Gold.PLP.part.metal>
0.0000

> <Gold.PLP.part.buried>
-0.0878

> <Gold.PLP.part.nonpolar>
-46.4747

> <Gold.PLP.part.repulsive>
0.1083

> <Gold.PLP.ligand.clash>
0.0000

> <Gold.PLP.ligand.torsion>
0.2884

> <Gold.PLP.Chemscore.Hbond>
1.4220

> <Gold.PLP.Chemscore.CHOScore>
0.0000

> <Gold.PLP.Chemscore.Metal>
0.0000

> <Gold.Chemscore.Hbonds>
donor molecule, donor type, donor heavy atom, donor atom, acceptor molecule, acceptor atom, score
      L1  H    13    31       P1  8028  0.14
      P1  H  7989  7998       L1     3  0.23

> <Gold.PLP.Chemscore.Internal.Correction>
0.0175

> <Gold.Rescore>
     Score         DG    S(hbond)    S(metal)    S(lipo)     H(rot)  DE(clash)    DE(int)     intcor
     15.72     -17.86       0.55        0.00     129.42       1.79       1.91       0.23       ----

> <Gold.Chemscore.Fitness>
15.7181

> <Gold.Chemscore.DG>
-17.8560

> <Gold.Chemscore.ZeroCoef>
-5.4800

> <Gold.Chemscore.Hbond>
0.5458

> <Gold.Chemscore.Metal>
0.0000

> <Gold.Chemscore.Lipo>
129.4200

> <Gold.Chemscore.Internal_Hbond>
0.0000

> <Gold.Chemscore.DEClash>
1.9085

> <Gold.Chemscore.DEInternal>
0.2294

> <Gold.Chemscore.Rot>
1.7926

> <Gold.Chemscore.Internal.Correction>
   9.000000E+99

> <Gold.Chemscore.Hbonds>
donor molecule, donor type, donor heavy atom, donor atom, acceptor molecule, acceptor atom, score
      L1  H    13    31       P1  8028  0.15

> <Gold.Chemscore.Hbond.Weighted>
-1.8229

> <Gold.Chemscore.Metal.Weighted>
-0.0000

> <Gold.Chemscore.Lipo.Weighted>
-15.1421

> <Gold.Chemscore.Internal_Hbond.Weighted>
0.0000

> <Gold.Chemscore.DEClash.Weighted>
1.9085

> <Gold.Chemscore.DEInternal.Weighted>
0.2294

> <Gold.Chemscore.Rot.Weighted>
4.5890

> <Gold.Chemscore.Internal.Correction.Weighted>
   9.000000E+99

> <Gold.Protein.RotatedTorsions>
[ 6907 6896 6895 6894 ] final  122.12 input  -60.11 | X-H torsion
[ 7974 7965 7964 7962 ] final -170.29 input  175.53 | X-H torsion
[ 8008 7997 7996 7995 ] final  -28.54 input   59.86 | X-H torsion
[ 10167 10162 10161 10158 ] final  -39.91 input  -65.29 | X-H torsion
[ 10718 10713 10712 10709 ] final  -63.37 input   66.30 | X-H torsion
[ 10763 10752 10751 10750 ] final  -99.40 input  -60.55 | X-H torsion
[ 11005 11000 10999 10996 ] final   17.70 input  -57.11 | X-H torsion

> <Gold.Protein.ActiveResidues>
 VAL166  LYS551  ARG553  GLY616  TRP617  ASP618  TYR619  PRO620  LYS621  CYS622 
 ASP623  PHE694  ASN695  SER759  ASP760  ASP761  ALA762  ILE779  LEU786  VAL792 
 PHE793  MET794  SER795  GLU796  ALA797  LYS798  CYS799  TRP800  GLU811  SER814 

> <Gold.Protein.RotatedAtoms>
  152.4268  133.7209  159.6532 H   0  0  0  0  0  0  0  0  0  0  0  0  # atno 6907 bound_to 6896
  150.8145  133.8351  159.3173 H   0  0  0  0  0  0  0  0  0  0  0  0  # atno 6908 bound_to 6896
  151.6052  135.1046  160.0120 H   0  0  0  0  0  0  0  0  0  0  0  0  # atno 6909 bound_to 6896
  144.7172  140.2093  143.6329 H   0  0  0  0  0  0  0  0  0  0  0  0  # atno 7974 bound_to 7965
  154.4328  140.1842  156.1105 H   0  0  0  0  0  0  0  0  0  0  0  0  # atno 8008 bound_to 7997
  156.0221  140.3339  155.7024 H   0  0  0  0  0  0  0  0  0  0  0  0  # atno 8009 bound_to 7997
  155.5961  140.0636  157.2736 H   0  0  0  0  0  0  0  0  0  0  0  0  # atno 8010 bound_to 7997
  140.7050  143.3185  151.2849 H   0  0  0  0  0  0  0  0  0  0  0  0  # atno 10167 bound_to 10162
  156.0795  130.4220  150.1267 H   0  0  0  0  0  0  0  0  0  0  0  0  # atno 10718 bound_to 10713
  154.7495  135.4973  153.9263 H   0  0  0  0  0  0  0  0  0  0  0  0  # atno 10763 bound_to 10752
  153.1128  135.6713  153.9479 H   0  0  0  0  0  0  0  0  0  0  0  0  # atno 10764 bound_to 10752
  153.9233  135.3086  155.3426 H   0  0  0  0  0  0  0  0  0  0  0  0  # atno 10765 bound_to 10752
  140.4330  134.1400  155.7682 H   0  0  0  0  0  0  0  0  0  0  0  0  # atno 11005 bound_to 11000
  145.8606  139.2221  143.1719 LP  0  0  0  0  0  0  0  0  0  0  0  0  # atno 17320 bound_to 7965
  146.0177  140.8377  142.9939 LP  0  0  0  0  0  0  0  0  0  0  0  0  # atno 17321 bound_to 7965
  139.6632  144.0152  152.2706 LP  0  0  0  0  0  0  0  0  0  0  0  0  # atno 17342 bound_to 10162
  139.9726  144.6483  150.7975 LP  0  0  0  0  0  0  0  0  0  0  0  0  # atno 17343 bound_to 10162
  156.9301  130.9711  151.3534 LP  0  0  0  0  0  0  0  0  0  0  0  0  # atno 17370 bound_to 10713
  157.5906  130.8441  149.8654 LP  0  0  0  0  0  0  0  0  0  0  0  0  # atno 17371 bound_to 10713
  141.1738  133.8556  157.1488 LP  0  0  0  0  0  0  0  0  0  0  0  0  # atno 17394 bound_to 11000
  140.0121  134.9983  157.0418 LP  0  0  0  0  0  0  0  0  0  0  0  0  # atno 17395 bound_to 11000

$$$$
