AV-unprocessed.smi:1398|AV-procd|sdf|5680|dock10
  -GOLD-   22720 5303D 1   1.00000     0.00000
 Structure written by MMmdl.
 41 42  0  0  0  0  0  0  0  0  1 V2000
  145.7005  133.6156  150.8344 C   0  0  0  0  0  0  0  0  0  0  0  0
  146.6993  133.8352  151.8243 O   0  0  0  0  0  0  0  0  0  0  0  0
  147.1290  132.7596  152.5780 C   0  0  0  0  0  0  0  0  0  0  0  0
  146.5915  131.5394  152.3267 N   0  0  0  0  0  0  0  0  0  0  0  0
  147.0130  130.4884  153.0595 C   0  0  0  0  0  0  0  0  0  0  0  0
  147.9885  130.5936  154.0679 C   0  0  0  0  0  0  0  0  0  0  0  0
  148.5467  131.8580  154.3312 C   0  0  0  0  0  0  0  0  0  0  0  0
  148.1030  132.9735  153.5810 C   0  0  0  0  0  0  0  0  0  0  0  0
  148.6158  134.2881  153.7543 N   0  0  0  0  0  0  0  0  0  0  0  0
  149.3604  134.7647  154.7659 C   0  0  0  0  0  0  0  0  0  0  0  0
  149.7334  134.1153  155.7430 O   0  0  0  0  0  0  0  0  0  0  0  0
  149.6327  136.0657  154.5940 N   0  0  0  0  0  0  0  0  0  0  0  0
  150.3807  136.8969  155.5301 C   0  0  0  0  0  0  0  0  0  0  0  0
  149.5662  138.1362  155.9535 C   0  0  0  0  0  0  0  0  0  0  0  0
  150.2258  139.4718  155.5724 C   0  0  0  0  0  0  0  0  0  0  0  0
  150.3593  139.7743  154.3857 O   0  0  0  0  0  0  0  0  0  0  0  0
  150.6382  140.2834  156.5681 N   0  0  0  0  0  0  0  0  0  0  0  0
  151.2556  141.5986  156.3980 C   0  0  0  0  0  0  0  0  0  0  0  0
  151.3250  142.2083  157.7988 C   0  0  0  0  0  0  0  0  0  0  0  0
  151.3369  141.0046  158.7306 C   0  0  0  0  0  0  0  0  0  0  0  0
  150.5218  139.9470  157.9858 C   0  0  0  0  0  0  0  0  0  0  0  0
  145.4745  134.5580  150.3358 H   0  0  0  0  0  0  0  0  0  0  0  0
  144.7743  133.2455  151.2763 H   0  0  0  0  0  0  0  0  0  0  0  0
  146.0409  132.9123  150.0731 H   0  0  0  0  0  0  0  0  0  0  0  0
  146.5638  129.5335  152.8302 H   0  0  0  0  0  0  0  0  0  0  0  0
  148.3051  129.7231  154.6230 H   0  0  0  0  0  0  0  0  0  0  0  0
  149.3107  131.9452  155.0883 H   0  0  0  0  0  0  0  0  0  0  0  0
  148.3094  134.9641  153.0698 H   0  0  0  0  0  0  0  0  0  0  0  0
  149.2844  136.5187  153.7617 H   0  0  0  0  0  0  0  0  0  0  0  0
  150.6738  136.3084  156.4015 H   0  0  0  0  0  0  0  0  0  0  0  0
  151.3031  137.2017  155.0342 H   0  0  0  0  0  0  0  0  0  0  0  0
  148.5812  138.0902  155.4875 H   0  0  0  0  0  0  0  0  0  0  0  0
  149.4096  138.1211  157.0326 H   0  0  0  0  0  0  0  0  0  0  0  0
  152.2587  141.4726  155.9884 H   0  0  0  0  0  0  0  0  0  0  0  0
  150.6874  142.2389  155.7221 H   0  0  0  0  0  0  0  0  0  0  0  0
  152.1904  142.8577  157.9349 H   0  0  0  0  0  0  0  0  0  0  0  0
  150.4292  142.8028  157.9834 H   0  0  0  0  0  0  0  0  0  0  0  0
  152.3616  140.6530  158.8585 H   0  0  0  0  0  0  0  0  0  0  0  0
  150.9353  141.2301  159.7188 H   0  0  0  0  0  0  0  0  0  0  0  0
  149.4714  139.9963  158.2770 H   0  0  0  0  0  0  0  0  0  0  0  0
  150.8871  138.9415  158.2015 H   0  0  0  0  0  0  0  0  0  0  0  0
  1  2  1  0  0  0  0
  1 22  1  0  0  0  0
  1 23  1  0  0  0  0
  1 24  1  0  0  0  0
  2  3  1  0  0  0  0
  3  8  1  0  0  0  0
  3  4  2  0  0  0  0
  4  5  1  0  0  0  0
  5  6  2  0  0  0  0
  5 25  1  0  0  0  0
  6  7  1  0  0  0  0
  6 26  1  0  0  0  0
  7  8  2  0  0  0  0
  7 27  1  0  0  0  0
  8  9  1  0  0  0  0
  9 10  1  0  0  0  0
  9 28  1  0  0  0  0
 10 11  2  0  0  0  0
 10 12  1  0  0  0  0
 12 13  1  0  0  0  0
 12 29  1  0  0  0  0
 13 14  1  0  0  0  0
 13 30  1  0  0  0  0
 13 31  1  0  0  0  0
 14 15  1  0  0  0  0
 14 32  1  0  0  0  0
 14 33  1  0  0  0  0
 15 16  2  0  0  0  0
 15 17  1  0  0  0  0
 17 21  1  0  0  0  0
 17 18  1  0  0  0  0
 18 19  1  0  0  0  0
 18 34  1  0  0  0  0
 18 35  1  0  0  0  0
 19 20  1  0  0  0  0
 19 36  1  0  0  0  0
 19 37  1  0  0  0  0
 20 21  1  0  0  0  0
 20 38  1  0  0  0  0
 20 39  1  0  0  0  0
 21 40  1  0  0  0  0
 21 41  1  0  0  0  0
M  END
> <s_m_source_file>
AV-unprocessed.smi

> <i_m_source_file_index>
1398

> <i_lp_mmshare_version>
43012

> <i_f3d_flags>
0

> <s_epik_input>
W0NIM11PYzFuW2NIXVtjSF1bY0hdYzFbTkhdQyg9TylbTkhdW0NIMl1bQ0gyXUMoPU8pTjJbQ0gyXVtDSDJdW0NIMl1bQ0gyXTI=

> <s_epik_cmdline>
J2VwaWtfcHl0aG9uJywgJy1waCcsICc3LjAnLCAnLXRuJywgJzgnLCAnLW1hJywgJzIwMCcsICctbWV0YWxfYmluZGluZycsICctaW1hZScsICc8aW5maWxlLm1hZT4nLCAnLW9tYWUnLCAnPG91dGZpbGUubWFlPic=

> <r_lp_tautomer_probability>
1

> <r_epik_Ionization_Penalty>
8.61088e-05

> <r_epik_Ionization_Penalty_Charging>
0

> <r_epik_Ionization_Penalty_Neutral>
8.61088e-05

> <r_epik_State_Penalty>
-0

> <r_epik_Charging_Adjusted_Penalty>
0

> <i_epik_Tot_Q>
0

> <i_epik_Tot_abs_Q>
0

> <r_epik_Metal_State_Penalty>
-0

> <b_epik_Metal_Only>
0

> <s_lp_Force_Field>
OPLS_2005

> <r_lp_Energy>
29.8369

> <b_lp_Chiralities_Consistent>
1

> <s_lp_Variant>
AV-unprocessed.smi:1398-1

> <Gold.Version>
5.8.1

> <Gold.Id.Protein>
6NUR|6NUR_protein|mol2

> <Gold.PLP.Fitness>
41.3561

> <Gold.PLP.PLP>
-33.4194

> <Gold.PLP.part.hbond>
-3.1403

> <Gold.PLP.part.metal>
0.0000

> <Gold.PLP.part.buried>
-6.6734

> <Gold.PLP.part.nonpolar>
-25.3381

> <Gold.PLP.part.repulsive>
1.6949

> <Gold.PLP.ligand.clash>
0.0000

> <Gold.PLP.ligand.torsion>
0.5233

> <Gold.PLP.Chemscore.Hbond>
2.9840

> <Gold.PLP.Chemscore.CHOScore>
0.0000

> <Gold.PLP.Chemscore.Metal>
0.0000

> <Gold.Chemscore.Hbonds>
donor molecule, donor type, donor heavy atom, donor atom, acceptor molecule, acceptor atom, score
      L1  H     9    28       P1  7948  0.83
      L1  H    12    29       P1  7948  0.83
      P1  H  7989  7998       L1    16  1.00

> <Gold.PLP.Chemscore.Internal.Correction>
0.0313

> <Gold.Rescore>
     Score         DG    S(hbond)    S(metal)    S(lipo)     H(rot)  DE(clash)    DE(int)     intcor
     14.12     -15.84       2.47        0.00      57.90       1.83       0.02       1.69       ----

> <Gold.Chemscore.Fitness>
14.1218

> <Gold.Chemscore.DG>
-15.8375

> <Gold.Chemscore.ZeroCoef>
-5.4800

> <Gold.Chemscore.Hbond>
2.4722

> <Gold.Chemscore.Metal>
0.0000

> <Gold.Chemscore.Lipo>
57.9043

> <Gold.Chemscore.Internal_Hbond>
0.0000

> <Gold.Chemscore.DEClash>
0.0234

> <Gold.Chemscore.DEInternal>
1.6923

> <Gold.Chemscore.Rot>
1.8260

> <Gold.Chemscore.Internal.Correction>
   9.000000E+99

> <Gold.Chemscore.Hbonds>
donor molecule, donor type, donor heavy atom, donor atom, acceptor molecule, acceptor atom, score
      L1  H     9    28       P1  7948  0.69
      L1  H    12    29       P1  7948  0.78
      P1  H  7989  7998       L1    16  1.00

> <Gold.Chemscore.Hbond.Weighted>
-8.2572

> <Gold.Chemscore.Metal.Weighted>
-0.0000

> <Gold.Chemscore.Lipo.Weighted>
-6.7748

> <Gold.Chemscore.Internal_Hbond.Weighted>
0.0000

> <Gold.Chemscore.DEClash.Weighted>
0.0234

> <Gold.Chemscore.DEInternal.Weighted>
1.6923

> <Gold.Chemscore.Rot.Weighted>
4.6744

> <Gold.Chemscore.Internal.Correction.Weighted>
   9.000000E+99

> <Gold.Protein.RotatedTorsions>
[ 6907 6896 6895 6894 ] final   11.25 input  -60.11 | X-H torsion
[ 7974 7965 7964 7962 ] final  127.56 input  175.53 | X-H torsion
[ 8008 7997 7996 7995 ] final    6.06 input   59.86 | X-H torsion
[ 10167 10162 10161 10158 ] final -148.65 input  -65.29 | X-H torsion
[ 10718 10713 10712 10709 ] final  112.24 input   66.30 | X-H torsion
[ 10763 10752 10751 10750 ] final -150.00 input  -60.55 | X-H torsion
[ 11005 11000 10999 10996 ] final -164.40 input  -57.11 | X-H torsion

> <Gold.Protein.ActiveResidues>
 VAL166  LYS551  ARG553  GLY616  TRP617  ASP618  TYR619  PRO620  LYS621  CYS622 
 ASP623  PHE694  ASN695  SER759  ASP760  ASP761  ALA762  ILE779  LEU786  VAL792 
 PHE793  MET794  SER795  GLU796  ALA797  LYS798  CYS799  TRP800  GLU811  SER814 

> <Gold.Protein.RotatedAtoms>
  151.7513  135.0832  160.0331 H   0  0  0  0  0  0  0  0  0  0  0  0  # atno 6907 bound_to 6896
  152.3414  133.6067  159.5888 H   0  0  0  0  0  0  0  0  0  0  0  0  # atno 6908 bound_to 6896
  150.7482  133.9632  159.3564 H   0  0  0  0  0  0  0  0  0  0  0  0  # atno 6909 bound_to 6896
  145.0492  139.3897  143.5063 H   0  0  0  0  0  0  0  0  0  0  0  0  # atno 7974 bound_to 7965
  154.7362  140.2740  155.6413 H   0  0  0  0  0  0  0  0  0  0  0  0  # atno 8008 bound_to 7997
  156.2862  140.2706  156.2002 H   0  0  0  0  0  0  0  0  0  0  0  0  # atno 8009 bound_to 7997
  155.0317  140.0371  157.2466 H   0  0  0  0  0  0  0  0  0  0  0  0  # atno 8010 bound_to 7997
  139.7513  143.8514  152.2587 H   0  0  0  0  0  0  0  0  0  0  0  0  # atno 10167 bound_to 10162
  157.6403  131.0964  150.6866 H   0  0  0  0  0  0  0  0  0  0  0  0  # atno 10718 bound_to 10713
  154.8144  135.3295  154.7216 H   0  0  0  0  0  0  0  0  0  0  0  0  # atno 10763 bound_to 10752
  153.7859  135.6915  153.4884 H   0  0  0  0  0  0  0  0  0  0  0  0  # atno 10764 bound_to 10752
  153.1949  135.4537  155.0142 H   0  0  0  0  0  0  0  0  0  0  0  0  # atno 10765 bound_to 10752
  140.5873  134.5081  157.5187 H   0  0  0  0  0  0  0  0  0  0  0  0  # atno 11005 bound_to 11000
  146.3516  140.0133  142.8665 LP  0  0  0  0  0  0  0  0  0  0  0  0  # atno 17320 bound_to 7965
  145.1549  140.9642  143.4411 LP  0  0  0  0  0  0  0  0  0  0  0  0  # atno 17321 bound_to 7965
  139.8493  144.7172  150.9233 LP  0  0  0  0  0  0  0  0  0  0  0  0  # atno 17342 bound_to 10162
  140.7798  143.3913  151.1305 LP  0  0  0  0  0  0  0  0  0  0  0  0  # atno 17343 bound_to 10162
  156.7191  130.4675  149.5527 LP  0  0  0  0  0  0  0  0  0  0  0  0  # atno 17370 bound_to 10713
  156.1678  130.6417  151.0799 LP  0  0  0  0  0  0  0  0  0  0  0  0  # atno 17371 bound_to 10713
  139.9290  134.8000  156.0985 LP  0  0  0  0  0  0  0  0  0  0  0  0  # atno 17394 bound_to 11000
  141.0958  133.6696  156.2641 LP  0  0  0  0  0  0  0  0  0  0  0  0  # atno 17395 bound_to 11000

$$$$
