AV-unprocessed.smi:113|AV-procd|sdf|1093|dock7
  -GOLD-   2262018193D 1   1.00000     0.00000
 Structure written by MMmdl.
 52 55  0  0  0  0  0  0  0  0  1 V2000
  153.9057  138.6640  159.3080 C   0  0  0  0  0  0  0  0  0  0  0  0
  153.2543  140.0312  159.3243 C   0  0  0  0  0  0  0  0  0  0  0  0
  152.5318  140.4936  158.2104 C   0  0  0  0  0  0  0  0  0  0  0  0
  151.9337  141.7734  158.2629 C   0  0  0  0  0  0  0  0  0  0  0  0
  151.1377  142.3255  157.0748 C   0  0  0  0  0  0  0  0  0  0  0  0
  150.1370  141.4454  156.4872 N   0  0  0  0  0  0  0  0  0  0  0  0
  150.5850  140.4326  155.6046 C   0  0  0  0  0  0  0  0  0  0  0  0
  151.7785  140.3018  155.3239 O   0  0  0  0  0  0  0  0  0  0  0  0
  149.5351  139.5566  155.0799 C   0  0  0  0  0  0  0  0  0  0  0  0
  149.9409  138.4407  154.1299 C   0  0  0  0  0  0  0  0  0  0  0  0
  148.2473  139.7525  155.4518 C   0  0  0  0  0  0  0  0  0  0  0  0
  147.8327  140.7554  156.3109 N   0  0  0  0  0  0  0  0  0  0  0  0
  146.3703  140.8400  156.6992 C   0  0  2  0  0  0  0  0  0  0  0  0
  145.5065  139.7267  156.0961 C   0  0  0  0  0  0  0  0  0  0  0  0
  144.2025  140.4639  155.8725 C   0  0  2  0  0  0  0  0  0  0  0  0
  143.4434  139.8507  154.8509 O   0  0  0  0  0  0  0  0  0  0  0  0
  144.6758  141.8690  155.4856 C   0  0  1  0  0  0  0  0  0  0  0  0
  143.6491  142.9669  155.8034 C   0  0  0  0  0  0  0  0  0  0  0  0
  142.5350  142.8535  154.9440 O   0  0  0  0  0  0  0  0  0  0  0  0
  145.8536  142.0656  156.2698 O   0  0  0  0  0  0  0  0  0  0  0  0
  148.7914  141.6228  156.8813 C   0  0  0  0  0  0  0  0  0  0  0  0
  148.4688  142.4850  157.7007 O   0  0  0  0  0  0  0  0  0  0  0  0
  152.0929  142.5332  159.4534 C   0  0  0  0  0  0  0  0  0  0  0  0
  151.5227  143.8219  159.5901 C   0  0  0  0  0  0  0  0  0  0  0  0
  151.6955  144.5594  160.7748 C   0  0  0  0  0  0  0  0  0  0  0  0
  152.4387  144.0164  161.8357 C   0  0  0  0  0  0  0  0  0  0  0  0
  153.0059  142.7358  161.7091 C   0  0  0  0  0  0  0  0  0  0  0  0
  152.8455  141.9773  160.5297 C   0  0  0  0  0  0  0  0  0  0  0  0
  153.4069  140.7507  160.4529 N   0  0  0  0  0  0  0  0  0  0  0  0
  154.1847  138.3807  158.2926 H   0  0  0  0  0  0  0  0  0  0  0  0
  153.2153  137.9147  159.6958 H   0  0  0  0  0  0  0  0  0  0  0  0
  154.8078  138.6507  159.9210 H   0  0  0  0  0  0  0  0  0  0  0  0
  152.4463  139.8641  157.3378 H   0  0  0  0  0  0  0  0  0  0  0  0
  150.6325  143.2503  157.3576 H   0  0  0  0  0  0  0  0  0  0  0  0
  151.8156  142.6244  156.2742 H   0  0  0  0  0  0  0  0  0  0  0  0
  149.0823  137.8542  153.8016 H   0  0  0  0  0  0  0  0  0  0  0  0
  150.6415  137.7612  154.6168 H   0  0  0  0  0  0  0  0  0  0  0  0
  150.4226  138.8518  153.2419 H   0  0  0  0  0  0  0  0  0  0  0  0
  147.5008  139.0833  155.0485 H   0  0  0  0  0  0  0  0  0  0  0  0
  146.3387  140.8287  157.7891 H   0  0  0  0  0  0  0  0  0  0  0  0
  145.9233  139.3671  155.1558 H   0  0  0  0  0  0  0  0  0  0  0  0
  145.4197  138.8839  156.7821 H   0  0  0  0  0  0  0  0  0  0  0  0
  143.6296  140.4930  156.8007 H   0  0  0  0  0  0  0  0  0  0  0  0
  143.8209  140.0830  154.0159 H   0  0  0  0  0  0  0  0  0  0  0  0
  144.9458  141.8825  154.4283 H   0  0  0  0  0  0  0  0  0  0  0  0
  143.2846  142.8546  156.8249 H   0  0  0  0  0  0  0  0  0  0  0  0
  144.0919  143.9601  155.7247 H   0  0  0  0  0  0  0  0  0  0  0  0
  142.8434  142.6243  154.0806 H   0  0  0  0  0  0  0  0  0  0  0  0
  150.9446  144.2674  158.7953 H   0  0  0  0  0  0  0  0  0  0  0  0
  151.2569  145.5420  160.8688 H   0  0  0  0  0  0  0  0  0  0  0  0
  152.5735  144.5807  162.7467 H   0  0  0  0  0  0  0  0  0  0  0  0
  153.5744  142.3285  162.5325 H   0  0  0  0  0  0  0  0  0  0  0  0
  1  2  1  0  0  0  0
  1 30  1  0  0  0  0
  1 31  1  0  0  0  0
  1 32  1  0  0  0  0
  2 29  1  0  0  0  0
  2  3  2  0  0  0  0
  3  4  1  0  0  0  0
  3 33  1  0  0  0  0
  4  5  1  0  0  0  0
  4 23  2  0  0  0  0
  5  6  1  0  0  0  0
  5 34  1  0  0  0  0
  5 35  1  0  0  0  0
  6 21  1  0  0  0  0
  6  7  1  0  0  0  0
  7  8  2  0  0  0  0
  7  9  1  0  0  0  0
  9 10  1  0  0  0  0
  9 11  2  0  0  0  0
 10 36  1  0  0  0  0
 10 37  1  0  0  0  0
 10 38  1  0  0  0  0
 11 12  1  0  0  0  0
 11 39  1  0  0  0  0
 12 13  1  0  0  0  0
 12 21  1  0  0  0  0
 13 20  1  0  0  0  0
 13 14  1  0  0  0  0
 13 40  1  0  0  0  0
 14 15  1  0  0  0  0
 14 41  1  0  0  0  0
 14 42  1  0  0  0  0
 15 16  1  0  0  0  0
 15 17  1  0  0  0  0
 15 43  1  0  0  0  0
 16 44  1  0  0  0  0
 17 18  1  0  0  0  0
 17 20  1  0  0  0  0
 17 45  1  0  0  0  0
 18 19  1  0  0  0  0
 18 46  1  0  0  0  0
 18 47  1  0  0  0  0
 19 48  1  0  0  0  0
 21 22  2  0  0  0  0
 23 28  1  0  0  0  0
 23 24  1  0  0  0  0
 24 25  2  0  0  0  0
 24 49  1  0  0  0  0
 25 26  1  0  0  0  0
 25 50  1  0  0  0  0
 26 27  2  0  0  0  0
 26 51  1  0  0  0  0
 27 28  1  0  0  0  0
 27 52  1  0  0  0  0
 28 29  2  0  0  0  0
M  END
> <s_m_source_file>
AV-unprocessed.smi

> <i_m_source_file_index>
113

> <i_lp_mmshare_version>
43012

> <i_f3d_flags>
0

> <s_epik_input>
W2NIXTFbY0hdW2NIXVtjSF1jKGMxMiluYyhbQ0gzXSlbY0hdYzJbQ0gyXW4zYyg9TyljKFtDSDNdKVtjSF1uKGMzPU8pW0NAQEhdNFtDSDJdW0NAQEhdKFtPSF0pW0NASF0oTzQpW0NIMl1bT0hd

> <s_epik_cmdline>
J2VwaWtfcHl0aG9uJywgJy1waCcsICc3LjAnLCAnLXRuJywgJzgnLCAnLW1hJywgJzIwMCcsICctbWV0YWxfYmluZGluZycsICctaW1hZScsICc8aW5maWxlLm1hZT4nLCAnLW9tYWUnLCAnPG91dGZpbGUubWFlPic=

> <r_lp_tautomer_probability>
1

> <r_epik_Ionization_Penalty>
0.214728

> <r_epik_Ionization_Penalty_Charging>
3.04883e-08

> <r_epik_Ionization_Penalty_Neutral>
0.214728

> <r_epik_State_Penalty>
0.204913

> <r_epik_Charging_Adjusted_Penalty>
0.204913

> <i_epik_Tot_Q>
0

> <i_epik_Tot_abs_Q>
0

> <r_epik_Metal_State_Penalty>
0.000244761

> <b_epik_Metal_Only>
0

> <s_epik_Chemistry_Notes>
This compound contains an acetal/aminal-like group ( X-CH(R)-Y where X, Y are N, S, or O) that may be acid/base labile, releasing an aldehyde.

> <s_lp_Force_Field>
OPLS_2005

> <r_lp_Energy>
34.9534

> <b_lp_Chiralities_Consistent>
1

> <s_lp_Variant>
AV-unprocessed.smi:113-3

> <Gold.Version>
5.8.1

> <Gold.Id.Protein>
6NUR|6NUR_protein|mol2

> <Gold.PLP.Fitness>
54.3251

> <Gold.PLP.PLP>
-46.6024

> <Gold.PLP.part.hbond>
-2.8376

> <Gold.PLP.part.metal>
0.0000

> <Gold.PLP.part.buried>
-8.2714

> <Gold.PLP.part.nonpolar>
-36.5414

> <Gold.PLP.part.repulsive>
1.2357

> <Gold.PLP.ligand.clash>
0.0000

> <Gold.PLP.ligand.torsion>
0.4738

> <Gold.PLP.Chemscore.Hbond>
2.8800

> <Gold.PLP.Chemscore.CHOScore>
0.0000

> <Gold.PLP.Chemscore.Metal>
0.0000

> <Gold.Chemscore.Hbonds>
donor molecule, donor type, donor heavy atom, donor atom, acceptor molecule, acceptor atom, score
      L1  H    16    44       P1 10175  0.99
      L1  H    19    48       P1 10174  1.00
      P1  H  7989  7998       L1     8  0.69

> <Gold.PLP.Chemscore.Internal.Correction>
0.0302

> <Gold.Rescore>
     Score         DG    S(hbond)    S(metal)    S(lipo)     H(rot)  DE(clash)    DE(int)     intcor
     18.63     -20.35       2.47        0.00     120.95       2.95       0.36       1.36       ----

> <Gold.Chemscore.Fitness>
18.6315

> <Gold.Chemscore.DG>
-20.3514

> <Gold.Chemscore.ZeroCoef>
-5.4800

> <Gold.Chemscore.Hbond>
2.4742

> <Gold.Chemscore.Metal>
0.0000

> <Gold.Chemscore.Lipo>
120.9530

> <Gold.Chemscore.Internal_Hbond>
0.0000

> <Gold.Chemscore.DEClash>
0.3645

> <Gold.Chemscore.DEInternal>
1.3555

> <Gold.Chemscore.Rot>
2.9469

> <Gold.Chemscore.Internal.Correction>
   9.000000E+99

> <Gold.Chemscore.Hbonds>
donor molecule, donor type, donor heavy atom, donor atom, acceptor molecule, acceptor atom, score
      L1  H    16    44       P1 10175  0.91
      L1  H    19    48       P1 10174  0.58
      P1  H  7989  7998       L1     8  0.12

> <Gold.Chemscore.Hbond.Weighted>
-8.2639

> <Gold.Chemscore.Metal.Weighted>
-0.0000

> <Gold.Chemscore.Lipo.Weighted>
-14.1515

> <Gold.Chemscore.Internal_Hbond.Weighted>
0.0000

> <Gold.Chemscore.DEClash.Weighted>
0.3645

> <Gold.Chemscore.DEInternal.Weighted>
1.3555

> <Gold.Chemscore.Rot.Weighted>
7.5439

> <Gold.Chemscore.Internal.Correction.Weighted>
   9.000000E+99

> <Gold.Protein.RotatedTorsions>
[ 6907 6896 6895 6894 ] final -113.54 input  -60.11 | X-H torsion
[ 7974 7965 7964 7962 ] final  170.48 input  175.53 | X-H torsion
[ 8008 7997 7996 7995 ] final -140.14 input   59.86 | X-H torsion
[ 10167 10162 10161 10158 ] final  -15.86 input  -65.29 | X-H torsion
[ 10718 10713 10712 10709 ] final   66.65 input   66.30 | X-H torsion
[ 10763 10752 10751 10750 ] final  118.70 input  -60.55 | X-H torsion
[ 11005 11000 10999 10996 ] final -120.40 input  -57.11 | X-H torsion

> <Gold.Protein.ActiveResidues>
 VAL166  LYS551  ARG553  GLY616  TRP617  ASP618  TYR619  PRO620  LYS621  CYS622 
 ASP623  PHE694  ASN695  SER759  ASP760  ASP761  ALA762  ILE779  LEU786  VAL792 
 PHE793  MET794  SER795  GLU796  ALA797  LYS798  CYS799  TRP800  GLU811  SER814 

> <Gold.Protein.RotatedAtoms>
  150.7837  133.8930  159.3318 H   0  0  0  0  0  0  0  0  0  0  0  0  # atno 6907 bound_to 6896
  151.6786  135.0963  160.0221 H   0  0  0  0  0  0  0  0  0  0  0  0  # atno 6908 bound_to 6896
  152.3895  133.6620  159.6261 H   0  0  0  0  0  0  0  0  0  0  0  0  # atno 6909 bound_to 6896
  144.7322  139.9208  143.6420 H   0  0  0  0  0  0  0  0  0  0  0  0  # atno 7974 bound_to 7965
  155.4565  140.0542  157.2995 H   0  0  0  0  0  0  0  0  0  0  0  0  # atno 8008 bound_to 7997
  154.4755  140.2059  155.9844 H   0  0  0  0  0  0  0  0  0  0  0  0  # atno 8009 bound_to 7997
  156.1125  140.3202  155.8097 H   0  0  0  0  0  0  0  0  0  0  0  0  # atno 8010 bound_to 7997
  140.7225  143.5175  150.9673 H   0  0  0  0  0  0  0  0  0  0  0  0  # atno 10167 bound_to 10162
  157.6182  130.9279  150.0137 H   0  0  0  0  0  0  0  0  0  0  0  0  # atno 10718 bound_to 10713
  153.5717  135.3501  155.2840 H   0  0  0  0  0  0  0  0  0  0  0  0  # atno 10763 bound_to 10752
  154.8681  135.4161  154.2718 H   0  0  0  0  0  0  0  0  0  0  0  0  # atno 10764 bound_to 10752
  153.3485  135.7054  153.6878 H   0  0  0  0  0  0  0  0  0  0  0  0  # atno 10765 bound_to 10752
  141.0146  134.0214  157.3367 H   0  0  0  0  0  0  0  0  0  0  0  0  # atno 11005 bound_to 11000
  146.0931  139.3922  143.0393 LP  0  0  0  0  0  0  0  0  0  0  0  0  # atno 17320 bound_to 7965
  145.7683  140.9907  143.1163 LP  0  0  0  0  0  0  0  0  0  0  0  0  # atno 17321 bound_to 7965
  139.8891  143.6975  152.3147 LP  0  0  0  0  0  0  0  0  0  0  0  0  # atno 17342 bound_to 10162
  139.7285  144.7587  151.0841 LP  0  0  0  0  0  0  0  0  0  0  0  0  # atno 17343 bound_to 10162
  156.1314  130.3643  149.9725 LP  0  0  0  0  0  0  0  0  0  0  0  0  # atno 17370 bound_to 10713
  156.7785  130.9212  151.3645 LP  0  0  0  0  0  0  0  0  0  0  0  0  # atno 17371 bound_to 10713
  139.9109  135.0190  156.7689 LP  0  0  0  0  0  0  0  0  0  0  0  0  # atno 17394 bound_to 11000
  140.6676  133.9588  155.7839 LP  0  0  0  0  0  0  0  0  0  0  0  0  # atno 17395 bound_to 11000

$$$$
