AV-unprocessed.smi:72|AV-procd|sdf|671|dock7
  -GOLD-   2262016573D 1   1.00000     0.00000
 Structure written by MMmdl.
 29 30  0  0  0  0  0  0  0  0  1 V2000
  148.8151  142.2855  154.1201 N   0  0  0  0  0  0  0  0  0  0  0  0
  149.5775  141.6257  154.9169 C   0  0  0  0  0  0  0  0  0  0  0  0
  149.9639  140.2877  154.7459 N   0  0  0  0  0  0  0  0  0  0  0  0
  150.7454  139.7487  155.6301 C   0  0  0  0  0  0  0  0  0  0  0  0
  151.2358  140.4867  156.7840 N   0  0  0  0  0  0  0  0  0  0  0  0
  152.1541  139.8261  157.7914 C   0  0  2  0  0  0  0  0  0  0  0  0
  153.1652  139.1667  157.0936 O   0  0  0  0  0  0  0  0  0  0  0  0
  153.4479  137.9287  157.7272 C   0  0  2  0  0  0  0  0  0  0  0  0
  154.0806  136.9726  156.7037 C   0  0  0  0  0  0  0  0  0  0  0  0
  153.8497  135.6287  157.0682 O   0  0  0  0  0  0  0  0  0  0  0  0
  152.0884  137.4811  158.2775 C   0  0  1  0  0  0  0  0  0  0  0  0
  152.2569  136.6347  159.3973 O   0  0  0  0  0  0  0  0  0  0  0  0
  151.4379  138.7950  158.6945 C   0  0  2  0  0  0  0  0  0  0  0  0
  150.0325  138.7378  158.5281 O   0  0  0  0  0  0  0  0  0  0  0  0
  150.8418  141.8323  156.9813 C   0  0  0  0  0  0  0  0  0  0  0  0
  151.2008  142.4933  157.9552 O   0  0  0  0  0  0  0  0  0  0  0  0
  150.0305  142.3458  156.0311 N   0  0  0  0  0  0  0  0  0  0  0  0
  152.6201  140.6266  158.3674 H   0  0  0  0  0  0  0  0  0  0  0  0
  154.1435  138.1361  158.5431 H   0  0  0  0  0  0  0  0  0  0  0  0
  151.5053  136.9855  157.4996 H   0  0  0  0  0  0  0  0  0  0  0  0
  151.6757  139.0424  159.7302 H   0  0  0  0  0  0  0  0  0  0  0  0
  148.6811  143.2280  154.4563 H   0  0  0  0  0  0  0  0  0  0  0  0
  151.0811  138.7123  155.5707 H   0  0  0  0  0  0  0  0  0  0  0  0
  153.6923  137.1564  155.7018 H   0  0  0  0  0  0  0  0  0  0  0  0
  155.1587  137.1297  156.6643 H   0  0  0  0  0  0  0  0  0  0  0  0
  154.5750  135.3311  157.5956 H   0  0  0  0  0  0  0  0  0  0  0  0
  152.8666  137.0417  159.9931 H   0  0  0  0  0  0  0  0  0  0  0  0
  149.7328  139.5792  158.2198 H   0  0  0  0  0  0  0  0  0  0  0  0
  149.7331  143.3040  156.1422 H   0  0  0  0  0  0  0  0  0  0  0  0
  1  2  2  0  0  0  0
  1 22  1  0  0  0  0
  2 17  1  0  0  0  0
  2  3  1  0  0  0  0
  3  4  2  0  0  0  0
  4  5  1  0  0  0  0
  4 23  1  0  0  0  0
  5  6  1  0  0  0  0
  5 15  1  0  0  0  0
  6 18  1  0  0  0  0
  6 13  1  0  0  0  0
  6  7  1  0  0  0  0
  7  8  1  0  0  0  0
  8 19  1  0  0  0  0
  8  9  1  0  0  0  0
  8 11  1  0  0  0  0
  9 10  1  0  0  0  0
  9 24  1  0  0  0  0
  9 25  1  0  0  0  0
 10 26  1  0  0  0  0
 11 20  1  0  0  0  0
 11 12  1  0  0  0  0
 11 13  1  0  0  0  0
 12 27  1  0  0  0  0
 13 21  1  0  0  0  0
 13 14  1  0  0  0  0
 14 28  1  0  0  0  0
 15 16  2  0  0  0  0
 15 17  1  0  0  0  0
 17 29  1  0  0  0  0
M  END
> <s_m_source_file>
AV-unprocessed.smi

> <i_m_source_file_index>
72

> <i_lp_mmshare_version>
43012

> <i_f3d_flags>
0

> <s_epik_input>
W05IMl1jMW5bY0hdbihjKD1PKW4xKVtDQEBIXTJPW0NASF0oW0NIMl1bT0hdKVtDQEBIXShbT0hdKVtDQEhdMltPSF0=

> <s_epik_cmdline>
J2VwaWtfcHl0aG9uJywgJy1waCcsICc3LjAnLCAnLXRuJywgJzgnLCAnLW1hJywgJzIwMCcsICctbWV0YWxfYmluZGluZycsICctaW1hZScsICc8aW5maWxlLm1hZT4nLCAnLW9tYWUnLCAnPG91dGZpbGUubWFlPic=

> <r_lp_tautomer_probability>
7.17554e-07

> <r_epik_Ionization_Penalty>
0.0066451

> <r_epik_Ionization_Penalty_Charging>
0.00663793

> <r_epik_Ionization_Penalty_Neutral>
7.17052e-06

> <r_epik_State_Penalty>
0.419231

> <r_epik_Charging_Adjusted_Penalty>
0.425868

> <i_epik_Tot_Q>
0

> <i_epik_Tot_abs_Q>
0

> <r_epik_Metal_State_Penalty>
1.44144

> <b_epik_Metal_Only>
0

> <s_epik_Chemistry_Notes>
This compound contains an acetal/aminal-like group ( X-CH(R)-Y where X, Y are N, S, or O) that may be acid/base labile, releasing an aldehyde.

> <s_lp_Force_Field>
OPLS_2005

> <r_lp_Energy>
42.2993

> <b_lp_Chiralities_Consistent>
1

> <s_lp_Variant>
AV-unprocessed.smi:72-9

> <Gold.Version>
5.8.1

> <Gold.Id.Protein>
6NUR|6NUR_protein|mol2

> <Gold.PLP.Fitness>
40.9219

> <Gold.PLP.PLP>
-23.4059

> <Gold.PLP.part.hbond>
-7.0000

> <Gold.PLP.part.metal>
0.0000

> <Gold.PLP.part.buried>
-3.3817

> <Gold.PLP.part.nonpolar>
-13.0277

> <Gold.PLP.part.repulsive>
0.2677

> <Gold.PLP.ligand.clash>
0.0000

> <Gold.PLP.ligand.torsion>
0.5448

> <Gold.PLP.Chemscore.Hbond>
6.1664

> <Gold.PLP.Chemscore.CHOScore>
0.0000

> <Gold.PLP.Chemscore.Metal>
0.0000

> <Gold.Chemscore.Hbonds>
donor molecule, donor type, donor heavy atom, donor atom, acceptor molecule, acceptor atom, score
      L1  H     1    22       P1  8028  1.00
      L1  H    17    29       P1  8028  1.00
      P1  H  6896  6907       L1    12  1.00
      P1  H  7989  7998       L1     3  0.24
      P1  H  7997  8008       L1     7  1.00
      P1  H  8011  8017       L1     1  0.26
      P1  H 10752 10764       L1    10  0.25

> <Gold.PLP.Chemscore.Internal.Correction>
0.1065

> <Gold.Rescore>
     Score         DG    S(hbond)    S(metal)    S(lipo)     H(rot)  DE(clash)    DE(int)     intcor
     11.07     -11.78       4.41        0.00      16.78       4.06       0.00       0.71       ----

> <Gold.Chemscore.Fitness>
11.0688

> <Gold.Chemscore.DG>
-11.7819

> <Gold.Chemscore.ZeroCoef>
-5.4800

> <Gold.Chemscore.Hbond>
4.4110

> <Gold.Chemscore.Metal>
0.0000

> <Gold.Chemscore.Lipo>
16.7758

> <Gold.Chemscore.Internal_Hbond>
0.0000

> <Gold.Chemscore.DEClash>
0.0000

> <Gold.Chemscore.DEInternal>
0.7130

> <Gold.Chemscore.Rot>
4.0600

> <Gold.Chemscore.Internal.Correction>
   9.000000E+99

> <Gold.Chemscore.Hbonds>
donor molecule, donor type, donor heavy atom, donor atom, acceptor molecule, acceptor atom, score
      L1  H     1    22       P1  8028  0.99
      L1  H    17    29       P1  8028  0.98
      P1  H  6896  6907       L1    12  0.58
      P1  H  7997  8008       L1     7  0.91
      P1  H  8011  8017       L1     1  0.09

> <Gold.Chemscore.Hbond.Weighted>
-14.7327

> <Gold.Chemscore.Metal.Weighted>
-0.0000

> <Gold.Chemscore.Lipo.Weighted>
-1.9628

> <Gold.Chemscore.Internal_Hbond.Weighted>
0.0000

> <Gold.Chemscore.DEClash.Weighted>
0.0000

> <Gold.Chemscore.DEInternal.Weighted>
0.7130

> <Gold.Chemscore.Rot.Weighted>
10.3936

> <Gold.Chemscore.Internal.Correction.Weighted>
   9.000000E+99

> <Gold.Protein.RotatedTorsions>
[ 6907 6896 6895 6894 ] final   19.46 input  -60.11 | X-H torsion
[ 7974 7965 7964 7962 ] final -148.98 input  175.53 | X-H torsion
[ 8008 7997 7996 7995 ] final  -50.79 input   59.86 | X-H torsion
[ 10167 10162 10161 10158 ] final   -1.80 input  -65.29 | X-H torsion
[ 10718 10713 10712 10709 ] final -170.59 input   66.30 | X-H torsion
[ 10763 10752 10751 10750 ] final    7.21 input  -60.55 | X-H torsion
[ 11005 11000 10999 10996 ] final   -4.96 input  -57.11 | X-H torsion

> <Gold.Protein.ActiveResidues>
 VAL166  LYS551  ARG553  GLY616  TRP617  ASP618  TYR619  PRO620  LYS621  CYS622 
 ASP623  PHE694  ASN695  SER759  ASP760  ASP761  ALA762  ILE779  LEU786  VAL792 
 PHE793  MET794  SER795  GLU796  ALA797  LYS798  CYS799  TRP800  GLU811  SER814 

> <Gold.Protein.RotatedAtoms>
  151.8813  135.0452  160.0488 H   0  0  0  0  0  0  0  0  0  0  0  0  # atno 6907 bound_to 6896
  152.2511  133.5211  159.5334 H   0  0  0  0  0  0  0  0  0  0  0  0  # atno 6908 bound_to 6896
  150.7084  134.0876  159.3962 H   0  0  0  0  0  0  0  0  0  0  0  0  # atno 6909 bound_to 6896
  144.7996  140.5125  143.5716 H   0  0  0  0  0  0  0  0  0  0  0  0  # atno 7974 bound_to 7965
  154.4069  140.1264  156.4723 H   0  0  0  0  0  0  0  0  0  0  0  0  # atno 8008 bound_to 7997
  155.7167  140.3493  155.4978 H   0  0  0  0  0  0  0  0  0  0  0  0  # atno 8009 bound_to 7997
  155.9252  140.1059  157.1166 H   0  0  0  0  0  0  0  0  0  0  0  0  # atno 8010 bound_to 7997
  140.6825  143.6732  150.8167 H   0  0  0  0  0  0  0  0  0  0  0  0  # atno 10167 bound_to 10162
  156.7284  130.9297  151.3102 H   0  0  0  0  0  0  0  0  0  0  0  0  # atno 10718 bound_to 10713
  153.2389  135.6901  153.7805 H   0  0  0  0  0  0  0  0  0  0  0  0  # atno 10763 bound_to 10752
  153.6943  135.3308  155.3210 H   0  0  0  0  0  0  0  0  0  0  0  0  # atno 10764 bound_to 10752
  154.8347  135.4552  154.1303 H   0  0  0  0  0  0  0  0  0  0  0  0  # atno 10765 bound_to 10752
  140.6859  133.9113  155.8586 H   0  0  0  0  0  0  0  0  0  0  0  0  # atno 11005 bound_to 11000
  145.5587  139.1478  143.3353 LP  0  0  0  0  0  0  0  0  0  0  0  0  # atno 17320 bound_to 7965
  146.2273  140.5724  142.8990 LP  0  0  0  0  0  0  0  0  0  0  0  0  # atno 17321 bound_to 7965
  140.0434  143.5322  152.2707 LP  0  0  0  0  0  0  0  0  0  0  0  0  # atno 17342 bound_to 10162
  139.6158  144.7619  151.2850 LP  0  0  0  0  0  0  0  0  0  0  0  0  # atno 17343 bound_to 10162
  157.6869  130.9194  150.0410 LP  0  0  0  0  0  0  0  0  0  0  0  0  # atno 17370 bound_to 10713
  156.1546  130.3643  149.9388 LP  0  0  0  0  0  0  0  0  0  0  0  0  # atno 17371 bound_to 10713
  141.0280  134.0796  157.4046 LP  0  0  0  0  0  0  0  0  0  0  0  0  # atno 17394 bound_to 11000
  139.8937  135.0132  156.6915 LP  0  0  0  0  0  0  0  0  0  0  0  0  # atno 17395 bound_to 11000

$$$$
