AV-unprocessed.smi:2143|AV-procd|sdf|8722|dock3
  -GOLD-   2272011493D 1   1.00000     0.00000
 Structure written by MMmdl.
 44 45  0  0  0  0  0  0  0  0  1 V2000
  150.5517  144.9579  159.8582 C   0  0  0  0  0  0  0  0  0  0  0  0
  151.3610  143.6916  160.1910 C   0  0  2  0  0  0  0  0  0  0  0  0
  152.0969  143.8815  161.5339 C   0  0  0  0  0  0  0  0  0  0  0  0
  152.9113  142.6423  161.9287 C   0  0  0  0  0  0  0  0  0  0  0  0
  153.9060  142.2623  160.8222 C   0  0  0  0  0  0  0  0  0  0  0  0
  153.2062  142.0576  159.4660 C   0  0  1  0  0  0  0  0  0  0  0  0
  152.3936  140.8394  159.5057 N   0  0  0  0  0  0  0  0  0  0  0  0
  152.8252  139.5883  159.2842 C   0  0  0  0  0  0  0  0  0  0  0  0
  153.9916  139.3119  159.0010 O   0  0  0  0  0  0  0  0  0  0  0  0
  151.7561  138.4909  159.3728 C   0  0  0  0  0  0  0  0  0  0  0  0
  151.5156  137.8110  158.0936 N   0  0  0  0  0  0  0  0  0  0  0  0
  152.3241  138.0901  157.0071 C   0  0  0  0  0  0  0  0  0  0  0  0
  152.1803  137.4998  155.8005 C   0  0  0  0  0  0  0  0  0  0  0  0
  151.1352  136.5099  155.5702 C   0  0  0  0  0  0  0  0  0  0  0  0
  150.9786  135.9415  154.4890 O   0  0  0  0  0  0  0  0  0  0  0  0
  150.3173  136.2492  156.6962 N   0  0  0  0  0  0  0  0  0  0  0  0
  149.2541  135.2724  156.5829 C   0  0  0  0  0  0  0  0  0  0  0  0
  150.4799  136.8620  157.9583 C   0  0  0  0  0  0  0  0  0  0  0  0
  149.7521  136.5831  158.9147 O   0  0  0  0  0  0  0  0  0  0  0  0
  152.3619  143.2982  159.0684 C   0  0  1  0  0  0  0  0  0  0  0  0
  151.6867  143.1052  157.6953 C   0  0  0  0  0  0  0  0  0  0  0  0
  151.2066  145.8042  159.6486 H   0  0  0  0  0  0  0  0  0  0  0  0
  149.9051  145.2379  160.6902 H   0  0  0  0  0  0  0  0  0  0  0  0
  149.9055  144.8097  158.9934 H   0  0  0  0  0  0  0  0  0  0  0  0
  150.6477  142.8758  160.3156 H   0  0  0  0  0  0  0  0  0  0  0  0
  152.7616  144.7442  161.4693 H   0  0  0  0  0  0  0  0  0  0  0  0
  151.3798  144.1065  162.3241 H   0  0  0  0  0  0  0  0  0  0  0  0
  153.4480  142.8326  162.8586 H   0  0  0  0  0  0  0  0  0  0  0  0
  152.2379  141.8081  162.1285 H   0  0  0  0  0  0  0  0  0  0  0  0
  154.6508  143.0534  160.7252 H   0  0  0  0  0  0  0  0  0  0  0  0
  154.4552  141.3630  161.1042 H   0  0  0  0  0  0  0  0  0  0  0  0
  153.9944  141.9384  158.7205 H   0  0  0  0  0  0  0  0  0  0  0  0
  151.4153  140.9628  159.7227 H   0  0  0  0  0  0  0  0  0  0  0  0
  152.0388  137.7643  160.1368 H   0  0  0  0  0  0  0  0  0  0  0  0
  150.8311  138.9466  159.7289 H   0  0  0  0  0  0  0  0  0  0  0  0
  153.1167  138.8143  157.1281 H   0  0  0  0  0  0  0  0  0  0  0  0
  152.8502  137.7616  154.9948 H   0  0  0  0  0  0  0  0  0  0  0  0
  148.3398  135.7283  156.9682 H   0  0  0  0  0  0  0  0  0  0  0  0
  149.5513  134.4086  157.1799 H   0  0  0  0  0  0  0  0  0  0  0  0
  149.0933  134.9835  155.5448 H   0  0  0  0  0  0  0  0  0  0  0  0
  153.0617  144.1279  158.9547 H   0  0  0  0  0  0  0  0  0  0  0  0
  150.8704  142.3841  157.7451 H   0  0  0  0  0  0  0  0  0  0  0  0
  152.4029  142.7450  156.9561 H   0  0  0  0  0  0  0  0  0  0  0  0
  151.2805  144.0406  157.3118 H   0  0  0  0  0  0  0  0  0  0  0  0
  1  2  1  0  0  0  0
  1 22  1  0  0  0  0
  1 23  1  0  0  0  0
  1 24  1  0  0  0  0
  2 20  1  0  0  0  0
  2  3  1  0  0  0  0
  2 25  1  0  0  0  0
  3  4  1  0  0  0  0
  3 26  1  0  0  0  0
  3 27  1  0  0  0  0
  4  5  1  0  0  0  0
  4 28  1  0  0  0  0
  4 29  1  0  0  0  0
  5  6  1  0  0  0  0
  5 30  1  0  0  0  0
  5 31  1  0  0  0  0
  6  7  1  0  0  0  0
  6 20  1  0  0  0  0
  6 32  1  0  0  0  0
  7  8  1  0  0  0  0
  7 33  1  0  0  0  0
  8  9  2  0  0  0  0
  8 10  1  0  0  0  0
 10 11  1  0  0  0  0
 10 34  1  0  0  0  0
 10 35  1  0  0  0  0
 11 18  1  0  0  0  0
 11 12  1  0  0  0  0
 12 13  2  0  0  0  0
 12 36  1  0  0  0  0
 13 14  1  0  0  0  0
 13 37  1  0  0  0  0
 14 15  2  0  0  0  0
 14 16  1  0  0  0  0
 16 17  1  0  0  0  0
 16 18  1  0  0  0  0
 17 38  1  0  0  0  0
 17 39  1  0  0  0  0
 17 40  1  0  0  0  0
 18 19  2  0  0  0  0
 20 21  1  0  0  0  0
 20 41  1  0  0  0  0
 21 42  1  0  0  0  0
 21 43  1  0  0  0  0
 21 44  1  0  0  0  0
M  END
> <s_m_source_file>
AV-unprocessed.smi

> <i_m_source_file_index>
2143

> <i_lp_mmshare_version>
43012

> <i_f3d_flags>
0

> <s_epik_input>
W0NIM11bQ0BASF0xW0NIMl1bQ0gyXVtDSDJdW0NASF0oW0NASF0xW0NIM10pW05IXUMoPU8pW0NIMl1uMltjSF1bY0hdYyg9TyluKFtDSDNdKWMyPU8=

> <s_epik_cmdline>
J2VwaWtfcHl0aG9uJywgJy1waCcsICc3LjAnLCAnLXRuJywgJzgnLCAnLW1hJywgJzIwMCcsICctbWV0YWxfYmluZGluZycsICctaW1hZScsICc8aW5maWxlLm1hZT4nLCAnLW9tYWUnLCAnPG91dGZpbGUubWFlPic=

> <r_lp_tautomer_probability>
1

> <r_epik_Ionization_Penalty>
3.18445e-08

> <r_epik_Ionization_Penalty_Charging>
1.27977e-08

> <r_epik_Ionization_Penalty_Neutral>
1.90469e-08

> <r_epik_State_Penalty>
-0

> <r_epik_Charging_Adjusted_Penalty>
1.27977e-08

> <i_epik_Tot_Q>
0

> <i_epik_Tot_abs_Q>
0

> <r_epik_Metal_State_Penalty>
-0

> <b_epik_Metal_Only>
0

> <s_lp_Force_Field>
OPLS_2005

> <r_lp_Energy>
19.1403

> <b_lp_Chiralities_Consistent>
1

> <s_lp_Variant>
AV-unprocessed.smi:2143-1

> <Gold.Version>
5.8.1

> <Gold.Id.Protein>
6NUR|6NUR_protein|mol2

> <Gold.PLP.Fitness>
42.7587

> <Gold.PLP.PLP>
-35.1743

> <Gold.PLP.part.hbond>
-3.0000

> <Gold.PLP.part.metal>
0.0000

> <Gold.PLP.part.buried>
-4.6189

> <Gold.PLP.part.nonpolar>
-27.7405

> <Gold.PLP.part.repulsive>
0.9997

> <Gold.PLP.ligand.clash>
0.0000

> <Gold.PLP.ligand.torsion>
0.4137

> <Gold.PLP.Chemscore.Hbond>
2.8000

> <Gold.PLP.Chemscore.CHOScore>
0.0000

> <Gold.PLP.Chemscore.Metal>
0.0000

> <Gold.Chemscore.Hbonds>
donor molecule, donor type, donor heavy atom, donor atom, acceptor molecule, acceptor atom, score
      P1  H  6896  6909       L1    19  0.62
      P1  H  7997  8009       L1     9  0.84
      P1  H 10752 10764       L1    15  0.74

> <Gold.PLP.Chemscore.Internal.Correction>
0.0117

> <Gold.Rescore>
     Score         DG    S(hbond)    S(metal)    S(lipo)     H(rot)  DE(clash)    DE(int)     intcor
     18.63     -20.45       2.03        0.00     103.05       1.51       0.18       1.64       ----

> <Gold.Chemscore.Fitness>
18.6250

> <Gold.Chemscore.DG>
-20.4478

> <Gold.Chemscore.ZeroCoef>
-5.4800

> <Gold.Chemscore.Hbond>
2.0312

> <Gold.Chemscore.Metal>
0.0000

> <Gold.Chemscore.Lipo>
103.0508

> <Gold.Chemscore.Internal_Hbond>
0.0000

> <Gold.Chemscore.DEClash>
0.1791

> <Gold.Chemscore.DEInternal>
1.6437

> <Gold.Chemscore.Rot>
1.5131

> <Gold.Chemscore.Internal.Correction>
   9.000000E+99

> <Gold.Chemscore.Hbonds>
donor molecule, donor type, donor heavy atom, donor atom, acceptor molecule, acceptor atom, score
      P1  H  6896  6909       L1    19  0.14
      P1  H  7997  8009       L1     9  0.82
      P1  H 10752 10764       L1    15  0.08

> <Gold.Chemscore.Hbond.Weighted>
-6.7843

> <Gold.Chemscore.Metal.Weighted>
-0.0000

> <Gold.Chemscore.Lipo.Weighted>
-12.0569

> <Gold.Chemscore.Internal_Hbond.Weighted>
0.0000

> <Gold.Chemscore.DEClash.Weighted>
0.1791

> <Gold.Chemscore.DEInternal.Weighted>
1.6437

> <Gold.Chemscore.Rot.Weighted>
3.8734

> <Gold.Chemscore.Internal.Correction.Weighted>
   9.000000E+99

> <Gold.Protein.RotatedTorsions>
[ 6907 6896 6895 6894 ] final   72.87 input  -60.11 | X-H torsion
[ 7974 7965 7964 7962 ] final    7.56 input  175.53 | X-H torsion
[ 8008 7997 7996 7995 ] final  126.11 input   59.86 | X-H torsion
[ 10167 10162 10161 10158 ] final  -22.45 input  -65.29 | X-H torsion
[ 10718 10713 10712 10709 ] final  169.18 input   66.30 | X-H torsion
[ 10763 10752 10751 10750 ] final  -87.40 input  -60.55 | X-H torsion
[ 11005 11000 10999 10996 ] final    2.34 input  -57.11 | X-H torsion

> <Gold.Protein.ActiveResidues>
 VAL166  LYS551  ARG553  GLY616  TRP617  ASP618  TYR619  PRO620  LYS621  CYS622 
 ASP623  PHE694  ASN695  SER759  ASP760  ASP761  ALA762  ILE779  LEU786  VAL792 
 PHE793  MET794  SER795  GLU796  ALA797  LYS798  CYS799  TRP800  GLU811  SER814 

> <Gold.Protein.RotatedAtoms>
  152.4892  134.4507  159.9573 H   0  0  0  0  0  0  0  0  0  0  0  0  # atno 6907 bound_to 6896
  151.4497  133.3615  159.2801 H   0  0  0  0  0  0  0  0  0  0  0  0  # atno 6908 bound_to 6896
  150.9030  134.8467  159.7433 H   0  0  0  0  0  0  0  0  0  0  0  0  # atno 6909 bound_to 6896
  146.2425  140.0064  142.8411 H   0  0  0  0  0  0  0  0  0  0  0  0  # atno 7974 bound_to 7965
  156.2854  140.2700  156.2058 H   0  0  0  0  0  0  0  0  0  0  0  0  # atno 8008 bound_to 7997
  155.0315  140.0386  157.2494 H   0  0  0  0  0  0  0  0  0  0  0  0  # atno 8009 bound_to 7997
  154.7350  140.2714  155.6427 H   0  0  0  0  0  0  0  0  0  0  0  0  # atno 8010 bound_to 7997
  140.7286  143.4533  151.0484 H   0  0  0  0  0  0  0  0  0  0  0  0  # atno 10167 bound_to 10162
  157.0264  131.0247  151.2758 H   0  0  0  0  0  0  0  0  0  0  0  0  # atno 10718 bound_to 10713
  154.6332  135.5414  153.7704 H   0  0  0  0  0  0  0  0  0  0  0  0  # atno 10763 bound_to 10752
  153.0295  135.6441  154.1270 H   0  0  0  0  0  0  0  0  0  0  0  0  # atno 10764 bound_to 10752
  154.1199  135.2921  155.3191 H   0  0  0  0  0  0  0  0  0  0  0  0  # atno 10765 bound_to 10752
  140.6054  133.9798  155.8151 H   0  0  0  0  0  0  0  0  0  0  0  0  # atno 11005 bound_to 11000
  145.1368  140.9549  143.4512 LP  0  0  0  0  0  0  0  0  0  0  0  0  # atno 17320 bound_to 7965
  145.0334  139.3321  143.6013 LP  0  0  0  0  0  0  0  0  0  0  0  0  # atno 17321 bound_to 7965
  139.8212  143.7818  152.3177 LP  0  0  0  0  0  0  0  0  0  0  0  0  # atno 17342 bound_to 10162
  139.7901  144.7413  150.9967 LP  0  0  0  0  0  0  0  0  0  0  0  0  # atno 17343 bound_to 10162
  157.5211  130.7998  149.7810 LP  0  0  0  0  0  0  0  0  0  0  0  0  # atno 17370 bound_to 10713
  156.0084  130.3844  150.2348 LP  0  0  0  0  0  0  0  0  0  0  0  0  # atno 17371 bound_to 10713
  141.0844  134.0013  157.3336 LP  0  0  0  0  0  0  0  0  0  0  0  0  # atno 17394 bound_to 11000
  139.9215  135.0200  156.8080 LP  0  0  0  0  0  0  0  0  0  0  0  0  # atno 17395 bound_to 11000

$$$$
