AV-unprocessed.smi:2158|AV-procd|sdf|8788|dock5
  -GOLD-   2272011563D 1   1.00000     0.00000
 Structure written by MMmdl.
 31 31  0  0  0  0  0  0  0  0  1 V2000
  152.4119  143.6114  161.6001 C   0  0  0  0  0  0  0  0  0  0  0  0
  152.5009  143.1233  160.1468 C   0  0  0  0  0  0  0  0  0  0  0  0
  151.3978  143.6832  159.2261 C   0  0  1  0  0  0  0  0  0  0  0  0
  151.4914  145.2099  159.0970 C   0  0  0  0  0  0  0  0  0  0  0  0
  151.4768  143.0866  157.8934 N   0  0  0  0  0  0  0  0  0  0  0  0
  150.5642  142.2732  157.3382 C   0  0  0  0  0  0  0  0  0  0  0  0
  149.5386  141.9114  157.9171 O   0  0  0  0  0  0  0  0  0  0  0  0
  150.8821  141.7785  155.9196 C   0  0  0  0  0  0  0  0  0  0  0  0
  149.7201  141.1901  155.2371 N   0  0  0  0  0  0  0  0  0  0  0  0
  148.4680  141.7768  155.3549 C   0  0  0  0  0  0  0  0  0  0  0  0
  147.3583  141.2940  154.7475 C   0  0  0  0  0  0  0  0  0  0  0  0
  147.4328  140.0979  153.9153 C   0  0  0  0  0  0  0  0  0  0  0  0
  146.4845  139.5826  153.3276 O   0  0  0  0  0  0  0  0  0  0  0  0
  148.7101  139.5397  153.8178 N   0  0  0  0  0  0  0  0  0  0  0  0
  149.8581  140.0331  154.4397 C   0  0  0  0  0  0  0  0  0  0  0  0
  150.9385  139.4652  154.2836 O   0  0  0  0  0  0  0  0  0  0  0  0
  148.8125  138.7125  153.2479 H   0  0  0  0  0  0  0  0  0  0  0  0
  153.2528  143.2390  162.1851 H   0  0  0  0  0  0  0  0  0  0  0  0
  151.4985  143.2659  162.0846 H   0  0  0  0  0  0  0  0  0  0  0  0
  152.4275  144.7003  161.6511 H   0  0  0  0  0  0  0  0  0  0  0  0
  153.4745  143.4098  159.7476 H   0  0  0  0  0  0  0  0  0  0  0  0
  152.4781  142.0330  160.1311 H   0  0  0  0  0  0  0  0  0  0  0  0
  150.4305  143.4587  159.6789 H   0  0  0  0  0  0  0  0  0  0  0  0
  151.4029  145.6922  160.0710 H   0  0  0  0  0  0  0  0  0  0  0  0
  150.6931  145.6000  158.4646 H   0  0  0  0  0  0  0  0  0  0  0  0
  152.4425  145.5155  158.6600 H   0  0  0  0  0  0  0  0  0  0  0  0
  152.2919  143.3190  157.3444 H   0  0  0  0  0  0  0  0  0  0  0  0
  151.2888  142.6005  155.3268 H   0  0  0  0  0  0  0  0  0  0  0  0
  151.6886  141.0471  155.9884 H   0  0  0  0  0  0  0  0  0  0  0  0
  148.3662  142.6679  155.9581 H   0  0  0  0  0  0  0  0  0  0  0  0
  146.4104  141.7959  154.8774 H   0  0  0  0  0  0  0  0  0  0  0  0
  1  2  1  0  0  0  0
  1 18  1  0  0  0  0
  1 19  1  0  0  0  0
  1 20  1  0  0  0  0
  2  3  1  0  0  0  0
  2 21  1  0  0  0  0
  2 22  1  0  0  0  0
  3  4  1  0  0  0  0
  3  5  1  0  0  0  0
  3 23  1  0  0  0  0
  4 24  1  0  0  0  0
  4 25  1  0  0  0  0
  4 26  1  0  0  0  0
  5  6  1  0  0  0  0
  5 27  1  0  0  0  0
  6  7  2  0  0  0  0
  6  8  1  0  0  0  0
  8  9  1  0  0  0  0
  8 28  1  0  0  0  0
  8 29  1  0  0  0  0
  9 15  1  0  0  0  0
  9 10  1  0  0  0  0
 10 11  2  0  0  0  0
 10 30  1  0  0  0  0
 11 12  1  0  0  0  0
 11 31  1  0  0  0  0
 12 13  2  0  0  0  0
 12 14  1  0  0  0  0
 14 17  1  0  0  0  0
 14 15  1  0  0  0  0
 15 16  2  0  0  0  0
M  END
> <s_m_source_file>
AV-unprocessed.smi

> <i_m_source_file_index>
2158

> <i_lp_mmshare_version>
43012

> <i_f3d_flags>
0

> <s_epik_input>
W0NIM11bQ0gyXVtDQEhdKFtDSDNdKVtOSF1DKD1PKVtDSDJdbjFbY0hdW2NIXWMoPU8pW25IXWMxPU8=

> <s_epik_cmdline>
J2VwaWtfcHl0aG9uJywgJy1waCcsICc3LjAnLCAnLXRuJywgJzgnLCAnLW1hJywgJzIwMCcsICctbWV0YWxfYmluZGluZycsICctaW1hZScsICc8aW5maWxlLm1hZT4nLCAnLW9tYWUnLCAnPG91dGZpbGUubWFlPic=

> <r_lp_tautomer_probability>
0.999537

> <r_epik_Ionization_Penalty>
0.00326083

> <r_epik_Ionization_Penalty_Charging>
0.00326081

> <r_epik_Ionization_Penalty_Neutral>
1.93017e-08

> <r_epik_State_Penalty>
0.00230249

> <r_epik_Charging_Adjusted_Penalty>
0.0055633

> <i_epik_Tot_Q>
0

> <i_epik_Tot_abs_Q>
0

> <r_epik_Metal_State_Penalty>
0.364899

> <b_epik_Metal_Only>
0

> <s_lp_Force_Field>
OPLS_2005

> <r_lp_Energy>
2.92089

> <b_lp_Chiralities_Consistent>
1

> <s_lp_Variant>
AV-unprocessed.smi:2158-2

> <Gold.Version>
5.8.1

> <Gold.Id.Protein>
6NUR|6NUR_protein|mol2

> <Gold.PLP.Fitness>
35.9677

> <Gold.PLP.PLP>
-32.4527

> <Gold.PLP.part.hbond>
-2.0000

> <Gold.PLP.part.metal>
0.0000

> <Gold.PLP.part.buried>
-3.5685

> <Gold.PLP.part.nonpolar>
-27.3410

> <Gold.PLP.part.repulsive>
0.5499

> <Gold.PLP.ligand.clash>
0.0000

> <Gold.PLP.ligand.torsion>
0.5017

> <Gold.PLP.Chemscore.Hbond>
0.5000

> <Gold.PLP.Chemscore.CHOScore>
1.0000

> <Gold.PLP.Chemscore.Metal>
0.0000

> <Gold.Chemscore.Hbonds>
donor molecule, donor type, donor heavy atom, donor atom, acceptor molecule, acceptor atom, score
      P1  H  7989  7998       L1    16  0.60
      L1  C    10    30       P1  8028  1.00

> <Gold.PLP.Chemscore.Internal.Correction>
0.0183

> <Gold.Rescore>
     Score         DG    S(hbond)    S(metal)    S(lipo)     H(rot)  DE(clash)    DE(int)     intcor
      6.54      -8.23       0.00        0.00      66.98       1.99       0.09       1.60       ----

> <Gold.Chemscore.Fitness>
6.5406

> <Gold.Chemscore.DG>
-8.2269

> <Gold.Chemscore.ZeroCoef>
-5.4800

> <Gold.Chemscore.Hbond>
0.0018

> <Gold.Chemscore.Metal>
0.0000

> <Gold.Chemscore.Lipo>
66.9775

> <Gold.Chemscore.Internal_Hbond>
0.0000

> <Gold.Chemscore.DEClash>
0.0883

> <Gold.Chemscore.DEInternal>
1.5980

> <Gold.Chemscore.Rot>
1.9904

> <Gold.Chemscore.Internal.Correction>
   9.000000E+99

> <Gold.Chemscore.Hbonds>
donor molecule, donor type, donor heavy atom, donor atom, acceptor molecule, acceptor atom, score
      P1  H  7989  7998       L1    16  0.04

> <Gold.Chemscore.Hbond.Weighted>
-0.0060

> <Gold.Chemscore.Metal.Weighted>
-0.0000

> <Gold.Chemscore.Lipo.Weighted>
-7.8364

> <Gold.Chemscore.Internal_Hbond.Weighted>
0.0000

> <Gold.Chemscore.DEClash.Weighted>
0.0883

> <Gold.Chemscore.DEInternal.Weighted>
1.5980

> <Gold.Chemscore.Rot.Weighted>
5.0955

> <Gold.Chemscore.Internal.Correction.Weighted>
   9.000000E+99

> <Gold.Protein.RotatedTorsions>
[ 6907 6896 6895 6894 ] final -160.28 input  -60.11 | X-H torsion
[ 7974 7965 7964 7962 ] final  -26.91 input  175.53 | X-H torsion
[ 8008 7997 7996 7995 ] final  141.91 input   59.86 | X-H torsion
[ 10167 10162 10161 10158 ] final -100.01 input  -65.29 | X-H torsion
[ 10718 10713 10712 10709 ] final  154.89 input   66.30 | X-H torsion
[ 10763 10752 10751 10750 ] final -116.81 input  -60.55 | X-H torsion
[ 11005 11000 10999 10996 ] final  -47.08 input  -57.11 | X-H torsion

> <Gold.Protein.ActiveResidues>
 VAL166  LYS551  ARG553  GLY616  TRP617  ASP618  TYR619  PRO620  LYS621  CYS622 
 ASP623  PHE694  ASN695  SER759  ASP760  ASP761  ALA762  ILE779  LEU786  VAL792 
 PHE793  MET794  SER795  GLU796  ALA797  LYS798  CYS799  TRP800  GLU811  SER814 

> <Gold.Protein.RotatedAtoms>
  151.3467  133.3941  159.2676 H   0  0  0  0  0  0  0  0  0  0  0  0  # atno 6907 bound_to 6896
  150.9834  134.9185  159.7868 H   0  0  0  0  0  0  0  0  0  0  0  0  # atno 6908 bound_to 6896
  152.5224  134.3431  159.9276 H   0  0  0  0  0  0  0  0  0  0  0  0  # atno 6909 bound_to 6896
  146.1393  140.5083  142.8659 H   0  0  0  0  0  0  0  0  0  0  0  0  # atno 7974 bound_to 7965
  156.2958  140.2302  156.4642 H   0  0  0  0  0  0  0  0  0  0  0  0  # atno 8008 bound_to 7997
  154.7991  140.0449  157.1280 H   0  0  0  0  0  0  0  0  0  0  0  0  # atno 8009 bound_to 7997
  154.9554  140.3047  155.5059 H   0  0  0  0  0  0  0  0  0  0  0  0  # atno 8010 bound_to 7997
  140.2564  143.3437  152.0666 H   0  0  0  0  0  0  0  0  0  0  0  0  # atno 10167 bound_to 10162
  157.2256  131.0728  151.1885 H   0  0  0  0  0  0  0  0  0  0  0  0  # atno 10718 bound_to 10713
  154.8533  135.4332  154.1880 H   0  0  0  0  0  0  0  0  0  0  0  0  # atno 10763 bound_to 10752
  153.2955  135.6965  153.7258 H   0  0  0  0  0  0  0  0  0  0  0  0  # atno 10764 bound_to 10752
  153.6408  135.3468  155.3045 H   0  0  0  0  0  0  0  0  0  0  0  0  # atno 10765 bound_to 10752
  141.0619  133.6706  156.3247 H   0  0  0  0  0  0  0  0  0  0  0  0  # atno 11005 bound_to 11000
  144.7775  140.5770  143.6628 LP  0  0  0  0  0  0  0  0  0  0  0  0  # atno 17320 bound_to 7965
  145.5083  139.1480  143.3619 LP  0  0  0  0  0  0  0  0  0  0  0  0  # atno 17321 bound_to 7965
  139.5030  144.6746  151.6159 LP  0  0  0  0  0  0  0  0  0  0  0  0  # atno 17342 bound_to 10162
  140.6000  143.9627  150.6380 LP  0  0  0  0  0  0  0  0  0  0  0  0  # atno 17343 bound_to 10162
  157.3531  130.7092  149.6453 LP  0  0  0  0  0  0  0  0  0  0  0  0  # atno 17370 bound_to 10713
  155.9679  130.4247  150.4620 LP  0  0  0  0  0  0  0  0  0  0  0  0  # atno 17371 bound_to 10713
  140.5852  134.5706  157.5488 LP  0  0  0  0  0  0  0  0  0  0  0  0  # atno 17394 bound_to 11000
  139.9440  134.7735  156.0607 LP  0  0  0  0  0  0  0  0  0  0  0  0  # atno 17395 bound_to 11000

$$$$
