AV-unprocessed.smi:760|AV-procd|sdf|3629|dock9
  -GOLD-   22720 1 23D 1   1.00000     0.00000
 Structure written by MMmdl.
 43 44  0  0  0  0  0  0  0  0  1 V2000
  152.6004  141.1473  159.0171 C   0  0  0  0  0  0  0  0  0  0  0  0
  151.9209  142.2261  158.5948 C   0  0  0  0  0  0  0  0  0  0  0  0
  152.3458  143.6372  158.9598 C   0  0  0  0  0  0  0  0  0  0  0  0
  150.6648  142.0957  157.7457 C   0  0  0  0  0  0  0  0  0  0  0  0
  150.5302  140.8063  157.0633 N   0  0  0  0  0  0  0  0  0  0  0  0
  151.3973  140.6882  155.8865 C   0  0  0  0  0  0  0  0  0  0  0  0
  151.2527  139.2989  155.2403 C   0  0  0  0  0  0  0  0  0  0  0  0
  149.7970  139.0116  154.8469 C   0  0  0  0  0  0  0  0  0  0  0  0
  149.6781  137.6406  154.3599 N   0  0  0  0  0  0  0  0  0  0  0  0
  149.9348  136.5385  155.0785 C   0  0  0  0  0  0  0  0  0  0  0  0
  150.3031  136.5606  156.2531 O   0  0  0  0  0  0  0  0  0  0  0  0
  149.7397  135.4267  154.3507 N   0  0  0  0  0  0  0  0  0  0  0  0
  149.9153  134.0828  154.7668 C   0  0  0  0  0  0  0  0  0  0  0  0
  150.4836  133.6872  156.0057 C   0  0  0  0  0  0  0  0  0  0  0  0
  150.5190  132.3680  156.1174 N   0  0  0  0  0  0  0  0  0  0  0  0
  149.9778  131.9041  154.9646 N   0  0  0  0  0  0  0  0  0  0  0  0
  149.8651  130.4759  154.7596 C   0  0  0  0  0  0  0  0  0  0  0  0
  149.5979  132.9244  154.1154 C   0  0  0  0  0  0  0  0  0  0  0  0
  148.8955  139.2403  156.0712 C   0  0  0  0  0  0  0  0  0  0  0  0
  149.1283  140.6359  156.6739 C   0  0  0  0  0  0  0  0  0  0  0  0
  153.4859  141.2437  159.6283 H   0  0  0  0  0  0  0  0  0  0  0  0
  152.2794  140.1496  158.7555 H   0  0  0  0  0  0  0  0  0  0  0  0
  151.5722  144.1149  159.5614 H   0  0  0  0  0  0  0  0  0  0  0  0
  152.5076  144.2473  158.0721 H   0  0  0  0  0  0  0  0  0  0  0  0
  153.2696  143.6350  159.5395 H   0  0  0  0  0  0  0  0  0  0  0  0
  149.8043  142.2307  158.4028 H   0  0  0  0  0  0  0  0  0  0  0  0
  150.6351  142.9127  157.0229 H   0  0  0  0  0  0  0  0  0  0  0  0
  151.1596  141.4721  155.1658 H   0  0  0  0  0  0  0  0  0  0  0  0
  152.4398  140.8156  156.1747 H   0  0  0  0  0  0  0  0  0  0  0  0
  151.8963  139.2339  154.3622 H   0  0  0  0  0  0  0  0  0  0  0  0
  151.6071  138.5397  155.9396 H   0  0  0  0  0  0  0  0  0  0  0  0
  149.5097  139.7052  154.0540 H   0  0  0  0  0  0  0  0  0  0  0  0
  149.3796  137.5245  153.4028 H   0  0  0  0  0  0  0  0  0  0  0  0
  149.4352  135.5548  153.3968 H   0  0  0  0  0  0  0  0  0  0  0  0
  150.8639  134.2993  156.8102 H   0  0  0  0  0  0  0  0  0  0  0  0
  149.3387  130.2722  153.8266 H   0  0  0  0  0  0  0  0  0  0  0  0
  149.3108  130.0261  155.5841 H   0  0  0  0  0  0  0  0  0  0  0  0
  150.8595  130.0313  154.7105 H   0  0  0  0  0  0  0  0  0  0  0  0
  149.1487  132.7330  153.1521 H   0  0  0  0  0  0  0  0  0  0  0  0
  147.8468  139.1334  155.7925 H   0  0  0  0  0  0  0  0  0  0  0  0
  149.0933  138.4806  156.8292 H   0  0  0  0  0  0  0  0  0  0  0  0
  148.4876  140.7565  157.5484 H   0  0  0  0  0  0  0  0  0  0  0  0
  148.8410  141.4083  155.9586 H   0  0  0  0  0  0  0  0  0  0  0  0
  1  2  2  0  0  0  0
  1 21  1  0  0  0  0
  1 22  1  0  0  0  0
  2  3  1  0  0  0  0
  2  4  1  0  0  0  0
  3 23  1  0  0  0  0
  3 24  1  0  0  0  0
  3 25  1  0  0  0  0
  4  5  1  0  0  0  0
  4 26  1  0  0  0  0
  4 27  1  0  0  0  0
  5 20  1  0  0  0  0
  5  6  1  0  0  0  0
  6  7  1  0  0  0  0
  6 28  1  0  0  0  0
  6 29  1  0  0  0  0
  7  8  1  0  0  0  0
  7 30  1  0  0  0  0
  7 31  1  0  0  0  0
  8  9  1  0  0  0  0
  8 19  1  0  0  0  0
  8 32  1  0  0  0  0
  9 10  1  0  0  0  0
  9 33  1  0  0  0  0
 10 11  2  0  0  0  0
 10 12  1  0  0  0  0
 12 13  1  0  0  0  0
 12 34  1  0  0  0  0
 13 18  2  0  0  0  0
 13 14  1  0  0  0  0
 14 15  2  0  0  0  0
 14 35  1  0  0  0  0
 15 16  1  0  0  0  0
 16 17  1  0  0  0  0
 16 18  1  0  0  0  0
 17 36  1  0  0  0  0
 17 37  1  0  0  0  0
 17 38  1  0  0  0  0
 18 39  1  0  0  0  0
 19 20  1  0  0  0  0
 19 40  1  0  0  0  0
 19 41  1  0  0  0  0
 20 42  1  0  0  0  0
 20 43  1  0  0  0  0
M  END
> <s_m_source_file>
AV-unprocessed.smi

> <i_m_source_file_index>
760

> <i_lp_mmshare_version>
43012

> <i_f3d_flags>
0

> <s_epik_input>
W0NIMl09QyhbQ0gzXSlbQ0gyXU4xW0NIMl1bQ0gyXVtDSF0oW0NIMl1bQ0gyXTEpW05IXUMoPU8pW05IXWMyW2NIXW5uKFtDSDNdKVtjSF0y

> <s_epik_cmdline>
J2VwaWtfcHl0aG9uJywgJy1waCcsICc3LjAnLCAnLXRuJywgJzgnLCAnLW1hJywgJzIwMCcsICctbWV0YWxfYmluZGluZycsICctaW1hZScsICc8aW5maWxlLm1hZT4nLCAnLW9tYWUnLCAnPG91dGZpbGUubWFlPic=

> <r_lp_tautomer_probability>
1

> <r_epik_Ionization_Penalty>
2.03709

> <r_epik_Ionization_Penalty_Charging>
0

> <r_epik_Ionization_Penalty_Neutral>
2.03709

> <r_epik_State_Penalty>
2.16834

> <r_epik_Charging_Adjusted_Penalty>
2.16834

> <i_epik_Tot_Q>
0

> <i_epik_Tot_abs_Q>
0

> <r_epik_Metal_State_Penalty>
2.16831

> <b_epik_Metal_Only>
0

> <s_lp_Force_Field>
OPLS_2005

> <r_lp_Energy>
20.5491

> <b_lp_Chiralities_Consistent>
1

> <s_lp_Variant>
AV-unprocessed.smi:760-3

> <Gold.Version>
5.8.1

> <Gold.Id.Protein>
6NUR|6NUR_protein|mol2

> <Gold.PLP.Fitness>
38.7806

> <Gold.PLP.PLP>
-33.7498

> <Gold.PLP.part.hbond>
-2.1879

> <Gold.PLP.part.metal>
0.0000

> <Gold.PLP.part.buried>
-4.1117

> <Gold.PLP.part.nonpolar>
-28.1791

> <Gold.PLP.part.repulsive>
0.1000

> <Gold.PLP.ligand.clash>
0.0000

> <Gold.PLP.ligand.torsion>
0.4353

> <Gold.PLP.Chemscore.Hbond>
1.9600

> <Gold.PLP.Chemscore.CHOScore>
0.0000

> <Gold.PLP.Chemscore.Metal>
0.0000

> <Gold.Chemscore.Hbonds>
donor molecule, donor type, donor heavy atom, donor atom, acceptor molecule, acceptor atom, score
      L1  H     9    33       P1  7948  0.96
      L1  H    12    34       P1  7948  0.90

> <Gold.PLP.Chemscore.Internal.Correction>
0.0213

> <Gold.Rescore>
     Score         DG    S(hbond)    S(metal)    S(lipo)     H(rot)  DE(clash)    DE(int)     intcor
     14.44     -17.31       1.70        0.00      82.10       1.35       0.05       2.82       ----

> <Gold.Chemscore.Fitness>
14.4379

> <Gold.Chemscore.DG>
-17.3060

> <Gold.Chemscore.ZeroCoef>
-5.4800

> <Gold.Chemscore.Hbond>
1.6988

> <Gold.Chemscore.Metal>
0.0000

> <Gold.Chemscore.Lipo>
82.1017

> <Gold.Chemscore.Internal_Hbond>
0.0000

> <Gold.Chemscore.DEClash>
0.0456

> <Gold.Chemscore.DEInternal>
2.8225

> <Gold.Chemscore.Rot>
1.3491

> <Gold.Chemscore.Internal.Correction>
   9.000000E+99

> <Gold.Chemscore.Hbonds>
donor molecule, donor type, donor heavy atom, donor atom, acceptor molecule, acceptor atom, score
      L1  H     9    33       P1  7948  0.83
      L1  H    12    34       P1  7948  0.18

> <Gold.Chemscore.Hbond.Weighted>
-5.6739

> <Gold.Chemscore.Metal.Weighted>
-0.0000

> <Gold.Chemscore.Lipo.Weighted>
-9.6059

> <Gold.Chemscore.Internal_Hbond.Weighted>
0.0000

> <Gold.Chemscore.DEClash.Weighted>
0.0456

> <Gold.Chemscore.DEInternal.Weighted>
2.8225

> <Gold.Chemscore.Rot.Weighted>
3.4538

> <Gold.Chemscore.Internal.Correction.Weighted>
   9.000000E+99

> <Gold.Protein.RotatedTorsions>
[ 6907 6896 6895 6894 ] final    8.23 input  -60.11 | X-H torsion
[ 7974 7965 7964 7962 ] final  143.37 input  175.53 | X-H torsion
[ 8008 7997 7996 7995 ] final   17.35 input   59.86 | X-H torsion
[ 10167 10162 10161 10158 ] final   23.47 input  -65.29 | X-H torsion
[ 10718 10713 10712 10709 ] final   46.18 input   66.30 | X-H torsion
[ 10763 10752 10751 10750 ] final  -31.88 input  -60.55 | X-H torsion
[ 11005 11000 10999 10996 ] final   -8.62 input  -57.11 | X-H torsion

> <Gold.Protein.ActiveResidues>
 VAL166  LYS551  ARG553  GLY616  TRP617  ASP618  TYR619  PRO620  LYS621  CYS622 
 ASP623  PHE694  ASN695  SER759  ASP760  ASP761  ALA762  ILE779  LEU786  VAL792 
 PHE793  MET794  SER795  GLU796  ALA797  LYS798  CYS799  TRP800  GLU811  SER814 

> <Gold.Protein.RotatedAtoms>
  151.7027  135.0927  160.0253 H   0  0  0  0  0  0  0  0  0  0  0  0  # atno 6907 bound_to 6896
  152.3710  133.6415  159.6096 H   0  0  0  0  0  0  0  0  0  0  0  0  # atno 6908 bound_to 6896
  150.7673  133.9186  159.3432 H   0  0  0  0  0  0  0  0  0  0  0  0  # atno 6909 bound_to 6896
  144.8926  139.5536  143.5791 H   0  0  0  0  0  0  0  0  0  0  0  0  # atno 7974 bound_to 7965
  154.8901  140.2985  155.5375 H   0  0  0  0  0  0  0  0  0  0  0  0  # atno 8008 bound_to 7997
  156.3021  140.2426  156.3850 H   0  0  0  0  0  0  0  0  0  0  0  0  # atno 8009 bound_to 7997
  154.8627  140.0404  157.1664 H   0  0  0  0  0  0  0  0  0  0  0  0  # atno 8010 bound_to 7997
  140.5266  143.9912  150.6444 H   0  0  0  0  0  0  0  0  0  0  0  0  # atno 10167 bound_to 10162
  157.4454  130.8106  149.7735 H   0  0  0  0  0  0  0  0  0  0  0  0  # atno 10718 bound_to 10713
  153.8046  135.6887  153.4850 H   0  0  0  0  0  0  0  0  0  0  0  0  # atno 10763 bound_to 10752
  153.1667  135.4558  154.9845 H   0  0  0  0  0  0  0  0  0  0  0  0  # atno 10764 bound_to 10752
  154.7992  135.3331  154.7531 H   0  0  0  0  0  0  0  0  0  0  0  0  # atno 10765 bound_to 10752
  140.7255  133.8793  155.8853 H   0  0  0  0  0  0  0  0  0  0  0  0  # atno 11005 bound_to 11000
  146.3063  139.7591  142.9054 LP  0  0  0  0  0  0  0  0  0  0  0  0  # atno 17320 bound_to 7965
  145.3756  141.0350  143.3206 LP  0  0  0  0  0  0  0  0  0  0  0  0  # atno 17321 bound_to 7965
  140.3276  143.3098  152.0721 LP  0  0  0  0  0  0  0  0  0  0  0  0  # atno 17342 bound_to 10162
  139.4940  144.6531  151.6631 LP  0  0  0  0  0  0  0  0  0  0  0  0  # atno 17343 bound_to 10162
  155.9965  130.3905  150.2776 LP  0  0  0  0  0  0  0  0  0  0  0  0  # atno 17370 bound_to 10713
  157.0944  131.0178  151.3109 LP  0  0  0  0  0  0  0  0  0  0  0  0  # atno 17371 bound_to 10713
  140.9967  134.1206  157.4357 LP  0  0  0  0  0  0  0  0  0  0  0  0  # atno 17394 bound_to 11000
  139.8838  135.0056  156.6326 LP  0  0  0  0  0  0  0  0  0  0  0  0  # atno 17395 bound_to 11000

$$$$
