AV-unprocessed.smi:1190|AV-procd|sdf|4981|dock5
  -GOLD-   22720 3573D 1   1.00000     0.00000
 Structure written by MMmdl.
 43 44  0  0  0  0  0  0  0  0  1 V2000
  151.2662  141.3002  158.0342 C   0  0  0  0  0  0  0  0  0  0  0  0
  151.2449  141.2188  156.6133 O   0  0  0  0  0  0  0  0  0  0  0  0
  150.9034  140.0151  156.0314 C   0  0  0  0  0  0  0  0  0  0  0  0
  150.9150  138.8536  156.8286 C   0  0  0  0  0  0  0  0  0  0  0  0
  150.5710  137.6230  156.2386 C   0  0  0  0  0  0  0  0  0  0  0  0
  150.2346  137.5854  154.8706 C   0  0  0  0  0  0  0  0  0  0  0  0
  149.8779  136.3298  154.3080 N   0  0  0  0  0  0  0  0  0  0  0  0
  149.8446  135.1239  154.9006 C   0  0  0  0  0  0  0  0  0  0  0  0
  150.1061  134.9041  156.0828 O   0  0  0  0  0  0  0  0  0  0  0  0
  149.4718  134.1719  154.0330 N   0  0  0  0  0  0  0  0  0  0  0  0
  149.3249  132.7503  154.3383 C   0  0  0  0  0  0  0  0  0  0  0  0
  147.8755  132.2299  154.1221 C   0  0  1  0  0  0  0  0  0  0  0  0
  146.8876  133.1479  154.8866 C   0  0  0  0  0  0  0  0  0  0  0  0
  147.5188  132.0730  152.6919 N   0  0  0  0  0  0  0  0  0  0  0  0
  146.3397  131.2229  152.4877 C   0  0  0  0  0  0  0  0  0  0  0  0
  145.9513  131.0841  151.0054 C   0  0  0  0  0  0  0  0  0  0  0  0
  145.7266  132.3707  150.4464 O   0  0  0  0  0  0  0  0  0  0  0  0
  146.8734  133.2029  150.5499 C   0  0  0  0  0  0  0  0  0  0  0  0
  147.2692  133.3583  152.0284 C   0  0  0  0  0  0  0  0  0  0  0  0
  150.2388  138.8093  154.1576 C   0  0  0  0  0  0  0  0  0  0  0  0
  150.5662  139.9931  154.7183 N   0  0  0  0  0  0  0  0  0  0  0  0
  151.5439  142.3109  158.3330 H   0  0  0  0  0  0  0  0  0  0  0  0
  151.9998  140.6154  158.4621 H   0  0  0  0  0  0  0  0  0  0  0  0
  150.2852  141.0871  158.4614 H   0  0  0  0  0  0  0  0  0  0  0  0
  151.1829  138.9060  157.8735 H   0  0  0  0  0  0  0  0  0  0  0  0
  150.5711  136.7200  156.8314 H   0  0  0  0  0  0  0  0  0  0  0  0
  149.5624  136.3608  153.3497 H   0  0  0  0  0  0  0  0  0  0  0  0
  149.2746  134.4506  153.0831 H   0  0  0  0  0  0  0  0  0  0  0  0
  150.0291  132.1414  153.7684 H   0  0  0  0  0  0  0  0  0  0  0  0
  149.6227  132.6654  155.3815 H   0  0  0  0  0  0  0  0  0  0  0  0
  147.8193  131.2461  154.5907 H   0  0  0  0  0  0  0  0  0  0  0  0
  147.1660  133.2799  155.9310 H   0  0  0  0  0  0  0  0  0  0  0  0
  145.8785  132.7403  154.9170 H   0  0  0  0  0  0  0  0  0  0  0  0
  146.8393  134.1382  154.4327 H   0  0  0  0  0  0  0  0  0  0  0  0
  146.5208  130.2164  152.8593 H   0  0  0  0  0  0  0  0  0  0  0  0
  145.4931  131.6229  153.0479 H   0  0  0  0  0  0  0  0  0  0  0  0
  146.7335  130.5669  150.4477 H   0  0  0  0  0  0  0  0  0  0  0  0
  145.0426  130.4902  150.9067 H   0  0  0  0  0  0  0  0  0  0  0  0
  147.6957  132.7781  149.9720 H   0  0  0  0  0  0  0  0  0  0  0  0
  146.6462  134.1764  150.1152 H   0  0  0  0  0  0  0  0  0  0  0  0
  146.4845  133.9013  152.5574 H   0  0  0  0  0  0  0  0  0  0  0  0
  148.1594  133.9838  152.0532 H   0  0  0  0  0  0  0  0  0  0  0  0
  149.9572  138.8690  153.1182 H   0  0  0  0  0  0  0  0  0  0  0  0
  1  2  1  0  0  0  0
  1 22  1  0  0  0  0
  1 23  1  0  0  0  0
  1 24  1  0  0  0  0
  2  3  1  0  0  0  0
  3 21  1  0  0  0  0
  3  4  2  0  0  0  0
  4  5  1  0  0  0  0
  4 25  1  0  0  0  0
  5  6  2  0  0  0  0
  5 26  1  0  0  0  0
  6  7  1  0  0  0  0
  6 20  1  0  0  0  0
  7  8  1  0  0  0  0
  7 27  1  0  0  0  0
  8  9  2  0  0  0  0
  8 10  1  0  0  0  0
 10 11  1  0  0  0  0
 10 28  1  0  0  0  0
 11 12  1  0  0  0  0
 11 29  1  0  0  0  0
 11 30  1  0  0  0  0
 12 13  1  0  0  0  0
 12 14  1  0  0  0  0
 12 31  1  0  0  0  0
 13 32  1  0  0  0  0
 13 33  1  0  0  0  0
 13 34  1  0  0  0  0
 14 19  1  0  0  0  0
 14 15  1  0  0  0  0
 15 16  1  0  0  0  0
 15 35  1  0  0  0  0
 15 36  1  0  0  0  0
 16 17  1  0  0  0  0
 16 37  1  0  0  0  0
 16 38  1  0  0  0  0
 17 18  1  0  0  0  0
 18 19  1  0  0  0  0
 18 39  1  0  0  0  0
 18 40  1  0  0  0  0
 19 41  1  0  0  0  0
 19 42  1  0  0  0  0
 20 21  2  0  0  0  0
 20 43  1  0  0  0  0
M  END
> <s_m_source_file>
AV-unprocessed.smi

> <i_m_source_file_index>
1190

> <i_lp_mmshare_version>
43012

> <i_f3d_flags>
0

> <s_epik_input>
W0NIM11PYzFbY0hdW2NIXWMoW2NIXW4xKVtOSF1DKD1PKVtOSF1bQ0gyXVtDQEhdKFtDSDNdKU4yW0NIMl1bQ0gyXU9bQ0gyXVtDSDJdMg==

> <s_epik_cmdline>
J2VwaWtfcHl0aG9uJywgJy1waCcsICc3LjAnLCAnLXRuJywgJzgnLCAnLW1hJywgJzIwMCcsICctbWV0YWxfYmluZGluZycsICctaW1hZScsICc8aW5maWxlLm1hZT4nLCAnLW9tYWUnLCAnPG91dGZpbGUubWFlPic=

> <r_lp_tautomer_probability>
1

> <r_epik_Ionization_Penalty>
0.266084

> <r_epik_Ionization_Penalty_Charging>
0

> <r_epik_Ionization_Penalty_Neutral>
0.266084

> <r_epik_State_Penalty>
0.257924

> <r_epik_Charging_Adjusted_Penalty>
0.257924

> <i_epik_Tot_Q>
0

> <i_epik_Tot_abs_Q>
0

> <r_epik_Metal_State_Penalty>
0.257922

> <b_epik_Metal_Only>
0

> <s_lp_Force_Field>
OPLS_2005

> <r_lp_Energy>
31.4194

> <b_lp_Chiralities_Consistent>
1

> <s_lp_Variant>
AV-unprocessed.smi:1190-2

> <Gold.Version>
5.8.1

> <Gold.Id.Protein>
6NUR|6NUR_protein|mol2

> <Gold.PLP.Fitness>
38.6255

> <Gold.PLP.PLP>
-29.9648

> <Gold.PLP.part.hbond>
-3.9976

> <Gold.PLP.part.metal>
0.0000

> <Gold.PLP.part.buried>
-3.7932

> <Gold.PLP.part.nonpolar>
-22.8666

> <Gold.PLP.part.repulsive>
0.4513

> <Gold.PLP.ligand.clash>
0.0000

> <Gold.PLP.ligand.torsion>
0.4585

> <Gold.PLP.Chemscore.Hbond>
2.1720

> <Gold.PLP.Chemscore.CHOScore>
1.0000

> <Gold.PLP.Chemscore.Metal>
0.0000

> <Gold.Chemscore.Hbonds>
donor molecule, donor type, donor heavy atom, donor atom, acceptor molecule, acceptor atom, score
      L1  H     7    27       P1  7948  1.00
      L1  H    10    28       P1  7948  0.16
      P1  H  7989  7998       L1    21  1.00
      L1  C    20    43       P1  7957  1.00

> <Gold.PLP.Chemscore.Internal.Correction>
0.0617

> <Gold.Rescore>
     Score         DG    S(hbond)    S(metal)    S(lipo)     H(rot)  DE(clash)    DE(int)     intcor
     12.59     -14.62       1.84        0.00      63.39       1.73       0.07       1.97       ----

> <Gold.Chemscore.Fitness>
12.5852

> <Gold.Chemscore.DG>
-14.6196

> <Gold.Chemscore.ZeroCoef>
-5.4800

> <Gold.Chemscore.Hbond>
1.8413

> <Gold.Chemscore.Metal>
0.0000

> <Gold.Chemscore.Lipo>
63.3889

> <Gold.Chemscore.Internal_Hbond>
0.0000

> <Gold.Chemscore.DEClash>
0.0686

> <Gold.Chemscore.DEInternal>
1.9657

> <Gold.Chemscore.Rot>
1.7292

> <Gold.Chemscore.Internal.Correction>
   9.000000E+99

> <Gold.Chemscore.Hbonds>
donor molecule, donor type, donor heavy atom, donor atom, acceptor molecule, acceptor atom, score
      L1  H     7    27       P1  7948  0.49
      P1  H  7989  7998       L1    21  0.54

> <Gold.Chemscore.Hbond.Weighted>
-6.1499

> <Gold.Chemscore.Metal.Weighted>
-0.0000

> <Gold.Chemscore.Lipo.Weighted>
-7.4165

> <Gold.Chemscore.Internal_Hbond.Weighted>
0.0000

> <Gold.Chemscore.DEClash.Weighted>
0.0686

> <Gold.Chemscore.DEInternal.Weighted>
1.9657

> <Gold.Chemscore.Rot.Weighted>
4.4268

> <Gold.Chemscore.Internal.Correction.Weighted>
   9.000000E+99

> <Gold.Protein.RotatedTorsions>
[ 6907 6896 6895 6894 ] final   64.75 input  -60.11 | X-H torsion
[ 7974 7965 7964 7962 ] final  144.54 input  175.53 | X-H torsion
[ 8008 7997 7996 7995 ] final -125.99 input   59.86 | X-H torsion
[ 10167 10162 10161 10158 ] final   84.40 input  -65.29 | X-H torsion
[ 10718 10713 10712 10709 ] final -110.36 input   66.30 | X-H torsion
[ 10763 10752 10751 10750 ] final   31.69 input  -60.55 | X-H torsion
[ 11005 11000 10999 10996 ] final  130.31 input  -57.11 | X-H torsion

> <Gold.Protein.ActiveResidues>
 VAL166  LYS551  ARG553  GLY616  TRP617  ASP618  TYR619  PRO620  LYS621  CYS622 
 ASP623  PHE694  ASN695  SER759  ASP760  ASP761  ALA762  ILE779  LEU786  VAL792 
 PHE793  MET794  SER795  GLU796  ALA797  LYS798  CYS799  TRP800  GLU811  SER814 

> <Gold.Protein.RotatedAtoms>
  152.4356  134.5693  159.9916 H   0  0  0  0  0  0  0  0  0  0  0  0  # atno 6907 bound_to 6896
  151.5805  133.3372  159.3015 H   0  0  0  0  0  0  0  0  0  0  0  0  # atno 6908 bound_to 6896
  150.8254  134.7517  159.6872 H   0  0  0  0  0  0  0  0  0  0  0  0  # atno 6909 bound_to 6896
  144.8827  139.5675  143.5835 H   0  0  0  0  0  0  0  0  0  0  0  0  # atno 7974 bound_to 7965
  155.2223  140.0422  157.2950 H   0  0  0  0  0  0  0  0  0  0  0  0  # atno 8008 bound_to 7997
  154.5942  140.2435  155.7850 H   0  0  0  0  0  0  0  0  0  0  0  0  # atno 8009 bound_to 7997
  156.2279  140.2948  156.0122 H   0  0  0  0  0  0  0  0  0  0  0  0  # atno 8010 bound_to 7997
  139.9084  144.6287  150.8563 H   0  0  0  0  0  0  0  0  0  0  0  0  # atno 10167 bound_to 10162
  156.0587  130.5811  150.8227 H   0  0  0  0  0  0  0  0  0  0  0  0  # atno 10718 bound_to 10713
  153.0302  135.6432  154.1238 H   0  0  0  0  0  0  0  0  0  0  0  0  # atno 10763 bound_to 10752
  154.0962  135.2863  155.3263 H   0  0  0  0  0  0  0  0  0  0  0  0  # atno 10764 bound_to 10752
  154.6431  135.5453  153.7875 H   0  0  0  0  0  0  0  0  0  0  0  0  # atno 10765 bound_to 10752
  139.9664  134.9589  156.9274 H   0  0  0  0  0  0  0  0  0  0  0  0  # atno 11005 bound_to 11000
  146.3004  139.7410  142.9095 LP  0  0  0  0  0  0  0  0  0  0  0  0  # atno 17320 bound_to 7965
  145.3925  141.0374  143.3116 LP  0  0  0  0  0  0  0  0  0  0  0  0  # atno 17321 bound_to 7965
  140.7691  143.3384  151.2260 LP  0  0  0  0  0  0  0  0  0  0  0  0  # atno 17342 bound_to 10162
  139.6964  143.9606  152.2884 LP  0  0  0  0  0  0  0  0  0  0  0  0  # atno 17343 bound_to 10162
  157.5578  131.0945  150.9603 LP  0  0  0  0  0  0  0  0  0  0  0  0  # atno 17370 bound_to 10713
  156.9848  130.5541  149.5299 LP  0  0  0  0  0  0  0  0  0  0  0  0  # atno 17371 bound_to 10713
  140.5386  134.0742  155.7335 LP  0  0  0  0  0  0  0  0  0  0  0  0  # atno 17394 bound_to 11000
  141.1344  133.9247  157.2466 LP  0  0  0  0  0  0  0  0  0  0  0  0  # atno 17395 bound_to 11000

$$$$
