AV-unprocessed.smi:1920|AV-procd|sdf|7784|dock7
  -GOLD-   22720 9533D 1   1.00000     0.00000
 Structure written by MMmdl.
 36 37  0  0  0  0  0  0  0  0  1 V2000
  146.8755  142.1944  154.6545 C   0  0  0  0  0  0  0  0  0  0  0  0
  148.0393  141.4177  155.2848 C   0  0  1  0  0  0  0  0  0  0  0  0
  149.0723  140.9898  154.2225 C   0  0  0  0  0  0  0  0  0  0  0  0
  150.0097  139.9981  154.7186 N   0  0  0  0  0  0  0  0  0  0  0  0
  150.8114  140.0919  155.8487 C   0  0  0  0  0  0  0  0  0  0  0  0
  151.5274  138.9185  155.9211 C   0  0  0  0  0  0  0  0  0  0  0  0
  151.1785  138.0894  154.8575 N   0  0  0  0  0  0  0  0  0  0  0  0
  150.2748  138.7954  154.1902 C   0  0  0  0  0  0  0  0  0  0  0  0
  148.6713  142.2505  156.3074 N   0  0  0  0  0  0  0  0  0  0  0  0
  148.9359  141.8798  157.5704 C   0  0  0  0  0  0  0  0  0  0  0  0
  148.6367  140.7783  158.0321 O   0  0  0  0  0  0  0  0  0  0  0  0
  149.6580  142.9149  158.4410 C   0  0  0  0  0  0  0  0  0  0  0  0
  151.1890  142.7174  158.5171 C   0  0  1  0  0  0  0  0  0  0  0  0
  151.9034  143.8087  159.2777 C   0  0  0  0  0  0  0  0  0  0  0  0
  152.6409  143.3412  160.2815 C   0  0  0  0  0  0  0  0  0  0  0  0
  152.5716  141.8441  160.3981 C   0  0  0  0  0  0  0  0  0  0  0  0
  151.5967  141.4267  159.2739 C   0  0  0  0  0  0  0  0  0  0  0  0
  146.3653  141.5925  153.9020 H   0  0  0  0  0  0  0  0  0  0  0  0
  147.2218  143.1083  154.1704 H   0  0  0  0  0  0  0  0  0  0  0  0
  146.1369  142.4743  155.4066 H   0  0  0  0  0  0  0  0  0  0  0  0
  147.6169  140.5191  155.7378 H   0  0  0  0  0  0  0  0  0  0  0  0
  148.5648  140.5637  153.3562 H   0  0  0  0  0  0  0  0  0  0  0  0
  149.6315  141.8549  153.8622 H   0  0  0  0  0  0  0  0  0  0  0  0
  150.8101  140.9634  156.4867 H   0  0  0  0  0  0  0  0  0  0  0  0
  152.2598  138.6089  156.6519 H   0  0  0  0  0  0  0  0  0  0  0  0
  149.7977  138.4294  153.2927 H   0  0  0  0  0  0  0  0  0  0  0  0
  148.9529  143.1776  156.0235 H   0  0  0  0  0  0  0  0  0  0  0  0
  149.4403  143.9150  158.0623 H   0  0  0  0  0  0  0  0  0  0  0  0
  149.2329  142.8663  159.4439 H   0  0  0  0  0  0  0  0  0  0  0  0
  151.6068  142.6904  157.5096 H   0  0  0  0  0  0  0  0  0  0  0  0
  151.8220  144.8500  159.0041 H   0  0  0  0  0  0  0  0  0  0  0  0
  153.2405  143.9446  160.9471 H   0  0  0  0  0  0  0  0  0  0  0  0
  153.5622  141.4107  160.2560 H   0  0  0  0  0  0  0  0  0  0  0  0
  152.2021  141.5561  161.3826 H   0  0  0  0  0  0  0  0  0  0  0  0
  150.7273  140.9262  159.7019 H   0  0  0  0  0  0  0  0  0  0  0  0
  152.0687  140.7143  158.5962 H   0  0  0  0  0  0  0  0  0  0  0  0
  1  2  1  0  0  0  0
  1 18  1  0  0  0  0
  1 19  1  0  0  0  0
  1 20  1  0  0  0  0
  2  3  1  0  0  0  0
  2  9  1  0  0  0  0
  2 21  1  0  0  0  0
  3  4  1  0  0  0  0
  3 22  1  0  0  0  0
  3 23  1  0  0  0  0
  4  8  1  0  0  0  0
  4  5  1  0  0  0  0
  5  6  2  0  0  0  0
  5 24  1  0  0  0  0
  6  7  1  0  0  0  0
  6 25  1  0  0  0  0
  7  8  2  0  0  0  0
  8 26  1  0  0  0  0
  9 10  1  0  0  0  0
  9 27  1  0  0  0  0
 10 11  2  0  0  0  0
 10 12  1  0  0  0  0
 12 13  1  0  0  0  0
 12 28  1  0  0  0  0
 12 29  1  0  0  0  0
 13 17  1  0  0  0  0
 13 14  1  0  0  0  0
 13 30  1  0  0  0  0
 14 15  2  0  0  0  0
 14 31  1  0  0  0  0
 15 16  1  0  0  0  0
 15 32  1  0  0  0  0
 16 17  1  0  0  0  0
 16 33  1  0  0  0  0
 16 34  1  0  0  0  0
 17 35  1  0  0  0  0
 17 36  1  0  0  0  0
M  END
> <s_m_source_file>
AV-unprocessed.smi

> <i_m_source_file_index>
1920

> <i_lp_mmshare_version>
43012

> <i_f3d_flags>
0

> <s_epik_input>
W2NIXTFuW2NIXVtjSF1uMVtDSDJdW0NAQEhdKFtDSDNdKVtOSF1DKD1PKVtDSDJdW0NAQEhdMltDSF09W0NIXVtDSDJdW0NIMl0y

> <s_epik_cmdline>
J2VwaWtfcHl0aG9uJywgJy1waCcsICc3LjAnLCAnLXRuJywgJzgnLCAnLW1hJywgJzIwMCcsICctbWV0YWxfYmluZGluZycsICctaW1hZScsICc8aW5maWxlLm1hZT4nLCAnLW9tYWUnLCAnPG91dGZpbGUubWFlPic=

> <r_lp_tautomer_probability>
1

> <r_epik_Ionization_Penalty>
0.635367

> <r_epik_Ionization_Penalty_Charging>
0.635367

> <r_epik_Ionization_Penalty_Neutral>
2.1249e-08

> <r_epik_State_Penalty>
0.65258

> <r_epik_Charging_Adjusted_Penalty>
1.28795

> <i_epik_Tot_Q>
0

> <i_epik_Tot_abs_Q>
0

> <r_epik_Metal_State_Penalty>
0.310403

> <b_epik_Metal_Only>
0

> <s_lp_Force_Field>
OPLS_2005

> <r_lp_Energy>
18.2419

> <b_lp_Chiralities_Consistent>
1

> <s_lp_Variant>
AV-unprocessed.smi:1920-8

> <Gold.Version>
5.8.1

> <Gold.Id.Protein>
6NUR|6NUR_protein|mol2

> <Gold.PLP.Fitness>
43.8281

> <Gold.PLP.PLP>
-37.4326

> <Gold.PLP.part.hbond>
-0.9403

> <Gold.PLP.part.metal>
0.0000

> <Gold.PLP.part.buried>
-0.9896

> <Gold.PLP.part.nonpolar>
-35.1418

> <Gold.PLP.part.repulsive>
0.2418

> <Gold.PLP.ligand.clash>
0.0000

> <Gold.PLP.ligand.torsion>
0.5607

> <Gold.PLP.Chemscore.Hbond>
1.0000

> <Gold.PLP.Chemscore.CHOScore>
1.4962

> <Gold.PLP.Chemscore.Metal>
0.0000

> <Gold.Chemscore.Hbonds>
donor molecule, donor type, donor heavy atom, donor atom, acceptor molecule, acceptor atom, score
      L1  H     9    27       P1  8028  1.00
      L1  C     8    26       P1  7948  0.54
      L1  C     8    26       P1  7957  0.53

> <Gold.PLP.Chemscore.Internal.Correction>
0.0283

> <Gold.Rescore>
     Score         DG    S(hbond)    S(metal)    S(lipo)     H(rot)  DE(clash)    DE(int)     intcor
     14.65     -15.07       0.99        0.00      95.85       1.93       0.09       0.33       ----

> <Gold.Chemscore.Fitness>
14.6507

> <Gold.Chemscore.DG>
-15.0700

> <Gold.Chemscore.ZeroCoef>
-5.4800

> <Gold.Chemscore.Hbond>
0.9934

> <Gold.Chemscore.Metal>
0.0000

> <Gold.Chemscore.Lipo>
95.8494

> <Gold.Chemscore.Internal_Hbond>
0.0000

> <Gold.Chemscore.DEClash>
0.0939

> <Gold.Chemscore.DEInternal>
0.3254

> <Gold.Chemscore.Rot>
1.9306

> <Gold.Chemscore.Internal.Correction>
   9.000000E+99

> <Gold.Chemscore.Hbonds>
donor molecule, donor type, donor heavy atom, donor atom, acceptor molecule, acceptor atom, score
      L1  H     9    27       P1  8028  0.97

> <Gold.Chemscore.Hbond.Weighted>
-3.3181

> <Gold.Chemscore.Metal.Weighted>
-0.0000

> <Gold.Chemscore.Lipo.Weighted>
-11.2144

> <Gold.Chemscore.Internal_Hbond.Weighted>
0.0000

> <Gold.Chemscore.DEClash.Weighted>
0.0939

> <Gold.Chemscore.DEInternal.Weighted>
0.3254

> <Gold.Chemscore.Rot.Weighted>
4.9424

> <Gold.Chemscore.Internal.Correction.Weighted>
   9.000000E+99

> <Gold.Protein.RotatedTorsions>
[ 6907 6896 6895 6894 ] final   95.22 input  -60.11 | X-H torsion
[ 7974 7965 7964 7962 ] final  -66.98 input  175.53 | X-H torsion
[ 8008 7997 7996 7995 ] final -131.93 input   59.86 | X-H torsion
[ 10167 10162 10161 10158 ] final -148.19 input  -65.29 | X-H torsion
[ 10718 10713 10712 10709 ] final -148.96 input   66.30 | X-H torsion
[ 10763 10752 10751 10750 ] final  116.15 input  -60.55 | X-H torsion
[ 11005 11000 10999 10996 ] final   12.68 input  -57.11 | X-H torsion

> <Gold.Protein.ActiveResidues>
 VAL166  LYS551  ARG553  GLY616  TRP617  ASP618  TYR619  PRO620  LYS621  CYS622 
 ASP623  PHE694  ASN695  SER759  ASP760  ASP761  ALA762  ILE779  LEU786  VAL792 
 PHE793  MET794  SER795  GLU796  ALA797  LYS798  CYS799  TRP800  GLU811  SER814 

> <Gold.Protein.RotatedAtoms>
  152.5445  134.1073  159.8342 H   0  0  0  0  0  0  0  0  0  0  0  0  # atno 6907 bound_to 6896
  151.1143  133.5142  159.2612 H   0  0  0  0  0  0  0  0  0  0  0  0  # atno 6908 bound_to 6896
  151.1849  135.0387  159.8862 H   0  0  0  0  0  0  0  0  0  0  0  0  # atno 6909 bound_to 6896
  145.7349  140.8980  143.0560 H   0  0  0  0  0  0  0  0  0  0  0  0  # atno 7974 bound_to 7965
  155.3205  140.0462  157.3039 H   0  0  0  0  0  0  0  0  0  0  0  0  # atno 8008 bound_to 7997
  154.5382  140.2279  155.8652 H   0  0  0  0  0  0  0  0  0  0  0  0  # atno 8009 bound_to 7997
  156.1856  140.3063  155.9238 H   0  0  0  0  0  0  0  0  0  0  0  0  # atno 8010 bound_to 7997
  139.7554  143.8456  152.2596 H   0  0  0  0  0  0  0  0  0  0  0  0  # atno 10167 bound_to 10162
  156.4270  130.8056  151.2282 H   0  0  0  0  0  0  0  0  0  0  0  0  # atno 10718 bound_to 10713
  153.5328  135.3574  155.2683 H   0  0  0  0  0  0  0  0  0  0  0  0  # atno 10763 bound_to 10752
  154.8725  135.4072  154.3132 H   0  0  0  0  0  0  0  0  0  0  0  0  # atno 10764 bound_to 10752
  153.3824  135.7068  153.6623 H   0  0  0  0  0  0  0  0  0  0  0  0  # atno 10765 bound_to 10752
  140.4893  134.0857  155.7767 H   0  0  0  0  0  0  0  0  0  0  0  0  # atno 11005 bound_to 11000
  144.6884  139.9382  143.7474 LP  0  0  0  0  0  0  0  0  0  0  0  0  # atno 17320 bound_to 7965
  146.0502  139.3504  143.0644 LP  0  0  0  0  0  0  0  0  0  0  0  0  # atno 17321 bound_to 7965
  139.8446  144.7193  150.9288 LP  0  0  0  0  0  0  0  0  0  0  0  0  # atno 17342 bound_to 10162
  140.7802  143.3952  151.1241 LP  0  0  0  0  0  0  0  0  0  0  0  0  # atno 17343 bound_to 10162
  157.7508  131.0210  150.3733 LP  0  0  0  0  0  0  0  0  0  0  0  0  # atno 17370 bound_to 10713
  156.4062  130.3925  149.6924 LP  0  0  0  0  0  0  0  0  0  0  0  0  # atno 17371 bound_to 10713
  141.1492  133.8999  157.2140 LP  0  0  0  0  0  0  0  0  0  0  0  0  # atno 17394 bound_to 11000
  139.9779  135.0108  156.9677 LP  0  0  0  0  0  0  0  0  0  0  0  0  # atno 17395 bound_to 11000

$$$$
