AV-unprocessed.smi:1100|AV-procd|sdf|4759|dock4
  -GOLD-   22720 3293D 1   1.00000     0.00000
 Structure written by MMmdl.
 43 44  0  0  0  0  0  0  0  0  1 V2000
  149.6414  136.4416  157.6107 C   0  0  0  0  0  0  0  0  0  0  0  0
  148.8523  136.5014  156.2777 C   0  0  2  0  0  0  0  0  0  0  0  0
  148.7846  135.0695  155.6703 C   0  0  0  0  0  0  0  0  0  0  0  0
  148.2550  135.0374  154.3094 N   0  0  0  0  0  0  0  0  0  0  0  0
  147.2503  134.2541  153.8917 C   0  0  0  0  0  0  0  0  0  0  0  0
  146.6533  133.4744  154.6331 O   0  0  0  0  0  0  0  0  0  0  0  0
  147.0017  134.4494  152.5838 N   0  0  0  0  0  0  0  0  0  0  0  0
  146.0654  133.8132  151.7567 C   0  0  0  0  0  0  0  0  0  0  0  0
  144.6199  133.8631  151.9245 C   0  0  0  0  0  0  0  0  0  0  0  0
  143.8028  133.2129  151.0721 C   0  0  0  0  0  0  0  0  0  0  0  0
  144.3252  132.4324  149.9478 C   0  0  0  0  0  0  0  0  0  0  0  0
  143.5881  131.8425  149.1574 O   0  0  0  0  0  0  0  0  0  0  0  0
  145.6842  132.3997  149.8352 N   0  0  0  0  0  0  0  0  0  0  0  0
  146.3074  131.6417  148.7475 C   0  0  0  0  0  0  0  0  0  0  0  0
  146.5316  133.0815  150.7284 C   0  0  0  0  0  0  0  0  0  0  0  0
  149.3912  137.5106  155.3363 N   0  0  0  0  0  0  0  0  0  0  0  0
  149.1486  138.8880  155.7821 C   0  0  0  0  0  0  0  0  0  0  0  0
  149.7353  139.9392  154.8242 C   0  0  0  0  0  0  0  0  0  0  0  0
  151.1293  139.7171  154.6625 O   0  0  0  0  0  0  0  0  0  0  0  0
  151.4063  138.4187  154.1568 C   0  0  0  0  0  0  0  0  0  0  0  0
  150.8337  137.3577  155.1124 C   0  0  0  0  0  0  0  0  0  0  0  0
  149.2721  135.6647  158.2791 H   0  0  0  0  0  0  0  0  0  0  0  0
  149.5592  137.3653  158.1815 H   0  0  0  0  0  0  0  0  0  0  0  0
  150.6994  136.2459  157.4341 H   0  0  0  0  0  0  0  0  0  0  0  0
  147.8315  136.7939  156.5276 H   0  0  0  0  0  0  0  0  0  0  0  0
  149.7630  134.5928  155.6339 H   0  0  0  0  0  0  0  0  0  0  0  0
  148.1555  134.4329  156.2931 H   0  0  0  0  0  0  0  0  0  0  0  0
  148.6912  135.6527  153.6383 H   0  0  0  0  0  0  0  0  0  0  0  0
  147.5630  135.1508  152.1235 H   0  0  0  0  0  0  0  0  0  0  0  0
  144.1607  134.4048  152.7350 H   0  0  0  0  0  0  0  0  0  0  0  0
  142.7344  133.2626  151.2233 H   0  0  0  0  0  0  0  0  0  0  0  0
  147.3963  131.6423  148.8029 H   0  0  0  0  0  0  0  0  0  0  0  0
  146.0288  132.0649  147.7814 H   0  0  0  0  0  0  0  0  0  0  0  0
  145.9839  130.5998  148.7684 H   0  0  0  0  0  0  0  0  0  0  0  0
  147.5869  132.9768  150.5202 H   0  0  0  0  0  0  0  0  0  0  0  0
  148.0820  139.0900  155.8524 H   0  0  0  0  0  0  0  0  0  0  0  0
  149.5667  139.0333  156.7795 H   0  0  0  0  0  0  0  0  0  0  0  0
  149.2373  139.8986  153.8543 H   0  0  0  0  0  0  0  0  0  0  0  0
  149.5789  140.9421  155.2217 H   0  0  0  0  0  0  0  0  0  0  0  0
  150.9811  138.3094  153.1577 H   0  0  0  0  0  0  0  0  0  0  0  0
  152.4853  138.2979  154.0603 H   0  0  0  0  0  0  0  0  0  0  0  0
  151.3632  137.4057  156.0652 H   0  0  0  0  0  0  0  0  0  0  0  0
  151.0539  136.3852  154.6761 H   0  0  0  0  0  0  0  0  0  0  0  0
  1  2  1  0  0  0  0
  1 22  1  0  0  0  0
  1 23  1  0  0  0  0
  1 24  1  0  0  0  0
  2  3  1  0  0  0  0
  2 16  1  0  0  0  0
  2 25  1  0  0  0  0
  3  4  1  0  0  0  0
  3 26  1  0  0  0  0
  3 27  1  0  0  0  0
  4  5  1  0  0  0  0
  4 28  1  0  0  0  0
  5  6  2  0  0  0  0
  5  7  1  0  0  0  0
  7  8  1  0  0  0  0
  7 29  1  0  0  0  0
  8 15  2  0  0  0  0
  8  9  1  0  0  0  0
  9 10  2  0  0  0  0
  9 30  1  0  0  0  0
 10 11  1  0  0  0  0
 10 31  1  0  0  0  0
 11 12  2  0  0  0  0
 11 13  1  0  0  0  0
 13 14  1  0  0  0  0
 13 15  1  0  0  0  0
 14 32  1  0  0  0  0
 14 33  1  0  0  0  0
 14 34  1  0  0  0  0
 15 35  1  0  0  0  0
 16 21  1  0  0  0  0
 16 17  1  0  0  0  0
 17 18  1  0  0  0  0
 17 36  1  0  0  0  0
 17 37  1  0  0  0  0
 18 19  1  0  0  0  0
 18 38  1  0  0  0  0
 18 39  1  0  0  0  0
 19 20  1  0  0  0  0
 20 21  1  0  0  0  0
 20 40  1  0  0  0  0
 20 41  1  0  0  0  0
 21 42  1  0  0  0  0
 21 43  1  0  0  0  0
M  END
> <s_m_source_file>
AV-unprocessed.smi

> <i_m_source_file_index>
1100

> <i_lp_mmshare_version>
43012

> <i_f3d_flags>
0

> <s_epik_input>
W0NIMl0xW0NIMl1PW0NIMl1bQ0gyXU4xW0NASF0oW0NIM10pW0NIMl1bTkhdQyg9TylbTkhdYzJbY0hdW2NIXWMoPU8pbihbQ0gzXSlbY0hdMg==

> <s_epik_cmdline>
J2VwaWtfcHl0aG9uJywgJy1waCcsICc3LjAnLCAnLXRuJywgJzgnLCAnLW1hJywgJzIwMCcsICctbWV0YWxfYmluZGluZycsICctaW1hZScsICc8aW5maWxlLm1hZT4nLCAnLW9tYWUnLCAnPG91dGZpbGUubWFlPic=

> <r_lp_tautomer_probability>
1

> <r_epik_Ionization_Penalty>
0.266016

> <r_epik_Ionization_Penalty_Charging>
5.79683e-06

> <r_epik_Ionization_Penalty_Neutral>
0.26601

> <r_epik_State_Penalty>
0.257924

> <r_epik_Charging_Adjusted_Penalty>
0.25793

> <i_epik_Tot_Q>
0

> <i_epik_Tot_abs_Q>
0

> <r_epik_Metal_State_Penalty>
0.260326

> <b_epik_Metal_Only>
0

> <s_lp_Force_Field>
OPLS_2005

> <r_lp_Energy>
41.8129

> <b_lp_Chiralities_Consistent>
1

> <s_lp_Variant>
AV-unprocessed.smi:1100-1

> <Gold.Version>
5.8.1

> <Gold.Id.Protein>
6NUR|6NUR_protein|mol2

> <Gold.PLP.Fitness>
45.4661

> <Gold.PLP.PLP>
-32.3195

> <Gold.PLP.part.hbond>
-4.0000

> <Gold.PLP.part.metal>
0.0000

> <Gold.PLP.part.buried>
-6.0110

> <Gold.PLP.part.nonpolar>
-23.8492

> <Gold.PLP.part.repulsive>
0.4849

> <Gold.PLP.ligand.clash>
0.0000

> <Gold.PLP.ligand.torsion>
0.8364

> <Gold.PLP.Chemscore.Hbond>
3.9280

> <Gold.PLP.Chemscore.CHOScore>
1.0000

> <Gold.PLP.Chemscore.Metal>
0.0000

> <Gold.Chemscore.Hbonds>
donor molecule, donor type, donor heavy atom, donor atom, acceptor molecule, acceptor atom, score
      L1  H     4    28       P1  7948  1.00
      L1  H     7    29       P1  7948  1.00
      P1  H  7989  7998       L1    19  1.00
      P1  H 10785 10796       L1    12  0.90
      L1  C    15    35       P1 10747  0.99

> <Gold.PLP.Chemscore.Internal.Correction>
0.0355

> <Gold.Rescore>
     Score         DG    S(hbond)    S(metal)    S(lipo)     H(rot)  DE(clash)    DE(int)     intcor
     20.32     -21.28       3.48        0.00      68.46       1.49       0.10       0.86       ----

> <Gold.Chemscore.Fitness>
20.3195

> <Gold.Chemscore.DG>
-21.2849

> <Gold.Chemscore.ZeroCoef>
-5.4800

> <Gold.Chemscore.Hbond>
3.4787

> <Gold.Chemscore.Metal>
0.0000

> <Gold.Chemscore.Lipo>
68.4623

> <Gold.Chemscore.Internal_Hbond>
0.0000

> <Gold.Chemscore.DEClash>
0.1025

> <Gold.Chemscore.DEInternal>
0.8629

> <Gold.Chemscore.Rot>
1.4938

> <Gold.Chemscore.Internal.Correction>
   9.000000E+99

> <Gold.Chemscore.Hbonds>
donor molecule, donor type, donor heavy atom, donor atom, acceptor molecule, acceptor atom, score
      L1  H     4    28       P1  7948  0.93
      L1  H     7    29       P1  7948  0.96
      P1  H  7989  7998       L1    19  0.36
      P1  H 10785 10796       L1    12  0.87

> <Gold.Chemscore.Hbond.Weighted>
-11.6190

> <Gold.Chemscore.Metal.Weighted>
-0.0000

> <Gold.Chemscore.Lipo.Weighted>
-8.0101

> <Gold.Chemscore.Internal_Hbond.Weighted>
0.0000

> <Gold.Chemscore.DEClash.Weighted>
0.1025

> <Gold.Chemscore.DEInternal.Weighted>
0.8629

> <Gold.Chemscore.Rot.Weighted>
3.8242

> <Gold.Chemscore.Internal.Correction.Weighted>
   9.000000E+99

> <Gold.Protein.RotatedTorsions>
[ 6907 6896 6895 6894 ] final    1.90 input  -60.11 | X-H torsion
[ 7974 7965 7964 7962 ] final -124.80 input  175.53 | X-H torsion
[ 8008 7997 7996 7995 ] final -149.65 input   59.86 | X-H torsion
[ 10167 10162 10161 10158 ] final -160.64 input  -65.29 | X-H torsion
[ 10718 10713 10712 10709 ] final   84.48 input   66.30 | X-H torsion
[ 10763 10752 10751 10750 ] final -162.62 input  -60.55 | X-H torsion
[ 11005 11000 10999 10996 ] final   54.24 input  -57.11 | X-H torsion

> <Gold.Protein.ActiveResidues>
 VAL166  LYS551  ARG553  GLY616  TRP617  ASP618  TYR619  PRO620  LYS621  CYS622 
 ASP623  PHE694  ASN695  SER759  ASP760  ASP761  ALA762  ILE779  LEU786  VAL792 
 PHE793  MET794  SER795  GLU796  ALA797  LYS798  CYS799  TRP800  GLU811  SER814 

> <Gold.Protein.RotatedAtoms>
  151.6002  135.1048  160.0058 H   0  0  0  0  0  0  0  0  0  0  0  0  # atno 6907 bound_to 6896
  152.4262  133.7194  159.6535 H   0  0  0  0  0  0  0  0  0  0  0  0  # atno 6908 bound_to 6896
  150.8151  133.8280  159.3186 H   0  0  0  0  0  0  0  0  0  0  0  0  # atno 6909 bound_to 6896
  145.0043  140.7848  143.4477 H   0  0  0  0  0  0  0  0  0  0  0  0  # atno 7974 bound_to 7965
  155.6109  140.0671  157.2706 H   0  0  0  0  0  0  0  0  0  0  0  0  # atno 8008 bound_to 7997
  154.4253  140.1801  156.1319 H   0  0  0  0  0  0  0  0  0  0  0  0  # atno 8009 bound_to 7997
  156.0085  140.3329  155.6920 H   0  0  0  0  0  0  0  0  0  0  0  0  # atno 8010 bound_to 7997
  139.6524  144.0059  152.2171 H   0  0  0  0  0  0  0  0  0  0  0  0  # atno 10167 bound_to 10162
  157.6899  131.0135  150.2679 H   0  0  0  0  0  0  0  0  0  0  0  0  # atno 10718 bound_to 10713
  154.7198  135.3023  154.9066 H   0  0  0  0  0  0  0  0  0  0  0  0  # atno 10763 bound_to 10752
  153.9941  135.6715  153.4759 H   0  0  0  0  0  0  0  0  0  0  0  0  # atno 10764 bound_to 10752
  153.0824  135.5002  154.8446 H   0  0  0  0  0  0  0  0  0  0  0  0  # atno 10765 bound_to 10752
  140.0702  134.5480  155.9055 H   0  0  0  0  0  0  0  0  0  0  0  0  # atno 11005 bound_to 11000
  145.2111  139.2204  143.5143 LP  0  0  0  0  0  0  0  0  0  0  0  0  # atno 17320 bound_to 7965
  146.3458  140.1949  142.8589 LP  0  0  0  0  0  0  0  0  0  0  0  0  # atno 17321 bound_to 7965
  139.9777  144.6450  150.7930 LP  0  0  0  0  0  0  0  0  0  0  0  0  # atno 17342 bound_to 10162
  140.7544  143.3026  151.3042 LP  0  0  0  0  0  0  0  0  0  0  0  0  # atno 17343 bound_to 10162
  156.3247  130.3791  149.7544 LP  0  0  0  0  0  0  0  0  0  0  0  0  # atno 17370 bound_to 10713
  156.5103  130.8169  151.3166 LP  0  0  0  0  0  0  0  0  0  0  0  0  # atno 17371 bound_to 10713
  141.2009  133.6615  156.5920 LP  0  0  0  0  0  0  0  0  0  0  0  0  # atno 17394 bound_to 11000
  140.3638  134.7664  157.4552 LP  0  0  0  0  0  0  0  0  0  0  0  0  # atno 17395 bound_to 11000

$$$$
