AV-unprocessed.smi:2821|AV-procd|sdf|10857|dock1
  -GOLD-   2272015303D 1   1.00000     0.00000
 Structure written by MMmdl.
 36 37  0  0  0  0  0  0  0  0  1 V2000
  152.9422  138.6740  154.7435 C   0  0  0  0  0  0  0  0  0  0  0  0
  151.7772  137.7993  155.2122 C   0  0  0  0  0  0  0  0  0  0  0  0
  150.6595  138.0276  154.3587 O   0  0  0  0  0  0  0  0  0  0  0  0
  150.0164  139.2456  154.4384 C   0  0  0  0  0  0  0  0  0  0  0  0
  148.9303  139.5193  153.5800 C   0  0  0  0  0  0  0  0  0  0  0  0
  148.2573  140.6901  153.6294 N   0  0  0  0  0  0  0  0  0  0  0  0
  148.6742  141.5901  154.5475 C   0  0  0  0  0  0  0  0  0  0  0  0
  149.7608  141.3317  155.4121 C   0  0  0  0  0  0  0  0  0  0  0  0
  150.1435  142.3066  156.3461 N   0  0  0  0  0  0  0  0  0  0  0  0
  150.5739  141.9635  157.6992 C   0  0  1  0  0  0  0  0  0  0  0  0
  151.8683  141.1387  157.6111 C   0  0  0  0  0  0  0  0  0  0  0  0
  150.7611  143.2326  158.5636 C   0  0  2  0  0  0  0  0  0  0  0  0
  151.7399  144.2548  157.9799 C   0  0  0  0  0  0  0  0  0  0  0  0
  152.1886  145.0029  159.2132 C   0  0  0  0  0  0  0  0  0  0  0  0
  152.2862  143.8760  160.2337 C   0  0  0  0  0  0  0  0  0  0  0  0
  151.3114  142.9141  159.8423 O   0  0  0  0  0  0  0  0  0  0  0  0
  150.4365  140.1597  155.3483 N   0  0  0  0  0  0  0  0  0  0  0  0
  153.8182  138.5263  155.3752 H   0  0  0  0  0  0  0  0  0  0  0  0
  152.6773  139.7309  154.7799 H   0  0  0  0  0  0  0  0  0  0  0  0
  153.2245  138.4328  153.7185 H   0  0  0  0  0  0  0  0  0  0  0  0
  152.0736  136.7496  155.1801 H   0  0  0  0  0  0  0  0  0  0  0  0
  151.5242  138.0473  156.2442 H   0  0  0  0  0  0  0  0  0  0  0  0
  148.5965  138.7930  152.8539 H   0  0  0  0  0  0  0  0  0  0  0  0
  148.1335  142.5244  154.5914 H   0  0  0  0  0  0  0  0  0  0  0  0
  150.0016  143.2810  156.1227 H   0  0  0  0  0  0  0  0  0  0  0  0
  149.8213  141.3275  158.1664 H   0  0  0  0  0  0  0  0  0  0  0  0
  152.1910  140.7908  158.5924 H   0  0  0  0  0  0  0  0  0  0  0  0
  152.6831  141.7211  157.1796 H   0  0  0  0  0  0  0  0  0  0  0  0
  151.7267  140.2540  156.9893 H   0  0  0  0  0  0  0  0  0  0  0  0
  149.7994  143.7204  158.7312 H   0  0  0  0  0  0  0  0  0  0  0  0
  152.5921  143.7519  157.5204 H   0  0  0  0  0  0  0  0  0  0  0  0
  151.2825  144.9050  157.2336 H   0  0  0  0  0  0  0  0  0  0  0  0
  153.1288  145.5376  159.0755 H   0  0  0  0  0  0  0  0  0  0  0  0
  151.4244  145.7204  159.5150 H   0  0  0  0  0  0  0  0  0  0  0  0
  153.2700  143.4069  160.1922 H   0  0  0  0  0  0  0  0  0  0  0  0
  152.1180  144.2225  161.2535 H   0  0  0  0  0  0  0  0  0  0  0  0
  1  2  1  0  0  0  0
  1 18  1  0  0  0  0
  1 19  1  0  0  0  0
  1 20  1  0  0  0  0
  2  3  1  0  0  0  0
  2 21  1  0  0  0  0
  2 22  1  0  0  0  0
  3  4  1  0  0  0  0
  4 17  1  0  0  0  0
  4  5  2  0  0  0  0
  5  6  1  0  0  0  0
  5 23  1  0  0  0  0
  6  7  2  0  0  0  0
  7  8  1  0  0  0  0
  7 24  1  0  0  0  0
  8  9  1  0  0  0  0
  8 17  2  0  0  0  0
  9 10  1  0  0  0  0
  9 25  1  0  0  0  0
 10 11  1  0  0  0  0
 10 12  1  0  0  0  0
 10 26  1  0  0  0  0
 11 27  1  0  0  0  0
 11 28  1  0  0  0  0
 11 29  1  0  0  0  0
 12 16  1  0  0  0  0
 12 13  1  0  0  0  0
 12 30  1  0  0  0  0
 13 14  1  0  0  0  0
 13 31  1  0  0  0  0
 13 32  1  0  0  0  0
 14 15  1  0  0  0  0
 14 33  1  0  0  0  0
 14 34  1  0  0  0  0
 15 16  1  0  0  0  0
 15 35  1  0  0  0  0
 15 36  1  0  0  0  0
M  END
> <s_m_source_file>
AV-unprocessed.smi

> <i_m_source_file_index>
2821

> <i_lp_mmshare_version>
43012

> <i_f3d_flags>
0

> <s_epik_input>
W0NIM11bQ0gyXU9jMVtjSF1uW2NIXWMobjEpW05IXVtDQEhdKFtDSDNdKVtDQEBIXTJbQ0gyXVtDSDJdW0NIMl1PMg==

> <s_epik_cmdline>
J2VwaWtfcHl0aG9uJywgJy1waCcsICc3LjAnLCAnLXRuJywgJzgnLCAnLW1hJywgJzIwMCcsICctbWV0YWxfYmluZGluZycsICctaW1hZScsICc8aW5maWxlLm1hZT4nLCAnLW9tYWUnLCAnPG91dGZpbGUubWFlPic=

> <r_lp_tautomer_probability>
1

> <r_epik_Ionization_Penalty>
4.69533e-05

> <r_epik_Ionization_Penalty_Charging>
0

> <r_epik_Ionization_Penalty_Neutral>
4.69533e-05

> <r_epik_State_Penalty>
-0

> <r_epik_Charging_Adjusted_Penalty>
0

> <i_epik_Tot_Q>
0

> <i_epik_Tot_abs_Q>
0

> <r_epik_Metal_State_Penalty>
-0

> <b_epik_Metal_Only>
0

> <s_lp_Force_Field>
OPLS_2005

> <r_lp_Energy>
28.2268

> <b_lp_Chiralities_Consistent>
1

> <s_lp_Variant>
AV-unprocessed.smi:2821-2

> <Gold.Version>
5.8.1

> <Gold.Id.Protein>
6NUR|6NUR_protein|mol2

> <Gold.PLP.Fitness>
43.9748

> <Gold.PLP.PLP>
-36.7346

> <Gold.PLP.part.hbond>
-1.6388

> <Gold.PLP.part.metal>
0.0000

> <Gold.PLP.part.buried>
-3.2793

> <Gold.PLP.part.nonpolar>
-33.7088

> <Gold.PLP.part.repulsive>
1.9476

> <Gold.PLP.ligand.clash>
0.0000

> <Gold.PLP.ligand.torsion>
0.3894

> <Gold.PLP.Chemscore.Hbond>
1.0102

> <Gold.PLP.Chemscore.CHOScore>
1.6471

> <Gold.PLP.Chemscore.Metal>
0.0000

> <Gold.Chemscore.Hbonds>
donor molecule, donor type, donor heavy atom, donor atom, acceptor molecule, acceptor atom, score
      L1  H     9    25       P1  8028  1.00
      L1  C     5    23       P1  7948  0.48
      L1  C     5    23       P1  7957  0.21
      L1  C     7    24       P1  8028  0.98

> <Gold.PLP.Chemscore.Internal.Correction>
0.0471

> <Gold.Rescore>
     Score         DG    S(hbond)    S(metal)    S(lipo)     H(rot)  DE(clash)    DE(int)     intcor
     13.86     -15.69       0.99        0.00      92.96       1.55       0.06       1.77       ----

> <Gold.Chemscore.Fitness>
13.8586

> <Gold.Chemscore.DG>
-15.6868

> <Gold.Chemscore.ZeroCoef>
-5.4800

> <Gold.Chemscore.Hbond>
0.9886

> <Gold.Chemscore.Metal>
0.0000

> <Gold.Chemscore.Lipo>
92.9605

> <Gold.Chemscore.Internal_Hbond>
0.0000

> <Gold.Chemscore.DEClash>
0.0553

> <Gold.Chemscore.DEInternal>
1.7729

> <Gold.Chemscore.Rot>
1.5514

> <Gold.Chemscore.Internal.Correction>
   9.000000E+99

> <Gold.Chemscore.Hbonds>
donor molecule, donor type, donor heavy atom, donor atom, acceptor molecule, acceptor atom, score
      L1  H     9    25       P1  8028  0.96

> <Gold.Chemscore.Hbond.Weighted>
-3.3019

> <Gold.Chemscore.Metal.Weighted>
-0.0000

> <Gold.Chemscore.Lipo.Weighted>
-10.8764

> <Gold.Chemscore.Internal_Hbond.Weighted>
0.0000

> <Gold.Chemscore.DEClash.Weighted>
0.0553

> <Gold.Chemscore.DEInternal.Weighted>
1.7729

> <Gold.Chemscore.Rot.Weighted>
3.9715

> <Gold.Chemscore.Internal.Correction.Weighted>
   9.000000E+99

> <Gold.Protein.RotatedTorsions>
[ 6907 6896 6895 6894 ] final   54.18 input  -60.11 | X-H torsion
[ 7974 7965 7964 7962 ] final -158.45 input  175.53 | X-H torsion
[ 8008 7997 7996 7995 ] final -171.25 input   59.86 | X-H torsion
[ 10167 10162 10161 10158 ] final  -32.16 input  -65.29 | X-H torsion
[ 10718 10713 10712 10709 ] final   37.11 input   66.30 | X-H torsion
[ 10763 10752 10751 10750 ] final -168.14 input  -60.55 | X-H torsion
[ 11005 11000 10999 10996 ] final   65.84 input  -57.11 | X-H torsion

> <Gold.Protein.ActiveResidues>
 VAL166  LYS551  ARG553  GLY616  TRP617  ASP618  TYR619  PRO620  LYS621  CYS622 
 ASP623  PHE694  ASN695  SER759  ASP760  ASP761  ALA762  ILE779  LEU786  VAL792 
 PHE793  MET794  SER795  GLU796  ALA797  LYS798  CYS799  TRP800  GLU811  SER814 

> <Gold.Protein.RotatedAtoms>
  152.3413  134.7131  160.0262 H   0  0  0  0  0  0  0  0  0  0  0  0  # atno 6907 bound_to 6896
  151.7515  133.3322  159.3401 H   0  0  0  0  0  0  0  0  0  0  0  0  # atno 6908 bound_to 6896
  150.7481  134.6121  159.6136 H   0  0  0  0  0  0  0  0  0  0  0  0  # atno 6909 bound_to 6896
  144.7505  140.3826  143.6051 H   0  0  0  0  0  0  0  0  0  0  0  0  # atno 7974 bound_to 7965
  155.9291  140.1088  157.1146 H   0  0  0  0  0  0  0  0  0  0  0  0  # atno 8008 bound_to 7997
  154.4067  140.1241  156.4845 H   0  0  0  0  0  0  0  0  0  0  0  0  # atno 8009 bound_to 7997
  155.7102  140.3471  155.4972 H   0  0  0  0  0  0  0  0  0  0  0  0  # atno 8010 bound_to 7997
  140.7225  143.3716  151.1768 H   0  0  0  0  0  0  0  0  0  0  0  0  # atno 10167 bound_to 10162
  157.3430  130.7558  149.6925 H   0  0  0  0  0  0  0  0  0  0  0  0  # atno 10718 bound_to 10713
  154.6660  135.2932  154.9805 H   0  0  0  0  0  0  0  0  0  0  0  0  # atno 10763 bound_to 10752
  154.0849  135.6599  153.4847 H   0  0  0  0  0  0  0  0  0  0  0  0  # atno 10764 bound_to 10752
  153.0457  135.5206  154.7633 H   0  0  0  0  0  0  0  0  0  0  0  0  # atno 10765 bound_to 10752
  139.9869  134.6654  156.0160 H   0  0  0  0  0  0  0  0  0  0  0  0  # atno 11005 bound_to 11000
  145.6961  139.1650  143.2619 LP  0  0  0  0  0  0  0  0  0  0  0  0  # atno 17320 bound_to 7965
  146.1449  140.7007  142.9349 LP  0  0  0  0  0  0  0  0  0  0  0  0  # atno 17321 bound_to 7965
  139.7288  143.9106  152.3012 LP  0  0  0  0  0  0  0  0  0  0  0  0  # atno 17342 bound_to 10162
  139.8887  144.6977  150.8794 LP  0  0  0  0  0  0  0  0  0  0  0  0  # atno 17343 bound_to 10162
  155.9710  130.4162  150.4220 LP  0  0  0  0  0  0  0  0  0  0  0  0  # atno 17370 bound_to 10713
  157.2271  131.0495  151.2514 LP  0  0  0  0  0  0  0  0  0  0  0  0  # atno 17371 bound_to 10713
  141.1532  133.6546  156.4079 LP  0  0  0  0  0  0  0  0  0  0  0  0  # atno 17394 bound_to 11000
  140.4985  134.6508  157.5239 LP  0  0  0  0  0  0  0  0  0  0  0  0  # atno 17395 bound_to 11000

$$$$
