AV-unprocessed.smi:1218|AV-procd|sdf|5111|dock1
  -GOLD-   22720 4163D 1   1.00000     0.00000
 Structure written by MMmdl.
 44 45  0  0  0  0  0  0  0  0  1 V2000
  146.1754  134.1081  151.2141 C   0  0  0  0  0  0  0  0  0  0  0  0
  146.2174  132.5822  151.0343 C   0  0  0  0  0  0  0  0  0  0  0  0
  144.9793  132.0972  150.2659 C   0  0  0  0  0  0  0  0  0  0  0  0
  146.3321  131.8506  152.3892 C   0  0  0  0  0  0  0  0  0  0  0  0
  147.6000  132.0197  153.1016 N   0  0  0  0  0  0  0  0  0  0  0  0
  147.8985  130.9019  153.9946 C   0  0  0  0  0  0  0  0  0  0  0  0
  149.2117  131.1178  154.7649 C   0  0  0  0  0  0  0  0  0  0  0  0
  149.1453  132.3454  155.4813 O   0  0  0  0  0  0  0  0  0  0  0  0
  148.9240  133.4719  154.6357 C   0  0  2  0  0  0  0  0  0  0  0  0
  148.8911  134.7464  155.4959 C   0  0  0  0  0  0  0  0  0  0  0  0
  149.4227  135.8951  154.7701 N   0  0  0  0  0  0  0  0  0  0  0  0
  150.3714  136.7285  155.2261 C   0  0  0  0  0  0  0  0  0  0  0  0
  150.8939  136.6225  156.3354 O   0  0  0  0  0  0  0  0  0  0  0  0
  150.8083  137.8505  154.2827 C   0  0  0  0  0  0  0  0  0  0  0  0
  150.4459  139.1566  154.8053 N   0  0  0  0  0  0  0  0  0  0  0  0
  149.5219  140.0526  154.3083 C   0  0  0  0  0  0  0  0  0  0  0  0
  149.5249  141.1396  155.1346 C   0  0  0  0  0  0  0  0  0  0  0  0
  150.4937  140.8100  156.1234 C   0  0  0  0  0  0  0  0  0  0  0  0
  151.0437  139.6232  155.9236 N   0  0  0  0  0  0  0  0  0  0  0  0
  147.5994  133.2565  153.8766 C   0  0  0  0  0  0  0  0  0  0  0  0
  145.3235  134.4120  151.8233 H   0  0  0  0  0  0  0  0  0  0  0  0
  146.0940  134.6152  150.2522 H   0  0  0  0  0  0  0  0  0  0  0  0
  147.0799  134.4750  151.6998 H   0  0  0  0  0  0  0  0  0  0  0  0
  147.0805  132.3376  150.4165 H   0  0  0  0  0  0  0  0  0  0  0  0
  144.0622  132.3098  150.8161 H   0  0  0  0  0  0  0  0  0  0  0  0
  145.0217  131.0217  150.0914 H   0  0  0  0  0  0  0  0  0  0  0  0
  144.9045  132.5837  149.2929 H   0  0  0  0  0  0  0  0  0  0  0  0
  145.5187  132.2035  153.0252 H   0  0  0  0  0  0  0  0  0  0  0  0
  146.1466  130.7857  152.2401 H   0  0  0  0  0  0  0  0  0  0  0  0
  147.0822  130.7679  154.7058 H   0  0  0  0  0  0  0  0  0  0  0  0
  147.9793  129.9737  153.4305 H   0  0  0  0  0  0  0  0  0  0  0  0
  149.3770  130.3025  155.4692 H   0  0  0  0  0  0  0  0  0  0  0  0
  150.0636  131.1308  154.0834 H   0  0  0  0  0  0  0  0  0  0  0  0
  149.7435  133.5476  153.9182 H   0  0  0  0  0  0  0  0  0  0  0  0
  147.8610  134.9786  155.7672 H   0  0  0  0  0  0  0  0  0  0  0  0
  149.4268  134.5916  156.4341 H   0  0  0  0  0  0  0  0  0  0  0  0
  149.0510  136.0635  153.8463 H   0  0  0  0  0  0  0  0  0  0  0  0
  151.8897  137.8204  154.1425 H   0  0  0  0  0  0  0  0  0  0  0  0
  150.3539  137.7063  153.3010 H   0  0  0  0  0  0  0  0  0  0  0  0
  148.9475  139.8437  153.4177 H   0  0  0  0  0  0  0  0  0  0  0  0
  148.9255  142.0333  155.0472 H   0  0  0  0  0  0  0  0  0  0  0  0
  150.8110  141.3937  156.9750 H   0  0  0  0  0  0  0  0  0  0  0  0
  147.4251  134.1044  153.2130 H   0  0  0  0  0  0  0  0  0  0  0  0
  146.7724  133.2439  154.5886 H   0  0  0  0  0  0  0  0  0  0  0  0
  1  2  1  0  0  0  0
  1 21  1  0  0  0  0
  1 22  1  0  0  0  0
  1 23  1  0  0  0  0
  2  3  1  0  0  0  0
  2  4  1  0  0  0  0
  2 24  1  0  0  0  0
  3 25  1  0  0  0  0
  3 26  1  0  0  0  0
  3 27  1  0  0  0  0
  4  5  1  0  0  0  0
  4 28  1  0  0  0  0
  4 29  1  0  0  0  0
  5 20  1  0  0  0  0
  5  6  1  0  0  0  0
  6  7  1  0  0  0  0
  6 30  1  0  0  0  0
  6 31  1  0  0  0  0
  7  8  1  0  0  0  0
  7 32  1  0  0  0  0
  7 33  1  0  0  0  0
  8  9  1  0  0  0  0
  9 10  1  0  0  0  0
  9 20  1  0  0  0  0
  9 34  1  0  0  0  0
 10 11  1  0  0  0  0
 10 35  1  0  0  0  0
 10 36  1  0  0  0  0
 11 12  1  0  0  0  0
 11 37  1  0  0  0  0
 12 13  2  0  0  0  0
 12 14  1  0  0  0  0
 14 15  1  0  0  0  0
 14 38  1  0  0  0  0
 14 39  1  0  0  0  0
 15 19  1  0  0  0  0
 15 16  1  0  0  0  0
 16 17  2  0  0  0  0
 16 40  1  0  0  0  0
 17 18  1  0  0  0  0
 17 41  1  0  0  0  0
 18 19  2  0  0  0  0
 18 42  1  0  0  0  0
 20 43  1  0  0  0  0
 20 44  1  0  0  0  0
M  END
> <s_m_source_file>
AV-unprocessed.smi

> <i_m_source_file_index>
1218

> <i_lp_mmshare_version>
43012

> <i_f3d_flags>
0

> <s_epik_input>
W0NIM11bQ0hdKFtDSDNdKVtDSDJdTjFbQ0gyXVtDSDJdT1tDQEhdKFtDSDJdMSlbQ0gyXVtOSF1DKD1PKVtDSDJdbjJbY0hdW2NIXVtjSF1uMg==

> <s_epik_cmdline>
J2VwaWtfcHl0aG9uJywgJy1waCcsICc3LjAnLCAnLXRuJywgJzgnLCAnLW1hJywgJzIwMCcsICctbWV0YWxfYmluZGluZycsICctaW1hZScsICc8aW5maWxlLm1hZT4nLCAnLW9tYWUnLCAnPG91dGZpbGUubWFlPic=

> <r_lp_tautomer_probability>
1

> <r_epik_Ionization_Penalty>
1.10621

> <r_epik_Ionization_Penalty_Charging>
0

> <r_epik_Ionization_Penalty_Neutral>
1.10621

> <r_epik_State_Penalty>
1.16377

> <r_epik_Charging_Adjusted_Penalty>
1.16377

> <i_epik_Tot_Q>
0

> <i_epik_Tot_abs_Q>
0

> <r_epik_Metal_State_Penalty>
1.16377

> <b_epik_Metal_Only>
0

> <s_lp_Force_Field>
OPLS_2005

> <r_lp_Energy>
24.8608

> <b_lp_Chiralities_Consistent>
1

> <s_lp_Variant>
AV-unprocessed.smi:1218-6

> <Gold.Version>
5.8.1

> <Gold.Id.Protein>
6NUR|6NUR_protein|mol2

> <Gold.PLP.Fitness>
45.4679

> <Gold.PLP.PLP>
-38.0694

> <Gold.PLP.part.hbond>
-2.0432

> <Gold.PLP.part.metal>
0.0000

> <Gold.PLP.part.buried>
-3.3394

> <Gold.PLP.part.nonpolar>
-33.6645

> <Gold.PLP.part.repulsive>
0.8028

> <Gold.PLP.ligand.clash>
0.0000

> <Gold.PLP.ligand.torsion>
0.8858

> <Gold.PLP.Chemscore.Hbond>
2.0000

> <Gold.PLP.Chemscore.CHOScore>
0.9872

> <Gold.PLP.Chemscore.Metal>
0.0000

> <Gold.Chemscore.Hbonds>
donor molecule, donor type, donor heavy atom, donor atom, acceptor molecule, acceptor atom, score
      L1  H    11    37       P1  7948  1.00
      L1  C    16    40       P1  7957  0.97

> <Gold.PLP.Chemscore.Internal.Correction>
0.2085

> <Gold.Rescore>
     Score         DG    S(hbond)    S(metal)    S(lipo)     H(rot)  DE(clash)    DE(int)     intcor
     14.07     -15.33       1.61        0.00      79.85       1.90       0.18       1.08       ----

> <Gold.Chemscore.Fitness>
14.0697

> <Gold.Chemscore.DG>
-15.3278

> <Gold.Chemscore.ZeroCoef>
-5.4800

> <Gold.Chemscore.Hbond>
1.6054

> <Gold.Chemscore.Metal>
0.0000

> <Gold.Chemscore.Lipo>
79.8482

> <Gold.Chemscore.Internal_Hbond>
0.0000

> <Gold.Chemscore.DEClash>
0.1799

> <Gold.Chemscore.DEInternal>
1.0782

> <Gold.Chemscore.Rot>
1.8970

> <Gold.Chemscore.Internal.Correction>
   9.000000E+99

> <Gold.Chemscore.Hbonds>
donor molecule, donor type, donor heavy atom, donor atom, acceptor molecule, acceptor atom, score
      L1  H    11    37       P1  7948  0.93

> <Gold.Chemscore.Hbond.Weighted>
-5.3620

> <Gold.Chemscore.Metal.Weighted>
-0.0000

> <Gold.Chemscore.Lipo.Weighted>
-9.3422

> <Gold.Chemscore.Internal_Hbond.Weighted>
0.0000

> <Gold.Chemscore.DEClash.Weighted>
0.1799

> <Gold.Chemscore.DEInternal.Weighted>
1.0782

> <Gold.Chemscore.Rot.Weighted>
4.8564

> <Gold.Chemscore.Internal.Correction.Weighted>
   9.000000E+99

> <Gold.Protein.RotatedTorsions>
[ 6907 6896 6895 6894 ] final   47.62 input  -60.11 | X-H torsion
[ 7974 7965 7964 7962 ] final  -12.82 input  175.53 | X-H torsion
[ 8008 7997 7996 7995 ] final   75.40 input   59.86 | X-H torsion
[ 10167 10162 10161 10158 ] final  -65.13 input  -65.29 | X-H torsion
[ 10718 10713 10712 10709 ] final  -61.76 input   66.30 | X-H torsion
[ 10763 10752 10751 10750 ] final  -22.84 input  -60.55 | X-H torsion
[ 11005 11000 10999 10996 ] final   75.37 input  -57.11 | X-H torsion

> <Gold.Protein.ActiveResidues>
 VAL166  LYS551  ARG553  GLY616  TRP617  ASP618  TYR619  PRO620  LYS621  CYS622 
 ASP623  PHE694  ASN695  SER759  ASP760  ASP761  ALA762  ILE779  LEU786  VAL792 
 PHE793  MET794  SER795  GLU796  ALA797  LYS798  CYS799  TRP800  GLU811  SER814 

> <Gold.Protein.RotatedAtoms>
  152.2702  134.7941  160.0415 H   0  0  0  0  0  0  0  0  0  0  0  0  # atno 6907 bound_to 6896
  151.8556  133.3442  159.3695 H   0  0  0  0  0  0  0  0  0  0  0  0  # atno 6908 bound_to 6896
  150.7149  134.5184  159.5686 H   0  0  0  0  0  0  0  0  0  0  0  0  # atno 6909 bound_to 6896
  146.2138  140.3113  142.8383 H   0  0  0  0  0  0  0  0  0  0  0  0  # atno 7974 bound_to 7965
  155.8124  140.3472  155.5465 H   0  0  0  0  0  0  0  0  0  0  0  0  # atno 8008 bound_to 7997
  155.8427  140.0944  157.1745 H   0  0  0  0  0  0  0  0  0  0  0  0  # atno 8009 bound_to 7997
  154.4005  140.1391  156.3735 H   0  0  0  0  0  0  0  0  0  0  0  0  # atno 8010 bound_to 7997
  140.5751  143.2321  151.6458 H   0  0  0  0  0  0  0  0  0  0  0  0  # atno 10167 bound_to 10162
  156.0900  130.4202  150.1040 H   0  0  0  0  0  0  0  0  0  0  0  0  # atno 10718 bound_to 10713
  153.6584  135.6977  153.5185 H   0  0  0  0  0  0  0  0  0  0  0  0  # atno 10763 bound_to 10752
  153.2651  135.4232  155.0932 H   0  0  0  0  0  0  0  0  0  0  0  0  # atno 10764 bound_to 10752
  154.8458  135.3564  154.6128 H   0  0  0  0  0  0  0  0  0  0  0  0  # atno 10765 bound_to 10752
  139.9347  134.7512  156.1263 H   0  0  0  0  0  0  0  0  0  0  0  0  # atno 11005 bound_to 11000
  144.8986  140.7614  143.5881 LP  0  0  0  0  0  0  0  0  0  0  0  0  # atno 17320 bound_to 7965
  145.3038  139.1841  143.4675 LP  0  0  0  0  0  0  0  0  0  0  0  0  # atno 17321 bound_to 7965
  139.5138  144.3430  152.0723 LP  0  0  0  0  0  0  0  0  0  0  0  0  # atno 17342 bound_to 10162
  140.2572  144.4105  150.6199 LP  0  0  0  0  0  0  0  0  0  0  0  0  # atno 17343 bound_to 10162
  156.9052  130.9633  151.3571 LP  0  0  0  0  0  0  0  0  0  0  0  0  # atno 17370 bound_to 10713
  157.6046  130.8538  149.8855 LP  0  0  0  0  0  0  0  0  0  0  0  0  # atno 17371 bound_to 10713
  141.0954  133.6697  156.2634 LP  0  0  0  0  0  0  0  0  0  0  0  0  # atno 17394 bound_to 11000
  140.6108  134.5460  157.5533 LP  0  0  0  0  0  0  0  0  0  0  0  0  # atno 17395 bound_to 11000

$$$$
