AV-unprocessed.smi:1772|AV-procd|sdf|7161|dock7
  -GOLD-   22720 8403D 1   1.00000     0.00000
 Structure written by MMmdl.
 34 35  0  0  0  0  0  0  0  0  2 V2000
  153.7967  139.5594  158.5415 O   0  0  0  0  0  0  0  0  0  0  0  0
  153.6690  139.9674  159.6956 C   0  0  0  0  0  0  0  0  0  0  0  0
  154.1743  139.3338  160.7634 N   0  0  0  0  0  0  0  0  0  0  0  0
  154.9406  138.0926  160.7156 C   0  0  0  0  0  0  0  0  0  0  0  0
  154.4188  137.0415  161.7156 C   0  0  2  0  0  0  0  0  0  0  0  0
  154.1513  137.6131  163.1242 C   0  0  0  0  0  0  0  0  0  0  0  0
  153.9359  136.4478  164.0938 C   0  0  0  0  0  0  0  0  0  0  0  0
  155.0358  135.1083  163.5048 S   0  0  0  0  0  0  0  0  0  0  0  0
  156.2747  135.1089  164.2975 O   0  0  0  0  0  0  0  0  0  0  0  0
  154.2461  133.8796  163.3341 O   0  0  0  0  0  0  0  0  0  0  0  0
  155.3804  135.8516  161.8642 C   0  0  0  0  0  0  0  0  0  0  0  0
  152.9977  141.0746  160.0579 N   0  0  0  0  0  0  0  0  0  0  0  0
  152.3499  142.0281  159.2264 C   0  0  0  0  0  0  0  0  0  0  0  0
  151.7121  141.5529  158.0588 C   0  0  0  0  0  0  0  0  0  0  0  0
  151.0408  142.4605  157.2143 C   0  0  0  0  0  0  0  0  0  0  0  0
  151.0031  143.7723  157.5320 N   0  3  0  0  0  0  0  0  0  0  0  0
  151.5846  144.2713  158.6440 C   0  0  0  0  0  0  0  0  0  0  0  0
  152.2714  143.4121  159.5259 C   0  0  0  0  0  0  0  0  0  0  0  0
  154.0195  139.7360  161.6765 H   0  0  0  0  0  0  0  0  0  0  0  0
  154.9287  137.6884  159.7020 H   0  0  0  0  0  0  0  0  0  0  0  0
  155.9814  138.3327  160.9358 H   0  0  0  0  0  0  0  0  0  0  0  0
  153.4735  136.6432  161.3434 H   0  0  0  0  0  0  0  0  0  0  0  0
  155.0208  138.1857  163.4499 H   0  0  0  0  0  0  0  0  0  0  0  0
  153.2997  138.2941  163.1334 H   0  0  0  0  0  0  0  0  0  0  0  0
  154.1680  136.7015  165.1284 H   0  0  0  0  0  0  0  0  0  0  0  0
  152.9082  136.0873  164.0431 H   0  0  0  0  0  0  0  0  0  0  0  0
  155.2529  135.1048  161.0802 H   0  0  0  0  0  0  0  0  0  0  0  0
  156.4201  136.1804  161.8620 H   0  0  0  0  0  0  0  0  0  0  0  0
  152.8998  141.2279  161.0510 H   0  0  0  0  0  0  0  0  0  0  0  0
  151.7389  140.5028  157.8057 H   0  0  0  0  0  0  0  0  0  0  0  0
  150.5342  142.1784  156.3027 H   0  0  0  0  0  0  0  0  0  0  0  0
  151.4784  145.3352  158.7981 H   0  0  0  0  0  0  0  0  0  0  0  0
  152.7109  143.8290  160.4193 H   0  0  0  0  0  0  0  0  0  0  0  0
  150.5102  144.4128  156.9089 H   0  0  0  0  0  0  0  0  0  0  0  0
  1  2  2  0  0  0  0
  2  3  1  0  0  0  0
  2 12  1  0  0  0  0
  3  4  1  0  0  0  0
  3 19  1  0  0  0  0
  4  5  1  0  0  0  0
  4 20  1  0  0  0  0
  4 21  1  0  0  0  0
  5 11  1  0  0  0  0
  5  6  1  0  0  0  0
  5 22  1  0  0  0  0
  6  7  1  0  0  0  0
  6 23  1  0  0  0  0
  6 24  1  0  0  0  0
  7  8  1  0  0  0  0
  7 25  1  0  0  0  0
  7 26  1  0  0  0  0
  8  9  2  0  0  0  0
  8 10  2  0  0  0  0
  8 11  1  0  0  0  0
 11 27  1  0  0  0  0
 11 28  1  0  0  0  0
 12 13  1  0  0  0  0
 12 29  1  0  0  0  0
 13 18  1  0  0  0  0
 13 14  2  0  0  0  0
 14 15  1  0  0  0  0
 14 30  1  0  0  0  0
 15 16  2  0  0  0  0
 15 31  1  0  0  0  0
 16 17  1  0  0  0  0
 16 34  1  0  0  0  0
 17 18  2  0  0  0  0
 17 32  1  0  0  0  0
 18 33  1  0  0  0  0
M  CHG  1  16   1
M  END
> <s_m_source_file>
AV-unprocessed.smi

> <i_m_source_file_index>
1772

> <i_lp_mmshare_version>
43012

> <i_f3d_flags>
0

> <s_epik_input>
W2NIXTFbY0hdbltjSF1bY0hdYzFbTkhdQyg9TylbTkhdW0NIMl1bQ0BASF0oW0NIMl0yKVtDSDJdW0NIMl1TMig9Tyk9Tw==

> <s_epik_cmdline>
J2VwaWtfcHl0aG9uJywgJy1waCcsICc3LjAnLCAnLXRuJywgJzgnLCAnLW1hJywgJzIwMCcsICctbWV0YWxfYmluZGluZycsICctaW1hZScsICc8aW5maWxlLm1hZT4nLCAnLW9tYWUnLCAnPG91dGZpbGUubWFlPic=

> <r_epik_Ionization_Penalty>
1.04917

> <r_epik_Ionization_Penalty_Charging>
1.04915

> <r_epik_Ionization_Penalty_Neutral>
1.90771e-05

> <r_epik_State_Penalty>
1.10185

> <r_epik_Charging_Adjusted_Penalty>
2.151

> <i_epik_Tot_Q>
1

> <i_epik_Tot_abs_Q>
1

> <r_epik_Metal_State_Penalty>
1.19638

> <b_epik_Metal_Only>
0

> <s_lp_Force_Field>
OPLS_2005

> <r_lp_Energy>
16.4165

> <b_lp_Chiralities_Consistent>
1

> <s_lp_Variant>
AV-unprocessed.smi:1772-3

> <Gold.Version>
5.8.1

> <Gold.Id.Protein>
6NUR|6NUR_protein|mol2

> <Gold.PLP.Fitness>
41.2853

> <Gold.PLP.PLP>
-33.0753

> <Gold.PLP.part.hbond>
-2.0000

> <Gold.PLP.part.metal>
0.0000

> <Gold.PLP.part.buried>
-5.1922

> <Gold.PLP.part.nonpolar>
-26.4130

> <Gold.PLP.part.repulsive>
0.1994

> <Gold.PLP.ligand.clash>
0.0000

> <Gold.PLP.ligand.torsion>
0.3729

> <Gold.PLP.Chemscore.Hbond>
2.9840

> <Gold.PLP.Chemscore.CHOScore>
0.0000

> <Gold.PLP.Chemscore.Metal>
0.0000

> <Gold.Chemscore.Hbonds>
donor molecule, donor type, donor heavy atom, donor atom, acceptor molecule, acceptor atom, score
      L1  H    16    34       P1  8028  1.90
      P1  H  7997  8010       L1     1  1.00

> <Gold.PLP.Chemscore.Internal.Correction>
0.0038

> <Gold.Rescore>
     Score         DG    S(hbond)    S(metal)    S(lipo)     H(rot)  DE(clash)    DE(int)     intcor
     16.59     -18.21       1.95        0.00      81.95       1.32       0.03       1.59       ----

> <Gold.Chemscore.Fitness>
16.5893

> <Gold.Chemscore.DG>
-18.2144

> <Gold.Chemscore.ZeroCoef>
-5.4800

> <Gold.Chemscore.Hbond>
1.9502

> <Gold.Chemscore.Metal>
0.0000

> <Gold.Chemscore.Lipo>
81.9498

> <Gold.Chemscore.Internal_Hbond>
0.0000

> <Gold.Chemscore.DEClash>
0.0310

> <Gold.Chemscore.DEInternal>
1.5941

> <Gold.Chemscore.Rot>
1.3153

> <Gold.Chemscore.Internal.Correction>
   9.000000E+99

> <Gold.Chemscore.Hbonds>
donor molecule, donor type, donor heavy atom, donor atom, acceptor molecule, acceptor atom, score
      L1  H    16    34       P1  8028  0.79
      P1  H  7997  8010       L1     1  1.00

> <Gold.Chemscore.Hbond.Weighted>
-6.5135

> <Gold.Chemscore.Metal.Weighted>
-0.0000

> <Gold.Chemscore.Lipo.Weighted>
-9.5881

> <Gold.Chemscore.Internal_Hbond.Weighted>
0.0000

> <Gold.Chemscore.DEClash.Weighted>
0.0310

> <Gold.Chemscore.DEInternal.Weighted>
1.5941

> <Gold.Chemscore.Rot.Weighted>
3.3673

> <Gold.Chemscore.Internal.Correction.Weighted>
   9.000000E+99

> <Gold.Protein.RotatedTorsions>
[ 6907 6896 6895 6894 ] final  131.47 input  -60.11 | X-H torsion
[ 7974 7965 7964 7962 ] final  -36.60 input  175.53 | X-H torsion
[ 8008 7997 7996 7995 ] final   26.30 input   59.86 | X-H torsion
[ 10167 10162 10161 10158 ] final   75.78 input  -65.29 | X-H torsion
[ 10718 10713 10712 10709 ] final  -22.16 input   66.30 | X-H torsion
[ 10763 10752 10751 10750 ] final  -25.48 input  -60.55 | X-H torsion
[ 11005 11000 10999 10996 ] final -108.61 input  -57.11 | X-H torsion

> <Gold.Protein.ActiveResidues>
 VAL166  LYS551  ARG553  GLY616  TRP617  ASP618  TYR619  PRO620  LYS621  CYS622 
 ASP623  PHE694  ASN695  SER759  ASP760  ASP761  ALA762  ILE779  LEU786  VAL792 
 PHE793  MET794  SER795  GLU796  ALA797  LYS798  CYS799  TRP800  GLU811  SER814 

> <Gold.Protein.RotatedAtoms>
  152.3423  133.6081  159.5884 H   0  0  0  0  0  0  0  0  0  0  0  0  # atno 6907 bound_to 6896
  150.7486  133.9704  159.3552 H   0  0  0  0  0  0  0  0  0  0  0  0  # atno 6908 bound_to 6896
  151.7566  135.0821  160.0390 H   0  0  0  0  0  0  0  0  0  0  0  0  # atno 6909 bound_to 6896
  146.0647  140.6298  142.8980 H   0  0  0  0  0  0  0  0  0  0  0  0  # atno 7974 bound_to 7965
  155.0252  140.3152  155.4779 H   0  0  0  0  0  0  0  0  0  0  0  0  # atno 8008 bound_to 7997
  156.2884  140.2190  156.5313 H   0  0  0  0  0  0  0  0  0  0  0  0  # atno 8009 bound_to 7997
  154.7418  140.0473  157.0805 H   0  0  0  0  0  0  0  0  0  0  0  0  # atno 8010 bound_to 7997
  139.9993  144.5698  150.7751 H   0  0  0  0  0  0  0  0  0  0  0  0  # atno 10167 bound_to 10162
  156.5083  130.4604  149.6662 H   0  0  0  0  0  0  0  0  0  0  0  0  # atno 10718 bound_to 10713
  153.7005  135.6956  153.5064 H   0  0  0  0  0  0  0  0  0  0  0  0  # atno 10763 bound_to 10752
  153.2346  135.4326  155.0631 H   0  0  0  0  0  0  0  0  0  0  0  0  # atno 10764 bound_to 10752
  154.8345  135.3492  154.6544 H   0  0  0  0  0  0  0  0  0  0  0  0  # atno 10765 bound_to 10752
  141.0892  133.9084  157.2114 H   0  0  0  0  0  0  0  0  0  0  0  0  # atno 11005 bound_to 11000
  144.7195  140.4326  143.7019 LP  0  0  0  0  0  0  0  0  0  0  0  0  # atno 17320 bound_to 7965
  145.6498  139.1563  143.2868 LP  0  0  0  0  0  0  0  0  0  0  0  0  # atno 17321 bound_to 7965
  140.7425  143.2833  151.3536 LP  0  0  0  0  0  0  0  0  0  0  0  0  # atno 17342 bound_to 10162
  139.6283  144.0770  152.2454 LP  0  0  0  0  0  0  0  0  0  0  0  0  # atno 17343 bound_to 10162
  156.3265  130.7309  151.2230 LP  0  0  0  0  0  0  0  0  0  0  0  0  # atno 17370 bound_to 10713
  157.7454  131.0441  150.4778 LP  0  0  0  0  0  0  0  0  0  0  0  0  # atno 17371 bound_to 10713
  139.9715  135.0127  156.9525 LP  0  0  0  0  0  0  0  0  0  0  0  0  # atno 17394 bound_to 11000
  140.5291  134.0831  155.7311 LP  0  0  0  0  0  0  0  0  0  0  0  0  # atno 17395 bound_to 11000

$$$$
