AV-unprocessed.smi:2655|AV-procd|sdf|10298|dock9
  -GOLD-   2272014313D 1   1.00000     0.00000
 Structure written by MMmdl.
 33 34  0  0  0  0  0  0  0  0  2 V2000
  150.3993  139.0100  154.3769 C   0  0  0  0  0  0  0  0  0  0  0  0
  149.5725  140.2423  154.6055 C   0  0  0  0  0  0  0  0  0  0  0  0
  150.1837  141.3982  154.8448 N   0  0  0  0  0  0  0  0  0  0  0  0
  149.1778  142.2792  155.0043 N   0  0  0  0  0  0  0  0  0  0  0  0
  147.9515  141.6825  154.8651 C   0  0  0  0  0  0  0  0  0  0  0  0
  146.8122  142.3873  154.9914 O   0  5  0  0  0  0  0  0  0  0  0  0
  148.1476  140.3581  154.6010 C   0  0  0  0  0  0  0  0  0  0  0  0
  147.1260  139.2791  154.3693 C   0  0  0  0  0  0  0  0  0  0  0  0
  146.6662  139.2520  152.9035 C   0  0  0  0  0  0  0  0  0  0  0  0
  146.7582  137.9111  152.3387 N   0  0  0  0  0  0  0  0  0  0  0  0
  145.7574  137.0200  152.3031 C   0  0  0  0  0  0  0  0  0  0  0  0
  144.6293  137.2480  152.7401 O   0  0  0  0  0  0  0  0  0  0  0  0
  146.1556  135.8680  151.7375 N   0  0  0  0  0  0  0  0  0  0  0  0
  145.4041  134.6838  151.5242 C   0  0  0  0  0  0  0  0  0  0  0  0
  145.9229  133.4098  151.1509 C   0  0  0  0  0  0  0  0  0  0  0  0
  144.8020  132.6317  151.0800 C   0  0  0  0  0  0  0  0  0  0  0  0
  144.5839  131.1959  150.7458 C   0  0  0  0  0  0  0  0  0  0  0  0
  143.6966  133.3642  151.3825 O   0  0  0  0  0  0  0  0  0  0  0  0
  144.0914  134.6767  151.6664 N   0  0  0  0  0  0  0  0  0  0  0  0
  149.9008  138.1241  154.7705 H   0  0  0  0  0  0  0  0  0  0  0  0
  151.3717  139.0837  154.8649 H   0  0  0  0  0  0  0  0  0  0  0  0
  150.5710  138.8493  153.3128 H   0  0  0  0  0  0  0  0  0  0  0  0
  149.3426  143.2555  155.2028 H   0  0  0  0  0  0  0  0  0  0  0  0
  146.2644  139.4256  155.0214 H   0  0  0  0  0  0  0  0  0  0  0  0
  147.5349  138.3042  154.6372 H   0  0  0  0  0  0  0  0  0  0  0  0
  145.6461  139.6300  152.8142 H   0  0  0  0  0  0  0  0  0  0  0  0
  147.2954  139.9128  152.3064 H   0  0  0  0  0  0  0  0  0  0  0  0
  147.6533  137.6412  151.9582 H   0  0  0  0  0  0  0  0  0  0  0  0
  147.1156  135.8307  151.4280 H   0  0  0  0  0  0  0  0  0  0  0  0
  146.9397  133.1008  150.9628 H   0  0  0  0  0  0  0  0  0  0  0  0
  145.5301  130.6553  150.7146 H   0  0  0  0  0  0  0  0  0  0  0  0
  144.1044  131.0956  149.7718 H   0  0  0  0  0  0  0  0  0  0  0  0
  143.9461  130.7174  151.4891 H   0  0  0  0  0  0  0  0  0  0  0  0
  1 20  1  0  0  0  0
  1 21  1  0  0  0  0
  1 22  1  0  0  0  0
  1  2  1  0  0  0  0
  2  7  1  0  0  0  0
  2  3  2  0  0  0  0
  3  4  1  0  0  0  0
  4 23  1  0  0  0  0
  4  5  1  0  0  0  0
  5  7  2  0  0  0  0
  5  6  1  0  0  0  0
  7  8  1  0  0  0  0
  8  9  1  0  0  0  0
  8 24  1  0  0  0  0
  8 25  1  0  0  0  0
  9 10  1  0  0  0  0
  9 26  1  0  0  0  0
  9 27  1  0  0  0  0
 10 11  1  0  0  0  0
 10 28  1  0  0  0  0
 11 12  2  0  0  0  0
 11 13  1  0  0  0  0
 13 14  1  0  0  0  0
 13 29  1  0  0  0  0
 14 19  2  0  0  0  0
 14 15  1  0  0  0  0
 15 16  2  0  0  0  0
 15 30  1  0  0  0  0
 16 17  1  0  0  0  0
 16 18  1  0  0  0  0
 17 31  1  0  0  0  0
 17 32  1  0  0  0  0
 17 33  1  0  0  0  0
 18 19  1  0  0  0  0
M  CHG  1   6  -1
M  END
> <s_m_source_file>
AV-unprocessed.smi

> <i_m_source_file_index>
2655

> <i_lp_mmshare_version>
43012

> <i_f3d_flags>
0

> <s_epik_input>
W0NIM11DMT1OW05IXUMoPU8pW0NASF0xW0NIMl1bQ0gyXVtOSF1DKD1PKVtOSF1jMltjSF1jKFtDSDNdKW9uMg==

> <s_epik_cmdline>
J2VwaWtfcHl0aG9uJywgJy1waCcsICc3LjAnLCAnLXRuJywgJzgnLCAnLW1hJywgJzIwMCcsICctbWV0YWxfYmluZGluZycsICctaW1hZScsICc8aW5maWxlLm1hZT4nLCAnLW9tYWUnLCAnPG91dGZpbGUubWFlPic=

> <r_lp_tautomer_probability>
0.99495

> <r_epik_Ionization_Penalty>
1.68606

> <r_epik_Ionization_Penalty_Charging>
0.00156442

> <r_epik_Ionization_Penalty_Neutral>
1.68449

> <r_epik_State_Penalty>
0.315845

> <r_epik_Charging_Adjusted_Penalty>
0.31741

> <i_epik_Tot_Q>
-1

> <i_epik_Tot_abs_Q>
1

> <r_epik_Metal_State_Penalty>
0.0445802

> <b_epik_Metal_Only>
0

> <s_lp_Force_Field>
OPLS_2005

> <r_lp_Energy>
-3.25288

> <b_lp_Chiralities_Consistent>
1

> <s_lp_Variant>
AV-unprocessed.smi:2655-1

> <Gold.Version>
5.8.1

> <Gold.Id.Protein>
6NUR|6NUR_protein|mol2

> <Gold.PLP.Fitness>
36.9810

> <Gold.PLP.PLP>
-28.9235

> <Gold.PLP.part.hbond>
-4.0000

> <Gold.PLP.part.metal>
0.0000

> <Gold.PLP.part.buried>
-6.2224

> <Gold.PLP.part.nonpolar>
-21.5684

> <Gold.PLP.part.repulsive>
1.4624

> <Gold.PLP.ligand.clash>
0.0000

> <Gold.PLP.ligand.torsion>
0.9130

> <Gold.PLP.Chemscore.Hbond>
3.2915

> <Gold.PLP.Chemscore.CHOScore>
0.0000

> <Gold.PLP.Chemscore.Metal>
0.0000

> <Gold.Chemscore.Hbonds>
donor molecule, donor type, donor heavy atom, donor atom, acceptor molecule, acceptor atom, score
      L1  H     4    23       P1  8028  1.00
      L1  H    10    28       P1  7948  0.93
      L1  H    13    29       P1  7948  0.96
      P1  H  7989  7998       L1     3  0.24

> <Gold.PLP.Chemscore.Internal.Correction>
0.0088

> <Gold.Rescore>
     Score         DG    S(hbond)    S(metal)    S(lipo)     H(rot)  DE(clash)    DE(int)     intcor
     14.38     -16.66       2.92        0.00      52.81       1.85       0.01       2.28       ----

> <Gold.Chemscore.Fitness>
14.3792

> <Gold.Chemscore.DG>
-16.6617

> <Gold.Chemscore.ZeroCoef>
-5.4800

> <Gold.Chemscore.Hbond>
2.9162

> <Gold.Chemscore.Metal>
0.0000

> <Gold.Chemscore.Lipo>
52.8090

> <Gold.Chemscore.Internal_Hbond>
0.0000

> <Gold.Chemscore.DEClash>
0.0073

> <Gold.Chemscore.DEInternal>
2.2751

> <Gold.Chemscore.Rot>
1.8504

> <Gold.Chemscore.Internal.Correction>
   9.000000E+99

> <Gold.Chemscore.Hbonds>
donor molecule, donor type, donor heavy atom, donor atom, acceptor molecule, acceptor atom, score
      L1  H     4    23       P1  8028  0.95
      L1  H    10    28       P1  7948  0.89
      L1  H    13    29       P1  7948  0.92
      P1  H  7989  7998       L1     3  0.01

> <Gold.Chemscore.Hbond.Weighted>
-9.7400

> <Gold.Chemscore.Metal.Weighted>
-0.0000

> <Gold.Chemscore.Lipo.Weighted>
-6.1787

> <Gold.Chemscore.Internal_Hbond.Weighted>
0.0000

> <Gold.Chemscore.DEClash.Weighted>
0.0073

> <Gold.Chemscore.DEInternal.Weighted>
2.2751

> <Gold.Chemscore.Rot.Weighted>
4.7369

> <Gold.Chemscore.Internal.Correction.Weighted>
   9.000000E+99

> <Gold.Protein.RotatedTorsions>
[ 6907 6896 6895 6894 ] final  -18.55 input  -60.11 | X-H torsion
[ 7974 7965 7964 7962 ] final -179.87 input  175.53 | X-H torsion
[ 8008 7997 7996 7995 ] final  146.84 input   59.86 | X-H torsion
[ 10167 10162 10161 10158 ] final  120.21 input  -65.29 | X-H torsion
[ 10718 10713 10712 10709 ] final   49.54 input   66.30 | X-H torsion
[ 10763 10752 10751 10750 ] final    3.68 input  -60.55 | X-H torsion
[ 11005 11000 10999 10996 ] final  168.29 input  -57.11 | X-H torsion

> <Gold.Protein.ActiveResidues>
 VAL166  LYS551  ARG553  GLY616  TRP617  ASP618  TYR619  PRO620  LYS621  CYS622 
 ASP623  PHE694  ASN695  SER759  ASP760  ASP761  ALA762  ILE779  LEU786  VAL792 
 PHE793  MET794  SER795  GLU796  ALA797  LYS798  CYS799  TRP800  GLU811  SER814 

> <Gold.Protein.RotatedAtoms>
  151.2765  135.0701  159.9153 H   0  0  0  0  0  0  0  0  0  0  0  0  # atno 6907 bound_to 6896
  152.5341  134.0075  159.7933 H   0  0  0  0  0  0  0  0  0  0  0  0  # atno 6908 bound_to 6896
  151.0322  133.5730  159.2690 H   0  0  0  0  0  0  0  0  0  0  0  0  # atno 6909 bound_to 6896
  144.7140  140.0653  143.6431 H   0  0  0  0  0  0  0  0  0  0  0  0  # atno 7974 bound_to 7965
  156.2843  140.2171  156.5441 H   0  0  0  0  0  0  0  0  0  0  0  0  # atno 8008 bound_to 7997
  154.7345  140.0492  157.0779 H   0  0  0  0  0  0  0  0  0  0  0  0  # atno 8009 bound_to 7997
  155.0310  140.3135  155.4761 H   0  0  0  0  0  0  0  0  0  0  0  0  # atno 8010 bound_to 7997
  139.5996  144.7053  151.3093 H   0  0  0  0  0  0  0  0  0  0  0  0  # atno 10167 bound_to 10162
  157.4797  130.8307  149.8079 H   0  0  0  0  0  0  0  0  0  0  0  0  # atno 10718 bound_to 10713
  153.2803  135.6940  153.7392 H   0  0  0  0  0  0  0  0  0  0  0  0  # atno 10763 bound_to 10752
  153.6382  135.3398  155.3064 H   0  0  0  0  0  0  0  0  0  0  0  0  # atno 10764 bound_to 10752
  154.8493  135.4425  154.1854 H   0  0  0  0  0  0  0  0  0  0  0  0  # atno 10765 bound_to 10752
  140.2856  134.7714  157.3796 H   0  0  0  0  0  0  0  0  0  0  0  0  # atno 11005 bound_to 11000
  145.9830  139.2955  143.1031 LP  0  0  0  0  0  0  0  0  0  0  0  0  # atno 17320 bound_to 7965
  145.8989  140.9255  143.0513 LP  0  0  0  0  0  0  0  0  0  0  0  0  # atno 17321 bound_to 7965
  140.7239  143.7057  150.7809 LP  0  0  0  0  0  0  0  0  0  0  0  0  # atno 17342 bound_to 10162
  140.0631  143.5135  152.2618 LP  0  0  0  0  0  0  0  0  0  0  0  0  # atno 17343 bound_to 10162
  156.0115  130.3831  150.2250 LP  0  0  0  0  0  0  0  0  0  0  0  0  # atno 17370 bound_to 10713
  157.0435  131.0042  151.3276 LP  0  0  0  0  0  0  0  0  0  0  0  0  # atno 17371 bound_to 10713
  140.1242  134.5179  155.8158 LP  0  0  0  0  0  0  0  0  0  0  0  0  # atno 17394 bound_to 11000
  141.2155  133.6767  156.6922 LP  0  0  0  0  0  0  0  0  0  0  0  0  # atno 17395 bound_to 11000

$$$$
