AV-unprocessed.smi:739|AV-procd|sdf|3545|dock4
  -GOLD-   22720 0533D 1   1.00000     0.00000
 Structure written by MMmdl.
 33 35  0  0  0  0  0  0  0  0  2 V2000
  152.4172  139.6217  154.8875 O   0  0  0  0  0  0  0  0  0  0  0  0
  151.6278  139.0096  155.8894 C   0  0  1  0  0  0  0  0  0  0  0  0
  151.8462  139.7308  157.2341 C   0  0  0  0  0  0  0  0  0  0  0  0
  151.4607  141.1472  157.1908 N   0  0  0  0  0  0  0  0  0  0  0  0
  150.8334  141.8535  156.2115 C   0  0  0  0  0  0  0  0  0  0  0  0
  150.7040  143.1368  156.6502 N   0  3  0  0  0  0  0  0  0  0  0  0
  151.2573  143.2511  157.9279 C   0  0  0  0  0  0  0  0  0  0  0  0
  151.3658  144.3442  158.7816 C   0  0  0  0  0  0  0  0  0  0  0  0
  151.9916  144.1189  160.0257 C   0  0  0  0  0  0  0  0  0  0  0  0
  152.1220  145.1482  160.8956 F   0  0  0  0  0  0  0  0  0  0  0  0
  152.4830  142.8443  160.3805 C   0  0  0  0  0  0  0  0  0  0  0  0
  153.0772  142.6714  161.5849 F   0  0  0  0  0  0  0  0  0  0  0  0
  152.3679  141.7436  159.5060 C   0  0  0  0  0  0  0  0  0  0  0  0
  151.7463  141.9758  158.2802 C   0  0  0  0  0  0  0  0  0  0  0  0
  150.1539  138.9696  155.5188 C   0  0  0  0  0  0  0  0  0  0  0  0
  149.6827  139.7255  154.4238 C   0  0  0  0  0  0  0  0  0  0  0  0
  148.3204  139.6872  154.0680 C   0  0  0  0  0  0  0  0  0  0  0  0
  147.4218  138.8906  154.8032 C   0  0  0  0  0  0  0  0  0  0  0  0
  146.1125  138.8541  154.4604 F   0  0  0  0  0  0  0  0  0  0  0  0
  147.8864  138.1308  155.8939 C   0  0  0  0  0  0  0  0  0  0  0  0
  149.2484  138.1695  156.2508 C   0  0  0  0  0  0  0  0  0  0  0  0
  153.1675  139.0714  154.7204 H   0  0  0  0  0  0  0  0  0  0  0  0
  151.9835  137.9823  155.9775 H   0  0  0  0  0  0  0  0  0  0  0  0
  151.2589  139.2560  158.0216 H   0  0  0  0  0  0  0  0  0  0  0  0
  152.8894  139.6675  157.5465 H   0  0  0  0  0  0  0  0  0  0  0  0
  150.5022  141.4667  155.2583 H   0  0  0  0  0  0  0  0  0  0  0  0
  150.9916  145.3214  158.5136 H   0  0  0  0  0  0  0  0  0  0  0  0
  152.7479  140.7726  159.7865 H   0  0  0  0  0  0  0  0  0  0  0  0
  150.3640  140.3378  153.8510 H   0  0  0  0  0  0  0  0  0  0  0  0
  147.9649  140.2685  153.2299 H   0  0  0  0  0  0  0  0  0  0  0  0
  147.1983  137.5173  156.4565 H   0  0  0  0  0  0  0  0  0  0  0  0
  149.5953  137.5803  157.0871 H   0  0  0  0  0  0  0  0  0  0  0  0
  150.2700  143.8771  156.1135 H   0  0  0  0  0  0  0  0  0  0  0  0
  1  2  1  0  0  0  0
  1 22  1  0  0  0  0
  2  3  1  0  0  0  0
  2 15  1  0  0  0  0
  2 23  1  0  0  0  0
  3  4  1  0  0  0  0
  3 24  1  0  0  0  0
  3 25  1  0  0  0  0
  4 14  1  0  0  0  0
  4  5  1  0  0  0  0
  5  6  2  0  0  0  0
  5 26  1  0  0  0  0
  6  7  1  0  0  0  0
  6 33  1  0  0  0  0
  7 14  2  0  0  0  0
  7  8  1  0  0  0  0
  8  9  2  0  0  0  0
  8 27  1  0  0  0  0
  9 10  1  0  0  0  0
  9 11  1  0  0  0  0
 11 12  1  0  0  0  0
 11 13  2  0  0  0  0
 13 14  1  0  0  0  0
 13 28  1  0  0  0  0
 15 21  1  0  0  0  0
 15 16  2  0  0  0  0
 16 17  1  0  0  0  0
 16 29  1  0  0  0  0
 17 18  2  0  0  0  0
 17 30  1  0  0  0  0
 18 19  1  0  0  0  0
 18 20  1  0  0  0  0
 20 21  2  0  0  0  0
 20 31  1  0  0  0  0
 21 32  1  0  0  0  0
M  CHG  1   6   1
M  END
> <s_m_source_file>
AV-unprocessed.smi

> <i_m_source_file_index>
739

> <i_lp_mmshare_version>
43012

> <i_f3d_flags>
0

> <s_epik_input>
W2NIXTFbY0hdYyhGKVtjSF1bY0hdYzFbQ0BIXShbT0hdKVtDSDJdbihbY0hdbjIpYyhjMjMpW2NIXWMoRiljKEYpW2NIXTM=

> <s_epik_cmdline>
J2VwaWtfcHl0aG9uJywgJy1waCcsICc3LjAnLCAnLXRuJywgJzgnLCAnLW1hJywgJzIwMCcsICctbWV0YWxfYmluZGluZycsICctaW1hZScsICc8aW5maWxlLm1hZT4nLCAnLW9tYWUnLCAnPG91dGZpbGUubWFlPic=

> <r_epik_Ionization_Penalty>
2.16139

> <r_epik_Ionization_Penalty_Charging>
2.16138

> <r_epik_Ionization_Penalty_Neutral>
1.79538e-06

> <r_epik_State_Penalty>
2.30198

> <r_epik_Charging_Adjusted_Penalty>
4.46337

> <i_epik_Tot_Q>
1

> <i_epik_Tot_abs_Q>
1

> <r_epik_Metal_State_Penalty>
6.38245

> <b_epik_Metal_Only>
0

> <s_lp_Force_Field>
OPLS_2005

> <r_lp_Energy>
14.9103

> <b_lp_Chiralities_Consistent>
1

> <s_lp_Variant>
AV-unprocessed.smi:739-4

> <Gold.Version>
5.8.1

> <Gold.Id.Protein>
6NUR|6NUR_protein|mol2

> <Gold.PLP.Fitness>
49.6836

> <Gold.PLP.PLP>
-42.2003

> <Gold.PLP.part.hbond>
-2.0323

> <Gold.PLP.part.metal>
0.0000

> <Gold.PLP.part.buried>
-5.3807

> <Gold.PLP.part.nonpolar>
-35.1482

> <Gold.PLP.part.repulsive>
0.0563

> <Gold.PLP.ligand.clash>
0.0000

> <Gold.PLP.ligand.torsion>
0.2768

> <Gold.PLP.Chemscore.Hbond>
2.6720

> <Gold.PLP.Chemscore.CHOScore>
0.0000

> <Gold.PLP.Chemscore.Metal>
0.0000

> <Gold.Chemscore.Hbonds>
donor molecule, donor type, donor heavy atom, donor atom, acceptor molecule, acceptor atom, score
      L1  H     6    33       P1  8028  2.00
      P1  H  7989  7998       L1     1  0.69

> <Gold.PLP.Chemscore.Internal.Correction>
0.0210

> <Gold.Rescore>
     Score         DG    S(hbond)    S(metal)    S(lipo)     H(rot)  DE(clash)    DE(int)     intcor
     15.45     -16.75       1.59        0.00      97.21       2.12       0.12       1.18       ----

> <Gold.Chemscore.Fitness>
15.4549

> <Gold.Chemscore.DG>
-16.7470

> <Gold.Chemscore.ZeroCoef>
-5.4800

> <Gold.Chemscore.Hbond>
1.5912

> <Gold.Chemscore.Metal>
0.0000

> <Gold.Chemscore.Lipo>
97.2094

> <Gold.Chemscore.Internal_Hbond>
0.0000

> <Gold.Chemscore.DEClash>
0.1163

> <Gold.Chemscore.DEInternal>
1.1759

> <Gold.Chemscore.Rot>
2.1176

> <Gold.Chemscore.Internal.Correction>
   9.000000E+99

> <Gold.Chemscore.Hbonds>
donor molecule, donor type, donor heavy atom, donor atom, acceptor molecule, acceptor atom, score
      L1  H     6    33       P1  8028  0.95
      P1  H  7989  7998       L1     1  0.64

> <Gold.Chemscore.Hbond.Weighted>
-5.3146

> <Gold.Chemscore.Metal.Weighted>
-0.0000

> <Gold.Chemscore.Lipo.Weighted>
-11.3735

> <Gold.Chemscore.Internal_Hbond.Weighted>
0.0000

> <Gold.Chemscore.DEClash.Weighted>
0.1163

> <Gold.Chemscore.DEInternal.Weighted>
1.1759

> <Gold.Chemscore.Rot.Weighted>
5.4211

> <Gold.Chemscore.Internal.Correction.Weighted>
   9.000000E+99

> <Gold.Protein.RotatedTorsions>
[ 6907 6896 6895 6894 ] final  130.55 input  -60.11 | X-H torsion
[ 7974 7965 7964 7962 ] final  133.97 input  175.53 | X-H torsion
[ 8008 7997 7996 7995 ] final  101.13 input   59.86 | X-H torsion
[ 10167 10162 10161 10158 ] final -148.18 input  -65.29 | X-H torsion
[ 10718 10713 10712 10709 ] final  118.06 input   66.30 | X-H torsion
[ 10763 10752 10751 10750 ] final -154.33 input  -60.55 | X-H torsion
[ 11005 11000 10999 10996 ] final -108.08 input  -57.11 | X-H torsion

> <Gold.Protein.ActiveResidues>
 VAL166  LYS551  ARG553  GLY616  TRP617  ASP618  TYR619  PRO620  LYS621  CYS622 
 ASP623  PHE694  ASN695  SER759  ASP760  ASP761  ALA762  ILE779  LEU786  VAL792 
 PHE793  MET794  SER795  GLU796  ALA797  LYS798  CYS799  TRP800  GLU811  SER814 

> <Gold.Protein.RotatedAtoms>
  152.3515  133.6185  159.5947 H   0  0  0  0  0  0  0  0  0  0  0  0  # atno 6907 bound_to 6896
  150.7541  133.9567  159.3511 H   0  0  0  0  0  0  0  0  0  0  0  0  # atno 6908 bound_to 6896
  151.7418  135.0853  160.0368 H   0  0  0  0  0  0  0  0  0  0  0  0  # atno 6909 bound_to 6896
  144.9811  139.4503  143.5385 H   0  0  0  0  0  0  0  0  0  0  0  0  # atno 7974 bound_to 7965
  156.1270  140.3202  155.8292 H   0  0  0  0  0  0  0  0  0  0  0  0  # atno 8008 bound_to 7997
  155.4402  140.0525  157.3028 H   0  0  0  0  0  0  0  0  0  0  0  0  # atno 8009 bound_to 7997
  154.4870  140.2076  155.9646 H   0  0  0  0  0  0  0  0  0  0  0  0  # atno 8010 bound_to 7997
  139.7554  143.8455  152.2596 H   0  0  0  0  0  0  0  0  0  0  0  0  # atno 10167 bound_to 10162
  157.6056  131.1044  150.7702 H   0  0  0  0  0  0  0  0  0  0  0  0  # atno 10718 bound_to 10713
  154.7866  135.3192  154.7873 H   0  0  0  0  0  0  0  0  0  0  0  0  # atno 10763 bound_to 10752
  153.8571  135.6857  153.4790 H   0  0  0  0  0  0  0  0  0  0  0  0  # atno 10764 bound_to 10752
  153.1520  135.4695  154.9589 H   0  0  0  0  0  0  0  0  0  0  0  0  # atno 10765 bound_to 10752
  141.0920  133.9037  157.2052 H   0  0  0  0  0  0  0  0  0  0  0  0  # atno 11005 bound_to 11000
  146.3408  139.9085  142.8784 LP  0  0  0  0  0  0  0  0  0  0  0  0  # atno 17320 bound_to 7965
  145.2419  141.0012  143.3931 LP  0  0  0  0  0  0  0  0  0  0  0  0  # atno 17321 bound_to 7965
  139.8446  144.7194  150.9289 LP  0  0  0  0  0  0  0  0  0  0  0  0  # atno 17342 bound_to 10162
  140.7802  143.3953  151.1240 LP  0  0  0  0  0  0  0  0  0  0  0  0  # atno 17343 bound_to 10162
  156.8091  130.4946  149.5358 LP  0  0  0  0  0  0  0  0  0  0  0  0  # atno 17370 bound_to 10713
  156.1141  130.6062  151.0093 LP  0  0  0  0  0  0  0  0  0  0  0  0  # atno 17371 bound_to 10713
  139.9748  135.0117  156.9604 LP  0  0  0  0  0  0  0  0  0  0  0  0  # atno 17394 bound_to 11000
  140.5229  134.0890  155.7296 LP  0  0  0  0  0  0  0  0  0  0  0  0  # atno 17395 bound_to 11000

$$$$
