AV-unprocessed.smi:510|AV-procd|sdf|2763|dock6
  -GOLD-   2262023233D 1   1.00000     0.00000
 Structure written by MMmdl.
 29 30  0  0  0  0  0  0  0  0  2 V2000
  151.2316  138.6287  154.2420 C   0  0  0  0  0  0  0  0  0  0  0  0
  150.6846  139.9117  154.4894 O   0  0  0  0  0  0  0  0  0  0  0  0
  151.2291  140.5179  155.6492 C   0  0  0  0  0  0  0  0  0  0  0  0
  150.0921  140.8095  156.6357 C   0  0  0  0  0  0  0  0  0  0  0  0
  150.5644  141.5590  157.7949 N   0  0  0  0  0  0  0  0  0  0  0  0
  150.0830  142.7348  158.2692 C   0  0  0  0  0  0  0  0  0  0  0  0
  149.0276  143.3769  157.6375 N   0  0  0  0  0  0  0  0  0  0  0  0
  150.6983  143.2026  159.3553 N   0  0  0  0  0  0  0  0  0  0  0  0
  151.6687  142.2373  159.5880 C   0  0  0  0  0  0  0  0  0  0  0  0
  151.6151  141.2447  158.6599 C   0  0  0  0  0  0  0  0  0  0  0  0
  152.5348  140.0885  158.6365 C   0  0  0  0  0  0  0  0  0  0  0  0
  152.4503  139.2291  157.7615 O   0  0  0  0  0  0  0  0  0  0  0  0
  153.4365  140.1274  159.6684 N   0  5  0  0  0  0  0  0  0  0  0  0
  153.5239  141.1081  160.6344 C   0  0  0  0  0  0  0  0  0  0  0  0
  154.3706  141.0588  161.5270 O   0  0  0  0  0  0  0  0  0  0  0  0
  152.6522  142.1677  160.6097 N   0  0  0  0  0  0  0  0  0  0  0  0
  152.6781  143.2498  161.5983 C   0  0  0  0  0  0  0  0  0  0  0  0
  150.7831  138.2060  153.3431 H   0  0  0  0  0  0  0  0  0  0  0  0
  151.0307  137.9486  155.0708 H   0  0  0  0  0  0  0  0  0  0  0  0
  152.3099  138.6829  154.0868 H   0  0  0  0  0  0  0  0  0  0  0  0
  151.9673  139.8573  156.1069 H   0  0  0  0  0  0  0  0  0  0  0  0
  151.7381  141.4448  155.3798 H   0  0  0  0  0  0  0  0  0  0  0  0
  149.3026  141.3735  156.1385 H   0  0  0  0  0  0  0  0  0  0  0  0
  149.6231  139.8849  156.9705 H   0  0  0  0  0  0  0  0  0  0  0  0
  148.5937  142.9872  156.8134 H   0  0  0  0  0  0  0  0  0  0  0  0
  148.6608  144.2523  157.9817 H   0  0  0  0  0  0  0  0  0  0  0  0
  153.4375  143.1372  162.3724 H   0  0  0  0  0  0  0  0  0  0  0  0
  151.7120  143.3148  162.0998 H   0  0  0  0  0  0  0  0  0  0  0  0
  152.8610  144.2018  161.0991 H   0  0  0  0  0  0  0  0  0  0  0  0
  1  2  1  0  0  0  0
  1 18  1  0  0  0  0
  1 19  1  0  0  0  0
  1 20  1  0  0  0  0
  2  3  1  0  0  0  0
  3  4  1  0  0  0  0
  3 21  1  0  0  0  0
  3 22  1  0  0  0  0
  4  5  1  0  0  0  0
  4 23  1  0  0  0  0
  4 24  1  0  0  0  0
  5 10  1  0  0  0  0
  5  6  1  0  0  0  0
  6  7  1  0  0  0  0
  6  8  2  0  0  0  0
  7 25  1  0  0  0  0
  7 26  1  0  0  0  0
  8  9  1  0  0  0  0
  9 16  1  0  0  0  0
  9 10  2  0  0  0  0
 10 11  1  0  0  0  0
 11 12  2  0  0  0  0
 11 13  1  0  0  0  0
 13 14  1  0  0  0  0
 14 15  2  0  0  0  0
 14 16  1  0  0  0  0
 16 17  1  0  0  0  0
 17 27  1  0  0  0  0
 17 28  1  0  0  0  0
 17 29  1  0  0  0  0
M  CHG  1  13  -1
M  END
> <s_m_source_file>
AV-unprocessed.smi

> <i_m_source_file_index>
510

> <i_lp_mmshare_version>
43012

> <i_f3d_flags>
0

> <s_epik_input>
W0NIM11PW0NIMl1bQ0gyXW4oYyhuMSlbTkgyXSljKGMxMiljKD1PKVtuSF1jKD1PKW4yW0NIM10=

> <s_epik_cmdline>
J2VwaWtfcHl0aG9uJywgJy1waCcsICc3LjAnLCAnLXRuJywgJzgnLCAnLW1hJywgJzIwMCcsICctbWV0YWxfYmluZGluZycsICctaW1hZScsICc8aW5maWxlLm1hZT4nLCAnLW9tYWUnLCAnPG91dGZpbGUubWFlPic=

> <r_lp_tautomer_probability>
1

> <r_epik_Ionization_Penalty>
5.7178

> <r_epik_Ionization_Penalty_Charging>
1.59161e-08

> <r_epik_Ionization_Penalty_Neutral>
5.7178

> <r_epik_State_Penalty>
5.71748

> <r_epik_Charging_Adjusted_Penalty>
5.71748

> <i_epik_Tot_Q>
-1

> <i_epik_Tot_abs_Q>
1

> <r_epik_Metal_State_Penalty>
1.69653

> <b_epik_Metal_Only>
1

> <s_lp_Force_Field>
OPLS_2005

> <r_lp_Energy>
28.6626

> <b_lp_Chiralities_Consistent>
1

> <s_lp_Variant>
AV-unprocessed.smi:510-2

> <Gold.Version>
5.8.1

> <Gold.Id.Protein>
6NUR|6NUR_protein|mol2

> <Gold.PLP.Fitness>
40.9547

> <Gold.PLP.PLP>
-35.0650

> <Gold.PLP.part.hbond>
-4.9757

> <Gold.PLP.part.metal>
0.0000

> <Gold.PLP.part.buried>
-4.5196

> <Gold.PLP.part.nonpolar>
-23.9417

> <Gold.PLP.part.repulsive>
0.1370

> <Gold.PLP.ligand.clash>
0.0000

> <Gold.PLP.ligand.torsion>
0.4194

> <Gold.PLP.Chemscore.Hbond>
2.2418

> <Gold.PLP.Chemscore.CHOScore>
0.0000

> <Gold.PLP.Chemscore.Metal>
0.0000

> <Gold.Chemscore.Hbonds>
donor molecule, donor type, donor heavy atom, donor atom, acceptor molecule, acceptor atom, score
      L1  H     7    26       P1  8029  0.54
      P1  H  7989  7998       L1     2  0.60
      P1  H  7997  8009       L1    12  0.03

> <Gold.PLP.Chemscore.Internal.Correction>
0.0029

> <Gold.Rescore>
     Score         DG    S(hbond)    S(metal)    S(lipo)     H(rot)  DE(clash)    DE(int)     intcor
      6.55      -8.70       0.88        0.00      41.00       1.77       0.25       1.90       ----

> <Gold.Chemscore.Fitness>
6.5546

> <Gold.Chemscore.DG>
-8.6999

> <Gold.Chemscore.ZeroCoef>
-5.4800

> <Gold.Chemscore.Hbond>
0.8817

> <Gold.Chemscore.Metal>
0.0000

> <Gold.Chemscore.Lipo>
40.9977

> <Gold.Chemscore.Internal_Hbond>
0.0000

> <Gold.Chemscore.DEClash>
0.2495

> <Gold.Chemscore.DEInternal>
1.8958

> <Gold.Chemscore.Rot>
1.7663

> <Gold.Chemscore.Internal.Correction>
   9.000000E+99

> <Gold.Chemscore.Hbonds>
donor molecule, donor type, donor heavy atom, donor atom, acceptor molecule, acceptor atom, score
      L1  H     7    25       P1  8028  0.01
      L1  H     7    26       P1  8029  0.05
      P1  H  7989  7998       L1     2  0.01

> <Gold.Chemscore.Hbond.Weighted>
-2.9448

> <Gold.Chemscore.Metal.Weighted>
-0.0000

> <Gold.Chemscore.Lipo.Weighted>
-4.7967

> <Gold.Chemscore.Internal_Hbond.Weighted>
0.0000

> <Gold.Chemscore.DEClash.Weighted>
0.2495

> <Gold.Chemscore.DEInternal.Weighted>
1.8958

> <Gold.Chemscore.Rot.Weighted>
4.5217

> <Gold.Chemscore.Internal.Correction.Weighted>
   9.000000E+99

> <Gold.Protein.RotatedTorsions>
[ 6907 6896 6895 6894 ] final  174.38 input  -60.11 | X-H torsion
[ 7974 7965 7964 7962 ] final  -48.01 input  175.53 | X-H torsion
[ 8008 7997 7996 7995 ] final  155.70 input   59.86 | X-H torsion
[ 10167 10162 10161 10158 ] final -149.28 input  -65.29 | X-H torsion
[ 10718 10713 10712 10709 ] final  136.05 input   66.30 | X-H torsion
[ 10763 10752 10751 10750 ] final  -53.35 input  -60.55 | X-H torsion
[ 11005 11000 10999 10996 ] final -120.66 input  -57.11 | X-H torsion

> <Gold.Protein.ActiveResidues>
 VAL166  LYS551  ARG553  GLY616  TRP617  ASP618  TYR619  PRO620  LYS621  CYS622 
 ASP623  PHE694  ASN695  SER759  ASP760  ASP761  ALA762  ILE779  LEU786  VAL792 
 PHE793  MET794  SER795  GLU796  ALA797  LYS798  CYS799  TRP800  GLU811  SER814 

> <Gold.Protein.RotatedAtoms>
  151.7531  133.3328  159.3396 H   0  0  0  0  0  0  0  0  0  0  0  0  # atno 6907 bound_to 6896
  150.7527  134.6174  159.6127 H   0  0  0  0  0  0  0  0  0  0  0  0  # atno 6908 bound_to 6896
  152.3455  134.7079  160.0303 H   0  0  0  0  0  0  0  0  0  0  0  0  # atno 6909 bound_to 6896
  145.9556  140.7529  142.9483 H   0  0  0  0  0  0  0  0  0  0  0  0  # atno 7974 bound_to 7965
  156.2464  140.1932  156.6842 H   0  0  0  0  0  0  0  0  0  0  0  0  # atno 8008 bound_to 7997
  154.6299  140.0597  156.9746 H   0  0  0  0  0  0  0  0  0  0  0  0  # atno 8009 bound_to 7997
  155.1727  140.3269  155.4392 H   0  0  0  0  0  0  0  0  0  0  0  0  # atno 8010 bound_to 7997
  139.7456  143.8595  152.2574 H   0  0  0  0  0  0  0  0  0  0  0  0  # atno 10167 bound_to 10162
  157.4507  131.1065  151.0037 H   0  0  0  0  0  0  0  0  0  0  0  0  # atno 10718 bound_to 10713
  154.1574  135.6480  153.4978 H   0  0  0  0  0  0  0  0  0  0  0  0  # atno 10763 bound_to 10752
  153.0120  135.5352  154.6746 H   0  0  0  0  0  0  0  0  0  0  0  0  # atno 10764 bound_to 10752
  154.6050  135.2947  155.0466 H   0  0  0  0  0  0  0  0  0  0  0  0  # atno 10765 bound_to 10752
  141.0127  134.0240  157.3391 H   0  0  0  0  0  0  0  0  0  0  0  0  # atno 11005 bound_to 11000
  144.6804  140.2507  143.7332 LP  0  0  0  0  0  0  0  0  0  0  0  0  # atno 17320 bound_to 7965
  145.8111  139.2003  143.1993 LP  0  0  0  0  0  0  0  0  0  0  0  0  # atno 17321 bound_to 7965
  139.8558  144.7142  150.9158 LP  0  0  0  0  0  0  0  0  0  0  0  0  # atno 17342 bound_to 10162
  140.7791  143.3859  151.1394 LP  0  0  0  0  0  0  0  0  0  0  0  0  # atno 17343 bound_to 10162
  157.0868  130.5925  149.5431 LP  0  0  0  0  0  0  0  0  0  0  0  0  # atno 17370 bound_to 10713
  155.9986  130.5060  150.7576 LP  0  0  0  0  0  0  0  0  0  0  0  0  # atno 17371 bound_to 10713
  139.9099  135.0188  156.7648 LP  0  0  0  0  0  0  0  0  0  0  0  0  # atno 17394 bound_to 11000
  140.6706  133.9563  155.7854 LP  0  0  0  0  0  0  0  0  0  0  0  0  # atno 17395 bound_to 11000

$$$$
