AV-unprocessed.smi:753|AV-procd|sdf|3601|dock7
  -GOLD-   22720 0593D 1   1.00000     0.00000
 Structure written by MMmdl.
 43 45  0  0  0  0  0  0  0  0  1 V2000
  145.5203  136.0705  150.5971 C   0  0  0  0  0  0  0  0  0  0  0  0
  145.8921  137.0892  151.6540 C   0  0  0  0  0  0  0  0  0  0  0  0
  145.4573  136.9374  152.9874 C   0  0  0  0  0  0  0  0  0  0  0  0
  145.8298  137.9152  153.9294 C   0  0  0  0  0  0  0  0  0  0  0  0
  146.6194  139.0034  153.5041 C   0  0  0  0  0  0  0  0  0  0  0  0
  147.0278  140.1000  154.4721 C   0  0  0  0  0  0  0  0  0  0  0  0
  147.9413  141.1690  153.8434 C   0  0  0  0  0  0  0  0  0  0  0  0
  148.6023  141.9940  154.8512 N   0  0  0  0  0  0  0  0  0  0  0  0
  149.1893  141.5406  155.9725 C   0  0  0  0  0  0  0  0  0  0  0  0
  149.2280  140.3531  156.2886 O   0  0  0  0  0  0  0  0  0  0  0  0
  149.7520  142.4944  156.7343 N   0  0  0  0  0  0  0  0  0  0  0  0
  150.4623  142.3273  158.0048 C   0  0  2  0  0  0  0  0  0  0  0  0
  149.7609  143.1052  159.1404 C   0  0  0  0  0  0  0  0  0  0  0  0
  150.8628  144.0538  159.6472 C   0  0  2  0  0  0  0  0  0  0  0  0
  151.1220  145.1529  158.5988 C   0  0  0  0  0  0  0  0  0  0  0  0
  151.8748  144.3950  157.4892 C   0  0  0  0  0  0  0  0  0  0  0  0
  151.8856  142.9449  158.0197 C   0  0  1  0  0  0  0  0  0  0  0  0
  152.1051  143.1844  159.5096 C   0  0  0  0  0  0  0  0  0  0  0  0
  147.0049  139.0586  152.1481 C   0  0  0  0  0  0  0  0  0  0  0  0
  146.6538  138.1250  151.2379 N   0  0  0  0  0  0  0  0  0  0  0  0
  144.6805  135.4561  150.9230 H   0  0  0  0  0  0  0  0  0  0  0  0
  146.3661  135.4141  150.3922 H   0  0  0  0  0  0  0  0  0  0  0  0
  145.2351  136.5648  149.6677 H   0  0  0  0  0  0  0  0  0  0  0  0
  144.8505  136.0945  153.2837 H   0  0  0  0  0  0  0  0  0  0  0  0
  145.5064  137.8336  154.9567 H   0  0  0  0  0  0  0  0  0  0  0  0
  146.1315  140.5745  154.8739 H   0  0  0  0  0  0  0  0  0  0  0  0
  147.5339  139.6418  155.3225 H   0  0  0  0  0  0  0  0  0  0  0  0
  148.7127  140.6828  153.2460 H   0  0  0  0  0  0  0  0  0  0  0  0
  147.3706  141.7904  153.1512 H   0  0  0  0  0  0  0  0  0  0  0  0
  148.6244  142.9885  154.6792 H   0  0  0  0  0  0  0  0  0  0  0  0
  149.6944  143.4403  156.3855 H   0  0  0  0  0  0  0  0  0  0  0  0
  150.5044  141.2694  158.2723 H   0  0  0  0  0  0  0  0  0  0  0  0
  148.8746  143.6498  158.8109 H   0  0  0  0  0  0  0  0  0  0  0  0
  149.4492  142.4216  159.9313 H   0  0  0  0  0  0  0  0  0  0  0  0
  150.6782  144.4403  160.6498 H   0  0  0  0  0  0  0  0  0  0  0  0
  150.1965  145.6041  158.2389 H   0  0  0  0  0  0  0  0  0  0  0  0
  151.7448  145.9484  159.0099 H   0  0  0  0  0  0  0  0  0  0  0  0
  151.4038  144.5011  156.5120 H   0  0  0  0  0  0  0  0  0  0  0  0
  152.8939  144.7733  157.3982 H   0  0  0  0  0  0  0  0  0  0  0  0
  152.6403  142.3162  157.5463 H   0  0  0  0  0  0  0  0  0  0  0  0
  153.0325  143.7152  159.7325 H   0  0  0  0  0  0  0  0  0  0  0  0
  152.0634  142.2713  160.1060 H   0  0  0  0  0  0  0  0  0  0  0  0
  147.6045  139.8787  151.7812 H   0  0  0  0  0  0  0  0  0  0  0  0
  1  2  1  0  0  0  0
  1 21  1  0  0  0  0
  1 22  1  0  0  0  0
  1 23  1  0  0  0  0
  2 20  1  0  0  0  0
  2  3  2  0  0  0  0
  3  4  1  0  0  0  0
  3 24  1  0  0  0  0
  4  5  2  0  0  0  0
  4 25  1  0  0  0  0
  5  6  1  0  0  0  0
  5 19  1  0  0  0  0
  6  7  1  0  0  0  0
  6 26  1  0  0  0  0
  6 27  1  0  0  0  0
  7  8  1  0  0  0  0
  7 28  1  0  0  0  0
  7 29  1  0  0  0  0
  8  9  1  0  0  0  0
  8 30  1  0  0  0  0
  9 10  2  0  0  0  0
  9 11  1  0  0  0  0
 11 12  1  0  0  0  0
 11 31  1  0  0  0  0
 12 17  1  0  0  0  0
 12 13  1  0  0  0  0
 12 32  1  0  0  0  0
 13 14  1  0  0  0  0
 13 33  1  0  0  0  0
 13 34  1  0  0  0  0
 14 18  1  0  0  0  0
 14 15  1  0  0  0  0
 14 35  1  0  0  0  0
 15 16  1  0  0  0  0
 15 36  1  0  0  0  0
 15 37  1  0  0  0  0
 16 17  1  0  0  0  0
 16 38  1  0  0  0  0
 16 39  1  0  0  0  0
 17 18  1  0  0  0  0
 17 40  1  0  0  0  0
 18 41  1  0  0  0  0
 18 42  1  0  0  0  0
 19 20  2  0  0  0  0
 19 43  1  0  0  0  0
M  END
> <s_m_source_file>
AV-unprocessed.smi

> <i_m_source_file_index>
753

> <i_lp_mmshare_version>
43012

> <i_f3d_flags>
0

> <s_epik_input>
W0NIM11jMVtjSF1bY0hdYyhbY0hdbjEpW0NIMl1bQ0gyXVtOSF1DKD1PKVtOSF1bQ0BIXShbQ0gyXVtDQEBIXTIzKVtDQEBIXShbQ0gyXTMpW0NIMl1bQ0gyXTI=

> <s_epik_cmdline>
J2VwaWtfcHl0aG9uJywgJy1waCcsICc3LjAnLCAnLXRuJywgJzgnLCAnLW1hJywgJzIwMCcsICctbWV0YWxfYmluZGluZycsICctaW1hZScsICc8aW5maWxlLm1hZT4nLCAnLW9tYWUnLCAnPG91dGZpbGUubWFlPic=

> <r_epik_Ionization_Penalty>
0.0569047

> <r_epik_Ionization_Penalty_Charging>
0

> <r_epik_Ionization_Penalty_Neutral>
0.0569047

> <r_epik_State_Penalty>
0.0490541

> <r_epik_Charging_Adjusted_Penalty>
0.0490541

> <i_epik_Tot_Q>
0

> <i_epik_Tot_abs_Q>
0

> <r_epik_Metal_State_Penalty>
0.0447357

> <b_epik_Metal_Only>
0

> <s_lp_Force_Field>
OPLS_2005

> <r_lp_Energy>
52.9013

> <b_lp_Chiralities_Consistent>
1

> <s_lp_Variant>
AV-unprocessed.smi:753-3

> <Gold.Version>
5.8.1

> <Gold.Id.Protein>
6NUR|6NUR_protein|mol2

> <Gold.PLP.Fitness>
44.8748

> <Gold.PLP.PLP>
-33.7518

> <Gold.PLP.part.hbond>
-3.0000

> <Gold.PLP.part.metal>
0.0000

> <Gold.PLP.part.buried>
-0.7380

> <Gold.PLP.part.nonpolar>
-31.9763

> <Gold.PLP.part.repulsive>
1.4782

> <Gold.PLP.ligand.clash>
0.0000

> <Gold.PLP.ligand.torsion>
0.1830

> <Gold.PLP.Chemscore.Hbond>
2.8233

> <Gold.PLP.Chemscore.CHOScore>
1.0000

> <Gold.PLP.Chemscore.Metal>
0.0000

> <Gold.Chemscore.Hbonds>
donor molecule, donor type, donor heavy atom, donor atom, acceptor molecule, acceptor atom, score
      L1  H     8    30       P1  8028  0.83
      L1  H    11    31       P1  8028  1.00
      P1  H  7954  7966       L1    20  0.98
      L1  C    19    43       P1  7957  1.00

> <Gold.PLP.Chemscore.Internal.Correction>
0.0193

> <Gold.Rescore>
     Score         DG    S(hbond)    S(metal)    S(lipo)     H(rot)  DE(clash)    DE(int)     intcor
     20.30     -23.51       2.44        0.00     115.68       1.43       1.57       1.64       ----

> <Gold.Chemscore.Fitness>
20.3006

> <Gold.Chemscore.DG>
-23.5138

> <Gold.Chemscore.ZeroCoef>
-5.4800

> <Gold.Chemscore.Hbond>
2.4424

> <Gold.Chemscore.Metal>
0.0000

> <Gold.Chemscore.Lipo>
115.6815

> <Gold.Chemscore.Internal_Hbond>
0.0000

> <Gold.Chemscore.DEClash>
1.5737

> <Gold.Chemscore.DEInternal>
1.6395

> <Gold.Chemscore.Rot>
1.4291

> <Gold.Chemscore.Internal.Correction>
   9.000000E+99

> <Gold.Chemscore.Hbonds>
donor molecule, donor type, donor heavy atom, donor atom, acceptor molecule, acceptor atom, score
      L1  H     8    30       P1  8028  0.81
      L1  H    11    31       P1  8028  0.97
      P1  H  7954  7966       L1    20  0.68

> <Gold.Chemscore.Hbond.Weighted>
-8.1575

> <Gold.Chemscore.Metal.Weighted>
-0.0000

> <Gold.Chemscore.Lipo.Weighted>
-13.5347

> <Gold.Chemscore.Internal_Hbond.Weighted>
0.0000

> <Gold.Chemscore.DEClash.Weighted>
1.5737

> <Gold.Chemscore.DEInternal.Weighted>
1.6395

> <Gold.Chemscore.Rot.Weighted>
3.6585

> <Gold.Chemscore.Internal.Correction.Weighted>
   9.000000E+99

> <Gold.Protein.RotatedTorsions>
[ 6907 6896 6895 6894 ] final -144.19 input  -60.11 | X-H torsion
[ 7974 7965 7964 7962 ] final   66.94 input  175.53 | X-H torsion
[ 8008 7997 7996 7995 ] final   -0.78 input   59.86 | X-H torsion
[ 10167 10162 10161 10158 ] final -121.75 input  -65.29 | X-H torsion
[ 10718 10713 10712 10709 ] final  -96.57 input   66.30 | X-H torsion
[ 10763 10752 10751 10750 ] final -168.18 input  -60.55 | X-H torsion
[ 11005 11000 10999 10996 ] final  178.08 input  -57.11 | X-H torsion

> <Gold.Protein.ActiveResidues>
 VAL166  LYS551  ARG553  GLY616  TRP617  ASP618  TYR619  PRO620  LYS621  CYS622 
 ASP623  PHE694  ASN695  SER759  ASP760  ASP761  ALA762  ILE779  LEU786  VAL792 
 PHE793  MET794  SER795  GLU796  ALA797  LYS798  CYS799  TRP800  GLU811  SER814 

> <Gold.Protein.RotatedAtoms>
  151.1107  133.5175  159.2605 H   0  0  0  0  0  0  0  0  0  0  0  0  # atno 6907 bound_to 6896
  151.1971  135.0426  159.8866 H   0  0  0  0  0  0  0  0  0  0  0  0  # atno 6908 bound_to 6896
  152.5450  134.0940  159.8342 H   0  0  0  0  0  0  0  0  0  0  0  0  # atno 6909 bound_to 6896
  145.8206  139.3082  143.1046 H   0  0  0  0  0  0  0  0  0  0  0  0  # atno 7974 bound_to 7965
  154.6542  140.2576  155.7180 H   0  0  0  0  0  0  0  0  0  0  0  0  # atno 8008 bound_to 7997
  156.2589  140.2861  156.0910 H   0  0  0  0  0  0  0  0  0  0  0  0  # atno 8009 bound_to 7997
  155.1405  140.0380  157.2787 H   0  0  0  0  0  0  0  0  0  0  0  0  # atno 8010 bound_to 7997
  140.0217  143.5338  152.2217 H   0  0  0  0  0  0  0  0  0  0  0  0  # atno 10167 bound_to 10162
  156.0065  130.5157  150.6245 H   0  0  0  0  0  0  0  0  0  0  0  0  # atno 10718 bound_to 10713
  154.6655  135.2931  154.9811 H   0  0  0  0  0  0  0  0  0  0  0  0  # atno 10763 bound_to 10752
  154.0856  135.6598  153.4848 H   0  0  0  0  0  0  0  0  0  0  0  0  # atno 10764 bound_to 10752
  153.0455  135.5208  154.7626 H   0  0  0  0  0  0  0  0  0  0  0  0  # atno 10765 bound_to 10752
  140.3911  134.6861  157.4508 H   0  0  0  0  0  0  0  0  0  0  0  0  # atno 11005 bound_to 11000
  145.9679  140.8783  143.0177 LP  0  0  0  0  0  0  0  0  0  0  0  0  # atno 17320 bound_to 7965
  144.6748  140.1904  143.7397 LP  0  0  0  0  0  0  0  0  0  0  0  0  # atno 17321 bound_to 7965
  139.6135  144.7614  151.2898 LP  0  0  0  0  0  0  0  0  0  0  0  0  # atno 17342 bound_to 10162
  140.7340  143.6780  150.8025 LP  0  0  0  0  0  0  0  0  0  0  0  0  # atno 17343 bound_to 10162
  157.4055  131.0816  151.1269 LP  0  0  0  0  0  0  0  0  0  0  0  0  # atno 17370 bound_to 10713
  157.1917  130.6355  149.5707 LP  0  0  0  0  0  0  0  0  0  0  0  0  # atno 17371 bound_to 10713
  140.0406  134.6273  155.8986 LP  0  0  0  0  0  0  0  0  0  0  0  0  # atno 17394 bound_to 11000
  141.1890  133.6564  156.5350 LP  0  0  0  0  0  0  0  0  0  0  0  0  # atno 17395 bound_to 11000

$$$$
