AV-unprocessed.smi:1565|AV-procd|sdf|6302|dock3
  -GOLD-   22720 6503D 1   1.00000     0.00000
 Structure written by MMmdl.
 39 40  0  0  0  0  0  0  0  0  2 V2000
  147.1439  128.7348  151.6934 C   0  0  0  0  0  0  0  0  0  0  0  0
  146.1405  129.5821  152.4960 C   0  0  1  0  0  0  0  0  0  0  0  0
  146.8114  130.5187  153.5195 C   0  0  0  0  0  0  0  0  0  0  0  0
  147.4206  131.6686  152.8574 N   0  0  0  0  0  0  0  0  0  0  0  0
  148.2962  132.4308  153.6595 C   0  0  0  0  0  0  0  0  0  0  0  0
  149.3639  131.7989  154.3382 C   0  0  0  0  0  0  0  0  0  0  0  0
  150.2222  132.5743  155.1415 C   0  0  0  0  0  0  0  0  0  0  0  0
  150.0018  133.9670  155.2429 C   0  0  0  0  0  0  0  0  0  0  0  0
  150.8533  134.8511  156.1136 C   0  0  0  0  0  0  0  0  0  0  0  0
  150.8764  134.6187  157.3274 O   0  0  0  0  0  0  0  0  0  0  0  0
  151.4607  135.8473  155.4086 N   0  5  0  0  0  0  0  0  0  0  0  0
  150.7427  136.8756  154.6512 C   0  0  0  0  0  0  0  0  0  0  0  0
  151.2742  138.2867  154.9753 C   0  0  0  0  0  0  0  0  0  0  0  0
  150.5144  139.1888  154.3540 F   0  0  0  0  0  0  0  0  0  0  0  0
  151.2194  138.5224  156.2870 F   0  0  0  0  0  0  0  0  0  0  0  0
  152.5311  138.4368  154.5550 F   0  0  0  0  0  0  0  0  0  0  0  0
  148.9071  134.5040  154.5318 C   0  0  0  0  0  0  0  0  0  0  0  0
  148.0823  133.7656  153.7585 N   0  0  0  0  0  0  0  0  0  0  0  0
  146.4960  132.3830  151.9822 C   0  0  0  0  0  0  0  0  0  0  0  0
  145.8697  131.4160  150.9620 C   0  0  2  0  0  0  0  0  0  0  0  0
  144.7947  132.1008  150.1119 C   0  0  0  0  0  0  0  0  0  0  0  0
  145.2598  130.3240  151.6492 O   0  0  0  0  0  0  0  0  0  0  0  0
  147.7091  128.0784  152.3551 H   0  0  0  0  0  0  0  0  0  0  0  0
  147.8658  129.3482  151.1549 H   0  0  0  0  0  0  0  0  0  0  0  0
  146.6289  128.1062  150.9667 H   0  0  0  0  0  0  0  0  0  0  0  0
  145.5116  128.8841  153.0491 H   0  0  0  0  0  0  0  0  0  0  0  0
  146.0622  130.8889  154.2205 H   0  0  0  0  0  0  0  0  0  0  0  0
  147.5347  129.9547  154.1073 H   0  0  0  0  0  0  0  0  0  0  0  0
  149.5391  130.7375  154.2459 H   0  0  0  0  0  0  0  0  0  0  0  0
  151.0325  132.0949  155.6711 H   0  0  0  0  0  0  0  0  0  0  0  0
  150.8009  136.7096  153.5742 H   0  0  0  0  0  0  0  0  0  0  0  0
  149.6776  136.8444  154.8830 H   0  0  0  0  0  0  0  0  0  0  0  0
  148.6811  135.5595  154.5775 H   0  0  0  0  0  0  0  0  0  0  0  0
  145.7179  132.8503  152.5876 H   0  0  0  0  0  0  0  0  0  0  0  0
  147.0194  133.1793  151.4512 H   0  0  0  0  0  0  0  0  0  0  0  0
  146.6426  131.0421  150.2906 H   0  0  0  0  0  0  0  0  0  0  0  0
  145.2107  132.9410  149.5554 H   0  0  0  0  0  0  0  0  0  0  0  0
  143.9824  132.4793  150.7330 H   0  0  0  0  0  0  0  0  0  0  0  0
  144.3665  131.4041  149.3908 H   0  0  0  0  0  0  0  0  0  0  0  0
  1  2  1  0  0  0  0
  1 23  1  0  0  0  0
  1 24  1  0  0  0  0
  1 25  1  0  0  0  0
  2 22  1  0  0  0  0
  2  3  1  0  0  0  0
  2 26  1  0  0  0  0
  3  4  1  0  0  0  0
  3 27  1  0  0  0  0
  3 28  1  0  0  0  0
  4  5  1  0  0  0  0
  4 19  1  0  0  0  0
  5 18  1  0  0  0  0
  5  6  2  0  0  0  0
  6  7  1  0  0  0  0
  6 29  1  0  0  0  0
  7  8  2  0  0  0  0
  7 30  1  0  0  0  0
  8  9  1  0  0  0  0
  8 17  1  0  0  0  0
  9 10  2  0  0  0  0
  9 11  1  0  0  0  0
 11 12  1  0  0  0  0
 12 13  1  0  0  0  0
 12 31  1  0  0  0  0
 12 32  1  0  0  0  0
 13 14  1  0  0  0  0
 13 15  1  0  0  0  0
 13 16  1  0  0  0  0
 17 18  2  0  0  0  0
 17 33  1  0  0  0  0
 19 20  1  0  0  0  0
 19 34  1  0  0  0  0
 19 35  1  0  0  0  0
 20 21  1  0  0  0  0
 20 22  1  0  0  0  0
 20 36  1  0  0  0  0
 21 37  1  0  0  0  0
 21 38  1  0  0  0  0
 21 39  1  0  0  0  0
M  CHG  1  11  -1
M  END
> <s_m_source_file>
AV-unprocessed.smi

> <i_m_source_file_index>
1565

> <i_lp_mmshare_version>
43012

> <i_f3d_flags>
0

> <s_epik_input>
W0NIM11bQ0BASF0xW0NIMl1OKFtDSDJdW0NASF0oTzEpW0NIM10pYzJbY0hdW2NIXWMoW2NIXW4yKUMoPU8pW05IXVtDSDJdQyhGKShGKUY=

> <s_epik_cmdline>
J2VwaWtfcHl0aG9uJywgJy1waCcsICc3LjAnLCAnLXRuJywgJzgnLCAnLW1hJywgJzIwMCcsICctbWV0YWxfYmluZGluZycsICctaW1hZScsICc8aW5maWxlLm1hZT4nLCAnLW9tYWUnLCAnPG91dGZpbGUubWFlPic=

> <r_lp_tautomer_probability>
1

> <r_epik_Ionization_Penalty>
6.78525

> <r_epik_Ionization_Penalty_Charging>
6.78469

> <r_epik_Ionization_Penalty_Neutral>
0.000559052

> <r_epik_State_Penalty>
6.78469

> <r_epik_Charging_Adjusted_Penalty>
13.5694

> <i_epik_Tot_Q>
-1

> <i_epik_Tot_abs_Q>
1

> <r_epik_Metal_State_Penalty>
2.70441

> <b_epik_Metal_Only>
1

> <s_lp_Force_Field>
OPLS_2005

> <r_lp_Energy>
29.3503

> <b_lp_Chiralities_Consistent>
1

> <s_lp_Variant>
AV-unprocessed.smi:1565-6

> <Gold.Version>
5.8.1

> <Gold.Id.Protein>
6NUR|6NUR_protein|mol2

> <Gold.PLP.Fitness>
45.2783

> <Gold.PLP.PLP>
-41.3976

> <Gold.PLP.part.hbond>
-2.0000

> <Gold.PLP.part.metal>
0.0000

> <Gold.PLP.part.buried>
-4.3110

> <Gold.PLP.part.nonpolar>
-36.1828

> <Gold.PLP.part.repulsive>
0.4885

> <Gold.PLP.ligand.clash>
0.0000

> <Gold.PLP.ligand.torsion>
1.9619

> <Gold.PLP.Chemscore.Hbond>
2.4000

> <Gold.PLP.Chemscore.CHOScore>
0.0932

> <Gold.PLP.Chemscore.Metal>
0.0000

> <Gold.Chemscore.Hbonds>
donor molecule, donor type, donor heavy atom, donor atom, acceptor molecule, acceptor atom, score
      P1  H  6896  6909       L1    10  0.35
      P1  H 10752 10764       L1    11  2.00
      L1  C    17    33       P1  7948  0.13

> <Gold.PLP.Chemscore.Internal.Correction>
0.3250

> <Gold.Rescore>
     Score         DG    S(hbond)    S(metal)    S(lipo)     H(rot)  DE(clash)    DE(int)     intcor
     13.60     -16.28       1.25        0.00      84.84       1.29       0.03       2.66       ----

> <Gold.Chemscore.Fitness>
13.5992

> <Gold.Chemscore.DG>
-16.2828

> <Gold.Chemscore.ZeroCoef>
-5.4800

> <Gold.Chemscore.Hbond>
1.2526

> <Gold.Chemscore.Metal>
0.0000

> <Gold.Chemscore.Lipo>
84.8446

> <Gold.Chemscore.Internal_Hbond>
0.0000

> <Gold.Chemscore.DEClash>
0.0276

> <Gold.Chemscore.DEInternal>
2.6560

> <Gold.Chemscore.Rot>
1.2921

> <Gold.Chemscore.Internal.Correction>
   9.000000E+99

> <Gold.Chemscore.Hbonds>
donor molecule, donor type, donor heavy atom, donor atom, acceptor molecule, acceptor atom, score
      P1  H  6896  6909       L1    10  0.33
      P1  H 10752 10764       L1    11  0.54

> <Gold.Chemscore.Hbond.Weighted>
-4.1838

> <Gold.Chemscore.Metal.Weighted>
-0.0000

> <Gold.Chemscore.Lipo.Weighted>
-9.9268

> <Gold.Chemscore.Internal_Hbond.Weighted>
0.0000

> <Gold.Chemscore.DEClash.Weighted>
0.0276

> <Gold.Chemscore.DEInternal.Weighted>
2.6560

> <Gold.Chemscore.Rot.Weighted>
3.3078

> <Gold.Chemscore.Internal.Correction.Weighted>
   9.000000E+99

> <Gold.Protein.RotatedTorsions>
[ 6907 6896 6895 6894 ] final   13.90 input  -60.11 | X-H torsion
[ 7974 7965 7964 7962 ] final  173.25 input  175.53 | X-H torsion
[ 8008 7997 7996 7995 ] final  -81.19 input   59.86 | X-H torsion
[ 10167 10162 10161 10158 ] final  -77.60 input  -65.29 | X-H torsion
[ 10718 10713 10712 10709 ] final  158.18 input   66.30 | X-H torsion
[ 10763 10752 10751 10750 ] final  -61.22 input  -60.55 | X-H torsion
[ 11005 11000 10999 10996 ] final -130.88 input  -57.11 | X-H torsion

> <Gold.Protein.ActiveResidues>
 VAL166  LYS551  ARG553  GLY616  TRP617  ASP618  TYR619  PRO620  LYS621  CYS622 
 ASP623  PHE694  ASN695  SER759  ASP760  ASP761  ALA762  ILE779  LEU786  VAL792 
 PHE793  MET794  SER795  GLU796  ALA797  LYS798  CYS799  TRP800  GLU811  SER814 

> <Gold.Protein.RotatedAtoms>
  151.7937  135.0728  160.0390 H   0  0  0  0  0  0  0  0  0  0  0  0  # atno 6907 bound_to 6896
  152.3138  133.5776  159.5707 H   0  0  0  0  0  0  0  0  0  0  0  0  # atno 6908 bound_to 6896
  150.7334  134.0029  159.3686 H   0  0  0  0  0  0  0  0  0  0  0  0  # atno 6909 bound_to 6896
  144.7248  139.9620  143.6435 H   0  0  0  0  0  0  0  0  0  0  0  0  # atno 7974 bound_to 7965
  154.5959  140.0651  156.9302 H   0  0  0  0  0  0  0  0  0  0  0  0  # atno 8008 bound_to 7997
  155.2216  140.3330  155.4296 H   0  0  0  0  0  0  0  0  0  0  0  0  # atno 8009 bound_to 7997
  156.2286  140.1830  156.7283 H   0  0  0  0  0  0  0  0  0  0  0  0  # atno 8010 bound_to 7997
  140.4756  143.2415  151.8138 H   0  0  0  0  0  0  0  0  0  0  0  0  # atno 10167 bound_to 10162
  157.1814  131.0633  151.2130 H   0  0  0  0  0  0  0  0  0  0  0  0  # atno 10718 bound_to 10713
  154.2813  135.6271  153.5348 H   0  0  0  0  0  0  0  0  0  0  0  0  # atno 10763 bound_to 10752
  152.9865  135.5633  154.5493 H   0  0  0  0  0  0  0  0  0  0  0  0  # atno 10764 bound_to 10752
  154.5084  135.2875  155.1339 H   0  0  0  0  0  0  0  0  0  0  0  0  # atno 10765 bound_to 10752
  140.9307  134.1323  157.4237 H   0  0  0  0  0  0  0  0  0  0  0  0  # atno 11005 bound_to 11000
  146.0630  139.3622  143.0569 LP  0  0  0  0  0  0  0  0  0  0  0  0  # atno 17320 bound_to 7965
  145.8068  140.9745  143.0970 LP  0  0  0  0  0  0  0  0  0  0  0  0  # atno 17321 bound_to 7965
  139.4825  144.4837  151.9274 LP  0  0  0  0  0  0  0  0  0  0  0  0  # atno 17342 bound_to 10162
  140.3922  144.2600  150.5899 LP  0  0  0  0  0  0  0  0  0  0  0  0  # atno 17343 bound_to 10162
  157.3949  130.7302  149.6724 LP  0  0  0  0  0  0  0  0  0  0  0  0  # atno 17370 bound_to 10713
  155.9724  130.4136  150.4092 LP  0  0  0  0  0  0  0  0  0  0  0  0  # atno 17371 bound_to 10713
  139.8796  135.0004  156.6008 LP  0  0  0  0  0  0  0  0  0  0  0  0  # atno 17394 bound_to 11000
  140.7866  133.8616  155.8611 LP  0  0  0  0  0  0  0  0  0  0  0  0  # atno 17395 bound_to 11000

$$$$
