AV-unprocessed.smi:652|AV-procd|sdf|3198|dock5
  -GOLD-   22720 0133D 1   1.00000     0.00000
 Structure written by MMmdl.
 49 50  0  0  0  0  0  0  0  0  3 V2000
  143.7090  146.6202  155.6839 C   0  0  0  0  0  0  0  0  0  0  0  0
  143.6000  145.5711  154.5657 C   0  0  0  0  0  0  0  0  0  0  0  0
  142.1402  145.1842  154.2940 C   0  0  0  0  0  0  0  0  0  0  0  0
  144.3629  144.3740  154.9088 N   0  0  0  0  0  0  0  0  0  0  0  0
  145.3056  143.8047  154.1412 C   0  0  0  0  0  0  0  0  0  0  0  0
  145.6366  144.2473  153.0409 O   0  0  0  0  0  0  0  0  0  0  0  0
  145.9676  142.5460  154.7131 C   0  0  0  0  0  0  0  0  0  0  0  0
  146.7062  141.7050  153.6500 C   0  0  0  0  0  0  0  0  0  0  0  0
  147.7564  140.8347  154.2372 N   0  3  1  0  0  0  0  0  0  0  0  0
  148.3481  139.9186  153.2334 C   0  0  0  0  0  0  0  0  0  0  0  0
  149.3958  139.0048  153.8875 C   0  0  0  0  0  0  0  0  0  0  0  0
  150.3932  139.8015  154.5142 O   0  0  0  0  0  0  0  0  0  0  0  0
  149.8641  140.6170  155.5531 C   0  0  1  0  0  0  0  0  0  0  0  0
  151.0502  141.3511  156.2064 C   0  0  0  0  0  0  0  0  0  0  0  0
  150.7464  142.7357  156.5443 N   0  0  0  0  0  0  0  0  0  0  0  0
  151.2909  143.3599  157.6764 C   0  0  0  0  0  0  0  0  0  0  0  0
  152.1732  142.7356  158.5897 C   0  0  0  0  0  0  0  0  0  0  0  0
  152.6438  143.4854  159.6812 C   0  0  0  0  0  0  0  0  0  0  0  0
  152.2050  144.8162  159.7954 C   0  0  0  0  0  0  0  0  0  0  0  0
  151.3604  145.3945  158.9128 N   0  0  0  0  0  0  0  0  0  0  0  0
  150.9288  144.6516  157.8786 N   0  3  0  0  0  0  0  0  0  0  0  0
  148.8248  141.5842  154.9453 C   0  0  0  0  0  0  0  0  0  0  0  0
  143.1442  147.5185  155.4330 H   0  0  0  0  0  0  0  0  0  0  0  0
  144.7442  146.9216  155.8472 H   0  0  0  0  0  0  0  0  0  0  0  0
  143.3206  146.2369  156.6279 H   0  0  0  0  0  0  0  0  0  0  0  0
  144.0058  145.9989  153.6470 H   0  0  0  0  0  0  0  0  0  0  0  0
  141.5518  146.0552  154.0043 H   0  0  0  0  0  0  0  0  0  0  0  0
  141.6734  144.7465  155.1771 H   0  0  0  0  0  0  0  0  0  0  0  0
  142.0697  144.4572  153.4843 H   0  0  0  0  0  0  0  0  0  0  0  0
  144.1529  143.9453  155.7987 H   0  0  0  0  0  0  0  0  0  0  0  0
  146.6553  142.8532  155.5012 H   0  0  0  0  0  0  0  0  0  0  0  0
  145.1916  141.9439  155.1877 H   0  0  0  0  0  0  0  0  0  0  0  0
  145.9802  141.0653  153.1449 H   0  0  0  0  0  0  0  0  0  0  0  0
  147.1423  142.3456  152.8815 H   0  0  0  0  0  0  0  0  0  0  0  0
  147.5662  139.3091  152.7784 H   0  0  0  0  0  0  0  0  0  0  0  0
  148.8080  140.5002  152.4328 H   0  0  0  0  0  0  0  0  0  0  0  0
  148.9326  138.3363  154.6151 H   0  0  0  0  0  0  0  0  0  0  0  0
  149.8688  138.3757  153.1332 H   0  0  0  0  0  0  0  0  0  0  0  0
  149.3841  139.9724  156.2915 H   0  0  0  0  0  0  0  0  0  0  0  0
  151.3786  140.8228  157.1015 H   0  0  0  0  0  0  0  0  0  0  0  0
  151.9050  141.3438  155.5294 H   0  0  0  0  0  0  0  0  0  0  0  0
  150.1111  143.2488  155.9494 H   0  0  0  0  0  0  0  0  0  0  0  0
  152.4919  141.7109  158.4725 H   0  0  0  0  0  0  0  0  0  0  0  0
  153.3199  143.0572  160.4065 H   0  0  0  0  0  0  0  0  0  0  0  0
  152.5387  145.4347  160.6158 H   0  0  0  0  0  0  0  0  0  0  0  0
  149.3114  142.2679  154.2477 H   0  0  0  0  0  0  0  0  0  0  0  0
  148.3920  142.1926  155.7384 H   0  0  0  0  0  0  0  0  0  0  0  0
  147.2976  140.2483  154.9200 H   0  0  0  0  0  0  0  0  0  0  0  0
  150.2946  145.0847  157.2071 H   0  0  0  0  0  0  0  0  0  0  0  0
  1  2  1  0  0  0  0
  1 23  1  0  0  0  0
  1 24  1  0  0  0  0
  1 25  1  0  0  0  0
  2  3  1  0  0  0  0
  2  4  1  0  0  0  0
  2 26  1  0  0  0  0
  3 27  1  0  0  0  0
  3 28  1  0  0  0  0
  3 29  1  0  0  0  0
  4  5  1  0  0  0  0
  4 30  1  0  0  0  0
  5  6  2  0  0  0  0
  5  7  1  0  0  0  0
  7  8  1  0  0  0  0
  7 31  1  0  0  0  0
  7 32  1  0  0  0  0
  8  9  1  0  0  0  0
  8 33  1  0  0  0  0
  8 34  1  0  0  0  0
  9 22  1  0  0  0  0
  9 10  1  0  0  0  0
  9 48  1  0  0  0  0
 10 11  1  0  0  0  0
 10 35  1  0  0  0  0
 10 36  1  0  0  0  0
 11 12  1  0  0  0  0
 11 37  1  0  0  0  0
 11 38  1  0  0  0  0
 12 13  1  0  0  0  0
 13 14  1  0  0  0  0
 13 22  1  0  0  0  0
 13 39  1  0  0  0  0
 14 15  1  0  0  0  0
 14 40  1  0  0  0  0
 14 41  1  0  0  0  0
 15 16  1  0  0  0  0
 15 42  1  0  0  0  0
 16 21  1  0  0  0  0
 16 17  2  0  0  0  0
 17 18  1  0  0  0  0
 17 43  1  0  0  0  0
 18 19  2  0  0  0  0
 18 44  1  0  0  0  0
 19 20  1  0  0  0  0
 19 45  1  0  0  0  0
 20 21  2  0  0  0  0
 21 49  1  0  0  0  0
 22 46  1  0  0  0  0
 22 47  1  0  0  0  0
M  CHG  1   9   1
M  CHG  1  21   1
M  END
> <s_m_source_file>
AV-unprocessed.smi

> <i_m_source_file_index>
652

> <i_lp_mmshare_version>
43012

> <i_f3d_flags>
0

> <s_epik_input>
W0NIM11bQ0hdKFtDSDNdKVtOSF1DKD1PKVtDSDJdW0NIMl1OMVtDSDJdW0NIMl1PW0NASF0oW0NIMl0xKVtDSDJdW05IXWMyW2NIXVtjSF1bY0hdbm4y

> <s_epik_cmdline>
J2VwaWtfcHl0aG9uJywgJy1waCcsICc3LjAnLCAnLXRuJywgJzgnLCAnLW1hJywgJzIwMCcsICctbWV0YWxfYmluZGluZycsICctaW1hZScsICc8aW5maWxlLm1hZT4nLCAnLW9tYWUnLCAnPG91dGZpbGUubWFlPic=

> <r_lp_tautomer_probability>
0.966961

> <r_epik_Ionization_Penalty>
2.79885

> <r_epik_Ionization_Penalty_Charging>
2.79884

> <r_epik_Ionization_Penalty_Neutral>
3.2567e-06

> <r_epik_State_Penalty>
2.43203

> <r_epik_Charging_Adjusted_Penalty>
5.23087

> <i_epik_Tot_Q>
2

> <i_epik_Tot_abs_Q>
2

> <r_epik_Metal_State_Penalty>
2.43963

> <b_epik_Metal_Only>
0

> <s_lp_Force_Field>
OPLS_2005

> <r_lp_Energy>
31.8116

> <b_lp_Chiralities_Consistent>
1

> <s_lp_Variant>
AV-unprocessed.smi:652-7

> <Gold.Version>
5.8.1

> <Gold.Id.Protein>
6NUR|6NUR_protein|mol2

> <Gold.PLP.Fitness>
53.7837

> <Gold.PLP.PLP>
-42.6288

> <Gold.PLP.part.hbond>
-4.8692

> <Gold.PLP.part.metal>
0.0000

> <Gold.PLP.part.buried>
0.0844

> <Gold.PLP.part.nonpolar>
-38.9198

> <Gold.PLP.part.repulsive>
0.7354

> <Gold.PLP.ligand.clash>
0.0000

> <Gold.PLP.ligand.torsion>
1.1630

> <Gold.PLP.Chemscore.Hbond>
4.4688

> <Gold.PLP.Chemscore.CHOScore>
0.0000

> <Gold.PLP.Chemscore.Metal>
0.0000

> <Gold.Chemscore.Hbonds>
donor molecule, donor type, donor heavy atom, donor atom, acceptor molecule, acceptor atom, score
      L1  H    15    42       P1  8028  2.00
      L1  H    21    49       P1  8028  1.33
      P1  H  7989  7998       L1    12  1.00

> <Gold.PLP.Chemscore.Internal.Correction>
0.0744

> <Gold.Rescore>
     Score         DG    S(hbond)    S(metal)    S(lipo)     H(rot)  DE(clash)    DE(int)     intcor
     13.67     -16.06       1.34        0.00     103.20       2.33       1.30       1.09       ----

> <Gold.Chemscore.Fitness>
13.6669

> <Gold.Chemscore.DG>
-16.0577

> <Gold.Chemscore.ZeroCoef>
-5.4800

> <Gold.Chemscore.Hbond>
1.3396

> <Gold.Chemscore.Metal>
0.0000

> <Gold.Chemscore.Lipo>
103.2041

> <Gold.Chemscore.Internal_Hbond>
0.0000

> <Gold.Chemscore.DEClash>
1.2967

> <Gold.Chemscore.DEInternal>
1.0941

> <Gold.Chemscore.Rot>
2.3326

> <Gold.Chemscore.Internal.Correction>
   9.000000E+99

> <Gold.Chemscore.Hbonds>
donor molecule, donor type, donor heavy atom, donor atom, acceptor molecule, acceptor atom, score
      L1  H    15    42       P1  8028  0.95
      L1  H    21    49       P1  8028  0.09
      P1  H  7989  7998       L1    12  0.64

> <Gold.Chemscore.Hbond.Weighted>
-4.4742

> <Gold.Chemscore.Metal.Weighted>
-0.0000

> <Gold.Chemscore.Lipo.Weighted>
-12.0749

> <Gold.Chemscore.Internal_Hbond.Weighted>
0.0000

> <Gold.Chemscore.DEClash.Weighted>
1.2967

> <Gold.Chemscore.DEInternal.Weighted>
1.0941

> <Gold.Chemscore.Rot.Weighted>
5.9714

> <Gold.Chemscore.Internal.Correction.Weighted>
   9.000000E+99

> <Gold.Protein.RotatedTorsions>
[ 6907 6896 6895 6894 ] final    1.72 input  -60.11 | X-H torsion
[ 7974 7965 7964 7962 ] final  124.31 input  175.53 | X-H torsion
[ 8008 7997 7996 7995 ] final -132.50 input   59.86 | X-H torsion
[ 10167 10162 10161 10158 ] final  103.25 input  -65.29 | X-H torsion
[ 10718 10713 10712 10709 ] final -101.73 input   66.30 | X-H torsion
[ 10763 10752 10751 10750 ] final  -53.54 input  -60.55 | X-H torsion
[ 11005 11000 10999 10996 ] final   89.55 input  -57.11 | X-H torsion

> <Gold.Protein.ActiveResidues>
 VAL166  LYS551  ARG553  GLY616  TRP617  ASP618  TYR619  PRO620  LYS621  CYS622 
 ASP623  PHE694  ASN695  SER759  ASP760  ASP761  ALA762  ILE779  LEU786  VAL792 
 PHE793  MET794  SER795  GLU796  ALA797  LYS798  CYS799  TRP800  GLU811  SER814 

> <Gold.Protein.RotatedAtoms>
  151.5972  135.1049  160.0051 H   0  0  0  0  0  0  0  0  0  0  0  0  # atno 6907 bound_to 6896
  152.4276  133.7218  159.6548 H   0  0  0  0  0  0  0  0  0  0  0  0  # atno 6908 bound_to 6896
  150.8166  133.8255  159.3180 H   0  0  0  0  0  0  0  0  0  0  0  0  # atno 6909 bound_to 6896
  145.0859  139.3622  143.4885 H   0  0  0  0  0  0  0  0  0  0  0  0  # atno 7974 bound_to 7965
  155.3299  140.0466  157.3042 H   0  0  0  0  0  0  0  0  0  0  0  0  # atno 8008 bound_to 7997
  154.5334  140.2264  155.8731 H   0  0  0  0  0  0  0  0  0  0  0  0  # atno 8009 bound_to 7997
  156.1811  140.3074  155.9156 H   0  0  0  0  0  0  0  0  0  0  0  0  # atno 8010 bound_to 7997
  139.7279  144.7043  151.0769 H   0  0  0  0  0  0  0  0  0  0  0  0  # atno 10167 bound_to 10162
  156.0204  130.5387  150.7005 H   0  0  0  0  0  0  0  0  0  0  0  0  # atno 10718 bound_to 10713
  154.1605  135.6475  153.4985 H   0  0  0  0  0  0  0  0  0  0  0  0  # atno 10763 bound_to 10752
  153.0112  135.5359  154.6715 H   0  0  0  0  0  0  0  0  0  0  0  0  # atno 10764 bound_to 10752
  154.6028  135.2945  155.0489 H   0  0  0  0  0  0  0  0  0  0  0  0  # atno 10765 bound_to 10752
  139.8873  134.8559  156.3159 H   0  0  0  0  0  0  0  0  0  0  0  0  # atno 11005 bound_to 11000
  146.3531  140.0671  142.8625 LP  0  0  0  0  0  0  0  0  0  0  0  0  # atno 17320 bound_to 7965
  145.1123  140.9412  143.4649 LP  0  0  0  0  0  0  0  0  0  0  0  0  # atno 17321 bound_to 7965
  140.7766  143.5081  150.9686 LP  0  0  0  0  0  0  0  0  0  0  0  0  # atno 17342 bound_to 10162
  139.8769  143.7121  152.3161 LP  0  0  0  0  0  0  0  0  0  0  0  0  # atno 17343 bound_to 10162
  157.4666  131.0889  151.0688 LP  0  0  0  0  0  0  0  0  0  0  0  0  # atno 17370 bound_to 10713
  157.1160  130.6041  149.5493 LP  0  0  0  0  0  0  0  0  0  0  0  0  # atno 17371 bound_to 10713
  140.9819  133.7262  156.0685 LP  0  0  0  0  0  0  0  0  0  0  0  0  # atno 17394 bound_to 11000
  140.7738  134.3803  157.5502 LP  0  0  0  0  0  0  0  0  0  0  0  0  # atno 17395 bound_to 11000

$$$$
