AV-unprocessed.smi:1097|AV-procd|sdf|4752|dock3
  -GOLD-   22720 3293D 1   1.00000     0.00000
 Structure written by MMmdl.
 40 41  0  0  0  0  0  0  0  0  1 V2000
  155.5462  138.3841  159.4556 C   0  0  0  0  0  0  0  0  0  0  0  0
  155.1466  139.7421  159.3976 O   0  0  0  0  0  0  0  0  0  0  0  0
  154.7964  140.2594  160.6702 C   0  0  0  0  0  0  0  0  0  0  0  0
  154.3358  141.7105  160.5106 C   0  0  0  0  0  0  0  0  0  0  0  0
  153.2517  141.7417  159.5877 O   0  0  0  0  0  0  0  0  0  0  0  0
  152.5096  142.9017  159.4652 C   0  0  0  0  0  0  0  0  0  0  0  0
  152.7296  143.8942  160.3651 N   0  0  0  0  0  0  0  0  0  0  0  0
  152.0086  145.0296  160.2688 C   0  0  0  0  0  0  0  0  0  0  0  0
  151.0337  145.2393  159.2772 C   0  0  0  0  0  0  0  0  0  0  0  0
  150.8018  144.2140  158.3425 C   0  0  0  0  0  0  0  0  0  0  0  0
  151.5435  143.0132  158.4310 C   0  0  0  0  0  0  0  0  0  0  0  0
  151.3318  141.9133  157.4277 C   0  0  0  0  0  0  0  0  0  0  0  0
  151.9016  140.8274  157.5378 O   0  0  0  0  0  0  0  0  0  0  0  0
  150.4619  142.1954  156.4444 N   0  0  0  0  0  0  0  0  0  0  0  0
  150.0870  141.2797  155.3708 C   0  0  1  0  0  0  0  0  0  0  0  0
  149.5075  139.9669  155.9214 C   0  0  0  0  0  0  0  0  0  0  0  0
  148.2440  139.7604  155.1032 C   0  0  0  0  0  0  0  0  0  0  0  0
  147.5530  138.7461  155.1862 O   0  0  0  0  0  0  0  0  0  0  0  0
  148.0108  140.8091  154.3086 N   0  0  0  0  0  0  0  0  0  0  0  0
  146.8828  140.9536  153.3985 C   0  0  0  0  0  0  0  0  0  0  0  0
  148.9857  141.8733  154.4690 C   0  0  0  0  0  0  0  0  0  0  0  0
  155.7989  138.0332  158.4552 H   0  0  0  0  0  0  0  0  0  0  0  0
  154.7439  137.7534  159.8408 H   0  0  0  0  0  0  0  0  0  0  0  0
  156.4254  138.2579  160.0887 H   0  0  0  0  0  0  0  0  0  0  0  0
  153.9979  139.6618  161.1129 H   0  0  0  0  0  0  0  0  0  0  0  0
  155.6551  140.2132  161.3419 H   0  0  0  0  0  0  0  0  0  0  0  0
  154.0205  142.1040  161.4783 H   0  0  0  0  0  0  0  0  0  0  0  0
  155.1642  142.3216  160.1484 H   0  0  0  0  0  0  0  0  0  0  0  0
  152.2164  145.7940  161.0026 H   0  0  0  0  0  0  0  0  0  0  0  0
  150.4806  146.1658  159.2323 H   0  0  0  0  0  0  0  0  0  0  0  0
  150.0648  144.3587  157.5657 H   0  0  0  0  0  0  0  0  0  0  0  0
  150.0266  143.1066  156.4420 H   0  0  0  0  0  0  0  0  0  0  0  0
  150.9653  141.0442  154.7666 H   0  0  0  0  0  0  0  0  0  0  0  0
  150.1970  139.1320  155.7943 H   0  0  0  0  0  0  0  0  0  0  0  0
  149.2416  140.0389  156.9768 H   0  0  0  0  0  0  0  0  0  0  0  0
  146.8467  140.1207  152.6953 H   0  0  0  0  0  0  0  0  0  0  0  0
  146.9570  141.8777  152.8248 H   0  0  0  0  0  0  0  0  0  0  0  0
  145.9448  140.9743  153.9545 H   0  0  0  0  0  0  0  0  0  0  0  0
  148.4956  142.7331  154.9292 H   0  0  0  0  0  0  0  0  0  0  0  0
  149.3869  142.1886  153.5049 H   0  0  0  0  0  0  0  0  0  0  0  0
  1  2  1  0  0  0  0
  1 22  1  0  0  0  0
  1 23  1  0  0  0  0
  1 24  1  0  0  0  0
  2  3  1  0  0  0  0
  3  4  1  0  0  0  0
  3 25  1  0  0  0  0
  3 26  1  0  0  0  0
  4  5  1  0  0  0  0
  4 27  1  0  0  0  0
  4 28  1  0  0  0  0
  5  6  1  0  0  0  0
  6 11  1  0  0  0  0
  6  7  2  0  0  0  0
  7  8  1  0  0  0  0
  8  9  2  0  0  0  0
  8 29  1  0  0  0  0
  9 10  1  0  0  0  0
  9 30  1  0  0  0  0
 10 11  2  0  0  0  0
 10 31  1  0  0  0  0
 11 12  1  0  0  0  0
 12 13  2  0  0  0  0
 12 14  1  0  0  0  0
 14 15  1  0  0  0  0
 14 32  1  0  0  0  0
 15 21  1  0  0  0  0
 15 16  1  0  0  0  0
 15 33  1  0  0  0  0
 16 17  1  0  0  0  0
 16 34  1  0  0  0  0
 16 35  1  0  0  0  0
 17 18  2  0  0  0  0
 17 19  1  0  0  0  0
 19 20  1  0  0  0  0
 19 21  1  0  0  0  0
 20 36  1  0  0  0  0
 20 37  1  0  0  0  0
 20 38  1  0  0  0  0
 21 39  1  0  0  0  0
 21 40  1  0  0  0  0
M  END
> <s_m_source_file>
AV-unprocessed.smi

> <i_m_source_file_index>
1097

> <i_lp_mmshare_version>
43012

> <i_f3d_flags>
0

> <s_epik_input>
W0NIM11PW0NIMl1bQ0gyXU9jMW5bY0hdW2NIXVtjSF1jMUMoPU8pW05IXVtDQEBIXTJbQ0gyXUMoPU8pTihbQ0gzXSlbQ0gyXTI=

> <s_epik_cmdline>
J2VwaWtfcHl0aG9uJywgJy1waCcsICc3LjAnLCAnLXRuJywgJzgnLCAnLW1hJywgJzIwMCcsICctbWV0YWxfYmluZGluZycsICctaW1hZScsICc8aW5maWxlLm1hZT4nLCAnLW9tYWUnLCAnPG91dGZpbGUubWFlPic=

> <r_lp_tautomer_probability>
1

> <r_epik_Ionization_Penalty>
2.30122e-06

> <r_epik_Ionization_Penalty_Charging>
0

> <r_epik_Ionization_Penalty_Neutral>
2.30122e-06

> <r_epik_State_Penalty>
-0

> <r_epik_Charging_Adjusted_Penalty>
0

> <i_epik_Tot_Q>
0

> <i_epik_Tot_abs_Q>
0

> <r_epik_Metal_State_Penalty>
-0

> <b_epik_Metal_Only>
0

> <s_lp_Force_Field>
OPLS_2005

> <r_lp_Energy>
19.8496

> <b_lp_Chiralities_Consistent>
1

> <s_lp_Variant>
AV-unprocessed.smi:1097-2

> <Gold.Version>
5.8.1

> <Gold.Id.Protein>
6NUR|6NUR_protein|mol2

> <Gold.PLP.Fitness>
42.3960

> <Gold.PLP.PLP>
-36.6240

> <Gold.PLP.part.hbond>
-2.0000

> <Gold.PLP.part.metal>
0.0000

> <Gold.PLP.part.buried>
-1.7858

> <Gold.PLP.part.nonpolar>
-32.8519

> <Gold.PLP.part.repulsive>
0.1683

> <Gold.PLP.ligand.clash>
0.0000

> <Gold.PLP.ligand.torsion>
0.1339

> <Gold.PLP.Chemscore.Hbond>
1.9913

> <Gold.PLP.Chemscore.CHOScore>
0.0000

> <Gold.PLP.Chemscore.Metal>
0.0000

> <Gold.Chemscore.Hbonds>
donor molecule, donor type, donor heavy atom, donor atom, acceptor molecule, acceptor atom, score
      L1  H    14    32       P1  8028  0.76
      P1  H  7997  8008       L1     2  0.90

> <Gold.PLP.Chemscore.Internal.Correction>
0.0660

> <Gold.Rescore>
     Score         DG    S(hbond)    S(metal)    S(lipo)     H(rot)  DE(clash)    DE(int)     intcor
     14.23     -17.67       1.85        0.00      94.08       1.95       0.19       3.25       ----

> <Gold.Chemscore.Fitness>
14.2336

> <Gold.Chemscore.DG>
-17.6715

> <Gold.Chemscore.ZeroCoef>
-5.4800

> <Gold.Chemscore.Hbond>
1.8468

> <Gold.Chemscore.Metal>
0.0000

> <Gold.Chemscore.Lipo>
94.0785

> <Gold.Chemscore.Internal_Hbond>
0.0000

> <Gold.Chemscore.DEClash>
0.1927

> <Gold.Chemscore.DEInternal>
3.2453

> <Gold.Chemscore.Rot>
1.9468

> <Gold.Chemscore.Internal.Correction>
   9.000000E+99

> <Gold.Chemscore.Hbonds>
donor molecule, donor type, donor heavy atom, donor atom, acceptor molecule, acceptor atom, score
      L1  H    14    32       P1  8028  0.76
      P1  H  7997  8008       L1     2  0.19

> <Gold.Chemscore.Hbond.Weighted>
-6.1682

> <Gold.Chemscore.Metal.Weighted>
-0.0000

> <Gold.Chemscore.Lipo.Weighted>
-11.0072

> <Gold.Chemscore.Internal_Hbond.Weighted>
0.0000

> <Gold.Chemscore.DEClash.Weighted>
0.1927

> <Gold.Chemscore.DEInternal.Weighted>
3.2453

> <Gold.Chemscore.Rot.Weighted>
4.9839

> <Gold.Chemscore.Internal.Correction.Weighted>
   9.000000E+99

> <Gold.Protein.RotatedTorsions>
[ 6907 6896 6895 6894 ] final  170.59 input  -60.11 | X-H torsion
[ 7974 7965 7964 7962 ] final  147.48 input  175.53 | X-H torsion
[ 8008 7997 7996 7995 ] final -131.34 input   59.86 | X-H torsion
[ 10167 10162 10161 10158 ] final -157.60 input  -65.29 | X-H torsion
[ 10718 10713 10712 10709 ] final   59.08 input   66.30 | X-H torsion
[ 10763 10752 10751 10750 ] final   75.33 input  -60.55 | X-H torsion
[ 11005 11000 10999 10996 ] final   70.54 input  -57.11 | X-H torsion

> <Gold.Protein.ActiveResidues>
 VAL166  LYS551  ARG553  GLY616  TRP617  ASP618  TYR619  PRO620  LYS621  CYS622 
 ASP623  PHE694  ASN695  SER759  ASP760  ASP761  ALA762  ILE779  LEU786  VAL792 
 PHE793  MET794  SER795  GLU796  ALA797  LYS798  CYS799  TRP800  GLU811  SER814 

> <Gold.Protein.RotatedAtoms>
  151.8136  133.3385  159.3562 H   0  0  0  0  0  0  0  0  0  0  0  0  # atno 6907 bound_to 6896
  150.7318  134.5640  159.5866 H   0  0  0  0  0  0  0  0  0  0  0  0  # atno 6908 bound_to 6896
  152.3057  134.7559  160.0399 H   0  0  0  0  0  0  0  0  0  0  0  0  # atno 6909 bound_to 6896
  144.8588  139.6034  143.5940 H   0  0  0  0  0  0  0  0  0  0  0  0  # atno 7974 bound_to 7965
  155.3107  140.0457  157.3034 H   0  0  0  0  0  0  0  0  0  0  0  0  # atno 8008 bound_to 7997
  154.5434  140.2295  155.8569 H   0  0  0  0  0  0  0  0  0  0  0  0  # atno 8009 bound_to 7997
  156.1902  140.3052  155.9324 H   0  0  0  0  0  0  0  0  0  0  0  0  # atno 8010 bound_to 7997
  139.6758  143.9666  152.2309 H   0  0  0  0  0  0  0  0  0  0  0  0  # atno 10167 bound_to 10162
  157.5647  130.8862  149.9168 H   0  0  0  0  0  0  0  0  0  0  0  0  # atno 10718 bound_to 10713
  153.0648  135.4992  154.8174 H   0  0  0  0  0  0  0  0  0  0  0  0  # atno 10763 bound_to 10752
  154.6936  135.2989  154.9445 H   0  0  0  0  0  0  0  0  0  0  0  0  # atno 10764 bound_to 10752
  154.0192  135.6744  153.4824 H   0  0  0  0  0  0  0  0  0  0  0  0  # atno 10765 bound_to 10752
  139.9592  134.7090  156.0684 H   0  0  0  0  0  0  0  0  0  0  0  0  # atno 11005 bound_to 11000
  146.2844  139.6964  142.9206 LP  0  0  0  0  0  0  0  0  0  0  0  0  # atno 17320 bound_to 7965
  145.4353  141.0418  143.2887 LP  0  0  0  0  0  0  0  0  0  0  0  0  # atno 17321 bound_to 7965
  139.9443  144.6661  150.8235 LP  0  0  0  0  0  0  0  0  0  0  0  0  # atno 17342 bound_to 10162
  140.7635  143.3224  151.2592 LP  0  0  0  0  0  0  0  0  0  0  0  0  # atno 17343 bound_to 10162
  156.0696  130.3687  150.0803 LP  0  0  0  0  0  0  0  0  0  0  0  0  # atno 17370 bound_to 10713
  156.8963  130.9605  151.3582 LP  0  0  0  0  0  0  0  0  0  0  0  0  # atno 17371 bound_to 10713
  141.1267  133.6597  156.3356 LP  0  0  0  0  0  0  0  0  0  0  0  0  # atno 17394 bound_to 11000
  140.5539  134.6001  157.5415 LP  0  0  0  0  0  0  0  0  0  0  0  0  # atno 17395 bound_to 11000

$$$$
