AV-unprocessed.smi:3164|AV-procd|sdf|12082|dock8
  -GOLD-   2272017513D 1   1.00000     0.00000
 Structure written by MMmdl.
 40 41  0  0  0  0  0  0  0  0  3 V2000
  144.6858  137.4341  153.3981 C   0  0  0  0  0  0  0  0  0  0  0  0
  145.3954  138.7296  153.3313 N   0  3  2  0  0  0  0  0  0  0  0  0
  146.5061  138.7211  152.3525 C   0  0  0  0  0  0  0  0  0  0  0  0
  147.1812  140.1011  152.3014 C   0  0  0  0  0  0  0  0  0  0  0  0
  147.6267  140.4589  153.6044 O   0  0  0  0  0  0  0  0  0  0  0  0
  146.5551  140.5683  154.5375 C   0  0  2  0  0  0  0  0  0  0  0  0
  147.1418  141.0373  155.8776 C   0  0  0  0  0  0  0  0  0  0  0  0
  148.4756  141.6408  155.6886 N   0  3  0  0  0  0  0  0  0  0  0  0
  149.3852  141.4937  156.8429 C   0  0  0  0  0  0  0  0  0  0  0  0
  150.8086  141.9686  156.5052 C   0  0  0  0  0  0  0  0  0  0  0  0
  151.5535  142.5133  157.7130 C   0  0  0  0  0  0  0  0  0  0  0  0
  151.8704  143.8854  157.8030 C   0  0  0  0  0  0  0  0  0  0  0  0
  152.5432  144.3451  158.9520 C   0  0  0  0  0  0  0  0  0  0  0  0
  152.8690  143.4202  159.9625 C   0  0  0  0  0  0  0  0  0  0  0  0
  152.5091  142.0709  159.7782 C   0  0  0  0  0  0  0  0  0  0  0  0
  151.8619  141.6201  158.6814 N   0  0  0  0  0  0  0  0  0  0  0  0
  145.8651  139.1940  154.6574 C   0  0  0  0  0  0  0  0  0  0  0  0
  145.3493  136.6408  153.7451 H   0  0  0  0  0  0  0  0  0  0  0  0
  144.3029  137.1547  152.4159 H   0  0  0  0  0  0  0  0  0  0  0  0
  143.8379  137.4949  154.0810 H   0  0  0  0  0  0  0  0  0  0  0  0
  147.2360  137.9595  152.6324 H   0  0  0  0  0  0  0  0  0  0  0  0
  146.1271  138.4552  151.3649 H   0  0  0  0  0  0  0  0  0  0  0  0
  148.0390  140.0754  151.6292 H   0  0  0  0  0  0  0  0  0  0  0  0
  146.4967  140.8585  151.9157 H   0  0  0  0  0  0  0  0  0  0  0  0
  145.8347  141.3084  154.1832 H   0  0  0  0  0  0  0  0  0  0  0  0
  146.4858  141.7774  156.3377 H   0  0  0  0  0  0  0  0  0  0  0  0
  147.2139  140.1959  156.5683 H   0  0  0  0  0  0  0  0  0  0  0  0
  148.9134  141.1944  154.8942 H   0  0  0  0  0  0  0  0  0  0  0  0
  148.9893  142.0697  157.6802 H   0  0  0  0  0  0  0  0  0  0  0  0
  149.4136  140.4493  157.1574 H   0  0  0  0  0  0  0  0  0  0  0  0
  151.3832  141.1515  156.0666 H   0  0  0  0  0  0  0  0  0  0  0  0
  150.7606  142.7455  155.7411 H   0  0  0  0  0  0  0  0  0  0  0  0
  151.6039  144.5726  157.0132 H   0  0  0  0  0  0  0  0  0  0  0  0
  152.8027  145.3881  159.0570 H   0  0  0  0  0  0  0  0  0  0  0  0
  153.3838  143.7374  160.8575 H   0  0  0  0  0  0  0  0  0  0  0  0
  152.7419  141.3346  160.5330 H   0  0  0  0  0  0  0  0  0  0  0  0
  145.0176  139.2601  155.3412 H   0  0  0  0  0  0  0  0  0  0  0  0
  146.5568  138.4599  155.0746 H   0  0  0  0  0  0  0  0  0  0  0  0
  148.3692  142.6242  155.4829 H   0  0  0  0  0  0  0  0  0  0  0  0
  144.7244  139.4100  153.0032 H   0  0  0  0  0  0  0  0  0  0  0  0
  1  2  1  0  0  0  0
  1 18  1  0  0  0  0
  1 19  1  0  0  0  0
  1 20  1  0  0  0  0
  2 17  1  0  0  0  0
  2  3  1  0  0  0  0
  2 40  1  0  0  0  0
  3  4  1  0  0  0  0
  3 21  1  0  0  0  0
  3 22  1  0  0  0  0
  4  5  1  0  0  0  0
  4 23  1  0  0  0  0
  4 24  1  0  0  0  0
  5  6  1  0  0  0  0
  6  7  1  0  0  0  0
  6 17  1  0  0  0  0
  6 25  1  0  0  0  0
  7  8  1  0  0  0  0
  7 26  1  0  0  0  0
  7 27  1  0  0  0  0
  8  9  1  0  0  0  0
  8 28  1  0  0  0  0
  8 39  1  0  0  0  0
  9 10  1  0  0  0  0
  9 29  1  0  0  0  0
  9 30  1  0  0  0  0
 10 11  1  0  0  0  0
 10 31  1  0  0  0  0
 10 32  1  0  0  0  0
 11 16  1  0  0  0  0
 11 12  2  0  0  0  0
 12 13  1  0  0  0  0
 12 33  1  0  0  0  0
 13 14  2  0  0  0  0
 13 34  1  0  0  0  0
 14 15  1  0  0  0  0
 14 35  1  0  0  0  0
 15 16  2  0  0  0  0
 15 36  1  0  0  0  0
 17 37  1  0  0  0  0
 17 38  1  0  0  0  0
M  CHG  1   2   1
M  CHG  1   8   1
M  END
> <s_m_source_file>
AV-unprocessed.smi

> <i_m_source_file_index>
3164

> <i_lp_mmshare_version>
43012

> <i_f3d_flags>
0

> <s_epik_input>
W0NIM11OMVtDSDJdW0NIMl1PW0NASF0oW0NIMl0xKVtDSDJdW05IXVtDSDJdW0NIMl1jMltjSF1bY0hdW2NIXVtjSF1uMg==

> <s_epik_cmdline>
J2VwaWtfcHl0aG9uJywgJy1waCcsICc3LjAnLCAnLXRuJywgJzgnLCAnLW1hJywgJzIwMCcsICctbWV0YWxfYmluZGluZycsICctaW1hZScsICc8aW5maWxlLm1hZT4nLCAnLW9tYWUnLCAnPG91dGZpbGUubWFlPic=

> <r_epik_Ionization_Penalty>
0.294944

> <r_epik_Ionization_Penalty_Charging>
0.29381

> <r_epik_Ionization_Penalty_Neutral>
0.00113372

> <r_epik_State_Penalty>
0.271365

> <r_epik_Charging_Adjusted_Penalty>
0.565175

> <i_epik_Tot_Q>
2

> <i_epik_Tot_abs_Q>
2

> <r_epik_Metal_State_Penalty>
0.271365

> <b_epik_Metal_Only>
0

> <s_lp_Force_Field>
OPLS_2005

> <r_lp_Energy>
22.5841

> <b_lp_Chiralities_Consistent>
1

> <s_lp_Variant>
AV-unprocessed.smi:3164-4

> <Gold.Version>
5.8.1

> <Gold.Id.Protein>
6NUR|6NUR_protein|mol2

> <Gold.PLP.Fitness>
42.7173

> <Gold.PLP.PLP>
-32.7360

> <Gold.PLP.part.hbond>
-2.0000

> <Gold.PLP.part.metal>
0.0000

> <Gold.PLP.part.buried>
-0.9979

> <Gold.PLP.part.nonpolar>
-30.9487

> <Gold.PLP.part.repulsive>
0.2363

> <Gold.PLP.ligand.clash>
0.0000

> <Gold.PLP.ligand.torsion>
1.0288

> <Gold.PLP.Chemscore.Hbond>
4.0000

> <Gold.PLP.Chemscore.CHOScore>
0.0000

> <Gold.PLP.Chemscore.Metal>
0.0000

> <Gold.Chemscore.Hbonds>
donor molecule, donor type, donor heavy atom, donor atom, acceptor molecule, acceptor atom, score
      L1  H     2    40       P1 10175  2.00
      L1  H     8    39       P1  8028  1.40

> <Gold.PLP.Chemscore.Internal.Correction>
0.0390

> <Gold.Rescore>
     Score         DG    S(hbond)    S(metal)    S(lipo)     H(rot)  DE(clash)    DE(int)     intcor
     17.84     -19.52       1.96        0.00     100.22       1.65       0.74       0.94       ----

> <Gold.Chemscore.Fitness>
17.8422

> <Gold.Chemscore.DG>
-19.5244

> <Gold.Chemscore.ZeroCoef>
-5.4800

> <Gold.Chemscore.Hbond>
1.9555

> <Gold.Chemscore.Metal>
0.0000

> <Gold.Chemscore.Lipo>
100.2173

> <Gold.Chemscore.Internal_Hbond>
0.0000

> <Gold.Chemscore.DEClash>
0.7401

> <Gold.Chemscore.DEInternal>
0.9421

> <Gold.Chemscore.Rot>
1.6454

> <Gold.Chemscore.Internal.Correction>
   9.000000E+99

> <Gold.Chemscore.Hbonds>
donor molecule, donor type, donor heavy atom, donor atom, acceptor molecule, acceptor atom, score
      L1  H     2    40       P1 10175  0.97
      L1  H     8    39       P1  8028  0.67

> <Gold.Chemscore.Hbond.Weighted>
-6.5313

> <Gold.Chemscore.Metal.Weighted>
-0.0000

> <Gold.Chemscore.Lipo.Weighted>
-11.7254

> <Gold.Chemscore.Internal_Hbond.Weighted>
0.0000

> <Gold.Chemscore.DEClash.Weighted>
0.7401

> <Gold.Chemscore.DEInternal.Weighted>
0.9421

> <Gold.Chemscore.Rot.Weighted>
4.2122

> <Gold.Chemscore.Internal.Correction.Weighted>
   9.000000E+99

> <Gold.Protein.RotatedTorsions>
[ 6907 6896 6895 6894 ] final  135.62 input  -60.11 | X-H torsion
[ 7974 7965 7964 7962 ] final  100.49 input  175.53 | X-H torsion
[ 8008 7997 7996 7995 ] final  -13.28 input   59.86 | X-H torsion
[ 10167 10162 10161 10158 ] final   75.44 input  -65.29 | X-H torsion
[ 10718 10713 10712 10709 ] final  -59.30 input   66.30 | X-H torsion
[ 10763 10752 10751 10750 ] final   40.52 input  -60.55 | X-H torsion
[ 11005 11000 10999 10996 ] final  -23.31 input  -57.11 | X-H torsion

> <Gold.Protein.ActiveResidues>
 VAL166  LYS551  ARG553  GLY616  TRP617  ASP618  TYR619  PRO620  LYS621  CYS622 
 ASP623  PHE694  ASN695  SER759  ASP760  ASP761  ALA762  ILE779  LEU786  VAL792 
 PHE793  MET794  SER795  GLU796  ALA797  LYS798  CYS799  TRP800  GLU811  SER814 

> <Gold.Protein.RotatedAtoms>
  152.2984  133.5630  159.5602 H   0  0  0  0  0  0  0  0  0  0  0  0  # atno 6907 bound_to 6896
  150.7266  134.0328  159.3748 H   0  0  0  0  0  0  0  0  0  0  0  0  # atno 6908 bound_to 6896
  151.8229  135.0646  160.0478 H   0  0  0  0  0  0  0  0  0  0  0  0  # atno 6909 bound_to 6896
  145.3849  139.2373  143.3383 H   0  0  0  0  0  0  0  0  0  0  0  0  # atno 7974 bound_to 7965
  154.5305  140.2253  155.8812 H   0  0  0  0  0  0  0  0  0  0  0  0  # atno 8008 bound_to 7997
  156.1759  140.3111  155.9022 H   0  0  0  0  0  0  0  0  0  0  0  0  # atno 8009 bound_to 7997
  155.3461  140.0453  157.3036 H   0  0  0  0  0  0  0  0  0  0  0  0  # atno 8010 bound_to 7997
  140.0029  144.5672  150.7722 H   0  0  0  0  0  0  0  0  0  0  0  0  # atno 10167 bound_to 10162
  156.1072  130.4179  150.0696 H   0  0  0  0  0  0  0  0  0  0  0  0  # atno 10718 bound_to 10713
  152.9934  135.6189  154.2639 H   0  0  0  0  0  0  0  0  0  0  0  0  # atno 10763 bound_to 10752
  154.2374  135.2790  155.2869 H   0  0  0  0  0  0  0  0  0  0  0  0  # atno 10764 bound_to 10752
  154.5398  135.5764  153.6888 H   0  0  0  0  0  0  0  0  0  0  0  0  # atno 10765 bound_to 10752
  140.8739  133.7701  156.0220 H   0  0  0  0  0  0  0  0  0  0  0  0  # atno 11005 bound_to 11000
  146.2825  140.4523  142.8771 LP  0  0  0  0  0  0  0  0  0  0  0  0  # atno 17320 bound_to 7965
  144.8481  140.6960  143.6186 LP  0  0  0  0  0  0  0  0  0  0  0  0  # atno 17321 bound_to 7965
  140.7411  143.2814  151.3587 LP  0  0  0  0  0  0  0  0  0  0  0  0  # atno 17342 bound_to 10162
  139.6259  144.0816  152.2433 LP  0  0  0  0  0  0  0  0  0  0  0  0  # atno 17343 bound_to 10162
  156.8668  130.9510  151.3613 LP  0  0  0  0  0  0  0  0  0  0  0  0  # atno 17370 bound_to 10713
  157.6250  130.8684  149.9173 LP  0  0  0  0  0  0  0  0  0  0  0  0  # atno 17371 bound_to 10713
  140.8541  134.2919  157.5263 LP  0  0  0  0  0  0  0  0  0  0  0  0  # atno 17394 bound_to 11000
  139.8714  134.9483  156.3993 LP  0  0  0  0  0  0  0  0  0  0  0  0  # atno 17395 bound_to 11000

$$$$
