AV-unprocessed.smi:1452|AV-procd|sdf|5908|dock1
  -GOLD-   22720 5593D 1   1.00000     0.00000
 Structure written by MMmdl.
 40 42  0  0  0  0  0  0  0  0  2 V2000
  149.3587  140.5180  157.7249 O   0  0  0  0  0  0  0  0  0  0  0  0
  148.9426  141.4840  157.0876 C   0  0  0  0  0  0  0  0  0  0  0  0
  149.5857  142.6709  157.1227 N   0  0  0  0  0  0  0  0  0  0  0  0
  150.7640  143.0898  157.8093 C   0  0  0  0  0  0  0  0  0  0  0  0
  151.5942  142.0321  158.2446 C   0  0  0  0  0  0  0  0  0  0  0  0
  152.7885  142.3210  158.9324 C   0  0  0  0  0  0  0  0  0  0  0  0
  153.1262  143.6652  159.1679 C   0  0  0  0  0  0  0  0  0  0  0  0
  152.2484  144.6600  158.7011 C   0  0  0  0  0  0  0  0  0  0  0  0
  151.1032  144.3841  158.0414 N   0  0  0  0  0  0  0  0  0  0  0  0
  147.8385  141.4272  156.3252 N   0  0  0  0  0  0  0  0  0  0  0  0
  146.9950  140.2525  156.1324 C   0  0  1  0  0  0  0  0  0  0  0  0
  145.6451  140.3680  156.8302 C   0  0  0  0  0  0  0  0  0  0  0  0
  144.8094  139.3223  156.0907 C   0  0  0  0  0  0  0  0  0  0  0  0
  145.2979  139.3258  154.6928 N   0  3  2  0  0  0  0  0  0  0  0  0
  145.2765  137.9998  154.0279 C   0  0  0  0  0  0  0  0  0  0  0  0
  145.7880  138.1081  152.5796 C   0  0  0  0  0  0  0  0  0  0  0  0
  147.1333  138.8557  152.4672 C   0  0  0  0  0  0  0  0  0  0  0  0
  147.6789  139.2915  153.8359 C   0  0  0  0  0  0  0  0  0  0  0  0
  146.6061  140.0397  154.6595 C   0  0  2  0  0  0  0  0  0  0  0  0
  149.1467  143.3964  156.5743 H   0  0  0  0  0  0  0  0  0  0  0  0
  151.3217  141.0036  158.0561 H   0  0  0  0  0  0  0  0  0  0  0  0
  153.4335  141.5245  159.2728 H   0  0  0  0  0  0  0  0  0  0  0  0
  154.0335  143.9268  159.6921 H   0  0  0  0  0  0  0  0  0  0  0  0
  152.4704  145.7045  158.8610 H   0  0  0  0  0  0  0  0  0  0  0  0
  147.5669  142.2700  155.8379 H   0  0  0  0  0  0  0  0  0  0  0  0
  147.4936  139.3602  156.5176 H   0  0  0  0  0  0  0  0  0  0  0  0
  145.7025  140.1820  157.9032 H   0  0  0  0  0  0  0  0  0  0  0  0
  145.2198  141.3615  156.6791 H   0  0  0  0  0  0  0  0  0  0  0  0
  144.9798  138.3433  156.5418 H   0  0  0  0  0  0  0  0  0  0  0  0
  143.7401  139.5301  156.1402 H   0  0  0  0  0  0  0  0  0  0  0  0
  145.8906  137.2950  154.5906 H   0  0  0  0  0  0  0  0  0  0  0  0
  144.2595  137.6056  154.0360 H   0  0  0  0  0  0  0  0  0  0  0  0
  145.8812  137.1090  152.1527 H   0  0  0  0  0  0  0  0  0  0  0  0
  145.0427  138.6241  151.9730 H   0  0  0  0  0  0  0  0  0  0  0  0
  147.8689  138.2321  151.9582 H   0  0  0  0  0  0  0  0  0  0  0  0
  147.0002  139.7377  151.8393 H   0  0  0  0  0  0  0  0  0  0  0  0
  148.0243  138.4122  154.3815 H   0  0  0  0  0  0  0  0  0  0  0  0
  148.5566  139.9236  153.6985 H   0  0  0  0  0  0  0  0  0  0  0  0
  146.4091  141.0066  154.1930 H   0  0  0  0  0  0  0  0  0  0  0  0
  144.6629  139.9119  154.1698 H   0  0  0  0  0  0  0  0  0  0  0  0
  1  2  2  0  0  0  0
  2  3  1  0  0  0  0
  2 10  1  0  0  0  0
  3  4  1  0  0  0  0
  3 20  1  0  0  0  0
  4  9  1  0  0  0  0
  4  5  2  0  0  0  0
  5  6  1  0  0  0  0
  5 21  1  0  0  0  0
  6  7  2  0  0  0  0
  6 22  1  0  0  0  0
  7  8  1  0  0  0  0
  7 23  1  0  0  0  0
  8  9  2  0  0  0  0
  8 24  1  0  0  0  0
 10 11  1  0  0  0  0
 10 25  1  0  0  0  0
 11 19  1  0  0  0  0
 11 12  1  0  0  0  0
 11 26  1  0  0  0  0
 12 13  1  0  0  0  0
 12 27  1  0  0  0  0
 12 28  1  0  0  0  0
 13 14  1  0  0  0  0
 13 29  1  0  0  0  0
 13 30  1  0  0  0  0
 14 19  1  0  0  0  0
 14 15  1  0  0  0  0
 14 40  1  0  0  0  0
 15 16  1  0  0  0  0
 15 31  1  0  0  0  0
 15 32  1  0  0  0  0
 16 17  1  0  0  0  0
 16 33  1  0  0  0  0
 16 34  1  0  0  0  0
 17 18  1  0  0  0  0
 17 35  1  0  0  0  0
 17 36  1  0  0  0  0
 18 19  1  0  0  0  0
 18 37  1  0  0  0  0
 18 38  1  0  0  0  0
 19 39  1  0  0  0  0
M  CHG  1  14   1
M  END
> <s_m_source_file>
AV-unprocessed.smi

> <i_m_source_file_index>
1452

> <i_lp_mmshare_version>
43012

> <i_f3d_flags>
0

> <s_epik_input>
W0NIMl0xW0NIMl1bQ0gyXVtDSDJdW0NASF0oTjEyKVtDQEBIXShbQ0gyXVtDSDJdMilbTkhdQyg9TylbTkhdYzNbY0hdW2NIXVtjSF1bY0hdbjM=

> <s_epik_cmdline>
J2VwaWtfcHl0aG9uJywgJy1waCcsICc3LjAnLCAnLXRuJywgJzgnLCAnLW1hJywgJzIwMCcsICctbWV0YWxfYmluZGluZycsICctaW1hZScsICc8aW5maWxlLm1hZT4nLCAnLW9tYWUnLCAnPG91dGZpbGUubWFlPic=

> <r_epik_Ionization_Penalty>
0.00100813

> <r_epik_Ionization_Penalty_Charging>
0.000974069

> <r_epik_Ionization_Penalty_Neutral>
3.40643e-05

> <r_epik_State_Penalty>
0.000633842

> <r_epik_Charging_Adjusted_Penalty>
0.00160791

> <i_epik_Tot_Q>
1

> <i_epik_Tot_abs_Q>
1

> <r_epik_Metal_State_Penalty>
-0

> <b_epik_Metal_Only>
0

> <s_lp_Force_Field>
OPLS_2005

> <r_lp_Energy>
44.0476

> <b_lp_Chiralities_Consistent>
1

> <s_lp_Variant>
AV-unprocessed.smi:1452-6

> <Gold.Version>
5.8.1

> <Gold.Id.Protein>
6NUR|6NUR_protein|mol2

> <Gold.PLP.Fitness>
34.3606

> <Gold.PLP.PLP>
-25.8352

> <Gold.PLP.part.hbond>
-2.0000

> <Gold.PLP.part.metal>
0.0000

> <Gold.PLP.part.buried>
-1.4148

> <Gold.PLP.part.nonpolar>
-23.1297

> <Gold.PLP.part.repulsive>
0.1944

> <Gold.PLP.ligand.clash>
0.0165

> <Gold.PLP.ligand.torsion>
0.2328

> <Gold.PLP.Chemscore.Hbond>
3.0000

> <Gold.PLP.Chemscore.CHOScore>
0.0000

> <Gold.PLP.Chemscore.Metal>
0.0000

> <Gold.Chemscore.Hbonds>
donor molecule, donor type, donor heavy atom, donor atom, acceptor molecule, acceptor atom, score
      L1  H     3    20       P1  8028  1.00
      L1  H    14    40       P1 10175  2.00

> <Gold.PLP.Chemscore.Internal.Correction>
0.0075

> <Gold.Rescore>
     Score         DG    S(hbond)    S(metal)    S(lipo)     H(rot)  DE(clash)    DE(int)     intcor
     15.75     -18.43       1.96        0.00      76.60       1.00       1.04       1.63       ----

> <Gold.Chemscore.Fitness>
15.7519

> <Gold.Chemscore.DG>
-18.4251

> <Gold.Chemscore.ZeroCoef>
-5.4800

> <Gold.Chemscore.Hbond>
1.9588

> <Gold.Chemscore.Metal>
0.0000

> <Gold.Chemscore.Lipo>
76.6042

> <Gold.Chemscore.Internal_Hbond>
0.0000

> <Gold.Chemscore.DEClash>
1.0422

> <Gold.Chemscore.DEInternal>
1.6310

> <Gold.Chemscore.Rot>
1.0000

> <Gold.Chemscore.Internal.Correction>
   9.000000E+99

> <Gold.Chemscore.Hbonds>
donor molecule, donor type, donor heavy atom, donor atom, acceptor molecule, acceptor atom, score
      L1  H     3    20       P1  8028  0.98
      L1  H    14    40       P1 10175  0.91

> <Gold.Chemscore.Hbond.Weighted>
-6.5424

> <Gold.Chemscore.Metal.Weighted>
-0.0000

> <Gold.Chemscore.Lipo.Weighted>
-8.9627

> <Gold.Chemscore.Internal_Hbond.Weighted>
0.0000

> <Gold.Chemscore.DEClash.Weighted>
1.0422

> <Gold.Chemscore.DEInternal.Weighted>
1.6310

> <Gold.Chemscore.Rot.Weighted>
2.5600

> <Gold.Chemscore.Internal.Correction.Weighted>
   9.000000E+99

> <Gold.Protein.RotatedTorsions>
[ 6907 6896 6895 6894 ] final -160.48 input  -60.11 | X-H torsion
[ 7974 7965 7964 7962 ] final  100.20 input  175.53 | X-H torsion
[ 8008 7997 7996 7995 ] final  135.49 input   59.86 | X-H torsion
[ 10167 10162 10161 10158 ] final  -83.87 input  -65.29 | X-H torsion
[ 10718 10713 10712 10709 ] final  -17.83 input   66.30 | X-H torsion
[ 10763 10752 10751 10750 ] final  131.95 input  -60.55 | X-H torsion
[ 11005 11000 10999 10996 ] final  121.18 input  -57.11 | X-H torsion

> <Gold.Protein.ActiveResidues>
 VAL166  LYS551  ARG553  GLY616  TRP617  ASP618  TYR619  PRO620  LYS621  CYS622 
 ASP623  PHE694  ASN695  SER759  ASP760  ASP761  ALA762  ILE779  LEU786  VAL792 
 PHE793  MET794  SER795  GLU796  ALA797  LYS798  CYS799  TRP800  GLU811  SER814 

> <Gold.Protein.RotatedAtoms>
  151.3498  133.3930  159.2678 H   0  0  0  0  0  0  0  0  0  0  0  0  # atno 6907 bound_to 6896
  150.9811  134.9166  159.7855 H   0  0  0  0  0  0  0  0  0  0  0  0  # atno 6908 bound_to 6896
  152.5217  134.3461  159.9287 H   0  0  0  0  0  0  0  0  0  0  0  0  # atno 6909 bound_to 6896
  145.3888  139.2366  143.3363 H   0  0  0  0  0  0  0  0  0  0  0  0  # atno 7974 bound_to 7965
  156.3003  140.2469  156.3590 H   0  0  0  0  0  0  0  0  0  0  0  0  # atno 8008 bound_to 7997
  154.8894  140.0410  157.1849 H   0  0  0  0  0  0  0  0  0  0  0  0  # atno 8009 bound_to 7997
  154.8613  140.2921  155.5541 H   0  0  0  0  0  0  0  0  0  0  0  0  # atno 8010 bound_to 7997
  140.4186  143.2594  151.8921 H   0  0  0  0  0  0  0  0  0  0  0  0  # atno 10167 bound_to 10162
  156.5680  130.4742  149.6376 H   0  0  0  0  0  0  0  0  0  0  0  0  # atno 10718 bound_to 10713
  153.7828  135.3166  155.3368 H   0  0  0  0  0  0  0  0  0  0  0  0  # atno 10763 bound_to 10752
  154.8155  135.4639  154.0635 H   0  0  0  0  0  0  0  0  0  0  0  0  # atno 10764 bound_to 10752
  153.1929  135.6911  153.8415 H   0  0  0  0  0  0  0  0  0  0  0  0  # atno 10765 bound_to 10752
  139.9215  134.9638  156.7919 H   0  0  0  0  0  0  0  0  0  0  0  0  # atno 11005 bound_to 11000
  146.2807  140.4567  142.8777 LP  0  0  0  0  0  0  0  0  0  0  0  0  # atno 17320 bound_to 7965
  144.8455  140.6922  143.6202 LP  0  0  0  0  0  0  0  0  0  0  0  0  # atno 17321 bound_to 7965
  139.4782  144.5462  151.8455 LP  0  0  0  0  0  0  0  0  0  0  0  0  # atno 17342 bound_to 10162
  140.4559  144.1790  150.5901 LP  0  0  0  0  0  0  0  0  0  0  0  0  # atno 17343 bound_to 10162
  156.2740  130.7033  151.1838 LP  0  0  0  0  0  0  0  0  0  0  0  0  # atno 17370 bound_to 10713
  157.7354  131.0572  150.5470 LP  0  0  0  0  0  0  0  0  0  0  0  0  # atno 17371 bound_to 10713
  140.6460  133.9775  155.7731 LP  0  0  0  0  0  0  0  0  0  0  0  0  # atno 17394 bound_to 11000
  141.0740  134.0163  157.3485 LP  0  0  0  0  0  0  0  0  0  0  0  0  # atno 17395 bound_to 11000

$$$$
