AV-unprocessed.smi:2695|AV-procd|sdf|10412|dock10
  -GOLD-   2272014453D 1   1.00000     0.00000
 Structure written by MMmdl.
 42 43  0  0  0  0  0  0  0  0  1 V2000
  149.0469  141.6941  154.6252 C   0  0  0  0  0  0  0  0  0  0  0  0
  149.9726  140.5341  154.9688 C   0  0  0  0  0  0  0  0  0  0  0  0
  151.0281  140.7488  155.7879 C   0  0  0  0  0  0  0  0  0  0  0  0
  151.9651  139.6602  156.1149 C   0  0  0  0  0  0  0  0  0  0  0  0
  152.9125  139.8223  156.8812 O   0  0  0  0  0  0  0  0  0  0  0  0
  151.6996  138.3695  155.4643 C   0  0  0  0  0  0  0  0  0  0  0  0
  150.6215  138.2480  154.6661 C   0  0  0  0  0  0  0  0  0  0  0  0
  150.3480  137.0958  154.0347 O   0  0  0  0  0  0  0  0  0  0  0  0
  149.6921  139.2725  154.3971 N   0  0  0  0  0  0  0  0  0  0  0  0
  148.4951  139.0346  153.5698 C   0  0  0  0  0  0  0  0  0  0  0  0
  147.4782  138.0904  154.2272 C   0  0  0  0  0  0  0  0  0  0  0  0
  146.7879  138.4634  155.1766 O   0  0  0  0  0  0  0  0  0  0  0  0
  147.4089  136.8571  153.7037 N   0  0  0  0  0  0  0  0  0  0  0  0
  146.5213  135.7812  154.1488 C   0  0  1  0  0  0  0  0  0  0  0  0
  145.7772  135.1976  152.9210 C   0  0  0  0  0  0  0  0  0  0  0  0
  145.1432  136.2563  152.0091 C   0  0  0  0  0  0  0  0  0  0  0  0
  144.1432  135.4785  151.1541 C   0  0  0  0  0  0  0  0  0  0  0  0
  143.6614  134.3178  152.0335 C   0  0  0  0  0  0  0  0  0  0  0  0
  144.5902  134.2823  153.2554 C   0  0  0  0  0  0  0  0  0  0  0  0
  147.3473  134.7372  154.9362 C   0  0  0  0  0  0  0  0  0  0  0  0
  148.1625  134.0833  154.1076 F   0  0  0  0  0  0  0  0  0  0  0  0
  148.1003  135.3256  155.8647 F   0  0  0  0  0  0  0  0  0  0  0  0
  146.5435  133.8532  155.5287 F   0  0  0  0  0  0  0  0  0  0  0  0
  149.5110  142.6489  154.8744 H   0  0  0  0  0  0  0  0  0  0  0  0
  148.1177  141.6202  155.1906 H   0  0  0  0  0  0  0  0  0  0  0  0
  148.8131  141.7272  153.5614 H   0  0  0  0  0  0  0  0  0  0  0  0
  151.2173  141.7251  156.2101 H   0  0  0  0  0  0  0  0  0  0  0  0
  152.3804  137.5477  155.6332 H   0  0  0  0  0  0  0  0  0  0  0  0
  148.0007  139.9778  153.3338 H   0  0  0  0  0  0  0  0  0  0  0  0
  148.7611  138.6356  152.5918 H   0  0  0  0  0  0  0  0  0  0  0  0
  148.0214  136.6409  152.9309 H   0  0  0  0  0  0  0  0  0  0  0  0
  145.7685  136.1881  154.8261 H   0  0  0  0  0  0  0  0  0  0  0  0
  146.4841  134.6247  152.3183 H   0  0  0  0  0  0  0  0  0  0  0  0
  144.6131  136.9969  152.6099 H   0  0  0  0  0  0  0  0  0  0  0  0
  145.8769  136.7871  151.4015 H   0  0  0  0  0  0  0  0  0  0  0  0
  143.3225  136.1064  150.8060 H   0  0  0  0  0  0  0  0  0  0  0  0
  144.6486  135.0818  150.2728 H   0  0  0  0  0  0  0  0  0  0  0  0
  142.6265  134.4630  152.3456 H   0  0  0  0  0  0  0  0  0  0  0  0
  143.7047  133.3796  151.4795 H   0  0  0  0  0  0  0  0  0  0  0  0
  144.9071  133.2663  153.4924 H   0  0  0  0  0  0  0  0  0  0  0  0
  144.0542  134.6691  154.1234 H   0  0  0  0  0  0  0  0  0  0  0  0
  149.9110  137.3119  153.2249 H   0  0  0  0  0  0  0  0  0  0  0  0
  1  2  1  0  0  0  0
  1 24  1  0  0  0  0
  1 25  1  0  0  0  0
  1 26  1  0  0  0  0
  2  9  1  0  0  0  0
  2  3  2  0  0  0  0
  3  4  1  0  0  0  0
  3 27  1  0  0  0  0
  4  5  2  0  0  0  0
  4  6  1  0  0  0  0
  6  7  2  0  0  0  0
  6 28  1  0  0  0  0
  7  8  1  0  0  0  0
  7  9  1  0  0  0  0
  8 42  1  0  0  0  0
  9 10  1  0  0  0  0
 10 11  1  0  0  0  0
 10 29  1  0  0  0  0
 10 30  1  0  0  0  0
 11 12  2  0  0  0  0
 11 13  1  0  0  0  0
 13 14  1  0  0  0  0
 13 31  1  0  0  0  0
 14 15  1  0  0  0  0
 14 20  1  0  0  0  0
 14 32  1  0  0  0  0
 15 19  1  0  0  0  0
 15 16  1  0  0  0  0
 15 33  1  0  0  0  0
 16 17  1  0  0  0  0
 16 34  1  0  0  0  0
 16 35  1  0  0  0  0
 17 18  1  0  0  0  0
 17 36  1  0  0  0  0
 17 37  1  0  0  0  0
 18 19  1  0  0  0  0
 18 38  1  0  0  0  0
 18 39  1  0  0  0  0
 19 40  1  0  0  0  0
 19 41  1  0  0  0  0
 20 21  1  0  0  0  0
 20 22  1  0  0  0  0
 20 23  1  0  0  0  0
M  END
> <s_m_source_file>
AV-unprocessed.smi

> <i_m_source_file_index>
2695

> <i_lp_mmshare_version>
43012

> <i_f3d_flags>
0

> <s_epik_input>
W0NIM11jMVtjSF1jKFtPSF0pW2NIXWMoPU8pbjFbQ0gyXUMoPU8pW05IXVtDQEBIXShDKEYpKEYpRilbQ0hdMltDSDJdW0NIMl1bQ0gyXVtDSDJdMg==

> <s_epik_cmdline>
J2VwaWtfcHl0aG9uJywgJy1waCcsICc3LjAnLCAnLXRuJywgJzgnLCAnLW1hJywgJzIwMCcsICctbWV0YWxfYmluZGluZycsICctaW1hZScsICc8aW5maWxlLm1hZT4nLCAnLW9tYWUnLCAnPG91dGZpbGUubWFlPic=

> <r_epik_Ionization_Penalty>
1.35977e-07

> <r_epik_Ionization_Penalty_Charging>
0

> <r_epik_Ionization_Penalty_Neutral>
1.35977e-07

> <r_epik_State_Penalty>
2.53185

> <r_epik_Charging_Adjusted_Penalty>
2.53185

> <i_epik_Tot_Q>
0

> <i_epik_Tot_abs_Q>
0

> <r_epik_Metal_State_Penalty>
2.53184

> <b_epik_Metal_Only>
0

> <s_lp_Force_Field>
OPLS_2005

> <r_lp_Energy>
25.7414

> <b_lp_Chiralities_Consistent>
1

> <s_lp_Variant>
AV-unprocessed.smi:2695-6

> <Gold.Version>
5.8.1

> <Gold.Id.Protein>
6NUR|6NUR_protein|mol2

> <Gold.PLP.Fitness>
39.5439

> <Gold.PLP.PLP>
-32.6924

> <Gold.PLP.part.hbond>
-3.8544

> <Gold.PLP.part.metal>
0.0000

> <Gold.PLP.part.buried>
1.4394

> <Gold.PLP.part.nonpolar>
-29.9006

> <Gold.PLP.part.repulsive>
0.0413

> <Gold.PLP.ligand.clash>
0.0000

> <Gold.PLP.ligand.torsion>
0.5843

> <Gold.PLP.Chemscore.Hbond>
2.5655

> <Gold.PLP.Chemscore.CHOScore>
0.0000

> <Gold.PLP.Chemscore.Metal>
0.0000

> <Gold.Chemscore.Hbonds>
donor molecule, donor type, donor heavy atom, donor atom, acceptor molecule, acceptor atom, score
      L1  H     8    42       P1  7948  0.67
      L1  H    13    31       P1  7948  0.86
      P1  H  7997  8008       L1     5  0.93

> <Gold.PLP.Chemscore.Internal.Correction>
0.3236

> <Gold.Rescore>
     Score         DG    S(hbond)    S(metal)    S(lipo)     H(rot)  DE(clash)    DE(int)     intcor
     12.59     -13.57       2.33        0.00      56.33       2.45       0.24       0.73       ----

> <Gold.Chemscore.Fitness>
12.5940

> <Gold.Chemscore.DG>
-13.5653

> <Gold.Chemscore.ZeroCoef>
-5.4800

> <Gold.Chemscore.Hbond>
2.3262

> <Gold.Chemscore.Metal>
0.0000

> <Gold.Chemscore.Lipo>
56.3324

> <Gold.Chemscore.Internal_Hbond>
0.0000

> <Gold.Chemscore.DEClash>
0.2390

> <Gold.Chemscore.DEInternal>
0.7323

> <Gold.Chemscore.Rot>
2.4512

> <Gold.Chemscore.Internal.Correction>
   9.000000E+99

> <Gold.Chemscore.Hbonds>
donor molecule, donor type, donor heavy atom, donor atom, acceptor molecule, acceptor atom, score
      L1  H     8    42       P1  7948  0.23
      L1  H    13    31       P1  7948  0.84
      P1  H  7997  8008       L1     5  0.89

> <Gold.Chemscore.Hbond.Weighted>
-7.7696

> <Gold.Chemscore.Metal.Weighted>
-0.0000

> <Gold.Chemscore.Lipo.Weighted>
-6.5909

> <Gold.Chemscore.Internal_Hbond.Weighted>
0.0000

> <Gold.Chemscore.DEClash.Weighted>
0.2390

> <Gold.Chemscore.DEInternal.Weighted>
0.7323

> <Gold.Chemscore.Rot.Weighted>
6.2752

> <Gold.Chemscore.Internal.Correction.Weighted>
   9.000000E+99

> <Gold.Protein.RotatedTorsions>
[ 6907 6896 6895 6894 ] final -166.45 input  -60.11 | X-H torsion
[ 7974 7965 7964 7962 ] final -105.55 input  175.53 | X-H torsion
[ 8008 7997 7996 7995 ] final  -54.11 input   59.86 | X-H torsion
[ 10167 10162 10161 10158 ] final -149.71 input  -65.29 | X-H torsion
[ 10718 10713 10712 10709 ] final   72.11 input   66.30 | X-H torsion
[ 10763 10752 10751 10750 ] final -178.01 input  -60.55 | X-H torsion
[ 11005 11000 10999 10996 ] final   90.58 input  -57.11 | X-H torsion

> <Gold.Protein.ActiveResidues>
 VAL166  LYS551  ARG553  GLY616  TRP617  ASP618  TYR619  PRO620  LYS621  CYS622 
 ASP623  PHE694  ASN695  SER759  ASP760  ASP761  ALA762  ILE779  LEU786  VAL792 
 PHE793  MET794  SER795  GLU796  ALA797  LYS798  CYS799  TRP800  GLU811  SER814 

> <Gold.Protein.RotatedAtoms>
  151.4437  133.3636  159.2785 H   0  0  0  0  0  0  0  0  0  0  0  0  # atno 6907 bound_to 6896
  150.9139  134.8558  159.7454 H   0  0  0  0  0  0  0  0  0  0  0  0  # atno 6908 bound_to 6896
  152.4947  134.4369  159.9583 H   0  0  0  0  0  0  0  0  0  0  0  0  # atno 6909 bound_to 6896
  145.2290  140.9163  143.3215 H   0  0  0  0  0  0  0  0  0  0  0  0  # atno 7974 bound_to 7965
  154.4153  140.1184  156.5262 H   0  0  0  0  0  0  0  0  0  0  0  0  # atno 8008 bound_to 7997
  155.6652  140.3496  155.4778 H   0  0  0  0  0  0  0  0  0  0  0  0  # atno 8009 bound_to 7997
  155.9680  140.1136  157.0828 H   0  0  0  0  0  0  0  0  0  0  0  0  # atno 8010 bound_to 7997
  139.7418  143.8650  152.2564 H   0  0  0  0  0  0  0  0  0  0  0  0  # atno 10167 bound_to 10162
  157.6485  130.9562  150.0882 H   0  0  0  0  0  0  0  0  0  0  0  0  # atno 10718 bound_to 10713
  154.5530  135.2814  155.0990 H   0  0  0  0  0  0  0  0  0  0  0  0  # atno 10763 bound_to 10752
  154.2428  135.6353  153.5217 H   0  0  0  0  0  0  0  0  0  0  0  0  # atno 10764 bound_to 10752
  153.0008  135.5564  154.6102 H   0  0  0  0  0  0  0  0  0  0  0  0  # atno 10765 bound_to 10752
  139.8853  134.8622  156.3306 H   0  0  0  0  0  0  0  0  0  0  0  0  # atno 11005 bound_to 11000
  144.9694  139.3896  143.6316 LP  0  0  0  0  0  0  0  0  0  0  0  0  # atno 17320 bound_to 7965
  146.3357  139.8784  142.8828 LP  0  0  0  0  0  0  0  0  0  0  0  0  # atno 17321 bound_to 7965
  139.8603  144.7120  150.9108 LP  0  0  0  0  0  0  0  0  0  0  0  0  # atno 17342 bound_to 10162
  140.7787  143.3823  151.1454 LP  0  0  0  0  0  0  0  0  0  0  0  0  # atno 17343 bound_to 10162
  156.1839  130.3651  149.8999 LP  0  0  0  0  0  0  0  0  0  0  0  0  # atno 17370 bound_to 10713
  156.6944  130.8908  151.3592 LP  0  0  0  0  0  0  0  0  0  0  0  0  # atno 17371 bound_to 10713
  140.9726  133.7318  156.0556 LP  0  0  0  0  0  0  0  0  0  0  0  0  # atno 17394 bound_to 11000
  140.7852  134.3680  157.5478 LP  0  0  0  0  0  0  0  0  0  0  0  0  # atno 17395 bound_to 11000

$$$$
