AV-unprocessed.smi:740|AV-procd|sdf|3552|dock5
  -GOLD-   22720 0543D 1   1.00000     0.00000
 Structure written by MMmdl.
 45 47  0  0  0  0  0  0  0  0  2 V2000
  153.4239  142.8697  163.4893 C   0  0  0  0  0  0  0  0  0  0  0  0
  153.0040  142.9539  162.0317 C   0  0  0  0  0  0  0  0  0  0  0  0
  152.2245  144.0570  161.6174 C   0  0  0  0  0  0  0  0  0  0  0  0
  151.8543  144.1051  160.2789 C   0  0  0  0  0  0  0  0  0  0  0  0
  151.0977  145.0435  159.5744 N   0  3  0  0  0  0  0  0  0  0  0  0
  150.9979  144.6606  158.2716 C   0  0  0  0  0  0  0  0  0  0  0  0
  151.6822  143.4930  158.1326 N   0  0  0  0  0  0  0  0  0  0  0  0
  151.8830  142.6663  156.9339 C   0  0  0  0  0  0  0  0  0  0  0  0
  150.6759  141.7587  156.6267 C   0  0  2  0  0  0  0  0  0  0  0  0
  150.1849  141.2255  157.8411 O   0  0  0  0  0  0  0  0  0  0  0  0
  151.0652  140.5944  155.6920 C   0  0  0  0  0  0  0  0  0  0  0  0
  149.9064  140.0518  154.9735 N   0  0  0  0  0  0  0  0  0  0  0  0
  149.0173  140.8014  154.3077 C   0  0  0  0  0  0  0  0  0  0  0  0
  149.0386  142.0266  154.1936 O   0  0  0  0  0  0  0  0  0  0  0  0
  147.9286  139.9362  153.6887 C   0  0  0  0  0  0  0  0  0  0  0  0
  148.3201  138.5141  154.1179 C   0  0  2  0  0  0  0  0  0  0  0  0
  147.2388  137.7967  154.9429 C   0  0  0  0  0  0  0  0  0  0  0  0
  149.5913  138.7494  154.9316 C   0  0  0  0  0  0  0  0  0  0  0  0
  150.2163  137.8347  155.4687 O   0  0  0  0  0  0  0  0  0  0  0  0
  152.2338  143.1067  159.3604 C   0  0  0  0  0  0  0  0  0  0  0  0
  153.0029  142.0133  159.7528 C   0  0  0  0  0  0  0  0  0  0  0  0
  153.3866  141.9440  161.1113 C   0  0  0  0  0  0  0  0  0  0  0  0
  154.2213  140.7595  161.5682 C   0  0  0  0  0  0  0  0  0  0  0  0
  153.0885  143.7414  164.0519 H   0  0  0  0  0  0  0  0  0  0  0  0
  154.5095  142.8168  163.5746 H   0  0  0  0  0  0  0  0  0  0  0  0
  152.9953  141.9842  163.9592 H   0  0  0  0  0  0  0  0  0  0  0  0
  151.9275  144.8288  162.3124 H   0  0  0  0  0  0  0  0  0  0  0  0
  150.4710  145.1879  157.4895 H   0  0  0  0  0  0  0  0  0  0  0  0
  152.0467  143.3543  156.1035 H   0  0  0  0  0  0  0  0  0  0  0  0
  152.8027  142.0899  157.0371 H   0  0  0  0  0  0  0  0  0  0  0  0
  149.8911  142.3628  156.1695 H   0  0  0  0  0  0  0  0  0  0  0  0
  150.6995  141.5744  158.5528 H   0  0  0  0  0  0  0  0  0  0  0  0
  151.7830  140.9487  154.9499 H   0  0  0  0  0  0  0  0  0  0  0  0
  151.5917  139.8147  156.2455 H   0  0  0  0  0  0  0  0  0  0  0  0
  146.9509  140.2342  154.0696 H   0  0  0  0  0  0  0  0  0  0  0  0
  147.9263  140.0454  152.6036 H   0  0  0  0  0  0  0  0  0  0  0  0
  148.5710  137.9170  153.2402 H   0  0  0  0  0  0  0  0  0  0  0  0
  147.5444  136.7805  155.1940 H   0  0  0  0  0  0  0  0  0  0  0  0
  146.3051  137.7292  154.3841 H   0  0  0  0  0  0  0  0  0  0  0  0
  147.0294  138.3225  155.8755 H   0  0  0  0  0  0  0  0  0  0  0  0
  153.2926  141.2424  159.0547 H   0  0  0  0  0  0  0  0  0  0  0  0
  154.3842  140.0488  160.7573 H   0  0  0  0  0  0  0  0  0  0  0  0
  153.7233  140.2279  162.3793 H   0  0  0  0  0  0  0  0  0  0  0  0
  155.1976  141.0938  161.9201 H   0  0  0  0  0  0  0  0  0  0  0  0
  150.6787  145.8838  159.9522 H   0  0  0  0  0  0  0  0  0  0  0  0
  1  2  1  0  0  0  0
  1 24  1  0  0  0  0
  1 25  1  0  0  0  0
  1 26  1  0  0  0  0
  2 22  1  0  0  0  0
  2  3  2  0  0  0  0
  3  4  1  0  0  0  0
  3 27  1  0  0  0  0
  4 20  2  0  0  0  0
  4  5  1  0  0  0  0
  5  6  2  0  0  0  0
  5 45  1  0  0  0  0
  6  7  1  0  0  0  0
  6 28  1  0  0  0  0
  7  8  1  0  0  0  0
  7 20  1  0  0  0  0
  8  9  1  0  0  0  0
  8 29  1  0  0  0  0
  8 30  1  0  0  0  0
  9 10  1  0  0  0  0
  9 11  1  0  0  0  0
  9 31  1  0  0  0  0
 10 32  1  0  0  0  0
 11 12  1  0  0  0  0
 11 33  1  0  0  0  0
 11 34  1  0  0  0  0
 12 18  1  0  0  0  0
 12 13  1  0  0  0  0
 13 14  2  0  0  0  0
 13 15  1  0  0  0  0
 15 16  1  0  0  0  0
 15 35  1  0  0  0  0
 15 36  1  0  0  0  0
 16 17  1  0  0  0  0
 16 18  1  0  0  0  0
 16 37  1  0  0  0  0
 17 38  1  0  0  0  0
 17 39  1  0  0  0  0
 17 40  1  0  0  0  0
 18 19  2  0  0  0  0
 20 21  1  0  0  0  0
 21 22  2  0  0  0  0
 21 41  1  0  0  0  0
 22 23  1  0  0  0  0
 23 42  1  0  0  0  0
 23 43  1  0  0  0  0
 23 44  1  0  0  0  0
M  CHG  1   5   1
M  END
> <s_m_source_file>
AV-unprocessed.smi

> <i_m_source_file_index>
740

> <i_lp_mmshare_version>
43012

> <i_f3d_flags>
0

> <s_epik_input>
W0NIM11jKFtjSF0xKWMoW0NIM10pW2NIXWMoYzEyKW4oW2NIXW4yKVtDSDJdW0NASF0oW09IXSlbQ0gyXU4zQyg9TylbQ0gyXVtDQEBIXShbQ0gzXSlDMz1P

> <s_epik_cmdline>
J2VwaWtfcHl0aG9uJywgJy1waCcsICc3LjAnLCAnLXRuJywgJzgnLCAnLW1hJywgJzIwMCcsICctbWV0YWxfYmluZGluZycsICctaW1hZScsICc8aW5maWxlLm1hZT4nLCAnLW9tYWUnLCAnPG91dGZpbGUubWFlPic=

> <r_lp_tautomer_probability>
1

> <r_epik_Ionization_Penalty>
1.08202

> <r_epik_Ionization_Penalty_Charging>
1.08202

> <r_epik_Ionization_Penalty_Neutral>
1.16605e-06

> <r_epik_State_Penalty>
1.13754

> <r_epik_Charging_Adjusted_Penalty>
2.21956

> <i_epik_Tot_Q>
1

> <i_epik_Tot_abs_Q>
1

> <r_epik_Metal_State_Penalty>
5.13645

> <b_epik_Metal_Only>
0

> <s_lp_Force_Field>
OPLS_2005

> <r_lp_Energy>
22.2654

> <b_lp_Chiralities_Consistent>
1

> <s_lp_Variant>
AV-unprocessed.smi:740-7

> <Gold.Version>
5.8.1

> <Gold.Id.Protein>
6NUR|6NUR_protein|mol2

> <Gold.PLP.Fitness>
53.1449

> <Gold.PLP.PLP>
-51.1924

> <Gold.PLP.part.hbond>
-1.1412

> <Gold.PLP.part.metal>
0.0000

> <Gold.PLP.part.buried>
-4.0706

> <Gold.PLP.part.nonpolar>
-46.6493

> <Gold.PLP.part.repulsive>
0.9177

> <Gold.PLP.ligand.clash>
0.0000

> <Gold.PLP.ligand.torsion>
0.7905

> <Gold.PLP.Chemscore.Hbond>
0.3840

> <Gold.PLP.Chemscore.CHOScore>
0.7827

> <Gold.PLP.Chemscore.Metal>
0.0000

> <Gold.Chemscore.Hbonds>
donor molecule, donor type, donor heavy atom, donor atom, acceptor molecule, acceptor atom, score
      P1  H  8011  8017       L1    14  0.38
      L1  C     6    28       P1  8028  0.71
      L1  C     6    28       P1  8029  0.10

> <Gold.PLP.Chemscore.Internal.Correction>
0.0337

> <Gold.Rescore>
     Score         DG    S(hbond)    S(metal)    S(lipo)     H(rot)  DE(clash)    DE(int)     intcor
     12.35     -16.15       0.71        0.00     122.73       2.37       1.87       1.93       ----

> <Gold.Chemscore.Fitness>
12.3500

> <Gold.Chemscore.DG>
-16.1533

> <Gold.Chemscore.ZeroCoef>
-5.4800

> <Gold.Chemscore.Hbond>
0.7146

> <Gold.Chemscore.Metal>
0.0000

> <Gold.Chemscore.Lipo>
122.7345

> <Gold.Chemscore.Internal_Hbond>
0.0000

> <Gold.Chemscore.DEClash>
1.8732

> <Gold.Chemscore.DEInternal>
1.9301

> <Gold.Chemscore.Rot>
2.3724

> <Gold.Chemscore.Internal.Correction>
   9.000000E+99

> <Gold.Chemscore.Hbonds>
donor molecule, donor type, donor heavy atom, donor atom, acceptor molecule, acceptor atom, score
      P1  H  8011  8017       L1    14  0.21

> <Gold.Chemscore.Hbond.Weighted>
-2.3867

> <Gold.Chemscore.Metal.Weighted>
-0.0000

> <Gold.Chemscore.Lipo.Weighted>
-14.3599

> <Gold.Chemscore.Internal_Hbond.Weighted>
0.0000

> <Gold.Chemscore.DEClash.Weighted>
1.8732

> <Gold.Chemscore.DEInternal.Weighted>
1.9301

> <Gold.Chemscore.Rot.Weighted>
6.0734

> <Gold.Chemscore.Internal.Correction.Weighted>
   9.000000E+99

> <Gold.Protein.RotatedTorsions>
[ 6907 6896 6895 6894 ] final  -70.18 input  -60.11 | X-H torsion
[ 7974 7965 7964 7962 ] final   89.79 input  175.53 | X-H torsion
[ 8008 7997 7996 7995 ] final  127.46 input   59.86 | X-H torsion
[ 10167 10162 10161 10158 ] final -170.46 input  -65.29 | X-H torsion
[ 10718 10713 10712 10709 ] final -154.64 input   66.30 | X-H torsion
[ 10763 10752 10751 10750 ] final  169.68 input  -60.55 | X-H torsion
[ 11005 11000 10999 10996 ] final   69.36 input  -57.11 | X-H torsion

> <Gold.Protein.ActiveResidues>
 VAL166  LYS551  ARG553  GLY616  TRP617  ASP618  TYR619  PRO620  LYS621  CYS622 
 ASP623  PHE694  ASN695  SER759  ASP760  ASP761  ALA762  ILE779  LEU786  VAL792 
 PHE793  MET794  SER795  GLU796  ALA797  LYS798  CYS799  TRP800  GLU811  SER814 

> <Gold.Protein.RotatedAtoms>
  150.7270  134.5490  159.5784 H   0  0  0  0  0  0  0  0  0  0  0  0  # atno 6907 bound_to 6896
  152.2982  134.7639  160.0372 H   0  0  0  0  0  0  0  0  0  0  0  0  # atno 6908 bound_to 6896
  151.8229  133.3362  159.3626 H   0  0  0  0  0  0  0  0  0  0  0  0  # atno 6909 bound_to 6896
  145.5276  139.2282  143.2637 H   0  0  0  0  0  0  0  0  0  0  0  0  # atno 7974 bound_to 7965
  156.2891  140.2668  156.2276 H   0  0  0  0  0  0  0  0  0  0  0  0  # atno 8008 bound_to 7997
  155.0104  140.0387  157.2415 H   0  0  0  0  0  0  0  0  0  0  0  0  # atno 8009 bound_to 7997
  154.7523  140.2745  155.6287 H   0  0  0  0  0  0  0  0  0  0  0  0  # atno 8010 bound_to 7997
  139.5860  144.1317  152.1576 H   0  0  0  0  0  0  0  0  0  0  0  0  # atno 10167 bound_to 10162
  156.5021  130.8396  151.2613 H   0  0  0  0  0  0  0  0  0  0  0  0  # atno 10718 bound_to 10713
  154.3867  135.2753  155.2179 H   0  0  0  0  0  0  0  0  0  0  0  0  # atno 10763 bound_to 10752
  154.4263  135.5988  153.6044 H   0  0  0  0  0  0  0  0  0  0  0  0  # atno 10764 bound_to 10752
  152.9833  135.5985  154.4116 H   0  0  0  0  0  0  0  0  0  0  0  0  # atno 10765 bound_to 10752
  139.9658  134.6983  156.0549 H   0  0  0  0  0  0  0  0  0  0  0  0  # atno 11005 bound_to 11000
  146.2065  140.6091  142.9079 LP  0  0  0  0  0  0  0  0  0  0  0  0  # atno 17320 bound_to 7965
  144.7643  140.5493  143.6714 LP  0  0  0  0  0  0  0  0  0  0  0  0  # atno 17321 bound_to 7965
  140.0880  144.5644  150.7074 LP  0  0  0  0  0  0  0  0  0  0  0  0  # atno 17342 bound_to 10162
  140.7132  143.2522  151.4517 LP  0  0  0  0  0  0  0  0  0  0  0  0  # atno 17343 bound_to 10162
  157.7461  130.9978  150.2830 LP  0  0  0  0  0  0  0  0  0  0  0  0  # atno 17370 bound_to 10713
  156.3323  130.3802  149.7480 LP  0  0  0  0  0  0  0  0  0  0  0  0  # atno 17371 bound_to 10713
  141.1337  133.6580  156.3536 LP  0  0  0  0  0  0  0  0  0  0  0  0  # atno 17394 bound_to 11000
  140.5400  134.6130  157.5377 LP  0  0  0  0  0  0  0  0  0  0  0  0  # atno 17395 bound_to 11000

$$$$
