AV-unprocessed.smi:1915|AV-procd|sdf|7760|dock7
  -GOLD-   22720 9503D 1   1.00000     0.00000
 Structure written by MMmdl.
 44 45  0  0  0  0  0  0  0  0  1 V2000
  148.6802  141.7715  157.6083 C   0  0  0  0  0  0  0  0  0  0  0  0
  149.9610  142.2289  158.3274 C   0  0  0  0  0  0  0  0  0  0  0  0
  149.8150  143.6788  158.8127 C   0  0  0  0  0  0  0  0  0  0  0  0
  151.2351  142.0733  157.4670 C   0  0  0  0  0  0  0  0  0  0  0  0
  151.5434  140.6792  157.1519 N   0  0  0  0  0  0  0  0  0  0  0  0
  152.2538  139.8501  158.1111 C   0  0  0  0  0  0  0  0  0  0  0  0
  152.2521  138.4287  157.5112 C   0  0  1  0  0  0  0  0  0  0  0  0
  151.3008  137.4840  158.2624 C   0  0  0  0  0  0  0  0  0  0  0  0
  151.6393  136.9856  159.3368 O   0  0  0  0  0  0  0  0  0  0  0  0
  150.1168  137.2436  157.6827 N   0  0  0  0  0  0  0  0  0  0  0  0
  149.0898  136.3650  158.2293 C   0  0  0  0  0  0  0  0  0  0  0  0
  148.0712  137.1365  159.0864 C   0  0  0  0  0  0  0  0  0  0  0  0
  147.7427  136.4509  160.4026 C   0  0  0  0  0  0  0  0  0  0  0  0
  147.4829  135.0645  160.4407 C   0  0  0  0  0  0  0  0  0  0  0  0
  147.1698  134.4735  161.6801 C   0  0  0  0  0  0  0  0  0  0  0  0
  147.1276  135.2878  162.8282 C   0  0  0  0  0  0  0  0  0  0  0  0
  147.4013  136.6625  162.6852 C   0  0  0  0  0  0  0  0  0  0  0  0
  147.7015  137.2392  161.5014 N   0  0  0  0  0  0  0  0  0  0  0  0
  151.8240  138.6173  156.0422 C   0  0  0  0  0  0  0  0  0  0  0  0
  151.3446  140.0583  155.9831 C   0  0  0  0  0  0  0  0  0  0  0  0
  150.8358  140.5495  154.9766 O   0  0  0  0  0  0  0  0  0  0  0  0
  148.5394  142.3090  156.6702 H   0  0  0  0  0  0  0  0  0  0  0  0
  147.7995  141.9465  158.2269 H   0  0  0  0  0  0  0  0  0  0  0  0
  148.7046  140.7050  157.3843 H   0  0  0  0  0  0  0  0  0  0  0  0
  150.0782  141.6038  159.2137 H   0  0  0  0  0  0  0  0  0  0  0  0
  149.6955  144.3664  157.9746 H   0  0  0  0  0  0  0  0  0  0  0  0
  150.6912  143.9940  159.3802 H   0  0  0  0  0  0  0  0  0  0  0  0
  148.9469  143.7920  159.4627 H   0  0  0  0  0  0  0  0  0  0  0  0
  151.1355  142.6495  156.5453 H   0  0  0  0  0  0  0  0  0  0  0  0
  152.0891  142.5016  157.9939 H   0  0  0  0  0  0  0  0  0  0  0  0
  153.2739  140.2201  158.2235 H   0  0  0  0  0  0  0  0  0  0  0  0
  151.7764  139.9009  159.0912 H   0  0  0  0  0  0  0  0  0  0  0  0
  153.2625  138.0174  157.5490 H   0  0  0  0  0  0  0  0  0  0  0  0
  149.9188  137.6834  156.7951 H   0  0  0  0  0  0  0  0  0  0  0  0
  148.5684  135.8606  157.4138 H   0  0  0  0  0  0  0  0  0  0  0  0
  149.5678  135.5899  158.8294 H   0  0  0  0  0  0  0  0  0  0  0  0
  148.4549  138.1358  159.2952 H   0  0  0  0  0  0  0  0  0  0  0  0
  147.1491  137.2815  158.5213 H   0  0  0  0  0  0  0  0  0  0  0  0
  147.5199  134.4669  159.5418 H   0  0  0  0  0  0  0  0  0  0  0  0
  146.9650  133.4154  161.7482 H   0  0  0  0  0  0  0  0  0  0  0  0
  146.8912  134.8689  163.7952 H   0  0  0  0  0  0  0  0  0  0  0  0
  147.3785  137.3166  163.5443 H   0  0  0  0  0  0  0  0  0  0  0  0
  152.6703  138.4884  155.3668 H   0  0  0  0  0  0  0  0  0  0  0  0
  151.0328  137.9367  155.7231 H   0  0  0  0  0  0  0  0  0  0  0  0
  1  2  1  0  0  0  0
  1 22  1  0  0  0  0
  1 23  1  0  0  0  0
  1 24  1  0  0  0  0
  2  3  1  0  0  0  0
  2  4  1  0  0  0  0
  2 25  1  0  0  0  0
  3 26  1  0  0  0  0
  3 27  1  0  0  0  0
  3 28  1  0  0  0  0
  4  5  1  0  0  0  0
  4 29  1  0  0  0  0
  4 30  1  0  0  0  0
  5 20  1  0  0  0  0
  5  6  1  0  0  0  0
  6  7  1  0  0  0  0
  6 31  1  0  0  0  0
  6 32  1  0  0  0  0
  7  8  1  0  0  0  0
  7 19  1  0  0  0  0
  7 33  1  0  0  0  0
  8  9  2  0  0  0  0
  8 10  1  0  0  0  0
 10 11  1  0  0  0  0
 10 34  1  0  0  0  0
 11 12  1  0  0  0  0
 11 35  1  0  0  0  0
 11 36  1  0  0  0  0
 12 13  1  0  0  0  0
 12 37  1  0  0  0  0
 12 38  1  0  0  0  0
 13 18  1  0  0  0  0
 13 14  2  0  0  0  0
 14 15  1  0  0  0  0
 14 39  1  0  0  0  0
 15 16  2  0  0  0  0
 15 40  1  0  0  0  0
 16 17  1  0  0  0  0
 16 41  1  0  0  0  0
 17 18  2  0  0  0  0
 17 42  1  0  0  0  0
 19 20  1  0  0  0  0
 19 43  1  0  0  0  0
 19 44  1  0  0  0  0
 20 21  2  0  0  0  0
M  END
> <s_m_source_file>
AV-unprocessed.smi

> <i_m_source_file_index>
1915

> <i_lp_mmshare_version>
43012

> <i_f3d_flags>
0

> <s_epik_input>
W0NIM11bQ0hdKFtDSDNdKVtDSDJdTjFbQ0gyXVtDQEhdKFtDSDJdQzE9TylDKD1PKVtOSF1bQ0gyXVtDSDJdYzJbY0hdW2NIXVtjSF1bY0hdbjI=

> <s_epik_cmdline>
J2VwaWtfcHl0aG9uJywgJy1waCcsICc3LjAnLCAnLXRuJywgJzgnLCAnLW1hJywgJzIwMCcsICctbWV0YWxfYmluZGluZycsICctaW1hZScsICc8aW5maWxlLm1hZT4nLCAnLW9tYWUnLCAnPG91dGZpbGUubWFlPic=

> <r_epik_Ionization_Penalty>
0.0252359

> <r_epik_Ionization_Penalty_Charging>
0

> <r_epik_Ionization_Penalty_Neutral>
0.0252359

> <r_epik_State_Penalty>
0.020532

> <r_epik_Charging_Adjusted_Penalty>
0.020532

> <i_epik_Tot_Q>
0

> <i_epik_Tot_abs_Q>
0

> <r_epik_Metal_State_Penalty>
0.0196901

> <b_epik_Metal_Only>
0

> <s_lp_Force_Field>
OPLS_2005

> <r_lp_Energy>
14.3845

> <b_lp_Chiralities_Consistent>
1

> <s_lp_Variant>
AV-unprocessed.smi:1915-1

> <Gold.Version>
5.8.1

> <Gold.Id.Protein>
6NUR|6NUR_protein|mol2

> <Gold.PLP.Fitness>
47.4603

> <Gold.PLP.PLP>
-39.8241

> <Gold.PLP.part.hbond>
-4.0000

> <Gold.PLP.part.metal>
0.0000

> <Gold.PLP.part.buried>
-4.5095

> <Gold.PLP.part.nonpolar>
-30.6118

> <Gold.PLP.part.repulsive>
0.1309

> <Gold.PLP.ligand.clash>
0.4590

> <Gold.PLP.ligand.torsion>
1.4477

> <Gold.PLP.Chemscore.Hbond>
3.6363

> <Gold.PLP.Chemscore.CHOScore>
0.0000

> <Gold.PLP.Chemscore.Metal>
0.0000

> <Gold.Chemscore.Hbonds>
donor molecule, donor type, donor heavy atom, donor atom, acceptor molecule, acceptor atom, score
      P1  H  6896  6908       L1     9  1.00
      P1  H  6931  6943       L1    18  0.98
      P1  H  6934  6947       L1    18  0.75
      P1  H  7989  7998       L1    21  1.00

> <Gold.PLP.Chemscore.Internal.Correction>
0.0819

> <Gold.Rescore>
     Score         DG    S(hbond)    S(metal)    S(lipo)     H(rot)  DE(clash)    DE(int)     intcor
     18.99     -20.12       3.08        0.00      75.53       1.75       0.00       1.13       ----

> <Gold.Chemscore.Fitness>
18.9936

> <Gold.Chemscore.DG>
-20.1211

> <Gold.Chemscore.ZeroCoef>
-5.4800

> <Gold.Chemscore.Hbond>
3.0757

> <Gold.Chemscore.Metal>
0.0000

> <Gold.Chemscore.Lipo>
75.5292

> <Gold.Chemscore.Internal_Hbond>
0.0000

> <Gold.Chemscore.DEClash>
0.0021

> <Gold.Chemscore.DEInternal>
1.1254

> <Gold.Chemscore.Rot>
1.7456

> <Gold.Chemscore.Internal.Correction>
   9.000000E+99

> <Gold.Chemscore.Hbonds>
donor molecule, donor type, donor heavy atom, donor atom, acceptor molecule, acceptor atom, score
      P1  H  6896  6908       L1     9  0.95
      P1  H  6931  6943       L1    18  0.32
      P1  H  6934  6947       L1    18  0.49
      P1  H  7989  7998       L1    21  0.94

> <Gold.Chemscore.Hbond.Weighted>
-10.2729

> <Gold.Chemscore.Metal.Weighted>
-0.0000

> <Gold.Chemscore.Lipo.Weighted>
-8.8369

> <Gold.Chemscore.Internal_Hbond.Weighted>
0.0000

> <Gold.Chemscore.DEClash.Weighted>
0.0021

> <Gold.Chemscore.DEInternal.Weighted>
1.1254

> <Gold.Chemscore.Rot.Weighted>
4.4688

> <Gold.Chemscore.Internal.Correction.Weighted>
   9.000000E+99

> <Gold.Protein.RotatedTorsions>
[ 6907 6896 6895 6894 ] final -137.67 input  -60.11 | X-H torsion
[ 7974 7965 7964 7962 ] final  149.29 input  175.53 | X-H torsion
[ 8008 7997 7996 7995 ] final  132.11 input   59.86 | X-H torsion
[ 10167 10162 10161 10158 ] final -154.67 input  -65.29 | X-H torsion
[ 10718 10713 10712 10709 ] final   25.70 input   66.30 | X-H torsion
[ 10763 10752 10751 10750 ] final   -8.46 input  -60.55 | X-H torsion
[ 11005 11000 10999 10996 ] final  124.01 input  -57.11 | X-H torsion

> <Gold.Protein.ActiveResidues>
 VAL166  LYS551  ARG553  GLY616  TRP617  ASP618  TYR619  PRO620  LYS621  CYS622 
 ASP623  PHE694  ASN695  SER759  ASP760  ASP761  ALA762  ILE779  LEU786  VAL792 
 PHE793  MET794  SER795  GLU796  ALA797  LYS798  CYS799  TRP800  GLU811  SER814 

> <Gold.Protein.RotatedAtoms>
  151.0253  133.5839  159.2666 H   0  0  0  0  0  0  0  0  0  0  0  0  # atno 6907 bound_to 6896
  151.2941  135.0749  159.9224 H   0  0  0  0  0  0  0  0  0  0  0  0  # atno 6908 bound_to 6896
  152.5332  133.9947  159.7921 H   0  0  0  0  0  0  0  0  0  0  0  0  # atno 6909 bound_to 6896
  144.8449  139.6262  143.6000 H   0  0  0  0  0  0  0  0  0  0  0  0  # atno 7974 bound_to 7965
  156.2979  140.2554  156.3036 H   0  0  0  0  0  0  0  0  0  0  0  0  # atno 8008 bound_to 7997
  154.9393  140.0396  157.2107 H   0  0  0  0  0  0  0  0  0  0  0  0  # atno 8009 bound_to 7997
  154.8142  140.2849  155.5836 H   0  0  0  0  0  0  0  0  0  0  0  0  # atno 8010 bound_to 7997
  139.6994  143.9288  152.2422 H   0  0  0  0  0  0  0  0  0  0  0  0  # atno 10167 bound_to 10162
  157.1969  130.6872  149.6172 H   0  0  0  0  0  0  0  0  0  0  0  0  # atno 10718 bound_to 10713
  153.4409  135.7013  153.6170 H   0  0  0  0  0  0  0  0  0  0  0  0  # atno 10763 bound_to 10752
  153.4545  135.3750  155.2303 H   0  0  0  0  0  0  0  0  0  0  0  0  # atno 10764 bound_to 10752
  154.8727  135.4005  154.3807 H   0  0  0  0  0  0  0  0  0  0  0  0  # atno 10765 bound_to 10752
  139.9339  134.9640  156.8345 H   0  0  0  0  0  0  0  0  0  0  0  0  # atno 11005 bound_to 11000
  146.2735  139.6694  142.9279 LP  0  0  0  0  0  0  0  0  0  0  0  0  # atno 17320 bound_to 7965
  145.4618  141.0433  143.2747 LP  0  0  0  0  0  0  0  0  0  0  0  0  # atno 17321 bound_to 7965
  139.9127  144.6847  150.8545 LP  0  0  0  0  0  0  0  0  0  0  0  0  # atno 17342 bound_to 10162
  140.7705  143.3432  151.2165 LP  0  0  0  0  0  0  0  0  0  0  0  0  # atno 17343 bound_to 10162
  155.9705  130.4596  150.6041 LP  0  0  0  0  0  0  0  0  0  0  0  0  # atno 17370 bound_to 10713
  157.3806  131.0780  151.1480 LP  0  0  0  0  0  0  0  0  0  0  0  0  # atno 17371 bound_to 10713
  140.6129  134.0066  155.7584 LP  0  0  0  0  0  0  0  0  0  0  0  0  # atno 17394 bound_to 11000
  141.0942  133.9869  157.3187 LP  0  0  0  0  0  0  0  0  0  0  0  0  # atno 17395 bound_to 11000

$$$$
