AV-unprocessed.smi:1487|AV-procd|sdf|6010|dock8
  -GOLD-   22720 6113D 1   1.00000     0.00000
 Structure written by MMmdl.
 48 50  0  0  0  0  0  0  0  0  2 V2000
  153.0306  143.0783  161.3851 C   0  0  0  0  0  0  0  0  0  0  0  0
  152.5114  142.5767  160.0491 C   0  0  0  0  0  0  0  0  0  0  0  0
  152.9294  141.3102  159.5820 C   0  0  0  0  0  0  0  0  0  0  0  0
  152.4691  140.8062  158.3461 C   0  0  0  0  0  0  0  0  0  0  0  0
  152.7446  139.6111  157.7038 N   0  0  0  0  0  0  0  0  0  0  0  0
  152.0171  139.7271  156.5971 C   0  0  0  0  0  0  0  0  0  0  0  0
  151.3058  140.8608  156.4430 N   0  0  0  0  0  0  0  0  0  0  0  0
  150.4464  141.2110  155.3265 C   0  0  0  0  0  0  0  0  0  0  0  0
  148.9573  140.9461  155.6208 C   0  0  1  0  0  0  0  0  0  0  0  0
  148.4933  141.8870  156.5700 O   0  0  0  0  0  0  0  0  0  0  0  0
  148.0985  141.0668  154.3465 C   0  0  0  0  0  0  0  0  0  0  0  0
  147.7262  139.7458  153.7780 N   0  3  2  0  0  0  0  0  0  0  0  0
  147.1540  139.8322  152.4083 C   0  0  0  0  0  0  0  0  0  0  0  0
  146.9448  138.4323  151.8102 C   0  0  0  0  0  0  0  0  0  0  0  0
  146.0461  137.5759  152.7132 C   0  0  0  0  0  0  0  0  0  0  0  0
  146.5804  137.5464  154.1550 C   0  0  1  0  0  0  0  0  0  0  0  0
  147.7647  136.7773  154.2286 O   0  0  0  0  0  0  0  0  0  0  0  0
  146.8513  138.9652  154.6928 C   0  0  0  0  0  0  0  0  0  0  0  0
  151.5716  141.6101  157.5840 C   0  0  0  0  0  0  0  0  0  0  0  0
  151.1477  142.8715  158.0382 C   0  0  0  0  0  0  0  0  0  0  0  0
  151.6177  143.3601  159.2753 C   0  0  0  0  0  0  0  0  0  0  0  0
  151.1561  144.7240  159.7578 C   0  0  0  0  0  0  0  0  0  0  0  0
  153.7457  142.3803  161.8216 H   0  0  0  0  0  0  0  0  0  0  0  0
  152.2087  143.2008  162.0907 H   0  0  0  0  0  0  0  0  0  0  0  0
  153.5324  144.0389  161.2667 H   0  0  0  0  0  0  0  0  0  0  0  0
  153.6091  140.7126  160.1713 H   0  0  0  0  0  0  0  0  0  0  0  0
  152.0034  138.9444  155.8526 H   0  0  0  0  0  0  0  0  0  0  0  0
  150.6064  142.2619  155.0799 H   0  0  0  0  0  0  0  0  0  0  0  0
  150.7673  140.6350  154.4577 H   0  0  0  0  0  0  0  0  0  0  0  0
  148.8615  139.9512  156.0544 H   0  0  0  0  0  0  0  0  0  0  0  0
  148.4777  142.7410  156.1636 H   0  0  0  0  0  0  0  0  0  0  0  0
  147.1970  141.6295  154.5946 H   0  0  0  0  0  0  0  0  0  0  0  0
  148.6192  141.6508  153.5858 H   0  0  0  0  0  0  0  0  0  0  0  0
  146.2064  140.3724  152.4413 H   0  0  0  0  0  0  0  0  0  0  0  0
  147.8147  140.3985  151.7532 H   0  0  0  0  0  0  0  0  0  0  0  0
  146.5016  138.5142  150.8171 H   0  0  0  0  0  0  0  0  0  0  0  0
  147.9104  137.9427  151.6769 H   0  0  0  0  0  0  0  0  0  0  0  0
  145.0395  137.9959  152.7138 H   0  0  0  0  0  0  0  0  0  0  0  0
  145.9564  136.5646  152.3144 H   0  0  0  0  0  0  0  0  0  0  0  0
  145.8465  137.0574  154.7966 H   0  0  0  0  0  0  0  0  0  0  0  0
  148.1778  136.7769  153.3781 H   0  0  0  0  0  0  0  0  0  0  0  0
  147.3074  138.8984  155.6819 H   0  0  0  0  0  0  0  0  0  0  0  0
  145.9074  139.4982  154.8193 H   0  0  0  0  0  0  0  0  0  0  0  0
  150.4663  143.4577  157.4398 H   0  0  0  0  0  0  0  0  0  0  0  0
  150.4468  145.1736  159.0625 H   0  0  0  0  0  0  0  0  0  0  0  0
  152.0050  145.4011  159.8549 H   0  0  0  0  0  0  0  0  0  0  0  0
  150.6657  144.6413  160.7281 H   0  0  0  0  0  0  0  0  0  0  0  0
  148.5860  139.2194  153.7063 H   0  0  0  0  0  0  0  0  0  0  0  0
  1  2  1  0  0  0  0
  1 23  1  0  0  0  0
  1 24  1  0  0  0  0
  1 25  1  0  0  0  0
  2 21  1  0  0  0  0
  2  3  2  0  0  0  0
  3  4  1  0  0  0  0
  3 26  1  0  0  0  0
  4 19  2  0  0  0  0
  4  5  1  0  0  0  0
  5  6  2  0  0  0  0
  6  7  1  0  0  0  0
  6 27  1  0  0  0  0
  7  8  1  0  0  0  0
  7 19  1  0  0  0  0
  8  9  1  0  0  0  0
  8 28  1  0  0  0  0
  8 29  1  0  0  0  0
  9 10  1  0  0  0  0
  9 11  1  0  0  0  0
  9 30  1  0  0  0  0
 10 31  1  0  0  0  0
 11 12  1  0  0  0  0
 11 32  1  0  0  0  0
 11 33  1  0  0  0  0
 12 18  1  0  0  0  0
 12 13  1  0  0  0  0
 12 48  1  0  0  0  0
 13 14  1  0  0  0  0
 13 34  1  0  0  0  0
 13 35  1  0  0  0  0
 14 15  1  0  0  0  0
 14 36  1  0  0  0  0
 14 37  1  0  0  0  0
 15 16  1  0  0  0  0
 15 38  1  0  0  0  0
 15 39  1  0  0  0  0
 16 17  1  0  0  0  0
 16 18  1  0  0  0  0
 16 40  1  0  0  0  0
 17 41  1  0  0  0  0
 18 42  1  0  0  0  0
 18 43  1  0  0  0  0
 19 20  1  0  0  0  0
 20 21  2  0  0  0  0
 20 44  1  0  0  0  0
 21 22  1  0  0  0  0
 22 45  1  0  0  0  0
 22 46  1  0  0  0  0
 22 47  1  0  0  0  0
M  CHG  1  12   1
M  END
> <s_m_source_file>
AV-unprocessed.smi

> <i_m_source_file_index>
1487

> <i_lp_mmshare_version>
43012

> <i_f3d_flags>
0

> <s_epik_input>
W0NIM11jKFtjSF0xKWMoW0NIM10pW2NIXWMoYzEyKW4oW2NIXW4yKVtDSDJdW0NASF0oW09IXSlbQ0gyXU4zW0NIMl1bQ0gyXVtDSDJdW0NAQEhdKFtPSF0pW0NIMl0z

> <s_epik_cmdline>
J2VwaWtfcHl0aG9uJywgJy1waCcsICc3LjAnLCAnLXRuJywgJzgnLCAnLW1hJywgJzIwMCcsICctbWV0YWxfYmluZGluZycsICctaW1hZScsICc8aW5maWxlLm1hZT4nLCAnLW9tYWUnLCAnPG91dGZpbGUubWFlPic=

> <r_epik_Ionization_Penalty>
0.0940186

> <r_epik_Ionization_Penalty_Charging>
0.00679686

> <r_epik_Ionization_Penalty_Neutral>
0.0872218

> <r_epik_State_Penalty>
0.0799311

> <r_epik_Charging_Adjusted_Penalty>
0.086728

> <i_epik_Tot_Q>
1

> <i_epik_Tot_abs_Q>
1

> <r_epik_Metal_State_Penalty>
7.95545e-05

> <b_epik_Metal_Only>
0

> <s_lp_Force_Field>
OPLS_2005

> <r_lp_Energy>
21.7982

> <b_lp_Chiralities_Consistent>
1

> <s_lp_Variant>
AV-unprocessed.smi:1487-4

> <Gold.Version>
5.8.1

> <Gold.Id.Protein>
6NUR|6NUR_protein|mol2

> <Gold.PLP.Fitness>
50.3118

> <Gold.PLP.PLP>
-43.2685

> <Gold.PLP.part.hbond>
-3.3479

> <Gold.PLP.part.metal>
0.0000

> <Gold.PLP.part.buried>
-0.7228

> <Gold.PLP.part.nonpolar>
-38.9603

> <Gold.PLP.part.repulsive>
0.0372

> <Gold.PLP.ligand.clash>
0.0000

> <Gold.PLP.ligand.torsion>
0.9991

> <Gold.PLP.Chemscore.Hbond>
3.0000

> <Gold.PLP.Chemscore.CHOScore>
0.0000

> <Gold.PLP.Chemscore.Metal>
0.0000

> <Gold.Chemscore.Hbonds>
donor molecule, donor type, donor heavy atom, donor atom, acceptor molecule, acceptor atom, score
      L1  H    10    31       P1  8028  0.89
      L1  H    17    41       P1  7948  1.00
      P1  H  7997  8009       L1     5  0.75

> <Gold.PLP.Chemscore.Internal.Correction>
0.0415

> <Gold.Rescore>
     Score         DG    S(hbond)    S(metal)    S(lipo)     H(rot)  DE(clash)    DE(int)     intcor
     17.74     -19.35       1.80        0.00     125.76       2.67       0.61       1.00       ----

> <Gold.Chemscore.Fitness>
17.7390

> <Gold.Chemscore.DG>
-19.3512

> <Gold.Chemscore.ZeroCoef>
-5.4800

> <Gold.Chemscore.Hbond>
1.7951

> <Gold.Chemscore.Metal>
0.0000

> <Gold.Chemscore.Lipo>
125.7606

> <Gold.Chemscore.Internal_Hbond>
0.0000

> <Gold.Chemscore.DEClash>
0.6094

> <Gold.Chemscore.DEInternal>
1.0028

> <Gold.Chemscore.Rot>
2.6712

> <Gold.Chemscore.Internal.Correction>
   9.000000E+99

> <Gold.Chemscore.Hbonds>
donor molecule, donor type, donor heavy atom, donor atom, acceptor molecule, acceptor atom, score
      L1  H    10    31       P1  8028  0.83
      L1  H    17    41       P1  7948  1.00
      P1  H  7997  8009       L1     5  0.02

> <Gold.Chemscore.Hbond.Weighted>
-5.9956

> <Gold.Chemscore.Metal.Weighted>
-0.0000

> <Gold.Chemscore.Lipo.Weighted>
-14.7140

> <Gold.Chemscore.Internal_Hbond.Weighted>
0.0000

> <Gold.Chemscore.DEClash.Weighted>
0.6094

> <Gold.Chemscore.DEInternal.Weighted>
1.0028

> <Gold.Chemscore.Rot.Weighted>
6.8383

> <Gold.Chemscore.Internal.Correction.Weighted>
   9.000000E+99

> <Gold.Protein.RotatedTorsions>
[ 6907 6896 6895 6894 ] final   91.80 input  -60.11 | X-H torsion
[ 7974 7965 7964 7962 ] final   65.13 input  175.53 | X-H torsion
[ 8008 7997 7996 7995 ] final  168.27 input   59.86 | X-H torsion
[ 10167 10162 10161 10158 ] final  -65.71 input  -65.29 | X-H torsion
[ 10718 10713 10712 10709 ] final  -66.80 input   66.30 | X-H torsion
[ 10763 10752 10751 10750 ] final   55.62 input  -60.55 | X-H torsion
[ 11005 11000 10999 10996 ] final -116.39 input  -57.11 | X-H torsion

> <Gold.Protein.ActiveResidues>
 VAL166  LYS551  ARG553  GLY616  TRP617  ASP618  TYR619  PRO620  LYS621  CYS622 
 ASP623  PHE694  ASN695  SER759  ASP760  ASP761  ALA762  ILE779  LEU786  VAL792 
 PHE793  MET794  SER795  GLU796  ALA797  LYS798  CYS799  TRP800  GLU811  SER814 

> <Gold.Protein.RotatedAtoms>
  152.5451  134.1601  159.8554 H   0  0  0  0  0  0  0  0  0  0  0  0  # atno 6907 bound_to 6896
  151.1620  133.4832  159.2601 H   0  0  0  0  0  0  0  0  0  0  0  0  # atno 6908 bound_to 6896
  151.1363  135.0167  159.8660 H   0  0  0  0  0  0  0  0  0  0  0  0  # atno 6909 bound_to 6896
  145.8420  139.3201  143.0925 H   0  0  0  0  0  0  0  0  0  0  0  0  # atno 7974 bound_to 7965
  156.1562  140.1595  156.8689 H   0  0  0  0  0  0  0  0  0  0  0  0  # atno 8008 bound_to 7997
  154.5117  140.0799  156.8038 H   0  0  0  0  0  0  0  0  0  0  0  0  # atno 8009 bound_to 7997
  155.3799  140.3404  155.4248 H   0  0  0  0  0  0  0  0  0  0  0  0  # atno 8010 bound_to 7997
  140.5710  143.2318  151.6539 H   0  0  0  0  0  0  0  0  0  0  0  0  # atno 10167 bound_to 10162
  156.0592  130.4268  150.1762 H   0  0  0  0  0  0  0  0  0  0  0  0  # atno 10718 bound_to 10713
  152.9819  135.5704  154.5096 H   0  0  0  0  0  0  0  0  0  0  0  0  # atno 10763 bound_to 10752
  154.4602  135.2781  155.1720 H   0  0  0  0  0  0  0  0  0  0  0  0  # atno 10764 bound_to 10752
  154.3311  135.6249  153.5605 H   0  0  0  0  0  0  0  0  0  0  0  0  # atno 10765 bound_to 10752
  141.0425  133.9813  157.2971 H   0  0  0  0  0  0  0  0  0  0  0  0  # atno 11005 bound_to 11000
  145.9454  140.8949  143.0286 LP  0  0  0  0  0  0  0  0  0  0  0  0  # atno 17320 bound_to 7965
  144.6733  140.1606  143.7422 LP  0  0  0  0  0  0  0  0  0  0  0  0  # atno 17321 bound_to 7965
  139.5117  144.3500  152.0661 LP  0  0  0  0  0  0  0  0  0  0  0  0  # atno 17342 bound_to 10162
  140.2637  144.4039  150.6176 LP  0  0  0  0  0  0  0  0  0  0  0  0  # atno 17343 bound_to 10162
  156.9833  130.9871  151.3432 LP  0  0  0  0  0  0  0  0  0  0  0  0  # atno 17370 bound_to 10713
  157.5587  130.8231  149.8238 LP  0  0  0  0  0  0  0  0  0  0  0  0  # atno 17371 bound_to 10713
  139.9286  135.0201  156.8323 LP  0  0  0  0  0  0  0  0  0  0  0  0  # atno 17394 bound_to 11000
  140.6208  133.9996  155.7617 LP  0  0  0  0  0  0  0  0  0  0  0  0  # atno 17395 bound_to 11000

$$$$
