AV-unprocessed.smi:2855|AV-procd|sdf|10978|dock8
  -GOLD-   2272015433D 1   1.00000     0.00000
 Structure written by MMmdl.
 47 48  0  0  0  0  0  0  0  0  1 V2000
  150.7723  142.4340  157.3741 C   0  0  0  0  0  0  0  0  0  0  0  0
  149.8060  141.3752  156.8244 C   0  0  1  0  0  0  0  0  0  0  0  0
  149.7758  141.3856  155.2825 C   0  0  0  0  0  0  0  0  0  0  0  0
  148.8661  140.2765  154.7208 C   0  0  0  0  0  0  0  0  0  0  0  0
  149.2911  138.8686  155.2099 C   0  0  1  0  0  0  0  0  0  0  0  0
  150.6571  138.3892  154.6021 C   0  0  0  0  0  0  0  0  0  0  0  0
  150.9766  136.9230  154.9583 C   0  0  0  0  0  0  0  0  0  0  0  0
  151.8665  139.2521  155.0140 C   0  0  0  0  0  0  0  0  0  0  0  0
  149.1926  138.9101  156.7662 C   0  0  1  0  0  0  0  0  0  0  0  0
  149.3714  137.6190  157.4236 N   0  0  0  0  0  0  0  0  0  0  0  0
  148.6332  137.1538  158.4435 C   0  0  0  0  0  0  0  0  0  0  0  0
  147.7126  137.7930  158.9551 O   0  0  0  0  0  0  0  0  0  0  0  0
  148.9902  135.7436  158.9354 C   0  0  0  0  0  0  0  0  0  0  0  0
  148.1211  135.2684  160.0221 N   0  0  0  0  0  0  0  0  0  0  0  0
  147.5063  134.0276  159.9300 C   0  0  0  0  0  0  0  0  0  0  0  0
  146.6781  133.5332  160.8804 C   0  0  0  0  0  0  0  0  0  0  0  0
  146.3850  134.3087  162.0808 C   0  0  0  0  0  0  0  0  0  0  0  0
  145.6486  133.9479  162.9962 O   0  0  0  0  0  0  0  0  0  0  0  0
  147.0211  135.5517  162.1359 N   0  0  0  0  0  0  0  0  0  0  0  0
  147.8747  136.0679  161.1596 C   0  0  0  0  0  0  0  0  0  0  0  0
  148.3792  137.1806  161.3056 O   0  0  0  0  0  0  0  0  0  0  0  0
  150.1382  139.9692  157.3645 C   0  0  0  0  0  0  0  0  0  0  0  0
  146.8457  136.1260  162.9476 H   0  0  0  0  0  0  0  0  0  0  0  0
  151.7962  142.2410  157.0523 H   0  0  0  0  0  0  0  0  0  0  0  0
  150.7625  142.4470  158.4642 H   0  0  0  0  0  0  0  0  0  0  0  0
  150.4978  143.4316  157.0297 H   0  0  0  0  0  0  0  0  0  0  0  0
  148.8056  141.6340  157.1746 H   0  0  0  0  0  0  0  0  0  0  0  0
  149.4229  142.3553  154.9297 H   0  0  0  0  0  0  0  0  0  0  0  0
  150.7858  141.2722  154.8880 H   0  0  0  0  0  0  0  0  0  0  0  0
  147.8423  140.4703  155.0439 H   0  0  0  0  0  0  0  0  0  0  0  0
  148.8234  140.3328  153.6344 H   0  0  0  0  0  0  0  0  0  0  0  0
  148.5298  138.1756  154.8490 H   0  0  0  0  0  0  0  0  0  0  0  0
  150.5968  138.4345  153.5153 H   0  0  0  0  0  0  0  0  0  0  0  0
  150.9468  136.7605  156.0362 H   0  0  0  0  0  0  0  0  0  0  0  0
  151.9690  136.6364  154.6092 H   0  0  0  0  0  0  0  0  0  0  0  0
  150.2819  136.2274  154.4894 H   0  0  0  0  0  0  0  0  0  0  0  0
  151.8990  139.4060  156.0931 H   0  0  0  0  0  0  0  0  0  0  0  0
  151.8579  140.2252  154.5267 H   0  0  0  0  0  0  0  0  0  0  0  0
  152.8072  138.7850  154.7215 H   0  0  0  0  0  0  0  0  0  0  0  0
  148.1793  139.2267  157.0231 H   0  0  0  0  0  0  0  0  0  0  0  0
  150.1062  137.0266  157.0649 H   0  0  0  0  0  0  0  0  0  0  0  0
  148.9283  135.0586  158.0882 H   0  0  0  0  0  0  0  0  0  0  0  0
  150.0380  135.7260  159.2416 H   0  0  0  0  0  0  0  0  0  0  0  0
  147.6904  133.4209  159.0547 H   0  0  0  0  0  0  0  0  0  0  0  0
  146.2279  132.5596  160.7507 H   0  0  0  0  0  0  0  0  0  0  0  0
  151.1765  139.7154  157.1506 H   0  0  0  0  0  0  0  0  0  0  0  0
  150.0453  139.9714  158.4512 H   0  0  0  0  0  0  0  0  0  0  0  0
  1  2  1  0  0  0  0
  1 24  1  0  0  0  0
  1 25  1  0  0  0  0
  1 26  1  0  0  0  0
  2 22  1  0  0  0  0
  2  3  1  0  0  0  0
  2 27  1  0  0  0  0
  3  4  1  0  0  0  0
  3 28  1  0  0  0  0
  3 29  1  0  0  0  0
  4  5  1  0  0  0  0
  4 30  1  0  0  0  0
  4 31  1  0  0  0  0
  5  6  1  0  0  0  0
  5  9  1  0  0  0  0
  5 32  1  0  0  0  0
  6  7  1  0  0  0  0
  6  8  1  0  0  0  0
  6 33  1  0  0  0  0
  7 34  1  0  0  0  0
  7 35  1  0  0  0  0
  7 36  1  0  0  0  0
  8 37  1  0  0  0  0
  8 38  1  0  0  0  0
  8 39  1  0  0  0  0
  9 10  1  0  0  0  0
  9 22  1  0  0  0  0
  9 40  1  0  0  0  0
 10 11  1  0  0  0  0
 10 41  1  0  0  0  0
 11 12  2  0  0  0  0
 11 13  1  0  0  0  0
 13 14  1  0  0  0  0
 13 42  1  0  0  0  0
 13 43  1  0  0  0  0
 14 20  1  0  0  0  0
 14 15  1  0  0  0  0
 15 16  2  0  0  0  0
 15 44  1  0  0  0  0
 16 17  1  0  0  0  0
 16 45  1  0  0  0  0
 17 18  2  0  0  0  0
 17 19  1  0  0  0  0
 19 23  1  0  0  0  0
 19 20  1  0  0  0  0
 20 21  2  0  0  0  0
 22 46  1  0  0  0  0
 22 47  1  0  0  0  0
M  END
> <s_m_source_file>
AV-unprocessed.smi

> <i_m_source_file_index>
2855

> <i_lp_mmshare_version>
43012

> <i_f3d_flags>
0

> <s_epik_input>
W0NIM11bQ0BASF0xW0NIMl1bQ0gyXVtDQEBIXShbQ0hdKFtDSDNdKVtDSDNdKVtDQEhdKFtDSDJdMSlbTkhdQyg9TylbQ0gyXW4yW2NIXVtjSF1jKD1PKVtuSF1jMj1P

> <s_epik_cmdline>
J2VwaWtfcHl0aG9uJywgJy1waCcsICc3LjAnLCAnLXRuJywgJzgnLCAnLW1hJywgJzIwMCcsICctbWV0YWxfYmluZGluZycsICctaW1hZScsICc8aW5maWxlLm1hZT4nLCAnLW9tYWUnLCAnPG91dGZpbGUubWFlPic=

> <r_lp_tautomer_probability>
0.999537

> <r_epik_Ionization_Penalty>
0.00306256

> <r_epik_Ionization_Penalty_Charging>
0.00306254

> <r_epik_Ionization_Penalty_Neutral>
2.0223e-08

> <r_epik_State_Penalty>
0.0021533

> <r_epik_Charging_Adjusted_Penalty>
0.00521583

> <i_epik_Tot_Q>
0

> <i_epik_Tot_abs_Q>
0

> <r_epik_Metal_State_Penalty>
0.362116

> <b_epik_Metal_Only>
0

> <s_lp_Force_Field>
OPLS_2005

> <r_lp_Energy>
18.9466

> <b_lp_Chiralities_Consistent>
1

> <s_lp_Variant>
AV-unprocessed.smi:2855-2

> <Gold.Version>
5.8.1

> <Gold.Id.Protein>
6NUR|6NUR_protein|mol2

> <Gold.PLP.Fitness>
36.7566

> <Gold.PLP.PLP>
-33.2701

> <Gold.PLP.part.hbond>
-3.1355

> <Gold.PLP.part.metal>
0.0000

> <Gold.PLP.part.buried>
-3.7727

> <Gold.PLP.part.nonpolar>
-26.7212

> <Gold.PLP.part.repulsive>
0.1557

> <Gold.PLP.ligand.clash>
0.0249

> <Gold.PLP.ligand.torsion>
0.3945

> <Gold.PLP.Chemscore.Hbond>
1.4139

> <Gold.PLP.Chemscore.CHOScore>
0.0000

> <Gold.PLP.Chemscore.Metal>
0.0000

> <Gold.Chemscore.Hbonds>
donor molecule, donor type, donor heavy atom, donor atom, acceptor molecule, acceptor atom, score
      P1  H  6931  6943       L1    21  0.65
      P1  H  6934  6947       L1    21  0.28

> <Gold.PLP.Chemscore.Internal.Correction>
0.0588

> <Gold.Rescore>
     Score         DG    S(hbond)    S(metal)    S(lipo)     H(rot)  DE(clash)    DE(int)     intcor
      8.33     -13.96       1.73        0.00      63.72       1.85       0.03       5.60       ----

> <Gold.Chemscore.Fitness>
8.3317

> <Gold.Chemscore.DG>
-13.9571

> <Gold.Chemscore.ZeroCoef>
-5.4800

> <Gold.Chemscore.Hbond>
1.7271

> <Gold.Chemscore.Metal>
0.0000

> <Gold.Chemscore.Lipo>
63.7154

> <Gold.Chemscore.Internal_Hbond>
0.0000

> <Gold.Chemscore.DEClash>
0.0282

> <Gold.Chemscore.DEInternal>
5.5972

> <Gold.Chemscore.Rot>
1.8539

> <Gold.Chemscore.Internal.Correction>
   9.000000E+99

> <Gold.Chemscore.Hbonds>
donor molecule, donor type, donor heavy atom, donor atom, acceptor molecule, acceptor atom, score
      P1  H  6931  6943       L1    21  0.64
      P1  H  6934  6947       L1    21  0.28

> <Gold.Chemscore.Hbond.Weighted>
-5.7685

> <Gold.Chemscore.Metal.Weighted>
-0.0000

> <Gold.Chemscore.Lipo.Weighted>
-7.4547

> <Gold.Chemscore.Internal_Hbond.Weighted>
0.0000

> <Gold.Chemscore.DEClash.Weighted>
0.0282

> <Gold.Chemscore.DEInternal.Weighted>
5.5972

> <Gold.Chemscore.Rot.Weighted>
4.7460

> <Gold.Chemscore.Internal.Correction.Weighted>
   9.000000E+99

> <Gold.Protein.RotatedTorsions>
[ 6907 6896 6895 6894 ] final  -32.43 input  -60.11 | X-H torsion
[ 7974 7965 7964 7962 ] final   73.12 input  175.53 | X-H torsion
[ 8008 7997 7996 7995 ] final  -89.56 input   59.86 | X-H torsion
[ 10167 10162 10161 10158 ] final   27.92 input  -65.29 | X-H torsion
[ 10718 10713 10712 10709 ] final  100.14 input   66.30 | X-H torsion
[ 10763 10752 10751 10750 ] final  -89.53 input  -60.55 | X-H torsion
[ 11005 11000 10999 10996 ] final  -34.38 input  -57.11 | X-H torsion

> <Gold.Protein.ActiveResidues>
 VAL166  LYS551  ARG553  GLY616  TRP617  ASP618  TYR619  PRO620  LYS621  CYS622 
 ASP623  PHE694  ASN695  SER759  ASP760  ASP761  ALA762  ILE779  LEU786  VAL792 
 PHE793  MET794  SER795  GLU796  ALA797  LYS798  CYS799  TRP800  GLU811  SER814 

> <Gold.Protein.RotatedAtoms>
  151.0789  134.9845  159.8345 H   0  0  0  0  0  0  0  0  0  0  0  0  # atno 6907 bound_to 6896
  152.5417  134.2207  159.8796 H   0  0  0  0  0  0  0  0  0  0  0  0  # atno 6908 bound_to 6896
  151.2236  133.4445  159.2635 H   0  0  0  0  0  0  0  0  0  0  0  0  # atno 6909 bound_to 6896
  145.7448  139.2735  143.1465 H   0  0  0  0  0  0  0  0  0  0  0  0  # atno 7974 bound_to 7965
  154.6881  140.0540  157.0335 H   0  0  0  0  0  0  0  0  0  0  0  0  # atno 8008 bound_to 7997
  155.0856  140.3214  155.4570 H   0  0  0  0  0  0  0  0  0  0  0  0  # atno 8009 bound_to 7997
  156.2718  140.2057  156.5984 H   0  0  0  0  0  0  0  0  0  0  0  0  # atno 8010 bound_to 7997
  140.4897  144.0487  150.6293 H   0  0  0  0  0  0  0  0  0  0  0  0  # atno 10167 bound_to 10162
  157.6860  131.0690  150.5056 H   0  0  0  0  0  0  0  0  0  0  0  0  # atno 10718 bound_to 10713
  154.6562  135.5337  153.7962 H   0  0  0  0  0  0  0  0  0  0  0  0  # atno 10763 bound_to 10752
  153.0415  135.6494  154.0941 H   0  0  0  0  0  0  0  0  0  0  0  0  # atno 10764 bound_to 10752
  154.0854  135.2944  155.3262 H   0  0  0  0  0  0  0  0  0  0  0  0  # atno 10765 bound_to 10752
  140.9712  133.7109  156.1526 H   0  0  0  0  0  0  0  0  0  0  0  0  # atno 11005 bound_to 11000
  146.0413  140.8162  142.9827 LP  0  0  0  0  0  0  0  0  0  0  0  0  # atno 17320 bound_to 7965
  144.6862  140.2914  143.7277 LP  0  0  0  0  0  0  0  0  0  0  0  0  # atno 17321 bound_to 7965
  140.3752  143.2832  152.0233 LP  0  0  0  0  0  0  0  0  0  0  0  0  # atno 17342 bound_to 10162
  139.4849  144.6198  151.7276 LP  0  0  0  0  0  0  0  0  0  0  0  0  # atno 17343 bound_to 10162
  156.5375  130.4200  149.6170 LP  0  0  0  0  0  0  0  0  0  0  0  0  # atno 17370 bound_to 10713
  156.3014  130.7179  151.2051 LP  0  0  0  0  0  0  0  0  0  0  0  0  # atno 17371 bound_to 10713
  140.7327  134.4237  157.5564 LP  0  0  0  0  0  0  0  0  0  0  0  0  # atno 17394 bound_to 11000
  139.8913  134.8784  156.2328 LP  0  0  0  0  0  0  0  0  0  0  0  0  # atno 17395 bound_to 11000

$$$$
