AV-unprocessed.smi:2518|AV-procd|sdf|9901|dock9
  -GOLD-   2272013543D 1   1.00000     0.00000
 Structure written by MMmdl.
 41 43  0  0  0  0  0  0  0  0  1 V2000
  150.2739  131.2754  154.9825 C   0  0  0  0  0  0  0  0  0  0  0  0
  150.3547  132.7763  155.1696 C   0  0  0  0  0  0  0  0  0  0  0  0
  151.1154  133.3267  156.2201 C   0  0  0  0  0  0  0  0  0  0  0  0
  151.1827  134.7233  156.3860 C   0  0  0  0  0  0  0  0  0  0  0  0
  150.4947  135.5896  155.5118 C   0  0  0  0  0  0  0  0  0  0  0  0
  150.6139  136.9419  155.7499 O   0  0  0  0  0  0  0  0  0  0  0  0
  150.4810  137.8344  154.6511 C   0  0  0  0  0  0  0  0  0  0  0  0
  150.4639  139.2754  155.1841 C   0  0  2  0  0  0  0  0  0  0  0  0
  150.5024  140.1581  154.0792 O   0  0  0  0  0  0  0  0  0  0  0  0
  151.6657  139.5607  156.1066 C   0  0  0  0  0  0  0  0  0  0  0  0
  151.4809  140.7597  156.9105 N   0  0  0  0  0  0  0  0  0  0  0  0
  150.6258  141.7240  156.4819 N   0  0  0  0  0  0  0  0  0  0  0  0
  150.6741  142.6859  157.4011 C   0  0  0  0  0  0  0  0  0  0  0  0
  151.5711  142.3685  158.4575 C   0  0  0  0  0  0  0  0  0  0  0  0
  152.0048  143.0356  159.6801 C   0  0  0  0  0  0  0  0  0  0  0  0
  152.8733  142.4348  160.4314 N   0  0  0  0  0  0  0  0  0  0  0  0
  153.3893  141.1793  160.0911 N   0  0  0  0  0  0  0  0  0  0  0  0
  154.3576  140.6651  161.0591 C   0  0  0  0  0  0  0  0  0  0  0  0
  153.0411  140.4666  158.9752 C   0  0  0  0  0  0  0  0  0  0  0  0
  153.4910  139.3564  158.6920 O   0  0  0  0  0  0  0  0  0  0  0  0
  152.0512  141.1499  158.1068 C   0  0  0  0  0  0  0  0  0  0  0  0
  149.7332  135.0290  154.4554 C   0  0  0  0  0  0  0  0  0  0  0  0
  149.6646  133.6320  154.2888 C   0  0  0  0  0  0  0  0  0  0  0  0
  150.8778  130.7485  155.7221 H   0  0  0  0  0  0  0  0  0  0  0  0
  150.6324  130.9984  153.9909 H   0  0  0  0  0  0  0  0  0  0  0  0
  149.2421  130.9377  155.0817 H   0  0  0  0  0  0  0  0  0  0  0  0
  151.6492  132.6821  156.9029 H   0  0  0  0  0  0  0  0  0  0  0  0
  151.7677  135.1348  157.1954 H   0  0  0  0  0  0  0  0  0  0  0  0
  151.3427  137.7018  153.9947 H   0  0  0  0  0  0  0  0  0  0  0  0
  149.5812  137.6277  154.0683 H   0  0  0  0  0  0  0  0  0  0  0  0
  149.5423  139.4482  155.7416 H   0  0  0  0  0  0  0  0  0  0  0  0
  149.6800  140.6222  154.0401 H   0  0  0  0  0  0  0  0  0  0  0  0
  151.8187  138.7197  156.7846 H   0  0  0  0  0  0  0  0  0  0  0  0
  152.5854  139.6499  155.5295 H   0  0  0  0  0  0  0  0  0  0  0  0
  150.0667  143.5691  157.2701 H   0  0  0  0  0  0  0  0  0  0  0  0
  151.6057  144.0136  159.9488 H   0  0  0  0  0  0  0  0  0  0  0  0
  154.8283  139.7289  160.7568 H   0  0  0  0  0  0  0  0  0  0  0  0
  153.8703  140.4934  162.0195 H   0  0  0  0  0  0  0  0  0  0  0  0
  155.1557  141.3922  161.2139 H   0  0  0  0  0  0  0  0  0  0  0  0
  149.1918  135.6494  153.7576 H   0  0  0  0  0  0  0  0  0  0  0  0
  149.0792  133.2182  153.4808 H   0  0  0  0  0  0  0  0  0  0  0  0
  1  2  1  0  0  0  0
  1 24  1  0  0  0  0
  1 25  1  0  0  0  0
  1 26  1  0  0  0  0
  2 23  1  0  0  0  0
  2  3  2  0  0  0  0
  3  4  1  0  0  0  0
  3 27  1  0  0  0  0
  4  5  2  0  0  0  0
  4 28  1  0  0  0  0
  5  6  1  0  0  0  0
  5 22  1  0  0  0  0
  6  7  1  0  0  0  0
  7  8  1  0  0  0  0
  7 29  1  0  0  0  0
  7 30  1  0  0  0  0
  8  9  1  0  0  0  0
  8 10  1  0  0  0  0
  8 31  1  0  0  0  0
  9 32  1  0  0  0  0
 10 11  1  0  0  0  0
 10 33  1  0  0  0  0
 10 34  1  0  0  0  0
 11 21  1  0  0  0  0
 11 12  1  0  0  0  0
 12 13  2  0  0  0  0
 13 14  1  0  0  0  0
 13 35  1  0  0  0  0
 14 21  2  0  0  0  0
 14 15  1  0  0  0  0
 15 16  2  0  0  0  0
 15 36  1  0  0  0  0
 16 17  1  0  0  0  0
 17 18  1  0  0  0  0
 17 19  1  0  0  0  0
 18 37  1  0  0  0  0
 18 38  1  0  0  0  0
 18 39  1  0  0  0  0
 19 20  2  0  0  0  0
 19 21  1  0  0  0  0
 22 23  2  0  0  0  0
 22 40  1  0  0  0  0
 23 41  1  0  0  0  0
M  END
> <s_m_source_file>
AV-unprocessed.smi

> <i_m_source_file_index>
2518

> <i_lp_mmshare_version>
43012

> <i_f3d_flags>
0

> <s_epik_input>
W0NIM11jMVtjSF1bY0hdYyhbY0hdW2NIXTEpT1tDSDJdW0NASF0oW09IXSlbQ0gyXW4obltjSF0yKWMoYzIzKWMoPU8pbihbQ0gzXSluW2NIXTM=

> <s_epik_cmdline>
J2VwaWtfcHl0aG9uJywgJy1waCcsICc3LjAnLCAnLXRuJywgJzgnLCAnLW1hJywgJzIwMCcsICctbWV0YWxfYmluZGluZycsICctaW1hZScsICc8aW5maWxlLm1hZT4nLCAnLW9tYWUnLCAnPG91dGZpbGUubWFlPic=

> <r_lp_tautomer_probability>
1

> <r_epik_Ionization_Penalty>
2.246e-06

> <r_epik_Ionization_Penalty_Charging>
1.41975e-10

> <r_epik_Ionization_Penalty_Neutral>
2.24586e-06

> <r_epik_State_Penalty>
-0

> <r_epik_Charging_Adjusted_Penalty>
1.41975e-10

> <i_epik_Tot_Q>
0

> <i_epik_Tot_abs_Q>
0

> <r_epik_Metal_State_Penalty>
-0

> <b_epik_Metal_Only>
0

> <s_lp_Force_Field>
OPLS_2005

> <r_lp_Energy>
32.1328

> <b_lp_Chiralities_Consistent>
1

> <s_lp_Variant>
AV-unprocessed.smi:2518-1

> <Gold.Version>
5.8.1

> <Gold.Id.Protein>
6NUR|6NUR_protein|mol2

> <Gold.PLP.Fitness>
49.8266

> <Gold.PLP.PLP>
-42.6969

> <Gold.PLP.part.hbond>
-2.8481

> <Gold.PLP.part.metal>
0.0000

> <Gold.PLP.part.buried>
-4.4154

> <Gold.PLP.part.nonpolar>
-35.2029

> <Gold.PLP.part.repulsive>
0.1340

> <Gold.PLP.ligand.clash>
0.0000

> <Gold.PLP.ligand.torsion>
0.8720

> <Gold.PLP.Chemscore.Hbond>
1.9500

> <Gold.PLP.Chemscore.CHOScore>
1.0000

> <Gold.PLP.Chemscore.Metal>
0.0000

> <Gold.Chemscore.Hbonds>
donor molecule, donor type, donor heavy atom, donor atom, acceptor molecule, acceptor atom, score
      P1  H  7989  7998       L1     9  0.80
      P1  H  7997  8010       L1    20  0.59
      L1  C    13    35       P1  8028  1.00

> <Gold.PLP.Chemscore.Internal.Correction>
0.0237

> <Gold.Rescore>
     Score         DG    S(hbond)    S(metal)    S(lipo)     H(rot)  DE(clash)    DE(int)     intcor
     14.03     -16.15       1.55        0.00      98.47       2.35       0.06       2.06       ----

> <Gold.Chemscore.Fitness>
14.0275

> <Gold.Chemscore.DG>
-16.1515

> <Gold.Chemscore.ZeroCoef>
-5.4800

> <Gold.Chemscore.Hbond>
1.5460

> <Gold.Chemscore.Metal>
0.0000

> <Gold.Chemscore.Lipo>
98.4725

> <Gold.Chemscore.Internal_Hbond>
0.0000

> <Gold.Chemscore.DEClash>
0.0597

> <Gold.Chemscore.DEInternal>
2.0643

> <Gold.Chemscore.Rot>
2.3490

> <Gold.Chemscore.Internal.Correction>
   9.000000E+99

> <Gold.Chemscore.Hbonds>
donor molecule, donor type, donor heavy atom, donor atom, acceptor molecule, acceptor atom, score
      P1  H  7989  7998       L1     9  0.68
      P1  H  7997  8010       L1    20  0.10

> <Gold.Chemscore.Hbond.Weighted>
-5.1638

> <Gold.Chemscore.Metal.Weighted>
-0.0000

> <Gold.Chemscore.Lipo.Weighted>
-11.5213

> <Gold.Chemscore.Internal_Hbond.Weighted>
0.0000

> <Gold.Chemscore.DEClash.Weighted>
0.0597

> <Gold.Chemscore.DEInternal.Weighted>
2.0643

> <Gold.Chemscore.Rot.Weighted>
6.0136

> <Gold.Chemscore.Internal.Correction.Weighted>
   9.000000E+99

> <Gold.Protein.RotatedTorsions>
[ 6907 6896 6895 6894 ] final  -99.36 input  -60.11 | X-H torsion
[ 7974 7965 7964 7962 ] final  -46.80 input  175.53 | X-H torsion
[ 8008 7997 7996 7995 ] final    6.12 input   59.86 | X-H torsion
[ 10167 10162 10161 10158 ] final    1.95 input  -65.29 | X-H torsion
[ 10718 10713 10712 10709 ] final -149.81 input   66.30 | X-H torsion
[ 10763 10752 10751 10750 ] final -117.96 input  -60.55 | X-H torsion
[ 11005 11000 10999 10996 ] final   60.83 input  -57.11 | X-H torsion

> <Gold.Protein.ActiveResidues>
 VAL166  LYS551  ARG553  GLY616  TRP617  ASP618  TYR619  PRO620  LYS621  CYS622 
 ASP623  PHE694  ASN695  SER759  ASP760  ASP761  ALA762  ILE779  LEU786  VAL792 
 PHE793  MET794  SER795  GLU796  ALA797  LYS798  CYS799  TRP800  GLU811  SER814 

> <Gold.Protein.RotatedAtoms>
  150.7077  134.1053  159.3980 H   0  0  0  0  0  0  0  0  0  0  0  0  # atno 6907 bound_to 6896
  151.9039  135.0364  160.0518 H   0  0  0  0  0  0  0  0  0  0  0  0  # atno 6908 bound_to 6896
  152.2391  133.5085  159.5296 H   0  0  0  0  0  0  0  0  0  0  0  0  # atno 6909 bound_to 6896
  145.9682  140.7410  142.9423 H   0  0  0  0  0  0  0  0  0  0  0  0  # atno 7974 bound_to 7965
  154.7370  140.2741  155.6406 H   0  0  0  0  0  0  0  0  0  0  0  0  # atno 8008 bound_to 7997
  156.2864  140.2704  156.2013 H   0  0  0  0  0  0  0  0  0  0  0  0  # atno 8009 bound_to 7997
  155.0307  140.0371  157.2463 H   0  0  0  0  0  0  0  0  0  0  0  0  # atno 8010 bound_to 7997
  140.6658  143.7182  150.7825 H   0  0  0  0  0  0  0  0  0  0  0  0  # atno 10167 bound_to 10162
  156.4380  130.8108  151.2337 H   0  0  0  0  0  0  0  0  0  0  0  0  # atno 10718 bound_to 10713
  154.8572  135.4291  154.2063 H   0  0  0  0  0  0  0  0  0  0  0  0  # atno 10763 bound_to 10752
  153.3098  135.6975  153.7131 H   0  0  0  0  0  0  0  0  0  0  0  0  # atno 10764 bound_to 10752
  153.6228  135.3499  155.2990 H   0  0  0  0  0  0  0  0  0  0  0  0  # atno 10765 bound_to 10752
  140.0204  134.6161  155.9648 H   0  0  0  0  0  0  0  0  0  0  0  0  # atno 11005 bound_to 11000
  144.6830  140.2704  143.7306 LP  0  0  0  0  0  0  0  0  0  0  0  0  # atno 17320 bound_to 7965
  145.7944  139.1939  143.2084 LP  0  0  0  0  0  0  0  0  0  0  0  0  # atno 17321 bound_to 7965
  140.0859  143.4924  152.2505 LP  0  0  0  0  0  0  0  0  0  0  0  0  # atno 17342 bound_to 10162
  139.5907  144.7549  151.3408 LP  0  0  0  0  0  0  0  0  0  0  0  0  # atno 17343 bound_to 10162
  157.7507  131.0177  150.3597 LP  0  0  0  0  0  0  0  0  0  0  0  0  # atno 17370 bound_to 10713
  156.3948  130.3905  149.7003 LP  0  0  0  0  0  0  0  0  0  0  0  0  # atno 17371 bound_to 10713
  141.1770  133.6541  156.4868 LP  0  0  0  0  0  0  0  0  0  0  0  0  # atno 17394 bound_to 11000
  140.4397  134.7027  157.4985 LP  0  0  0  0  0  0  0  0  0  0  0  0  # atno 17395 bound_to 11000

$$$$
