AV-unprocessed.smi:212|AV-procd|sdf|1630|dock6
  -GOLD-   2262019583D 1   1.00000     0.00000
 Structure written by MMmdl.
 65 68  0  0  0  0  0  0  0  0  2 V2000
  142.3302  134.0708  152.9478 C   0  0  0  0  0  0  0  0  0  0  0  0
  143.7516  134.5858  153.2306 C   0  0  1  0  0  0  0  0  0  0  0  0
  144.8305  133.7324  152.5298 C   0  0  0  0  0  0  0  0  0  0  0  0
  144.8528  133.9711  151.0633 N   0  3  2  0  0  0  0  0  0  0  0  0
  145.7914  133.0766  150.3361 C   0  0  0  0  0  0  0  0  0  0  0  0
  145.1701  131.6944  150.0270 C   0  0  0  0  0  0  0  0  0  0  0  0
  145.0851  130.8524  151.3111 C   0  0  0  0  0  0  0  0  0  0  0  0
  143.7802  131.8110  149.3737 C   0  0  0  0  0  0  0  0  0  0  0  0
  146.0208  130.9940  149.1408 O   0  0  0  0  0  0  0  0  0  0  0  0
  145.0322  135.4075  150.7311 C   0  0  0  0  0  0  0  0  0  0  0  0
  143.9591  136.2696  151.4200 C   0  0  0  0  0  0  0  0  0  0  0  0
  143.8988  135.9948  152.8567 N   0  0  0  0  0  0  0  0  0  0  0  0
  144.6324  136.7650  153.7027 C   0  0  0  0  0  0  0  0  0  0  0  0
  144.5203  136.5935  155.0469 N   0  0  0  0  0  0  0  0  0  0  0  0
  145.2296  137.3526  155.8873 C   0  0  0  0  0  0  0  0  0  0  0  0
  146.0979  138.3245  155.6026 N   0  0  0  0  0  0  0  0  0  0  0  0
  146.2234  138.4949  154.2557 C   0  0  0  0  0  0  0  0  0  0  0  0
  145.5344  137.7671  153.2450 C   0  0  0  0  0  0  0  0  0  0  0  0
  145.9271  138.2163  151.9891 N   0  0  0  0  0  0  0  0  0  0  0  0
  146.7913  139.1609  152.2433 C   0  0  0  0  0  0  0  0  0  0  0  0
  147.0332  139.3887  153.5791 N   0  0  0  0  0  0  0  0  0  0  0  0
  147.9408  140.3687  154.1487 C   0  0  0  0  0  0  0  0  0  0  0  0
  149.0981  139.7177  154.9492 C   0  0  1  0  0  0  0  0  0  0  0  0
  149.9189  138.7498  154.0662 C   0  0  0  0  0  0  0  0  0  0  0  0
  149.3133  137.4754  154.0028 O   0  0  0  0  0  0  0  0  0  0  0  0
  150.0024  140.7511  155.6755 C   0  0  1  0  0  0  0  0  0  0  0  0
  149.3722  141.5027  156.8432 C   0  0  0  0  0  0  0  0  0  0  0  0
  150.5861  141.8497  157.6931 C   0  0  0  0  0  0  0  0  0  0  0  0
  151.3728  140.6736  157.6056 O   0  0  0  0  0  0  0  0  0  0  0  0
  151.3073  140.1889  156.2684 C   0  0  0  0  0  0  0  0  0  0  0  0
  142.2147  133.0412  153.2874 H   0  0  0  0  0  0  0  0  0  0  0  0
  142.0883  134.0945  151.8852 H   0  0  0  0  0  0  0  0  0  0  0  0
  141.5879  134.6734  153.4719 H   0  0  0  0  0  0  0  0  0  0  0  0
  143.9124  134.4709  154.3023 H   0  0  0  0  0  0  0  0  0  0  0  0
  145.8131  133.9723  152.9402 H   0  0  0  0  0  0  0  0  0  0  0  0
  144.6544  132.6750  152.7331 H   0  0  0  0  0  0  0  0  0  0  0  0
  146.1345  133.5571  149.4179 H   0  0  0  0  0  0  0  0  0  0  0  0
  146.6919  132.9226  150.9331 H   0  0  0  0  0  0  0  0  0  0  0  0
  144.4348  131.3238  152.0491 H   0  0  0  0  0  0  0  0  0  0  0  0
  146.0659  130.7251  151.7712 H   0  0  0  0  0  0  0  0  0  0  0  0
  144.6844  129.8577  151.1112 H   0  0  0  0  0  0  0  0  0  0  0  0
  143.0877  132.3532  150.0184 H   0  0  0  0  0  0  0  0  0  0  0  0
  143.3481  130.8278  149.1827 H   0  0  0  0  0  0  0  0  0  0  0  0
  143.8215  132.3363  148.4191 H   0  0  0  0  0  0  0  0  0  0  0  0
  146.8287  130.7960  149.5905 H   0  0  0  0  0  0  0  0  0  0  0  0
  146.0284  135.7271  151.0400 H   0  0  0  0  0  0  0  0  0  0  0  0
  144.9766  135.5523  149.6522 H   0  0  0  0  0  0  0  0  0  0  0  0
  144.1380  137.3289  151.2300 H   0  0  0  0  0  0  0  0  0  0  0  0
  142.9822  136.0538  150.9875 H   0  0  0  0  0  0  0  0  0  0  0  0
  145.0809  137.1526  156.9382 H   0  0  0  0  0  0  0  0  0  0  0  0
  147.2851  139.7153  151.4583 H   0  0  0  0  0  0  0  0  0  0  0  0
  148.3304  140.9807  153.3352 H   0  0  0  0  0  0  0  0  0  0  0  0
  147.3484  141.0343  154.7755 H   0  0  0  0  0  0  0  0  0  0  0  0
  148.6392  139.1141  155.7341 H   0  0  0  0  0  0  0  0  0  0  0  0
  149.9932  139.1203  153.0442 H   0  0  0  0  0  0  0  0  0  0  0  0
  150.9374  138.6485  154.4419 H   0  0  0  0  0  0  0  0  0  0  0  0
  149.1159  137.2804  153.0992 H   0  0  0  0  0  0  0  0  0  0  0  0
  150.3112  141.5025  154.9472 H   0  0  0  0  0  0  0  0  0  0  0  0
  148.8109  142.3831  156.5289 H   0  0  0  0  0  0  0  0  0  0  0  0
  148.7046  140.8674  157.4235 H   0  0  0  0  0  0  0  0  0  0  0  0
  151.1343  142.6929  157.2697 H   0  0  0  0  0  0  0  0  0  0  0  0
  150.3268  142.0863  158.7252 H   0  0  0  0  0  0  0  0  0  0  0  0
  151.3590  139.1006  156.2629 H   0  0  0  0  0  0  0  0  0  0  0  0
  152.1685  140.5555  155.7081 H   0  0  0  0  0  0  0  0  0  0  0  0
  143.9312  133.7217  150.7339 H   0  0  0  0  0  0  0  0  0  0  0  0
  1  2  1  0  0  0  0
  1 31  1  0  0  0  0
  1 32  1  0  0  0  0
  1 33  1  0  0  0  0
  2 12  1  0  0  0  0
  2  3  1  0  0  0  0
  2 34  1  0  0  0  0
  3  4  1  0  0  0  0
  3 35  1  0  0  0  0
  3 36  1  0  0  0  0
  4  5  1  0  0  0  0
  4 10  1  0  0  0  0
  4 65  1  0  0  0  0
  5  6  1  0  0  0  0
  5 37  1  0  0  0  0
  5 38  1  0  0  0  0
  6  7  1  0  0  0  0
  6  8  1  0  0  0  0
  6  9  1  0  0  0  0
  7 39  1  0  0  0  0
  7 40  1  0  0  0  0
  7 41  1  0  0  0  0
  8 42  1  0  0  0  0
  8 43  1  0  0  0  0
  8 44  1  0  0  0  0
  9 45  1  0  0  0  0
 10 11  1  0  0  0  0
 10 46  1  0  0  0  0
 10 47  1  0  0  0  0
 11 12  1  0  0  0  0
 11 48  1  0  0  0  0
 11 49  1  0  0  0  0
 12 13  1  0  0  0  0
 13 18  1  0  0  0  0
 13 14  2  0  0  0  0
 14 15  1  0  0  0  0
 15 16  2  0  0  0  0
 15 50  1  0  0  0  0
 16 17  1  0  0  0  0
 17 21  1  0  0  0  0
 17 18  2  0  0  0  0
 18 19  1  0  0  0  0
 19 20  2  0  0  0  0
 20 21  1  0  0  0  0
 20 51  1  0  0  0  0
 21 22  1  0  0  0  0
 22 23  1  0  0  0  0
 22 52  1  0  0  0  0
 22 53  1  0  0  0  0
 23 24  1  0  0  0  0
 23 26  1  0  0  0  0
 23 54  1  0  0  0  0
 24 25  1  0  0  0  0
 24 55  1  0  0  0  0
 24 56  1  0  0  0  0
 25 57  1  0  0  0  0
 26 30  1  0  0  0  0
 26 27  1  0  0  0  0
 26 58  1  0  0  0  0
 27 28  1  0  0  0  0
 27 59  1  0  0  0  0
 27 60  1  0  0  0  0
 28 29  1  0  0  0  0
 28 61  1  0  0  0  0
 28 62  1  0  0  0  0
 29 30  1  0  0  0  0
 30 63  1  0  0  0  0
 30 64  1  0  0  0  0
M  CHG  1   4   1
M  END
> <s_m_source_file>
AV-unprocessed.smi

> <i_m_source_file_index>
212

> <i_lp_mmshare_version>
43012

> <i_f3d_flags>
0

> <s_epik_input>
W0NIM11bQ0BASF0xW0NIMl1OKFtDSDJdQyhbQ0gzXSkoW0NIM10pW09IXSlbQ0gyXVtDSDJdTjFjKG5bY0hdbjIpYyhjMjMpbltjSF1uM1tDSDJdW0NASF0oW0NIMl1bT0hdKVtDQEBIXTRbQ0gyXVtDSDJdT1tDSDJdNA==

> <s_epik_cmdline>
J2VwaWtfcHl0aG9uJywgJy1waCcsICc3LjAnLCAnLXRuJywgJzgnLCAnLW1hJywgJzIwMCcsICctbWV0YWxfYmluZGluZycsICctaW1hZScsICc8aW5maWxlLm1hZT4nLCAnLW9tYWUnLCAnPG91dGZpbGUubWFlPic=

> <r_lp_tautomer_probability>
1

> <r_epik_Ionization_Penalty>
0.00182193

> <r_epik_Ionization_Penalty_Charging>
0.00173996

> <r_epik_Ionization_Penalty_Neutral>
8.19718e-05

> <r_epik_State_Penalty>
-0

> <r_epik_Charging_Adjusted_Penalty>
0.00173996

> <i_epik_Tot_Q>
1

> <i_epik_Tot_abs_Q>
1

> <r_epik_Metal_State_Penalty>
-0

> <b_epik_Metal_Only>
0

> <s_lp_Force_Field>
OPLS_2005

> <r_lp_Energy>
60.3061

> <b_lp_Chiralities_Consistent>
1

> <s_lp_Variant>
AV-unprocessed.smi:212-14

> <Gold.Version>
5.8.1

> <Gold.Id.Protein>
6NUR|6NUR_protein|mol2

> <Gold.PLP.Fitness>
48.3873

> <Gold.PLP.PLP>
-41.7383

> <Gold.PLP.part.hbond>
-2.0000

> <Gold.PLP.part.metal>
0.0000

> <Gold.PLP.part.buried>
3.2203

> <Gold.PLP.part.nonpolar>
-43.9804

> <Gold.PLP.part.repulsive>
0.4034

> <Gold.PLP.ligand.clash>
0.0000

> <Gold.PLP.ligand.torsion>
1.2712

> <Gold.PLP.Chemscore.Hbond>
2.0000

> <Gold.PLP.Chemscore.CHOScore>
0.7484

> <Gold.PLP.Chemscore.Metal>
0.0000

> <Gold.Chemscore.Hbonds>
donor molecule, donor type, donor heavy atom, donor atom, acceptor molecule, acceptor atom, score
      L1  H     9    45       P1 10747  0.50
      L1  H    25    57       P1  7948  1.00
      L1  C    20    51       P1  7957  0.98

> <Gold.PLP.Chemscore.Internal.Correction>
0.9464

> <Gold.Rescore>
     Score         DG    S(hbond)    S(metal)    S(lipo)     H(rot)  DE(clash)    DE(int)     intcor
      9.84     -16.20       1.78        0.00     115.07       3.40       2.82       3.55       ----

> <Gold.Chemscore.Fitness>
9.8363

> <Gold.Chemscore.DG>
-16.2036

> <Gold.Chemscore.ZeroCoef>
-5.4800

> <Gold.Chemscore.Hbond>
1.7847

> <Gold.Chemscore.Metal>
0.0000

> <Gold.Chemscore.Lipo>
115.0712

> <Gold.Chemscore.Internal_Hbond>
0.0000

> <Gold.Chemscore.DEClash>
2.8168

> <Gold.Chemscore.DEInternal>
3.5504

> <Gold.Chemscore.Rot>
3.3986

> <Gold.Chemscore.Internal.Correction>
   9.000000E+99

> <Gold.Chemscore.Hbonds>
donor molecule, donor type, donor heavy atom, donor atom, acceptor molecule, acceptor atom, score
      L1  H     9    45       P1 10747  0.50
      L1  H    25    57       P1  7948  0.95

> <Gold.Chemscore.Hbond.Weighted>
-5.9607

> <Gold.Chemscore.Metal.Weighted>
-0.0000

> <Gold.Chemscore.Lipo.Weighted>
-13.4633

> <Gold.Chemscore.Internal_Hbond.Weighted>
0.0000

> <Gold.Chemscore.DEClash.Weighted>
2.8168

> <Gold.Chemscore.DEInternal.Weighted>
3.5504

> <Gold.Chemscore.Rot.Weighted>
8.7005

> <Gold.Chemscore.Internal.Correction.Weighted>
   9.000000E+99

> <Gold.Protein.RotatedTorsions>
[ 6907 6896 6895 6894 ] final   81.32 input  -60.11 | X-H torsion
[ 7974 7965 7964 7962 ] final   96.51 input  175.53 | X-H torsion
[ 8008 7997 7996 7995 ] final  115.50 input   59.86 | X-H torsion
[ 10167 10162 10161 10158 ] final -167.62 input  -65.29 | X-H torsion
[ 10718 10713 10712 10709 ] final -152.22 input   66.30 | X-H torsion
[ 10763 10752 10751 10750 ] final  -11.47 input  -60.55 | X-H torsion
[ 11005 11000 10999 10996 ] final   60.64 input  -57.11 | X-H torsion

> <Gold.Protein.ActiveResidues>
 VAL166  LYS551  ARG553  GLY616  TRP617  ASP618  TYR619  PRO620  LYS621  CYS622 
 ASP623  PHE694  ASN695  SER759  ASP760  ASP761  ALA762  ILE779  LEU786  VAL792 
 PHE793  MET794  SER795  GLU796  ALA797  LYS798  CYS799  TRP800  GLU811  SER814 

> <Gold.Protein.RotatedAtoms>
  152.5264  134.3222  159.9152 H   0  0  0  0  0  0  0  0  0  0  0  0  # atno 6907 bound_to 6896
  151.3171  133.4049  159.2659 H   0  0  0  0  0  0  0  0  0  0  0  0  # atno 6908 bound_to 6896
  150.9990  134.9324  159.8000 H   0  0  0  0  0  0  0  0  0  0  0  0  # atno 6909 bound_to 6896
  145.4378  139.2304  143.3108 H   0  0  0  0  0  0  0  0  0  0  0  0  # atno 7974 bound_to 7965
  156.2385  140.2937  156.0379 H   0  0  0  0  0  0  0  0  0  0  0  0  # atno 8008 bound_to 7997
  155.2021  140.0410  157.2936 H   0  0  0  0  0  0  0  0  0  0  0  0  # atno 8009 bound_to 7997
  154.6124  140.2455  155.7660 H   0  0  0  0  0  0  0  0  0  0  0  0  # atno 8010 bound_to 7997
  139.6038  144.0956  152.1771 H   0  0  0  0  0  0  0  0  0  0  0  0  # atno 10167 bound_to 10162
  156.4696  130.8252  151.2482 H   0  0  0  0  0  0  0  0  0  0  0  0  # atno 10718 bound_to 10713
  153.4842  135.7017  153.5920 H   0  0  0  0  0  0  0  0  0  0  0  0  # atno 10763 bound_to 10752
  153.4121  135.3846  155.2057 H   0  0  0  0  0  0  0  0  0  0  0  0  # atno 10764 bound_to 10752
  154.8720  135.3907  154.4295 H   0  0  0  0  0  0  0  0  0  0  0  0  # atno 10765 bound_to 10752
  140.0217  134.6142  155.9630 H   0  0  0  0  0  0  0  0  0  0  0  0  # atno 11005 bound_to 11000
  146.2572  140.5123  142.8868 LP  0  0  0  0  0  0  0  0  0  0  0  0  # atno 17320 bound_to 7965
  144.8141  140.6437  143.6396 LP  0  0  0  0  0  0  0  0  0  0  0  0  # atno 17321 bound_to 7965
  140.0558  144.5896  150.7300 LP  0  0  0  0  0  0  0  0  0  0  0  0  # atno 17342 bound_to 10162
  140.7269  143.2646  151.4088 LP  0  0  0  0  0  0  0  0  0  0  0  0  # atno 17343 bound_to 10162
  157.7492  131.0080  150.3214 LP  0  0  0  0  0  0  0  0  0  0  0  0  # atno 17370 bound_to 10713
  156.3632  130.3850  149.7234 LP  0  0  0  0  0  0  0  0  0  0  0  0  # atno 17371 bound_to 10713
  141.1778  133.6542  156.4898 LP  0  0  0  0  0  0  0  0  0  0  0  0  # atno 17394 bound_to 11000
  140.4375  134.7045  157.4974 LP  0  0  0  0  0  0  0  0  0  0  0  0  # atno 17395 bound_to 11000

$$$$
