AV-unprocessed.smi:474|AV-procd|sdf|2666|dock3
  -GOLD-   2262023 83D 1   1.00000     0.00000
 Structure written by MMmdl.
 36 37  0  0  0  0  0  0  0  0  2 V2000
  146.6708  134.1913  162.5400 C   0  0  0  0  0  0  0  0  0  0  0  0
  147.2239  135.2002  161.5927 C   0  0  0  0  0  0  0  0  0  0  0  0
  147.6024  135.1320  160.2820 C   0  0  0  0  0  0  0  0  0  0  0  0
  148.0476  136.4531  160.0026 C   0  0  0  0  0  0  0  0  0  0  0  0
  148.5139  136.8968  158.8250 N   0  5  0  0  0  0  0  0  0  0  0  0
  149.7512  137.4389  158.7433 C   0  0  0  0  0  0  0  0  0  0  0  0
  150.7918  136.9588  159.1992 O   0  0  0  0  0  0  0  0  0  0  0  0
  149.7883  138.6089  158.0909 N   0  0  0  0  0  0  0  0  0  0  0  0
  150.9901  139.3985  157.8563 C   0  0  0  0  0  0  0  0  0  0  0  0
  151.4502  140.0838  159.1516 C   0  0  0  0  0  0  0  0  0  0  0  0
  151.7457  141.5627  158.9623 C   0  0  0  0  0  0  0  0  0  0  0  0
  151.0779  142.3143  158.0653 C   0  0  0  0  0  0  0  0  0  0  0  0
  151.3205  143.7971  157.8448 C   0  0  0  0  0  0  0  0  0  0  0  0
  152.1517  144.4291  158.9737 C   0  0  0  0  0  0  0  0  0  0  0  0
  153.3286  143.5271  159.3656 C   0  0  0  0  0  0  0  0  0  0  0  0
  152.8414  142.1486  159.8463 C   0  0  0  0  0  0  0  0  0  0  0  0
  147.9313  137.2566  161.0466 N   0  0  0  0  0  0  0  0  0  0  0  0
  147.4104  136.4590  162.0726 O   0  0  0  0  0  0  0  0  0  0  0  0
  145.8219  133.6710  162.0963 H   0  0  0  0  0  0  0  0  0  0  0  0
  146.3330  134.6619  163.4637 H   0  0  0  0  0  0  0  0  0  0  0  0
  147.4268  133.4490  162.7957 H   0  0  0  0  0  0  0  0  0  0  0  0
  147.5723  134.2739  159.6279 H   0  0  0  0  0  0  0  0  0  0  0  0
  148.9179  138.9743  157.7334 H   0  0  0  0  0  0  0  0  0  0  0  0
  151.7789  138.7475  157.4762 H   0  0  0  0  0  0  0  0  0  0  0  0
  150.7824  140.1419  157.0854 H   0  0  0  0  0  0  0  0  0  0  0  0
  150.6882  139.9768  159.9246 H   0  0  0  0  0  0  0  0  0  0  0  0
  152.3428  139.5824  159.5290 H   0  0  0  0  0  0  0  0  0  0  0  0
  150.3209  141.8609  157.4419 H   0  0  0  0  0  0  0  0  0  0  0  0
  151.8312  143.9160  156.8888 H   0  0  0  0  0  0  0  0  0  0  0  0
  150.3618  144.3090  157.7591 H   0  0  0  0  0  0  0  0  0  0  0  0
  152.5099  145.4125  158.6682 H   0  0  0  0  0  0  0  0  0  0  0  0
  151.5180  144.5885  159.8471 H   0  0  0  0  0  0  0  0  0  0  0  0
  153.9851  143.4010  158.5038 H   0  0  0  0  0  0  0  0  0  0  0  0
  153.9279  144.0014  160.1432 H   0  0  0  0  0  0  0  0  0  0  0  0
  152.4517  142.2320  160.8614 H   0  0  0  0  0  0  0  0  0  0  0  0
  153.6850  141.4588  159.8880 H   0  0  0  0  0  0  0  0  0  0  0  0
  1  2  1  0  0  0  0
  1 19  1  0  0  0  0
  1 20  1  0  0  0  0
  1 21  1  0  0  0  0
  2 18  1  0  0  0  0
  2  3  2  0  0  0  0
  3  4  1  0  0  0  0
  3 22  1  0  0  0  0
  4  5  1  0  0  0  0
  4 17  2  0  0  0  0
  5  6  1  0  0  0  0
  6  7  2  0  0  0  0
  6  8  1  0  0  0  0
  8  9  1  0  0  0  0
  8 23  1  0  0  0  0
  9 10  1  0  0  0  0
  9 24  1  0  0  0  0
  9 25  1  0  0  0  0
 10 11  1  0  0  0  0
 10 26  1  0  0  0  0
 10 27  1  0  0  0  0
 11 16  1  0  0  0  0
 11 12  2  0  0  0  0
 12 13  1  0  0  0  0
 12 28  1  0  0  0  0
 13 14  1  0  0  0  0
 13 29  1  0  0  0  0
 13 30  1  0  0  0  0
 14 15  1  0  0  0  0
 14 31  1  0  0  0  0
 14 32  1  0  0  0  0
 15 16  1  0  0  0  0
 15 33  1  0  0  0  0
 15 34  1  0  0  0  0
 16 35  1  0  0  0  0
 16 36  1  0  0  0  0
 17 18  1  0  0  0  0
M  CHG  1   5  -1
M  END
> <s_m_source_file>
AV-unprocessed.smi

> <i_m_source_file_index>
474

> <i_lp_mmshare_version>
43012

> <i_f3d_flags>
0

> <s_epik_input>
W0NIM11jMVtjSF1jKG5vMSlbTkhdQyg9TylbTkhdW0NIMl1bQ0gyXUMyPVtDSF1bQ0gyXVtDSDJdW0NIMl1bQ0gyXTI=

> <s_epik_cmdline>
J2VwaWtfcHl0aG9uJywgJy1waCcsICc3LjAnLCAnLXRuJywgJzgnLCAnLW1hJywgJzIwMCcsICctbWV0YWxfYmluZGluZycsICctaW1hZScsICc8aW5maWxlLm1hZT4nLCAnLW9tYWUnLCAnPG91dGZpbGUubWFlPic=

> <r_lp_tautomer_probability>
1

> <r_epik_Ionization_Penalty>
6.63591

> <r_epik_Ionization_Penalty_Charging>
6.63578

> <r_epik_Ionization_Penalty_Neutral>
0.000126188

> <r_epik_State_Penalty>
6.63578

> <r_epik_Charging_Adjusted_Penalty>
13.2716

> <i_epik_Tot_Q>
-1

> <i_epik_Tot_abs_Q>
1

> <r_epik_Metal_State_Penalty>
2.55901

> <b_epik_Metal_Only>
1

> <s_lp_Force_Field>
OPLS_2005

> <r_lp_Energy>
1.29759

> <b_lp_Chiralities_Consistent>
1

> <s_lp_Variant>
AV-unprocessed.smi:474-2

> <Gold.Version>
5.8.1

> <Gold.Id.Protein>
6NUR|6NUR_protein|mol2

> <Gold.PLP.Fitness>
43.2701

> <Gold.PLP.PLP>
-38.7728

> <Gold.PLP.part.hbond>
-3.0000

> <Gold.PLP.part.metal>
0.0000

> <Gold.PLP.part.buried>
-5.0819

> <Gold.PLP.part.nonpolar>
-30.3557

> <Gold.PLP.part.repulsive>
0.0969

> <Gold.PLP.ligand.clash>
0.0000

> <Gold.PLP.ligand.torsion>
1.7645

> <Gold.PLP.Chemscore.Hbond>
2.6640

> <Gold.PLP.Chemscore.CHOScore>
0.0000

> <Gold.PLP.Chemscore.Metal>
0.0000

> <Gold.Chemscore.Hbonds>
donor molecule, donor type, donor heavy atom, donor atom, acceptor molecule, acceptor atom, score
      P1  H  6896  6909       L1     7  1.00
      P1  H  6931  6943       L1    17  0.91
      P1  H  6934  6947       L1    17  0.75

> <Gold.PLP.Chemscore.Internal.Correction>
0.0343

> <Gold.Rescore>
     Score         DG    S(hbond)    S(metal)    S(lipo)     H(rot)  DE(clash)    DE(int)     intcor
     19.76     -21.49       2.51        0.00      97.02       1.45       0.05       1.68       ----

> <Gold.Chemscore.Fitness>
19.7627

> <Gold.Chemscore.DG>
-21.4880

> <Gold.Chemscore.ZeroCoef>
-5.4800

> <Gold.Chemscore.Hbond>
2.5078

> <Gold.Chemscore.Metal>
0.0000

> <Gold.Chemscore.Lipo>
97.0205

> <Gold.Chemscore.Internal_Hbond>
0.0000

> <Gold.Chemscore.DEClash>
0.0474

> <Gold.Chemscore.DEInternal>
1.6780

> <Gold.Chemscore.Rot>
1.4529

> <Gold.Chemscore.Internal.Correction>
   9.000000E+99

> <Gold.Chemscore.Hbonds>
donor molecule, donor type, donor heavy atom, donor atom, acceptor molecule, acceptor atom, score
      P1  H  6896  6909       L1     7  0.95
      P1  H  6931  6943       L1    17  0.31
      P1  H  6934  6947       L1    17  0.66

> <Gold.Chemscore.Hbond.Weighted>
-8.3761

> <Gold.Chemscore.Metal.Weighted>
-0.0000

> <Gold.Chemscore.Lipo.Weighted>
-11.3514

> <Gold.Chemscore.Internal_Hbond.Weighted>
0.0000

> <Gold.Chemscore.DEClash.Weighted>
0.0474

> <Gold.Chemscore.DEInternal.Weighted>
1.6780

> <Gold.Chemscore.Rot.Weighted>
3.7194

> <Gold.Chemscore.Internal.Correction.Weighted>
   9.000000E+99

> <Gold.Protein.RotatedTorsions>
[ 6907 6896 6895 6894 ] final   91.79 input  -60.11 | X-H torsion
[ 7974 7965 7964 7962 ] final   52.89 input  175.53 | X-H torsion
[ 8008 7997 7996 7995 ] final -159.18 input   59.86 | X-H torsion
[ 10167 10162 10161 10158 ] final  -20.49 input  -65.29 | X-H torsion
[ 10718 10713 10712 10709 ] final   49.38 input   66.30 | X-H torsion
[ 10763 10752 10751 10750 ] final   27.71 input  -60.55 | X-H torsion
[ 11005 11000 10999 10996 ] final  -24.29 input  -57.11 | X-H torsion

> <Gold.Protein.ActiveResidues>
 VAL166  LYS551  ARG553  GLY616  TRP617  ASP618  TYR619  PRO620  LYS621  CYS622 
 ASP623  PHE694  ASN695  SER759  ASP760  ASP761  ALA762  ILE779  LEU786  VAL792 
 PHE793  MET794  SER795  GLU796  ALA797  LYS798  CYS799  TRP800  GLU811  SER814 

> <Gold.Protein.RotatedAtoms>
  152.5451  134.1602  159.8554 H   0  0  0  0  0  0  0  0  0  0  0  0  # atno 6907 bound_to 6896
  151.1620  133.4831  159.2601 H   0  0  0  0  0  0  0  0  0  0  0  0  # atno 6908 bound_to 6896
  151.1362  135.0167  159.8660 H   0  0  0  0  0  0  0  0  0  0  0  0  # atno 6909 bound_to 6896
  145.9768  139.4202  143.0156 H   0  0  0  0  0  0  0  0  0  0  0  0  # atno 7974 bound_to 7965
  155.7586  140.0836  157.2166 H   0  0  0  0  0  0  0  0  0  0  0  0  # atno 8008 bound_to 7997
  154.4005  140.1547  156.2863 H   0  0  0  0  0  0  0  0  0  0  0  0  # atno 8009 bound_to 7997
  155.8861  140.3418  155.5925 H   0  0  0  0  0  0  0  0  0  0  0  0  # atno 8010 bound_to 7997
  140.7276  143.4717  151.0238 H   0  0  0  0  0  0  0  0  0  0  0  0  # atno 10167 bound_to 10162
  157.4781  130.8297  149.8062 H   0  0  0  0  0  0  0  0  0  0  0  0  # atno 10718 bound_to 10713
  153.0538  135.6530  154.0627 H   0  0  0  0  0  0  0  0  0  0  0  0  # atno 10763 bound_to 10752
  154.0310  135.2911  155.3370 H   0  0  0  0  0  0  0  0  0  0  0  0  # atno 10764 bound_to 10752
  154.6842  135.5308  153.8371 H   0  0  0  0  0  0  0  0  0  0  0  0  # atno 10765 bound_to 10752
  140.8832  133.7640  156.0327 H   0  0  0  0  0  0  0  0  0  0  0  0  # atno 11005 bound_to 11000
  145.7827  140.9849  143.1090 LP  0  0  0  0  0  0  0  0  0  0  0  0  # atno 17320 bound_to 7965
  144.6851  139.9585  143.7479 LP  0  0  0  0  0  0  0  0  0  0  0  0  # atno 17321 bound_to 7965
  139.8410  143.7564  152.3180 LP  0  0  0  0  0  0  0  0  0  0  0  0  # atno 17342 bound_to 10162
  139.7713  144.7475  151.0220 LP  0  0  0  0  0  0  0  0  0  0  0  0  # atno 17343 bound_to 10162
  156.0107  130.3834  150.2275 LP  0  0  0  0  0  0  0  0  0  0  0  0  # atno 17370 bound_to 10713
  157.0460  131.0049  151.3269 LP  0  0  0  0  0  0  0  0  0  0  0  0  # atno 17371 bound_to 10713
  140.8437  134.3037  157.5303 LP  0  0  0  0  0  0  0  0  0  0  0  0  # atno 17394 bound_to 11000
  139.8721  134.9430  156.3840 LP  0  0  0  0  0  0  0  0  0  0  0  0  # atno 17395 bound_to 11000

$$$$
