AV-unprocessed.smi:2146|AV-procd|sdf|8740|dock7
  -GOLD-   2272011513D 1   1.00000     0.00000
 Structure written by MMmdl.
 45 46  0  0  0  0  0  0  0  0  2 V2000
  146.9848  137.3714  158.8088 C   0  0  0  0  0  0  0  0  0  0  0  0
  147.7518  136.9065  160.0720 C   0  0  2  0  0  0  0  0  0  0  0  0
  149.1969  136.4901  159.6969 C   0  0  0  0  0  0  0  0  0  0  0  0
  149.9112  137.5471  158.9897 N   0  0  0  0  0  0  0  0  0  0  0  0
  151.2314  137.7625  159.0785 C   0  0  0  0  0  0  0  0  0  0  0  0
  151.9748  137.0832  159.7882 O   0  0  0  0  0  0  0  0  0  0  0  0
  151.7760  138.9270  158.2377 C   0  0  0  0  0  0  0  0  0  0  0  0
  152.5094  139.9347  159.0229 N   0  0  0  0  0  0  0  0  0  0  0  0
  152.0049  141.2499  159.0059 C   0  0  0  0  0  0  0  0  0  0  0  0
  152.5739  142.2626  159.6880 C   0  0  0  0  0  0  0  0  0  0  0  0
  152.0394  143.6842  159.6057 C   0  0  0  0  0  0  0  0  0  0  0  0
  150.7649  143.6951  159.2144 F   0  0  0  0  0  0  0  0  0  0  0  0
  152.1200  144.2990  160.7865 F   0  0  0  0  0  0  0  0  0  0  0  0
  152.7504  144.3853  158.7237 F   0  0  0  0  0  0  0  0  0  0  0  0
  153.7752  141.9428  160.4339 C   0  0  0  0  0  0  0  0  0  0  0  0
  154.2740  140.6914  160.4565 C   0  0  0  0  0  0  0  0  0  0  0  0
  153.6303  139.5959  159.7280 C   0  0  0  0  0  0  0  0  0  0  0  0
  154.0705  138.4464  159.7495 O   0  0  0  0  0  0  0  0  0  0  0  0
  147.0585  135.7990  160.8108 N   0  3  0  0  0  0  0  0  0  0  0  0
  147.7986  135.3686  162.0296 C   0  0  0  0  0  0  0  0  0  0  0  0
  147.1001  134.1839  162.7163 C   0  0  0  0  0  0  0  0  0  0  0  0
  145.7707  134.5496  163.0531 O   0  0  0  0  0  0  0  0  0  0  0  0
  145.0101  134.8609  161.8961 C   0  0  0  0  0  0  0  0  0  0  0  0
  145.6351  136.0615  161.1642 C   0  0  0  0  0  0  0  0  0  0  0  0
  147.5222  138.1499  158.2681 H   0  0  0  0  0  0  0  0  0  0  0  0
  146.0162  137.8063  159.0551 H   0  0  0  0  0  0  0  0  0  0  0  0
  146.8235  136.5457  158.1146 H   0  0  0  0  0  0  0  0  0  0  0  0
  147.8046  137.7661  160.7422 H   0  0  0  0  0  0  0  0  0  0  0  0
  149.7809  136.2385  160.5809 H   0  0  0  0  0  0  0  0  0  0  0  0
  149.1759  135.5975  159.0693 H   0  0  0  0  0  0  0  0  0  0  0  0
  149.3677  138.1493  158.3876 H   0  0  0  0  0  0  0  0  0  0  0  0
  152.4147  138.5238  157.4496 H   0  0  0  0  0  0  0  0  0  0  0  0
  150.9398  139.3918  157.7132 H   0  0  0  0  0  0  0  0  0  0  0  0
  151.1197  141.3837  158.4014 H   0  0  0  0  0  0  0  0  0  0  0  0
  154.2811  142.7187  160.9894 H   0  0  0  0  0  0  0  0  0  0  0  0
  155.1690  140.4887  161.0263 H   0  0  0  0  0  0  0  0  0  0  0  0
  148.8166  135.0679  161.7910 H   0  0  0  0  0  0  0  0  0  0  0  0
  147.8718  136.2052  162.7262 H   0  0  0  0  0  0  0  0  0  0  0  0
  147.1013  133.3019  162.0734 H   0  0  0  0  0  0  0  0  0  0  0  0
  147.6315  133.9131  163.6288 H   0  0  0  0  0  0  0  0  0  0  0  0
  144.9511  133.9915  161.2392 H   0  0  0  0  0  0  0  0  0  0  0  0
  143.9903  135.0978  162.1998 H   0  0  0  0  0  0  0  0  0  0  0  0
  145.5711  136.9548  161.7876 H   0  0  0  0  0  0  0  0  0  0  0  0
  145.0382  136.2408  160.2708 H   0  0  0  0  0  0  0  0  0  0  0  0
  147.0431  135.0077  160.1830 H   0  0  0  0  0  0  0  0  0  0  0  0
  1  2  1  0  0  0  0
  1 25  1  0  0  0  0
  1 26  1  0  0  0  0
  1 27  1  0  0  0  0
  2  3  1  0  0  0  0
  2 19  1  0  0  0  0
  2 28  1  0  0  0  0
  3  4  1  0  0  0  0
  3 29  1  0  0  0  0
  3 30  1  0  0  0  0
  4  5  1  0  0  0  0
  4 31  1  0  0  0  0
  5  6  2  0  0  0  0
  5  7  1  0  0  0  0
  7  8  1  0  0  0  0
  7 32  1  0  0  0  0
  7 33  1  0  0  0  0
  8 17  1  0  0  0  0
  8  9  1  0  0  0  0
  9 10  2  0  0  0  0
  9 34  1  0  0  0  0
 10 11  1  0  0  0  0
 10 15  1  0  0  0  0
 11 12  1  0  0  0  0
 11 13  1  0  0  0  0
 11 14  1  0  0  0  0
 15 16  2  0  0  0  0
 15 35  1  0  0  0  0
 16 17  1  0  0  0  0
 16 36  1  0  0  0  0
 17 18  2  0  0  0  0
 19 24  1  0  0  0  0
 19 20  1  0  0  0  0
 19 45  1  0  0  0  0
 20 21  1  0  0  0  0
 20 37  1  0  0  0  0
 20 38  1  0  0  0  0
 21 22  1  0  0  0  0
 21 39  1  0  0  0  0
 21 40  1  0  0  0  0
 22 23  1  0  0  0  0
 23 24  1  0  0  0  0
 23 41  1  0  0  0  0
 23 42  1  0  0  0  0
 24 43  1  0  0  0  0
 24 44  1  0  0  0  0
M  CHG  1  19   1
M  END
> <s_m_source_file>
AV-unprocessed.smi

> <i_m_source_file_index>
2146

> <i_lp_mmshare_version>
43012

> <i_f3d_flags>
0

> <s_epik_input>
W0NIMl0xW0NIMl1PW0NIMl1bQ0gyXU4xW0NASF0oW0NIM10pW0NIMl1bTkhdQyg9TylbQ0gyXW4yW2NIXWMoQyhGKShGKUYpW2NIXVtjSF1jMj1P

> <s_epik_cmdline>
J2VwaWtfcHl0aG9uJywgJy1waCcsICc3LjAnLCAnLXRuJywgJzgnLCAnLW1hJywgJzIwMCcsICctbWV0YWxfYmluZGluZycsICctaW1hZScsICc8aW5maWxlLm1hZT4nLCAnLW9tYWUnLCAnPG91dGZpbGUubWFlPic=

> <r_lp_tautomer_probability>
1

> <r_epik_Ionization_Penalty>
0.656654

> <r_epik_Ionization_Penalty_Charging>
0.656653

> <r_epik_Ionization_Penalty_Neutral>
9.12373e-08

> <r_epik_State_Penalty>
0.675641

> <r_epik_Charging_Adjusted_Penalty>
1.33229

> <i_epik_Tot_Q>
1

> <i_epik_Tot_abs_Q>
1

> <r_epik_Metal_State_Penalty>
0.675692

> <b_epik_Metal_Only>
0

> <s_lp_Force_Field>
OPLS_2005

> <r_lp_Energy>
33.6044

> <b_lp_Chiralities_Consistent>
1

> <s_lp_Variant>
AV-unprocessed.smi:2146-3

> <Gold.Version>
5.8.1

> <Gold.Id.Protein>
6NUR|6NUR_protein|mol2

> <Gold.PLP.Fitness>
50.1627

> <Gold.PLP.PLP>
-49.2446

> <Gold.PLP.part.hbond>
-1.9212

> <Gold.PLP.part.metal>
0.0000

> <Gold.PLP.part.buried>
-6.8727

> <Gold.PLP.part.nonpolar>
-42.2556

> <Gold.PLP.part.repulsive>
0.3066

> <Gold.PLP.ligand.clash>
0.0161

> <Gold.PLP.ligand.torsion>
1.0702

> <Gold.PLP.Chemscore.Hbond>
0.9913

> <Gold.PLP.Chemscore.CHOScore>
0.0000

> <Gold.PLP.Chemscore.Metal>
0.0000

> <Gold.Chemscore.Hbonds>
donor molecule, donor type, donor heavy atom, donor atom, acceptor molecule, acceptor atom, score
      P1  H  6896  6907       L1     6  1.00

> <Gold.PLP.Chemscore.Internal.Correction>
0.1009

> <Gold.Rescore>
     Score         DG    S(hbond)    S(metal)    S(lipo)     H(rot)  DE(clash)    DE(int)     intcor
     11.06     -13.96       0.99        0.00      91.84       2.18       0.04       2.87       ----

> <Gold.Chemscore.Fitness>
11.0551

> <Gold.Chemscore.DG>
-13.9645

> <Gold.Chemscore.ZeroCoef>
-5.4800

> <Gold.Chemscore.Hbond>
0.9944

> <Gold.Chemscore.Metal>
0.0000

> <Gold.Chemscore.Lipo>
91.8420

> <Gold.Chemscore.Internal_Hbond>
0.0000

> <Gold.Chemscore.DEClash>
0.0414

> <Gold.Chemscore.DEInternal>
2.8680

> <Gold.Chemscore.Rot>
2.1805

> <Gold.Chemscore.Internal.Correction>
   9.000000E+99

> <Gold.Chemscore.Hbonds>
donor molecule, donor type, donor heavy atom, donor atom, acceptor molecule, acceptor atom, score
      P1  H  6896  6907       L1     6  0.97

> <Gold.Chemscore.Hbond.Weighted>
-3.3212

> <Gold.Chemscore.Metal.Weighted>
-0.0000

> <Gold.Chemscore.Lipo.Weighted>
-10.7455

> <Gold.Chemscore.Internal_Hbond.Weighted>
0.0000

> <Gold.Chemscore.DEClash.Weighted>
0.0414

> <Gold.Chemscore.DEInternal.Weighted>
2.8680

> <Gold.Chemscore.Rot.Weighted>
5.5822

> <Gold.Chemscore.Internal.Correction.Weighted>
   9.000000E+99

> <Gold.Protein.RotatedTorsions>
[ 6907 6896 6895 6894 ] final    6.61 input  -60.11 | X-H torsion
[ 7974 7965 7964 7962 ] final   52.43 input  175.53 | X-H torsion
[ 8008 7997 7996 7995 ] final -142.02 input   59.86 | X-H torsion
[ 10167 10162 10161 10158 ] final  146.17 input  -65.29 | X-H torsion
[ 10718 10713 10712 10709 ] final   76.08 input   66.30 | X-H torsion
[ 10763 10752 10751 10750 ] final  -25.04 input  -60.55 | X-H torsion
[ 11005 11000 10999 10996 ] final  -60.68 input  -57.11 | X-H torsion

> <Gold.Protein.ActiveResidues>
 VAL166  LYS551  ARG553  GLY616  TRP617  ASP618  TYR619  PRO620  LYS621  CYS622 
 ASP623  PHE694  ASN695  SER759  ASP760  ASP761  ALA762  ILE779  LEU786  VAL792 
 PHE793  MET794  SER795  GLU796  ALA797  LYS798  CYS799  TRP800  GLU811  SER814 

> <Gold.Protein.RotatedAtoms>
  151.6765  135.0968  160.0207 H   0  0  0  0  0  0  0  0  0  0  0  0  # atno 6907 bound_to 6896
  152.3860  133.6608  159.6208 H   0  0  0  0  0  0  0  0  0  0  0  0  # atno 6908 bound_to 6896
  150.7786  133.8950  159.3366 H   0  0  0  0  0  0  0  0  0  0  0  0  # atno 6909 bound_to 6896
  145.9814  139.4246  143.0130 H   0  0  0  0  0  0  0  0  0  0  0  0  # atno 7974 bound_to 7965
  155.4874  140.0565  157.2958 H   0  0  0  0  0  0  0  0  0  0  0  0  # atno 8008 bound_to 7997
  154.4636  140.2008  156.0128 H   0  0  0  0  0  0  0  0  0  0  0  0  # atno 8009 bound_to 7997
  156.0935  140.3230  155.7852 H   0  0  0  0  0  0  0  0  0  0  0  0  # atno 8010 bound_to 7997
  139.4912  144.5849  151.6798 H   0  0  0  0  0  0  0  0  0  0  0  0  # atno 10167 bound_to 10162
  157.6660  130.9757  150.1446 H   0  0  0  0  0  0  0  0  0  0  0  0  # atno 10718 bound_to 10713
  153.6934  135.6960  153.5083 H   0  0  0  0  0  0  0  0  0  0  0  0  # atno 10763 bound_to 10752
  153.2396  135.4310  155.0682 H   0  0  0  0  0  0  0  0  0  0  0  0  # atno 10764 bound_to 10752
  154.8366  135.3504  154.6475 H   0  0  0  0  0  0  0  0  0  0  0  0  # atno 10765 bound_to 10752
  141.1296  133.6624  156.5261 H   0  0  0  0  0  0  0  0  0  0  0  0  # atno 11005 bound_to 11000
  145.7764  140.9875  143.1122 LP  0  0  0  0  0  0  0  0  0  0  0  0  # atno 17320 bound_to 7965
  144.6862  139.9511  143.7478 LP  0  0  0  0  0  0  0  0  0  0  0  0  # atno 17321 bound_to 7965
  140.5463  144.0498  150.6108 LP  0  0  0  0  0  0  0  0  0  0  0  0  # atno 17342 bound_to 10162
  140.3537  143.2948  152.0459 LP  0  0  0  0  0  0  0  0  0  0  0  0  # atno 17343 bound_to 10162
  156.2260  130.3678  149.8500 LP  0  0  0  0  0  0  0  0  0  0  0  0  # atno 17370 bound_to 10713
  156.6340  130.8677  151.3501 LP  0  0  0  0  0  0  0  0  0  0  0  0  # atno 17371 bound_to 10713
  140.4253  134.7150  157.4912 LP  0  0  0  0  0  0  0  0  0  0  0  0  # atno 17394 bound_to 11000
  140.0331  134.6377  155.9080 LP  0  0  0  0  0  0  0  0  0  0  0  0  # atno 17395 bound_to 11000

$$$$
