AV-unprocessed.smi:3142|AV-procd|sdf|11971|dock5
  -GOLD-   2272017373D 1   1.00000     0.00000
 Structure written by MMmdl.
 36 38  0  0  0  0  0  0  0  0  1 V2000
  149.6005  141.3303  155.6010 C   0  0  0  0  0  0  0  0  0  0  0  0
  151.0908  141.0027  155.8158 C   0  0  1  0  0  0  0  0  0  0  0  0
  151.5112  141.0795  157.2912 C   0  0  0  0  0  0  0  0  0  0  0  0
  151.6757  140.0534  157.9519 O   0  0  0  0  0  0  0  0  0  0  0  0
  151.6894  142.3132  157.7895 N   0  0  0  0  0  0  0  0  0  0  0  0
  152.1172  142.6328  159.1470 C   0  0  0  0  0  0  0  0  0  0  0  0
  152.1912  144.1300  159.3998 C   0  0  0  0  0  0  0  0  0  0  0  0
  151.7985  144.7221  160.7331 C   0  0  0  0  0  0  0  0  0  0  0  0
  150.9438  144.9748  159.5129 C   0  0  0  0  0  0  0  0  0  0  0  0
  153.4454  141.9762  159.4754 C   0  0  0  0  0  0  0  0  0  0  0  0
  153.5049  140.5685  160.0177 C   0  0  0  0  0  0  0  0  0  0  0  0
  153.8763  141.7372  160.9031 C   0  0  0  0  0  0  0  0  0  0  0  0
  151.4367  139.6993  155.2662 N   0  0  0  0  0  0  0  0  0  0  0  0
  150.6055  138.8119  154.5896 C   0  0  0  0  0  0  0  0  0  0  0  0
  151.3681  137.7062  154.2894 C   0  0  0  0  0  0  0  0  0  0  0  0
  152.6595  137.8811  154.7795 N   0  0  0  0  0  0  0  0  0  0  0  0
  152.6226  139.0789  155.3484 C   0  0  0  0  0  0  0  0  0  0  0  0
  149.3590  142.3258  155.9749 H   0  0  0  0  0  0  0  0  0  0  0  0
  148.9475  140.6190  156.1078 H   0  0  0  0  0  0  0  0  0  0  0  0
  149.3480  141.3107  154.5404 H   0  0  0  0  0  0  0  0  0  0  0  0
  151.6678  141.7528  155.2718 H   0  0  0  0  0  0  0  0  0  0  0  0
  151.5327  143.0960  157.1715 H   0  0  0  0  0  0  0  0  0  0  0  0
  151.3818  142.2180  159.8398 H   0  0  0  0  0  0  0  0  0  0  0  0
  153.0395  144.6064  158.9117 H   0  0  0  0  0  0  0  0  0  0  0  0
  151.3960  144.0544  161.4919 H   0  0  0  0  0  0  0  0  0  0  0  0
  152.3957  145.5498  161.1102 H   0  0  0  0  0  0  0  0  0  0  0  0
  150.9717  145.9701  159.0742 H   0  0  0  0  0  0  0  0  0  0  0  0
  149.9797  144.4723  159.4667 H   0  0  0  0  0  0  0  0  0  0  0  0
  154.2423  142.2453  158.7842 H   0  0  0  0  0  0  0  0  0  0  0  0
  152.5629  140.0633  160.2219 H   0  0  0  0  0  0  0  0  0  0  0  0
  154.3099  139.9284  159.6624 H   0  0  0  0  0  0  0  0  0  0  0  0
  154.9292  141.8765  161.1392 H   0  0  0  0  0  0  0  0  0  0  0  0
  153.1813  141.9991  161.6982 H   0  0  0  0  0  0  0  0  0  0  0  0
  149.5686  139.0336  154.3841 H   0  0  0  0  0  0  0  0  0  0  0  0
  151.0865  136.8028  153.7689 H   0  0  0  0  0  0  0  0  0  0  0  0
  153.4805  139.5150  155.8390 H   0  0  0  0  0  0  0  0  0  0  0  0
  1  2  1  0  0  0  0
  1 18  1  0  0  0  0
  1 19  1  0  0  0  0
  1 20  1  0  0  0  0
  2  3  1  0  0  0  0
  2 13  1  0  0  0  0
  2 21  1  0  0  0  0
  3  4  2  0  0  0  0
  3  5  1  0  0  0  0
  5  6  1  0  0  0  0
  5 22  1  0  0  0  0
  6  7  1  0  0  0  0
  6 10  1  0  0  0  0
  6 23  1  0  0  0  0
  7  9  1  0  0  0  0
  7  8  1  0  0  0  0
  7 24  1  0  0  0  0
  8  9  1  0  0  0  0
  8 25  1  0  0  0  0
  8 26  1  0  0  0  0
  9 27  1  0  0  0  0
  9 28  1  0  0  0  0
 10 12  1  0  0  0  0
 10 11  1  0  0  0  0
 10 29  1  0  0  0  0
 11 12  1  0  0  0  0
 11 30  1  0  0  0  0
 11 31  1  0  0  0  0
 12 32  1  0  0  0  0
 12 33  1  0  0  0  0
 13 17  1  0  0  0  0
 13 14  1  0  0  0  0
 14 15  2  0  0  0  0
 14 34  1  0  0  0  0
 15 16  1  0  0  0  0
 15 35  1  0  0  0  0
 16 17  2  0  0  0  0
 17 36  1  0  0  0  0
M  END
> <s_m_source_file>
AV-unprocessed.smi

> <i_m_source_file_index>
3142

> <i_lp_mmshare_version>
43012

> <i_f3d_flags>
0

> <s_epik_input>
W2NIXTFuW2NIXVtjSF1uMVtDQEhdKFtDSDNdKUMoPU8pW05IXVtDSF0oW0NIXTJbQ0gyXVtDSDJdMilbQ0hdM1tDSDJdW0NIMl0z

> <s_epik_cmdline>
J2VwaWtfcHl0aG9uJywgJy1waCcsICc3LjAnLCAnLXRuJywgJzgnLCAnLW1hJywgJzIwMCcsICctbWV0YWxfYmluZGluZycsICctaW1hZScsICc8aW5maWxlLm1hZT4nLCAnLW9tYWUnLCAnPG91dGZpbGUubWFlPic=

> <r_lp_tautomer_probability>
1

> <r_epik_Ionization_Penalty>
0.32285

> <r_epik_Ionization_Penalty_Charging>
0.32285

> <r_epik_Ionization_Penalty_Neutral>
3.37967e-08

> <r_epik_State_Penalty>
0.317502

> <r_epik_Charging_Adjusted_Penalty>
0.640352

> <i_epik_Tot_Q>
0

> <i_epik_Tot_abs_Q>
0

> <r_epik_Metal_State_Penalty>
0.20415

> <b_epik_Metal_Only>
0

> <s_lp_Force_Field>
OPLS_2005

> <r_lp_Energy>
29.1263

> <b_lp_Chiralities_Consistent>
1

> <s_lp_Variant>
AV-unprocessed.smi:3142-2

> <Gold.Version>
5.8.1

> <Gold.Id.Protein>
6NUR|6NUR_protein|mol2

> <Gold.PLP.Fitness>
48.0083

> <Gold.PLP.PLP>
-45.5007

> <Gold.PLP.part.hbond>
-1.0000

> <Gold.PLP.part.metal>
0.0000

> <Gold.PLP.part.buried>
-3.7738

> <Gold.PLP.part.nonpolar>
-40.9052

> <Gold.PLP.part.repulsive>
0.1039

> <Gold.PLP.ligand.clash>
0.0000

> <Gold.PLP.ligand.torsion>
1.7160

> <Gold.PLP.Chemscore.Hbond>
0.2190

> <Gold.PLP.Chemscore.CHOScore>
1.0185

> <Gold.PLP.Chemscore.Metal>
0.0000

> <Gold.Chemscore.Hbonds>
donor molecule, donor type, donor heavy atom, donor atom, acceptor molecule, acceptor atom, score
      P1  H 10752 10765       L1    16  0.07
      L1  C    15    35       P1  7948  0.02
      L1  C    15    35       P1  7949  1.00

> <Gold.PLP.Chemscore.Internal.Correction>
2.2272

> <Gold.Rescore>
     Score         DG    S(hbond)    S(metal)    S(lipo)     H(rot)  DE(clash)    DE(int)     intcor
     12.68     -15.56       0.91        0.00     100.72       1.85       0.03       2.85       ----

> <Gold.Chemscore.Fitness>
12.6754

> <Gold.Chemscore.DG>
-15.5566

> <Gold.Chemscore.ZeroCoef>
-5.4800

> <Gold.Chemscore.Hbond>
0.9069

> <Gold.Chemscore.Metal>
0.0000

> <Gold.Chemscore.Lipo>
100.7236

> <Gold.Chemscore.Internal_Hbond>
0.0000

> <Gold.Chemscore.DEClash>
0.0308

> <Gold.Chemscore.DEInternal>
2.8504

> <Gold.Chemscore.Rot>
1.8505

> <Gold.Chemscore.Internal.Correction>
   9.000000E+99

> <Gold.Chemscore.Hbond.Weighted>
-3.0292

> <Gold.Chemscore.Metal.Weighted>
-0.0000

> <Gold.Chemscore.Lipo.Weighted>
-11.7847

> <Gold.Chemscore.Internal_Hbond.Weighted>
0.0000

> <Gold.Chemscore.DEClash.Weighted>
0.0308

> <Gold.Chemscore.DEInternal.Weighted>
2.8504

> <Gold.Chemscore.Rot.Weighted>
4.7373

> <Gold.Chemscore.Internal.Correction.Weighted>
   9.000000E+99

> <Gold.Protein.RotatedTorsions>
[ 6907 6896 6895 6894 ] final   91.12 input  -60.11 | X-H torsion
[ 7974 7965 7964 7962 ] final -142.44 input  175.53 | X-H torsion
[ 8008 7997 7996 7995 ] final   -6.22 input   59.86 | X-H torsion
[ 10167 10162 10161 10158 ] final  -42.59 input  -65.29 | X-H torsion
[ 10718 10713 10712 10709 ] final  110.69 input   66.30 | X-H torsion
[ 10763 10752 10751 10750 ] final  165.59 input  -60.55 | X-H torsion
[ 11005 11000 10999 10996 ] final    8.37 input  -57.11 | X-H torsion

> <Gold.Protein.ActiveResidues>
 VAL166  LYS551  ARG553  GLY616  TRP617  ASP618  TYR619  PRO620  LYS621  CYS622 
 ASP623  PHE694  ASN695  SER759  ASP760  ASP761  ALA762  ILE779  LEU786  VAL792 
 PHE793  MET794  SER795  GLU796  ALA797  LYS798  CYS799  TRP800  GLU811  SER814 

> <Gold.Protein.RotatedAtoms>
  152.5448  134.1705  159.8594 H   0  0  0  0  0  0  0  0  0  0  0  0  # atno 6907 bound_to 6896
  151.1716  133.4774  159.2601 H   0  0  0  0  0  0  0  0  0  0  0  0  # atno 6908 bound_to 6896
  151.1269  135.0121  159.8620 H   0  0  0  0  0  0  0  0  0  0  0  0  # atno 6909 bound_to 6896
  144.8443  140.5958  143.5431 H   0  0  0  0  0  0  0  0  0  0  0  0  # atno 7974 bound_to 7965
  154.5960  140.2438  155.7856 H   0  0  0  0  0  0  0  0  0  0  0  0  # atno 8008 bound_to 7997
  156.2279  140.2976  156.0067 H   0  0  0  0  0  0  0  0  0  0  0  0  # atno 8009 bound_to 7997
  155.2293  140.0403  157.2950 H   0  0  0  0  0  0  0  0  0  0  0  0  # atno 8010 bound_to 7997
  140.6964  143.3029  151.3231 H   0  0  0  0  0  0  0  0  0  0  0  0  # atno 10167 bound_to 10162
  157.6482  131.0937  150.6638 H   0  0  0  0  0  0  0  0  0  0  0  0  # atno 10718 bound_to 10713
  154.3264  135.2755  155.2494 H   0  0  0  0  0  0  0  0  0  0  0  0  # atno 10763 bound_to 10752
  154.4825  135.5854  153.6403 H   0  0  0  0  0  0  0  0  0  0  0  0  # atno 10764 bound_to 10752
  152.9871  135.6115  154.3452 H   0  0  0  0  0  0  0  0  0  0  0  0  # atno 10765 bound_to 10752
  140.5377  134.0405  155.7894 H   0  0  0  0  0  0  0  0  0  0  0  0  # atno 11005 bound_to 11000
  145.4628  139.1511  143.3857 LP  0  0  0  0  0  0  0  0  0  0  0  0  # atno 17320 bound_to 7965
  146.2731  140.4759  142.8806 LP  0  0  0  0  0  0  0  0  0  0  0  0  # atno 17321 bound_to 7965
  139.6424  144.0514  152.2565 LP  0  0  0  0  0  0  0  0  0  0  0  0  # atno 17342 bound_to 10162
  140.0024  144.6284  150.7718 LP  0  0  0  0  0  0  0  0  0  0  0  0  # atno 17343 bound_to 10162
  156.6952  130.4607  149.5588 LP  0  0  0  0  0  0  0  0  0  0  0  0  # atno 17370 bound_to 10713
  156.1833  130.6513  151.0977 LP  0  0  0  0  0  0  0  0  0  0  0  0  # atno 17371 bound_to 10713
  141.1245  133.9406  157.2663 LP  0  0  0  0  0  0  0  0  0  0  0  0  # atno 17394 bound_to 11000
  139.9520  135.0173  156.9022 LP  0  0  0  0  0  0  0  0  0  0  0  0  # atno 17395 bound_to 11000

$$$$
