AV-unprocessed.smi:2888|AV-procd|sdf|11107|dock4
  -GOLD-   2272015573D 1   1.00000     0.00000
 Structure written by MMmdl.
 34 36  0  0  0  0  0  0  0  0  2 V2000
  151.4472  138.3129  155.3169 C   0  0  0  0  0  0  0  0  0  0  0  0
  150.6101  139.5716  155.2319 C   0  0  0  0  0  0  0  0  0  0  0  0
  149.5030  139.6656  154.3713 C   0  0  0  0  0  0  0  0  0  0  0  0
  148.7976  140.8843  154.3799 C   0  0  0  0  0  0  0  0  0  0  0  0
  147.5888  141.1197  153.4990 C   0  0  0  0  0  0  0  0  0  0  0  0
  149.1966  141.8956  155.1919 N   0  3  0  0  0  0  0  0  0  0  0  0
  150.2673  141.7369  155.9854 C   0  0  0  0  0  0  0  0  0  0  0  0
  150.6339  142.8040  156.7854 N   0  0  0  0  0  0  0  0  0  0  0  0
  151.7691  142.7913  157.6999 C   0  0  1  0  0  0  0  0  0  0  0  0
  152.0738  144.1718  158.2961 C   0  0  0  0  0  0  0  0  0  0  0  0
  151.9933  143.8913  159.8018 C   0  0  2  0  0  0  0  0  0  0  0  0
  153.1528  143.0144  160.2928 C   0  0  0  0  0  0  0  0  0  0  0  0
  152.7725  141.6471  159.7254 C   0  0  0  0  0  0  0  0  0  0  0  0
  151.4781  141.9682  158.9656 C   0  0  1  0  0  0  0  0  0  0  0  0
  150.9295  142.9562  159.8229 O   0  0  0  0  0  0  0  0  0  0  0  0
  150.9779  140.6002  156.0219 N   0  0  0  0  0  0  0  0  0  0  0  0
  151.0285  137.5186  154.6980 H   0  0  0  0  0  0  0  0  0  0  0  0
  151.4918  137.9540  156.3457 H   0  0  0  0  0  0  0  0  0  0  0  0
  152.4640  138.5102  154.9764 H   0  0  0  0  0  0  0  0  0  0  0  0
  149.2079  138.8439  153.7344 H   0  0  0  0  0  0  0  0  0  0  0  0
  147.2974  140.2067  152.9788 H   0  0  0  0  0  0  0  0  0  0  0  0
  147.8090  141.8824  152.7517 H   0  0  0  0  0  0  0  0  0  0  0  0
  146.7405  141.4557  154.0958 H   0  0  0  0  0  0  0  0  0  0  0  0
  150.1671  143.6851  156.6274 H   0  0  0  0  0  0  0  0  0  0  0  0
  152.6364  142.3814  157.1802 H   0  0  0  0  0  0  0  0  0  0  0  0
  153.0503  144.5527  157.9958 H   0  0  0  0  0  0  0  0  0  0  0  0
  151.3220  144.9098  158.0115 H   0  0  0  0  0  0  0  0  0  0  0  0
  151.8223  144.7807  160.4088 H   0  0  0  0  0  0  0  0  0  0  0  0
  154.1199  143.3692  159.9350 H   0  0  0  0  0  0  0  0  0  0  0  0
  153.1822  142.9816  161.3826 H   0  0  0  0  0  0  0  0  0  0  0  0
  153.5436  141.2260  159.0792 H   0  0  0  0  0  0  0  0  0  0  0  0
  152.5801  140.9393  160.5327 H   0  0  0  0  0  0  0  0  0  0  0  0
  150.8404  141.0979  158.8051 H   0  0  0  0  0  0  0  0  0  0  0  0
  148.6772  142.7736  155.1871 H   0  0  0  0  0  0  0  0  0  0  0  0
  1  2  1  0  0  0  0
  1 17  1  0  0  0  0
  1 18  1  0  0  0  0
  1 19  1  0  0  0  0
  2 16  1  0  0  0  0
  2  3  2  0  0  0  0
  3  4  1  0  0  0  0
  3 20  1  0  0  0  0
  4  5  1  0  0  0  0
  4  6  2  0  0  0  0
  5 21  1  0  0  0  0
  5 22  1  0  0  0  0
  5 23  1  0  0  0  0
  6  7  1  0  0  0  0
  6 34  1  0  0  0  0
  7  8  1  0  0  0  0
  7 16  2  0  0  0  0
  8  9  1  0  0  0  0
  8 24  1  0  0  0  0
  9 14  1  0  0  0  0
  9 10  1  0  0  0  0
  9 25  1  0  0  0  0
 10 11  1  0  0  0  0
 10 26  1  0  0  0  0
 10 27  1  0  0  0  0
 11 15  1  0  0  0  0
 11 12  1  0  0  0  0
 11 28  1  0  0  0  0
 12 13  1  0  0  0  0
 12 29  1  0  0  0  0
 12 30  1  0  0  0  0
 13 14  1  0  0  0  0
 13 31  1  0  0  0  0
 13 32  1  0  0  0  0
 14 15  1  0  0  0  0
 14 33  1  0  0  0  0
M  CHG  1   6   1
M  END
> <s_m_source_file>
AV-unprocessed.smi

> <i_m_source_file_index>
2888

> <i_lp_mmshare_version>
43012

> <i_f3d_flags>
0

> <s_epik_input>
W0NIM11jMVtjSF1jKFtDSDNdKW5jKG4xKVtOSF1bQ0BIXShbQ0gyXVtDQEBIXTIzKVtDQEBIXShPMylbQ0gyXVtDSDJdMg==

> <s_epik_cmdline>
J2VwaWtfcHl0aG9uJywgJy1waCcsICc3LjAnLCAnLXRuJywgJzgnLCAnLW1hJywgJzIwMCcsICctbWV0YWxfYmluZGluZycsICctaW1hZScsICc8aW5maWxlLm1hZT4nLCAnLW9tYWUnLCAnPG91dGZpbGUubWFlPic=

> <r_lp_tautomer_probability>
0.505494

> <r_epik_Ionization_Penalty>
2.49163

> <r_epik_Ionization_Penalty_Charging>
2.49163

> <r_epik_Ionization_Penalty_Neutral>
3.7631e-06

> <r_epik_State_Penalty>
2.656

> <r_epik_Charging_Adjusted_Penalty>
5.14762

> <i_epik_Tot_Q>
1

> <i_epik_Tot_abs_Q>
1

> <r_epik_Metal_State_Penalty>
2.66479

> <b_epik_Metal_Only>
0

> <s_lp_Force_Field>
OPLS_2005

> <r_lp_Energy>
35.8908

> <b_lp_Chiralities_Consistent>
1

> <s_lp_Variant>
AV-unprocessed.smi:2888-8

> <Gold.Version>
5.8.1

> <Gold.Id.Protein>
6NUR|6NUR_protein|mol2

> <Gold.PLP.Fitness>
49.4031

> <Gold.PLP.PLP>
-38.5618

> <Gold.PLP.part.hbond>
-3.0000

> <Gold.PLP.part.metal>
0.0000

> <Gold.PLP.part.buried>
-5.7499

> <Gold.PLP.part.nonpolar>
-30.9991

> <Gold.PLP.part.repulsive>
0.2570

> <Gold.PLP.ligand.clash>
0.0000

> <Gold.PLP.ligand.torsion>
0.1330

> <Gold.PLP.Chemscore.Hbond>
3.6960

> <Gold.PLP.Chemscore.CHOScore>
0.0000

> <Gold.PLP.Chemscore.Metal>
0.0000

> <Gold.Chemscore.Hbonds>
donor molecule, donor type, donor heavy atom, donor atom, acceptor molecule, acceptor atom, score
      L1  H     6    34       P1  8028  1.70
      L1  H     8    24       P1  8028  2.00

> <Gold.PLP.Chemscore.Internal.Correction>
0.0193

> <Gold.Rescore>
     Score         DG    S(hbond)    S(metal)    S(lipo)     H(rot)  DE(clash)    DE(int)     intcor
     20.49     -20.81       1.79        0.00     101.65       1.00       0.21       0.11       ----

> <Gold.Chemscore.Fitness>
20.4912

> <Gold.Chemscore.DG>
-20.8079

> <Gold.Chemscore.ZeroCoef>
-5.4800

> <Gold.Chemscore.Hbond>
1.7948

> <Gold.Chemscore.Metal>
0.0000

> <Gold.Chemscore.Lipo>
101.6513

> <Gold.Chemscore.Internal_Hbond>
0.0000

> <Gold.Chemscore.DEClash>
0.2062

> <Gold.Chemscore.DEInternal>
0.1105

> <Gold.Chemscore.Rot>
1.0000

> <Gold.Chemscore.Internal.Correction>
   9.000000E+99

> <Gold.Chemscore.Hbonds>
donor molecule, donor type, donor heavy atom, donor atom, acceptor molecule, acceptor atom, score
      L1  H     6    34       P1  8028  0.80
      L1  H     8    24       P1  8028  0.95

> <Gold.Chemscore.Hbond.Weighted>
-5.9947

> <Gold.Chemscore.Metal.Weighted>
-0.0000

> <Gold.Chemscore.Lipo.Weighted>
-11.8932

> <Gold.Chemscore.Internal_Hbond.Weighted>
0.0000

> <Gold.Chemscore.DEClash.Weighted>
0.2062

> <Gold.Chemscore.DEInternal.Weighted>
0.1105

> <Gold.Chemscore.Rot.Weighted>
2.5600

> <Gold.Chemscore.Internal.Correction.Weighted>
   9.000000E+99

> <Gold.Protein.RotatedTorsions>
[ 6907 6896 6895 6894 ] final -129.66 input  -60.11 | X-H torsion
[ 7974 7965 7964 7962 ] final -144.94 input  175.53 | X-H torsion
[ 8008 7997 7996 7995 ] final -133.24 input   59.86 | X-H torsion
[ 10167 10162 10161 10158 ] final -146.78 input  -65.29 | X-H torsion
[ 10718 10713 10712 10709 ] final -139.04 input   66.30 | X-H torsion
[ 10763 10752 10751 10750 ] final   67.14 input  -60.55 | X-H torsion
[ 11005 11000 10999 10996 ] final -126.09 input  -57.11 | X-H torsion

> <Gold.Protein.ActiveResidues>
 VAL166  LYS551  ARG553  GLY616  TRP617  ASP618  TYR619  PRO620  LYS621  CYS622 
 ASP623  PHE694  ASN695  SER759  ASP760  ASP761  ALA762  ILE779  LEU786  VAL792 
 PHE793  MET794  SER795  GLU796  ALA797  LYS798  CYS799  TRP800  GLU811  SER814 

> <Gold.Protein.RotatedAtoms>
  150.9311  133.6765  159.2810 H   0  0  0  0  0  0  0  0  0  0  0  0  # atno 6907 bound_to 6896
  151.4187  135.0993  159.9617 H   0  0  0  0  0  0  0  0  0  0  0  0  # atno 6908 bound_to 6896
  152.5026  133.8768  159.7381 H   0  0  0  0  0  0  0  0  0  0  0  0  # atno 6909 bound_to 6896
  144.8262  140.5647  143.5545 H   0  0  0  0  0  0  0  0  0  0  0  0  # atno 7974 bound_to 7965
  155.3422  140.0473  157.3045 H   0  0  0  0  0  0  0  0  0  0  0  0  # atno 8008 bound_to 7997
  154.5271  140.2244  155.8835 H   0  0  0  0  0  0  0  0  0  0  0  0  # atno 8009 bound_to 7997
  156.1750  140.3087  155.9049 H   0  0  0  0  0  0  0  0  0  0  0  0  # atno 8010 bound_to 7997
  139.7682  143.8277  152.2620 H   0  0  0  0  0  0  0  0  0  0  0  0  # atno 10167 bound_to 10162
  156.3062  130.7456  151.1521 H   0  0  0  0  0  0  0  0  0  0  0  0  # atno 10718 bound_to 10713
  153.0172  135.5294  154.6934 H   0  0  0  0  0  0  0  0  0  0  0  0  # atno 10763 bound_to 10752
  154.6062  135.2873  155.0484 H   0  0  0  0  0  0  0  0  0  0  0  0  # atno 10764 bound_to 10752
  154.1522  135.6561  153.5018 H   0  0  0  0  0  0  0  0  0  0  0  0  # atno 10765 bound_to 10752
  140.9709  134.0806  157.3870 H   0  0  0  0  0  0  0  0  0  0  0  0  # atno 11005 bound_to 11000
  145.4994  139.1484  143.3665 LP  0  0  0  0  0  0  0  0  0  0  0  0  # atno 17320 bound_to 7965
  146.2567  140.5134  142.8870 LP  0  0  0  0  0  0  0  0  0  0  0  0  # atno 17321 bound_to 7965
  139.8303  144.7256  150.9459 LP  0  0  0  0  0  0  0  0  0  0  0  0  # atno 17342 bound_to 10162
  140.7812  143.4076  151.1046 LP  0  0  0  0  0  0  0  0  0  0  0  0  # atno 17343 bound_to 10162
  157.7380  131.0545  150.5320 LP  0  0  0  0  0  0  0  0  0  0  0  0  # atno 17370 bound_to 10713
  156.5454  130.4218  149.6133 LP  0  0  0  0  0  0  0  0  0  0  0  0  # atno 17371 bound_to 10713
  139.8912  135.0117  156.6778 LP  0  0  0  0  0  0  0  0  0  0  0  0  # atno 17394 bound_to 11000
  140.7330  133.9043  155.8224 LP  0  0  0  0  0  0  0  0  0  0  0  0  # atno 17395 bound_to 11000

$$$$
