AV-unprocessed.smi:284|AV-procd|sdf|2158|dock10
  -GOLD-   2262021513D 1   1.00000     0.00000
 Structure written by MMmdl.
 60 62  0  0  0  0  0  0  0  0  1 V2000
  146.9052  135.9588  162.9186 C   0  0  0  0  0  0  0  0  0  0  0  0
  147.7388  135.1694  161.9216 C   0  0  0  0  0  0  0  0  0  0  0  0
  147.9945  133.8506  162.0830 C   0  0  0  0  0  0  0  0  0  0  0  0
  148.7479  133.1053  161.1955 N   0  0  0  0  0  0  0  0  0  0  0  0
  149.0030  131.6341  161.4213 C   0  0  1  0  0  0  0  0  0  0  0  0
  148.5492  130.8134  160.2191 C   0  0  0  0  0  0  0  0  0  0  0  0
  149.4992  129.6403  160.3123 C   0  0  1  0  0  0  0  0  0  0  0  0
  149.5984  128.9530  159.0811 O   0  0  0  0  0  0  0  0  0  0  0  0
  150.8034  130.2991  160.7985 C   0  0  1  0  0  0  0  0  0  0  0  0
  151.7387  130.8359  159.6949 C   0  0  0  0  0  0  0  0  0  0  0  0
  152.0043  129.8376  158.7315 O   0  0  0  0  0  0  0  0  0  0  0  0
  150.3747  131.4164  161.5812 O   0  0  0  0  0  0  0  0  0  0  0  0
  149.3269  133.7309  160.0739 C   0  0  0  0  0  0  0  0  0  0  0  0
  150.0294  133.0924  159.2865 O   0  0  0  0  0  0  0  0  0  0  0  0
  149.0818  135.1085  159.8772 N   0  0  0  0  0  0  0  0  0  0  0  0
  149.6659  135.7636  158.6853 C   0  0  0  0  0  0  0  0  0  0  0  0
  150.4130  137.0678  159.0051 C   0  0  0  0  0  0  0  0  0  0  0  0
  151.2692  137.0971  159.8902 O   0  0  0  0  0  0  0  0  0  0  0  0
  150.0796  138.1182  158.2333 N   0  0  0  0  0  0  0  0  0  0  0  0
  150.5579  139.4547  158.2981 C   0  0  0  0  0  0  0  0  0  0  0  0
  149.7771  140.4530  157.6843 C   0  0  0  0  0  0  0  0  0  0  0  0
  150.1722  141.8038  157.7294 C   0  0  0  0  0  0  0  0  0  0  0  0
  151.3572  142.1916  158.4019 C   0  0  0  0  0  0  0  0  0  0  0  0
  151.8196  143.6591  158.4807 C   0  0  0  0  0  0  0  0  0  0  0  0
  153.1960  143.7286  159.1743 C   0  0  0  0  0  0  0  0  0  0  0  0
  150.8463  144.5569  159.2778 C   0  0  0  0  0  0  0  0  0  0  0  0
  151.9353  144.2460  157.0582 C   0  0  0  0  0  0  0  0  0  0  0  0
  152.1270  141.1833  159.0288 C   0  0  0  0  0  0  0  0  0  0  0  0
  151.7349  139.8320  158.9842 C   0  0  0  0  0  0  0  0  0  0  0  0
  148.2820  135.8765  160.7590 C   0  0  0  0  0  0  0  0  0  0  0  0
  148.0696  137.0700  160.5366 O   0  0  0  0  0  0  0  0  0  0  0  0
  146.5382  135.3291  163.7297 H   0  0  0  0  0  0  0  0  0  0  0  0
  146.0400  136.4039  162.4257 H   0  0  0  0  0  0  0  0  0  0  0  0
  147.4981  136.7602  163.3607 H   0  0  0  0  0  0  0  0  0  0  0  0
  147.5896  133.3626  162.9564 H   0  0  0  0  0  0  0  0  0  0  0  0
  148.5077  131.3535  162.3526 H   0  0  0  0  0  0  0  0  0  0  0  0
  147.4954  130.5436  160.2949 H   0  0  0  0  0  0  0  0  0  0  0  0
  148.7130  131.3814  159.3016 H   0  0  0  0  0  0  0  0  0  0  0  0
  149.1399  128.9480  161.0754 H   0  0  0  0  0  0  0  0  0  0  0  0
  148.7254  128.7719  158.7670 H   0  0  0  0  0  0  0  0  0  0  0  0
  151.3591  129.6185  161.4451 H   0  0  0  0  0  0  0  0  0  0  0  0
  151.3247  131.7216  159.2124 H   0  0  0  0  0  0  0  0  0  0  0  0
  152.6950  131.1273  160.1304 H   0  0  0  0  0  0  0  0  0  0  0  0
  151.2740  129.2380  158.7114 H   0  0  0  0  0  0  0  0  0  0  0  0
  150.3518  135.0995  158.1577 H   0  0  0  0  0  0  0  0  0  0  0  0
  148.8882  135.9749  157.9492 H   0  0  0  0  0  0  0  0  0  0  0  0
  149.4404  137.9235  157.4763 H   0  0  0  0  0  0  0  0  0  0  0  0
  148.8663  140.1856  157.1684 H   0  0  0  0  0  0  0  0  0  0  0  0
  149.5384  142.5248  157.2374 H   0  0  0  0  0  0  0  0  0  0  0  0
  153.5451  144.7582  159.2609 H   0  0  0  0  0  0  0  0  0  0  0  0
  153.9602  143.1780  158.6258 H   0  0  0  0  0  0  0  0  0  0  0  0
  153.1512  143.3126  160.1815 H   0  0  0  0  0  0  0  0  0  0  0  0
  150.7421  144.2234  160.3111 H   0  0  0  0  0  0  0  0  0  0  0  0
  149.8541  144.5763  158.8253 H   0  0  0  0  0  0  0  0  0  0  0  0
  151.2000  145.5880  159.3127 H   0  0  0  0  0  0  0  0  0  0  0  0
  152.2395  145.2930  157.0846 H   0  0  0  0  0  0  0  0  0  0  0  0
  150.9810  144.1964  156.5327 H   0  0  0  0  0  0  0  0  0  0  0  0
  152.6713  143.7173  156.4525 H   0  0  0  0  0  0  0  0  0  0  0  0
  153.0305  141.4391  159.5619 H   0  0  0  0  0  0  0  0  0  0  0  0
  152.3447  139.1050  159.4980 H   0  0  0  0  0  0  0  0  0  0  0  0
  1  2  1  0  0  0  0
  1 32  1  0  0  0  0
  1 33  1  0  0  0  0
  1 34  1  0  0  0  0
  2 30  1  0  0  0  0
  2  3  2  0  0  0  0
  3  4  1  0  0  0  0
  3 35  1  0  0  0  0
  4  5  1  0  0  0  0
  4 13  1  0  0  0  0
  5 12  1  0  0  0  0
  5  6  1  0  0  0  0
  5 36  1  0  0  0  0
  6  7  1  0  0  0  0
  6 37  1  0  0  0  0
  6 38  1  0  0  0  0
  7  8  1  0  0  0  0
  7  9  1  0  0  0  0
  7 39  1  0  0  0  0
  8 40  1  0  0  0  0
  9 10  1  0  0  0  0
  9 12  1  0  0  0  0
  9 41  1  0  0  0  0
 10 11  1  0  0  0  0
 10 42  1  0  0  0  0
 10 43  1  0  0  0  0
 11 44  1  0  0  0  0
 13 14  2  0  0  0  0
 13 15  1  0  0  0  0
 15 16  1  0  0  0  0
 15 30  1  0  0  0  0
 16 17  1  0  0  0  0
 16 45  1  0  0  0  0
 16 46  1  0  0  0  0
 17 18  2  0  0  0  0
 17 19  1  0  0  0  0
 19 20  1  0  0  0  0
 19 47  1  0  0  0  0
 20 29  1  0  0  0  0
 20 21  2  0  0  0  0
 21 22  1  0  0  0  0
 21 48  1  0  0  0  0
 22 23  2  0  0  0  0
 22 49  1  0  0  0  0
 23 24  1  0  0  0  0
 23 28  1  0  0  0  0
 24 25  1  0  0  0  0
 24 26  1  0  0  0  0
 24 27  1  0  0  0  0
 25 50  1  0  0  0  0
 25 51  1  0  0  0  0
 25 52  1  0  0  0  0
 26 53  1  0  0  0  0
 26 54  1  0  0  0  0
 26 55  1  0  0  0  0
 27 56  1  0  0  0  0
 27 57  1  0  0  0  0
 27 58  1  0  0  0  0
 28 29  2  0  0  0  0
 28 59  1  0  0  0  0
 29 60  1  0  0  0  0
 30 31  2  0  0  0  0
M  END
> <s_m_source_file>
AV-unprocessed.smi

> <i_m_source_file_index>
284

> <i_lp_mmshare_version>
43012

> <i_f3d_flags>
0

> <s_epik_input>
W09IXVtDSDJdW0NAQEhdKE8xKVtDQEhdKFtPSF0pW0NIMl1bQ0BIXTFuKFtjSF1jMltDSDNdKWMoPU8pbihjMj1PKVtDSDJdQyg9TylbTkhdYzNbY0hdW2NIXWMoQyhbQ0gzXSkoW0NIM10pW0NIM10pW2NIXVtjSF0z

> <s_epik_cmdline>
J2VwaWtfcHl0aG9uJywgJy1waCcsICc3LjAnLCAnLXRuJywgJzgnLCAnLW1hJywgJzIwMCcsICctbWV0YWxfYmluZGluZycsICctaW1hZScsICc8aW5maWxlLm1hZT4nLCAnLW9tYWUnLCAnPG91dGZpbGUubWFlPic=

> <r_lp_tautomer_probability>
1

> <r_epik_Ionization_Penalty>
4.92358e-06

> <r_epik_Ionization_Penalty_Charging>
1.29777e-07

> <r_epik_Ionization_Penalty_Neutral>
4.79381e-06

> <r_epik_State_Penalty>
-0

> <r_epik_Charging_Adjusted_Penalty>
1.29777e-07

> <i_epik_Tot_Q>
0

> <i_epik_Tot_abs_Q>
0

> <r_epik_Metal_State_Penalty>
-0

> <b_epik_Metal_Only>
0

> <s_epik_Chemistry_Notes>
This compound contains an acetal/aminal-like group ( X-CH(R)-Y where X, Y are N, S, or O) that may be acid/base labile, releasing an aldehyde.

> <s_lp_Force_Field>
OPLS_2005

> <r_lp_Energy>
41.7726

> <b_lp_Chiralities_Consistent>
1

> <s_lp_Variant>
AV-unprocessed.smi:284-2

> <Gold.Version>
5.8.1

> <Gold.Id.Protein>
6NUR|6NUR_protein|mol2

> <Gold.PLP.Fitness>
54.9025

> <Gold.PLP.PLP>
-45.3304

> <Gold.PLP.part.hbond>
-4.0000

> <Gold.PLP.part.metal>
0.0000

> <Gold.PLP.part.buried>
-3.7339

> <Gold.PLP.part.nonpolar>
-36.8550

> <Gold.PLP.part.repulsive>
0.1451

> <Gold.PLP.ligand.clash>
0.0000

> <Gold.PLP.ligand.torsion>
0.3909

> <Gold.PLP.Chemscore.Hbond>
3.4069

> <Gold.PLP.Chemscore.CHOScore>
0.0000

> <Gold.PLP.Chemscore.Metal>
0.0000

> <Gold.Chemscore.Hbonds>
donor molecule, donor type, donor heavy atom, donor atom, acceptor molecule, acceptor atom, score
      P1  H  6896  6907       L1    18  0.80
      P1  H  6931  6943       L1    31  0.80
      P1  H  6934  6947       L1    31  0.49

> <Gold.PLP.Chemscore.Internal.Correction>
0.1334

> <Gold.Rescore>
     Score         DG    S(hbond)    S(metal)    S(lipo)     H(rot)  DE(clash)    DE(int)     intcor
     16.58     -20.71       2.72        0.00     124.23       3.27       0.19       3.94       ----

> <Gold.Chemscore.Fitness>
16.5819

> <Gold.Chemscore.DG>
-20.7068

> <Gold.Chemscore.ZeroCoef>
-5.4800

> <Gold.Chemscore.Hbond>
2.7160

> <Gold.Chemscore.Metal>
0.0000

> <Gold.Chemscore.Lipo>
124.2333

> <Gold.Chemscore.Internal_Hbond>
0.0000

> <Gold.Chemscore.DEClash>
0.1874

> <Gold.Chemscore.DEInternal>
3.9376

> <Gold.Chemscore.Rot>
3.2735

> <Gold.Chemscore.Internal.Correction>
   9.000000E+99

> <Gold.Chemscore.Hbonds>
donor molecule, donor type, donor heavy atom, donor atom, acceptor molecule, acceptor atom, score
      P1  H  6896  6907       L1    18  0.12
      P1  H  6931  6943       L1    31  0.58
      P1  H  6934  6947       L1    31  0.49

> <Gold.Chemscore.Hbond.Weighted>
-9.0716

> <Gold.Chemscore.Metal.Weighted>
-0.0000

> <Gold.Chemscore.Lipo.Weighted>
-14.5353

> <Gold.Chemscore.Internal_Hbond.Weighted>
0.0000

> <Gold.Chemscore.DEClash.Weighted>
0.1874

> <Gold.Chemscore.DEInternal.Weighted>
3.9376

> <Gold.Chemscore.Rot.Weighted>
8.3801

> <Gold.Chemscore.Internal.Correction.Weighted>
   9.000000E+99

> <Gold.Protein.RotatedTorsions>
[ 6907 6896 6895 6894 ] final   -2.77 input  -60.11 | X-H torsion
[ 7974 7965 7964 7962 ] final  109.46 input  175.53 | X-H torsion
[ 8008 7997 7996 7995 ] final -146.54 input   59.86 | X-H torsion
[ 10167 10162 10161 10158 ] final   90.51 input  -65.29 | X-H torsion
[ 10718 10713 10712 10709 ] final  -46.07 input   66.30 | X-H torsion
[ 10763 10752 10751 10750 ] final -160.99 input  -60.55 | X-H torsion
[ 11005 11000 10999 10996 ] final  120.26 input  -57.11 | X-H torsion

> <Gold.Protein.ActiveResidues>
 VAL166  LYS551  ARG553  GLY616  TRP617  ASP618  TYR619  PRO620  LYS621  CYS622 
 ASP623  PHE694  ASN695  SER759  ASP760  ASP761  ALA762  ILE779  LEU786  VAL792 
 PHE793  MET794  SER795  GLU796  ALA797  LYS798  CYS799  TRP800  GLU811  SER814 

> <Gold.Protein.RotatedAtoms>
  151.5245  135.1067  159.9886 H   0  0  0  0  0  0  0  0  0  0  0  0  # atno 6907 bound_to 6896
  152.4606  133.7810  159.6861 H   0  0  0  0  0  0  0  0  0  0  0  0  # atno 6908 bound_to 6896
  150.8566  133.7641  159.3031 H   0  0  0  0  0  0  0  0  0  0  0  0  # atno 6909 bound_to 6896
  145.2675  139.2679  143.3984 H   0  0  0  0  0  0  0  0  0  0  0  0  # atno 7974 bound_to 7965
  155.5611  140.0625  157.2828 H   0  0  0  0  0  0  0  0  0  0  0  0  # atno 8008 bound_to 7997
  154.4390  140.1885  156.0828 H   0  0  0  0  0  0  0  0  0  0  0  0  # atno 8009 bound_to 7997
  156.0446  140.3291  155.7286 H   0  0  0  0  0  0  0  0  0  0  0  0  # atno 8010 bound_to 7997
  139.8466  144.6614  150.9219 H   0  0  0  0  0  0  0  0  0  0  0  0  # atno 10167 bound_to 10162
  156.2219  130.4167  149.8982 H   0  0  0  0  0  0  0  0  0  0  0  0  # atno 10718 bound_to 10713
  154.7343  135.3053  154.8838 H   0  0  0  0  0  0  0  0  0  0  0  0  # atno 10763 bound_to 10752
  153.9672  135.6746  153.4750 H   0  0  0  0  0  0  0  0  0  0  0  0  # atno 10764 bound_to 10752
  153.0947  135.4941  154.8679 H   0  0  0  0  0  0  0  0  0  0  0  0  # atno 10765 bound_to 10752
  139.9178  134.9633  156.7780 H   0  0  0  0  0  0  0  0  0  0  0  0  # atno 11005 bound_to 11000
  146.3256  140.3109  142.8626 LP  0  0  0  0  0  0  0  0  0  0  0  0  # atno 17320 bound_to 7965
  144.9364  140.8031  143.5657 LP  0  0  0  0  0  0  0  0  0  0  0  0  # atno 17321 bound_to 7965
  140.7792  143.3864  151.1386 LP  0  0  0  0  0  0  0  0  0  0  0  0  # atno 17342 bound_to 10162
  139.7506  143.8784  152.3075 LP  0  0  0  0  0  0  0  0  0  0  0  0  # atno 17343 bound_to 10162
  156.6625  130.8788  151.3549 LP  0  0  0  0  0  0  0  0  0  0  0  0  # atno 17370 bound_to 10713
  157.7092  130.9420  150.1031 LP  0  0  0  0  0  0  0  0  0  0  0  0  # atno 17371 bound_to 10713
  140.6567  133.9682  155.7783 LP  0  0  0  0  0  0  0  0  0  0  0  0  # atno 17394 bound_to 11000
  141.0671  134.0260  157.3578 LP  0  0  0  0  0  0  0  0  0  0  0  0  # atno 17395 bound_to 11000

$$$$
