AV-unprocessed.smi:1761|AV-procd|sdf|7097|dock1
  -GOLD-   22720 8313D 1   1.00000     0.00000
 Structure written by MMmdl.
 34 35  0  0  0  0  0  0  0  0  1 V2000
  144.8468  136.9473  152.8795 O   0  0  0  0  0  0  0  0  0  0  0  0
  145.9709  136.7396  152.4220 C   0  0  0  0  0  0  0  0  0  0  0  0
  146.3298  135.6667  151.6950 N   0  0  0  0  0  0  0  0  0  0  0  0
  145.5332  134.5511  151.3219 C   0  0  0  0  0  0  0  0  0  0  0  0
  146.2515  133.4490  150.8052 C   0  0  0  0  0  0  0  0  0  0  0  0
  145.5544  132.2906  150.4106 C   0  0  0  0  0  0  0  0  0  0  0  0
  144.1548  132.2634  150.5436 C   0  0  0  0  0  0  0  0  0  0  0  0
  143.5165  133.4031  151.0662 C   0  0  0  0  0  0  0  0  0  0  0  0
  144.1826  134.5146  151.4446 N   0  0  0  0  0  0  0  0  0  0  0  0
  147.0056  137.5749  152.5965 N   0  0  0  0  0  0  0  0  0  0  0  0
  146.9622  138.8300  153.3446 C   0  0  2  0  0  0  0  0  0  0  0  0
  146.8935  140.0295  152.3793 C   0  0  0  0  0  0  0  0  0  0  0  0
  146.8391  141.3602  153.1476 C   0  0  0  0  0  0  0  0  0  0  0  0
  148.0273  141.4993  154.1124 C   0  0  0  0  0  0  0  0  0  0  0  0
  148.1159  140.3015  155.0756 C   0  0  0  0  0  0  0  0  0  0  0  0
  148.1517  138.9538  154.3290 C   0  0  2  0  0  0  0  0  0  0  0  0
  149.3867  138.8378  153.6457 O   0  0  0  0  0  0  0  0  0  0  0  0
  147.2881  135.6397  151.3800 H   0  0  0  0  0  0  0  0  0  0  0  0
  147.3271  133.4858  150.7115 H   0  0  0  0  0  0  0  0  0  0  0  0
  146.0855  131.4378  150.0144 H   0  0  0  0  0  0  0  0  0  0  0  0
  143.5859  131.3927  150.2528 H   0  0  0  0  0  0  0  0  0  0  0  0
  142.4432  133.4235  151.1844 H   0  0  0  0  0  0  0  0  0  0  0  0
  147.8931  137.3252  152.1856 H   0  0  0  0  0  0  0  0  0  0  0  0
  146.0402  138.8376  153.9294 H   0  0  0  0  0  0  0  0  0  0  0  0
  147.7592  140.0270  151.7157 H   0  0  0  0  0  0  0  0  0  0  0  0
  146.0149  139.9436  151.7391 H   0  0  0  0  0  0  0  0  0  0  0  0
  146.8323  142.1941  152.4453 H   0  0  0  0  0  0  0  0  0  0  0  0
  145.9053  141.4203  153.7080 H   0  0  0  0  0  0  0  0  0  0  0  0
  148.9529  141.5808  153.5411 H   0  0  0  0  0  0  0  0  0  0  0  0
  147.9364  142.4250  154.6811 H   0  0  0  0  0  0  0  0  0  0  0  0
  148.9923  140.4012  155.7175 H   0  0  0  0  0  0  0  0  0  0  0  0
  147.2506  140.3164  155.7395 H   0  0  0  0  0  0  0  0  0  0  0  0
  148.1093  138.1463  155.0608 H   0  0  0  0  0  0  0  0  0  0  0  0
  149.2842  139.2068  152.7820 H   0  0  0  0  0  0  0  0  0  0  0  0
  1  2  2  0  0  0  0
  2  3  1  0  0  0  0
  2 10  1  0  0  0  0
  3  4  1  0  0  0  0
  3 18  1  0  0  0  0
  4  9  1  0  0  0  0
  4  5  2  0  0  0  0
  5  6  1  0  0  0  0
  5 19  1  0  0  0  0
  6  7  2  0  0  0  0
  6 20  1  0  0  0  0
  7  8  1  0  0  0  0
  7 21  1  0  0  0  0
  8  9  2  0  0  0  0
  8 22  1  0  0  0  0
 10 11  1  0  0  0  0
 10 23  1  0  0  0  0
 11 16  1  0  0  0  0
 11 12  1  0  0  0  0
 11 24  1  0  0  0  0
 12 13  1  0  0  0  0
 12 25  1  0  0  0  0
 12 26  1  0  0  0  0
 13 14  1  0  0  0  0
 13 27  1  0  0  0  0
 13 28  1  0  0  0  0
 14 15  1  0  0  0  0
 14 29  1  0  0  0  0
 14 30  1  0  0  0  0
 15 16  1  0  0  0  0
 15 31  1  0  0  0  0
 15 32  1  0  0  0  0
 16 17  1  0  0  0  0
 16 33  1  0  0  0  0
 17 34  1  0  0  0  0
M  END
> <s_m_source_file>
AV-unprocessed.smi

> <i_m_source_file_index>
1761

> <i_lp_mmshare_version>
43012

> <i_f3d_flags>
0

> <s_epik_input>
bjFbY0hdW2NIXVtjSF1bY0hdYzFbTkhdQyg9TylbTkhdW0NAQEhdMltDSDJdW0NIMl1bQ0gyXVtDSDJdW0NASF0yW09IXQ==

> <s_epik_cmdline>
J2VwaWtfcHl0aG9uJywgJy1waCcsICc3LjAnLCAnLXRuJywgJzgnLCAnLW1hJywgJzIwMCcsICctbWV0YWxfYmluZGluZycsICctaW1hZScsICc8aW5maWxlLm1hZT4nLCAnLW9tYWUnLCAnPG91dGZpbGUubWFlPic=

> <r_lp_tautomer_probability>
1

> <r_epik_Ionization_Penalty>
4.92589e-05

> <r_epik_Ionization_Penalty_Charging>
0

> <r_epik_Ionization_Penalty_Neutral>
4.92589e-05

> <r_epik_State_Penalty>
-0

> <r_epik_Charging_Adjusted_Penalty>
0

> <i_epik_Tot_Q>
0

> <i_epik_Tot_abs_Q>
0

> <r_epik_Metal_State_Penalty>
-0

> <b_epik_Metal_Only>
0

> <s_lp_Force_Field>
OPLS_2005

> <r_lp_Energy>
15.389

> <b_lp_Chiralities_Consistent>
1

> <s_lp_Variant>
AV-unprocessed.smi:1761-3

> <Gold.Version>
5.8.1

> <Gold.Id.Protein>
6NUR|6NUR_protein|mol2

> <Gold.PLP.Fitness>
38.2755

> <Gold.PLP.PLP>
-27.8785

> <Gold.PLP.part.hbond>
-3.3752

> <Gold.PLP.part.metal>
0.0000

> <Gold.PLP.part.buried>
-2.4630

> <Gold.PLP.part.nonpolar>
-23.1716

> <Gold.PLP.part.repulsive>
0.4457

> <Gold.PLP.ligand.clash>
0.0000

> <Gold.PLP.ligand.torsion>
0.2221

> <Gold.PLP.Chemscore.Hbond>
2.8080

> <Gold.PLP.Chemscore.CHOScore>
0.8012

> <Gold.PLP.Chemscore.Metal>
0.0000

> <Gold.Chemscore.Hbonds>
donor molecule, donor type, donor heavy atom, donor atom, acceptor molecule, acceptor atom, score
      L1  H     3    18       P1  7948  0.85
      L1  H    10    23       P1  7948  1.00
      L1  H    17    34       P1  7957  1.00
      L1  C     8    22       P1 10186  0.86

> <Gold.PLP.Chemscore.Internal.Correction>
0.0135

> <Gold.Rescore>
     Score         DG    S(hbond)    S(metal)    S(lipo)     H(rot)  DE(clash)    DE(int)     intcor
     17.70     -19.26       2.80        0.00      69.82       1.47       0.13       1.43       ----

> <Gold.Chemscore.Fitness>
17.6996

> <Gold.Chemscore.DG>
-19.2565

> <Gold.Chemscore.ZeroCoef>
-5.4800

> <Gold.Chemscore.Hbond>
2.8019

> <Gold.Chemscore.Metal>
0.0000

> <Gold.Chemscore.Lipo>
69.8229

> <Gold.Chemscore.Internal_Hbond>
0.0000

> <Gold.Chemscore.DEClash>
0.1256

> <Gold.Chemscore.DEInternal>
1.4313

> <Gold.Chemscore.Rot>
1.4653

> <Gold.Chemscore.Internal.Correction>
   9.000000E+99

> <Gold.Chemscore.Hbonds>
donor molecule, donor type, donor heavy atom, donor atom, acceptor molecule, acceptor atom, score
      L1  H     3    18       P1  7948  0.82
      L1  H    10    23       P1  7948  0.89
      L1  H    17    34       P1  7957  1.00

> <Gold.Chemscore.Hbond.Weighted>
-9.3583

> <Gold.Chemscore.Metal.Weighted>
-0.0000

> <Gold.Chemscore.Lipo.Weighted>
-8.1693

> <Gold.Chemscore.Internal_Hbond.Weighted>
0.0000

> <Gold.Chemscore.DEClash.Weighted>
0.1256

> <Gold.Chemscore.DEInternal.Weighted>
1.4313

> <Gold.Chemscore.Rot.Weighted>
3.7511

> <Gold.Chemscore.Internal.Correction.Weighted>
   9.000000E+99

> <Gold.Protein.RotatedTorsions>
[ 6907 6896 6895 6894 ] final   83.88 input  -60.11 | X-H torsion
[ 7974 7965 7964 7962 ] final  116.23 input  175.53 | X-H torsion
[ 8008 7997 7996 7995 ] final  138.23 input   59.86 | X-H torsion
[ 10167 10162 10161 10158 ] final  106.39 input  -65.29 | X-H torsion
[ 10718 10713 10712 10709 ] final   72.36 input   66.30 | X-H torsion
[ 10763 10752 10751 10750 ] final  106.17 input  -60.55 | X-H torsion
[ 11005 11000 10999 10996 ] final -135.17 input  -57.11 | X-H torsion

> <Gold.Protein.ActiveResidues>
 VAL166  LYS551  ARG553  GLY616  TRP617  ASP618  TYR619  PRO620  LYS621  CYS622 
 ASP623  PHE694  ASN695  SER759  ASP760  ASP761  ALA762  ILE779  LEU786  VAL792 
 PHE793  MET794  SER795  GLU796  ALA797  LYS798  CYS799  TRP800  GLU811  SER814 

> <Gold.Protein.RotatedAtoms>
  152.5338  134.2827  159.9013 H   0  0  0  0  0  0  0  0  0  0  0  0  # atno 6907 bound_to 6896
  151.2781  133.4216  159.2633 H   0  0  0  0  0  0  0  0  0  0  0  0  # atno 6908 bound_to 6896
  151.0308  134.9553  159.8166 H   0  0  0  0  0  0  0  0  0  0  0  0  # atno 6909 bound_to 6896
  145.1821  139.3044  143.4412 H   0  0  0  0  0  0  0  0  0  0  0  0  # atno 7974 bound_to 7965
  156.2998  140.2399  156.4039 H   0  0  0  0  0  0  0  0  0  0  0  0  # atno 8008 bound_to 7997
  154.8502  140.0424  157.1619 H   0  0  0  0  0  0  0  0  0  0  0  0  # atno 8009 bound_to 7997
  154.9007  140.2976  155.5323 H   0  0  0  0  0  0  0  0  0  0  0  0  # atno 8010 bound_to 7997
  139.7013  144.7093  151.1181 H   0  0  0  0  0  0  0  0  0  0  0  0  # atno 10167 bound_to 10162
  157.6497  130.9575  150.0918 H   0  0  0  0  0  0  0  0  0  0  0  0  # atno 10718 bound_to 10713
  153.3894  135.3885  155.1912 H   0  0  0  0  0  0  0  0  0  0  0  0  # atno 10763 bound_to 10752
  154.8717  135.3744  154.4757 H   0  0  0  0  0  0  0  0  0  0  0  0  # atno 10764 bound_to 10752
  153.5242  135.7086  153.5777 H   0  0  0  0  0  0  0  0  0  0  0  0  # atno 10765 bound_to 10752
  140.8922  134.1797  157.4519 H   0  0  0  0  0  0  0  0  0  0  0  0  # atno 11005 bound_to 11000
  146.3451  140.2005  142.8589 LP  0  0  0  0  0  0  0  0  0  0  0  0  # atno 17320 bound_to 7965
  145.0125  140.8726  143.5215 LP  0  0  0  0  0  0  0  0  0  0  0  0  # atno 17321 bound_to 7965
  140.7710  143.5420  150.9302 LP  0  0  0  0  0  0  0  0  0  0  0  0  # atno 17342 bound_to 10162
  139.9102  143.6730  152.3116 LP  0  0  0  0  0  0  0  0  0  0  0  0  # atno 17343 bound_to 10162
  156.1865  130.3652  149.8966 LP  0  0  0  0  0  0  0  0  0  0  0  0  # atno 17370 bound_to 10713
  156.6905  130.8894  151.3587 LP  0  0  0  0  0  0  0  0  0  0  0  0  # atno 17371 bound_to 10713
  139.8731  134.9863  156.5320 LP  0  0  0  0  0  0  0  0  0  0  0  0  # atno 17394 bound_to 11000
  140.8332  133.8262  155.9004 LP  0  0  0  0  0  0  0  0  0  0  0  0  # atno 17395 bound_to 11000

$$$$
