AV-unprocessed.smi:24|AV-procd|sdf|175|dock4
  -GOLD-   2262015433D 1   1.00000     0.00000
 Structure written by MMmdl.
 61 65  0  0  0  0  0  0  0  0  1 V2000
  153.5805  133.3285  164.9607 C   0  0  0  0  0  0  0  0  0  0  0  0
  154.8831  133.8896  165.0317 O   0  0  0  0  0  0  0  0  0  0  0  0
  155.1296  135.0468  164.3245 C   0  0  0  0  0  0  0  0  0  0  0  0
  156.4446  135.2449  163.8567 C   0  0  0  0  0  0  0  0  0  0  0  0
  156.7844  136.3998  163.1274 C   0  0  0  0  0  0  0  0  0  0  0  0
  155.8089  137.3841  162.8568 C   0  0  0  0  0  0  0  0  0  0  0  0
  156.1534  138.6436  162.0637 C   0  0  2  0  0  0  0  0  0  0  0  0
  155.3965  139.8707  162.5786 C   0  0  0  0  0  0  0  0  0  0  0  0
  154.6667  140.3105  161.3538 C   0  0  0  0  0  0  0  0  0  0  0  0
  153.7565  141.4776  161.3679 C   0  0  0  0  0  0  0  0  0  0  0  0
  153.7075  142.3059  162.5124 C   0  0  0  0  0  0  0  0  0  0  0  0
  152.8465  143.4208  162.5246 C   0  0  0  0  0  0  0  0  0  0  0  0
  152.0410  143.7053  161.4041 C   0  0  0  0  0  0  0  0  0  0  0  0
  152.0923  142.8755  160.2662 C   0  0  0  0  0  0  0  0  0  0  0  0
  152.9493  141.7577  160.2419 C   0  0  0  0  0  0  0  0  0  0  0  0
  154.9030  139.5868  160.3224 N   0  0  0  0  0  0  0  0  0  0  0  0
  155.7732  138.5972  160.6455 N   0  0  0  0  0  0  0  0  0  0  0  0
  156.2895  137.7365  159.7399 C   0  0  0  0  0  0  0  0  0  0  0  0
  157.1715  136.9292  160.0391 O   0  0  0  0  0  0  0  0  0  0  0  0
  155.7551  137.7864  158.2927 C   0  0  0  0  0  0  0  0  0  0  0  0
  156.4511  136.8552  157.3771 N   0  0  0  0  0  0  0  0  0  0  0  0
  156.4704  135.4760  157.7029 C   0  0  0  0  0  0  0  0  0  0  0  0
  155.9124  135.0515  158.7160 O   0  0  0  0  0  0  0  0  0  0  0  0
  157.1934  134.6185  156.7709 C   0  0  0  0  0  0  0  0  0  0  0  0
  157.2612  133.2958  156.9988 F   0  0  0  0  0  0  0  0  0  0  0  0
  157.7989  135.1319  155.6803 C   0  0  0  0  0  0  0  0  0  0  0  0
  157.7752  136.4814  155.3763 N   0  0  0  0  0  0  0  0  0  0  0  0
  158.4676  137.0416  154.1520 C   0  0  2  0  0  0  0  0  0  0  0  0
  157.4471  137.7068  153.2100 C   0  0  0  0  0  0  0  0  0  0  0  0
  157.7767  137.0829  151.8687 C   0  0  0  0  0  0  0  0  0  0  0  0
  158.2986  135.7144  152.2798 C   0  0  0  0  0  0  0  0  0  0  0  0
  159.0765  136.0059  153.4336 O   0  0  0  0  0  0  0  0  0  0  0  0
  157.0995  137.3778  156.2329 C   0  0  0  0  0  0  0  0  0  0  0  0
  157.0805  138.5860  155.9873 O   0  0  0  0  0  0  0  0  0  0  0  0
  154.4902  137.1882  163.3138 C   0  0  0  0  0  0  0  0  0  0  0  0
  154.1506  136.0325  164.0434 C   0  0  0  0  0  0  0  0  0  0  0  0
  153.5434  132.4258  165.5704 H   0  0  0  0  0  0  0  0  0  0  0  0
  153.3227  133.0467  163.9389 H   0  0  0  0  0  0  0  0  0  0  0  0
  152.8284  134.0179  165.3463 H   0  0  0  0  0  0  0  0  0  0  0  0
  157.2028  134.5027  164.0593 H   0  0  0  0  0  0  0  0  0  0  0  0
  157.7987  136.5244  162.7771 H   0  0  0  0  0  0  0  0  0  0  0  0
  157.2283  138.8252  162.1249 H   0  0  0  0  0  0  0  0  0  0  0  0
  154.6997  139.6220  163.3805 H   0  0  0  0  0  0  0  0  0  0  0  0
  156.0794  140.6432  162.9340 H   0  0  0  0  0  0  0  0  0  0  0  0
  154.3177  142.1048  163.3811 H   0  0  0  0  0  0  0  0  0  0  0  0
  152.8048  144.0592  163.3949 H   0  0  0  0  0  0  0  0  0  0  0  0
  151.3823  144.5612  161.4171 H   0  0  0  0  0  0  0  0  0  0  0  0
  151.4726  143.0974  159.4098 H   0  0  0  0  0  0  0  0  0  0  0  0
  152.9702  141.1379  159.3579 H   0  0  0  0  0  0  0  0  0  0  0  0
  154.6852  137.5711  158.2971 H   0  0  0  0  0  0  0  0  0  0  0  0
  155.8189  138.8158  157.9372 H   0  0  0  0  0  0  0  0  0  0  0  0
  158.3202  134.4434  155.0334 H   0  0  0  0  0  0  0  0  0  0  0  0
  159.2377  137.7181  154.5274 H   0  0  0  0  0  0  0  0  0  0  0  0
  156.4305  137.4467  153.5102 H   0  0  0  0  0  0  0  0  0  0  0  0
  157.5534  138.7920  153.2194 H   0  0  0  0  0  0  0  0  0  0  0  0
  156.9184  137.0293  151.1986 H   0  0  0  0  0  0  0  0  0  0  0  0
  158.5657  137.6504  151.3735 H   0  0  0  0  0  0  0  0  0  0  0  0
  157.4754  135.0473  152.5387 H   0  0  0  0  0  0  0  0  0  0  0  0
  158.8966  135.2385  151.5024 H   0  0  0  0  0  0  0  0  0  0  0  0
  153.7305  137.9283  163.1087 H   0  0  0  0  0  0  0  0  0  0  0  0
  153.1296  135.9259  164.3767 H   0  0  0  0  0  0  0  0  0  0  0  0
  1  2  1  0  0  0  0
  1 37  1  0  0  0  0
  1 38  1  0  0  0  0
  1 39  1  0  0  0  0
  2  3  1  0  0  0  0
  3 36  1  0  0  0  0
  3  4  2  0  0  0  0
  4  5  1  0  0  0  0
  4 40  1  0  0  0  0
  5  6  2  0  0  0  0
  5 41  1  0  0  0  0
  6  7  1  0  0  0  0
  6 35  1  0  0  0  0
  7 17  1  0  0  0  0
  7  8  1  0  0  0  0
  7 42  1  0  0  0  0
  8  9  1  0  0  0  0
  8 43  1  0  0  0  0
  8 44  1  0  0  0  0
  9 10  1  0  0  0  0
  9 16  2  0  0  0  0
 10 15  1  0  0  0  0
 10 11  2  0  0  0  0
 11 12  1  0  0  0  0
 11 45  1  0  0  0  0
 12 13  2  0  0  0  0
 12 46  1  0  0  0  0
 13 14  1  0  0  0  0
 13 47  1  0  0  0  0
 14 15  2  0  0  0  0
 14 48  1  0  0  0  0
 15 49  1  0  0  0  0
 16 17  1  0  0  0  0
 17 18  1  0  0  0  0
 18 19  2  0  0  0  0
 18 20  1  0  0  0  0
 20 21  1  0  0  0  0
 20 50  1  0  0  0  0
 20 51  1  0  0  0  0
 21 33  1  0  0  0  0
 21 22  1  0  0  0  0
 22 23  2  0  0  0  0
 22 24  1  0  0  0  0
 24 25  1  0  0  0  0
 24 26  2  0  0  0  0
 26 27  1  0  0  0  0
 26 52  1  0  0  0  0
 27 28  1  0  0  0  0
 27 33  1  0  0  0  0
 28 32  1  0  0  0  0
 28 29  1  0  0  0  0
 28 53  1  0  0  0  0
 29 30  1  0  0  0  0
 29 54  1  0  0  0  0
 29 55  1  0  0  0  0
 30 31  1  0  0  0  0
 30 56  1  0  0  0  0
 30 57  1  0  0  0  0
 31 32  1  0  0  0  0
 31 58  1  0  0  0  0
 31 59  1  0  0  0  0
 33 34  2  0  0  0  0
 35 36  2  0  0  0  0
 35 60  1  0  0  0  0
 36 61  1  0  0  0  0
M  END
> <s_m_source_file>
AV-unprocessed.smi

> <i_m_source_file_index>
24

> <i_lp_mmshare_version>
43012

> <i_f3d_flags>
0

> <s_epik_input>
W0NIM11PYzFbY0hdW2NIXWMoW2NIXVtjSF0xKVtDQEBIXTJbQ0gyXUMoYzNbY0hdW2NIXVtjSF1bY0hdW2NIXTMpPU5OMkMoPU8pW0NIMl1uNGMoPU8pYyhGKVtjSF1uKGM0PU8pW0NAQEhdNVtDSDJdW0NIMl1bQ0gyXU81

> <s_epik_cmdline>
J2VwaWtfcHl0aG9uJywgJy1waCcsICc3LjAnLCAnLXRuJywgJzgnLCAnLW1hJywgJzIwMCcsICctbWV0YWxfYmluZGluZycsICctaW1hZScsICc8aW5maWxlLm1hZT4nLCAnLW9tYWUnLCAnPG91dGZpbGUubWFlPic=

> <r_lp_tautomer_probability>
1

> <r_epik_Ionization_Penalty>
1.46326e-08

> <r_epik_Ionization_Penalty_Charging>
4.53232e-09

> <r_epik_Ionization_Penalty_Neutral>
1.01002e-08

> <r_epik_State_Penalty>
-0

> <r_epik_Charging_Adjusted_Penalty>
4.53232e-09

> <i_epik_Tot_Q>
0

> <i_epik_Tot_abs_Q>
0

> <r_epik_Metal_State_Penalty>
-0

> <b_epik_Metal_Only>
0

> <s_epik_Chemistry_Notes>
This compound has an imine and may undergo hydrolysis. This compound contains an acetal/aminal-like group ( X-CH(R)-Y where X, Y are N, S, or O) that may be acid/base labile, releasing an aldehyde.

> <s_lp_Force_Field>
OPLS_2005

> <r_lp_Energy>
50.6154

> <b_lp_Chiralities_Consistent>
1

> <s_lp_Variant>
AV-unprocessed.smi:24-1

> <Gold.Version>
5.8.1

> <Gold.Id.Protein>
6NUR|6NUR_protein|mol2

> <Gold.PLP.Fitness>
58.0576

> <Gold.PLP.PLP>
-58.2305

> <Gold.PLP.part.hbond>
-1.0000

> <Gold.PLP.part.metal>
0.0000

> <Gold.PLP.part.buried>
-5.7414

> <Gold.PLP.part.nonpolar>
-50.9049

> <Gold.PLP.part.repulsive>
0.3322

> <Gold.PLP.ligand.clash>
0.0000

> <Gold.PLP.ligand.torsion>
1.0555

> <Gold.PLP.Chemscore.Hbond>
0.6240

> <Gold.PLP.Chemscore.CHOScore>
0.0000

> <Gold.PLP.Chemscore.Metal>
0.0000

> <Gold.Chemscore.Hbonds>
donor molecule, donor type, donor heavy atom, donor atom, acceptor molecule, acceptor atom, score
      P1  H  7997  8009       L1    34  0.58

> <Gold.PLP.Chemscore.Internal.Correction>
0.0661

> <Gold.Rescore>
     Score         DG    S(hbond)    S(metal)    S(lipo)     H(rot)  DE(clash)    DE(int)     intcor
     15.99     -22.21       0.64        0.00     167.96       1.98       0.24       5.98       ----

> <Gold.Chemscore.Fitness>
15.9901

> <Gold.Chemscore.DG>
-22.2093

> <Gold.Chemscore.ZeroCoef>
-5.4800

> <Gold.Chemscore.Hbond>
0.6388

> <Gold.Chemscore.Metal>
0.0000

> <Gold.Chemscore.Lipo>
167.9626

> <Gold.Chemscore.Internal_Hbond>
0.0000

> <Gold.Chemscore.DEClash>
0.2431

> <Gold.Chemscore.DEInternal>
5.9761

> <Gold.Chemscore.Rot>
1.9750

> <Gold.Chemscore.Internal.Correction>
   9.000000E+99

> <Gold.Chemscore.Hbonds>
donor molecule, donor type, donor heavy atom, donor atom, acceptor molecule, acceptor atom, score
      P1  H  7997  8009       L1    34  0.58

> <Gold.Chemscore.Hbond.Weighted>
-2.1337

> <Gold.Chemscore.Metal.Weighted>
-0.0000

> <Gold.Chemscore.Lipo.Weighted>
-19.6516

> <Gold.Chemscore.Internal_Hbond.Weighted>
0.0000

> <Gold.Chemscore.DEClash.Weighted>
0.2431

> <Gold.Chemscore.DEInternal.Weighted>
5.9761

> <Gold.Chemscore.Rot.Weighted>
5.0561

> <Gold.Chemscore.Internal.Correction.Weighted>
   9.000000E+99

> <Gold.Protein.RotatedTorsions>
[ 6907 6896 6895 6894 ] final   88.72 input  -60.11 | X-H torsion
[ 7974 7965 7964 7962 ] final   10.99 input  175.53 | X-H torsion
[ 8008 7997 7996 7995 ] final   -1.71 input   59.86 | X-H torsion
[ 10167 10162 10161 10158 ] final  -78.86 input  -65.29 | X-H torsion
[ 10718 10713 10712 10709 ] final  108.95 input   66.30 | X-H torsion
[ 10763 10752 10751 10750 ] final  109.55 input  -60.55 | X-H torsion
[ 11005 11000 10999 10996 ] final  -55.72 input  -57.11 | X-H torsion

> <Gold.Protein.ActiveResidues>
 VAL166  LYS551  ARG553  GLY616  TRP617  ASP618  TYR619  PRO620  LYS621  CYS622 
 ASP623  PHE694  ASN695  SER759  ASP760  ASP761  ALA762  ILE779  LEU786  VAL792 
 PHE793  MET794  SER795  GLU796  ALA797  LYS798  CYS799  TRP800  GLU811  SER814 

> <Gold.Protein.RotatedAtoms>
  152.5428  134.2078  159.8737 H   0  0  0  0  0  0  0  0  0  0  0  0  # atno 6907 bound_to 6896
  151.2062  133.4575  159.2605 H   0  0  0  0  0  0  0  0  0  0  0  0  # atno 6908 bound_to 6896
  151.0941  134.9946  159.8472 H   0  0  0  0  0  0  0  0  0  0  0  0  # atno 6909 bound_to 6896
  146.2379  139.9551  142.8465 H   0  0  0  0  0  0  0  0  0  0  0  0  # atno 7974 bound_to 7965
  154.6437  140.2552  155.7292 H   0  0  0  0  0  0  0  0  0  0  0  0  # atno 8008 bound_to 7997
  156.2541  140.2882  156.0762 H   0  0  0  0  0  0  0  0  0  0  0  0  # atno 8009 bound_to 7997
  155.1557  140.0383  157.2821 H   0  0  0  0  0  0  0  0  0  0  0  0  # atno 8010 bound_to 7997
  140.4645  143.2444  151.8299 H   0  0  0  0  0  0  0  0  0  0  0  0  # atno 10167 bound_to 10162
  157.6563  131.0904  150.6381 H   0  0  0  0  0  0  0  0  0  0  0  0  # atno 10718 bound_to 10713
  153.4364  135.3776  155.2201 H   0  0  0  0  0  0  0  0  0  0  0  0  # atno 10763 bound_to 10752
  154.8752  135.3852  154.4206 H   0  0  0  0  0  0  0  0  0  0  0  0  # atno 10764 bound_to 10752
  153.4745  135.7087  153.6037 H   0  0  0  0  0  0  0  0  0  0  0  0  # atno 10765 bound_to 10752
  141.1087  133.6611  156.4512 H   0  0  0  0  0  0  0  0  0  0  0  0  # atno 11005 bound_to 11000
  145.1824  140.9773  143.4258 LP  0  0  0  0  0  0  0  0  0  0  0  0  # atno 17320 bound_to 7965
  144.9930  139.3671  143.6205 LP  0  0  0  0  0  0  0  0  0  0  0  0  # atno 17321 bound_to 7965
  139.4810  144.4967  151.9114 LP  0  0  0  0  0  0  0  0  0  0  0  0  # atno 17342 bound_to 10162
  140.4053  144.2440  150.5891 LP  0  0  0  0  0  0  0  0  0  0  0  0  # atno 17343 bound_to 10162
  156.6687  130.4533  149.5664 LP  0  0  0  0  0  0  0  0  0  0  0  0  # atno 17370 bound_to 10713
  156.2013  130.6621  151.1170 LP  0  0  0  0  0  0  0  0  0  0  0  0  # atno 17371 bound_to 10713
  140.4834  134.6643  157.5180 LP  0  0  0  0  0  0  0  0  0  0  0  0  # atno 17394 bound_to 11000
  139.9969  134.6896  155.9594 LP  0  0  0  0  0  0  0  0  0  0  0  0  # atno 17395 bound_to 11000

$$$$
