AV-unprocessed.smi:769|AV-procd|sdf|3675|dock7
  -GOLD-   22720 1 83D 1   1.00000     0.00000
 Structure written by MMmdl.
 50 52  0  0  0  0  0  0  0  0  2 V2000
  144.5642  136.5079  152.3347 O   0  0  0  0  0  0  0  0  0  0  0  0
  145.7665  136.3445  152.1284 C   0  0  0  0  0  0  0  0  0  0  0  0
  146.7018  137.2248  152.5139 N   0  0  0  0  0  0  0  0  0  0  0  0
  146.4323  138.4608  153.2398 C   0  0  0  0  0  0  0  0  0  0  0  0
  147.1866  138.5072  154.5832 C   0  0  0  0  0  0  0  0  0  0  0  0
  148.4221  139.3271  154.5146 N   0  3  0  0  0  0  0  0  0  0  0  0
  148.2190  140.6919  155.0730 C   0  0  0  0  0  0  0  0  0  0  0  0
  149.5067  141.5335  155.0005 C   0  0  0  0  0  0  0  0  0  0  0  0
  150.5843  140.8092  155.6800 N   0  0  0  0  0  0  0  0  0  0  0  0
  151.1459  141.2391  156.8363 C   0  0  0  0  0  0  0  0  0  0  0  0
  151.9808  140.5675  157.4436 O   0  0  0  0  0  0  0  0  0  0  0  0
  150.7610  142.6313  157.3822 C   0  0  0  0  0  0  0  0  0  0  0  0
  151.7790  143.7662  157.1529 C   0  0  0  0  0  0  0  0  0  0  0  0
  152.2422  143.6231  158.6057 C   0  0  0  0  0  0  0  0  0  0  0  0
  150.9866  142.7943  158.8950 C   0  0  0  0  0  0  0  0  0  0  0  0
  150.8669  139.5374  155.0084 C   0  0  0  0  0  0  0  0  0  0  0  0
  149.6165  138.6431  155.0864 C   0  0  0  0  0  0  0  0  0  0  0  0
  146.3171  135.2985  151.4875 N   0  0  0  0  0  0  0  0  0  0  0  0
  145.6831  134.1540  150.9298 C   0  0  0  0  0  0  0  0  0  0  0  0
  146.5071  133.0767  150.5432 C   0  0  0  0  0  0  0  0  0  0  0  0
  145.9082  131.9227  149.9996 C   0  0  0  0  0  0  0  0  0  0  0  0
  144.5760  131.7871  149.8331 N   0  0  0  0  0  0  0  0  0  0  0  0
  143.7872  132.8136  150.2147 C   0  0  0  0  0  0  0  0  0  0  0  0
  144.2834  134.0108  150.7690 C   0  0  0  0  0  0  0  0  0  0  0  0
  147.6677  137.0177  152.3037 H   0  0  0  0  0  0  0  0  0  0  0  0
  146.6928  139.3071  152.6035 H   0  0  0  0  0  0  0  0  0  0  0  0
  145.3579  138.5233  153.4146 H   0  0  0  0  0  0  0  0  0  0  0  0
  146.5165  138.9332  155.3316 H   0  0  0  0  0  0  0  0  0  0  0  0
  147.4369  137.5039  154.9315 H   0  0  0  0  0  0  0  0  0  0  0  0
  147.4226  141.1975  154.5254 H   0  0  0  0  0  0  0  0  0  0  0  0
  147.8897  140.6112  156.1105 H   0  0  0  0  0  0  0  0  0  0  0  0
  149.7872  141.7041  153.9601 H   0  0  0  0  0  0  0  0  0  0  0  0
  149.3229  142.5220  155.4235 H   0  0  0  0  0  0  0  0  0  0  0  0
  149.7657  142.9361  157.0569 H   0  0  0  0  0  0  0  0  0  0  0  0
  152.5633  143.5791  156.4187 H   0  0  0  0  0  0  0  0  0  0  0  0
  151.2926  144.7236  156.9609 H   0  0  0  0  0  0  0  0  0  0  0  0
  153.1603  143.0414  158.6985 H   0  0  0  0  0  0  0  0  0  0  0  0
  152.3013  144.5626  159.1559 H   0  0  0  0  0  0  0  0  0  0  0  0
  150.1954  143.3719  159.3747 H   0  0  0  0  0  0  0  0  0  0  0  0
  151.1873  141.8705  159.4397 H   0  0  0  0  0  0  0  0  0  0  0  0
  151.1141  139.7363  153.9644 H   0  0  0  0  0  0  0  0  0  0  0  0
  151.7309  139.0098  155.4091 H   0  0  0  0  0  0  0  0  0  0  0  0
  149.4196  138.3769  156.1262 H   0  0  0  0  0  0  0  0  0  0  0  0
  149.8125  137.7137  154.5536 H   0  0  0  0  0  0  0  0  0  0  0  0
  147.3150  135.3460  151.3432 H   0  0  0  0  0  0  0  0  0  0  0  0
  147.5803  133.1293  150.6549 H   0  0  0  0  0  0  0  0  0  0  0  0
  146.5168  131.0856  149.6915 H   0  0  0  0  0  0  0  0  0  0  0  0
  142.7247  132.6751  150.0792 H   0  0  0  0  0  0  0  0  0  0  0  0
  143.5836  134.7764  151.0646 H   0  0  0  0  0  0  0  0  0  0  0  0
  148.6171  139.4647  153.5332 H   0  0  0  0  0  0  0  0  0  0  0  0
  1  2  2  0  0  0  0
  2  3  1  0  0  0  0
  2 18  1  0  0  0  0
  3  4  1  0  0  0  0
  3 25  1  0  0  0  0
  4  5  1  0  0  0  0
  4 26  1  0  0  0  0
  4 27  1  0  0  0  0
  5  6  1  0  0  0  0
  5 28  1  0  0  0  0
  5 29  1  0  0  0  0
  6 17  1  0  0  0  0
  6  7  1  0  0  0  0
  6 50  1  0  0  0  0
  7  8  1  0  0  0  0
  7 30  1  0  0  0  0
  7 31  1  0  0  0  0
  8  9  1  0  0  0  0
  8 32  1  0  0  0  0
  8 33  1  0  0  0  0
  9 10  1  0  0  0  0
  9 16  1  0  0  0  0
 10 11  2  0  0  0  0
 10 12  1  0  0  0  0
 12 15  1  0  0  0  0
 12 13  1  0  0  0  0
 12 34  1  0  0  0  0
 13 14  1  0  0  0  0
 13 35  1  0  0  0  0
 13 36  1  0  0  0  0
 14 15  1  0  0  0  0
 14 37  1  0  0  0  0
 14 38  1  0  0  0  0
 15 39  1  0  0  0  0
 15 40  1  0  0  0  0
 16 17  1  0  0  0  0
 16 41  1  0  0  0  0
 16 42  1  0  0  0  0
 17 43  1  0  0  0  0
 17 44  1  0  0  0  0
 18 19  1  0  0  0  0
 18 45  1  0  0  0  0
 19 24  1  0  0  0  0
 19 20  2  0  0  0  0
 20 21  1  0  0  0  0
 20 46  1  0  0  0  0
 21 22  2  0  0  0  0
 21 47  1  0  0  0  0
 22 23  1  0  0  0  0
 23 24  2  0  0  0  0
 23 48  1  0  0  0  0
 24 49  1  0  0  0  0
M  CHG  1   6   1
M  END
> <s_m_source_file>
AV-unprocessed.smi

> <i_m_source_file_index>
769

> <i_lp_mmshare_version>
43012

> <i_f3d_flags>
0

> <s_epik_input>
W2NIXTFbY0hdbltjSF1bY0hdYzFbTkhdQyg9TylbTkhdW0NIMl1bQ0gyXU4yW0NIMl1bQ0gyXU4oW0NIMl1bQ0gyXTIpQyg9TylbQ0hdM1tDSDJdW0NIMl1bQ0gyXTM=

> <s_epik_cmdline>
J2VwaWtfcHl0aG9uJywgJy1waCcsICc3LjAnLCAnLXRuJywgJzgnLCAnLW1hJywgJzIwMCcsICctbWV0YWxfYmluZGluZycsICctaW1hZScsICc8aW5maWxlLm1hZT4nLCAnLW9tYWUnLCAnPG91dGZpbGUubWFlPic=

> <r_epik_Ionization_Penalty>
0.680309

> <r_epik_Ionization_Penalty_Charging>
0.581996

> <r_epik_Ionization_Penalty_Neutral>
0.0983131

> <r_epik_State_Penalty>
0.686881

> <r_epik_Charging_Adjusted_Penalty>
1.26888

> <i_epik_Tot_Q>
1

> <i_epik_Tot_abs_Q>
1

> <r_epik_Metal_State_Penalty>
0.68612

> <b_epik_Metal_Only>
0

> <s_lp_Force_Field>
OPLS_2005

> <r_lp_Energy>
56.1037

> <b_lp_Chiralities_Consistent>
1

> <s_lp_Variant>
AV-unprocessed.smi:769-2

> <Gold.Version>
5.8.1

> <Gold.Id.Protein>
6NUR|6NUR_protein|mol2

> <Gold.PLP.Fitness>
52.9580

> <Gold.PLP.PLP>
-44.0058

> <Gold.PLP.part.hbond>
-2.7963

> <Gold.PLP.part.metal>
0.0000

> <Gold.PLP.part.buried>
-5.6368

> <Gold.PLP.part.nonpolar>
-37.6882

> <Gold.PLP.part.repulsive>
0.4673

> <Gold.PLP.ligand.clash>
0.0000

> <Gold.PLP.ligand.torsion>
1.5050

> <Gold.PLP.Chemscore.Hbond>
1.9939

> <Gold.PLP.Chemscore.CHOScore>
1.8541

> <Gold.PLP.Chemscore.Metal>
0.0000

> <Gold.Chemscore.Hbonds>
donor molecule, donor type, donor heavy atom, donor atom, acceptor molecule, acceptor atom, score
      L1  H     3    25       P1  7948  1.00
      L1  H    18    45       P1  7948  0.94
      P1  H 10785 10796       L1    22  0.05
      L1  C    21    47       P1 10747  0.89
      L1  C    23    48       P1 10186  0.96

> <Gold.PLP.Chemscore.Internal.Correction>
0.4183

> <Gold.Rescore>
     Score         DG    S(hbond)    S(metal)    S(lipo)     H(rot)  DE(clash)    DE(int)     intcor
     17.80     -20.51       1.96        0.00     110.13       1.72       0.07       2.64       ----

> <Gold.Chemscore.Fitness>
17.7957

> <Gold.Chemscore.DG>
-20.5116

> <Gold.Chemscore.ZeroCoef>
-5.4800

> <Gold.Chemscore.Hbond>
1.9605

> <Gold.Chemscore.Metal>
0.0000

> <Gold.Chemscore.Lipo>
110.1329

> <Gold.Chemscore.Internal_Hbond>
0.0000

> <Gold.Chemscore.DEClash>
0.0736

> <Gold.Chemscore.DEInternal>
2.6423

> <Gold.Chemscore.Rot>
1.7195

> <Gold.Chemscore.Internal.Correction>
   9.000000E+99

> <Gold.Chemscore.Hbonds>
donor molecule, donor type, donor heavy atom, donor atom, acceptor molecule, acceptor atom, score
      L1  H     3    25       P1  7948  0.96
      L1  H    18    45       P1  7948  0.75
      P1  H 10785 10796       L1    22  0.04

> <Gold.Chemscore.Hbond.Weighted>
-6.5480

> <Gold.Chemscore.Metal.Weighted>
-0.0000

> <Gold.Chemscore.Lipo.Weighted>
-12.8855

> <Gold.Chemscore.Internal_Hbond.Weighted>
0.0000

> <Gold.Chemscore.DEClash.Weighted>
0.0736

> <Gold.Chemscore.DEInternal.Weighted>
2.6423

> <Gold.Chemscore.Rot.Weighted>
4.4020

> <Gold.Chemscore.Internal.Correction.Weighted>
   9.000000E+99

> <Gold.Protein.RotatedTorsions>
[ 6907 6896 6895 6894 ] final   69.40 input  -60.11 | X-H torsion
[ 7974 7965 7964 7962 ] final -121.96 input  175.53 | X-H torsion
[ 8008 7997 7996 7995 ] final   77.16 input   59.86 | X-H torsion
[ 10167 10162 10161 10158 ] final  -21.49 input  -65.29 | X-H torsion
[ 10718 10713 10712 10709 ] final   26.92 input   66.30 | X-H torsion
[ 10763 10752 10751 10750 ] final  147.29 input  -60.55 | X-H torsion
[ 11005 11000 10999 10996 ] final  -74.47 input  -57.11 | X-H torsion

> <Gold.Protein.ActiveResidues>
 VAL166  LYS551  ARG553  GLY616  TRP617  ASP618  TYR619  PRO620  LYS621  CYS622 
 ASP623  PHE694  ASN695  SER759  ASP760  ASP761  ALA762  ILE779  LEU786  VAL792 
 PHE793  MET794  SER795  GLU796  ALA797  LYS798  CYS799  TRP800  GLU811  SER814 

> <Gold.Protein.RotatedAtoms>
  152.4683  134.5022  159.9727 H   0  0  0  0  0  0  0  0  0  0  0  0  # atno 6907 bound_to 6896
  151.5054  133.3490  159.2884 H   0  0  0  0  0  0  0  0  0  0  0  0  # atno 6908 bound_to 6896
  150.8679  134.8075  159.7195 H   0  0  0  0  0  0  0  0  0  0  0  0  # atno 6909 bound_to 6896
  145.0346  140.8096  143.4303 H   0  0  0  0  0  0  0  0  0  0  0  0  # atno 7974 bound_to 7965
  155.8377  140.3463  155.5612 H   0  0  0  0  0  0  0  0  0  0  0  0  # atno 8008 bound_to 7997
  155.8174  140.0908  157.1888 H   0  0  0  0  0  0  0  0  0  0  0  0  # atno 8009 bound_to 7997
  154.4004  140.1436  156.3446 H   0  0  0  0  0  0  0  0  0  0  0  0  # atno 8010 bound_to 7997
  140.7282  143.4623  151.0362 H   0  0  0  0  0  0  0  0  0  0  0  0  # atno 10167 bound_to 10162
  157.2133  130.6944  149.6238 H   0  0  0  0  0  0  0  0  0  0  0  0  # atno 10718 bound_to 10713
  154.0359  135.2894  155.3362 H   0  0  0  0  0  0  0  0  0  0  0  0  # atno 10763 bound_to 10752
  154.6959  135.5208  153.8461 H   0  0  0  0  0  0  0  0  0  0  0  0  # atno 10764 bound_to 10752
  153.0620  135.6617  154.0567 H   0  0  0  0  0  0  0  0  0  0  0  0  # atno 10765 bound_to 10752
  141.1635  133.6913  156.7370 H   0  0  0  0  0  0  0  0  0  0  0  0  # atno 11005 bound_to 11000
  145.1726  139.2396  143.5334 LP  0  0  0  0  0  0  0  0  0  0  0  0  # atno 17320 bound_to 7965
  146.3502  140.1480  142.8593 LP  0  0  0  0  0  0  0  0  0  0  0  0  # atno 17321 bound_to 7965
  139.8309  143.7692  152.3180 LP  0  0  0  0  0  0  0  0  0  0  0  0  # atno 17342 bound_to 10162
  139.7808  144.7445  151.0091 LP  0  0  0  0  0  0  0  0  0  0  0  0  # atno 17343 bound_to 10162
  155.9688  130.4544  150.5848 LP  0  0  0  0  0  0  0  0  0  0  0  0  # atno 17370 bound_to 10713
  157.3650  131.0756  151.1605 LP  0  0  0  0  0  0  0  0  0  0  0  0  # atno 17371 bound_to 10713
  140.2703  134.8398  157.3840 LP  0  0  0  0  0  0  0  0  0  0  0  0  # atno 17394 bound_to 11000
  140.1528  134.4828  155.7949 LP  0  0  0  0  0  0  0  0  0  0  0  0  # atno 17395 bound_to 11000

$$$$
