AV-unprocessed.smi:3352|AV-procd|sdf|12952|dock7
  -GOLD-   2272019393D 1   1.00000     0.00000
 Structure written by MMmdl.
 38 39  0  0  0  0  0  0  0  0  1 V2000
  151.7971  144.8333  159.9939 C   0  0  0  0  0  0  0  0  0  0  0  0
  152.3973  144.1154  158.7763 C   0  0  0  0  0  0  0  0  0  0  0  0
  151.5344  144.2756  157.5167 C   0  0  0  0  0  0  0  0  0  0  0  0
  152.6950  142.6770  159.0658 C   0  0  0  0  0  0  0  0  0  0  0  0
  152.0961  141.6627  158.4352 N   0  0  0  0  0  0  0  0  0  0  0  0
  152.5367  140.4113  158.8796 C   0  0  0  0  0  0  0  0  0  0  0  0
  151.9725  139.1587  158.2753 C   0  0  0  0  0  0  0  0  0  0  0  0
  152.1581  139.1754  156.7576 C   0  0  0  0  0  0  0  0  0  0  0  0
  153.0457  139.8643  156.2545 O   0  0  0  0  0  0  0  0  0  0  0  0
  151.3159  138.4125  156.0432 N   0  0  0  0  0  0  0  0  0  0  0  0
  151.3248  138.2804  154.5910 C   0  0  0  0  0  0  0  0  0  0  0  0
  150.2065  139.1111  153.9401 C   0  0  1  0  0  0  0  0  0  0  0  0
  148.8215  138.8329  154.5227 C   0  0  0  0  0  0  0  0  0  0  0  0
  148.0932  140.1197  154.2101 C   0  0  0  0  0  0  0  0  0  0  0  0
  149.1847  141.1574  154.4517 C   0  0  0  0  0  0  0  0  0  0  0  0
  150.4155  140.5073  154.1457 O   0  0  0  0  0  0  0  0  0  0  0  0
  153.4804  140.4928  159.8735 C   0  0  0  0  0  0  0  0  0  0  0  0
  153.8537  142.1440  160.2821 S   0  0  0  0  0  0  0  0  0  0  0  0
  152.4597  144.7619  160.8571 H   0  0  0  0  0  0  0  0  0  0  0  0
  150.8346  144.4050  160.2756 H   0  0  0  0  0  0  0  0  0  0  0  0
  151.6394  145.8920  159.7861 H   0  0  0  0  0  0  0  0  0  0  0  0
  153.3516  144.6013  158.5664 H   0  0  0  0  0  0  0  0  0  0  0  0
  152.0169  143.8201  156.6512 H   0  0  0  0  0  0  0  0  0  0  0  0
  151.3691  145.3281  157.2858 H   0  0  0  0  0  0  0  0  0  0  0  0
  150.5583  143.8056  157.6402 H   0  0  0  0  0  0  0  0  0  0  0  0
  152.4677  138.2782  158.6870 H   0  0  0  0  0  0  0  0  0  0  0  0
  150.9127  139.0524  158.5123 H   0  0  0  0  0  0  0  0  0  0  0  0
  150.6171  137.8836  156.5448 H   0  0  0  0  0  0  0  0  0  0  0  0
  152.2934  138.6342  154.2371 H   0  0  0  0  0  0  0  0  0  0  0  0
  151.2523  137.2328  154.2939 H   0  0  0  0  0  0  0  0  0  0  0  0
  150.1798  138.9316  152.8640 H   0  0  0  0  0  0  0  0  0  0  0  0
  148.3452  137.9541  154.0869 H   0  0  0  0  0  0  0  0  0  0  0  0
  148.8781  138.6913  155.6031 H   0  0  0  0  0  0  0  0  0  0  0  0
  147.7861  140.1317  153.1634 H   0  0  0  0  0  0  0  0  0  0  0  0
  147.2100  140.2768  154.8296 H   0  0  0  0  0  0  0  0  0  0  0  0
  149.0466  142.0548  153.8485 H   0  0  0  0  0  0  0  0  0  0  0  0
  149.2031  141.4538  155.5012 H   0  0  0  0  0  0  0  0  0  0  0  0
  153.9784  139.6830  160.3861 H   0  0  0  0  0  0  0  0  0  0  0  0
  1  2  1  0  0  0  0
  1 19  1  0  0  0  0
  1 20  1  0  0  0  0
  1 21  1  0  0  0  0
  2  3  1  0  0  0  0
  2  4  1  0  0  0  0
  2 22  1  0  0  0  0
  3 23  1  0  0  0  0
  3 24  1  0  0  0  0
  3 25  1  0  0  0  0
  4 18  1  0  0  0  0
  4  5  2  0  0  0  0
  5  6  1  0  0  0  0
  6  7  1  0  0  0  0
  6 17  2  0  0  0  0
  7  8  1  0  0  0  0
  7 26  1  0  0  0  0
  7 27  1  0  0  0  0
  8  9  2  0  0  0  0
  8 10  1  0  0  0  0
 10 11  1  0  0  0  0
 10 28  1  0  0  0  0
 11 12  1  0  0  0  0
 11 29  1  0  0  0  0
 11 30  1  0  0  0  0
 12 16  1  0  0  0  0
 12 13  1  0  0  0  0
 12 31  1  0  0  0  0
 13 14  1  0  0  0  0
 13 32  1  0  0  0  0
 13 33  1  0  0  0  0
 14 15  1  0  0  0  0
 14 34  1  0  0  0  0
 14 35  1  0  0  0  0
 15 16  1  0  0  0  0
 15 36  1  0  0  0  0
 15 37  1  0  0  0  0
 17 18  1  0  0  0  0
 17 38  1  0  0  0  0
M  END
> <s_m_source_file>
AV-unprocessed.smi

> <i_m_source_file_index>
3352

> <i_lp_mmshare_version>
43012

> <i_f3d_flags>
0

> <s_epik_input>
W0NIM11bQ0hdKFtDSDNdKWMxbmMoW2NIXXMxKVtDSDJdQyg9TylbTkhdW0NIMl1bQ0BASF0yW0NIMl1bQ0gyXVtDSDJdTzI=

> <s_epik_cmdline>
J2VwaWtfcHl0aG9uJywgJy1waCcsICc3LjAnLCAnLXRuJywgJzgnLCAnLW1hJywgJzIwMCcsICctbWV0YWxfYmluZGluZycsICctaW1hZScsICc8aW5maWxlLm1hZT4nLCAnLW9tYWUnLCAnPG91dGZpbGUubWFlPic=

> <r_lp_tautomer_probability>
1

> <r_epik_Ionization_Penalty>
4.66014e-05

> <r_epik_Ionization_Penalty_Charging>
0

> <r_epik_Ionization_Penalty_Neutral>
4.66014e-05

> <r_epik_State_Penalty>
-0

> <r_epik_Charging_Adjusted_Penalty>
0

> <i_epik_Tot_Q>
0

> <i_epik_Tot_abs_Q>
0

> <r_epik_Metal_State_Penalty>
-0

> <b_epik_Metal_Only>
0

> <s_lp_Force_Field>
OPLS_2005

> <r_lp_Energy>
9.02769

> <b_lp_Chiralities_Consistent>
1

> <s_lp_Variant>
AV-unprocessed.smi:3352-2

> <Gold.Version>
5.8.1

> <Gold.Id.Protein>
6NUR|6NUR_protein|mol2

> <Gold.PLP.Fitness>
45.5294

> <Gold.PLP.PLP>
-40.6809

> <Gold.PLP.part.hbond>
-1.7231

> <Gold.PLP.part.metal>
0.0000

> <Gold.PLP.part.buried>
-4.0805

> <Gold.PLP.part.nonpolar>
-35.5278

> <Gold.PLP.part.repulsive>
0.1658

> <Gold.PLP.ligand.clash>
0.0000

> <Gold.PLP.ligand.torsion>
0.5966

> <Gold.PLP.Chemscore.Hbond>
1.9913

> <Gold.PLP.Chemscore.CHOScore>
0.0000

> <Gold.PLP.Chemscore.Metal>
0.0000

> <Gold.Chemscore.Hbonds>
donor molecule, donor type, donor heavy atom, donor atom, acceptor molecule, acceptor atom, score
      P1  H  7989  7998       L1    16  0.64
      P1  H  7997  8008       L1     9  0.47

> <Gold.PLP.Chemscore.Internal.Correction>
0.0680

> <Gold.Rescore>
     Score         DG    S(hbond)    S(metal)    S(lipo)     H(rot)  DE(clash)    DE(int)     intcor
     19.66     -20.26       1.90        0.00     105.95       1.55       0.00       0.60       ----

> <Gold.Chemscore.Fitness>
19.6563

> <Gold.Chemscore.DG>
-20.2601

> <Gold.Chemscore.ZeroCoef>
-5.4800

> <Gold.Chemscore.Hbond>
1.9033

> <Gold.Chemscore.Metal>
0.0000

> <Gold.Chemscore.Lipo>
105.9473

> <Gold.Chemscore.Internal_Hbond>
0.0000

> <Gold.Chemscore.DEClash>
0.0048

> <Gold.Chemscore.DEInternal>
0.5990

> <Gold.Chemscore.Rot>
1.5518

> <Gold.Chemscore.Internal.Correction>
   9.000000E+99

> <Gold.Chemscore.Hbonds>
donor molecule, donor type, donor heavy atom, donor atom, acceptor molecule, acceptor atom, score
      P1  H  7989  7998       L1    16  0.41
      P1  H  7997  8008       L1     9  0.48

> <Gold.Chemscore.Hbond.Weighted>
-6.3569

> <Gold.Chemscore.Metal.Weighted>
-0.0000

> <Gold.Chemscore.Lipo.Weighted>
-12.3958

> <Gold.Chemscore.Internal_Hbond.Weighted>
0.0000

> <Gold.Chemscore.DEClash.Weighted>
0.0048

> <Gold.Chemscore.DEInternal.Weighted>
0.5990

> <Gold.Chemscore.Rot.Weighted>
3.9727

> <Gold.Chemscore.Internal.Correction.Weighted>
   9.000000E+99

> <Gold.Protein.RotatedTorsions>
[ 6907 6896 6895 6894 ] final  -56.66 input  -60.11 | X-H torsion
[ 7974 7965 7964 7962 ] final  130.70 input  175.53 | X-H torsion
[ 8008 7997 7996 7995 ] final  -37.52 input   59.86 | X-H torsion
[ 10167 10162 10161 10158 ] final  -29.26 input  -65.29 | X-H torsion
[ 10718 10713 10712 10709 ] final  -74.53 input   66.30 | X-H torsion
[ 10763 10752 10751 10750 ] final   60.15 input  -60.55 | X-H torsion
[ 11005 11000 10999 10996 ] final   55.34 input  -57.11 | X-H torsion

> <Gold.Protein.ActiveResidues>
 VAL166  LYS551  ARG553  GLY616  TRP617  ASP618  TYR619  PRO620  LYS621  CYS622 
 ASP623  PHE694  ASN695  SER759  ASP760  ASP761  ALA762  ILE779  LEU786  VAL792 
 PHE793  MET794  SER795  GLU796  ALA797  LYS798  CYS799  TRP800  GLU811  SER814 

> <Gold.Protein.RotatedAtoms>
  150.8149  134.7326  159.6721 H   0  0  0  0  0  0  0  0  0  0  0  0  # atno 6907 bound_to 6896
  152.4268  134.5849  159.9968 H   0  0  0  0  0  0  0  0  0  0  0  0  # atno 6908 bound_to 6896
  151.6049  133.3315  159.3091 H   0  0  0  0  0  0  0  0  0  0  0  0  # atno 6909 bound_to 6896
  145.0151  139.4184  143.5225 H   0  0  0  0  0  0  0  0  0  0  0  0  # atno 7974 bound_to 7965
  154.4052  140.1602  156.2550 H   0  0  0  0  0  0  0  0  0  0  0  0  # atno 8008 bound_to 7997
  155.9086  140.3428  155.6059 H   0  0  0  0  0  0  0  0  0  0  0  0  # atno 8009 bound_to 7997
  155.7362  140.0786  157.2257 H   0  0  0  0  0  0  0  0  0  0  0  0  # atno 8010 bound_to 7997
  140.7262  143.3943  151.1374 H   0  0  0  0  0  0  0  0  0  0  0  0  # atno 10167 bound_to 10162
  156.0239  130.4419  150.2906 H   0  0  0  0  0  0  0  0  0  0  0  0  # atno 10718 bound_to 10713
  152.9913  135.5546  154.5828 H   0  0  0  0  0  0  0  0  0  0  0  0  # atno 10763 bound_to 10752
  154.5206  135.2807  155.1268 H   0  0  0  0  0  0  0  0  0  0  0  0  # atno 10764 bound_to 10752
  154.2623  135.6379  153.5332 H   0  0  0  0  0  0  0  0  0  0  0  0  # atno 10765 bound_to 10752
  140.0615  134.5596  155.9147 H   0  0  0  0  0  0  0  0  0  0  0  0  # atno 11005 bound_to 11000
  146.3476  139.9617  142.8716 LP  0  0  0  0  0  0  0  0  0  0  0  0  # atno 17320 bound_to 7965
  145.1971  140.9838  143.4177 LP  0  0  0  0  0  0  0  0  0  0  0  0  # atno 17321 bound_to 7965
  139.7553  143.8716  152.3087 LP  0  0  0  0  0  0  0  0  0  0  0  0  # atno 17342 bound_to 10162
  139.8584  144.7129  150.9129 LP  0  0  0  0  0  0  0  0  0  0  0  0  # atno 17343 bound_to 10162
  157.1009  131.0195  151.3086 LP  0  0  0  0  0  0  0  0  0  0  0  0  # atno 17370 bound_to 10713
  157.4780  130.7748  149.7387 LP  0  0  0  0  0  0  0  0  0  0  0  0  # atno 17371 bound_to 10713
  141.1975  133.6596  156.5745 LP  0  0  0  0  0  0  0  0  0  0  0  0  # atno 17394 bound_to 11000
  140.3763  134.7562  157.4632 LP  0  0  0  0  0  0  0  0  0  0  0  0  # atno 17395 bound_to 11000

$$$$
