AV-unprocessed.smi:2466|AV-procd|sdf|9724|dock3
  -GOLD-   2272013363D 1   1.00000     0.00000
 Structure written by MMmdl.
 36 37  0  0  0  0  0  0  0  0  1 V2000
  154.3256  140.9713  161.5856 C   0  0  0  0  0  0  0  0  0  0  0  0
  153.9862  141.0901  160.2086 O   0  0  0  0  0  0  0  0  0  0  0  0
  153.1315  142.1059  159.8335 C   0  0  0  0  0  0  0  0  0  0  0  0
  152.3346  141.9478  158.6812 C   0  0  0  0  0  0  0  0  0  0  0  0
  151.4703  143.0102  158.3338 C   0  0  0  0  0  0  0  0  0  0  0  0
  150.6819  142.8076  157.1703 N   0  0  0  0  0  0  0  0  0  0  0  0
  150.3621  141.6439  156.5775 C   0  0  0  0  0  0  0  0  0  0  0  0
  150.6970  140.5277  156.9751 O   0  0  0  0  0  0  0  0  0  0  0  0
  149.6173  141.8483  155.4808 N   0  0  0  0  0  0  0  0  0  0  0  0
  149.1070  140.8081  154.5900 C   0  0  0  0  0  0  0  0  0  0  0  0
  147.5795  140.8704  154.4319 C   0  0  0  0  0  0  0  0  0  0  0  0
  147.1271  139.6690  153.5882 C   0  0  0  0  0  0  0  0  0  0  0  0
  146.7733  141.1054  155.7277 C   0  0  0  0  0  0  0  0  0  0  0  0
  145.8675  142.0729  154.9680 C   0  0  0  0  0  0  0  0  0  0  0  0
  147.0143  142.2313  153.9708 C   0  0  0  0  0  0  0  0  0  0  0  0
  151.4329  144.1295  159.0984 N   0  0  0  0  0  0  0  0  0  0  0  0
  152.2275  144.1822  160.1690 C   0  0  0  0  0  0  0  0  0  0  0  0
  153.0724  143.2356  160.5793 N   0  0  0  0  0  0  0  0  0  0  0  0
  155.0034  140.1282  161.7190 H   0  0  0  0  0  0  0  0  0  0  0  0
  153.4427  140.7858  162.1989 H   0  0  0  0  0  0  0  0  0  0  0  0
  154.8335  141.8654  161.9502 H   0  0  0  0  0  0  0  0  0  0  0  0
  152.3870  141.0436  158.0922 H   0  0  0  0  0  0  0  0  0  0  0  0
  150.3310  143.6460  156.7320 H   0  0  0  0  0  0  0  0  0  0  0  0
  149.3872  142.8004  155.2365 H   0  0  0  0  0  0  0  0  0  0  0  0
  149.5905  140.9565  153.6241 H   0  0  0  0  0  0  0  0  0  0  0  0
  149.4205  139.8157  154.9186 H   0  0  0  0  0  0  0  0  0  0  0  0
  146.0714  139.7346  153.3244 H   0  0  0  0  0  0  0  0  0  0  0  0
  147.2598  138.7269  154.1204 H   0  0  0  0  0  0  0  0  0  0  0  0
  147.6855  139.6015  152.6540 H   0  0  0  0  0  0  0  0  0  0  0  0
  146.2668  140.2222  156.1182 H   0  0  0  0  0  0  0  0  0  0  0  0
  147.3522  141.6046  156.5070 H   0  0  0  0  0  0  0  0  0  0  0  0
  144.9899  141.5883  154.5378 H   0  0  0  0  0  0  0  0  0  0  0  0
  145.6063  142.9799  155.5138 H   0  0  0  0  0  0  0  0  0  0  0  0
  147.6638  143.0729  154.2184 H   0  0  0  0  0  0  0  0  0  0  0  0
  146.7038  142.2692  152.9261 H   0  0  0  0  0  0  0  0  0  0  0  0
  152.1808  145.0824  160.7640 H   0  0  0  0  0  0  0  0  0  0  0  0
  1  2  1  0  0  0  0
  1 19  1  0  0  0  0
  1 20  1  0  0  0  0
  1 21  1  0  0  0  0
  2  3  1  0  0  0  0
  3 18  1  0  0  0  0
  3  4  2  0  0  0  0
  4  5  1  0  0  0  0
  4 22  1  0  0  0  0
  5  6  1  0  0  0  0
  5 16  2  0  0  0  0
  6  7  1  0  0  0  0
  6 23  1  0  0  0  0
  7  8  2  0  0  0  0
  7  9  1  0  0  0  0
  9 10  1  0  0  0  0
  9 24  1  0  0  0  0
 10 11  1  0  0  0  0
 10 25  1  0  0  0  0
 10 26  1  0  0  0  0
 11 15  1  0  0  0  0
 11 12  1  0  0  0  0
 11 13  1  0  0  0  0
 12 27  1  0  0  0  0
 12 28  1  0  0  0  0
 12 29  1  0  0  0  0
 13 14  1  0  0  0  0
 13 30  1  0  0  0  0
 13 31  1  0  0  0  0
 14 15  1  0  0  0  0
 14 32  1  0  0  0  0
 14 33  1  0  0  0  0
 15 34  1  0  0  0  0
 15 35  1  0  0  0  0
 16 17  1  0  0  0  0
 17 18  2  0  0  0  0
 17 36  1  0  0  0  0
M  END
> <s_m_source_file>
AV-unprocessed.smi

> <i_m_source_file_index>
2466

> <i_lp_mmshare_version>
43012

> <i_f3d_flags>
0

> <s_epik_input>
W0NIM11PYzFbY0hdYyhuW2NIXW4xKVtOSF1DKD1PKVtOSF1bQ0gyXUMyKFtDSDNdKVtDSDJdW0NIMl1bQ0gyXTI=

> <s_epik_cmdline>
J2VwaWtfcHl0aG9uJywgJy1waCcsICc3LjAnLCAnLXRuJywgJzgnLCAnLW1hJywgJzIwMCcsICctbWV0YWxfYmluZGluZycsICctaW1hZScsICc8aW5maWxlLm1hZT4nLCAnLW9tYWUnLCAnPG91dGZpbGUubWFlPic=

> <r_lp_tautomer_probability>
1

> <r_epik_Ionization_Penalty>
2.72078e-05

> <r_epik_Ionization_Penalty_Charging>
0

> <r_epik_Ionization_Penalty_Neutral>
2.72078e-05

> <r_epik_State_Penalty>
-0

> <r_epik_Charging_Adjusted_Penalty>
0

> <i_epik_Tot_Q>
0

> <i_epik_Tot_abs_Q>
0

> <r_epik_Metal_State_Penalty>
-0

> <b_epik_Metal_Only>
0

> <s_lp_Force_Field>
OPLS_2005

> <r_lp_Energy>
15.1515

> <b_lp_Chiralities_Consistent>
1

> <s_lp_Variant>
AV-unprocessed.smi:2466-1

> <Gold.Version>
5.8.1

> <Gold.Id.Protein>
6NUR|6NUR_protein|mol2

> <Gold.PLP.Fitness>
41.6572

> <Gold.PLP.PLP>
-36.7941

> <Gold.PLP.part.hbond>
-2.0000

> <Gold.PLP.part.metal>
0.0000

> <Gold.PLP.part.buried>
-7.1842

> <Gold.PLP.part.nonpolar>
-28.3350

> <Gold.PLP.part.repulsive>
0.3127

> <Gold.PLP.ligand.clash>
0.0000

> <Gold.PLP.ligand.torsion>
0.5469

> <Gold.PLP.Chemscore.Hbond>
1.9440

> <Gold.PLP.Chemscore.CHOScore>
0.0000

> <Gold.PLP.Chemscore.Metal>
0.0000

> <Gold.Chemscore.Hbonds>
donor molecule, donor type, donor heavy atom, donor atom, acceptor molecule, acceptor atom, score
      L1  H     6    23       P1  8028  0.86
      L1  H     9    24       P1  8028  1.00

> <Gold.PLP.Chemscore.Internal.Correction>
0.1249

> <Gold.Rescore>
     Score         DG    S(hbond)    S(metal)    S(lipo)     H(rot)  DE(clash)    DE(int)     intcor
     11.84     -13.92       1.88        0.00      53.95       1.62       0.04       2.03       ----

> <Gold.Chemscore.Fitness>
11.8396

> <Gold.Chemscore.DG>
-13.9153

> <Gold.Chemscore.ZeroCoef>
-5.4800

> <Gold.Chemscore.Hbond>
1.8781

> <Gold.Chemscore.Metal>
0.0000

> <Gold.Chemscore.Lipo>
53.9453

> <Gold.Chemscore.Internal_Hbond>
0.0000

> <Gold.Chemscore.DEClash>
0.0437

> <Gold.Chemscore.DEInternal>
2.0320

> <Gold.Chemscore.Rot>
1.6207

> <Gold.Chemscore.Internal.Correction>
   9.000000E+99

> <Gold.Chemscore.Hbonds>
donor molecule, donor type, donor heavy atom, donor atom, acceptor molecule, acceptor atom, score
      L1  H     6    23       P1  8028  0.82
      L1  H     9    24       P1  8028  0.93

> <Gold.Chemscore.Hbond.Weighted>
-6.2728

> <Gold.Chemscore.Metal.Weighted>
-0.0000

> <Gold.Chemscore.Lipo.Weighted>
-6.3116

> <Gold.Chemscore.Internal_Hbond.Weighted>
0.0000

> <Gold.Chemscore.DEClash.Weighted>
0.0437

> <Gold.Chemscore.DEInternal.Weighted>
2.0320

> <Gold.Chemscore.Rot.Weighted>
4.1491

> <Gold.Chemscore.Internal.Correction.Weighted>
   9.000000E+99

> <Gold.Protein.RotatedTorsions>
[ 6907 6896 6895 6894 ] final  114.07 input  -60.11 | X-H torsion
[ 7974 7965 7964 7962 ] final   36.71 input  175.53 | X-H torsion
[ 8008 7997 7996 7995 ] final   22.68 input   59.86 | X-H torsion
[ 10167 10162 10161 10158 ] final  154.59 input  -65.29 | X-H torsion
[ 10718 10713 10712 10709 ] final   76.46 input   66.30 | X-H torsion
[ 10763 10752 10751 10750 ] final  139.47 input  -60.55 | X-H torsion
[ 11005 11000 10999 10996 ] final   33.08 input  -57.11 | X-H torsion

> <Gold.Protein.ActiveResidues>
 VAL166  LYS551  ARG553  GLY616  TRP617  ASP618  TYR619  PRO620  LYS621  CYS622 
 ASP623  PHE694  ASN695  SER759  ASP760  ASP761  ALA762  ILE779  LEU786  VAL792 
 PHE793  MET794  SER795  GLU796  ALA797  LYS798  CYS799  TRP800  GLU811  SER814 

> <Gold.Protein.RotatedAtoms>
  152.4824  133.8287  159.7091 H   0  0  0  0  0  0  0  0  0  0  0  0  # atno 6907 bound_to 6896
  150.8884  133.7267  159.2918 H   0  0  0  0  0  0  0  0  0  0  0  0  # atno 6908 bound_to 6896
  151.4748  135.1052  159.9814 H   0  0  0  0  0  0  0  0  0  0  0  0  # atno 6909 bound_to 6896
  146.1191  139.5984  142.9301 H   0  0  0  0  0  0  0  0  0  0  0  0  # atno 7974 bound_to 7965
  154.9694  140.3088  155.4995 H   0  0  0  0  0  0  0  0  0  0  0  0  # atno 8008 bound_to 7997
  156.2967  140.2287  156.4724 H   0  0  0  0  0  0  0  0  0  0  0  0  # atno 8009 bound_to 7997
  154.7891  140.0441  157.1175 H   0  0  0  0  0  0  0  0  0  0  0  0  # atno 8010 bound_to 7997
  139.4823  144.5173  151.7931 H   0  0  0  0  0  0  0  0  0  0  0  0  # atno 10167 bound_to 10162
  157.6674  130.9775  150.1500 H   0  0  0  0  0  0  0  0  0  0  0  0  # atno 10718 bound_to 10713
  153.9066  135.3016  155.3448 H   0  0  0  0  0  0  0  0  0  0  0  0  # atno 10763 bound_to 10752
  154.7644  135.4918  153.9529 H   0  0  0  0  0  0  0  0  0  0  0  0  # atno 10764 bound_to 10752
  153.1215  135.6783  153.9428 H   0  0  0  0  0  0  0  0  0  0  0  0  # atno 10765 bound_to 10752
  140.2668  134.3129  155.7840 H   0  0  0  0  0  0  0  0  0  0  0  0  # atno 11005 bound_to 11000
  145.5503  141.0414  143.2282 LP  0  0  0  0  0  0  0  0  0  0  0  0  # atno 17320 bound_to 7965
  144.7581  139.7025  143.7246 LP  0  0  0  0  0  0  0  0  0  0  0  0  # atno 17321 bound_to 7965
  140.4683  144.1623  150.5914 LP  0  0  0  0  0  0  0  0  0  0  0  0  # atno 17342 bound_to 10162
  140.4410  143.2527  151.9473 LP  0  0  0  0  0  0  0  0  0  0  0  0  # atno 17343 bound_to 10162
  156.2301  130.3681  149.8454 LP  0  0  0  0  0  0  0  0  0  0  0  0  # atno 17370 bound_to 10713
  156.6283  130.8655  151.3490 LP  0  0  0  0  0  0  0  0  0  0  0  0  # atno 17371 bound_to 10713
  141.2183  133.7442  156.9272 LP  0  0  0  0  0  0  0  0  0  0  0  0  # atno 17394 bound_to 11000
  140.1412  134.9292  157.2469 LP  0  0  0  0  0  0  0  0  0  0  0  0  # atno 17395 bound_to 11000

$$$$
