AV-unprocessed.smi:1629|AV-procd|sdf|6523|dock10
  -GOLD-   22720 7203D 1   1.00000     0.00000
 Structure written by MMmdl.
 43 44  0  0  0  0  0  0  0  0  2 V2000
  150.0966  132.8200  155.0941 C   0  0  0  0  0  0  0  0  0  0  0  0
  150.0408  133.1706  156.8961 S   0  0  0  0  0  0  0  0  0  0  0  0
  148.8801  132.4273  157.4125 O   0  0  0  0  0  0  0  0  0  0  0  0
  151.3652  132.7968  157.4179 O   0  0  0  0  0  0  0  0  0  0  0  0
  149.8029  134.7750  156.8795 N   0  5  0  0  0  0  0  0  0  0  0  0
  150.8574  135.6607  156.4071 C   0  0  0  0  0  0  0  0  0  0  0  0
  151.1274  136.8021  157.4246 C   0  0  0  0  0  0  0  0  0  0  0  0
  152.0650  137.9093  156.8690 C   0  0  0  0  0  0  0  0  0  0  0  0
  151.5210  138.4806  155.6164 N   0  0  0  0  0  0  0  0  0  0  0  0
  151.0513  139.7393  155.4290 C   0  0  0  0  0  0  0  0  0  0  0  0
  150.4029  140.0809  154.4391 O   0  0  0  0  0  0  0  0  0  0  0  0
  151.3446  140.5961  156.4186 N   0  0  0  0  0  0  0  0  0  0  0  0
  150.9638  142.0025  156.4551 C   0  0  0  0  0  0  0  0  0  0  0  0
  150.1689  142.3341  157.7297 C   0  0  0  0  0  0  0  0  0  0  0  0
  150.8145  143.4166  158.5786 C   0  0  0  0  0  0  0  0  0  0  0  0
  151.7352  144.3248  158.0122 C   0  0  0  0  0  0  0  0  0  0  0  0
  152.2917  145.3193  158.8394 C   0  0  0  0  0  0  0  0  0  0  0  0
  151.9096  145.3666  160.1940 C   0  0  0  0  0  0  0  0  0  0  0  0
  150.9827  144.4143  160.6628 C   0  0  0  0  0  0  0  0  0  0  0  0
  150.4416  143.4580  159.8774 N   0  0  0  0  0  0  0  0  0  0  0  0
  151.4140  137.4281  154.5891 C   0  0  0  0  0  0  0  0  0  0  0  0
  150.4508  136.2996  155.0533 C   0  0  0  0  0  0  0  0  0  0  0  0
  150.2565  131.7535  154.9392 H   0  0  0  0  0  0  0  0  0  0  0  0
  150.9135  133.3797  154.6398 H   0  0  0  0  0  0  0  0  0  0  0  0
  149.1530  133.1164  154.6370 H   0  0  0  0  0  0  0  0  0  0  0  0
  151.7921  135.1218  156.2458 H   0  0  0  0  0  0  0  0  0  0  0  0
  150.1828  137.2629  157.7184 H   0  0  0  0  0  0  0  0  0  0  0  0
  151.5610  136.3914  158.3366 H   0  0  0  0  0  0  0  0  0  0  0  0
  152.2315  138.6522  157.6485 H   0  0  0  0  0  0  0  0  0  0  0  0
  153.0577  137.5025  156.6645 H   0  0  0  0  0  0  0  0  0  0  0  0
  151.8779  140.2468  157.2016 H   0  0  0  0  0  0  0  0  0  0  0  0
  151.8695  142.6091  156.4141 H   0  0  0  0  0  0  0  0  0  0  0  0
  150.3702  142.2539  155.5749 H   0  0  0  0  0  0  0  0  0  0  0  0
  149.1590  142.6468  157.4617 H   0  0  0  0  0  0  0  0  0  0  0  0
  150.0541  141.4324  158.3328 H   0  0  0  0  0  0  0  0  0  0  0  0
  152.0046  144.2662  156.9677 H   0  0  0  0  0  0  0  0  0  0  0  0
  152.9976  146.0334  158.4416 H   0  0  0  0  0  0  0  0  0  0  0  0
  152.3162  146.1149  160.8580 H   0  0  0  0  0  0  0  0  0  0  0  0
  150.6668  144.4216  161.6954 H   0  0  0  0  0  0  0  0  0  0  0  0
  151.0627  137.8208  153.6342 H   0  0  0  0  0  0  0  0  0  0  0  0
  152.4091  137.0286  154.3832 H   0  0  0  0  0  0  0  0  0  0  0  0
  150.3973  135.5277  154.2847 H   0  0  0  0  0  0  0  0  0  0  0  0
  149.4457  136.7175  155.1330 H   0  0  0  0  0  0  0  0  0  0  0  0
  1  2  1  0  0  0  0
  1 23  1  0  0  0  0
  1 24  1  0  0  0  0
  1 25  1  0  0  0  0
  2  3  2  0  0  0  0
  2  4  2  0  0  0  0
  2  5  1  0  0  0  0
  5  6  1  0  0  0  0
  6 22  1  0  0  0  0
  6  7  1  0  0  0  0
  6 26  1  0  0  0  0
  7  8  1  0  0  0  0
  7 27  1  0  0  0  0
  7 28  1  0  0  0  0
  8  9  1  0  0  0  0
  8 29  1  0  0  0  0
  8 30  1  0  0  0  0
  9 10  1  0  0  0  0
  9 21  1  0  0  0  0
 10 11  2  0  0  0  0
 10 12  1  0  0  0  0
 12 13  1  0  0  0  0
 12 31  1  0  0  0  0
 13 14  1  0  0  0  0
 13 32  1  0  0  0  0
 13 33  1  0  0  0  0
 14 15  1  0  0  0  0
 14 34  1  0  0  0  0
 14 35  1  0  0  0  0
 15 20  1  0  0  0  0
 15 16  2  0  0  0  0
 16 17  1  0  0  0  0
 16 36  1  0  0  0  0
 17 18  2  0  0  0  0
 17 37  1  0  0  0  0
 18 19  1  0  0  0  0
 18 38  1  0  0  0  0
 19 20  2  0  0  0  0
 19 39  1  0  0  0  0
 21 22  1  0  0  0  0
 21 40  1  0  0  0  0
 21 41  1  0  0  0  0
 22 42  1  0  0  0  0
 22 43  1  0  0  0  0
M  CHG  1   5  -1
M  END
> <s_m_source_file>
AV-unprocessed.smi

> <i_m_source_file_index>
1629

> <i_lp_mmshare_version>
43012

> <i_f3d_flags>
0

> <s_epik_input>
W0NIM11TKD1PKSg9TylbTkhdW0NIXTFbQ0gyXVtDSDJdTihbQ0gyXVtDSDJdMSlDKD1PKVtOSF1bQ0gyXVtDSDJdYzJbY0hdW2NIXVtjSF1bY0hdbjI=

> <s_epik_cmdline>
J2VwaWtfcHl0aG9uJywgJy1waCcsICc3LjAnLCAnLXRuJywgJzgnLCAnLW1hJywgJzIwMCcsICctbWV0YWxfYmluZGluZycsICctaW1hZScsICc8aW5maWxlLm1hZT4nLCAnLW9tYWUnLCAnPG91dGZpbGUubWFlPic=

> <r_epik_Ionization_Penalty>
6.75298

> <r_epik_Ionization_Penalty_Charging>
6.70803

> <r_epik_Ionization_Penalty_Neutral>
0.0449518

> <r_epik_State_Penalty>
6.74601

> <r_epik_Charging_Adjusted_Penalty>
13.454

> <i_epik_Tot_Q>
-1

> <i_epik_Tot_abs_Q>
1

> <r_epik_Metal_State_Penalty>
2.70902

> <b_epik_Metal_Only>
1

> <s_lp_Force_Field>
OPLS_2005

> <r_lp_Energy>
26.8071

> <b_lp_Chiralities_Consistent>
1

> <s_lp_Variant>
AV-unprocessed.smi:1629-3

> <Gold.Version>
5.8.1

> <Gold.Id.Protein>
6NUR|6NUR_protein|mol2

> <Gold.PLP.Fitness>
45.9781

> <Gold.PLP.PLP>
-41.6947

> <Gold.PLP.part.hbond>
-3.0000

> <Gold.PLP.part.metal>
0.0000

> <Gold.PLP.part.buried>
-7.4020

> <Gold.PLP.part.nonpolar>
-32.6305

> <Gold.PLP.part.repulsive>
0.3190

> <Gold.PLP.ligand.clash>
0.0000

> <Gold.PLP.ligand.torsion>
1.3185

> <Gold.PLP.Chemscore.Hbond>
1.9760

> <Gold.PLP.Chemscore.CHOScore>
0.0000

> <Gold.PLP.Chemscore.Metal>
0.0000

> <Gold.Chemscore.Hbonds>
donor molecule, donor type, donor heavy atom, donor atom, acceptor molecule, acceptor atom, score
      P1  H  6896  6909       L1     4  1.00
      P1  H  7989  7998       L1    11  1.00

> <Gold.PLP.Chemscore.Internal.Correction>
0.9925

> <Gold.Rescore>
     Score         DG    S(hbond)    S(metal)    S(lipo)     H(rot)  DE(clash)    DE(int)     intcor
     18.15     -19.55       1.95        0.00     101.24       1.68       0.07       1.32       ----

> <Gold.Chemscore.Fitness>
18.1515

> <Gold.Chemscore.DG>
-19.5454

> <Gold.Chemscore.ZeroCoef>
-5.4800

> <Gold.Chemscore.Hbond>
1.9536

> <Gold.Chemscore.Metal>
0.0000

> <Gold.Chemscore.Lipo>
101.2351

> <Gold.Chemscore.Internal_Hbond>
0.0000

> <Gold.Chemscore.DEClash>
0.0701

> <Gold.Chemscore.DEInternal>
1.3237

> <Gold.Chemscore.Rot>
1.6813

> <Gold.Chemscore.Internal.Correction>
   9.000000E+99

> <Gold.Chemscore.Hbonds>
donor molecule, donor type, donor heavy atom, donor atom, acceptor molecule, acceptor atom, score
      P1  H  6896  6909       L1     4  0.47
      P1  H  7989  7998       L1    11  0.34

> <Gold.Chemscore.Hbond.Weighted>
-6.5252

> <Gold.Chemscore.Metal.Weighted>
-0.0000

> <Gold.Chemscore.Lipo.Weighted>
-11.8445

> <Gold.Chemscore.Internal_Hbond.Weighted>
0.0000

> <Gold.Chemscore.DEClash.Weighted>
0.0701

> <Gold.Chemscore.DEInternal.Weighted>
1.3237

> <Gold.Chemscore.Rot.Weighted>
4.3042

> <Gold.Chemscore.Internal.Correction.Weighted>
   9.000000E+99

> <Gold.Protein.RotatedTorsions>
[ 6907 6896 6895 6894 ] final  -40.55 input  -60.11 | X-H torsion
[ 7974 7965 7964 7962 ] final -122.29 input  175.53 | X-H torsion
[ 8008 7997 7996 7995 ] final -179.87 input   59.86 | X-H torsion
[ 10167 10162 10161 10158 ] final  168.03 input  -65.29 | X-H torsion
[ 10718 10713 10712 10709 ] final    4.43 input   66.30 | X-H torsion
[ 10763 10752 10751 10750 ] final -132.34 input  -60.55 | X-H torsion
[ 11005 11000 10999 10996 ] final  -51.28 input  -57.11 | X-H torsion

> <Gold.Protein.ActiveResidues>
 VAL166  LYS551  ARG553  GLY616  TRP617  ASP618  TYR619  PRO620  LYS621  CYS622 
 ASP623  PHE694  ASN695  SER759  ASP760  ASP761  ALA762  ILE779  LEU786  VAL792 
 PHE793  MET794  SER795  GLU796  ALA797  LYS798  CYS799  TRP800  GLU811  SER814 

> <Gold.Protein.RotatedAtoms>
  150.9771  134.9134  159.7822 H   0  0  0  0  0  0  0  0  0  0  0  0  # atno 6907 bound_to 6896
  152.5210  134.3461  159.9244 H   0  0  0  0  0  0  0  0  0  0  0  0  # atno 6908 bound_to 6896
  151.3468  133.3900  159.2711 H   0  0  0  0  0  0  0  0  0  0  0  0  # atno 6909 bound_to 6896
  145.0310  140.8068  143.4323 H   0  0  0  0  0  0  0  0  0  0  0  0  # atno 7974 bound_to 7965
  156.0354  140.1291  157.0213 H   0  0  0  0  0  0  0  0  0  0  0  0  # atno 8008 bound_to 7997
  154.4368  140.1041  156.6231 H   0  0  0  0  0  0  0  0  0  0  0  0  # atno 8009 bound_to 7997
  155.5745  140.3467  155.4526 H   0  0  0  0  0  0  0  0  0  0  0  0  # atno 8010 bound_to 7997
  139.4958  144.3858  151.9572 H   0  0  0  0  0  0  0  0  0  0  0  0  # atno 10167 bound_to 10162
  156.8926  130.5693  149.5649 H   0  0  0  0  0  0  0  0  0  0  0  0  # atno 10718 bound_to 10713
  154.8744  135.3801  154.4393 H   0  0  0  0  0  0  0  0  0  0  0  0  # atno 10763 bound_to 10752
  153.5080  135.7030  153.5801 H   0  0  0  0  0  0  0  0  0  0  0  0  # atno 10764 bound_to 10752
  153.4103  135.3926  155.2012 H   0  0  0  0  0  0  0  0  0  0  0  0  # atno 10765 bound_to 10752
  141.0862  133.6642  156.3854 H   0  0  0  0  0  0  0  0  0  0  0  0  # atno 11005 bound_to 11000
  145.1770  139.2372  143.5312 LP  0  0  0  0  0  0  0  0  0  0  0  0  # atno 17320 bound_to 7965
  146.3498  140.1535  142.8592 LP  0  0  0  0  0  0  0  0  0  0  0  0  # atno 17321 bound_to 7965
  140.3295  144.3333  150.5990 LP  0  0  0  0  0  0  0  0  0  0  0  0  # atno 17342 bound_to 10162
  140.5656  143.2186  151.7688 LP  0  0  0  0  0  0  0  0  0  0  0  0  # atno 17343 bound_to 10162
  156.0621  130.5672  150.9215 LP  0  0  0  0  0  0  0  0  0  0  0  0  # atno 17370 bound_to 10713
  157.6075  131.0938  150.8854 LP  0  0  0  0  0  0  0  0  0  0  0  0  # atno 17371 bound_to 10713
  140.5357  134.6169  157.5364 LP  0  0  0  0  0  0  0  0  0  0  0  0  # atno 17394 bound_to 11000
  139.9681  134.7339  156.0097 LP  0  0  0  0  0  0  0  0  0  0  0  0  # atno 17395 bound_to 11000

$$$$
