AV-unprocessed.smi:2087|AV-procd|sdf|8521|dock8
  -GOLD-   2272011233D 1   1.00000     0.00000
 Structure written by MMmdl.
 51 52  0  0  0  0  0  0  0  0  2 V2000
  145.0388  136.1019  150.7285 C   0  0  0  0  0  0  0  0  0  0  0  0
  144.6334  136.2705  152.2005 C   0  0  0  0  0  0  0  0  0  0  0  0
  143.1081  136.1452  152.3540 C   0  0  0  0  0  0  0  0  0  0  0  0
  145.1610  137.6103  152.7587 C   0  0  0  0  0  0  0  0  0  0  0  0
  146.5647  137.5263  153.2468 N   0  3  2  0  0  0  0  0  0  0  0  0
  146.7409  136.5996  154.3908 C   0  0  0  0  0  0  0  0  0  0  0  0
  146.2635  137.2430  155.7041 C   0  0  0  0  0  0  0  0  0  0  0  0
  146.9729  138.4566  155.9177 O   0  0  0  0  0  0  0  0  0  0  0  0
  146.7393  139.4174  154.8933 C   0  0  1  0  0  0  0  0  0  0  0  0
  147.4938  140.6984  155.2821 C   0  0  0  0  0  0  0  0  0  0  0  0
  148.7628  140.3929  155.9311 N   0  0  0  0  0  0  0  0  0  0  0  0
  149.9158  141.0282  155.6799 C   0  0  0  0  0  0  0  0  0  0  0  0
  150.0118  141.9553  154.8749 O   0  0  0  0  0  0  0  0  0  0  0  0
  151.1353  140.5505  156.4801 C   0  0  0  0  0  0  0  0  0  0  0  0
  151.5116  141.4690  157.5625 N   0  0  0  0  0  0  0  0  0  0  0  0
  150.8476  142.6749  157.6979 C   0  0  0  0  0  0  0  0  0  0  0  0
  151.1399  143.5830  158.6542 C   0  0  0  0  0  0  0  0  0  0  0  0
  152.1990  143.3319  159.6233 C   0  0  0  0  0  0  0  0  0  0  0  0
  152.5131  144.1316  160.5062 O   0  0  0  0  0  0  0  0  0  0  0  0
  152.8552  142.0888  159.4702 N   0  0  0  0  0  0  0  0  0  0  0  0
  153.9242  141.8015  160.4039 C   0  0  0  0  0  0  0  0  0  0  0  0
  152.5534  141.1462  158.4596 C   0  0  0  0  0  0  0  0  0  0  0  0
  153.1653  140.0818  158.3440 O   0  0  0  0  0  0  0  0  0  0  0  0
  147.2060  138.8349  153.5370 C   0  0  0  0  0  0  0  0  0  0  0  0
  144.6050  136.8836  150.1038 H   0  0  0  0  0  0  0  0  0  0  0  0
  144.7057  135.1404  150.3363 H   0  0  0  0  0  0  0  0  0  0  0  0
  146.1221  136.1447  150.6106 H   0  0  0  0  0  0  0  0  0  0  0  0
  145.0931  135.4472  152.7460 H   0  0  0  0  0  0  0  0  0  0  0  0
  142.5885  136.9478  151.8294 H   0  0  0  0  0  0  0  0  0  0  0  0
  142.8067  136.1814  153.4012 H   0  0  0  0  0  0  0  0  0  0  0  0
  142.7503  135.1985  151.9480 H   0  0  0  0  0  0  0  0  0  0  0  0
  145.0738  138.3954  152.0076 H   0  0  0  0  0  0  0  0  0  0  0  0
  144.5105  137.9117  153.5810 H   0  0  0  0  0  0  0  0  0  0  0  0
  146.2248  135.6562  154.2084 H   0  0  0  0  0  0  0  0  0  0  0  0
  147.8008  136.3557  154.4745 H   0  0  0  0  0  0  0  0  0  0  0  0
  145.1884  137.4281  155.6896 H   0  0  0  0  0  0  0  0  0  0  0  0
  146.4577  136.5722  156.5412 H   0  0  0  0  0  0  0  0  0  0  0  0
  145.6726  139.6443  154.8617 H   0  0  0  0  0  0  0  0  0  0  0  0
  147.6952  141.2954  154.3914 H   0  0  0  0  0  0  0  0  0  0  0  0
  146.8712  141.3083  155.9391 H   0  0  0  0  0  0  0  0  0  0  0  0
  148.7694  139.6419  156.6060 H   0  0  0  0  0  0  0  0  0  0  0  0
  150.9066  139.5662  156.8908 H   0  0  0  0  0  0  0  0  0  0  0  0
  151.9818  140.3988  155.8078 H   0  0  0  0  0  0  0  0  0  0  0  0
  150.0568  142.9087  156.9999 H   0  0  0  0  0  0  0  0  0  0  0  0
  150.5849  144.5084  158.7009 H   0  0  0  0  0  0  0  0  0  0  0  0
  154.2324  140.7582  160.3406 H   0  0  0  0  0  0  0  0  0  0  0  0
  153.5502  141.9953  161.4110 H   0  0  0  0  0  0  0  0  0  0  0  0
  154.7532  142.4647  160.1518 H   0  0  0  0  0  0  0  0  0  0  0  0
  148.2851  138.6781  153.5665 H   0  0  0  0  0  0  0  0  0  0  0  0
  147.0287  139.5408  152.7271 H   0  0  0  0  0  0  0  0  0  0  0  0
  147.0805  137.1160  152.4812 H   0  0  0  0  0  0  0  0  0  0  0  0
  1  2  1  0  0  0  0
  1 25  1  0  0  0  0
  1 26  1  0  0  0  0
  1 27  1  0  0  0  0
  2  3  1  0  0  0  0
  2  4  1  0  0  0  0
  2 28  1  0  0  0  0
  3 29  1  0  0  0  0
  3 30  1  0  0  0  0
  3 31  1  0  0  0  0
  4  5  1  0  0  0  0
  4 32  1  0  0  0  0
  4 33  1  0  0  0  0
  5 24  1  0  0  0  0
  5  6  1  0  0  0  0
  5 51  1  0  0  0  0
  6  7  1  0  0  0  0
  6 34  1  0  0  0  0
  6 35  1  0  0  0  0
  7  8  1  0  0  0  0
  7 36  1  0  0  0  0
  7 37  1  0  0  0  0
  8  9  1  0  0  0  0
  9 10  1  0  0  0  0
  9 24  1  0  0  0  0
  9 38  1  0  0  0  0
 10 11  1  0  0  0  0
 10 39  1  0  0  0  0
 10 40  1  0  0  0  0
 11 12  1  0  0  0  0
 11 41  1  0  0  0  0
 12 13  2  0  0  0  0
 12 14  1  0  0  0  0
 14 15  1  0  0  0  0
 14 42  1  0  0  0  0
 14 43  1  0  0  0  0
 15 22  1  0  0  0  0
 15 16  1  0  0  0  0
 16 17  2  0  0  0  0
 16 44  1  0  0  0  0
 17 18  1  0  0  0  0
 17 45  1  0  0  0  0
 18 19  2  0  0  0  0
 18 20  1  0  0  0  0
 20 21  1  0  0  0  0
 20 22  1  0  0  0  0
 21 46  1  0  0  0  0
 21 47  1  0  0  0  0
 21 48  1  0  0  0  0
 22 23  2  0  0  0  0
 24 49  1  0  0  0  0
 24 50  1  0  0  0  0
M  CHG  1   5   1
M  END
> <s_m_source_file>
AV-unprocessed.smi

> <i_m_source_file_index>
2087

> <i_lp_mmshare_version>
43012

> <i_f3d_flags>
0

> <s_epik_input>
W0NIM11bQ0hdKFtDSDNdKVtDSDJdTjFbQ0gyXVtDSDJdT1tDQEhdKFtDSDJdMSlbQ0gyXVtOSF1DKD1PKVtDSDJdbjJbY0hdW2NIXWMoPU8pbihbQ0gzXSljMj1P

> <s_epik_cmdline>
J2VwaWtfcHl0aG9uJywgJy1waCcsICc3LjAnLCAnLXRuJywgJzgnLCAnLW1hJywgJzIwMCcsICctbWV0YWxfYmluZGluZycsICctaW1hZScsICc8aW5maWxlLm1hZT4nLCAnLW9tYWUnLCAnPG91dGZpbGUubWFlPic=

> <r_lp_tautomer_probability>
1

> <r_epik_Ionization_Penalty>
0.097593

> <r_epik_Ionization_Penalty_Charging>
0.097593

> <r_epik_Ionization_Penalty_Neutral>
6.27044e-08

> <r_epik_State_Penalty>
0.0877056

> <r_epik_Charging_Adjusted_Penalty>
0.185299

> <i_epik_Tot_Q>
1

> <i_epik_Tot_abs_Q>
1

> <r_epik_Metal_State_Penalty>
0.0877109

> <b_epik_Metal_Only>
0

> <s_lp_Force_Field>
OPLS_2005

> <r_lp_Energy>
29.4179

> <b_lp_Chiralities_Consistent>
1

> <s_lp_Variant>
AV-unprocessed.smi:2087-2

> <Gold.Version>
5.8.1

> <Gold.Id.Protein>
6NUR|6NUR_protein|mol2

> <Gold.PLP.Fitness>
46.6130

> <Gold.PLP.PLP>
-35.5225

> <Gold.PLP.part.hbond>
-3.8828

> <Gold.PLP.part.metal>
0.0000

> <Gold.PLP.part.buried>
-0.9490

> <Gold.PLP.part.nonpolar>
-30.8931

> <Gold.PLP.part.repulsive>
0.2674

> <Gold.PLP.ligand.clash>
0.0000

> <Gold.PLP.ligand.torsion>
0.9203

> <Gold.PLP.Chemscore.Hbond>
3.2609

> <Gold.PLP.Chemscore.CHOScore>
1.0000

> <Gold.PLP.Chemscore.Metal>
0.0000

> <Gold.Chemscore.Hbonds>
donor molecule, donor type, donor heavy atom, donor atom, acceptor molecule, acceptor atom, score
      L1  H     5    51       P1  7948  1.30
      P1  H  7989  7998       L1    13  0.03
      P1  H  7997  8008       L1    23  1.00
      L1  C    16    44       P1  8028  0.99

> <Gold.PLP.Chemscore.Internal.Correction>
0.1485

> <Gold.Rescore>
     Score         DG    S(hbond)    S(metal)    S(lipo)     H(rot)  DE(clash)    DE(int)     intcor
     11.76     -14.53       2.05        0.00      67.60       2.22       1.53       1.24       ----

> <Gold.Chemscore.Fitness>
11.7598

> <Gold.Chemscore.DG>
-14.5328

> <Gold.Chemscore.ZeroCoef>
-5.4800

> <Gold.Chemscore.Hbond>
2.0477

> <Gold.Chemscore.Metal>
0.0000

> <Gold.Chemscore.Lipo>
67.5992

> <Gold.Chemscore.Internal_Hbond>
0.0000

> <Gold.Chemscore.DEClash>
1.5298

> <Gold.Chemscore.DEInternal>
1.2432

> <Gold.Chemscore.Rot>
2.2249

> <Gold.Chemscore.Internal.Correction>
   9.000000E+99

> <Gold.Chemscore.Hbonds>
donor molecule, donor type, donor heavy atom, donor atom, acceptor molecule, acceptor atom, score
      L1  H     5    51       P1  7948  0.63
      P1  H  7989  7998       L1    13  0.01
      P1  H  7997  8008       L1    23  0.89

> <Gold.Chemscore.Hbond.Weighted>
-6.8394

> <Gold.Chemscore.Metal.Weighted>
-0.0000

> <Gold.Chemscore.Lipo.Weighted>
-7.9091

> <Gold.Chemscore.Internal_Hbond.Weighted>
0.0000

> <Gold.Chemscore.DEClash.Weighted>
1.5298

> <Gold.Chemscore.DEInternal.Weighted>
1.2432

> <Gold.Chemscore.Rot.Weighted>
5.6957

> <Gold.Chemscore.Internal.Correction.Weighted>
   9.000000E+99

> <Gold.Protein.RotatedTorsions>
[ 6907 6896 6895 6894 ] final  -22.44 input  -60.11 | X-H torsion
[ 7974 7965 7964 7962 ] final   63.22 input  175.53 | X-H torsion
[ 8008 7997 7996 7995 ] final  -84.98 input   59.86 | X-H torsion
[ 10167 10162 10161 10158 ] final    9.44 input  -65.29 | X-H torsion
[ 10718 10713 10712 10709 ] final -160.97 input   66.30 | X-H torsion
[ 10763 10752 10751 10750 ] final   42.48 input  -60.55 | X-H torsion
[ 11005 11000 10999 10996 ] final -178.93 input  -57.11 | X-H torsion

> <Gold.Protein.ActiveResidues>
 VAL166  LYS551  ARG553  GLY616  TRP617  ASP618  TYR619  PRO620  LYS621  CYS622 
 ASP623  PHE694  ASN695  SER759  ASP760  ASP761  ALA762  ILE779  LEU786  VAL792 
 PHE793  MET794  SER795  GLU796  ALA797  LYS798  CYS799  TRP800  GLU811  SER814 

> <Gold.Protein.RotatedAtoms>
  151.2186  135.0509  159.8940 H   0  0  0  0  0  0  0  0  0  0  0  0  # atno 6907 bound_to 6896
  152.5417  134.0666  159.8185 H   0  0  0  0  0  0  0  0  0  0  0  0  # atno 6908 bound_to 6896
  151.0829  133.5328  159.2651 H   0  0  0  0  0  0  0  0  0  0  0  0  # atno 6909 bound_to 6896
  145.8643  139.3336  143.0800 H   0  0  0  0  0  0  0  0  0  0  0  0  # atno 7974 bound_to 7965
  154.6358  140.0597  156.9786 H   0  0  0  0  0  0  0  0  0  0  0  0  # atno 8008 bound_to 7997
  155.1594  140.3281  155.4396 H   0  0  0  0  0  0  0  0  0  0  0  0  # atno 8009 bound_to 7997
  156.2506  140.1933  156.6702 H   0  0  0  0  0  0  0  0  0  0  0  0  # atno 8010 bound_to 7997
  140.6255  143.8111  150.7227 H   0  0  0  0  0  0  0  0  0  0  0  0  # atno 10167 bound_to 10162
  156.5896  130.8764  151.2886 H   0  0  0  0  0  0  0  0  0  0  0  0  # atno 10718 bound_to 10713
  152.9882  135.6130  154.2956 H   0  0  0  0  0  0  0  0  0  0  0  0  # atno 10763 bound_to 10752
  154.2679  135.2780  155.2752 H   0  0  0  0  0  0  0  0  0  0  0  0  # atno 10764 bound_to 10752
  154.5148  135.5831  153.6690 H   0  0  0  0  0  0  0  0  0  0  0  0  # atno 10765 bound_to 10752
  140.4243  134.6577  157.4680 H   0  0  0  0  0  0  0  0  0  0  0  0  # atno 11005 bound_to 11000
  145.9211  140.9114  143.0404 LP  0  0  0  0  0  0  0  0  0  0  0  0  # atno 17320 bound_to 7965
  144.6726  140.1290  143.7445 LP  0  0  0  0  0  0  0  0  0  0  0  0  # atno 17321 bound_to 7965
  140.1710  143.4194  152.2000 LP  0  0  0  0  0  0  0  0  0  0  0  0  # atno 17342 bound_to 10162
  139.5476  144.7311  151.4535 LP  0  0  0  0  0  0  0  0  0  0  0  0  # atno 17343 bound_to 10162
  157.7307  130.9689  150.1845 LP  0  0  0  0  0  0  0  0  0  0  0  0  # atno 17370 bound_to 10713
  156.2561  130.3706  149.8180 LP  0  0  0  0  0  0  0  0  0  0  0  0  # atno 17371 bound_to 10713
  140.0178  134.6592  155.9283 LP  0  0  0  0  0  0  0  0  0  0  0  0  # atno 17394 bound_to 11000
  141.1771  133.6541  156.4873 LP  0  0  0  0  0  0  0  0  0  0  0  0  # atno 17395 bound_to 11000

$$$$
