AV-unprocessed.smi:1687|AV-procd|sdf|6767|dock5
  -GOLD-   22720 7523D 1   1.00000     0.00000
 Structure written by MMmdl.
 45 46  0  0  0  0  0  0  0  0  2 V2000
  145.4425  136.3085  151.3647 C   0  0  0  0  0  0  0  0  0  0  0  0
  146.2427  137.3921  152.1009 C   0  0  2  0  0  0  0  0  0  0  0  0
  145.5477  137.8345  153.3966 C   0  0  0  0  0  0  0  0  0  0  0  0
  146.3552  138.9314  154.1084 C   0  0  0  0  0  0  0  0  0  0  0  0
  146.5623  140.1204  153.2323 N   0  3  1  0  0  0  0  0  0  0  0  0
  147.1698  141.2677  153.9832 C   0  0  1  0  0  0  0  0  0  0  0  0
  146.3359  141.7415  155.1984 C   0  0  0  0  0  0  0  0  0  0  0  0
  148.6063  140.8967  154.4361 C   0  0  0  0  0  0  0  0  0  0  0  0
  149.2268  141.9229  155.2689 N   0  0  0  0  0  0  0  0  0  0  0  0
  149.9096  141.6760  156.3964 C   0  0  0  0  0  0  0  0  0  0  0  0
  150.0941  140.5407  156.8366 O   0  0  0  0  0  0  0  0  0  0  0  0
  150.3528  142.8132  156.9606 N   0  0  0  0  0  0  0  0  0  0  0  0
  151.0951  142.9639  158.1625 C   0  0  0  0  0  0  0  0  0  0  0  0
  151.9122  141.8624  158.5041 C   0  0  0  0  0  0  0  0  0  0  0  0
  152.6885  141.9133  159.6781 C   0  0  0  0  0  0  0  0  0  0  0  0
  152.6276  143.0656  160.4817 C   0  0  0  0  0  0  0  0  0  0  0  0
  151.7886  144.1174  160.0699 C   0  0  0  0  0  0  0  0  0  0  0  0
  151.0436  144.0708  158.9451 N   0  0  0  0  0  0  0  0  0  0  0  0
  147.2523  139.7244  151.9698 C   0  0  0  0  0  0  0  0  0  0  0  0
  146.4781  138.6267  151.2187 C   0  0  0  0  0  0  0  0  0  0  0  0
  144.4566  136.6708  151.0717 H   0  0  0  0  0  0  0  0  0  0  0  0
  145.3005  135.4298  151.9947 H   0  0  0  0  0  0  0  0  0  0  0  0
  145.9603  135.9845  150.4615 H   0  0  0  0  0  0  0  0  0  0  0  0
  147.2137  136.9683  152.3617 H   0  0  0  0  0  0  0  0  0  0  0  0
  144.5440  138.2018  153.1774 H   0  0  0  0  0  0  0  0  0  0  0  0
  145.4255  136.9800  154.0635 H   0  0  0  0  0  0  0  0  0  0  0  0
  145.8322  139.2054  155.0233 H   0  0  0  0  0  0  0  0  0  0  0  0
  147.3244  138.5359  154.4169 H   0  0  0  0  0  0  0  0  0  0  0  0
  147.2211  142.1145  153.2970 H   0  0  0  0  0  0  0  0  0  0  0  0
  146.8233  142.5624  155.7242 H   0  0  0  0  0  0  0  0  0  0  0  0
  146.1881  140.9376  155.9201 H   0  0  0  0  0  0  0  0  0  0  0  0
  145.3581  142.1204  154.9002 H   0  0  0  0  0  0  0  0  0  0  0  0
  148.5809  139.9706  155.0113 H   0  0  0  0  0  0  0  0  0  0  0  0
  149.2645  140.7015  153.5900 H   0  0  0  0  0  0  0  0  0  0  0  0
  149.1180  142.8823  154.9735 H   0  0  0  0  0  0  0  0  0  0  0  0
  150.1258  143.6719  156.4815 H   0  0  0  0  0  0  0  0  0  0  0  0
  151.9476  140.9843  157.8758 H   0  0  0  0  0  0  0  0  0  0  0  0
  153.3191  141.0819  159.9568 H   0  0  0  0  0  0  0  0  0  0  0  0
  153.2075  143.1417  161.3896 H   0  0  0  0  0  0  0  0  0  0  0  0
  151.7133  145.0195  160.6588 H   0  0  0  0  0  0  0  0  0  0  0  0
  147.3366  140.5714  151.2899 H   0  0  0  0  0  0  0  0  0  0  0  0
  148.2646  139.3860  152.1955 H   0  0  0  0  0  0  0  0  0  0  0  0
  147.0279  138.3424  150.3207 H   0  0  0  0  0  0  0  0  0  0  0  0
  145.5209  139.0260  150.8795 H   0  0  0  0  0  0  0  0  0  0  0  0
  145.6454  140.4351  152.9489 H   0  0  0  0  0  0  0  0  0  0  0  0
  1  2  1  0  0  0  0
  1 21  1  0  0  0  0
  1 22  1  0  0  0  0
  1 23  1  0  0  0  0
  2 20  1  0  0  0  0
  2  3  1  0  0  0  0
  2 24  1  0  0  0  0
  3  4  1  0  0  0  0
  3 25  1  0  0  0  0
  3 26  1  0  0  0  0
  4  5  1  0  0  0  0
  4 27  1  0  0  0  0
  4 28  1  0  0  0  0
  5  6  1  0  0  0  0
  5 19  1  0  0  0  0
  5 45  1  0  0  0  0
  6  7  1  0  0  0  0
  6  8  1  0  0  0  0
  6 29  1  0  0  0  0
  7 30  1  0  0  0  0
  7 31  1  0  0  0  0
  7 32  1  0  0  0  0
  8  9  1  0  0  0  0
  8 33  1  0  0  0  0
  8 34  1  0  0  0  0
  9 10  1  0  0  0  0
  9 35  1  0  0  0  0
 10 11  2  0  0  0  0
 10 12  1  0  0  0  0
 12 13  1  0  0  0  0
 12 36  1  0  0  0  0
 13 18  1  0  0  0  0
 13 14  2  0  0  0  0
 14 15  1  0  0  0  0
 14 37  1  0  0  0  0
 15 16  2  0  0  0  0
 15 38  1  0  0  0  0
 16 17  1  0  0  0  0
 16 39  1  0  0  0  0
 17 18  2  0  0  0  0
 17 40  1  0  0  0  0
 19 20  1  0  0  0  0
 19 41  1  0  0  0  0
 19 42  1  0  0  0  0
 20 43  1  0  0  0  0
 20 44  1  0  0  0  0
M  CHG  1   5   1
M  END
> <s_m_source_file>
AV-unprocessed.smi

> <i_m_source_file_index>
1687

> <i_lp_mmshare_version>
43012

> <i_f3d_flags>
0

> <s_epik_input>
W0NIM11bQ0hdMVtDSDJdW0NIMl1OKFtDSDJdW0NIMl0xKVtDQEhdKFtDSDNdKVtDSDJdW05IXUMoPU8pW05IXWMyW2NIXVtjSF1bY0hdW2NIXW4y

> <s_epik_cmdline>
J2VwaWtfcHl0aG9uJywgJy1waCcsICc3LjAnLCAnLXRuJywgJzgnLCAnLW1hJywgJzIwMCcsICctbWV0YWxfYmluZGluZycsICctaW1hZScsICc8aW5maWxlLm1hZT4nLCAnLW9tYWUnLCAnPG91dGZpbGUubWFlPic=

> <r_epik_Ionization_Penalty>
0.00142891

> <r_epik_Ionization_Penalty_Charging>
0.00139388

> <r_epik_Ionization_Penalty_Neutral>
3.50347e-05

> <r_epik_State_Penalty>
0.000929204

> <r_epik_Charging_Adjusted_Penalty>
0.00232308

> <i_epik_Tot_Q>
1

> <i_epik_Tot_abs_Q>
1

> <r_epik_Metal_State_Penalty>
-0

> <b_epik_Metal_Only>
0

> <s_lp_Force_Field>
OPLS_2005

> <r_lp_Energy>
22.8653

> <b_lp_Chiralities_Consistent>
1

> <s_lp_Variant>
AV-unprocessed.smi:1687-2

> <Gold.Version>
5.8.1

> <Gold.Id.Protein>
6NUR|6NUR_protein|mol2

> <Gold.PLP.Fitness>
48.4375

> <Gold.PLP.PLP>
-37.5778

> <Gold.PLP.part.hbond>
-3.0000

> <Gold.PLP.part.metal>
0.0000

> <Gold.PLP.part.buried>
1.9180

> <Gold.PLP.part.nonpolar>
-38.5071

> <Gold.PLP.part.repulsive>
0.3551

> <Gold.PLP.ligand.clash>
0.0000

> <Gold.PLP.ligand.torsion>
0.3198

> <Gold.PLP.Chemscore.Hbond>
3.8080

> <Gold.PLP.Chemscore.CHOScore>
0.0000

> <Gold.PLP.Chemscore.Metal>
0.0000

> <Gold.Chemscore.Hbonds>
donor molecule, donor type, donor heavy atom, donor atom, acceptor molecule, acceptor atom, score
      L1  H     5    45       P1 10175  2.00
      L1  H     9    35       P1  8028  0.88
      L1  H    12    36       P1  8028  1.00

> <Gold.PLP.Chemscore.Internal.Correction>
0.0754

> <Gold.Rescore>
     Score         DG    S(hbond)    S(metal)    S(lipo)     H(rot)  DE(clash)    DE(int)     intcor
     18.54     -22.71       2.90        0.00      97.37       1.50       2.43       1.74       ----

> <Gold.Chemscore.Fitness>
18.5431

> <Gold.Chemscore.DG>
-22.7147

> <Gold.Chemscore.ZeroCoef>
-5.4800

> <Gold.Chemscore.Hbond>
2.8956

> <Gold.Chemscore.Metal>
0.0000

> <Gold.Chemscore.Lipo>
97.3700

> <Gold.Chemscore.Internal_Hbond>
0.0000

> <Gold.Chemscore.DEClash>
2.4324

> <Gold.Chemscore.DEInternal>
1.7392

> <Gold.Chemscore.Rot>
1.4956

> <Gold.Chemscore.Internal.Correction>
   9.000000E+99

> <Gold.Chemscore.Hbonds>
donor molecule, donor type, donor heavy atom, donor atom, acceptor molecule, acceptor atom, score
      L1  H     5    45       P1 10175  0.80
      L1  H     9    35       P1  8028  0.85
      L1  H    12    36       P1  8028  0.94

> <Gold.Chemscore.Hbond.Weighted>
-9.6713

> <Gold.Chemscore.Metal.Weighted>
-0.0000

> <Gold.Chemscore.Lipo.Weighted>
-11.3923

> <Gold.Chemscore.Internal_Hbond.Weighted>
0.0000

> <Gold.Chemscore.DEClash.Weighted>
2.4324

> <Gold.Chemscore.DEInternal.Weighted>
1.7392

> <Gold.Chemscore.Rot.Weighted>
3.8289

> <Gold.Chemscore.Internal.Correction.Weighted>
   9.000000E+99

> <Gold.Protein.RotatedTorsions>
[ 6907 6896 6895 6894 ] final -146.72 input  -60.11 | X-H torsion
[ 7974 7965 7964 7962 ] final  -29.00 input  175.53 | X-H torsion
[ 8008 7997 7996 7995 ] final   58.62 input   59.86 | X-H torsion
[ 10167 10162 10161 10158 ] final  101.74 input  -65.29 | X-H torsion
[ 10718 10713 10712 10709 ] final  -57.92 input   66.30 | X-H torsion
[ 10763 10752 10751 10750 ] final   38.31 input  -60.55 | X-H torsion
[ 11005 11000 10999 10996 ] final   58.68 input  -57.11 | X-H torsion

> <Gold.Protein.ActiveResidues>
 VAL166  LYS551  ARG553  GLY616  TRP617  ASP618  TYR619  PRO620  LYS621  CYS622 
 ASP623  PHE694  ASN695  SER759  ASP760  ASP761  ALA762  ILE779  LEU786  VAL792 
 PHE793  MET794  SER795  GLU796  ALA797  LYS798  CYS799  TRP800  GLU811  SER814 

> <Gold.Protein.RotatedAtoms>
  151.1456  133.4942  159.2595 H   0  0  0  0  0  0  0  0  0  0  0  0  # atno 6907 bound_to 6896
  151.1609  135.0272  159.8719 H   0  0  0  0  0  0  0  0  0  0  0  0  # atno 6908 bound_to 6896
  152.5463  134.1330  159.8500 H   0  0  0  0  0  0  0  0  0  0  0  0  # atno 6909 bound_to 6896
  146.1248  140.5356  142.8719 H   0  0  0  0  0  0  0  0  0  0  0  0  # atno 7974 bound_to 7965
  155.5529  140.3486  155.4473 H   0  0  0  0  0  0  0  0  0  0  0  0  # atno 8008 bound_to 7997
  156.0570  140.1331  157.0011 H   0  0  0  0  0  0  0  0  0  0  0  0  # atno 8009 bound_to 7997
  154.4461  140.0993  156.6445 H   0  0  0  0  0  0  0  0  0  0  0  0  # atno 8010 bound_to 7997
  139.7412  144.7011  151.0573 H   0  0  0  0  0  0  0  0  0  0  0  0  # atno 10167 bound_to 10162
  156.1174  130.4169  150.0506 H   0  0  0  0  0  0  0  0  0  0  0  0  # atno 10718 bound_to 10713
  153.0005  135.6253  154.2285 H   0  0  0  0  0  0  0  0  0  0  0  0  # atno 10763 bound_to 10752
  154.2027  135.2803  155.2987 H   0  0  0  0  0  0  0  0  0  0  0  0  # atno 10764 bound_to 10752
  154.5670  135.5688  153.7119 H   0  0  0  0  0  0  0  0  0  0  0  0  # atno 10765 bound_to 10752
  140.0360  134.5943  155.9444 H   0  0  0  0  0  0  0  0  0  0  0  0  # atno 11005 bound_to 11000
  144.7632  140.5469  143.6721 LP  0  0  0  0  0  0  0  0  0  0  0  0  # atno 17320 bound_to 7965
  145.5389  139.1475  143.3458 LP  0  0  0  0  0  0  0  0  0  0  0  0  # atno 17321 bound_to 7965
  140.7786  143.4923  150.9878 LP  0  0  0  0  0  0  0  0  0  0  0  0  # atno 17342 bound_to 10162
  139.8611  143.7314  152.3173 LP  0  0  0  0  0  0  0  0  0  0  0  0  # atno 17343 bound_to 10162
  156.8453  130.9440  151.3629 LP  0  0  0  0  0  0  0  0  0  0  0  0  # atno 17370 bound_to 10713
  157.6357  130.8765  149.9355 LP  0  0  0  0  0  0  0  0  0  0  0  0  # atno 17371 bound_to 10713
  141.1857  133.6555  156.5210 LP  0  0  0  0  0  0  0  0  0  0  0  0  # atno 17394 bound_to 11000
  140.4148  134.7240  157.4856 LP  0  0  0  0  0  0  0  0  0  0  0  0  # atno 17395 bound_to 11000

$$$$
