AV-unprocessed.smi:3251|AV-procd|sdf|12438|dock9
  -GOLD-   2272018333D 1   1.00000     0.00000
 Structure written by MMmdl.
 40 41  0  0  0  0  0  0  0  0  1 V2000
  147.0253  141.8342  154.2736 C   0  0  0  0  0  0  0  0  0  0  0  0
  148.3974  141.3670  154.6661 C   0  0  0  0  0  0  0  0  0  0  0  0
  149.1720  140.3290  154.0736 C   0  0  0  0  0  0  0  0  0  0  0  0
  150.3463  140.1647  154.6601 N   0  0  0  0  0  0  0  0  0  0  0  0
  150.3640  141.0888  155.6438 N   0  0  0  0  0  0  0  0  0  0  0  0
  151.5227  141.1992  156.5086 C   0  0  0  0  0  0  0  0  0  0  0  0
  151.1822  140.8389  157.9619 C   0  0  0  0  0  0  0  0  0  0  0  0
  150.8159  142.0518  158.6852 N   0  0  0  0  0  0  0  0  0  0  0  0
  151.8200  143.1271  158.5789 C   0  0  1  0  0  0  0  0  0  0  0  0
  151.3581  144.1578  157.5372 C   0  0  0  0  0  0  0  0  0  0  0  0
  152.1117  143.8358  159.9217 C   0  0  0  0  0  0  0  0  0  0  0  0
  151.7282  144.9967  160.0763 O   0  0  0  0  0  0  0  0  0  0  0  0
  152.7802  143.1745  160.8918 N   0  0  0  0  0  0  0  0  0  0  0  0
  153.0785  143.7612  162.1976 C   0  0  0  0  0  0  0  0  0  0  0  0
  153.6272  142.6196  163.0532 C   0  0  0  0  0  0  0  0  0  0  0  0
  154.2070  141.6441  162.0398 C   0  0  0  0  0  0  0  0  0  0  0  0
  153.3213  141.8181  160.8058 C   0  0  0  0  0  0  0  0  0  0  0  0
  149.2007  141.8281  155.6705 C   0  0  0  0  0  0  0  0  0  0  0  0
  146.6941  141.3803  153.3392 H   0  0  0  0  0  0  0  0  0  0  0  0
  146.9920  142.9148  154.1347 H   0  0  0  0  0  0  0  0  0  0  0  0
  146.2841  141.5838  155.0325 H   0  0  0  0  0  0  0  0  0  0  0  0
  148.9163  139.6931  153.2389 H   0  0  0  0  0  0  0  0  0  0  0  0
  152.3033  140.5408  156.1243 H   0  0  0  0  0  0  0  0  0  0  0  0
  151.9077  142.2184  156.4454 H   0  0  0  0  0  0  0  0  0  0  0  0
  150.3686  140.1129  157.9787 H   0  0  0  0  0  0  0  0  0  0  0  0
  152.0454  140.3741  158.4405 H   0  0  0  0  0  0  0  0  0  0  0  0
  149.9092  142.3651  158.3704 H   0  0  0  0  0  0  0  0  0  0  0  0
  152.7302  142.6655  158.1976 H   0  0  0  0  0  0  0  0  0  0  0  0
  152.0978  144.9481  157.4034 H   0  0  0  0  0  0  0  0  0  0  0  0
  150.4185  144.6288  157.8294 H   0  0  0  0  0  0  0  0  0  0  0  0
  151.2049  143.6895  156.5645 H   0  0  0  0  0  0  0  0  0  0  0  0
  153.8308  144.5414  162.0720 H   0  0  0  0  0  0  0  0  0  0  0  0
  152.1966  144.2108  162.6566 H   0  0  0  0  0  0  0  0  0  0  0  0
  154.3610  142.9552  163.7866 H   0  0  0  0  0  0  0  0  0  0  0  0
  152.8091  142.1412  163.5932 H   0  0  0  0  0  0  0  0  0  0  0  0
  155.2305  141.9345  161.7990 H   0  0  0  0  0  0  0  0  0  0  0  0
  154.2279  140.6168  162.4043 H   0  0  0  0  0  0  0  0  0  0  0  0
  152.4967  141.1041  160.8272 H   0  0  0  0  0  0  0  0  0  0  0  0
  153.8927  141.6568  159.8908 H   0  0  0  0  0  0  0  0  0  0  0  0
  149.0422  142.6137  156.3947 H   0  0  0  0  0  0  0  0  0  0  0  0
  1  2  1  0  0  0  0
  1 19  1  0  0  0  0
  1 20  1  0  0  0  0
  1 21  1  0  0  0  0
  2 18  2  0  0  0  0
  2  3  1  0  0  0  0
  3  4  2  0  0  0  0
  3 22  1  0  0  0  0
  4  5  1  0  0  0  0
  5  6  1  0  0  0  0
  5 18  1  0  0  0  0
  6  7  1  0  0  0  0
  6 23  1  0  0  0  0
  6 24  1  0  0  0  0
  7  8  1  0  0  0  0
  7 25  1  0  0  0  0
  7 26  1  0  0  0  0
  8  9  1  0  0  0  0
  8 27  1  0  0  0  0
  9 10  1  0  0  0  0
  9 11  1  0  0  0  0
  9 28  1  0  0  0  0
 10 29  1  0  0  0  0
 10 30  1  0  0  0  0
 10 31  1  0  0  0  0
 11 12  2  0  0  0  0
 11 13  1  0  0  0  0
 13 17  1  0  0  0  0
 13 14  1  0  0  0  0
 14 15  1  0  0  0  0
 14 32  1  0  0  0  0
 14 33  1  0  0  0  0
 15 16  1  0  0  0  0
 15 34  1  0  0  0  0
 15 35  1  0  0  0  0
 16 17  1  0  0  0  0
 16 36  1  0  0  0  0
 16 37  1  0  0  0  0
 17 38  1  0  0  0  0
 17 39  1  0  0  0  0
 18 40  1  0  0  0  0
M  END
> <s_m_source_file>
AV-unprocessed.smi

> <i_m_source_file_index>
3251

> <i_lp_mmshare_version>
43012

> <i_f3d_flags>
0

> <s_epik_input>
W0NIM11jMVtjSF1ubihbY0hdMSlbQ0gyXVtDSDJdW05IXVtDQEhdKFtDSDNdKUMoPU8pTjJbQ0gyXVtDSDJdW0NIMl1bQ0gyXTI=

> <s_epik_cmdline>
J2VwaWtfcHl0aG9uJywgJy1waCcsICc3LjAnLCAnLXRuJywgJzgnLCAnLW1hJywgJzIwMCcsICctbWV0YWxfYmluZGluZycsICctaW1hZScsICc8aW5maWxlLm1hZT4nLCAnLW9tYWUnLCAnPG91dGZpbGUubWFlPic=

> <r_lp_tautomer_probability>
1

> <r_epik_Ionization_Penalty>
0.734676

> <r_epik_Ionization_Penalty_Charging>
0

> <r_epik_Ionization_Penalty_Neutral>
0.734676

> <r_epik_State_Penalty>
0.75825

> <r_epik_Charging_Adjusted_Penalty>
0.75825

> <i_epik_Tot_Q>
0

> <i_epik_Tot_abs_Q>
0

> <r_epik_Metal_State_Penalty>
0.756914

> <b_epik_Metal_Only>
0

> <s_lp_Force_Field>
OPLS_2005

> <r_lp_Energy>
31.4715

> <b_lp_Chiralities_Consistent>
1

> <s_lp_Variant>
AV-unprocessed.smi:3251-4

> <Gold.Version>
5.8.1

> <Gold.Id.Protein>
6NUR|6NUR_protein|mol2

> <Gold.PLP.Fitness>
50.1119

> <Gold.PLP.PLP>
-44.0187

> <Gold.PLP.part.hbond>
-1.0000

> <Gold.PLP.part.metal>
0.0000

> <Gold.PLP.part.buried>
-0.0844

> <Gold.PLP.part.nonpolar>
-41.3097

> <Gold.PLP.part.repulsive>
0.1869

> <Gold.PLP.ligand.clash>
0.0000

> <Gold.PLP.ligand.torsion>
1.0989

> <Gold.PLP.Chemscore.Hbond>
1.0000

> <Gold.PLP.Chemscore.CHOScore>
1.7530

> <Gold.PLP.Chemscore.Metal>
0.0000

> <Gold.Chemscore.Hbonds>
donor molecule, donor type, donor heavy atom, donor atom, acceptor molecule, acceptor atom, score
      P1  H  7989  7998       L1     4  1.00
      L1  C     3    22       P1  7957  0.88
      L1  C    18    40       P1  8028  0.77

> <Gold.PLP.Chemscore.Internal.Correction>
0.0320

> <Gold.Rescore>
     Score         DG    S(hbond)    S(metal)    S(lipo)     H(rot)  DE(clash)    DE(int)     intcor
     14.69     -15.88       0.84        0.00     101.90       1.70       0.24       0.94       ----

> <Gold.Chemscore.Fitness>
14.6944

> <Gold.Chemscore.DG>
-15.8815

> <Gold.Chemscore.ZeroCoef>
-5.4800

> <Gold.Chemscore.Hbond>
0.8438

> <Gold.Chemscore.Metal>
0.0000

> <Gold.Chemscore.Lipo>
101.9041

> <Gold.Chemscore.Internal_Hbond>
0.0000

> <Gold.Chemscore.DEClash>
0.2434

> <Gold.Chemscore.DEInternal>
0.9437

> <Gold.Chemscore.Rot>
1.6951

> <Gold.Chemscore.Internal.Correction>
   9.000000E+99

> <Gold.Chemscore.Hbonds>
donor molecule, donor type, donor heavy atom, donor atom, acceptor molecule, acceptor atom, score
      P1  H  7989  7998       L1     4  0.16

> <Gold.Chemscore.Hbond.Weighted>
-2.8183

> <Gold.Chemscore.Metal.Weighted>
-0.0000

> <Gold.Chemscore.Lipo.Weighted>
-11.9228

> <Gold.Chemscore.Internal_Hbond.Weighted>
0.0000

> <Gold.Chemscore.DEClash.Weighted>
0.2434

> <Gold.Chemscore.DEInternal.Weighted>
0.9437

> <Gold.Chemscore.Rot.Weighted>
4.3395

> <Gold.Chemscore.Internal.Correction.Weighted>
   9.000000E+99

> <Gold.Protein.RotatedTorsions>
[ 6907 6896 6895 6894 ] final   63.29 input  -60.11 | X-H torsion
[ 7974 7965 7964 7962 ] final   75.52 input  175.53 | X-H torsion
[ 8008 7997 7996 7995 ] final   -9.24 input   59.86 | X-H torsion
[ 10167 10162 10161 10158 ] final -127.71 input  -65.29 | X-H torsion
[ 10718 10713 10712 10709 ] final -161.11 input   66.30 | X-H torsion
[ 10763 10752 10751 10750 ] final  159.52 input  -60.55 | X-H torsion
[ 11005 11000 10999 10996 ] final   29.54 input  -57.11 | X-H torsion

> <Gold.Protein.ActiveResidues>
 VAL166  LYS551  ARG553  GLY616  TRP617  ASP618  TYR619  PRO620  LYS621  CYS622 
 ASP623  PHE694  ASN695  SER759  ASP760  ASP761  ALA762  ILE779  LEU786  VAL792 
 PHE793  MET794  SER795  GLU796  ALA797  LYS798  CYS799  TRP800  GLU811  SER814 

> <Gold.Protein.RotatedAtoms>
  152.4241  134.5900  159.9971 H   0  0  0  0  0  0  0  0  0  0  0  0  # atno 6907 bound_to 6896
  151.6042  133.3348  159.3061 H   0  0  0  0  0  0  0  0  0  0  0  0  # atno 6908 bound_to 6896
  150.8130  134.7333  159.6770 H   0  0  0  0  0  0  0  0  0  0  0  0  # atno 6909 bound_to 6896
  145.7145  139.2626  143.1632 H   0  0  0  0  0  0  0  0  0  0  0  0  # atno 7974 bound_to 7965
  154.5665  140.2360  155.8256 H   0  0  0  0  0  0  0  0  0  0  0  0  # atno 8008 bound_to 7997
  156.2072  140.3036  155.9612 H   0  0  0  0  0  0  0  0  0  0  0  0  # atno 8009 bound_to 7997
  155.2792  140.0421  157.3004 H   0  0  0  0  0  0  0  0  0  0  0  0  # atno 8010 bound_to 7997
  139.9579  143.5982  152.2454 H   0  0  0  0  0  0  0  0  0  0  0  0  # atno 10167 bound_to 10162
  156.5916  130.8772  151.2891 H   0  0  0  0  0  0  0  0  0  0  0  0  # atno 10718 bound_to 10713
  154.2331  135.2777  155.2882 H   0  0  0  0  0  0  0  0  0  0  0  0  # atno 10763 bound_to 10752
  154.5607  135.5648  153.7008 H   0  0  0  0  0  0  0  0  0  0  0  0  # atno 10764 bound_to 10752
  153.0016  135.6297  154.2473 H   0  0  0  0  0  0  0  0  0  0  0  0  # atno 10765 bound_to 10752
  140.3038  134.2726  155.7748 H   0  0  0  0  0  0  0  0  0  0  0  0  # atno 11005 bound_to 11000
  146.0682  140.7897  142.9701 LP  0  0  0  0  0  0  0  0  0  0  0  0  # atno 17320 bound_to 7965
  144.6933  140.3302  143.7217 LP  0  0  0  0  0  0  0  0  0  0  0  0  # atno 17321 bound_to 7965
  139.6577  144.7662  151.2024 LP  0  0  0  0  0  0  0  0  0  0  0  0  # atno 17342 bound_to 10162
  140.7562  143.6060  150.8652 LP  0  0  0  0  0  0  0  0  0  0  0  0  # atno 17343 bound_to 10162
  157.7302  130.9682  150.1822 LP  0  0  0  0  0  0  0  0  0  0  0  0  # atno 17370 bound_to 10713
  156.2545  130.3704  149.8197 LP  0  0  0  0  0  0  0  0  0  0  0  0  # atno 17371 bound_to 10713
  141.2122  133.7663  156.9806 LP  0  0  0  0  0  0  0  0  0  0  0  0  # atno 17394 bound_to 11000
  140.1085  134.9491  157.2030 LP  0  0  0  0  0  0  0  0  0  0  0  0  # atno 17395 bound_to 11000

$$$$
