AV-unprocessed.smi:1572|AV-procd|sdf|6331|dock7
  -GOLD-   22720 6543D 1   1.00000     0.00000
 Structure written by MMmdl.
 42 43  0  0  0  0  0  0  0  0  3 V2000
  146.5247  133.6795  155.4503 C   0  0  0  0  0  0  0  0  0  0  0  0
  147.2033  134.0227  154.2052 N   0  0  0  0  0  0  0  0  0  0  0  0
  146.7983  135.3211  153.6676 C   0  0  0  0  0  0  0  0  0  0  0  0
  147.3423  136.4983  154.5043 C   0  0  0  0  0  0  0  0  0  0  0  0
  148.8298  136.4404  154.5912 N   0  3  0  0  0  0  0  0  0  0  0  0
  149.5012  137.6482  155.1933 C   0  0  0  0  0  0  0  0  0  0  0  0
  150.9851  137.3254  155.5014 C   0  0  0  0  0  0  0  0  0  0  0  0
  149.5221  138.7976  154.1538 C   0  0  0  0  0  0  0  0  0  0  0  0
  148.7820  138.1020  156.4995 C   0  0  0  0  0  0  0  0  0  0  0  0
  148.6258  137.0266  157.4778 N   0  0  0  0  0  0  0  0  0  0  0  0
  149.0678  137.0300  158.7435 C   0  0  0  0  0  0  0  0  0  0  0  0
  149.6703  138.0114  159.1846 O   0  0  0  0  0  0  0  0  0  0  0  0
  148.7923  135.8902  159.4154 N   0  5  0  0  0  0  0  0  0  0  0  0
  147.9044  135.9039  160.4233 C   0  0  0  0  0  0  0  0  0  0  0  0
  147.4690  137.0447  160.9814 N   0  0  0  0  0  0  0  0  0  0  0  0
  146.5552  136.8373  162.0057 N   0  0  0  0  0  0  0  0  0  0  0  0
  146.3154  135.5389  162.1871 C   0  0  0  0  0  0  0  0  0  0  0  0
  147.1838  134.4521  161.1240 S   0  0  0  0  0  0  0  0  0  0  0  0
  149.2336  135.1212  155.1562 C   0  0  0  0  0  0  0  0  0  0  0  0
  148.6609  133.9665  154.3083 C   0  0  0  0  0  0  0  0  0  0  0  0
  145.4446  133.6741  155.3009 H   0  0  0  0  0  0  0  0  0  0  0  0
  146.7488  134.3755  156.2578 H   0  0  0  0  0  0  0  0  0  0  0  0
  146.8173  132.6808  155.7757 H   0  0  0  0  0  0  0  0  0  0  0  0
  147.1657  135.4024  152.6437 H   0  0  0  0  0  0  0  0  0  0  0  0
  145.7101  135.3682  153.6083 H   0  0  0  0  0  0  0  0  0  0  0  0
  147.0116  137.4137  154.0185 H   0  0  0  0  0  0  0  0  0  0  0  0
  146.8964  136.4966  155.4984 H   0  0  0  0  0  0  0  0  0  0  0  0
  151.5504  138.2252  155.7472 H   0  0  0  0  0  0  0  0  0  0  0  0
  151.4785  136.8630  154.6458 H   0  0  0  0  0  0  0  0  0  0  0  0
  151.0971  136.6593  156.3565 H   0  0  0  0  0  0  0  0  0  0  0  0
  150.1808  139.6103  154.4614 H   0  0  0  0  0  0  0  0  0  0  0  0
  148.5392  139.2459  154.0107 H   0  0  0  0  0  0  0  0  0  0  0  0
  149.8794  138.4508  153.1835 H   0  0  0  0  0  0  0  0  0  0  0  0
  149.2947  138.9466  156.9599 H   0  0  0  0  0  0  0  0  0  0  0  0
  147.7758  138.4545  156.2762 H   0  0  0  0  0  0  0  0  0  0  0  0
  148.1383  136.1987  157.1676 H   0  0  0  0  0  0  0  0  0  0  0  0
  145.6226  135.2190  162.9509 H   0  0  0  0  0  0  0  0  0  0  0  0
  150.3155  135.0082  155.1563 H   0  0  0  0  0  0  0  0  0  0  0  0
  148.9113  135.0293  156.1931 H   0  0  0  0  0  0  0  0  0  0  0  0
  148.9607  133.0041  154.7248 H   0  0  0  0  0  0  0  0  0  0  0  0
  149.0818  134.0110  153.3028 H   0  0  0  0  0  0  0  0  0  0  0  0
  149.1479  136.4247  153.6331 H   0  0  0  0  0  0  0  0  0  0  0  0
  1  2  1  0  0  0  0
  1 21  1  0  0  0  0
  1 22  1  0  0  0  0
  1 23  1  0  0  0  0
  2 20  1  0  0  0  0
  2  3  1  0  0  0  0
  3  4  1  0  0  0  0
  3 24  1  0  0  0  0
  3 25  1  0  0  0  0
  4  5  1  0  0  0  0
  4 26  1  0  0  0  0
  4 27  1  0  0  0  0
  5  6  1  0  0  0  0
  5 19  1  0  0  0  0
  5 42  1  0  0  0  0
  6  7  1  0  0  0  0
  6  8  1  0  0  0  0
  6  9  1  0  0  0  0
  7 28  1  0  0  0  0
  7 29  1  0  0  0  0
  7 30  1  0  0  0  0
  8 31  1  0  0  0  0
  8 32  1  0  0  0  0
  8 33  1  0  0  0  0
  9 10  1  0  0  0  0
  9 34  1  0  0  0  0
  9 35  1  0  0  0  0
 10 11  1  0  0  0  0
 10 36  1  0  0  0  0
 11 12  2  0  0  0  0
 11 13  1  0  0  0  0
 13 14  1  0  0  0  0
 14 18  1  0  0  0  0
 14 15  2  0  0  0  0
 15 16  1  0  0  0  0
 16 17  2  0  0  0  0
 17 18  1  0  0  0  0
 17 37  1  0  0  0  0
 19 20  1  0  0  0  0
 19 38  1  0  0  0  0
 19 39  1  0  0  0  0
 20 40  1  0  0  0  0
 20 41  1  0  0  0  0
M  CHG  1   5   1
M  CHG  1  13  -1
M  END
> <s_m_source_file>
AV-unprocessed.smi

> <i_m_source_file_index>
1572

> <i_lp_mmshare_version>
43012

> <i_f3d_flags>
0

> <s_epik_input>
W0NIM11OMVtDSDJdW0NIMl1OKFtDSDJdW0NIMl0xKUMoW0NIM10pKFtDSDNdKVtDSDJdW05IXUMoPU8pW05IXWMybm5bY0hdczI=

> <s_epik_cmdline>
J2VwaWtfcHl0aG9uJywgJy1waCcsICc3LjAnLCAnLXRuJywgJzgnLCAnLW1hJywgJzIwMCcsICctbWV0YWxfYmluZGluZycsICctaW1hZScsICc8aW5maWxlLm1hZT4nLCAnLW9tYWUnLCAnPG91dGZpbGUubWFlPic=

> <r_epik_Ionization_Penalty>
3.12043

> <r_epik_Ionization_Penalty_Charging>
3.08547

> <r_epik_Ionization_Penalty_Neutral>
0.0349584

> <r_epik_State_Penalty>
4.04075

> <r_epik_Charging_Adjusted_Penalty>
7.12622

> <i_epik_Tot_Q>
0

> <i_epik_Tot_abs_Q>
2

> <r_epik_Metal_State_Penalty>
1.47091

> <b_epik_Metal_Only>
1

> <s_lp_Force_Field>
OPLS_2005

> <r_lp_Energy>
19.1563

> <b_lp_Chiralities_Consistent>
1

> <s_lp_Variant>
AV-unprocessed.smi:1572-5

> <Gold.Version>
5.8.1

> <Gold.Id.Protein>
6NUR|6NUR_protein|mol2

> <Gold.PLP.Fitness>
39.1723

> <Gold.PLP.PLP>
-25.2456

> <Gold.PLP.part.hbond>
-5.3940

> <Gold.PLP.part.metal>
0.0000

> <Gold.PLP.part.buried>
-2.9668

> <Gold.PLP.part.nonpolar>
-17.0126

> <Gold.PLP.part.repulsive>
0.1022

> <Gold.PLP.ligand.clash>
0.0000

> <Gold.PLP.ligand.torsion>
1.2766

> <Gold.PLP.Chemscore.Hbond>
5.4512

> <Gold.PLP.Chemscore.CHOScore>
0.0000

> <Gold.PLP.Chemscore.Metal>
0.0000

> <Gold.Chemscore.Hbonds>
donor molecule, donor type, donor heavy atom, donor atom, acceptor molecule, acceptor atom, score
      L1  H     5    42       P1  7948  2.00
      P1  H  6896  6909       L1    13  0.78
      P1  H  6931  6943       L1    15  0.58
      P1  H  6934  6947       L1    15  0.70

> <Gold.PLP.Chemscore.Internal.Correction>
0.1264

> <Gold.Rescore>
     Score         DG    S(hbond)    S(metal)    S(lipo)     H(rot)  DE(clash)    DE(int)     intcor
     13.72     -15.35       2.73        0.00      42.94       1.67       0.01       1.62       ----

> <Gold.Chemscore.Fitness>
13.7212

> <Gold.Chemscore.DG>
-15.3484

> <Gold.Chemscore.ZeroCoef>
-5.4800

> <Gold.Chemscore.Hbond>
2.7302

> <Gold.Chemscore.Metal>
0.0000

> <Gold.Chemscore.Lipo>
42.9351

> <Gold.Chemscore.Internal_Hbond>
0.0000

> <Gold.Chemscore.DEClash>
0.0059

> <Gold.Chemscore.DEInternal>
1.6213

> <Gold.Chemscore.Rot>
1.6694

> <Gold.Chemscore.Internal.Correction>
   9.000000E+99

> <Gold.Chemscore.Hbonds>
donor molecule, donor type, donor heavy atom, donor atom, acceptor molecule, acceptor atom, score
      L1  H     5    42       P1  7948  0.95
      P1  H  6896  6909       L1    13  0.27
      P1  H  6931  6943       L1    15  0.22
      P1  H  6934  6947       L1    15  0.07

> <Gold.Chemscore.Hbond.Weighted>
-9.1187

> <Gold.Chemscore.Metal.Weighted>
-0.0000

> <Gold.Chemscore.Lipo.Weighted>
-5.0234

> <Gold.Chemscore.Internal_Hbond.Weighted>
0.0000

> <Gold.Chemscore.DEClash.Weighted>
0.0059

> <Gold.Chemscore.DEInternal.Weighted>
1.6213

> <Gold.Chemscore.Rot.Weighted>
4.2738

> <Gold.Chemscore.Internal.Correction.Weighted>
   9.000000E+99

> <Gold.Protein.RotatedTorsions>
[ 6907 6896 6895 6894 ] final   55.78 input  -60.11 | X-H torsion
[ 7974 7965 7964 7962 ] final  -54.70 input  175.53 | X-H torsion
[ 8008 7997 7996 7995 ] final   15.66 input   59.86 | X-H torsion
[ 10167 10162 10161 10158 ] final  139.46 input  -65.29 | X-H torsion
[ 10718 10713 10712 10709 ] final   92.92 input   66.30 | X-H torsion
[ 10763 10752 10751 10750 ] final  116.09 input  -60.55 | X-H torsion
[ 11005 11000 10999 10996 ] final  -15.22 input  -57.11 | X-H torsion

> <Gold.Protein.ActiveResidues>
 VAL166  LYS551  ARG553  GLY616  TRP617  ASP618  TYR619  PRO620  LYS621  CYS622 
 ASP623  PHE694  ASN695  SER759  ASP760  ASP761  ALA762  ILE779  LEU786  VAL792 
 PHE793  MET794  SER795  GLU796  ALA797  LYS798  CYS799  TRP800  GLU811  SER814 

> <Gold.Protein.RotatedAtoms>
  152.3572  134.6922  160.0218 H   0  0  0  0  0  0  0  0  0  0  0  0  # atno 6907 bound_to 6896
  151.7257  133.3310  159.3335 H   0  0  0  0  0  0  0  0  0  0  0  0  # atno 6908 bound_to 6896
  150.7580  134.6342  159.6247 H   0  0  0  0  0  0  0  0  0  0  0  0  # atno 6909 bound_to 6896
  145.8825  140.8133  142.9832 H   0  0  0  0  0  0  0  0  0  0  0  0  # atno 7974 bound_to 7965
  154.8659  140.2951  155.5511 H   0  0  0  0  0  0  0  0  0  0  0  0  # atno 8008 bound_to 7997
  156.3021  140.2469  156.3573 H   0  0  0  0  0  0  0  0  0  0  0  0  # atno 8009 bound_to 7997
  154.8869  140.0396  157.1804 H   0  0  0  0  0  0  0  0  0  0  0  0  # atno 8010 bound_to 7997
  139.5078  144.6293  151.5858 H   0  0  0  0  0  0  0  0  0  0  0  0  # atno 10167 bound_to 10162
  157.6957  131.0460  150.3956 H   0  0  0  0  0  0  0  0  0  0  0  0  # atno 10718 bound_to 10713
  153.5320  135.3576  155.2680 H   0  0  0  0  0  0  0  0  0  0  0  0  # atno 10763 bound_to 10752
  154.8726  135.4070  154.3140 H   0  0  0  0  0  0  0  0  0  0  0  0  # atno 10764 bound_to 10752
  153.3831  135.7069  153.6618 H   0  0  0  0  0  0  0  0  0  0  0  0  # atno 10765 bound_to 10752
  140.7944  133.8263  155.9410 H   0  0  0  0  0  0  0  0  0  0  0  0  # atno 11005 bound_to 11000
  144.6727  140.1406  143.7437 LP  0  0  0  0  0  0  0  0  0  0  0  0  # atno 17320 bound_to 7965
  145.9006  139.2428  143.1496 LP  0  0  0  0  0  0  0  0  0  0  0  0  # atno 17321 bound_to 7965
  140.6021  143.9592  150.6393 LP  0  0  0  0  0  0  0  0  0  0  0  0  # atno 17342 bound_to 10162
  140.2806  143.3392  152.1154 LP  0  0  0  0  0  0  0  0  0  0  0  0  # atno 17343 bound_to 10162
  156.4354  130.3980  149.6732 LP  0  0  0  0  0  0  0  0  0  0  0  0  # atno 17370 bound_to 10713
  156.3934  130.7639  151.2641 LP  0  0  0  0  0  0  0  0  0  0  0  0  # atno 17371 bound_to 10713
  140.9358  134.1964  157.4833 LP  0  0  0  0  0  0  0  0  0  0  0  0  # atno 17394 bound_to 11000
  139.8728  134.9851  156.5269 LP  0  0  0  0  0  0  0  0  0  0  0  0  # atno 17395 bound_to 11000

$$$$
