AV-unprocessed.smi:1383|AV-procd|sdf|5625|dock5
  -GOLD-   22720 5243D 1   1.00000     0.00000
 Structure written by MMmdl.
 30 30  0  0  0  0  0  0  0  0  2 V2000
  153.3216  142.7318  161.9694 C   0  0  0  0  0  0  0  0  0  0  0  0
  153.3217  141.9447  160.6494 C   0  0  0  0  0  0  0  0  0  0  0  0
  152.3895  142.5271  159.5631 C   0  0  1  0  0  0  0  0  0  0  0  0
  152.9180  143.8743  159.0412 C   0  0  0  0  0  0  0  0  0  0  0  0
  152.1929  141.5491  158.3886 C   0  0  0  0  0  0  0  0  0  0  0  0
  152.8803  140.5272  158.3336 O   0  0  0  0  0  0  0  0  0  0  0  0
  151.2347  141.9696  157.5276 N   0  5  0  0  0  0  0  0  0  0  0  0
  150.8054  141.1442  156.5608 C   0  0  0  0  0  0  0  0  0  0  0  0
  151.3923  139.9734  156.2894 N   0  0  0  0  0  0  0  0  0  0  0  0
  150.7780  139.2651  155.2523 C   0  0  0  0  0  0  0  0  0  0  0  0
  151.3246  137.9323  154.8281 C   0  0  0  0  0  0  0  0  0  0  0  0
  150.3024  136.8222  155.0848 C   0  0  0  0  0  0  0  0  0  0  0  0
  149.0798  136.9846  154.5707 N   0  0  0  0  0  0  0  0  0  0  0  0
  150.6089  135.8343  155.7494 O   0  0  0  0  0  0  0  0  0  0  0  0
  149.6954  139.9202  154.7238 C   0  0  0  0  0  0  0  0  0  0  0  0
  149.4108  141.4410  155.5211 S   0  0  0  0  0  0  0  0  0  0  0  0
  154.0377  142.3062  162.6725 H   0  0  0  0  0  0  0  0  0  0  0  0
  152.3424  142.7153  162.4489 H   0  0  0  0  0  0  0  0  0  0  0  0
  153.5964  143.7740  161.8045 H   0  0  0  0  0  0  0  0  0  0  0  0
  154.3418  141.9242  160.2647 H   0  0  0  0  0  0  0  0  0  0  0  0
  153.0596  140.9049  160.8496 H   0  0  0  0  0  0  0  0  0  0  0  0
  151.4259  142.7292  160.0367 H   0  0  0  0  0  0  0  0  0  0  0  0
  152.2656  144.2829  158.2685 H   0  0  0  0  0  0  0  0  0  0  0  0
  153.9176  143.7757  158.6164 H   0  0  0  0  0  0  0  0  0  0  0  0
  152.9715  144.6096  159.8445 H   0  0  0  0  0  0  0  0  0  0  0  0
  151.5830  137.9471  153.7686 H   0  0  0  0  0  0  0  0  0  0  0  0
  152.2452  137.6994  155.3645 H   0  0  0  0  0  0  0  0  0  0  0  0
  148.3706  136.2841  154.7357 H   0  0  0  0  0  0  0  0  0  0  0  0
  148.8632  137.8144  154.0383 H   0  0  0  0  0  0  0  0  0  0  0  0
  149.0480  139.6001  153.9215 H   0  0  0  0  0  0  0  0  0  0  0  0
  1  2  1  0  0  0  0
  1 17  1  0  0  0  0
  1 18  1  0  0  0  0
  1 19  1  0  0  0  0
  2  3  1  0  0  0  0
  2 20  1  0  0  0  0
  2 21  1  0  0  0  0
  3  4  1  0  0  0  0
  3  5  1  0  0  0  0
  3 22  1  0  0  0  0
  4 23  1  0  0  0  0
  4 24  1  0  0  0  0
  4 25  1  0  0  0  0
  5  6  2  0  0  0  0
  5  7  1  0  0  0  0
  7  8  1  0  0  0  0
  8 16  1  0  0  0  0
  8  9  2  0  0  0  0
  9 10  1  0  0  0  0
 10 11  1  0  0  0  0
 10 15  2  0  0  0  0
 11 12  1  0  0  0  0
 11 26  1  0  0  0  0
 11 27  1  0  0  0  0
 12 13  1  0  0  0  0
 12 14  2  0  0  0  0
 13 28  1  0  0  0  0
 13 29  1  0  0  0  0
 15 16  1  0  0  0  0
 15 30  1  0  0  0  0
M  CHG  1   7  -1
M  END
> <s_m_source_file>
AV-unprocessed.smi

> <i_m_source_file_index>
1383

> <i_lp_mmshare_version>
43012

> <i_f3d_flags>
0

> <s_epik_input>
W0NIM11bQ0gyXVtDQEhdKFtDSDNdKUMoPU8pW05IXWMxbmMoW2NIXXMxKVtDSDJdQyg9TylbTkgyXQ==

> <s_epik_cmdline>
J2VwaWtfcHl0aG9uJywgJy1waCcsICc3LjAnLCAnLXRuJywgJzgnLCAnLW1hJywgJzIwMCcsICctbWV0YWxfYmluZGluZycsICctaW1hZScsICc8aW5maWxlLm1hZT4nLCAnLW9tYWUnLCAnPG91dGZpbGUubWFlPic=

> <r_lp_tautomer_probability>
1

> <r_epik_Ionization_Penalty>
5.3563

> <r_epik_Ionization_Penalty_Charging>
4.90463

> <r_epik_Ionization_Penalty_Neutral>
0.451677

> <r_epik_State_Penalty>
4.90447

> <r_epik_Charging_Adjusted_Penalty>
9.8091

> <i_epik_Tot_Q>
-1

> <i_epik_Tot_abs_Q>
1

> <r_epik_Metal_State_Penalty>
1.05508

> <b_epik_Metal_Only>
1

> <s_lp_Force_Field>
OPLS_2005

> <r_lp_Energy>
-0.48596

> <b_lp_Chiralities_Consistent>
1

> <s_lp_Variant>
AV-unprocessed.smi:1383-4

> <Gold.Version>
5.8.1

> <Gold.Id.Protein>
6NUR|6NUR_protein|mol2

> <Gold.PLP.Fitness>
44.5830

> <Gold.PLP.PLP>
-36.8716

> <Gold.PLP.part.hbond>
-3.4961

> <Gold.PLP.part.metal>
0.0000

> <Gold.PLP.part.buried>
-0.0896

> <Gold.PLP.part.nonpolar>
-32.4020

> <Gold.PLP.part.repulsive>
0.1753

> <Gold.PLP.ligand.clash>
0.0000

> <Gold.PLP.ligand.torsion>
0.2442

> <Gold.PLP.Chemscore.Hbond>
1.6965

> <Gold.PLP.Chemscore.CHOScore>
1.0000

> <Gold.PLP.Chemscore.Metal>
0.0000

> <Gold.Chemscore.Hbonds>
donor molecule, donor type, donor heavy atom, donor atom, acceptor molecule, acceptor atom, score
      P1  H  7997  8009       L1     6  0.48
      L1  C    15    30       P1  7957  0.17

> <Gold.PLP.Chemscore.Internal.Correction>
0.1102

> <Gold.Rescore>
     Score         DG    S(hbond)    S(metal)    S(lipo)     H(rot)  DE(clash)    DE(int)     intcor
     12.30     -14.76       1.72        0.00      77.46       2.15       0.30       2.16       ----

> <Gold.Chemscore.Fitness>
12.3044

> <Gold.Chemscore.DG>
-14.7637

> <Gold.Chemscore.ZeroCoef>
-5.4800

> <Gold.Chemscore.Hbond>
1.7166

> <Gold.Chemscore.Metal>
0.0000

> <Gold.Chemscore.Lipo>
77.4588

> <Gold.Chemscore.Internal_Hbond>
0.0000

> <Gold.Chemscore.DEClash>
0.2964

> <Gold.Chemscore.DEInternal>
2.1629

> <Gold.Chemscore.Rot>
2.1532

> <Gold.Chemscore.Internal.Correction>
   9.000000E+99

> <Gold.Chemscore.Hbonds>
donor molecule, donor type, donor heavy atom, donor atom, acceptor molecule, acceptor atom, score
      P1  H  7997  8009       L1     6  0.47

> <Gold.Chemscore.Hbond.Weighted>
-5.7333

> <Gold.Chemscore.Metal.Weighted>
-0.0000

> <Gold.Chemscore.Lipo.Weighted>
-9.0627

> <Gold.Chemscore.Internal_Hbond.Weighted>
0.0000

> <Gold.Chemscore.DEClash.Weighted>
0.2964

> <Gold.Chemscore.DEInternal.Weighted>
2.1629

> <Gold.Chemscore.Rot.Weighted>
5.5123

> <Gold.Chemscore.Internal.Correction.Weighted>
   9.000000E+99

> <Gold.Protein.RotatedTorsions>
[ 6907 6896 6895 6894 ] final  -54.53 input  -60.11 | X-H torsion
[ 7974 7965 7964 7962 ] final  -25.85 input  175.53 | X-H torsion
[ 8008 7997 7996 7995 ] final  155.13 input   59.86 | X-H torsion
[ 10167 10162 10161 10158 ] final  -87.62 input  -65.29 | X-H torsion
[ 10718 10713 10712 10709 ] final   -9.31 input   66.30 | X-H torsion
[ 10763 10752 10751 10750 ] final -157.72 input  -60.55 | X-H torsion
[ 11005 11000 10999 10996 ] final -149.89 input  -57.11 | X-H torsion

> <Gold.Protein.ActiveResidues>
 VAL166  LYS551  ARG553  GLY616  TRP617  ASP618  TYR619  PRO620  LYS621  CYS622 
 ASP623  PHE694  ASN695  SER759  ASP760  ASP761  ALA762  ILE779  LEU786  VAL792 
 PHE793  MET794  SER795  GLU796  ALA797  LYS798  CYS799  TRP800  GLU811  SER814 

> <Gold.Protein.RotatedAtoms>
  150.8330  134.7592  159.6869 H   0  0  0  0  0  0  0  0  0  0  0  0  # atno 6907 bound_to 6896
  152.4432  134.5546  159.9886 H   0  0  0  0  0  0  0  0  0  0  0  0  # atno 6908 bound_to 6896
  151.5702  133.3353  159.3024 H   0  0  0  0  0  0  0  0  0  0  0  0  # atno 6909 bound_to 6896
  146.1464  140.4941  142.8630 H   0  0  0  0  0  0  0  0  0  0  0  0  # atno 7974 bound_to 7965
  156.2495  140.1948  156.6753 H   0  0  0  0  0  0  0  0  0  0  0  0  # atno 8008 bound_to 7997
  154.6362  140.0589  156.9817 H   0  0  0  0  0  0  0  0  0  0  0  0  # atno 8009 bound_to 7997
  155.1633  140.3262  155.4409 H   0  0  0  0  0  0  0  0  0  0  0  0  # atno 8010 bound_to 7997
  140.3827  143.2741  151.9364 H   0  0  0  0  0  0  0  0  0  0  0  0  # atno 10167 bound_to 10162
  156.6898  130.5061  149.5947 H   0  0  0  0  0  0  0  0  0  0  0  0  # atno 10718 bound_to 10713
  154.7614  135.3119  154.8371 H   0  0  0  0  0  0  0  0  0  0  0  0  # atno 10763 bound_to 10752
  153.9131  135.6803  153.4754 H   0  0  0  0  0  0  0  0  0  0  0  0  # atno 10764 bound_to 10752
  153.1215  135.4820  154.9135 H   0  0  0  0  0  0  0  0  0  0  0  0  # atno 10765 bound_to 10752
  140.7460  134.3461  157.5137 H   0  0  0  0  0  0  0  0  0  0  0  0  # atno 11005 bound_to 11000
  144.7852  140.5921  143.6579 LP  0  0  0  0  0  0  0  0  0  0  0  0  # atno 17320 bound_to 7965
  145.4926  139.1488  143.3701 LP  0  0  0  0  0  0  0  0  0  0  0  0  # atno 17321 bound_to 7965
  139.4794  144.5803  151.7943 LP  0  0  0  0  0  0  0  0  0  0  0  0  # atno 17342 bound_to 10162
  140.4921  144.1295  150.5952 LP  0  0  0  0  0  0  0  0  0  0  0  0  # atno 17343 bound_to 10162
  156.1806  130.6496  151.0946 LP  0  0  0  0  0  0  0  0  0  0  0  0  # atno 17370 bound_to 10713
  157.7013  131.0775  150.6811 LP  0  0  0  0  0  0  0  0  0  0  0  0  # atno 17371 bound_to 10713
  139.8797  134.9111  156.3029 LP  0  0  0  0  0  0  0  0  0  0  0  0  # atno 17394 bound_to 11000
  140.9794  133.7277  156.0650 LP  0  0  0  0  0  0  0  0  0  0  0  0  # atno 17395 bound_to 11000

$$$$
