AV-unprocessed.smi:254|AV-procd|sdf|1948|dock1
  -GOLD-   2262021 83D 1   1.00000     0.00000
 Structure written by MMmdl.
 50 53  0  0  0  0  0  0  0  0  1 V2000
  153.6871  141.8035  160.2992 O   0  0  0  0  0  0  0  0  0  0  0  0
  152.9565  141.7127  159.3138 C   0  0  0  0  0  0  0  0  0  0  0  0
  152.5187  140.3834  158.7267 C   0  0  0  0  0  0  0  0  0  0  0  0
  151.6759  140.8213  157.6209 N   0  0  0  0  0  0  0  0  0  0  0  0
  151.0377  139.9604  156.7869 C   0  0  0  0  0  0  0  0  0  0  0  0
  150.9071  140.3129  155.4807 N   0  0  0  0  0  0  0  0  0  0  0  0
  150.2869  139.5051  154.6164 C   0  0  0  0  0  0  0  0  0  0  0  0
  149.7301  138.3147  154.8410 N   0  0  0  0  0  0  0  0  0  0  0  0
  149.8572  137.9501  156.1483 C   0  0  0  0  0  0  0  0  0  0  0  0
  150.4880  138.7035  157.1806 C   0  0  0  0  0  0  0  0  0  0  0  0
  150.4109  138.0009  158.3793 N   0  0  0  0  0  0  0  0  0  0  0  0
  149.7731  136.9044  158.0746 C   0  0  0  0  0  0  0  0  0  0  0  0
  149.4119  136.7879  156.7524 N   0  0  0  0  0  0  0  0  0  0  0  0
  148.6965  135.6829  156.1365 C   0  0  0  0  0  0  0  0  0  0  0  0
  149.6200  134.6765  155.4022 C   0  0  1  0  0  0  0  0  0  0  0  0
  150.7250  134.1390  156.3479 C   0  0  0  0  0  0  0  0  0  0  0  0
  151.7110  135.1133  156.6164 O   0  0  0  0  0  0  0  0  0  0  0  0
  148.7787  133.5333  154.7694 C   0  0  1  0  0  0  0  0  0  0  0  0
  147.8080  133.9772  153.6866 C   0  0  0  0  0  0  0  0  0  0  0  0
  147.4892  132.6693  152.9709 C   0  0  0  0  0  0  0  0  0  0  0  0
  148.6643  131.8756  153.0783 O   0  0  0  0  0  0  0  0  0  0  0  0
  149.5745  132.4768  153.9933 C   0  0  0  0  0  0  0  0  0  0  0  0
  151.5865  142.2718  157.5262 C   0  0  0  0  0  0  0  0  0  0  0  0
  152.4330  142.7273  158.6166 N   0  0  0  0  0  0  0  0  0  0  0  0
  152.6081  144.1532  158.8832 C   0  0  0  0  0  0  0  0  0  0  0  0
  151.7620  144.6368  160.0745 C   0  0  0  0  0  0  0  0  0  0  0  0
  151.9092  145.9547  160.2024 F   0  0  0  0  0  0  0  0  0  0  0  0
  150.4692  144.3723  159.8879 F   0  0  0  0  0  0  0  0  0  0  0  0
  152.1710  144.0526  161.2009 F   0  0  0  0  0  0  0  0  0  0  0  0
  153.3781  139.8103  158.3766 H   0  0  0  0  0  0  0  0  0  0  0  0
  151.9557  139.8018  159.4576 H   0  0  0  0  0  0  0  0  0  0  0  0
  150.2295  139.8639  153.5992 H   0  0  0  0  0  0  0  0  0  0  0  0
  149.5536  136.1435  158.8096 H   0  0  0  0  0  0  0  0  0  0  0  0
  148.1202  135.1694  156.9071 H   0  0  0  0  0  0  0  0  0  0  0  0
  147.9729  136.1195  155.4484 H   0  0  0  0  0  0  0  0  0  0  0  0
  150.1103  135.2219  154.5944 H   0  0  0  0  0  0  0  0  0  0  0  0
  150.3185  133.8510  157.3163 H   0  0  0  0  0  0  0  0  0  0  0  0
  151.1950  133.2492  155.9279 H   0  0  0  0  0  0  0  0  0  0  0  0
  152.5537  134.7651  156.3680 H   0  0  0  0  0  0  0  0  0  0  0  0
  148.2094  133.0297  155.5525 H   0  0  0  0  0  0  0  0  0  0  0  0
  146.9113  134.4581  154.0783 H   0  0  0  0  0  0  0  0  0  0  0  0
  148.2959  134.6705  152.9996 H   0  0  0  0  0  0  0  0  0  0  0  0
  146.6731  132.1495  153.4737 H   0  0  0  0  0  0  0  0  0  0  0  0
  147.2038  132.8226  151.9300 H   0  0  0  0  0  0  0  0  0  0  0  0
  150.3762  132.9421  153.4182 H   0  0  0  0  0  0  0  0  0  0  0  0
  150.0174  131.7237  154.6454 H   0  0  0  0  0  0  0  0  0  0  0  0
  151.9678  142.6307  156.5693 H   0  0  0  0  0  0  0  0  0  0  0  0
  150.5603  142.6146  157.6654 H   0  0  0  0  0  0  0  0  0  0  0  0
  153.6630  144.3491  159.0804 H   0  0  0  0  0  0  0  0  0  0  0  0
  152.3552  144.7250  157.9889 H   0  0  0  0  0  0  0  0  0  0  0  0
  1  2  2  0  0  0  0
  2 24  1  0  0  0  0
  2  3  1  0  0  0  0
  3  4  1  0  0  0  0
  3 30  1  0  0  0  0
  3 31  1  0  0  0  0
  4  5  1  0  0  0  0
  4 23  1  0  0  0  0
  5 10  1  0  0  0  0
  5  6  2  0  0  0  0
  6  7  1  0  0  0  0
  7  8  2  0  0  0  0
  7 32  1  0  0  0  0
  8  9  1  0  0  0  0
  9 13  1  0  0  0  0
  9 10  2  0  0  0  0
 10 11  1  0  0  0  0
 11 12  2  0  0  0  0
 12 13  1  0  0  0  0
 12 33  1  0  0  0  0
 13 14  1  0  0  0  0
 14 15  1  0  0  0  0
 14 34  1  0  0  0  0
 14 35  1  0  0  0  0
 15 16  1  0  0  0  0
 15 18  1  0  0  0  0
 15 36  1  0  0  0  0
 16 17  1  0  0  0  0
 16 37  1  0  0  0  0
 16 38  1  0  0  0  0
 17 39  1  0  0  0  0
 18 22  1  0  0  0  0
 18 19  1  0  0  0  0
 18 40  1  0  0  0  0
 19 20  1  0  0  0  0
 19 41  1  0  0  0  0
 19 42  1  0  0  0  0
 20 21  1  0  0  0  0
 20 43  1  0  0  0  0
 20 44  1  0  0  0  0
 21 22  1  0  0  0  0
 22 45  1  0  0  0  0
 22 46  1  0  0  0  0
 23 24  1  0  0  0  0
 23 47  1  0  0  0  0
 23 48  1  0  0  0  0
 24 25  1  0  0  0  0
 25 26  1  0  0  0  0
 25 49  1  0  0  0  0
 25 50  1  0  0  0  0
 26 27  1  0  0  0  0
 26 28  1  0  0  0  0
 26 29  1  0  0  0  0
M  END
> <s_m_source_file>
AV-unprocessed.smi

> <i_m_source_file_index>
254

> <i_lp_mmshare_version>
43012

> <i_f3d_flags>
0

> <s_epik_input>
RkMoRikoRilbQ0gyXU4xW0NIMl1OKFtDSDJdQzE9TyljKG5bY0hdbjIpYyhjMjMpbltjSF1uM1tDSDJdW0NASF0oW0NIMl1bT0hdKVtDQEBIXTRbQ0gyXVtDSDJdT1tDSDJdNA==

> <s_epik_cmdline>
J2VwaWtfcHl0aG9uJywgJy1waCcsICc3LjAnLCAnLXRuJywgJzgnLCAnLW1hJywgJzIwMCcsICctbWV0YWxfYmluZGluZycsICctaW1hZScsICc8aW5maWxlLm1hZT4nLCAnLW9tYWUnLCAnPG91dGZpbGUubWFlPic=

> <r_lp_tautomer_probability>
1

> <r_epik_Ionization_Penalty>
0.000292924

> <r_epik_Ionization_Penalty_Charging>
0

> <r_epik_Ionization_Penalty_Neutral>
0.000292924

> <r_epik_State_Penalty>
-0

> <r_epik_Charging_Adjusted_Penalty>
0

> <i_epik_Tot_Q>
0

> <i_epik_Tot_abs_Q>
0

> <r_epik_Metal_State_Penalty>
-0

> <b_epik_Metal_Only>
0

> <s_epik_Chemistry_Notes>
This compound contains an acetal/aminal-like group ( X-CH(R)-Y where X, Y are N, S, or O) that may be acid/base labile, releasing an aldehyde.

> <s_lp_Force_Field>
OPLS_2005

> <r_lp_Energy>
39.6801

> <b_lp_Chiralities_Consistent>
1

> <s_lp_Variant>
AV-unprocessed.smi:254-4

> <Gold.Version>
5.8.1

> <Gold.Id.Protein>
6NUR|6NUR_protein|mol2

> <Gold.PLP.Fitness>
51.5086

> <Gold.PLP.PLP>
-50.3031

> <Gold.PLP.part.hbond>
-1.3425

> <Gold.PLP.part.metal>
0.0000

> <Gold.PLP.part.buried>
-7.1682

> <Gold.PLP.part.nonpolar>
-41.2552

> <Gold.PLP.part.repulsive>
0.8073

> <Gold.PLP.ligand.clash>
0.0000

> <Gold.PLP.ligand.torsion>
1.1927

> <Gold.PLP.Chemscore.Hbond>
0.0000

> <Gold.PLP.Chemscore.CHOScore>
0.9781

> <Gold.PLP.Chemscore.Metal>
0.0000

> <Gold.Chemscore.Hbonds>
donor molecule, donor type, donor heavy atom, donor atom, acceptor molecule, acceptor atom, score
      L1  C     7    32       P1  7957  1.00

> <Gold.PLP.Chemscore.Internal.Correction>
0.6566

> <Gold.Rescore>
     Score         DG    S(hbond)    S(metal)    S(lipo)     H(rot)  DE(clash)    DE(int)     intcor
      0.70      -4.29       0.00        0.00      61.95       3.30       0.06       3.53       ----

> <Gold.Chemscore.Fitness>
0.6985

> <Gold.Chemscore.DG>
-4.2862

> <Gold.Chemscore.ZeroCoef>
-5.4800

> <Gold.Chemscore.Hbond>
0.0000

> <Gold.Chemscore.Metal>
0.0000

> <Gold.Chemscore.Lipo>
61.9459

> <Gold.Chemscore.Internal_Hbond>
0.0000

> <Gold.Chemscore.DEClash>
0.0563

> <Gold.Chemscore.DEInternal>
3.5315

> <Gold.Chemscore.Rot>
3.2974

> <Gold.Chemscore.Internal.Correction>
   9.000000E+99

> <Gold.Chemscore.Hbond.Weighted>
-0.0000

> <Gold.Chemscore.Metal.Weighted>
-0.0000

> <Gold.Chemscore.Lipo.Weighted>
-7.2477

> <Gold.Chemscore.Internal_Hbond.Weighted>
0.0000

> <Gold.Chemscore.DEClash.Weighted>
0.0563

> <Gold.Chemscore.DEInternal.Weighted>
3.5315

> <Gold.Chemscore.Rot.Weighted>
8.4414

> <Gold.Chemscore.Internal.Correction.Weighted>
   9.000000E+99

> <Gold.Protein.RotatedTorsions>
[ 6907 6896 6895 6894 ] final   65.10 input  -60.11 | X-H torsion
[ 7974 7965 7964 7962 ] final    5.05 input  175.53 | X-H torsion
[ 8008 7997 7996 7995 ] final   -2.71 input   59.86 | X-H torsion
[ 10167 10162 10161 10158 ] final -156.92 input  -65.29 | X-H torsion
[ 10718 10713 10712 10709 ] final  -71.15 input   66.30 | X-H torsion
[ 10763 10752 10751 10750 ] final    7.57 input  -60.55 | X-H torsion
[ 11005 11000 10999 10996 ] final  116.42 input  -57.11 | X-H torsion

> <Gold.Protein.ActiveResidues>
 VAL166  LYS551  ARG553  GLY616  TRP617  ASP618  TYR619  PRO620  LYS621  CYS622 
 ASP623  PHE694  ASN695  SER759  ASP760  ASP761  ALA762  ILE779  LEU786  VAL792 
 PHE793  MET794  SER795  GLU796  ALA797  LYS798  CYS799  TRP800  GLU811  SER814 

> <Gold.Protein.RotatedAtoms>
  152.4382  134.5644  159.9903 H   0  0  0  0  0  0  0  0  0  0  0  0  # atno 6907 bound_to 6896
  151.5748  133.3379  159.3004 H   0  0  0  0  0  0  0  0  0  0  0  0  # atno 6908 bound_to 6896
  150.8284  134.7560  159.6896 H   0  0  0  0  0  0  0  0  0  0  0  0  # atno 6909 bound_to 6896
  146.2442  140.0442  142.8380 H   0  0  0  0  0  0  0  0  0  0  0  0  # atno 7974 bound_to 7965
  154.6328  140.2527  155.7413 H   0  0  0  0  0  0  0  0  0  0  0  0  # atno 8008 bound_to 7997
  156.2488  140.2903  156.0608 H   0  0  0  0  0  0  0  0  0  0  0  0  # atno 8009 bound_to 7997
  155.1718  140.0386  157.2854 H   0  0  0  0  0  0  0  0  0  0  0  0  # atno 8010 bound_to 7997
  139.6811  143.9579  152.2337 H   0  0  0  0  0  0  0  0  0  0  0  0  # atno 10167 bound_to 10162
  156.0375  130.4345  150.2401 H   0  0  0  0  0  0  0  0  0  0  0  0  # atno 10718 bound_to 10713
  153.2347  135.6897  153.7849 H   0  0  0  0  0  0  0  0  0  0  0  0  # atno 10763 bound_to 10752
  153.7001  135.3299  155.3223 H   0  0  0  0  0  0  0  0  0  0  0  0  # atno 10764 bound_to 10752
  154.8330  135.4566  154.1247 H   0  0  0  0  0  0  0  0  0  0  0  0  # atno 10765 bound_to 10752
  139.9040  134.9597  156.7195 H   0  0  0  0  0  0  0  0  0  0  0  0  # atno 11005 bound_to 11000
  145.1042  140.9365  143.4694 LP  0  0  0  0  0  0  0  0  0  0  0  0  # atno 17320 bound_to 7965
  145.0641  139.3082  143.5865 LP  0  0  0  0  0  0  0  0  0  0  0  0  # atno 17321 bound_to 7965
  139.9369  144.6706  150.8305 LP  0  0  0  0  0  0  0  0  0  0  0  0  # atno 17342 bound_to 10162
  140.7652  143.3270  151.2493 LP  0  0  0  0  0  0  0  0  0  0  0  0  # atno 17343 bound_to 10162
  157.0499  131.0060  151.3257 LP  0  0  0  0  0  0  0  0  0  0  0  0  # atno 17370 bound_to 10713
  157.5148  130.7961  149.7744 LP  0  0  0  0  0  0  0  0  0  0  0  0  # atno 17371 bound_to 10713
  140.7012  133.9305  155.8025 LP  0  0  0  0  0  0  0  0  0  0  0  0  # atno 17394 bound_to 11000
  141.0370  134.0675  157.3947 LP  0  0  0  0  0  0  0  0  0  0  0  0  # atno 17395 bound_to 11000

$$$$
