AV-unprocessed.smi:2004|AV-procd|sdf|8123|dock8
  -GOLD-   2272010353D 1   1.00000     0.00000
 Structure written by MMmdl.
 40 42  0  0  0  0  0  0  0  0  2 V2000
  153.2811  139.1698  156.7420 O   0  0  0  0  0  0  0  0  0  0  0  0
  152.9086  139.0868  158.1012 C   0  0  2  0  0  0  0  0  0  0  0  0
  153.2014  137.6637  158.6156 C   0  0  0  0  0  0  0  0  0  0  0  0
  152.8789  137.6226  159.9947 O   0  0  0  0  0  0  0  0  0  0  0  0
  153.7001  138.4293  160.8166 C   0  0  0  0  0  0  0  0  0  0  0  0
  153.9057  137.7658  162.1635 C   0  0  0  0  0  0  0  0  0  0  0  0
  154.7301  138.3801  163.1292 C   0  0  0  0  0  0  0  0  0  0  0  0
  154.9067  137.7834  164.3925 C   0  0  0  0  0  0  0  0  0  0  0  0
  154.2610  136.5688  164.6941 C   0  0  0  0  0  0  0  0  0  0  0  0
  153.4412  135.9497  163.7306 C   0  0  0  0  0  0  0  0  0  0  0  0
  153.2654  136.5456  162.4663 C   0  0  0  0  0  0  0  0  0  0  0  0
  151.4340  139.5427  158.2348 C   0  0  0  0  0  0  0  0  0  0  0  0
  151.2047  140.9505  157.8782 N   0  0  0  0  0  0  0  0  0  0  0  0
  150.5013  141.4845  156.8424 C   0  0  0  0  0  0  0  0  0  0  0  0
  150.5413  142.8394  156.9722 N   0  3  0  0  0  0  0  0  0  0  0  0
  151.2858  143.1775  158.1040 C   0  0  0  0  0  0  0  0  0  0  0  0
  151.5935  144.4173  158.6546 C   0  0  0  0  0  0  0  0  0  0  0  0
  152.3749  144.4111  159.8286 C   0  0  0  0  0  0  0  0  0  0  0  0
  152.8241  143.2053  160.4059 C   0  0  0  0  0  0  0  0  0  0  0  0
  152.5087  141.9537  159.8368 C   0  0  0  0  0  0  0  0  0  0  0  0
  151.7285  141.9689  158.6821 C   0  0  0  0  0  0  0  0  0  0  0  0
  152.4970  139.2080  156.2158 H   0  0  0  0  0  0  0  0  0  0  0  0
  153.5513  139.7824  158.6413 H   0  0  0  0  0  0  0  0  0  0  0  0
  152.6279  136.9296  158.0473 H   0  0  0  0  0  0  0  0  0  0  0  0
  154.2583  137.4180  158.5010 H   0  0  0  0  0  0  0  0  0  0  0  0
  154.6682  138.5881  160.3388 H   0  0  0  0  0  0  0  0  0  0  0  0
  153.2390  139.4078  160.9582 H   0  0  0  0  0  0  0  0  0  0  0  0
  155.2231  139.3147  162.9049 H   0  0  0  0  0  0  0  0  0  0  0  0
  155.5369  138.2578  165.1302 H   0  0  0  0  0  0  0  0  0  0  0  0
  154.3960  136.1112  165.6631 H   0  0  0  0  0  0  0  0  0  0  0  0
  152.9472  135.0174  163.9620 H   0  0  0  0  0  0  0  0  0  0  0  0
  152.6309  136.0663  161.7354 H   0  0  0  0  0  0  0  0  0  0  0  0
  150.7735  138.9186  157.6316 H   0  0  0  0  0  0  0  0  0  0  0  0
  151.1057  139.4313  159.2694 H   0  0  0  0  0  0  0  0  0  0  0  0
  149.9875  140.9325  156.0688 H   0  0  0  0  0  0  0  0  0  0  0  0
  151.2489  145.3421  158.2155 H   0  0  0  0  0  0  0  0  0  0  0  0
  152.6343  145.3502  160.2956 H   0  0  0  0  0  0  0  0  0  0  0  0
  153.4210  143.2407  161.3056 H   0  0  0  0  0  0  0  0  0  0  0  0
  152.8534  141.0353  160.2880 H   0  0  0  0  0  0  0  0  0  0  0  0
  150.0881  143.4837  156.3373 H   0  0  0  0  0  0  0  0  0  0  0  0
  1  2  1  0  0  0  0
  1 22  1  0  0  0  0
  2  3  1  0  0  0  0
  2 12  1  0  0  0  0
  2 23  1  0  0  0  0
  3  4  1  0  0  0  0
  3 24  1  0  0  0  0
  3 25  1  0  0  0  0
  4  5  1  0  0  0  0
  5  6  1  0  0  0  0
  5 26  1  0  0  0  0
  5 27  1  0  0  0  0
  6 11  1  0  0  0  0
  6  7  2  0  0  0  0
  7  8  1  0  0  0  0
  7 28  1  0  0  0  0
  8  9  2  0  0  0  0
  8 29  1  0  0  0  0
  9 10  1  0  0  0  0
  9 30  1  0  0  0  0
 10 11  2  0  0  0  0
 10 31  1  0  0  0  0
 11 32  1  0  0  0  0
 12 13  1  0  0  0  0
 12 33  1  0  0  0  0
 12 34  1  0  0  0  0
 13 21  1  0  0  0  0
 13 14  1  0  0  0  0
 14 15  2  0  0  0  0
 14 35  1  0  0  0  0
 15 16  1  0  0  0  0
 15 40  1  0  0  0  0
 16 21  2  0  0  0  0
 16 17  1  0  0  0  0
 17 18  2  0  0  0  0
 17 36  1  0  0  0  0
 18 19  1  0  0  0  0
 18 37  1  0  0  0  0
 19 20  2  0  0  0  0
 19 38  1  0  0  0  0
 20 21  1  0  0  0  0
 20 39  1  0  0  0  0
M  CHG  1  15   1
M  END
> <s_m_source_file>
AV-unprocessed.smi

> <i_m_source_file_index>
2004

> <i_lp_mmshare_version>
43012

> <i_f3d_flags>
0

> <s_epik_input>
W2NIXTFbY0hdW2NIXVtjSF1jKGMxMiluKFtjSF1uMilbQ0gyXVtDQEhdKFtPSF0pW0NIMl1PW0NIMl1jM1tjSF1bY0hdW2NIXVtjSF1bY0hdMw==

> <s_epik_cmdline>
J2VwaWtfcHl0aG9uJywgJy1waCcsICc3LjAnLCAnLXRuJywgJzgnLCAnLW1hJywgJzIwMCcsICctbWV0YWxfYmluZGluZycsICctaW1hZScsICc8aW5maWxlLm1hZT4nLCAnLW9tYWUnLCAnPG91dGZpbGUubWFlPic=

> <r_epik_Ionization_Penalty>
1.28975

> <r_epik_Ionization_Penalty_Charging>
1.28975

> <r_epik_Ionization_Penalty_Neutral>
1.07667e-06

> <r_epik_State_Penalty>
1.36276

> <r_epik_Charging_Adjusted_Penalty>
2.65251

> <i_epik_Tot_Q>
1

> <i_epik_Tot_abs_Q>
1

> <r_epik_Metal_State_Penalty>
5.39298

> <b_epik_Metal_Only>
0

> <s_lp_Force_Field>
OPLS_2005

> <r_lp_Energy>
17.8954

> <b_lp_Chiralities_Consistent>
1

> <s_lp_Variant>
AV-unprocessed.smi:2004-3

> <Gold.Version>
5.8.1

> <Gold.Id.Protein>
6NUR|6NUR_protein|mol2

> <Gold.PLP.Fitness>
56.7885

> <Gold.PLP.PLP>
-48.2748

> <Gold.PLP.part.hbond>
-2.0000

> <Gold.PLP.part.metal>
0.0000

> <Gold.PLP.part.buried>
-5.4360

> <Gold.PLP.part.nonpolar>
-40.9314

> <Gold.PLP.part.repulsive>
0.0518

> <Gold.PLP.ligand.clash>
0.0000

> <Gold.PLP.ligand.torsion>
0.3145

> <Gold.PLP.Chemscore.Hbond>
3.0000

> <Gold.PLP.Chemscore.CHOScore>
0.0000

> <Gold.PLP.Chemscore.Metal>
0.0000

> <Gold.Chemscore.Hbonds>
donor molecule, donor type, donor heavy atom, donor atom, acceptor molecule, acceptor atom, score
      L1  H    15    40       P1  8028  2.00
      P1  H  7997  8010       L1     1  0.86

> <Gold.PLP.Chemscore.Internal.Correction>
0.1429

> <Gold.Rescore>
     Score         DG    S(hbond)    S(metal)    S(lipo)     H(rot)  DE(clash)    DE(int)     intcor
     20.90     -21.20       1.83        0.00     135.17       2.43       0.00       0.30       ----

> <Gold.Chemscore.Fitness>
20.8992

> <Gold.Chemscore.DG>
-21.2038

> <Gold.Chemscore.ZeroCoef>
-5.4800

> <Gold.Chemscore.Hbond>
1.8327

> <Gold.Chemscore.Metal>
0.0000

> <Gold.Chemscore.Lipo>
135.1723

> <Gold.Chemscore.Internal_Hbond>
0.0000

> <Gold.Chemscore.DEClash>
0.0000

> <Gold.Chemscore.DEInternal>
0.3045

> <Gold.Chemscore.Rot>
2.4269

> <Gold.Chemscore.Internal.Correction>
   9.000000E+99

> <Gold.Chemscore.Hbonds>
donor molecule, donor type, donor heavy atom, donor atom, acceptor molecule, acceptor atom, score
      L1  H    15    40       P1  8028  1.00
      P1  H  7997  8010       L1     1  0.68

> <Gold.Chemscore.Hbond.Weighted>
-6.1213

> <Gold.Chemscore.Metal.Weighted>
-0.0000

> <Gold.Chemscore.Lipo.Weighted>
-15.8152

> <Gold.Chemscore.Internal_Hbond.Weighted>
0.0000

> <Gold.Chemscore.DEClash.Weighted>
0.0000

> <Gold.Chemscore.DEInternal.Weighted>
0.3045

> <Gold.Chemscore.Rot.Weighted>
6.2127

> <Gold.Chemscore.Internal.Correction.Weighted>
   9.000000E+99

> <Gold.Protein.RotatedTorsions>
[ 6907 6896 6895 6894 ] final   48.50 input  -60.11 | X-H torsion
[ 7974 7965 7964 7962 ] final  -38.44 input  175.53 | X-H torsion
[ 8008 7997 7996 7995 ] final   83.30 input   59.86 | X-H torsion
[ 10167 10162 10161 10158 ] final  112.93 input  -65.29 | X-H torsion
[ 10718 10713 10712 10709 ] final  -93.24 input   66.30 | X-H torsion
[ 10763 10752 10751 10750 ] final -135.72 input  -60.55 | X-H torsion
[ 11005 11000 10999 10996 ] final    4.47 input  -57.11 | X-H torsion

> <Gold.Protein.ActiveResidues>
 VAL166  LYS551  ARG553  GLY616  TRP617  ASP618  TYR619  PRO620  LYS621  CYS622 
 ASP623  PHE694  ASN695  SER759  ASP760  ASP761  ALA762  ILE779  LEU786  VAL792 
 PHE793  MET794  SER795  GLU796  ALA797  LYS798  CYS799  TRP800  GLU811  SER814 

> <Gold.Protein.RotatedAtoms>
  152.2802  134.7837  160.0397 H   0  0  0  0  0  0  0  0  0  0  0  0  # atno 6907 bound_to 6896
  151.8419  133.3420  159.3654 H   0  0  0  0  0  0  0  0  0  0  0  0  # atno 6908 bound_to 6896
  150.7186  134.5311  159.5745 H   0  0  0  0  0  0  0  0  0  0  0  0  # atno 6909 bound_to 6896
  146.0486  140.6512  142.9053 H   0  0  0  0  0  0  0  0  0  0  0  0  # atno 7974 bound_to 7965
  155.9221  140.3420  155.6181 H   0  0  0  0  0  0  0  0  0  0  0  0  # atno 8008 bound_to 7997
  155.7261  140.0789  157.2328 H   0  0  0  0  0  0  0  0  0  0  0  0  # atno 8009 bound_to 7997
  154.4071  140.1596  156.2443 H   0  0  0  0  0  0  0  0  0  0  0  0  # atno 8010 bound_to 7997
  139.6499  144.7128  151.2068 H   0  0  0  0  0  0  0  0  0  0  0  0  # atno 10167 bound_to 10162
  156.0011  130.5019  150.5746 H   0  0  0  0  0  0  0  0  0  0  0  0  # atno 10718 bound_to 10713
  154.8698  135.3695  154.4944 H   0  0  0  0  0  0  0  0  0  0  0  0  # atno 10763 bound_to 10752
  153.5589  135.7023  153.5561 H   0  0  0  0  0  0  0  0  0  0  0  0  # atno 10764 bound_to 10752
  153.3646  135.4037  155.1707 H   0  0  0  0  0  0  0  0  0  0  0  0  # atno 10765 bound_to 10752
  140.5815  134.0008  155.8050 H   0  0  0  0  0  0  0  0  0  0  0  0  # atno 11005 bound_to 11000
  144.7111  140.4040  143.7080 LP  0  0  0  0  0  0  0  0  0  0  0  0  # atno 17320 bound_to 7965
  145.6763  139.1609  143.2726 LP  0  0  0  0  0  0  0  0  0  0  0  0  # atno 17321 bound_to 7965
  140.7533  143.6167  150.8552 LP  0  0  0  0  0  0  0  0  0  0  0  0  # atno 17342 bound_to 10162
  139.9814  143.5947  152.2941 LP  0  0  0  0  0  0  0  0  0  0  0  0  # atno 17343 bound_to 10162
  157.3636  131.0754  151.1616 LP  0  0  0  0  0  0  0  0  0  0  0  0  # atno 17370 bound_to 10713
  157.2393  130.6562  149.5883 LP  0  0  0  0  0  0  0  0  0  0  0  0  # atno 17371 bound_to 10713
  141.0993  133.9794  157.3107 LP  0  0  0  0  0  0  0  0  0  0  0  0  # atno 17394 bound_to 11000
  139.9315  135.0199  156.8415 LP  0  0  0  0  0  0  0  0  0  0  0  0  # atno 17395 bound_to 11000

$$$$
