AV-unprocessed.smi:286|AV-procd|sdf|2173|dock6
  -GOLD-   2262021533D 1   1.00000     0.00000
 Structure written by MMmdl.
 46 48  0  0  0  0  0  0  0  0  1 V2000
  152.5915  139.5341  155.8334 O   0  0  0  0  0  0  0  0  0  0  0  0
  151.4291  139.6111  155.4316 C   0  0  0  0  0  0  0  0  0  0  0  0
  150.7743  138.5536  154.6692 C   0  0  0  0  0  0  0  0  0  0  0  0
  151.4468  137.4248  154.3873 F   0  0  0  0  0  0  0  0  0  0  0  0
  149.5015  138.6882  154.2371 C   0  0  0  0  0  0  0  0  0  0  0  0
  148.7363  139.8175  154.4808 N   0  0  0  0  0  0  0  0  0  0  0  0
  147.3151  139.9522  153.9753 C   0  0  2  0  0  0  0  0  0  0  0  0
  146.3390  140.1582  155.1492 C   0  0  0  0  0  0  0  0  0  0  0  0
  145.2838  139.0989  154.8990 C   0  0  0  0  0  0  0  0  0  0  0  0
  146.0824  138.0215  154.1810 C   0  0  0  0  0  0  0  0  0  0  0  0
  146.9279  138.7763  153.3228 O   0  0  0  0  0  0  0  0  0  0  0  0
  149.2931  140.8953  155.2029 C   0  0  0  0  0  0  0  0  0  0  0  0
  148.6399  141.9217  155.4078 O   0  0  0  0  0  0  0  0  0  0  0  0
  150.6210  140.7499  155.6690 N   0  0  0  0  0  0  0  0  0  0  0  0
  151.2069  141.8636  156.3970 C   0  0  0  0  0  0  0  0  0  0  0  0
  150.5259  142.1303  157.7596 C   0  0  2  0  0  0  0  0  0  0  0  0
  149.4232  142.9946  157.5627 O   0  0  0  0  0  0  0  0  0  0  0  0
  151.4894  142.7573  158.7972 C   0  0  0  0  0  0  0  0  0  0  0  0
  152.3863  141.6954  159.4702 C   0  0  0  0  0  0  0  0  0  0  0  0
  153.3899  142.3333  160.4441 C   0  0  0  0  0  0  0  0  0  0  0  0
  152.6735  143.1874  161.5010 C   0  0  0  0  0  0  0  0  0  0  0  0
  151.7881  144.2547  160.8403 C   0  0  0  0  0  0  0  0  0  0  0  0
  150.7804  143.6216  159.8668 C   0  0  0  0  0  0  0  0  0  0  0  0
  149.0832  137.8673  153.6753 H   0  0  0  0  0  0  0  0  0  0  0  0
  147.3327  140.7747  153.2580 H   0  0  0  0  0  0  0  0  0  0  0  0
  146.8447  139.9749  156.0986 H   0  0  0  0  0  0  0  0  0  0  0  0
  145.9384  141.1722  155.1513 H   0  0  0  0  0  0  0  0  0  0  0  0
  144.8109  138.7413  155.8140 H   0  0  0  0  0  0  0  0  0  0  0  0
  144.5072  139.4900  154.2407 H   0  0  0  0  0  0  0  0  0  0  0  0
  146.6795  137.4451  154.8889 H   0  0  0  0  0  0  0  0  0  0  0  0
  145.4524  137.3320  153.6186 H   0  0  0  0  0  0  0  0  0  0  0  0
  152.2631  141.6198  156.5252 H   0  0  0  0  0  0  0  0  0  0  0  0
  151.2148  142.7436  155.7518 H   0  0  0  0  0  0  0  0  0  0  0  0
  150.1495  141.1926  158.1703 H   0  0  0  0  0  0  0  0  0  0  0  0
  149.5335  143.4388  156.7359 H   0  0  0  0  0  0  0  0  0  0  0  0
  152.1562  143.4181  158.2409 H   0  0  0  0  0  0  0  0  0  0  0  0
  151.7715  140.9753  160.0111 H   0  0  0  0  0  0  0  0  0  0  0  0
  152.9277  141.1289  158.7118 H   0  0  0  0  0  0  0  0  0  0  0  0
  153.9783  141.5561  160.9320 H   0  0  0  0  0  0  0  0  0  0  0  0
  154.0956  142.9523  159.8890 H   0  0  0  0  0  0  0  0  0  0  0  0
  152.0614  142.5460  162.1365 H   0  0  0  0  0  0  0  0  0  0  0  0
  153.4055  143.6629  162.1544 H   0  0  0  0  0  0  0  0  0  0  0  0
  151.2589  144.8237  161.6050 H   0  0  0  0  0  0  0  0  0  0  0  0
  152.4152  144.9681  160.3043 H   0  0  0  0  0  0  0  0  0  0  0  0
  150.1998  144.4132  159.3935 H   0  0  0  0  0  0  0  0  0  0  0  0
  150.0718  143.0148  160.4315 H   0  0  0  0  0  0  0  0  0  0  0  0
  1  2  2  0  0  0  0
  2 14  1  0  0  0  0
  2  3  1  0  0  0  0
  3  4  1  0  0  0  0
  3  5  2  0  0  0  0
  5  6  1  0  0  0  0
  5 24  1  0  0  0  0
  6  7  1  0  0  0  0
  6 12  1  0  0  0  0
  7 11  1  0  0  0  0
  7  8  1  0  0  0  0
  7 25  1  0  0  0  0
  8  9  1  0  0  0  0
  8 26  1  0  0  0  0
  8 27  1  0  0  0  0
  9 10  1  0  0  0  0
  9 28  1  0  0  0  0
  9 29  1  0  0  0  0
 10 11  1  0  0  0  0
 10 30  1  0  0  0  0
 10 31  1  0  0  0  0
 12 13  2  0  0  0  0
 12 14  1  0  0  0  0
 14 15  1  0  0  0  0
 15 16  1  0  0  0  0
 15 32  1  0  0  0  0
 15 33  1  0  0  0  0
 16 17  1  0  0  0  0
 16 18  1  0  0  0  0
 16 34  1  0  0  0  0
 17 35  1  0  0  0  0
 18 23  1  0  0  0  0
 18 19  1  0  0  0  0
 18 36  1  0  0  0  0
 19 20  1  0  0  0  0
 19 37  1  0  0  0  0
 19 38  1  0  0  0  0
 20 21  1  0  0  0  0
 20 39  1  0  0  0  0
 20 40  1  0  0  0  0
 21 22  1  0  0  0  0
 21 41  1  0  0  0  0
 21 42  1  0  0  0  0
 22 23  1  0  0  0  0
 22 43  1  0  0  0  0
 22 44  1  0  0  0  0
 23 45  1  0  0  0  0
 23 46  1  0  0  0  0
M  END
> <s_m_source_file>
AV-unprocessed.smi

> <i_m_source_file_index>
286

> <i_lp_mmshare_version>
43012

> <i_f3d_flags>
0

> <s_epik_input>
TzFbQ0gyXVtDSDJdW0NIMl1bQ0BIXTFuKFtjSF1jKEYpYzI9TyljKD1PKW4yW0NIMl1bQ0BIXShbT0hdKVtDSF0zW0NIMl1bQ0gyXVtDSDJdW0NIMl1bQ0gyXTM=

> <s_epik_cmdline>
J2VwaWtfcHl0aG9uJywgJy1waCcsICc3LjAnLCAnLXRuJywgJzgnLCAnLW1hJywgJzIwMCcsICctbWV0YWxfYmluZGluZycsICctaW1hZScsICc8aW5maWxlLm1hZT4nLCAnLW9tYWUnLCAnPG91dGZpbGUubWFlPic=

> <r_lp_tautomer_probability>
1

> <r_epik_Ionization_Penalty>
3.15564e-07

> <r_epik_Ionization_Penalty_Charging>
2.06416e-08

> <r_epik_Ionization_Penalty_Neutral>
2.94923e-07

> <r_epik_State_Penalty>
-0

> <r_epik_Charging_Adjusted_Penalty>
2.06416e-08

> <i_epik_Tot_Q>
0

> <i_epik_Tot_abs_Q>
0

> <r_epik_Metal_State_Penalty>
-0

> <b_epik_Metal_Only>
0

> <s_epik_Chemistry_Notes>
This compound contains an acetal/aminal-like group ( X-CH(R)-Y where X, Y are N, S, or O) that may be acid/base labile, releasing an aldehyde.

> <s_lp_Force_Field>
OPLS_2005

> <r_lp_Energy>
41.5856

> <b_lp_Chiralities_Consistent>
1

> <s_lp_Variant>
AV-unprocessed.smi:286-1

> <Gold.Version>
5.8.1

> <Gold.Id.Protein>
6NUR|6NUR_protein|mol2

> <Gold.PLP.Fitness>
48.0073

> <Gold.PLP.PLP>
-41.0926

> <Gold.PLP.part.hbond>
-2.0000

> <Gold.PLP.part.metal>
0.0000

> <Gold.PLP.part.buried>
-3.8372

> <Gold.PLP.part.nonpolar>
-37.7787

> <Gold.PLP.part.repulsive>
2.0947

> <Gold.PLP.ligand.clash>
0.1209

> <Gold.PLP.ligand.torsion>
0.9162

> <Gold.PLP.Chemscore.Hbond>
1.9440

> <Gold.PLP.Chemscore.CHOScore>
1.0000

> <Gold.PLP.Chemscore.Metal>
0.0000

> <Gold.Chemscore.Hbonds>
donor molecule, donor type, donor heavy atom, donor atom, acceptor molecule, acceptor atom, score
      L1  H    17    35       P1  8028  0.88
      P1  H  7997  8008       L1     1  0.99
      L1  C     5    24       P1  7948  1.00

> <Gold.PLP.Chemscore.Internal.Correction>
0.0359

> <Gold.Rescore>
     Score         DG    S(hbond)    S(metal)    S(lipo)     H(rot)  DE(clash)    DE(int)     intcor
     14.73     -17.30       1.96        0.00      94.82       2.28       0.32       2.25       ----

> <Gold.Chemscore.Fitness>
14.7310

> <Gold.Chemscore.DG>
-17.2972

> <Gold.Chemscore.ZeroCoef>
-5.4800

> <Gold.Chemscore.Hbond>
1.9608

> <Gold.Chemscore.Metal>
0.0000

> <Gold.Chemscore.Lipo>
94.8177

> <Gold.Chemscore.Internal_Hbond>
0.0000

> <Gold.Chemscore.DEClash>
0.3203

> <Gold.Chemscore.DEInternal>
2.2459

> <Gold.Chemscore.Rot>
2.2756

> <Gold.Chemscore.Internal.Correction>
   9.000000E+99

> <Gold.Chemscore.Hbonds>
donor molecule, donor type, donor heavy atom, donor atom, acceptor molecule, acceptor atom, score
      L1  H    17    35       P1  8028  0.86
      P1  H  7997  8008       L1     1  0.90

> <Gold.Chemscore.Hbond.Weighted>
-6.5490

> <Gold.Chemscore.Metal.Weighted>
-0.0000

> <Gold.Chemscore.Lipo.Weighted>
-11.0937

> <Gold.Chemscore.Internal_Hbond.Weighted>
0.0000

> <Gold.Chemscore.DEClash.Weighted>
0.3203

> <Gold.Chemscore.DEInternal.Weighted>
2.2459

> <Gold.Chemscore.Rot.Weighted>
5.8254

> <Gold.Chemscore.Internal.Correction.Weighted>
   9.000000E+99

> <Gold.Protein.RotatedTorsions>
[ 6907 6896 6895 6894 ] final  -29.22 input  -60.11 | X-H torsion
[ 7974 7965 7964 7962 ] final   -4.45 input  175.53 | X-H torsion
[ 8008 7997 7996 7995 ] final  -13.24 input   59.86 | X-H torsion
[ 10167 10162 10161 10158 ] final  -98.29 input  -65.29 | X-H torsion
[ 10718 10713 10712 10709 ] final -173.44 input   66.30 | X-H torsion
[ 10763 10752 10751 10750 ] final  134.34 input  -60.55 | X-H torsion
[ 11005 11000 10999 10996 ] final   54.54 input  -57.11 | X-H torsion

> <Gold.Protein.ActiveResidues>
 VAL166  LYS551  ARG553  GLY616  TRP617  ASP618  TYR619  PRO620  LYS621  CYS622 
 ASP623  PHE694  ASN695  SER759  ASP760  ASP761  ALA762  ILE779  LEU786  VAL792 
 PHE793  MET794  SER795  GLU796  ALA797  LYS798  CYS799  TRP800  GLU811  SER814 

> <Gold.Protein.RotatedAtoms>
  151.1222  135.0085  159.8543 H   0  0  0  0  0  0  0  0  0  0  0  0  # atno 6907 bound_to 6896
  152.5448  134.1709  159.8606 H   0  0  0  0  0  0  0  0  0  0  0  0  # atno 6908 bound_to 6896
  151.1769  133.4704  159.2627 H   0  0  0  0  0  0  0  0  0  0  0  0  # atno 6909 bound_to 6896
  146.2372  140.1873  142.8332 H   0  0  0  0  0  0  0  0  0  0  0  0  # atno 7974 bound_to 7965
  154.5309  140.2255  155.8806 H   0  0  0  0  0  0  0  0  0  0  0  0  # atno 8008 bound_to 7997
  156.1763  140.3110  155.9028 H   0  0  0  0  0  0  0  0  0  0  0  0  # atno 8009 bound_to 7997
  155.3453  140.0452  157.3036 H   0  0  0  0  0  0  0  0  0  0  0  0  # atno 8010 bound_to 7997
  140.2745  143.3322  152.0502 H   0  0  0  0  0  0  0  0  0  0  0  0  # atno 10167 bound_to 10162
  156.7703  130.9446  151.3120 H   0  0  0  0  0  0  0  0  0  0  0  0  # atno 10718 bound_to 10713
  153.8220  135.3115  155.3411 H   0  0  0  0  0  0  0  0  0  0  0  0  # atno 10763 bound_to 10752
  154.8009  135.4727  154.0275 H   0  0  0  0  0  0  0  0  0  0  0  0  # atno 10764 bound_to 10752
  153.1687  135.6874  153.8728 H   0  0  0  0  0  0  0  0  0  0  0  0  # atno 10765 bound_to 10752
  140.0678  134.5512  155.9080 H   0  0  0  0  0  0  0  0  0  0  0  0  # atno 11005 bound_to 11000
  144.9886  140.8526  143.5353 LP  0  0  0  0  0  0  0  0  0  0  0  0  # atno 17320 bound_to 7965
  145.1875  139.2318  143.5260 LP  0  0  0  0  0  0  0  0  0  0  0  0  # atno 17321 bound_to 7965
  139.4979  144.6634  151.6413 LP  0  0  0  0  0  0  0  0  0  0  0  0  # atno 17342 bound_to 10162
  140.5862  143.9859  150.6297 LP  0  0  0  0  0  0  0  0  0  0  0  0  # atno 17343 bound_to 10162
  157.6694  130.9037  150.0005 LP  0  0  0  0  0  0  0  0  0  0  0  0  # atno 17370 bound_to 10713
  156.1282  130.3644  149.9775 LP  0  0  0  0  0  0  0  0  0  0  0  0  # atno 17371 bound_to 10713
  141.2000  133.6610  156.5872 LP  0  0  0  0  0  0  0  0  0  0  0  0  # atno 17394 bound_to 11000
  140.3672  134.7636  157.4574 LP  0  0  0  0  0  0  0  0  0  0  0  0  # atno 17395 bound_to 11000

$$$$
