AV-unprocessed.smi:2003|AV-procd|sdf|8120|dock3
  -GOLD-   2272010353D 1   1.00000     0.00000
 Structure written by MMmdl.
 44 45  0  0  0  0  0  0  0  0  2 V2000
  153.0999  141.5937  161.8358 C   0  0  0  0  0  0  0  0  0  0  0  0
  152.4239  142.2602  160.6742 C   0  0  0  0  0  0  0  0  0  0  0  0
  151.9971  141.6689  159.4496 C   0  0  0  0  0  0  0  0  0  0  0  0
  151.4565  142.7297  158.7753 C   0  0  0  0  0  0  0  0  0  0  0  0
  150.8891  142.7590  157.5402 N   0  0  0  0  0  0  0  0  0  0  0  0
  150.9460  141.8327  156.5673 C   0  0  0  0  0  0  0  0  0  0  0  0
  151.5304  140.7519  156.6430 O   0  0  0  0  0  0  0  0  0  0  0  0
  150.2830  142.2378  155.4737 N   0  0  0  0  0  0  0  0  0  0  0  0
  150.1413  141.4728  154.2364 C   0  0  0  0  0  0  0  0  0  0  0  0
  149.0733  142.0590  153.2750 C   0  0  1  0  0  0  0  0  0  0  0  0
  148.7276  141.0508  152.1511 C   0  0  0  0  0  0  0  0  0  0  0  0
  147.8749  142.5123  154.0564 N   0  3  0  0  0  0  0  0  0  0  0  0
  146.7945  143.0540  153.1874 C   0  0  0  0  0  0  0  0  0  0  0  0
  145.6280  143.5986  154.0277 C   0  0  0  0  0  0  0  0  0  0  0  0
  145.1204  142.5653  154.8584 O   0  0  0  0  0  0  0  0  0  0  0  0
  146.1047  142.0998  155.7696 C   0  0  0  0  0  0  0  0  0  0  0  0
  147.2986  141.5119  154.9976 C   0  0  0  0  0  0  0  0  0  0  0  0
  151.5665  143.8573  159.5585 N   0  0  0  0  0  0  0  0  0  0  0  0
  151.1413  145.2161  159.2837 C   0  0  0  0  0  0  0  0  0  0  0  0
  152.1636  143.5613  160.7331 N   0  0  0  0  0  0  0  0  0  0  0  0
  153.2577  140.5322  161.6437 H   0  0  0  0  0  0  0  0  0  0  0  0
  152.5004  141.6807  162.7423 H   0  0  0  0  0  0  0  0  0  0  0  0
  154.0736  142.0427  162.0340 H   0  0  0  0  0  0  0  0  0  0  0  0
  152.0839  140.6384  159.1403 H   0  0  0  0  0  0  0  0  0  0  0  0
  150.3644  143.5951  157.3295 H   0  0  0  0  0  0  0  0  0  0  0  0
  149.8353  143.1426  155.5011 H   0  0  0  0  0  0  0  0  0  0  0  0
  151.0986  141.3852  153.7193 H   0  0  0  0  0  0  0  0  0  0  0  0
  149.8791  140.4623  154.5440 H   0  0  0  0  0  0  0  0  0  0  0  0
  149.4977  142.9361  152.7830 H   0  0  0  0  0  0  0  0  0  0  0  0
  149.6136  140.7397  151.5989 H   0  0  0  0  0  0  0  0  0  0  0  0
  148.0623  141.4814  151.4028 H   0  0  0  0  0  0  0  0  0  0  0  0
  148.2591  140.1514  152.5517 H   0  0  0  0  0  0  0  0  0  0  0  0
  147.1635  143.8566  152.5518 H   0  0  0  0  0  0  0  0  0  0  0  0
  146.4325  142.2674  152.5233 H   0  0  0  0  0  0  0  0  0  0  0  0
  145.9437  144.4512  154.6312 H   0  0  0  0  0  0  0  0  0  0  0  0
  144.8279  143.9492  153.3754 H   0  0  0  0  0  0  0  0  0  0  0  0
  146.4260  142.9118  156.4240 H   0  0  0  0  0  0  0  0  0  0  0  0
  145.6598  141.3363  156.4080 H   0  0  0  0  0  0  0  0  0  0  0  0
  146.9875  140.6239  154.4450 H   0  0  0  0  0  0  0  0  0  0  0  0
  148.0372  141.1995  155.7352 H   0  0  0  0  0  0  0  0  0  0  0  0
  151.4734  145.5121  158.2883 H   0  0  0  0  0  0  0  0  0  0  0  0
  151.5662  145.9059  160.0146 H   0  0  0  0  0  0  0  0  0  0  0  0
  150.0536  145.2745  159.3299 H   0  0  0  0  0  0  0  0  0  0  0  0
  148.1938  143.2755  154.6362 H   0  0  0  0  0  0  0  0  0  0  0  0
  1  2  1  0  0  0  0
  1 21  1  0  0  0  0
  1 22  1  0  0  0  0
  1 23  1  0  0  0  0
  2 20  2  0  0  0  0
  2  3  1  0  0  0  0
  3  4  2  0  0  0  0
  3 24  1  0  0  0  0
  4  5  1  0  0  0  0
  4 18  1  0  0  0  0
  5  6  1  0  0  0  0
  5 25  1  0  0  0  0
  6  7  2  0  0  0  0
  6  8  1  0  0  0  0
  8  9  1  0  0  0  0
  8 26  1  0  0  0  0
  9 10  1  0  0  0  0
  9 27  1  0  0  0  0
  9 28  1  0  0  0  0
 10 11  1  0  0  0  0
 10 12  1  0  0  0  0
 10 29  1  0  0  0  0
 11 30  1  0  0  0  0
 11 31  1  0  0  0  0
 11 32  1  0  0  0  0
 12 17  1  0  0  0  0
 12 13  1  0  0  0  0
 12 44  1  0  0  0  0
 13 14  1  0  0  0  0
 13 33  1  0  0  0  0
 13 34  1  0  0  0  0
 14 15  1  0  0  0  0
 14 35  1  0  0  0  0
 14 36  1  0  0  0  0
 15 16  1  0  0  0  0
 16 17  1  0  0  0  0
 16 37  1  0  0  0  0
 16 38  1  0  0  0  0
 17 39  1  0  0  0  0
 17 40  1  0  0  0  0
 18 19  1  0  0  0  0
 18 20  1  0  0  0  0
 19 41  1  0  0  0  0
 19 42  1  0  0  0  0
 19 43  1  0  0  0  0
M  CHG  1  12   1
M  END
> <s_m_source_file>
AV-unprocessed.smi

> <i_m_source_file_index>
2003

> <i_lp_mmshare_version>
43012

> <i_f3d_flags>
0

> <s_epik_input>
W0NIM11jMVtjSF1jKG4objEpW0NIM10pW05IXUMoPU8pW05IXVtDSDJdW0NASF0oW0NIM10pTjJbQ0gyXVtDSDJdT1tDSDJdW0NIMl0y

> <s_epik_cmdline>
J2VwaWtfcHl0aG9uJywgJy1waCcsICc3LjAnLCAnLXRuJywgJzgnLCAnLW1hJywgJzIwMCcsICctbWV0YWxfYmluZGluZycsICctaW1hZScsICc8aW5maWxlLm1hZT4nLCAnLW9tYWUnLCAnPG91dGZpbGUubWFlPic=

> <r_lp_tautomer_probability>
1

> <r_epik_Ionization_Penalty>
0.663903

> <r_epik_Ionization_Penalty_Charging>
0.663826

> <r_epik_Ionization_Penalty_Neutral>
7.78239e-05

> <r_epik_State_Penalty>
0.683414

> <r_epik_Charging_Adjusted_Penalty>
1.34724

> <i_epik_Tot_Q>
1

> <i_epik_Tot_abs_Q>
1

> <r_epik_Metal_State_Penalty>
0.683419

> <b_epik_Metal_Only>
0

> <s_lp_Force_Field>
OPLS_2005

> <r_lp_Energy>
22.6974

> <b_lp_Chiralities_Consistent>
1

> <s_lp_Variant>
AV-unprocessed.smi:2003-4

> <Gold.Version>
5.8.1

> <Gold.Id.Protein>
6NUR|6NUR_protein|mol2

> <Gold.PLP.Fitness>
51.2426

> <Gold.PLP.PLP>
-42.8207

> <Gold.PLP.part.hbond>
-2.0000

> <Gold.PLP.part.metal>
0.0000

> <Gold.PLP.part.buried>
-5.7165

> <Gold.PLP.part.nonpolar>
-34.9927

> <Gold.PLP.part.repulsive>
0.3623

> <Gold.PLP.ligand.clash>
0.0000

> <Gold.PLP.ligand.torsion>
0.3196

> <Gold.PLP.Chemscore.Hbond>
3.0000

> <Gold.PLP.Chemscore.CHOScore>
0.0000

> <Gold.PLP.Chemscore.Metal>
0.0000

> <Gold.Chemscore.Hbonds>
donor molecule, donor type, donor heavy atom, donor atom, acceptor molecule, acceptor atom, score
      L1  H     8    26       P1  8028  1.00
      L1  H    12    44       P1  8028  2.00

> <Gold.PLP.Chemscore.Internal.Correction>
0.0610

> <Gold.Rescore>
     Score         DG    S(hbond)    S(metal)    S(lipo)     H(rot)  DE(clash)    DE(int)     intcor
     15.85     -17.36       1.93        0.00      79.99       1.54       0.12       1.39       ----

> <Gold.Chemscore.Fitness>
15.8506

> <Gold.Chemscore.DG>
-17.3556

> <Gold.Chemscore.ZeroCoef>
-5.4800

> <Gold.Chemscore.Hbond>
1.9337

> <Gold.Chemscore.Metal>
0.0000

> <Gold.Chemscore.Lipo>
79.9925

> <Gold.Chemscore.Internal_Hbond>
0.0000

> <Gold.Chemscore.DEClash>
0.1173

> <Gold.Chemscore.DEInternal>
1.3876

> <Gold.Chemscore.Rot>
1.5398

> <Gold.Chemscore.Internal.Correction>
   9.000000E+99

> <Gold.Chemscore.Hbonds>
donor molecule, donor type, donor heavy atom, donor atom, acceptor molecule, acceptor atom, score
      L1  H     5    25       P1  8028  0.02
      L1  H     8    26       P1  8028  1.00
      L1  H    12    44       P1  8028  0.97

> <Gold.Chemscore.Hbond.Weighted>
-6.4584

> <Gold.Chemscore.Metal.Weighted>
-0.0000

> <Gold.Chemscore.Lipo.Weighted>
-9.3591

> <Gold.Chemscore.Internal_Hbond.Weighted>
0.0000

> <Gold.Chemscore.DEClash.Weighted>
0.1173

> <Gold.Chemscore.DEInternal.Weighted>
1.3876

> <Gold.Chemscore.Rot.Weighted>
3.9420

> <Gold.Chemscore.Internal.Correction.Weighted>
   9.000000E+99

> <Gold.Protein.RotatedTorsions>
[ 6907 6896 6895 6894 ] final  -72.90 input  -60.11 | X-H torsion
[ 7974 7965 7964 7962 ] final  -25.45 input  175.53 | X-H torsion
[ 8008 7997 7996 7995 ] final -135.96 input   59.86 | X-H torsion
[ 10167 10162 10161 10158 ] final   57.09 input  -65.29 | X-H torsion
[ 10718 10713 10712 10709 ] final  117.78 input   66.30 | X-H torsion
[ 10763 10752 10751 10750 ] final -154.63 input  -60.55 | X-H torsion
[ 11005 11000 10999 10996 ] final    4.69 input  -57.11 | X-H torsion

> <Gold.Protein.ActiveResidues>
 VAL166  LYS551  ARG553  GLY616  TRP617  ASP618  TYR619  PRO620  LYS621  CYS622 
 ASP623  PHE694  ASN695  SER759  ASP760  ASP761  ALA762  ILE779  LEU786  VAL792 
 PHE793  MET794  SER795  GLU796  ALA797  LYS798  CYS799  TRP800  GLU811  SER814 

> <Gold.Protein.RotatedAtoms>
  150.7151  134.5095  159.5599 H   0  0  0  0  0  0  0  0  0  0  0  0  # atno 6907 bound_to 6896
  152.2674  134.7966  160.0429 H   0  0  0  0  0  0  0  0  0  0  0  0  # atno 6908 bound_to 6896
  151.8658  133.3430  159.3755 H   0  0  0  0  0  0  0  0  0  0  0  0  # atno 6909 bound_to 6896
  146.1490  140.4888  142.8619 H   0  0  0  0  0  0  0  0  0  0  0  0  # atno 7974 bound_to 7965
  155.3873  140.0497  157.3042 H   0  0  0  0  0  0  0  0  0  0  0  0  # atno 8008 bound_to 7997
  154.5053  140.2172  155.9225 H   0  0  0  0  0  0  0  0  0  0  0  0  # atno 8009 bound_to 7997
  156.1518  140.3134  155.8666 H   0  0  0  0  0  0  0  0  0  0  0  0  # atno 8010 bound_to 7997
  140.2017  144.3981  150.6526 H   0  0  0  0  0  0  0  0  0  0  0  0  # atno 10167 bound_to 10162
  157.6074  131.1041  150.7663 H   0  0  0  0  0  0  0  0  0  0  0  0  # atno 10718 bound_to 10713
  154.7845  135.3186  154.7916 H   0  0  0  0  0  0  0  0  0  0  0  0  # atno 10763 bound_to 10752
  153.8620  135.6852  153.4786 H   0  0  0  0  0  0  0  0  0  0  0  0  # atno 10764 bound_to 10752
  153.1492  135.4706  154.9550 H   0  0  0  0  0  0  0  0  0  0  0  0  # atno 10765 bound_to 10752
  140.5791  134.0030  155.8040 H   0  0  0  0  0  0  0  0  0  0  0  0  # atno 11005 bound_to 11000
  144.7881  140.5977  143.6560 LP  0  0  0  0  0  0  0  0  0  0  0  0  # atno 17320 bound_to 7965
  145.4868  139.1491  143.3731 LP  0  0  0  0  0  0  0  0  0  0  0  0  # atno 17321 bound_to 7965
  140.6386  143.2199  151.6341 LP  0  0  0  0  0  0  0  0  0  0  0  0  # atno 17342 bound_to 10162
  139.5214  144.3192  152.0925 LP  0  0  0  0  0  0  0  0  0  0  0  0  # atno 17343 bound_to 10162
  156.8049  130.4933  149.5364 LP  0  0  0  0  0  0  0  0  0  0  0  0  # atno 17370 bound_to 10713
  156.1165  130.6078  151.0128 LP  0  0  0  0  0  0  0  0  0  0  0  0  # atno 17371 bound_to 10713
  141.1008  133.9772  157.3083 LP  0  0  0  0  0  0  0  0  0  0  0  0  # atno 17394 bound_to 11000
  139.9326  135.0199  156.8449 LP  0  0  0  0  0  0  0  0  0  0  0  0  # atno 17395 bound_to 11000

$$$$
