AV-unprocessed.smi:706|AV-procd|sdf|3452|dock9
  -GOLD-   22720 0433D 1   1.00000     0.00000
 Structure written by MMmdl.
 27 27  0  0  0  0  0  0  0  0  1 V2000
  151.9564  144.0088  158.3744 C   0  0  0  0  0  0  0  0  0  0  0  0
  150.7960  143.2226  157.7604 C   0  0  0  0  0  0  0  0  0  0  0  0
  151.2561  141.9241  157.4162 O   0  0  0  0  0  0  0  0  0  0  0  0
  150.2975  141.1315  156.7305 C   0  0  0  0  0  0  0  0  0  0  0  0
  149.9425  141.7346  155.3587 C   0  0  0  0  0  0  0  0  0  0  0  0
  149.0144  140.9084  154.6160 N   0  0  0  0  0  0  0  0  0  0  0  0
  147.7020  141.2865  154.3208 C   0  0  0  0  0  0  0  0  0  0  0  0
  147.2393  142.5190  154.7467 N   0  0  0  0  0  0  0  0  0  0  0  0
  146.8722  140.4788  153.6124 C   0  0  0  0  0  0  0  0  0  0  0  0
  147.3132  139.1787  153.1191 C   0  0  0  0  0  0  0  0  0  0  0  0
  146.6197  138.3905  152.4803 O   0  0  0  0  0  0  0  0  0  0  0  0
  148.6371  138.8624  153.4237 N   0  0  0  0  0  0  0  0  0  0  0  0
  149.5165  139.6712  154.1406 C   0  0  0  0  0  0  0  0  0  0  0  0
  150.6729  139.2910  154.3280 O   0  0  0  0  0  0  0  0  0  0  0  0
  148.9897  137.9767  153.0910 H   0  0  0  0  0  0  0  0  0  0  0  0
  151.6419  145.0147  158.6533 H   0  0  0  0  0  0  0  0  0  0  0  0
  152.7830  144.1003  157.6696 H   0  0  0  0  0  0  0  0  0  0  0  0
  152.3324  143.5153  159.2711 H   0  0  0  0  0  0  0  0  0  0  0  0
  149.9765  143.1538  158.4773 H   0  0  0  0  0  0  0  0  0  0  0  0
  150.4230  143.7487  156.8817 H   0  0  0  0  0  0  0  0  0  0  0  0
  150.7398  140.1459  156.5813 H   0  0  0  0  0  0  0  0  0  0  0  0
  149.4087  140.9797  157.3452 H   0  0  0  0  0  0  0  0  0  0  0  0
  149.5109  142.7338  155.4311 H   0  0  0  0  0  0  0  0  0  0  0  0
  150.8306  141.8527  154.7390 H   0  0  0  0  0  0  0  0  0  0  0  0
  147.8238  143.1575  155.2673 H   0  0  0  0  0  0  0  0  0  0  0  0
  146.2904  142.8202  154.5756 H   0  0  0  0  0  0  0  0  0  0  0  0
  145.8605  140.7950  153.3991 H   0  0  0  0  0  0  0  0  0  0  0  0
  1  2  1  0  0  0  0
  1 16  1  0  0  0  0
  1 17  1  0  0  0  0
  1 18  1  0  0  0  0
  2  3  1  0  0  0  0
  2 19  1  0  0  0  0
  2 20  1  0  0  0  0
  3  4  1  0  0  0  0
  4  5  1  0  0  0  0
  4 21  1  0  0  0  0
  4 22  1  0  0  0  0
  5  6  1  0  0  0  0
  5 23  1  0  0  0  0
  5 24  1  0  0  0  0
  6 13  1  0  0  0  0
  6  7  1  0  0  0  0
  7  8  1  0  0  0  0
  7  9  2  0  0  0  0
  8 25  1  0  0  0  0
  8 26  1  0  0  0  0
  9 10  1  0  0  0  0
  9 27  1  0  0  0  0
 10 11  2  0  0  0  0
 10 12  1  0  0  0  0
 12 15  1  0  0  0  0
 12 13  1  0  0  0  0
 13 14  2  0  0  0  0
M  END
> <s_m_source_file>
AV-unprocessed.smi

> <i_m_source_file_index>
706

> <i_lp_mmshare_version>
43012

> <i_f3d_flags>
0

> <s_epik_input>
W0NIM11bQ0gyXU9bQ0gyXVtDSDJdbjFjKFtOSDJdKVtjSF1jKD1PKVtuSF1jMT1P

> <s_epik_cmdline>
J2VwaWtfcHl0aG9uJywgJy1waCcsICc3LjAnLCAnLXRuJywgJzgnLCAnLW1hJywgJzIwMCcsICctbWV0YWxfYmluZGluZycsICctaW1hZScsICc8aW5maWxlLm1hZT4nLCAnLW9tYWUnLCAnPG91dGZpbGUubWFlPic=

> <r_lp_tautomer_probability>
1

> <r_epik_Ionization_Penalty>
6.92057e-06

> <r_epik_Ionization_Penalty_Charging>
2.18399e-06

> <r_epik_Ionization_Penalty_Neutral>
4.73657e-06

> <r_epik_State_Penalty>
-0

> <r_epik_Charging_Adjusted_Penalty>
2.18399e-06

> <i_epik_Tot_Q>
0

> <i_epik_Tot_abs_Q>
0

> <r_epik_Metal_State_Penalty>
-0

> <b_epik_Metal_Only>
0

> <s_epik_Chemistry_Notes>
This compound has an imine and may undergo hydrolysis.

> <s_lp_Force_Field>
OPLS_2005

> <r_lp_Energy>
11.2939

> <b_lp_Chiralities_Consistent>
1

> <s_lp_Variant>
AV-unprocessed.smi:706-1

> <Gold.Version>
5.8.1

> <Gold.Id.Protein>
6NUR|6NUR_protein|mol2

> <Gold.PLP.Fitness>
34.8114

> <Gold.PLP.PLP>
-26.3850

> <Gold.PLP.part.hbond>
-4.0000

> <Gold.PLP.part.metal>
0.0000

> <Gold.PLP.part.buried>
-0.4449

> <Gold.PLP.part.nonpolar>
-22.0959

> <Gold.PLP.part.repulsive>
0.6944

> <Gold.PLP.ligand.clash>
0.0000

> <Gold.PLP.ligand.torsion>
0.0789

> <Gold.PLP.Chemscore.Hbond>
2.8600

> <Gold.PLP.Chemscore.CHOScore>
0.0000

> <Gold.PLP.Chemscore.Metal>
0.0000

> <Gold.Chemscore.Hbonds>
donor molecule, donor type, donor heavy atom, donor atom, acceptor molecule, acceptor atom, score
      L1  H     8    25       P1  8028  1.00
      L1  H    12    15       P1  7948  0.81
      P1  H  7989  7998       L1    14  0.90

> <Gold.PLP.Chemscore.Internal.Correction>
0.0042

> <Gold.Rescore>
     Score         DG    S(hbond)    S(metal)    S(lipo)     H(rot)  DE(clash)    DE(int)     intcor
     10.84     -11.25       1.83        0.00      43.58       2.12       0.28       0.13       ----

> <Gold.Chemscore.Fitness>
10.8430

> <Gold.Chemscore.DG>
-11.2506

> <Gold.Chemscore.ZeroCoef>
-5.4800

> <Gold.Chemscore.Hbond>
1.8297

> <Gold.Chemscore.Metal>
0.0000

> <Gold.Chemscore.Lipo>
43.5841

> <Gold.Chemscore.Internal_Hbond>
0.0000

> <Gold.Chemscore.DEClash>
0.2753

> <Gold.Chemscore.DEInternal>
0.1323

> <Gold.Chemscore.Rot>
2.1250

> <Gold.Chemscore.Internal.Correction>
   9.000000E+99

> <Gold.Chemscore.Hbonds>
donor molecule, donor type, donor heavy atom, donor atom, acceptor molecule, acceptor atom, score
      L1  H     8    25       P1  8028  0.60
      L1  H    12    15       P1  7948  0.77
      P1  H  7989  7998       L1    14  0.17

> <Gold.Chemscore.Hbond.Weighted>
-6.1112

> <Gold.Chemscore.Metal.Weighted>
-0.0000

> <Gold.Chemscore.Lipo.Weighted>
-5.0993

> <Gold.Chemscore.Internal_Hbond.Weighted>
0.0000

> <Gold.Chemscore.DEClash.Weighted>
0.2753

> <Gold.Chemscore.DEInternal.Weighted>
0.1323

> <Gold.Chemscore.Rot.Weighted>
5.4399

> <Gold.Chemscore.Internal.Correction.Weighted>
   9.000000E+99

> <Gold.Protein.RotatedTorsions>
[ 6907 6896 6895 6894 ] final  -24.84 input  -60.11 | X-H torsion
[ 7974 7965 7964 7962 ] final -105.30 input  175.53 | X-H torsion
[ 8008 7997 7996 7995 ] final  106.90 input   59.86 | X-H torsion
[ 10167 10162 10161 10158 ] final  -53.16 input  -65.29 | X-H torsion
[ 10718 10713 10712 10709 ] final -112.88 input   66.30 | X-H torsion
[ 10763 10752 10751 10750 ] final -175.58 input  -60.55 | X-H torsion
[ 11005 11000 10999 10996 ] final   28.07 input  -57.11 | X-H torsion

> <Gold.Protein.ActiveResidues>
 VAL166  LYS551  ARG553  GLY616  TRP617  ASP618  TYR619  PRO620  LYS621  CYS622 
 ASP623  PHE694  ASN695  SER759  ASP760  ASP761  ALA762  ILE779  LEU786  VAL792 
 PHE793  MET794  SER795  GLU796  ALA797  LYS798  CYS799  TRP800  GLU811  SER814 

> <Gold.Protein.RotatedAtoms>
  151.1837  135.0372  159.8802 H   0  0  0  0  0  0  0  0  0  0  0  0  # atno 6907 bound_to 6896
  152.5443  134.1034  159.8338 H   0  0  0  0  0  0  0  0  0  0  0  0  # atno 6908 bound_to 6896
  151.1154  133.5095  159.2636 H   0  0  0  0  0  0  0  0  0  0  0  0  # atno 6909 bound_to 6896
  145.2322  140.9174  143.3198 H   0  0  0  0  0  0  0  0  0  0  0  0  # atno 7974 bound_to 7965
  156.1781  140.3104  155.9097 H   0  0  0  0  0  0  0  0  0  0  0  0  # atno 8008 bound_to 7997
  155.3444  140.0467  157.3062 H   0  0  0  0  0  0  0  0  0  0  0  0  # atno 8009 bound_to 7997
  154.5312  140.2231  155.8811 H   0  0  0  0  0  0  0  0  0  0  0  0  # atno 8010 bound_to 7997
  140.6499  143.2559  151.4753 H   0  0  0  0  0  0  0  0  0  0  0  0  # atno 10167 bound_to 10162
  156.0732  130.5943  150.8568 H   0  0  0  0  0  0  0  0  0  0  0  0  # atno 10718 bound_to 10713
  154.5827  135.2837  155.0716 H   0  0  0  0  0  0  0  0  0  0  0  0  # atno 10763 bound_to 10752
  154.2046  135.6418  153.5101 H   0  0  0  0  0  0  0  0  0  0  0  0  # atno 10764 bound_to 10752
  153.0094  135.5477  154.6486 H   0  0  0  0  0  0  0  0  0  0  0  0  # atno 10765 bound_to 10752
  140.3195  134.2559  155.7719 H   0  0  0  0  0  0  0  0  0  0  0  0  # atno 11005 bound_to 11000
  144.9666  139.3924  143.6329 LP  0  0  0  0  0  0  0  0  0  0  0  0  # atno 17320 bound_to 7965
  146.3350  139.8744  142.8834 LP  0  0  0  0  0  0  0  0  0  0  0  0  # atno 17321 bound_to 7965
  139.5713  144.1922  152.1840 LP  0  0  0  0  0  0  0  0  0  0  0  0  # atno 17342 bound_to 10162
  140.1219  144.5366  150.6857 LP  0  0  0  0  0  0  0  0  0  0  0  0  # atno 17343 bound_to 10162
  157.5814  131.0946  150.9264 LP  0  0  0  0  0  0  0  0  0  0  0  0  # atno 17370 bound_to 10713
  156.9459  130.5402  149.5281 LP  0  0  0  0  0  0  0  0  0  0  0  0  # atno 17371 bound_to 10713
  141.2090  133.7762  157.0025 LP  0  0  0  0  0  0  0  0  0  0  0  0  # atno 17394 bound_to 11000
  140.0954  134.9567  157.1841 LP  0  0  0  0  0  0  0  0  0  0  0  0  # atno 17395 bound_to 11000

$$$$
