AV-unprocessed.smi:160|AV-procd|sdf|1361|dock2
  -GOLD-   2262019 73D 1   1.00000     0.00000
 Structure written by MMmdl.
 28 29  0  0  0  0  0  0  0  0  2 V2000
  152.6781  141.0410  159.5440 N   0  5  0  0  0  0  0  0  0  0  0  0
  152.5669  140.3311  158.4000 C   0  0  0  0  0  0  0  0  0  0  0  0
  153.2615  139.3705  158.0691 O   0  0  0  0  0  0  0  0  0  0  0  0
  151.4679  140.8001  157.4763 C   0  0  0  0  0  0  0  0  0  0  0  0
  150.6139  141.7978  157.8583 N   0  0  0  0  0  0  0  0  0  0  0  0
  149.8615  141.8617  156.7679 C   0  0  0  0  0  0  0  0  0  0  0  0
  150.2177  141.0092  155.8028 N   0  0  0  0  0  0  0  0  0  0  0  0
  149.5904  140.7735  154.4619 C   0  0  2  0  0  0  0  0  0  0  0  0
  148.6705  141.7993  154.2372 O   0  0  0  0  0  0  0  0  0  0  0  0
  147.3575  141.3473  154.5521 C   0  0  1  0  0  0  0  0  0  0  0  0
  146.2879  142.2466  153.9064 C   0  0  0  0  0  0  0  0  0  0  0  0
  145.0191  141.9679  154.4587 O   0  0  0  0  0  0  0  0  0  0  0  0
  147.3921  139.8948  154.0565 C   0  0  1  0  0  0  0  0  0  0  0  0
  147.1451  139.8391  152.6599 O   0  0  0  0  0  0  0  0  0  0  0  0
  148.8088  139.4441  154.4205 C   0  0  1  0  0  0  0  0  0  0  0  0
  149.3400  138.5139  153.4940 O   0  0  0  0  0  0  0  0  0  0  0  0
  151.2685  140.2830  156.2602 N   0  0  0  0  0  0  0  0  0  0  0  0
  150.4166  140.8321  153.7521 H   0  0  0  0  0  0  0  0  0  0  0  0
  147.2253  141.3381  155.6351 H   0  0  0  0  0  0  0  0  0  0  0  0
  146.6392  139.2834  154.5551 H   0  0  0  0  0  0  0  0  0  0  0  0
  148.8039  138.9774  155.4058 H   0  0  0  0  0  0  0  0  0  0  0  0
  151.8247  141.2447  160.0778 H   0  0  0  0  0  0  0  0  0  0  0  0
  149.0320  142.5466  156.6708 H   0  0  0  0  0  0  0  0  0  0  0  0
  146.5278  143.3033  154.0290 H   0  0  0  0  0  0  0  0  0  0  0  0
  146.2273  142.0472  152.8361 H   0  0  0  0  0  0  0  0  0  0  0  0
  144.6412  141.2391  153.9911 H   0  0  0  0  0  0  0  0  0  0  0  0
  147.9471  140.0572  152.2100 H   0  0  0  0  0  0  0  0  0  0  0  0
  149.3362  138.9115  152.6367 H   0  0  0  0  0  0  0  0  0  0  0  0
  1  2  1  0  0  0  0
  1 22  1  0  0  0  0
  2  3  2  0  0  0  0
  2  4  1  0  0  0  0
  4 17  2  0  0  0  0
  4  5  1  0  0  0  0
  5  6  2  0  0  0  0
  6  7  1  0  0  0  0
  6 23  1  0  0  0  0
  7  8  1  0  0  0  0
  7 17  1  0  0  0  0
  8 18  1  0  0  0  0
  8 15  1  0  0  0  0
  8  9  1  0  0  0  0
  9 10  1  0  0  0  0
 10 19  1  0  0  0  0
 10 11  1  0  0  0  0
 10 13  1  0  0  0  0
 11 12  1  0  0  0  0
 11 24  1  0  0  0  0
 11 25  1  0  0  0  0
 12 26  1  0  0  0  0
 13 20  1  0  0  0  0
 13 14  1  0  0  0  0
 13 15  1  0  0  0  0
 14 27  1  0  0  0  0
 15 21  1  0  0  0  0
 15 16  1  0  0  0  0
 16 28  1  0  0  0  0
M  CHG  1   1  -1
M  END
> <s_m_source_file>
AV-unprocessed.smi

> <i_m_source_file_index>
160

> <i_lp_mmshare_version>
43012

> <i_f3d_flags>
0

> <s_epik_input>
W05IMl1DKD1PKWMxbltjSF1uKG4xKVtDQEBIXTJPW0NASF0oW0NIMl1bT0hdKVtDQEBIXShbT0hdKVtDQEhdMltPSF0=

> <s_epik_cmdline>
J2VwaWtfcHl0aG9uJywgJy1waCcsICc3LjAnLCAnLXRuJywgJzgnLCAnLW1hJywgJzIwMCcsICctbWV0YWxfYmluZGluZycsICctaW1hZScsICc8aW5maWxlLm1hZT4nLCAnLW9tYWUnLCAnPG91dGZpbGUubWFlPic=

> <r_lp_tautomer_probability>
1

> <r_epik_Ionization_Penalty>
6.6993

> <r_epik_Ionization_Penalty_Charging>
6.6993

> <r_epik_Ionization_Penalty_Neutral>
6.01698e-06

> <r_epik_State_Penalty>
6.69929

> <r_epik_Charging_Adjusted_Penalty>
13.3986

> <i_epik_Tot_Q>
-1

> <i_epik_Tot_abs_Q>
1

> <r_epik_Metal_State_Penalty>
2.62798

> <b_epik_Metal_Only>
1

> <s_epik_Chemistry_Notes>
This compound contains an acetal/aminal-like group ( X-CH(R)-Y where X, Y are N, S, or O) that may be acid/base labile, releasing an aldehyde.

> <s_lp_Force_Field>
OPLS_2005

> <r_lp_Energy>
44.8838

> <b_lp_Chiralities_Consistent>
1

> <s_lp_Variant>
AV-unprocessed.smi:160-19

> <Gold.Version>
5.8.1

> <Gold.Id.Protein>
6NUR|6NUR_protein|mol2

> <Gold.PLP.Fitness>
43.3481

> <Gold.PLP.PLP>
-28.3098

> <Gold.PLP.part.hbond>
-5.9914

> <Gold.PLP.part.metal>
0.0000

> <Gold.PLP.part.buried>
-4.3673

> <Gold.PLP.part.nonpolar>
-18.7181

> <Gold.PLP.part.repulsive>
0.2371

> <Gold.PLP.ligand.clash>
0.0000

> <Gold.PLP.ligand.torsion>
0.3472

> <Gold.PLP.Chemscore.Hbond>
4.2359

> <Gold.PLP.Chemscore.CHOScore>
1.0000

> <Gold.PLP.Chemscore.Metal>
0.0000

> <Gold.Chemscore.Hbonds>
donor molecule, donor type, donor heavy atom, donor atom, acceptor molecule, acceptor atom, score
      L1  H    12    26       P1 10175  1.00
      L1  H    14    27       P1  7957  1.00
      L1  H    16    28       P1  7957  1.00
      P1  H  7997  8009       L1     3  0.91
      P1  H  8011  8017       L1     9  0.09
      L1  C     6    23       P1  8028  1.00

> <Gold.PLP.Chemscore.Internal.Correction>
0.0251

> <Gold.Rescore>
     Score         DG    S(hbond)    S(metal)    S(lipo)     H(rot)  DE(clash)    DE(int)     intcor
     10.06     -10.53       3.85        0.00      21.53       4.04       0.18       0.29       ----

> <Gold.Chemscore.Fitness>
10.0612

> <Gold.Chemscore.DG>
-10.5299

> <Gold.Chemscore.ZeroCoef>
-5.4800

> <Gold.Chemscore.Hbond>
3.8546

> <Gold.Chemscore.Metal>
0.0000

> <Gold.Chemscore.Lipo>
21.5251

> <Gold.Chemscore.Internal_Hbond>
0.0000

> <Gold.Chemscore.DEClash>
0.1771

> <Gold.Chemscore.DEInternal>
0.2915

> <Gold.Chemscore.Rot>
4.0403

> <Gold.Chemscore.Internal.Correction>
   9.000000E+99

> <Gold.Chemscore.Hbonds>
donor molecule, donor type, donor heavy atom, donor atom, acceptor molecule, acceptor atom, score
      L1  H    12    26       P1 10175  0.52
      L1  H    14    27       P1  7957  0.99
      L1  H    16    28       P1  7957  0.96
      P1  H  7997  8009       L1     3  0.62
      P1  H  8011  8017       L1     9  0.01

> <Gold.Chemscore.Hbond.Weighted>
-12.8745

> <Gold.Chemscore.Metal.Weighted>
-0.0000

> <Gold.Chemscore.Lipo.Weighted>
-2.5184

> <Gold.Chemscore.Internal_Hbond.Weighted>
0.0000

> <Gold.Chemscore.DEClash.Weighted>
0.1771

> <Gold.Chemscore.DEInternal.Weighted>
0.2915

> <Gold.Chemscore.Rot.Weighted>
10.3431

> <Gold.Chemscore.Internal.Correction.Weighted>
   9.000000E+99

> <Gold.Protein.RotatedTorsions>
[ 6907 6896 6895 6894 ] final  138.42 input  -60.11 | X-H torsion
[ 7974 7965 7964 7962 ] final   -4.44 input  175.53 | X-H torsion
[ 8008 7997 7996 7995 ] final  132.31 input   59.86 | X-H torsion
[ 10167 10162 10161 10158 ] final   84.13 input  -65.29 | X-H torsion
[ 10718 10713 10712 10709 ] final   47.15 input   66.30 | X-H torsion
[ 10763 10752 10751 10750 ] final -124.17 input  -60.55 | X-H torsion
[ 11005 11000 10999 10996 ] final  -99.54 input  -57.11 | X-H torsion

> <Gold.Protein.ActiveResidues>
 VAL166  LYS551  ARG553  GLY616  TRP617  ASP618  TYR619  PRO620  LYS621  CYS622 
 ASP623  PHE694  ASN695  SER759  ASP760  ASP761  ALA762  ILE779  LEU786  VAL792 
 PHE793  MET794  SER795  GLU796  ALA797  LYS798  CYS799  TRP800  GLU811  SER814 

> <Gold.Protein.RotatedAtoms>
  152.2668  133.5346  159.5414 H   0  0  0  0  0  0  0  0  0  0  0  0  # atno 6907 bound_to 6896
  150.7144  134.0753  159.3888 H   0  0  0  0  0  0  0  0  0  0  0  0  # atno 6908 bound_to 6896
  151.8669  135.0504  160.0526 H   0  0  0  0  0  0  0  0  0  0  0  0  # atno 6909 bound_to 6896
  146.2372  140.1872  142.8332 H   0  0  0  0  0  0  0  0  0  0  0  0  # atno 7974 bound_to 7965
  156.2981  140.2549  156.3068 H   0  0  0  0  0  0  0  0  0  0  0  0  # atno 8008 bound_to 7997
  154.9365  140.0397  157.2093 H   0  0  0  0  0  0  0  0  0  0  0  0  # atno 8009 bound_to 7997
  154.8168  140.2853  155.5819 H   0  0  0  0  0  0  0  0  0  0  0  0  # atno 8010 bound_to 7997
  139.9112  144.6270  150.8535 H   0  0  0  0  0  0  0  0  0  0  0  0  # atno 10167 bound_to 10162
  157.4555  130.8164  149.7832 H   0  0  0  0  0  0  0  0  0  0  0  0  # atno 10718 bound_to 10713
  154.8719  135.4073  154.3062 H   0  0  0  0  0  0  0  0  0  0  0  0  # atno 10763 bound_to 10752
  153.3914  135.7015  153.6498 H   0  0  0  0  0  0  0  0  0  0  0  0  # atno 10764 bound_to 10752
  153.5279  135.3673  155.2633 H   0  0  0  0  0  0  0  0  0  0  0  0  # atno 10765 bound_to 10752
  141.1305  133.8329  157.0984 H   0  0  0  0  0  0  0  0  0  0  0  0  # atno 11005 bound_to 11000
  144.9887  140.8526  143.5353 LP  0  0  0  0  0  0  0  0  0  0  0  0  # atno 17320 bound_to 7965
  145.1875  139.2318  143.5260 LP  0  0  0  0  0  0  0  0  0  0  0  0  # atno 17321 bound_to 7965
  140.7685  143.3364  151.2300 LP  0  0  0  0  0  0  0  0  0  0  0  0  # atno 17342 bound_to 10162
  139.6941  143.9643  152.2874 LP  0  0  0  0  0  0  0  0  0  0  0  0  # atno 17343 bound_to 10162
  156.0005  130.3883  150.2624 LP  0  0  0  0  0  0  0  0  0  0  0  0  # atno 17370 bound_to 10713
  157.0798  131.0140  151.3160 LP  0  0  0  0  0  0  0  0  0  0  0  0  # atno 17371 bound_to 10713
  140.0348  134.9883  157.0850 LP  0  0  0  0  0  0  0  0  0  0  0  0  # atno 17394 bound_to 11000
  140.4227  134.1863  155.7165 LP  0  0  0  0  0  0  0  0  0  0  0  0  # atno 17395 bound_to 11000

$$$$
