AV-unprocessed.smi:234|AV-procd|sdf|1786|dock2
  -GOLD-   2262020343D 1   1.00000     0.00000
 Structure written by MMmdl.
 59 62  0  0  0  0  0  0  0  0  1 V2000
  150.7655  142.5022  158.6298 C   0  0  0  0  0  0  0  0  0  0  0  0
  151.3713  141.1995  158.0905 C   0  0  0  0  0  0  0  0  0  0  0  0
  150.8936  140.9010  156.7859 O   0  0  0  0  0  0  0  0  0  0  0  0
  149.9850  139.8092  156.7289 C   0  0  1  0  0  0  0  0  0  0  0  0
  148.5517  140.1545  157.1413 C   0  0  0  0  0  0  0  0  0  0  0  0
  148.1223  139.2032  156.0211 C   0  0  1  0  0  0  0  0  0  0  0  0
  146.9107  139.6321  155.3181 N   0  0  0  0  0  0  0  0  0  0  0  0
  145.7193  139.8183  156.1363 C   0  0  0  0  0  0  0  0  0  0  0  0
  146.6091  138.9394  154.1952 C   0  0  0  0  0  0  0  0  0  0  0  0
  147.2133  139.2458  153.0165 N   0  0  0  0  0  0  0  0  0  0  0  0
  146.9107  138.5569  151.9119 C   0  0  0  0  0  0  0  0  0  0  0  0
  146.0522  137.5447  151.7680 N   0  0  0  0  0  0  0  0  0  0  0  0
  145.4486  137.2333  152.9510 C   0  0  0  0  0  0  0  0  0  0  0  0
  145.6755  137.8696  154.2029 C   0  0  0  0  0  0  0  0  0  0  0  0
  144.8895  137.2842  155.1866 N   0  0  0  0  0  0  0  0  0  0  0  0
  144.2297  136.3549  154.5506 C   0  0  0  0  0  0  0  0  0  0  0  0
  144.4941  136.2627  153.2019 N   0  0  0  0  0  0  0  0  0  0  0  0
  143.8914  135.3301  152.2611 C   0  0  0  0  0  0  0  0  0  0  0  0
  144.9198  134.6675  151.3063 C   0  0  1  0  0  0  0  0  0  0  0  0
  145.2503  135.6094  150.2984 O   0  0  0  0  0  0  0  0  0  0  0  0
  146.2159  134.2495  151.9957 C   0  0  0  0  0  0  0  0  0  0  0  0
  146.6932  133.0795  151.1498 C   0  0  0  0  0  0  0  0  0  0  0  0
  145.4835  132.3988  150.8672 O   0  0  0  0  0  0  0  0  0  0  0  0
  144.4648  133.3594  150.5984 C   0  0  1  0  0  0  0  0  0  0  0  0
  143.1260  132.7560  151.0513 C   0  0  0  0  0  0  0  0  0  0  0  0
  149.4642  139.5227  155.2981 C   0  0  0  0  0  0  0  0  0  0  0  0
  149.4906  140.7230  154.3335 C   0  0  0  0  0  0  0  0  0  0  0  0
  150.1427  138.3564  154.5794 C   0  0  0  0  0  0  0  0  0  0  0  0
  151.0678  142.6679  159.6641 H   0  0  0  0  0  0  0  0  0  0  0  0
  149.6763  142.4648  158.6044 H   0  0  0  0  0  0  0  0  0  0  0  0
  151.0862  143.3693  158.0534 H   0  0  0  0  0  0  0  0  0  0  0  0
  152.4612  141.2342  158.1139 H   0  0  0  0  0  0  0  0  0  0  0  0
  151.0749  140.3786  158.7437 H   0  0  0  0  0  0  0  0  0  0  0  0
  150.3544  138.9047  157.2162 H   0  0  0  0  0  0  0  0  0  0  0  0
  148.2764  139.8307  158.1451 H   0  0  0  0  0  0  0  0  0  0  0  0
  148.2897  141.1992  156.9652 H   0  0  0  0  0  0  0  0  0  0  0  0
  148.0815  138.1722  156.3789 H   0  0  0  0  0  0  0  0  0  0  0  0
  144.8788  140.1759  155.5393 H   0  0  0  0  0  0  0  0  0  0  0  0
  145.9034  140.5549  156.9185 H   0  0  0  0  0  0  0  0  0  0  0  0
  145.4289  138.8808  156.6129 H   0  0  0  0  0  0  0  0  0  0  0  0
  147.4290  138.8615  151.0149 H   0  0  0  0  0  0  0  0  0  0  0  0
  143.5188  135.7121  155.0495 H   0  0  0  0  0  0  0  0  0  0  0  0
  143.3576  134.5734  152.8367 H   0  0  0  0  0  0  0  0  0  0  0  0
  143.1376  135.8718  151.6883 H   0  0  0  0  0  0  0  0  0  0  0  0
  145.3118  135.1540  149.4726 H   0  0  0  0  0  0  0  0  0  0  0  0
  146.9518  135.0504  152.0807 H   0  0  0  0  0  0  0  0  0  0  0  0
  146.0050  133.8834  153.0011 H   0  0  0  0  0  0  0  0  0  0  0  0
  147.1524  133.4235  150.2218 H   0  0  0  0  0  0  0  0  0  0  0  0
  147.4032  132.4396  151.6740 H   0  0  0  0  0  0  0  0  0  0  0  0
  144.4269  133.5055  149.5171 H   0  0  0  0  0  0  0  0  0  0  0  0
  142.2961  133.4352  150.8565 H   0  0  0  0  0  0  0  0  0  0  0  0
  143.1327  132.5189  152.1154 H   0  0  0  0  0  0  0  0  0  0  0  0
  142.9210  131.8307  150.5124 H   0  0  0  0  0  0  0  0  0  0  0  0
  149.0169  140.4877  153.3806 H   0  0  0  0  0  0  0  0  0  0  0  0
  150.5127  141.0319  154.1127 H   0  0  0  0  0  0  0  0  0  0  0  0
  148.9755  141.5925  154.7419 H   0  0  0  0  0  0  0  0  0  0  0  0
  149.6717  138.1453  153.6189 H   0  0  0  0  0  0  0  0  0  0  0  0
  150.0953  137.4408  155.1696 H   0  0  0  0  0  0  0  0  0  0  0  0
  151.1959  138.5656  154.3899 H   0  0  0  0  0  0  0  0  0  0  0  0
  1  2  1  0  0  0  0
  1 29  1  0  0  0  0
  1 30  1  0  0  0  0
  1 31  1  0  0  0  0
  2  3  1  0  0  0  0
  2 32  1  0  0  0  0
  2 33  1  0  0  0  0
  3  4  1  0  0  0  0
  4 26  1  0  0  0  0
  4  5  1  0  0  0  0
  4 34  1  0  0  0  0
  5  6  1  0  0  0  0
  5 35  1  0  0  0  0
  5 36  1  0  0  0  0
  6  7  1  0  0  0  0
  6 26  1  0  0  0  0
  6 37  1  0  0  0  0
  7  8  1  0  0  0  0
  7  9  1  0  0  0  0
  8 38  1  0  0  0  0
  8 39  1  0  0  0  0
  8 40  1  0  0  0  0
  9 14  1  0  0  0  0
  9 10  2  0  0  0  0
 10 11  1  0  0  0  0
 11 12  2  0  0  0  0
 11 41  1  0  0  0  0
 12 13  1  0  0  0  0
 13 17  1  0  0  0  0
 13 14  2  0  0  0  0
 14 15  1  0  0  0  0
 15 16  2  0  0  0  0
 16 17  1  0  0  0  0
 16 42  1  0  0  0  0
 17 18  1  0  0  0  0
 18 19  1  0  0  0  0
 18 43  1  0  0  0  0
 18 44  1  0  0  0  0
 19 24  1  0  0  0  0
 19 20  1  0  0  0  0
 19 21  1  0  0  0  0
 20 45  1  0  0  0  0
 21 22  1  0  0  0  0
 21 46  1  0  0  0  0
 21 47  1  0  0  0  0
 22 23  1  0  0  0  0
 22 48  1  0  0  0  0
 22 49  1  0  0  0  0
 23 24  1  0  0  0  0
 24 25  1  0  0  0  0
 24 50  1  0  0  0  0
 25 51  1  0  0  0  0
 25 52  1  0  0  0  0
 25 53  1  0  0  0  0
 26 27  1  0  0  0  0
 26 28  1  0  0  0  0
 27 54  1  0  0  0  0
 27 55  1  0  0  0  0
 27 56  1  0  0  0  0
 28 57  1  0  0  0  0
 28 58  1  0  0  0  0
 28 59  1  0  0  0  0
M  END
> <s_m_source_file>
AV-unprocessed.smi

> <i_m_source_file_index>
234

> <i_lp_mmshare_version>
43012

> <i_f3d_flags>
0

> <s_epik_input>
W0NIM11bQ0gyXU9bQ0BASF0oQzEoW0NIM10pW0NIM10pW0NIMl1bQ0BIXTFOKFtDSDNdKWMobltjSF1uMiljKGMyMyluW2NIXW4zW0NIMl1bQ0BAXTQoW09IXSlbQ0gyXVtDSDJdT1tDQEhdNFtDSDNd

> <s_epik_cmdline>
J2VwaWtfcHl0aG9uJywgJy1waCcsICc3LjAnLCAnLXRuJywgJzgnLCAnLW1hJywgJzIwMCcsICctbWV0YWxfYmluZGluZycsICctaW1hZScsICc8aW5maWxlLm1hZT4nLCAnLW9tYWUnLCAnPG91dGZpbGUubWFlPic=

> <r_lp_tautomer_probability>
1

> <r_epik_Ionization_Penalty>
0.00349132

> <r_epik_Ionization_Penalty_Charging>
0

> <r_epik_Ionization_Penalty_Neutral>
0.00349132

> <r_epik_State_Penalty>
0.00242418

> <r_epik_Charging_Adjusted_Penalty>
0.00242418

> <i_epik_Tot_Q>
0

> <i_epik_Tot_abs_Q>
0

> <r_epik_Metal_State_Penalty>
-0

> <b_epik_Metal_Only>
0

> <s_lp_Force_Field>
OPLS_2005

> <r_lp_Energy>
47.6345

> <b_lp_Chiralities_Consistent>
1

> <s_lp_Variant>
AV-unprocessed.smi:234-2

> <Gold.Version>
5.8.1

> <Gold.Id.Protein>
6NUR|6NUR_protein|mol2

> <Gold.PLP.Fitness>
38.0950

> <Gold.PLP.PLP>
-35.4839

> <Gold.PLP.part.hbond>
-1.6412

> <Gold.PLP.part.metal>
0.0000

> <Gold.PLP.part.buried>
-5.2997

> <Gold.PLP.part.nonpolar>
-30.9415

> <Gold.PLP.part.repulsive>
2.3288

> <Gold.PLP.ligand.clash>
0.1664

> <Gold.PLP.ligand.torsion>
1.6713

> <Gold.PLP.Chemscore.Hbond>
1.0000

> <Gold.PLP.Chemscore.CHOScore>
0.7544

> <Gold.PLP.Chemscore.Metal>
0.0000

> <Gold.Chemscore.Hbonds>
donor molecule, donor type, donor heavy atom, donor atom, acceptor molecule, acceptor atom, score
      L1  H    20    45       P1  7921  0.98
      L1  C    11    41       P1  7957  0.84

> <Gold.PLP.Chemscore.Internal.Correction>
0.8569

> <Gold.Rescore>
     Score         DG    S(hbond)    S(metal)    S(lipo)     H(rot)  DE(clash)    DE(int)     intcor
      7.37     -10.64       0.95        0.00      74.44       2.62       0.49       2.78       ----

> <Gold.Chemscore.Fitness>
7.3704

> <Gold.Chemscore.DG>
-10.6443

> <Gold.Chemscore.ZeroCoef>
-5.4800

> <Gold.Chemscore.Hbond>
0.9482

> <Gold.Chemscore.Metal>
0.0000

> <Gold.Chemscore.Lipo>
74.4403

> <Gold.Chemscore.Internal_Hbond>
0.0000

> <Gold.Chemscore.DEClash>
0.4894

> <Gold.Chemscore.DEInternal>
2.7845

> <Gold.Chemscore.Rot>
2.6219

> <Gold.Chemscore.Internal.Correction>
   9.000000E+99

> <Gold.Chemscore.Hbonds>
donor molecule, donor type, donor heavy atom, donor atom, acceptor molecule, acceptor atom, score
      L1  H    20    45       P1  7921  0.90

> <Gold.Chemscore.Hbond.Weighted>
-3.1669

> <Gold.Chemscore.Metal.Weighted>
-0.0000

> <Gold.Chemscore.Lipo.Weighted>
-8.7095

> <Gold.Chemscore.Internal_Hbond.Weighted>
0.0000

> <Gold.Chemscore.DEClash.Weighted>
0.4894

> <Gold.Chemscore.DEInternal.Weighted>
2.7845

> <Gold.Chemscore.Rot.Weighted>
6.7121

> <Gold.Chemscore.Internal.Correction.Weighted>
   9.000000E+99

> <Gold.Protein.RotatedTorsions>
[ 6907 6896 6895 6894 ] final -146.79 input  -60.11 | X-H torsion
[ 7974 7965 7964 7962 ] final  -17.59 input  175.53 | X-H torsion
[ 8008 7997 7996 7995 ] final  175.47 input   59.86 | X-H torsion
[ 10167 10162 10161 10158 ] final  -24.27 input  -65.29 | X-H torsion
[ 10718 10713 10712 10709 ] final  -60.87 input   66.30 | X-H torsion
[ 10763 10752 10751 10750 ] final  127.84 input  -60.55 | X-H torsion
[ 11005 11000 10999 10996 ] final  150.13 input  -57.11 | X-H torsion

> <Gold.Protein.ActiveResidues>
 VAL166  LYS551  ARG553  GLY616  TRP617  ASP618  TYR619  PRO620  LYS621  CYS622 
 ASP623  PHE694  ASN695  SER759  ASP760  ASP761  ALA762  ILE779  LEU786  VAL792 
 PHE793  MET794  SER795  GLU796  ALA797  LYS798  CYS799  TRP800  GLU811  SER814 

> <Gold.Protein.RotatedAtoms>
  151.1466  133.4935  159.2595 H   0  0  0  0  0  0  0  0  0  0  0  0  # atno 6907 bound_to 6896
  151.1598  135.0267  159.8715 H   0  0  0  0  0  0  0  0  0  0  0  0  # atno 6908 bound_to 6896
  152.5463  134.1341  159.8505 H   0  0  0  0  0  0  0  0  0  0  0  0  # atno 6909 bound_to 6896
  146.1933  140.3801  142.8450 H   0  0  0  0  0  0  0  0  0  0  0  0  # atno 7974 bound_to 7965
  156.0867  140.1408  156.9644 H   0  0  0  0  0  0  0  0  0  0  0  0  # atno 8008 bound_to 7997
  154.4617  140.0941  156.6959 H   0  0  0  0  0  0  0  0  0  0  0  0  # atno 8009 bound_to 7997
  155.4987  140.3450  155.4369 H   0  0  0  0  0  0  0  0  0  0  0  0  # atno 8010 bound_to 7997
  140.7288  143.4368  151.0717 H   0  0  0  0  0  0  0  0  0  0  0  0  # atno 10167 bound_to 10162
  156.0960  130.4193  150.0915 H   0  0  0  0  0  0  0  0  0  0  0  0  # atno 10718 bound_to 10713
  153.7158  135.3261  155.3256 H   0  0  0  0  0  0  0  0  0  0  0  0  # atno 10763 bound_to 10752
  154.8371  135.4488  154.1267 H   0  0  0  0  0  0  0  0  0  0  0  0  # atno 10764 bound_to 10752
  153.2374  135.6967  153.7901 H   0  0  0  0  0  0  0  0  0  0  0  0  # atno 10765 bound_to 10752
  140.1105  134.8927  157.1928 H   0  0  0  0  0  0  0  0  0  0  0  0  # atno 11005 bound_to 11000
  144.8530  140.7030  143.6156 LP  0  0  0  0  0  0  0  0  0  0  0  0  # atno 17320 bound_to 7965
  145.3722  139.1656  143.4325 LP  0  0  0  0  0  0  0  0  0  0  0  0  # atno 17321 bound_to 7965
  139.8031  143.8056  152.3165 LP  0  0  0  0  0  0  0  0  0  0  0  0  # atno 17342 bound_to 10162
  139.8079  144.7348  150.9736 LP  0  0  0  0  0  0  0  0  0  0  0  0  # atno 17343 bound_to 10162
  156.8913  130.9589  151.3588 LP  0  0  0  0  0  0  0  0  0  0  0  0  # atno 17370 bound_to 10713
  157.6121  130.8591  149.8969 LP  0  0  0  0  0  0  0  0  0  0  0  0  # atno 17371 bound_to 10713
  140.3098  134.3036  155.7269 LP  0  0  0  0  0  0  0  0  0  0  0  0  # atno 17394 bound_to 11000
  141.2129  133.7643  156.9760 LP  0  0  0  0  0  0  0  0  0  0  0  0  # atno 17395 bound_to 11000

$$$$
