AV-unprocessed.smi:1216|AV-procd|sdf|5100|dock5
  -GOLD-   22720 4153D 1   1.00000     0.00000
 Structure written by MMmdl.
 42 43  0  0  0  0  0  0  0  0  1 V2000
  151.6546  137.8334  158.0730 C   0  0  0  0  0  0  0  0  0  0  0  0
  150.9741  136.6604  157.3553 C   0  0  2  0  0  0  0  0  0  0  0  0
  151.2104  136.7216  155.8304 C   0  0  0  0  0  0  0  0  0  0  0  0
  150.7841  137.9800  155.2444 N   0  0  0  0  0  0  0  0  0  0  0  0
  149.7105  138.1860  154.3880 C   0  0  0  0  0  0  0  0  0  0  0  0
  149.6858  139.5331  154.1055 C   0  0  0  0  0  0  0  0  0  0  0  0
  150.7346  140.1700  154.7642 N   0  0  0  0  0  0  0  0  0  0  0  0
  151.3436  139.1860  155.4132 C   0  0  0  0  0  0  0  0  0  0  0  0
  149.5441  136.6808  157.6612 N   0  0  0  0  0  0  0  0  0  0  0  0
  148.8506  135.6772  158.2218 C   0  0  0  0  0  0  0  0  0  0  0  0
  149.3655  134.6231  158.5968 O   0  0  0  0  0  0  0  0  0  0  0  0
  147.3437  135.9014  158.3895 C   0  0  0  0  0  0  0  0  0  0  0  0
  146.8653  135.4418  159.7015 N   0  0  0  0  0  0  0  0  0  0  0  0
  145.9737  134.2706  159.7108 C   0  0  0  0  0  0  0  0  0  0  0  0
  146.6040  133.0085  160.3436 C   0  0  0  0  0  0  0  0  0  0  0  0
  147.6460  133.2499  161.4536 C   0  0  0  0  0  0  0  0  0  0  0  0
  147.1831  134.1815  162.5931 C   0  0  0  0  0  0  0  0  0  0  0  0
  146.6461  135.5711  162.1745 C   0  0  0  0  0  0  0  0  0  0  0  0
  147.2065  136.0935  160.8418 C   0  0  0  0  0  0  0  0  0  0  0  0
  147.9414  137.0815  160.8558 O   0  0  0  0  0  0  0  0  0  0  0  0
  152.7297  137.8338  157.8909 H   0  0  0  0  0  0  0  0  0  0  0  0
  151.5049  137.7749  159.1517 H   0  0  0  0  0  0  0  0  0  0  0  0
  151.2596  138.7912  157.7328 H   0  0  0  0  0  0  0  0  0  0  0  0
  151.4230  135.7438  157.7424 H   0  0  0  0  0  0  0  0  0  0  0  0
  152.2652  136.5645  155.5998 H   0  0  0  0  0  0  0  0  0  0  0  0
  150.6603  135.9213  155.3341 H   0  0  0  0  0  0  0  0  0  0  0  0
  149.0652  137.3814  154.0680 H   0  0  0  0  0  0  0  0  0  0  0  0
  148.9999  140.0883  153.4826 H   0  0  0  0  0  0  0  0  0  0  0  0
  152.2120  139.3485  156.0345 H   0  0  0  0  0  0  0  0  0  0  0  0
  149.0353  137.5107  157.3925 H   0  0  0  0  0  0  0  0  0  0  0  0
  147.1356  136.9641  158.2610 H   0  0  0  0  0  0  0  0  0  0  0  0
  146.7953  135.4015  157.5886 H   0  0  0  0  0  0  0  0  0  0  0  0
  145.0523  134.5266  160.2343 H   0  0  0  0  0  0  0  0  0  0  0  0
  145.6414  134.0324  158.6996 H   0  0  0  0  0  0  0  0  0  0  0  0
  145.8056  132.3703  160.7237 H   0  0  0  0  0  0  0  0  0  0  0  0
  147.0893  132.4323  159.5552 H   0  0  0  0  0  0  0  0  0  0  0  0
  147.9330  132.2881  161.8796 H   0  0  0  0  0  0  0  0  0  0  0  0
  148.5609  133.6451  161.0099 H   0  0  0  0  0  0  0  0  0  0  0  0
  146.4125  133.6736  163.1740 H   0  0  0  0  0  0  0  0  0  0  0  0
  148.0196  134.3220  163.2785 H   0  0  0  0  0  0  0  0  0  0  0  0
  145.5581  135.5516  162.1161 H   0  0  0  0  0  0  0  0  0  0  0  0
  146.8673  136.2928  162.9621 H   0  0  0  0  0  0  0  0  0  0  0  0
  1  2  1  0  0  0  0
  1 21  1  0  0  0  0
  1 22  1  0  0  0  0
  1 23  1  0  0  0  0
  2  3  1  0  0  0  0
  2  9  1  0  0  0  0
  2 24  1  0  0  0  0
  3  4  1  0  0  0  0
  3 25  1  0  0  0  0
  3 26  1  0  0  0  0
  4  8  1  0  0  0  0
  4  5  1  0  0  0  0
  5  6  2  0  0  0  0
  5 27  1  0  0  0  0
  6  7  1  0  0  0  0
  6 28  1  0  0  0  0
  7  8  2  0  0  0  0
  8 29  1  0  0  0  0
  9 10  1  0  0  0  0
  9 30  1  0  0  0  0
 10 11  2  0  0  0  0
 10 12  1  0  0  0  0
 12 13  1  0  0  0  0
 12 31  1  0  0  0  0
 12 32  1  0  0  0  0
 13 19  1  0  0  0  0
 13 14  1  0  0  0  0
 14 15  1  0  0  0  0
 14 33  1  0  0  0  0
 14 34  1  0  0  0  0
 15 16  1  0  0  0  0
 15 35  1  0  0  0  0
 15 36  1  0  0  0  0
 16 17  1  0  0  0  0
 16 37  1  0  0  0  0
 16 38  1  0  0  0  0
 17 18  1  0  0  0  0
 17 39  1  0  0  0  0
 17 40  1  0  0  0  0
 18 19  1  0  0  0  0
 18 41  1  0  0  0  0
 18 42  1  0  0  0  0
 19 20  2  0  0  0  0
M  END
> <s_m_source_file>
AV-unprocessed.smi

> <i_m_source_file_index>
1216

> <i_lp_mmshare_version>
43012

> <i_f3d_flags>
0

> <s_epik_input>
W2NIXTFuW2NIXVtjSF1uMVtDSDJdW0NAQEhdKFtDSDNdKVtOSF1DKD1PKVtDSDJdTjJbQ0gyXVtDSDJdW0NIMl1bQ0gyXVtDSDJdQzI9Tw==

> <s_epik_cmdline>
J2VwaWtfcHl0aG9uJywgJy1waCcsICc3LjAnLCAnLXRuJywgJzgnLCAnLW1hJywgJzIwMCcsICctbWV0YWxfYmluZGluZycsICctaW1hZScsICc8aW5maWxlLm1hZT4nLCAnLW9tYWUnLCAnPG91dGZpbGUubWFlPic=

> <r_lp_tautomer_probability>
1

> <r_epik_Ionization_Penalty>
0.623868

> <r_epik_Ionization_Penalty_Charging>
0.623868

> <r_epik_Ionization_Penalty_Neutral>
4.50838e-08

> <r_epik_State_Penalty>
0.640129

> <r_epik_Charging_Adjusted_Penalty>
1.264

> <i_epik_Tot_Q>
0

> <i_epik_Tot_abs_Q>
0

> <r_epik_Metal_State_Penalty>
0.307431

> <b_epik_Metal_Only>
0

> <s_lp_Force_Field>
OPLS_2005

> <r_lp_Energy>
19.0473

> <b_lp_Chiralities_Consistent>
1

> <s_lp_Variant>
AV-unprocessed.smi:1216-3

> <Gold.Version>
5.8.1

> <Gold.Id.Protein>
6NUR|6NUR_protein|mol2

> <Gold.PLP.Fitness>
44.7595

> <Gold.PLP.PLP>
-29.4356

> <Gold.PLP.part.hbond>
-3.9657

> <Gold.PLP.part.metal>
0.0000

> <Gold.PLP.part.buried>
-1.6851

> <Gold.PLP.part.nonpolar>
-23.7715

> <Gold.PLP.part.repulsive>
0.1285

> <Gold.PLP.ligand.clash>
0.0000

> <Gold.PLP.ligand.torsion>
0.4135

> <Gold.PLP.Chemscore.Hbond>
3.6480

> <Gold.PLP.Chemscore.CHOScore>
1.7120

> <Gold.PLP.Chemscore.Metal>
0.0000

> <Gold.Chemscore.Hbonds>
donor molecule, donor type, donor heavy atom, donor atom, acceptor molecule, acceptor atom, score
      P1  H  6896  6908       L1    11  1.00
      P1  H  6931  6943       L1    20  0.93
      P1  H  6934  6947       L1    20  0.70
      P1  H  7989  7998       L1     7  1.00
      L1  C     5    27       P1  7948  0.97
      L1  C     6    28       P1  7957  0.66

> <Gold.PLP.Chemscore.Internal.Correction>
0.0710

> <Gold.Rescore>
     Score         DG    S(hbond)    S(metal)    S(lipo)     H(rot)  DE(clash)    DE(int)     intcor
     17.80     -18.64       3.56        0.00      57.55       2.13       0.15       0.68       ----

> <Gold.Chemscore.Fitness>
17.8020

> <Gold.Chemscore.DG>
-18.6379

> <Gold.Chemscore.ZeroCoef>
-5.4800

> <Gold.Chemscore.Hbond>
3.5591

> <Gold.Chemscore.Metal>
0.0000

> <Gold.Chemscore.Lipo>
57.5461

> <Gold.Chemscore.Internal_Hbond>
0.0000

> <Gold.Chemscore.DEClash>
0.1534

> <Gold.Chemscore.DEInternal>
0.6825

> <Gold.Chemscore.Rot>
2.1338

> <Gold.Chemscore.Internal.Correction>
   9.000000E+99

> <Gold.Chemscore.Hbonds>
donor molecule, donor type, donor heavy atom, donor atom, acceptor molecule, acceptor atom, score
      P1  H  6896  6908       L1    11  0.97
      P1  H  6931  6943       L1    20  0.91
      P1  H  6934  6947       L1    20  0.68
      P1  H  7989  7998       L1     7  0.36

> <Gold.Chemscore.Hbond.Weighted>
-11.8875

> <Gold.Chemscore.Metal.Weighted>
-0.0000

> <Gold.Chemscore.Lipo.Weighted>
-6.7329

> <Gold.Chemscore.Internal_Hbond.Weighted>
0.0000

> <Gold.Chemscore.DEClash.Weighted>
0.1534

> <Gold.Chemscore.DEInternal.Weighted>
0.6825

> <Gold.Chemscore.Rot.Weighted>
5.4625

> <Gold.Chemscore.Internal.Correction.Weighted>
   9.000000E+99

> <Gold.Protein.RotatedTorsions>
[ 6907 6896 6895 6894 ] final  137.92 input  -60.11 | X-H torsion
[ 7974 7965 7964 7962 ] final -162.50 input  175.53 | X-H torsion
[ 8008 7997 7996 7995 ] final  116.08 input   59.86 | X-H torsion
[ 10167 10162 10161 10158 ] final   11.25 input  -65.29 | X-H torsion
[ 10718 10713 10712 10709 ] final    3.29 input   66.30 | X-H torsion
[ 10763 10752 10751 10750 ] final -174.31 input  -60.55 | X-H torsion
[ 11005 11000 10999 10996 ] final  -61.96 input  -57.11 | X-H torsion

> <Gold.Protein.ActiveResidues>
 VAL166  LYS551  ARG553  GLY616  TRP617  ASP618  TYR619  PRO620  LYS621  CYS622 
 ASP623  PHE694  ASN695  SER759  ASP760  ASP761  ALA762  ILE779  LEU786  VAL792 
 PHE793  MET794  SER795  GLU796  ALA797  LYS798  CYS799  TRP800  GLU811  SER814 

> <Gold.Protein.RotatedAtoms>
  152.2726  133.5396  159.5447 H   0  0  0  0  0  0  0  0  0  0  0  0  # atno 6907 bound_to 6896
  150.7165  134.0677  159.3862 H   0  0  0  0  0  0  0  0  0  0  0  0  # atno 6908 bound_to 6896
  151.8591  135.0531  160.0518 H   0  0  0  0  0  0  0  0  0  0  0  0  # atno 6909 bound_to 6896
  144.7355  140.3243  143.6165 H   0  0  0  0  0  0  0  0  0  0  0  0  # atno 7974 bound_to 7965
  156.2419  140.2925  156.0468 H   0  0  0  0  0  0  0  0  0  0  0  0  # atno 8008 bound_to 7997
  155.1926  140.0407  157.2920 H   0  0  0  0  0  0  0  0  0  0  0  0  # atno 8009 bound_to 7997
  154.6185  140.2470  155.7587 H   0  0  0  0  0  0  0  0  0  0  0  0  # atno 8010 bound_to 7997
  140.6143  143.8340  150.7101 H   0  0  0  0  0  0  0  0  0  0  0  0  # atno 10167 bound_to 10162
  156.8757  130.5635  149.5655 H   0  0  0  0  0  0  0  0  0  0  0  0  # atno 10718 bound_to 10713
  154.5977  135.2851  155.0568 H   0  0  0  0  0  0  0  0  0  0  0  0  # atno 10763 bound_to 10752
  154.1845  135.6451  153.5047 H   0  0  0  0  0  0  0  0  0  0  0  0  # atno 10764 bound_to 10752
  153.0145  135.5431  154.6685 H   0  0  0  0  0  0  0  0  0  0  0  0  # atno 10765 bound_to 10752
  141.1343  133.6635  156.5455 H   0  0  0  0  0  0  0  0  0  0  0  0  # atno 11005 bound_to 11000
  145.7536  139.1802  143.2307 LP  0  0  0  0  0  0  0  0  0  0  0  0  # atno 17320 bound_to 7965
  146.1041  140.7508  142.9535 LP  0  0  0  0  0  0  0  0  0  0  0  0  # atno 17321 bound_to 7965
  140.1916  143.4032  152.1859 LP  0  0  0  0  0  0  0  0  0  0  0  0  # atno 17342 bound_to 10162
  139.5386  144.7234  151.4808 LP  0  0  0  0  0  0  0  0  0  0  0  0  # atno 17343 bound_to 10162
  156.0703  130.5737  150.9370 LP  0  0  0  0  0  0  0  0  0  0  0  0  # atno 17370 bound_to 10713
  157.6170  131.0932  150.8692 LP  0  0  0  0  0  0  0  0  0  0  0  0  # atno 17371 bound_to 10713
  140.4106  134.7276  157.4833 LP  0  0  0  0  0  0  0  0  0  0  0  0  # atno 17394 bound_to 11000
  140.0430  134.6240  155.8956 LP  0  0  0  0  0  0  0  0  0  0  0  0  # atno 17395 bound_to 11000

$$$$
