AV-unprocessed.smi:2317|AV-procd|sdf|9274|dock1
  -GOLD-   2272012493D 1   1.00000     0.00000
 Structure written by MMmdl.
 37 38  0  0  0  0  0  0  0  0  1 V2000
  144.5308  136.5597  152.2896 O   0  0  0  0  0  0  0  0  0  0  0  0
  145.7445  136.3673  152.2234 C   0  0  0  0  0  0  0  0  0  0  0  0
  146.6566  137.2360  152.6843 N   0  0  0  0  0  0  0  0  0  0  0  0
  146.3633  138.5023  153.3514 C   0  0  0  0  0  0  0  0  0  0  0  0
  147.6126  139.4049  153.4949 C   0  0  1  0  0  0  0  0  0  0  0  0
  147.2368  140.8407  153.9334 C   0  0  0  0  0  0  0  0  0  0  0  0
  148.4706  141.7352  154.1286 C   0  0  0  0  0  0  0  0  0  0  0  0
  149.4505  141.1159  155.1329 C   0  0  0  0  0  0  0  0  0  0  0  0
  149.8625  139.7069  154.6879 C   0  0  0  0  0  0  0  0  0  0  0  0
  148.6351  138.7981  154.4895 C   0  0  2  0  0  0  0  0  0  0  0  0
  149.0996  137.5480  154.0196 O   0  0  0  0  0  0  0  0  0  0  0  0
  146.3360  135.2924  151.6740 N   0  0  0  0  0  0  0  0  0  0  0  0
  145.7424  134.1419  151.0845 C   0  0  0  0  0  0  0  0  0  0  0  0
  144.4333  134.1029  150.5452 C   0  0  0  0  0  0  0  0  0  0  0  0
  143.9616  132.8901  150.0039 C   0  0  0  0  0  0  0  0  0  0  0  0
  144.6893  131.7539  149.9764 N   0  0  0  0  0  0  0  0  0  0  0  0
  145.9317  131.7911  150.5018 C   0  0  0  0  0  0  0  0  0  0  0  0
  146.4989  132.9508  151.0670 C   0  0  0  0  0  0  0  0  0  0  0  0
  147.7519  132.9171  151.5817 F   0  0  0  0  0  0  0  0  0  0  0  0
  147.6319  136.9983  152.5778 H   0  0  0  0  0  0  0  0  0  0  0  0
  145.5648  139.0415  152.8388 H   0  0  0  0  0  0  0  0  0  0  0  0
  145.9681  138.2503  154.3354 H   0  0  0  0  0  0  0  0  0  0  0  0
  148.0934  139.4732  152.5175 H   0  0  0  0  0  0  0  0  0  0  0  0
  146.5852  141.3068  153.1946 H   0  0  0  0  0  0  0  0  0  0  0  0
  146.6675  140.8020  154.8630 H   0  0  0  0  0  0  0  0  0  0  0  0
  148.9709  141.8835  153.1708 H   0  0  0  0  0  0  0  0  0  0  0  0
  148.1621  142.7229  154.4724 H   0  0  0  0  0  0  0  0  0  0  0  0
  150.3328  141.7487  155.2320 H   0  0  0  0  0  0  0  0  0  0  0  0
  148.9877  141.0702  156.1195 H   0  0  0  0  0  0  0  0  0  0  0  0
  150.4282  139.7755  153.7574 H   0  0  0  0  0  0  0  0  0  0  0  0
  150.5355  139.2713  155.4275 H   0  0  0  0  0  0  0  0  0  0  0  0
  148.1509  138.6371  155.4536 H   0  0  0  0  0  0  0  0  0  0  0  0
  148.8336  137.4484  153.1184 H   0  0  0  0  0  0  0  0  0  0  0  0
  147.3444  135.3169  151.6354 H   0  0  0  0  0  0  0  0  0  0  0  0
  143.7807  134.9615  150.5434 H   0  0  0  0  0  0  0  0  0  0  0  0
  142.9676  132.8305  149.5862 H   0  0  0  0  0  0  0  0  0  0  0  0
  146.4906  130.8675  150.4730 H   0  0  0  0  0  0  0  0  0  0  0  0
  1  2  2  0  0  0  0
  2  3  1  0  0  0  0
  2 12  1  0  0  0  0
  3  4  1  0  0  0  0
  3 20  1  0  0  0  0
  4  5  1  0  0  0  0
  4 21  1  0  0  0  0
  4 22  1  0  0  0  0
  5 10  1  0  0  0  0
  5  6  1  0  0  0  0
  5 23  1  0  0  0  0
  6  7  1  0  0  0  0
  6 24  1  0  0  0  0
  6 25  1  0  0  0  0
  7  8  1  0  0  0  0
  7 26  1  0  0  0  0
  7 27  1  0  0  0  0
  8  9  1  0  0  0  0
  8 28  1  0  0  0  0
  8 29  1  0  0  0  0
  9 10  1  0  0  0  0
  9 30  1  0  0  0  0
  9 31  1  0  0  0  0
 10 11  1  0  0  0  0
 10 32  1  0  0  0  0
 11 33  1  0  0  0  0
 12 13  1  0  0  0  0
 12 34  1  0  0  0  0
 13 18  1  0  0  0  0
 13 14  2  0  0  0  0
 14 15  1  0  0  0  0
 14 35  1  0  0  0  0
 15 16  2  0  0  0  0
 15 36  1  0  0  0  0
 16 17  1  0  0  0  0
 17 18  2  0  0  0  0
 17 37  1  0  0  0  0
 18 19  1  0  0  0  0
M  END
> <s_m_source_file>
AV-unprocessed.smi

> <i_m_source_file_index>
2317

> <i_lp_mmshare_version>
43012

> <i_f3d_flags>
0

> <s_epik_input>
RmMxW2NIXW5bY0hdW2NIXWMxW05IXUMoPU8pW05IXVtDSDJdW0NAQEhdMltDSDJdW0NIMl1bQ0gyXVtDSDJdW0NASF0yW09IXQ==

> <s_epik_cmdline>
J2VwaWtfcHl0aG9uJywgJy1waCcsICc3LjAnLCAnLXRuJywgJzgnLCAnLW1hJywgJzIwMCcsICctbWV0YWxfYmluZGluZycsICctaW1hZScsICc8aW5maWxlLm1hZT4nLCAnLW9tYWUnLCAnPG91dGZpbGUubWFlPic=

> <r_epik_Ionization_Penalty>
0.00317647

> <r_epik_Ionization_Penalty_Charging>
0

> <r_epik_Ionization_Penalty_Neutral>
0.00317647

> <r_epik_State_Penalty>
0.0022093

> <r_epik_Charging_Adjusted_Penalty>
0.0022093

> <i_epik_Tot_Q>
0

> <i_epik_Tot_abs_Q>
0

> <r_epik_Metal_State_Penalty>
-0

> <b_epik_Metal_Only>
0

> <s_lp_Force_Field>
OPLS_2005

> <r_lp_Energy>
17.8728

> <b_lp_Chiralities_Consistent>
1

> <s_lp_Variant>
AV-unprocessed.smi:2317-4

> <Gold.Version>
5.8.1

> <Gold.Id.Protein>
6NUR|6NUR_protein|mol2

> <Gold.PLP.Fitness>
46.0990

> <Gold.PLP.PLP>
-32.7734

> <Gold.PLP.part.hbond>
-3.5030

> <Gold.PLP.part.metal>
0.0000

> <Gold.PLP.part.buried>
-0.4308

> <Gold.PLP.part.nonpolar>
-29.7564

> <Gold.PLP.part.repulsive>
0.7336

> <Gold.PLP.ligand.clash>
0.0000

> <Gold.PLP.ligand.torsion>
0.2410

> <Gold.PLP.Chemscore.Hbond>
2.8160

> <Gold.PLP.Chemscore.CHOScore>
1.7819

> <Gold.PLP.Chemscore.Metal>
0.0000

> <Gold.Chemscore.Hbonds>
donor molecule, donor type, donor heavy atom, donor atom, acceptor molecule, acceptor atom, score
      L1  H     3    20       P1  7948  1.00
      L1  H    11    33       P1  7948  0.75
      L1  H    12    34       P1  7948  1.00
      L1  C    15    36       P1 10186  1.00
      L1  C    17    37       P1 10747  0.84

> <Gold.PLP.Chemscore.Internal.Correction>
0.0139

> <Gold.Rescore>
     Score         DG    S(hbond)    S(metal)    S(lipo)     H(rot)  DE(clash)    DE(int)     intcor
     17.43     -19.30       2.74        0.00      78.96       1.79       0.13       1.74       ----

> <Gold.Chemscore.Fitness>
17.4322

> <Gold.Chemscore.DG>
-19.3015

> <Gold.Chemscore.ZeroCoef>
-5.4800

> <Gold.Chemscore.Hbond>
2.7405

> <Gold.Chemscore.Metal>
0.0000

> <Gold.Chemscore.Lipo>
78.9623

> <Gold.Chemscore.Internal_Hbond>
0.0000

> <Gold.Chemscore.DEClash>
0.1262

> <Gold.Chemscore.DEInternal>
1.7431

> <Gold.Chemscore.Rot>
1.7853

> <Gold.Chemscore.Internal.Correction>
   9.000000E+99

> <Gold.Chemscore.Hbonds>
donor molecule, donor type, donor heavy atom, donor atom, acceptor molecule, acceptor atom, score
      L1  H     3    20       P1  7948  0.98
      L1  H    11    33       P1  7948  0.76
      L1  H    12    34       P1  7948  0.91

> <Gold.Chemscore.Hbond.Weighted>
-9.1533

> <Gold.Chemscore.Metal.Weighted>
-0.0000

> <Gold.Chemscore.Lipo.Weighted>
-9.2386

> <Gold.Chemscore.Internal_Hbond.Weighted>
0.0000

> <Gold.Chemscore.DEClash.Weighted>
0.1262

> <Gold.Chemscore.DEInternal.Weighted>
1.7431

> <Gold.Chemscore.Rot.Weighted>
4.5704

> <Gold.Chemscore.Internal.Correction.Weighted>
   9.000000E+99

> <Gold.Protein.RotatedTorsions>
[ 6907 6896 6895 6894 ] final -161.12 input  -60.11 | X-H torsion
[ 7974 7965 7964 7962 ] final  -45.22 input  175.53 | X-H torsion
[ 8008 7997 7996 7995 ] final   72.94 input   59.86 | X-H torsion
[ 10167 10162 10161 10158 ] final -178.27 input  -65.29 | X-H torsion
[ 10718 10713 10712 10709 ] final -135.49 input   66.30 | X-H torsion
[ 10763 10752 10751 10750 ] final   25.62 input  -60.55 | X-H torsion
[ 11005 11000 10999 10996 ] final  157.03 input  -57.11 | X-H torsion

> <Gold.Protein.ActiveResidues>
 VAL166  LYS551  ARG553  GLY616  TRP617  ASP618  TYR619  PRO620  LYS621  CYS622 
 ASP623  PHE694  ASN695  SER759  ASP760  ASP761  ALA762  ILE779  LEU786  VAL792 
 PHE793  MET794  SER795  GLU796  ALA797  LYS798  CYS799  TRP800  GLU811  SER814 

> <Gold.Protein.RotatedAtoms>
  151.3597  133.3894  159.2688 H   0  0  0  0  0  0  0  0  0  0  0  0  # atno 6907 bound_to 6896
  150.9735  134.9105  159.7812 H   0  0  0  0  0  0  0  0  0  0  0  0  # atno 6908 bound_to 6896
  152.5193  134.3560  159.9320 H   0  0  0  0  0  0  0  0  0  0  0  0  # atno 6909 bound_to 6896
  145.9842  140.7251  142.9348 H   0  0  0  0  0  0  0  0  0  0  0  0  # atno 7974 bound_to 7965
  155.7762  140.3483  155.5273 H   0  0  0  0  0  0  0  0  0  0  0  0  # atno 8008 bound_to 7997
  155.8773  140.0996  157.1530 H   0  0  0  0  0  0  0  0  0  0  0  0  # atno 8009 bound_to 7997
  154.4022  140.1329  156.4140 H   0  0  0  0  0  0  0  0  0  0  0  0  # atno 8010 bound_to 7997
  139.5440  144.2285  152.0952 H   0  0  0  0  0  0  0  0  0  0  0  0  # atno 10167 bound_to 10162
  156.2667  130.7242  151.1195 H   0  0  0  0  0  0  0  0  0  0  0  0  # atno 10718 bound_to 10713
  153.0679  135.6579  154.0312 H   0  0  0  0  0  0  0  0  0  0  0  0  # atno 10763 bound_to 10752
  153.9965  135.2941  155.3408 H   0  0  0  0  0  0  0  0  0  0  0  0  # atno 10764 bound_to 10752
  154.7044  135.5231  153.8643 H   0  0  0  0  0  0  0  0  0  0  0  0  # atno 10765 bound_to 10752
  140.1731  134.8529  157.2713 H   0  0  0  0  0  0  0  0  0  0  0  0  # atno 11005 bound_to 11000
  144.6870  140.2960  143.7270 LP  0  0  0  0  0  0  0  0  0  0  0  0  # atno 17320 bound_to 7965
  145.7725  139.1862  143.2204 LP  0  0  0  0  0  0  0  0  0  0  0  0  # atno 17321 bound_to 7965
  140.1769  144.4882  150.6549 LP  0  0  0  0  0  0  0  0  0  0  0  0  # atno 17342 bound_to 10162
  140.6681  143.2275  151.5692 LP  0  0  0  0  0  0  0  0  0  0  0  0  # atno 17343 bound_to 10162
  157.7270  131.0642  150.5885 LP  0  0  0  0  0  0  0  0  0  0  0  0  # atno 17370 bound_to 10713
  156.5978  130.4346  149.5910 LP  0  0  0  0  0  0  0  0  0  0  0  0  # atno 17371 bound_to 10713
  140.2355  134.3858  155.7503 LP  0  0  0  0  0  0  0  0  0  0  0  0  # atno 17394 bound_to 11000
  141.2218  133.7237  156.8707 LP  0  0  0  0  0  0  0  0  0  0  0  0  # atno 17395 bound_to 11000

$$$$
