AV-unprocessed.smi:1662|AV-procd|sdf|6661|dock5
  -GOLD-   22720 7373D 1   1.00000     0.00000
 Structure written by MMmdl.
 47 48  0  0  0  0  0  0  0  0  1 V2000
  148.6953  139.8304  154.2992 C   0  0  0  0  0  0  0  0  0  0  0  0
  149.6984  138.9238  154.9608 C   0  0  0  0  0  0  0  0  0  0  0  0
  149.6458  137.6716  154.6449 N   0  0  0  0  0  0  0  0  0  0  0  0
  150.5185  136.7530  155.1955 N   0  0  0  0  0  0  0  0  0  0  0  0
  150.2989  135.3714  154.7424 C   0  0  0  0  0  0  0  0  0  0  0  0
  148.9323  134.8020  155.1514 C   0  0  0  0  0  0  0  0  0  0  0  0
  148.7065  134.4758  156.3177 O   0  0  0  0  0  0  0  0  0  0  0  0
  148.0216  134.7140  154.1696 N   0  0  0  0  0  0  0  0  0  0  0  0
  146.6508  134.2137  154.3000 C   0  0  2  0  0  0  0  0  0  0  0  0
  146.5723  132.7693  153.7725 C   0  0  0  0  0  0  0  0  0  0  0  0
  146.7333  132.7071  152.2465 C   0  0  0  0  0  0  0  0  0  0  0  0
  145.7048  133.6064  151.5482 C   0  0  0  0  0  0  0  0  0  0  0  0
  145.7796  135.0676  152.0381 C   0  0  1  0  0  0  0  0  0  0  0  0
  144.7341  135.9175  151.2938 C   0  0  0  0  0  0  0  0  0  0  0  0
  145.6277  135.1361  153.5838 C   0  0  2  0  0  0  0  0  0  0  0  0
  145.6804  136.5754  154.1350 C   0  0  0  0  0  0  0  0  0  0  0  0
  151.5036  137.0569  156.0892 C   0  0  0  0  0  0  0  0  0  0  0  0
  152.2661  136.2054  156.5493 O   0  0  0  0  0  0  0  0  0  0  0  0
  151.5581  138.4772  156.4421 C   0  0  0  0  0  0  0  0  0  0  0  0
  152.5742  138.8383  157.3772 C   0  0  0  0  0  0  0  0  0  0  0  0
  153.4115  139.1174  158.1265 N   0  0  0  0  0  0  0  0  0  0  0  0
  150.6998  139.3869  155.9162 C   0  0  0  0  0  0  0  0  0  0  0  0
  150.7138  140.8719  156.2522 C   0  0  0  0  0  0  0  0  0  0  0  0
  149.1956  140.6369  153.7631 H   0  0  0  0  0  0  0  0  0  0  0  0
  148.0306  140.2763  155.0393 H   0  0  0  0  0  0  0  0  0  0  0  0
  148.0743  139.2940  153.5800 H   0  0  0  0  0  0  0  0  0  0  0  0
  150.3754  135.3159  153.6550 H   0  0  0  0  0  0  0  0  0  0  0  0
  151.0903  134.7225  155.1230 H   0  0  0  0  0  0  0  0  0  0  0  0
  148.3004  135.0151  153.2472 H   0  0  0  0  0  0  0  0  0  0  0  0
  146.3837  134.1765  155.3576 H   0  0  0  0  0  0  0  0  0  0  0  0
  147.3286  132.1484  154.2547 H   0  0  0  0  0  0  0  0  0  0  0  0
  145.6080  132.3392  154.0469 H   0  0  0  0  0  0  0  0  0  0  0  0
  147.7413  133.0127  151.9640 H   0  0  0  0  0  0  0  0  0  0  0  0
  146.6177  131.6783  151.9045 H   0  0  0  0  0  0  0  0  0  0  0  0
  145.8652  133.5656  150.4704 H   0  0  0  0  0  0  0  0  0  0  0  0
  144.7029  133.2113  151.7236 H   0  0  0  0  0  0  0  0  0  0  0  0
  146.7631  135.4578  151.7720 H   0  0  0  0  0  0  0  0  0  0  0  0
  143.7193  135.6323  151.5727 H   0  0  0  0  0  0  0  0  0  0  0  0
  144.8274  135.7949  150.2145 H   0  0  0  0  0  0  0  0  0  0  0  0
  144.8538  136.9805  151.5019 H   0  0  0  0  0  0  0  0  0  0  0  0
  144.6367  134.7492  153.8270 H   0  0  0  0  0  0  0  0  0  0  0  0
  146.5899  137.0921  153.8278 H   0  0  0  0  0  0  0  0  0  0  0  0
  145.6499  136.5763  155.2251 H   0  0  0  0  0  0  0  0  0  0  0  0
  144.8314  137.1679  153.7956 H   0  0  0  0  0  0  0  0  0  0  0  0
  151.4355  141.1117  157.0325 H   0  0  0  0  0  0  0  0  0  0  0  0
  149.7347  141.1962  156.6066 H   0  0  0  0  0  0  0  0  0  0  0  0
  150.9732  141.4590  155.3706 H   0  0  0  0  0  0  0  0  0  0  0  0
  1  2  1  0  0  0  0
  1 24  1  0  0  0  0
  1 25  1  0  0  0  0
  1 26  1  0  0  0  0
  2 22  1  0  0  0  0
  2  3  2  0  0  0  0
  3  4  1  0  0  0  0
  4  5  1  0  0  0  0
  4 17  1  0  0  0  0
  5  6  1  0  0  0  0
  5 27  1  0  0  0  0
  5 28  1  0  0  0  0
  6  7  2  0  0  0  0
  6  8  1  0  0  0  0
  8  9  1  0  0  0  0
  8 29  1  0  0  0  0
  9 15  1  0  0  0  0
  9 10  1  0  0  0  0
  9 30  1  0  0  0  0
 10 11  1  0  0  0  0
 10 31  1  0  0  0  0
 10 32  1  0  0  0  0
 11 12  1  0  0  0  0
 11 33  1  0  0  0  0
 11 34  1  0  0  0  0
 12 13  1  0  0  0  0
 12 35  1  0  0  0  0
 12 36  1  0  0  0  0
 13 14  1  0  0  0  0
 13 15  1  0  0  0  0
 13 37  1  0  0  0  0
 14 38  1  0  0  0  0
 14 39  1  0  0  0  0
 14 40  1  0  0  0  0
 15 16  1  0  0  0  0
 15 41  1  0  0  0  0
 16 42  1  0  0  0  0
 16 43  1  0  0  0  0
 16 44  1  0  0  0  0
 17 18  2  0  0  0  0
 17 19  1  0  0  0  0
 19 20  1  0  0  0  0
 19 22  2  0  0  0  0
 20 21  3  0  0  0  0
 22 23  1  0  0  0  0
 23 45  1  0  0  0  0
 23 46  1  0  0  0  0
 23 47  1  0  0  0  0
M  END
> <s_m_source_file>
AV-unprocessed.smi

> <i_m_source_file_index>
1662

> <i_lp_mmshare_version>
43012

> <i_f3d_flags>
0

> <s_epik_input>
TiNDYyhjMVtDSDNdKWMoPU8pbihuYzFbQ0gzXSlbQ0gyXUMoPU8pW05IXVtDQEBIXTJbQ0gyXVtDSDJdW0NIMl1bQ0BASF0oW0NIM10pW0NASF0yW0NIM10=

> <s_epik_cmdline>
J2VwaWtfcHl0aG9uJywgJy1waCcsICc3LjAnLCAnLXRuJywgJzgnLCAnLW1hJywgJzIwMCcsICctbWV0YWxfYmluZGluZycsICctaW1hZScsICc8aW5maWxlLm1hZT4nLCAnLW9tYWUnLCAnPG91dGZpbGUubWFlPic=

> <r_lp_tautomer_probability>
1

> <r_epik_Ionization_Penalty>
1.90709e-08

> <r_epik_Ionization_Penalty_Charging>
2.37982e-11

> <r_epik_Ionization_Penalty_Neutral>
1.90471e-08

> <r_epik_State_Penalty>
-0

> <r_epik_Charging_Adjusted_Penalty>
2.37982e-11

> <i_epik_Tot_Q>
0

> <i_epik_Tot_abs_Q>
0

> <r_epik_Metal_State_Penalty>
-0

> <b_epik_Metal_Only>
0

> <s_lp_Force_Field>
OPLS_2005

> <r_lp_Energy>
26.4332

> <b_lp_Chiralities_Consistent>
1

> <s_lp_Variant>
AV-unprocessed.smi:1662-5

> <Gold.Version>
5.8.1

> <Gold.Id.Protein>
6NUR|6NUR_protein|mol2

> <Gold.PLP.Fitness>
37.0604

> <Gold.PLP.PLP>
-28.8615

> <Gold.PLP.part.hbond>
-3.0000

> <Gold.PLP.part.metal>
0.0000

> <Gold.PLP.part.buried>
-3.0258

> <Gold.PLP.part.nonpolar>
-25.1504

> <Gold.PLP.part.repulsive>
0.7328

> <Gold.PLP.ligand.clash>
0.0000

> <Gold.PLP.ligand.torsion>
0.4063

> <Gold.PLP.Chemscore.Hbond>
3.0000

> <Gold.PLP.Chemscore.CHOScore>
0.0000

> <Gold.PLP.Chemscore.Metal>
0.0000

> <Gold.Chemscore.Hbonds>
donor molecule, donor type, donor heavy atom, donor atom, acceptor molecule, acceptor atom, score
      L1  H     8    29       P1  7948  1.00
      P1  H  7997  8009       L1    21  1.00
      P1  H 10752 10765       L1    18  1.00

> <Gold.PLP.Chemscore.Internal.Correction>
0.0116

> <Gold.Rescore>
     Score         DG    S(hbond)    S(metal)    S(lipo)     H(rot)  DE(clash)    DE(int)     intcor
     18.16     -18.57       2.76        0.00      64.71       1.45       0.07       0.34       ----

> <Gold.Chemscore.Fitness>
18.1565

> <Gold.Chemscore.DG>
-18.5693

> <Gold.Chemscore.ZeroCoef>
-5.4800

> <Gold.Chemscore.Hbond>
2.7637

> <Gold.Chemscore.Metal>
0.0000

> <Gold.Chemscore.Lipo>
64.7125

> <Gold.Chemscore.Internal_Hbond>
0.0000

> <Gold.Chemscore.DEClash>
0.0693

> <Gold.Chemscore.DEInternal>
0.3435

> <Gold.Chemscore.Rot>
1.4504

> <Gold.Chemscore.Internal.Correction>
   9.000000E+99

> <Gold.Chemscore.Hbonds>
donor molecule, donor type, donor heavy atom, donor atom, acceptor molecule, acceptor atom, score
      L1  H     8    29       P1  7948  0.90
      P1  H  7997  8009       L1    21  0.45
      P1  H 10752 10765       L1    18  0.50

> <Gold.Chemscore.Hbond.Weighted>
-9.2308

> <Gold.Chemscore.Metal.Weighted>
-0.0000

> <Gold.Chemscore.Lipo.Weighted>
-7.5714

> <Gold.Chemscore.Internal_Hbond.Weighted>
0.0000

> <Gold.Chemscore.DEClash.Weighted>
0.0693

> <Gold.Chemscore.DEInternal.Weighted>
0.3435

> <Gold.Chemscore.Rot.Weighted>
3.7129

> <Gold.Chemscore.Internal.Correction.Weighted>
   9.000000E+99

> <Gold.Protein.RotatedTorsions>
[ 6907 6896 6895 6894 ] final  -27.46 input  -60.11 | X-H torsion
[ 7974 7965 7964 7962 ] final   87.22 input  175.53 | X-H torsion
[ 8008 7997 7996 7995 ] final  148.16 input   59.86 | X-H torsion
[ 10167 10162 10161 10158 ] final    0.16 input  -65.29 | X-H torsion
[ 10718 10713 10712 10709 ] final -114.02 input   66.30 | X-H torsion
[ 10763 10752 10751 10750 ] final -150.55 input  -60.55 | X-H torsion
[ 11005 11000 10999 10996 ] final   74.65 input  -57.11 | X-H torsion

> <Gold.Protein.ActiveResidues>
 VAL166  LYS551  ARG553  GLY616  TRP617  ASP618  TYR619  PRO620  LYS621  CYS622 
 ASP623  PHE694  ASN695  SER759  ASP760  ASP761  ALA762  ILE779  LEU786  VAL792 
 PHE793  MET794  SER795  GLU796  ALA797  LYS798  CYS799  TRP800  GLU811  SER814 

> <Gold.Protein.RotatedAtoms>
  151.1466  135.0206  159.8649 H   0  0  0  0  0  0  0  0  0  0  0  0  # atno 6907 bound_to 6896
  152.5453  134.1437  159.8500 H   0  0  0  0  0  0  0  0  0  0  0  0  # atno 6908 bound_to 6896
  151.1518  133.4857  159.2628 H   0  0  0  0  0  0  0  0  0  0  0  0  # atno 6909 bound_to 6896
  145.5619  139.2305  143.2455 H   0  0  0  0  0  0  0  0  0  0  0  0  # atno 7974 bound_to 7965
  156.2800  140.2136  156.5654 H   0  0  0  0  0  0  0  0  0  0  0  0  # atno 8008 bound_to 7997
  154.7179  140.0506  157.0634 H   0  0  0  0  0  0  0  0  0  0  0  0  # atno 8009 bound_to 7997
  155.0518  140.3157  155.4692 H   0  0  0  0  0  0  0  0  0  0  0  0  # atno 8010 bound_to 7997
  140.6741  143.6966  150.7985 H   0  0  0  0  0  0  0  0  0  0  0  0  # atno 10167 bound_to 10162
  156.0803  130.6004  150.8720 H   0  0  0  0  0  0  0  0  0  0  0  0  # atno 10718 bound_to 10713
  154.8112  135.3281  154.7300 H   0  0  0  0  0  0  0  0  0  0  0  0  # atno 10763 bound_to 10752
  153.7949  135.6908  153.4869 H   0  0  0  0  0  0  0  0  0  0  0  0  # atno 10764 bound_to 10752
  153.1892  135.4557  155.0073 H   0  0  0  0  0  0  0  0  0  0  0  0  # atno 10765 bound_to 10752
  139.9381  134.7451  156.1174 H   0  0  0  0  0  0  0  0  0  0  0  0  # atno 11005 bound_to 11000
  146.1845  140.6444  142.9174 LP  0  0  0  0  0  0  0  0  0  0  0  0  # atno 17320 bound_to 7965
  144.7479  140.5115  143.6823 LP  0  0  0  0  0  0  0  0  0  0  0  0  # atno 17321 bound_to 7965
  140.0657  143.5111  152.2605 LP  0  0  0  0  0  0  0  0  0  0  0  0  # atno 17342 bound_to 10162
  139.6024  144.7586  151.3141 LP  0  0  0  0  0  0  0  0  0  0  0  0  # atno 17343 bound_to 10162
  157.5917  131.0944  150.9107 LP  0  0  0  0  0  0  0  0  0  0  0  0  # atno 17370 bound_to 10713
  156.9281  130.5340  149.5279 LP  0  0  0  0  0  0  0  0  0  0  0  0  # atno 17371 bound_to 10713
  141.1003  133.6679  156.2740 LP  0  0  0  0  0  0  0  0  0  0  0  0  # atno 17394 bound_to 11000
  140.6023  134.5542  157.5520 LP  0  0  0  0  0  0  0  0  0  0  0  0  # atno 17395 bound_to 11000

$$$$
