AV-unprocessed.smi:740|AV-procd|sdf|3547|dock5
  -GOLD-   22720 0543D 1   1.00000     0.00000
 Structure written by MMmdl.
 44 46  0  0  0  0  0  0  0  0  1 V2000
  150.8759  145.4264  160.3749 C   0  0  0  0  0  0  0  0  0  0  0  0
  151.6549  144.1241  160.3159 C   0  0  0  0  0  0  0  0  0  0  0  0
  152.3205  143.6685  161.4760 C   0  0  0  0  0  0  0  0  0  0  0  0
  153.0530  142.4613  161.4640 C   0  0  0  0  0  0  0  0  0  0  0  0
  153.7684  141.8347  162.4701 N   0  0  0  0  0  0  0  0  0  0  0  0
  154.2179  140.7513  161.8436 C   0  0  0  0  0  0  0  0  0  0  0  0
  153.8800  140.6027  160.5484 N   0  0  0  0  0  0  0  0  0  0  0  0
  154.2512  139.5061  159.6719 C   0  0  0  0  0  0  0  0  0  0  0  0
  153.0560  138.9737  158.8584 C   0  0  1  0  0  0  0  0  0  0  0  0
  153.4324  138.8987  157.4966 O   0  0  0  0  0  0  0  0  0  0  0  0
  152.6217  137.5712  159.3321 C   0  0  0  0  0  0  0  0  0  0  0  0
  151.5858  136.9974  158.4657 N   0  0  0  0  0  0  0  0  0  0  0  0
  150.2706  137.0904  158.7056 C   0  0  0  0  0  0  0  0  0  0  0  0
  149.7436  137.6422  159.6712 O   0  0  0  0  0  0  0  0  0  0  0  0
  149.4652  136.4180  157.6028 C   0  0  0  0  0  0  0  0  0  0  0  0
  150.5460  135.9058  156.6386 C   0  0  1  0  0  0  0  0  0  0  0  0
  150.4232  136.4711  155.2139 C   0  0  0  0  0  0  0  0  0  0  0  0
  151.8390  136.3539  157.3174 C   0  0  0  0  0  0  0  0  0  0  0  0
  152.9517  136.1356  156.8382 O   0  0  0  0  0  0  0  0  0  0  0  0
  153.1037  141.7172  160.2491 C   0  0  0  0  0  0  0  0  0  0  0  0
  152.4462  142.1606  159.0879 C   0  0  0  0  0  0  0  0  0  0  0  0
  151.7169  143.3677  159.1179 C   0  0  0  0  0  0  0  0  0  0  0  0
  151.0068  143.8356  157.8600 C   0  0  0  0  0  0  0  0  0  0  0  0
  150.9608  145.8973  161.3547 H   0  0  0  0  0  0  0  0  0  0  0  0
  149.8184  145.2466  160.1800 H   0  0  0  0  0  0  0  0  0  0  0  0
  151.2505  146.1313  159.6324 H   0  0  0  0  0  0  0  0  0  0  0  0
  152.2725  144.2436  162.3889 H   0  0  0  0  0  0  0  0  0  0  0  0
  154.8277  140.0211  162.3555 H   0  0  0  0  0  0  0  0  0  0  0  0
  155.0519  139.8388  159.0100 H   0  0  0  0  0  0  0  0  0  0  0  0
  154.6694  138.7093  160.2886 H   0  0  0  0  0  0  0  0  0  0  0  0
  152.2272  139.6769  158.9529 H   0  0  0  0  0  0  0  0  0  0  0  0
  152.6644  139.0352  156.9632 H   0  0  0  0  0  0  0  0  0  0  0  0
  153.4840  136.9072  159.4173 H   0  0  0  0  0  0  0  0  0  0  0  0
  152.2150  137.6386  160.3428 H   0  0  0  0  0  0  0  0  0  0  0  0
  148.8667  135.6029  158.0110 H   0  0  0  0  0  0  0  0  0  0  0  0
  148.7952  137.1403  157.1353 H   0  0  0  0  0  0  0  0  0  0  0  0
  150.5300  134.8158  156.6055 H   0  0  0  0  0  0  0  0  0  0  0  0
  151.2153  136.0909  154.5679 H   0  0  0  0  0  0  0  0  0  0  0  0
  150.4815  137.5604  155.2078 H   0  0  0  0  0  0  0  0  0  0  0  0
  149.4708  136.1878  154.7655 H   0  0  0  0  0  0  0  0  0  0  0  0
  152.5000  141.5740  158.1828 H   0  0  0  0  0  0  0  0  0  0  0  0
  151.1409  143.1279  157.0414 H   0  0  0  0  0  0  0  0  0  0  0  0
  151.3989  144.8000  157.5366 H   0  0  0  0  0  0  0  0  0  0  0  0
  149.9366  143.9386  158.0406 H   0  0  0  0  0  0  0  0  0  0  0  0
  1  2  1  0  0  0  0
  1 24  1  0  0  0  0
  1 25  1  0  0  0  0
  1 26  1  0  0  0  0
  2 22  1  0  0  0  0
  2  3  2  0  0  0  0
  3  4  1  0  0  0  0
  3 27  1  0  0  0  0
  4 20  2  0  0  0  0
  4  5  1  0  0  0  0
  5  6  2  0  0  0  0
  6  7  1  0  0  0  0
  6 28  1  0  0  0  0
  7  8  1  0  0  0  0
  7 20  1  0  0  0  0
  8  9  1  0  0  0  0
  8 29  1  0  0  0  0
  8 30  1  0  0  0  0
  9 10  1  0  0  0  0
  9 11  1  0  0  0  0
  9 31  1  0  0  0  0
 10 32  1  0  0  0  0
 11 12  1  0  0  0  0
 11 33  1  0  0  0  0
 11 34  1  0  0  0  0
 12 18  1  0  0  0  0
 12 13  1  0  0  0  0
 13 14  2  0  0  0  0
 13 15  1  0  0  0  0
 15 16  1  0  0  0  0
 15 35  1  0  0  0  0
 15 36  1  0  0  0  0
 16 17  1  0  0  0  0
 16 18  1  0  0  0  0
 16 37  1  0  0  0  0
 17 38  1  0  0  0  0
 17 39  1  0  0  0  0
 17 40  1  0  0  0  0
 18 19  2  0  0  0  0
 20 21  1  0  0  0  0
 21 22  2  0  0  0  0
 21 41  1  0  0  0  0
 22 23  1  0  0  0  0
 23 42  1  0  0  0  0
 23 43  1  0  0  0  0
 23 44  1  0  0  0  0
M  END
> <s_m_source_file>
AV-unprocessed.smi

> <i_m_source_file_index>
740

> <i_lp_mmshare_version>
43012

> <i_f3d_flags>
0

> <s_epik_input>
W0NIM11jKFtjSF0xKWMoW0NIM10pW2NIXWMoYzEyKW4oW2NIXW4yKVtDSDJdW0NASF0oW09IXSlbQ0gyXU4zQyg9TylbQ0gyXVtDQEBIXShbQ0gzXSlDMz1P

> <s_epik_cmdline>
J2VwaWtfcHl0aG9uJywgJy1waCcsICc3LjAnLCAnLXRuJywgJzgnLCAnLW1hJywgJzIwMCcsICctbWV0YWxfYmluZGluZycsICctaW1hZScsICc8aW5maWxlLm1hZT4nLCAnLW9tYWUnLCAnPG91dGZpbGUubWFlPic=

> <r_lp_tautomer_probability>
1

> <r_epik_Ionization_Penalty>
0.104021

> <r_epik_Ionization_Penalty_Charging>
0

> <r_epik_Ionization_Penalty_Neutral>
0.104021

> <r_epik_State_Penalty>
0.0939354

> <r_epik_Charging_Adjusted_Penalty>
0.0939354

> <i_epik_Tot_Q>
0

> <i_epik_Tot_abs_Q>
0

> <r_epik_Metal_State_Penalty>
0.000101783

> <b_epik_Metal_Only>
0

> <s_lp_Force_Field>
OPLS_2005

> <r_lp_Energy>
16.7866

> <b_lp_Chiralities_Consistent>
1

> <s_lp_Variant>
AV-unprocessed.smi:740-2

> <Gold.Version>
5.8.1

> <Gold.Id.Protein>
6NUR|6NUR_protein|mol2

> <Gold.PLP.Fitness>
52.2379

> <Gold.PLP.PLP>
-48.7370

> <Gold.PLP.part.hbond>
-2.8046

> <Gold.PLP.part.metal>
0.0000

> <Gold.PLP.part.buried>
-6.3275

> <Gold.PLP.part.nonpolar>
-40.6052

> <Gold.PLP.part.repulsive>
0.0295

> <Gold.PLP.ligand.clash>
0.0000

> <Gold.PLP.ligand.torsion>
1.2256

> <Gold.PLP.Chemscore.Hbond>
1.9760

> <Gold.PLP.Chemscore.CHOScore>
0.0000

> <Gold.PLP.Chemscore.Metal>
0.0000

> <Gold.Chemscore.Hbonds>
donor molecule, donor type, donor heavy atom, donor atom, acceptor molecule, acceptor atom, score
      P1  H  6931  6943       L1    14  0.01
      P1  H  7997  8009       L1    10  1.00
      P1  H 10752 10763       L1    19  0.98

> <Gold.PLP.Chemscore.Internal.Correction>
0.0242

> <Gold.Rescore>
     Score         DG    S(hbond)    S(metal)    S(lipo)     H(rot)  DE(clash)    DE(int)     intcor
     18.93     -20.21       1.90        0.00     122.28       2.31       0.07       1.21       ----

> <Gold.Chemscore.Fitness>
18.9326

> <Gold.Chemscore.DG>
-20.2094

> <Gold.Chemscore.ZeroCoef>
-5.4800

> <Gold.Chemscore.Hbond>
1.9005

> <Gold.Chemscore.Metal>
0.0000

> <Gold.Chemscore.Lipo>
122.2850

> <Gold.Chemscore.Internal_Hbond>
0.0000

> <Gold.Chemscore.DEClash>
0.0686

> <Gold.Chemscore.DEInternal>
1.2082

> <Gold.Chemscore.Rot>
2.3147

> <Gold.Chemscore.Internal.Correction>
   9.000000E+99

> <Gold.Chemscore.Hbonds>
donor molecule, donor type, donor heavy atom, donor atom, acceptor molecule, acceptor atom, score
      P1  H  6931  6943       L1    14  0.01
      P1  H  7997  8009       L1    10  0.65
      P1  H 10752 10763       L1    19  0.93

> <Gold.Chemscore.Hbond.Weighted>
-6.3476

> <Gold.Chemscore.Metal.Weighted>
-0.0000

> <Gold.Chemscore.Lipo.Weighted>
-14.3073

> <Gold.Chemscore.Internal_Hbond.Weighted>
0.0000

> <Gold.Chemscore.DEClash.Weighted>
0.0686

> <Gold.Chemscore.DEInternal.Weighted>
1.2082

> <Gold.Chemscore.Rot.Weighted>
5.9256

> <Gold.Chemscore.Internal.Correction.Weighted>
   9.000000E+99

> <Gold.Protein.RotatedTorsions>
[ 6907 6896 6895 6894 ] final  -81.50 input  -60.11 | X-H torsion
[ 7974 7965 7964 7962 ] final  160.46 input  175.53 | X-H torsion
[ 8008 7997 7996 7995 ] final  147.52 input   59.86 | X-H torsion
[ 10167 10162 10161 10158 ] final -158.25 input  -65.29 | X-H torsion
[ 10718 10713 10712 10709 ] final   20.09 input   66.30 | X-H torsion
[ 10763 10752 10751 10750 ] final   94.87 input  -60.55 | X-H torsion
[ 11005 11000 10999 10996 ] final -166.34 input  -57.11 | X-H torsion

> <Gold.Protein.ActiveResidues>
 VAL166  LYS551  ARG553  GLY616  TRP617  ASP618  TYR619  PRO620  LYS621  CYS622 
 ASP623  PHE694  ASN695  SER759  ASP760  ASP761  ALA762  ILE779  LEU786  VAL792 
 PHE793  MET794  SER795  GLU796  ALA797  LYS798  CYS799  TRP800  GLU811  SER814 

> <Gold.Protein.RotatedAtoms>
  150.6911  134.3807  159.5032 H   0  0  0  0  0  0  0  0  0  0  0  0  # atno 6907 bound_to 6896
  152.1610  134.8909  160.0551 H   0  0  0  0  0  0  0  0  0  0  0  0  # atno 6908 bound_to 6896
  151.9971  133.3777  159.4204 H   0  0  0  0  0  0  0  0  0  0  0  0  # atno 6909 bound_to 6896
  144.7736  139.7760  143.6287 H   0  0  0  0  0  0  0  0  0  0  0  0  # atno 7974 bound_to 7965
  156.2822  140.2153  156.5551 H   0  0  0  0  0  0  0  0  0  0  0  0  # atno 8008 bound_to 7997
  154.7259  140.0499  157.0705 H   0  0  0  0  0  0  0  0  0  0  0  0  # atno 8009 bound_to 7997
  155.0417  140.3146  155.4725 H   0  0  0  0  0  0  0  0  0  0  0  0  # atno 8010 bound_to 7997
  139.6707  143.9750  152.2282 H   0  0  0  0  0  0  0  0  0  0  0  0  # atno 10167 bound_to 10162
  157.1196  130.6544  149.5920 H   0  0  0  0  0  0  0  0  0  0  0  0  # atno 10718 bound_to 10713
  153.2466  135.4274  155.0754 H   0  0  0  0  0  0  0  0  0  0  0  0  # atno 10763 bound_to 10752
  154.8364  135.3415  154.6573 H   0  0  0  0  0  0  0  0  0  0  0  0  # atno 10764 bound_to 10752
  153.6995  135.7029  153.5124 H   0  0  0  0  0  0  0  0  0  0  0  0  # atno 10765 bound_to 10752
  140.5655  134.5290  157.5152 H   0  0  0  0  0  0  0  0  0  0  0  0  # atno 11005 bound_to 11000
  146.1900  139.5135  142.9811 LP  0  0  0  0  0  0  0  0  0  0  0  0  # atno 17320 bound_to 7965
  145.6252  141.0315  143.1893 LP  0  0  0  0  0  0  0  0  0  0  0  0  # atno 17321 bound_to 7965
  139.9514  144.6618  150.8168 LP  0  0  0  0  0  0  0  0  0  0  0  0  # atno 17342 bound_to 10162
  140.7617  143.3180  151.2688 LP  0  0  0  0  0  0  0  0  0  0  0  0  # atno 17343 bound_to 10162
  155.9831  130.4849  150.6918 LP  0  0  0  0  0  0  0  0  0  0  0  0  # atno 17370 bound_to 10713
  157.4488  131.0870  151.0868 LP  0  0  0  0  0  0  0  0  0  0  0  0  # atno 17371 bound_to 10713
  139.9387  134.7828  156.0736 LP  0  0  0  0  0  0  0  0  0  0  0  0  # atno 17394 bound_to 11000
  141.1088  133.6650  156.2928 LP  0  0  0  0  0  0  0  0  0  0  0  0  # atno 17395 bound_to 11000

$$$$
