AV-unprocessed.smi:315|AV-procd|sdf|2320|dock4
  -GOLD-   2262022223D 1   1.00000     0.00000
 Structure written by MMmdl.
 47 49  0  0  0  0  0  0  0  0  2 V2000
  147.0824  140.5909  153.5359 C   0  0  0  0  0  0  0  0  0  0  0  0
  148.4588  140.6290  154.2040 C   0  0  0  0  0  0  0  0  0  0  0  0
  149.0378  139.3311  154.1212 O   0  0  0  0  0  0  0  0  0  0  0  0
  150.2888  139.1249  154.6714 C   0  0  0  0  0  0  0  0  0  0  0  0
  150.9733  140.1947  155.1470 N   0  0  0  0  0  0  0  0  0  0  0  0
  152.1948  139.9880  155.6818 C   0  0  0  0  0  0  0  0  0  0  0  0
  152.7914  138.7167  155.7751 C   0  0  0  0  0  0  0  0  0  0  0  0
  152.0828  137.6055  155.2819 C   0  0  0  0  0  0  0  0  0  0  0  0
  150.8062  137.8100  154.7067 C   0  0  0  0  0  0  0  0  0  0  0  0
  149.9959  136.7614  154.1988 N   0  0  0  0  0  0  0  0  0  0  0  0
  149.8116  135.5272  154.7031 C   0  0  0  0  0  0  0  0  0  0  0  0
  150.2342  135.1445  155.7913 O   0  0  0  0  0  0  0  0  0  0  0  0
  149.1338  134.6997  153.8865 N   0  0  0  0  0  0  0  0  0  0  0  0
  148.7601  133.2996  154.1157 C   0  0  2  0  0  0  0  0  0  0  0  0
  149.9164  132.3219  153.8326 C   0  0  0  0  0  0  0  0  0  0  0  0
  149.2515  131.1231  153.1495 C   0  0  0  0  0  0  0  0  0  0  0  0
  148.1634  131.7446  152.3868 N   0  3  1  0  0  0  0  0  0  0  0  0
  147.1407  130.8723  151.7752 C   0  0  0  0  0  0  0  0  0  0  0  0
  146.2360  131.7405  150.8751 C   0  0  0  0  0  0  0  0  0  0  0  0
  145.6667  132.9646  151.6266 C   0  0  0  0  0  0  0  0  0  0  0  0
  146.7720  133.7598  152.3548 C   0  0  0  0  0  0  0  0  0  0  0  0
  147.5834  132.7962  153.2407 C   0  0  2  0  0  0  0  0  0  0  0  0
  146.5966  141.5653  153.5901 H   0  0  0  0  0  0  0  0  0  0  0  0
  146.4312  139.8641  154.0217 H   0  0  0  0  0  0  0  0  0  0  0  0
  147.1657  140.3177  152.4844 H   0  0  0  0  0  0  0  0  0  0  0  0
  149.0903  141.3632  153.7007 H   0  0  0  0  0  0  0  0  0  0  0  0
  148.3516  140.9318  155.2467 H   0  0  0  0  0  0  0  0  0  0  0  0
  152.7096  140.8619  156.0524 H   0  0  0  0  0  0  0  0  0  0  0  0
  153.7679  138.5959  156.2201 H   0  0  0  0  0  0  0  0  0  0  0  0
  152.5204  136.6225  155.3654 H   0  0  0  0  0  0  0  0  0  0  0  0
  149.6340  136.9143  153.2691 H   0  0  0  0  0  0  0  0  0  0  0  0
  148.8789  135.0786  152.9856 H   0  0  0  0  0  0  0  0  0  0  0  0
  148.4864  133.1721  155.1648 H   0  0  0  0  0  0  0  0  0  0  0  0
  150.6347  132.7726  153.1455 H   0  0  0  0  0  0  0  0  0  0  0  0
  150.4591  132.0385  154.7351 H   0  0  0  0  0  0  0  0  0  0  0  0
  149.9377  130.5699  152.5075 H   0  0  0  0  0  0  0  0  0  0  0  0
  148.8383  130.4372  153.8912 H   0  0  0  0  0  0  0  0  0  0  0  0
  147.6252  130.0954  151.1828 H   0  0  0  0  0  0  0  0  0  0  0  0
  146.5575  130.3741  152.5511 H   0  0  0  0  0  0  0  0  0  0  0  0
  146.8137  132.0886  150.0178 H   0  0  0  0  0  0  0  0  0  0  0  0
  145.4222  131.1378  150.4710 H   0  0  0  0  0  0  0  0  0  0  0  0
  145.1315  133.6146  150.9338 H   0  0  0  0  0  0  0  0  0  0  0  0
  144.9310  132.6231  152.3550 H   0  0  0  0  0  0  0  0  0  0  0  0
  147.4229  134.2486  151.6286 H   0  0  0  0  0  0  0  0  0  0  0  0
  146.3135  134.5465  152.9533 H   0  0  0  0  0  0  0  0  0  0  0  0
  146.8838  132.3123  153.9262 H   0  0  0  0  0  0  0  0  0  0  0  0
  148.6167  132.2277  151.6242 H   0  0  0  0  0  0  0  0  0  0  0  0
  1  2  1  0  0  0  0
  1 23  1  0  0  0  0
  1 24  1  0  0  0  0
  1 25  1  0  0  0  0
  2  3  1  0  0  0  0
  2 26  1  0  0  0  0
  2 27  1  0  0  0  0
  3  4  1  0  0  0  0
  4  9  1  0  0  0  0
  4  5  2  0  0  0  0
  5  6  1  0  0  0  0
  6  7  2  0  0  0  0
  6 28  1  0  0  0  0
  7  8  1  0  0  0  0
  7 29  1  0  0  0  0
  8  9  2  0  0  0  0
  8 30  1  0  0  0  0
  9 10  1  0  0  0  0
 10 11  1  0  0  0  0
 10 31  1  0  0  0  0
 11 12  2  0  0  0  0
 11 13  1  0  0  0  0
 13 14  1  0  0  0  0
 13 32  1  0  0  0  0
 14 22  1  0  0  0  0
 14 15  1  0  0  0  0
 14 33  1  0  0  0  0
 15 16  1  0  0  0  0
 15 34  1  0  0  0  0
 15 35  1  0  0  0  0
 16 17  1  0  0  0  0
 16 36  1  0  0  0  0
 16 37  1  0  0  0  0
 17 22  1  0  0  0  0
 17 18  1  0  0  0  0
 17 47  1  0  0  0  0
 18 19  1  0  0  0  0
 18 38  1  0  0  0  0
 18 39  1  0  0  0  0
 19 20  1  0  0  0  0
 19 40  1  0  0  0  0
 19 41  1  0  0  0  0
 20 21  1  0  0  0  0
 20 42  1  0  0  0  0
 20 43  1  0  0  0  0
 21 22  1  0  0  0  0
 21 44  1  0  0  0  0
 21 45  1  0  0  0  0
 22 46  1  0  0  0  0
M  CHG  1  17   1
M  END
> <s_m_source_file>
AV-unprocessed.smi

> <i_m_source_file_index>
315

> <i_lp_mmshare_version>
43012

> <i_f3d_flags>
0

> <s_epik_input>
W0NIM11bQ0gyXU9jMW5bY0hdW2NIXVtjSF1jMVtOSF1DKD1PKVtOSF1bQ0BIXShbQ0gyXVtDSDJdMilbQ0BASF0oTjIzKVtDSDJdW0NIMl1bQ0gyXVtDSDJdMw==

> <s_epik_cmdline>
J2VwaWtfcHl0aG9uJywgJy1waCcsICc3LjAnLCAnLXRuJywgJzgnLCAnLW1hJywgJzIwMCcsICctbWV0YWxfYmluZGluZycsICctaW1hZScsICc8aW5maWxlLm1hZT4nLCAnLW9tYWUnLCAnPG91dGZpbGUubWFlPic=

> <r_lp_tautomer_probability>
1

> <r_epik_Ionization_Penalty>
0.00106455

> <r_epik_Ionization_Penalty_Charging>
0.000974069

> <r_epik_Ionization_Penalty_Neutral>
9.04821e-05

> <r_epik_State_Penalty>
0.000633842

> <r_epik_Charging_Adjusted_Penalty>
0.00160791

> <i_epik_Tot_Q>
1

> <i_epik_Tot_abs_Q>
1

> <r_epik_Metal_State_Penalty>
-0

> <b_epik_Metal_Only>
0

> <s_lp_Force_Field>
OPLS_2005

> <r_lp_Energy>
53.3213

> <b_lp_Chiralities_Consistent>
1

> <s_lp_Variant>
AV-unprocessed.smi:315-5

> <Gold.Version>
5.8.1

> <Gold.Id.Protein>
6NUR|6NUR_protein|mol2

> <Gold.PLP.Fitness>
44.6588

> <Gold.PLP.PLP>
-36.6296

> <Gold.PLP.part.hbond>
-4.2007

> <Gold.PLP.part.metal>
0.0000

> <Gold.PLP.part.buried>
-1.2810

> <Gold.PLP.part.nonpolar>
-31.4167

> <Gold.PLP.part.repulsive>
0.7078

> <Gold.PLP.ligand.clash>
0.0000

> <Gold.PLP.ligand.torsion>
0.6493

> <Gold.PLP.Chemscore.Hbond>
3.1090

> <Gold.PLP.Chemscore.CHOScore>
0.0000

> <Gold.PLP.Chemscore.Metal>
0.0000

> <Gold.Chemscore.Hbonds>
donor molecule, donor type, donor heavy atom, donor atom, acceptor molecule, acceptor atom, score
      L1  H    10    31       P1  7948  0.94
      L1  H    13    32       P1  7948  1.00
      L1  H    17    47       P1 10747  0.13
      P1  H  7989  7998       L1     5  0.71

> <Gold.PLP.Chemscore.Internal.Correction>
0.0008

> <Gold.Rescore>
     Score         DG    S(hbond)    S(metal)    S(lipo)     H(rot)  DE(clash)    DE(int)     intcor
     17.60     -19.81       2.15        0.00      91.24       1.38       1.76       0.44       ----

> <Gold.Chemscore.Fitness>
17.6037

> <Gold.Chemscore.DG>
-19.8107

> <Gold.Chemscore.ZeroCoef>
-5.4800

> <Gold.Chemscore.Hbond>
2.1499

> <Gold.Chemscore.Metal>
0.0000

> <Gold.Chemscore.Lipo>
91.2397

> <Gold.Chemscore.Internal_Hbond>
0.0000

> <Gold.Chemscore.DEClash>
1.7631

> <Gold.Chemscore.DEInternal>
0.4439

> <Gold.Chemscore.Rot>
1.3770

> <Gold.Chemscore.Internal.Correction>
   9.000000E+99

> <Gold.Chemscore.Hbonds>
donor molecule, donor type, donor heavy atom, donor atom, acceptor molecule, acceptor atom, score
      L1  H    10    31       P1  7948  0.56
      L1  H    13    32       P1  7948  0.24
      L1  H    17    47       P1 10747  0.13
      P1  H  7989  7998       L1     5  0.02

> <Gold.Chemscore.Hbond.Weighted>
-7.1808

> <Gold.Chemscore.Metal.Weighted>
-0.0000

> <Gold.Chemscore.Lipo.Weighted>
-10.6750

> <Gold.Chemscore.Internal_Hbond.Weighted>
0.0000

> <Gold.Chemscore.DEClash.Weighted>
1.7631

> <Gold.Chemscore.DEInternal.Weighted>
0.4439

> <Gold.Chemscore.Rot.Weighted>
3.5252

> <Gold.Chemscore.Internal.Correction.Weighted>
   9.000000E+99

> <Gold.Protein.RotatedTorsions>
[ 6907 6896 6895 6894 ] final  -13.02 input  -60.11 | X-H torsion
[ 7974 7965 7964 7962 ] final  -26.95 input  175.53 | X-H torsion
[ 8008 7997 7996 7995 ] final  -12.99 input   59.86 | X-H torsion
[ 10167 10162 10161 10158 ] final  -67.08 input  -65.29 | X-H torsion
[ 10718 10713 10712 10709 ] final -162.71 input   66.30 | X-H torsion
[ 10763 10752 10751 10750 ] final   43.25 input  -60.55 | X-H torsion
[ 11005 11000 10999 10996 ] final  -91.23 input  -57.11 | X-H torsion

> <Gold.Protein.ActiveResidues>
 VAL166  LYS551  ARG553  GLY616  TRP617  ASP618  TYR619  PRO620  LYS621  CYS622 
 ASP623  PHE694  ASN695  SER759  ASP760  ASP761  ALA762  ILE779  LEU786  VAL792 
 PHE793  MET794  SER795  GLU796  ALA797  LYS798  CYS799  TRP800  GLU811  SER814 

> <Gold.Protein.RotatedAtoms>
  151.3614  135.0905  159.9435 H   0  0  0  0  0  0  0  0  0  0  0  0  # atno 6907 bound_to 6896
  152.5161  133.9254  159.7565 H   0  0  0  0  0  0  0  0  0  0  0  0  # atno 6908 bound_to 6896
  150.9649  133.6351  159.2777 H   0  0  0  0  0  0  0  0  0  0  0  0  # atno 6909 bound_to 6896
  146.1391  140.5087  142.8660 H   0  0  0  0  0  0  0  0  0  0  0  0  # atno 7974 bound_to 7965
  154.5331  140.2261  155.8770 H   0  0  0  0  0  0  0  0  0  0  0  0  # atno 8008 bound_to 7997
  156.1783  140.3106  155.9064 H   0  0  0  0  0  0  0  0  0  0  0  0  # atno 8009 bound_to 7997
  155.3411  140.0450  157.3035 H   0  0  0  0  0  0  0  0  0  0  0  0  # atno 8010 bound_to 7997
  140.5609  143.2313  151.6729 H   0  0  0  0  0  0  0  0  0  0  0  0  # atno 10167 bound_to 10162
  156.6143  130.8863  151.2943 H   0  0  0  0  0  0  0  0  0  0  0  0  # atno 10718 bound_to 10713
  152.9865  135.6107  154.3081 H   0  0  0  0  0  0  0  0  0  0  0  0  # atno 10763 bound_to 10752
  154.2798  135.2777  155.2704 H   0  0  0  0  0  0  0  0  0  0  0  0  # atno 10764 bound_to 10752
  154.5048  135.5857  153.6615 H   0  0  0  0  0  0  0  0  0  0  0  0  # atno 10765 bound_to 10752
  141.1549  133.7742  156.9850 H   0  0  0  0  0  0  0  0  0  0  0  0  # atno 11005 bound_to 11000
  144.7772  140.5765  143.6630 LP  0  0  0  0  0  0  0  0  0  0  0  0  # atno 17320 bound_to 7965
  145.5088  139.1480  143.3616 LP  0  0  0  0  0  0  0  0  0  0  0  0  # atno 17321 bound_to 7965
  139.5070  144.3662  152.0514 LP  0  0  0  0  0  0  0  0  0  0  0  0  # atno 17342 bound_to 10162
  140.2789  144.3882  150.6125 LP  0  0  0  0  0  0  0  0  0  0  0  0  # atno 17343 bound_to 10162
  157.7245  130.9604  150.1578 LP  0  0  0  0  0  0  0  0  0  0  0  0  # atno 17370 bound_to 10713
  156.2364  130.3687  149.8386 LP  0  0  0  0  0  0  0  0  0  0  0  0  # atno 17371 bound_to 10713
  140.1040  134.9518  157.1966 LP  0  0  0  0  0  0  0  0  0  0  0  0  # atno 17394 bound_to 11000
  140.3280  134.2841  155.7233 LP  0  0  0  0  0  0  0  0  0  0  0  0  # atno 17395 bound_to 11000

$$$$
