AV-unprocessed.smi:54|AV-procd|sdf|538|dock8
  -GOLD-   2262016423D 1   1.00000     0.00000
 Structure written by MMmdl.
 44 46  0  0  0  0  0  0  0  0  1 V2000
  145.0488  133.2738  152.3319 C   0  0  0  0  0  0  0  0  0  0  0  0
  146.4727  132.6971  152.3864 C   0  0  0  0  0  0  0  0  0  0  0  0
  146.4666  131.1762  152.1612 C   0  0  0  0  0  0  0  0  0  0  0  0
  147.1432  133.0441  153.7205 C   0  0  0  0  0  0  0  0  0  0  0  0
  146.7991  132.5187  154.7799 O   0  0  0  0  0  0  0  0  0  0  0  0
  148.2020  134.0357  153.6455 N   0  0  0  0  0  0  0  0  0  0  0  0
  148.9456  134.5224  154.6661 C   0  0  0  0  0  0  0  0  0  0  0  0
  149.6440  135.6456  154.5828 N   0  0  0  0  0  0  0  0  0  0  0  0
  150.3363  135.9725  155.7154 C   0  0  0  0  0  0  0  0  0  0  0  0
  150.3533  135.2662  156.8998 C   0  0  0  0  0  0  0  0  0  0  0  0
  151.1545  135.9155  157.8316 N   0  0  0  0  0  0  0  0  0  0  0  0
  151.5861  136.9706  157.1982 C   0  0  0  0  0  0  0  0  0  0  0  0
  151.1573  137.0663  155.8934 N   0  0  0  0  0  0  0  0  0  0  0  0
  151.4187  138.1363  154.8740 C   0  0  1  0  0  0  0  0  0  0  0  0
  150.2036  138.7009  154.4935 O   0  0  0  0  0  0  0  0  0  0  0  0
  149.8978  139.7823  155.3641 C   0  0  2  0  0  0  0  0  0  0  0  0
  148.8637  140.7071  154.7055 C   0  0  0  0  0  0  0  0  0  0  0  0
  149.3402  141.1496  153.4529 O   0  0  0  0  0  0  0  0  0  0  0  0
  151.2676  140.4403  155.5655 C   0  0  1  0  0  0  0  0  0  0  0  0
  151.3245  141.0590  156.8356 O   0  0  0  0  0  0  0  0  0  0  0  0
  152.2568  139.2762  155.4843 C   0  0  2  0  0  0  0  0  0  0  0  0
  153.3520  139.6095  154.6558 O   0  0  0  0  0  0  0  0  0  0  0  0
  149.5947  134.0535  157.0102 C   0  0  0  0  0  0  0  0  0  0  0  0
  149.4944  133.3026  157.9781 O   0  0  0  0  0  0  0  0  0  0  0  0
  148.9092  133.7494  155.8267 N   0  0  0  0  0  0  0  0  0  0  0  0
  151.8963  137.6056  154.0490 H   0  0  0  0  0  0  0  0  0  0  0  0
  149.5267  139.3974  156.3162 H   0  0  0  0  0  0  0  0  0  0  0  0
  151.4576  141.1732  154.7795 H   0  0  0  0  0  0  0  0  0  0  0  0
  152.6296  138.9886  156.4688 H   0  0  0  0  0  0  0  0  0  0  0  0
  145.0520  134.3538  152.4841 H   0  0  0  0  0  0  0  0  0  0  0  0
  144.4072  132.8316  153.0953 H   0  0  0  0  0  0  0  0  0  0  0  0
  144.5882  133.0821  151.3625 H   0  0  0  0  0  0  0  0  0  0  0  0
  147.0534  133.1536  151.5835 H   0  0  0  0  0  0  0  0  0  0  0  0
  147.4757  130.7646  152.2036 H   0  0  0  0  0  0  0  0  0  0  0  0
  146.0539  130.9289  151.1827 H   0  0  0  0  0  0  0  0  0  0  0  0
  145.8649  130.6619  152.9118 H   0  0  0  0  0  0  0  0  0  0  0  0
  148.3826  134.4198  152.7299 H   0  0  0  0  0  0  0  0  0  0  0  0
  152.2278  137.7002  157.6708 H   0  0  0  0  0  0  0  0  0  0  0  0
  147.9352  140.1638  154.5288 H   0  0  0  0  0  0  0  0  0  0  0  0
  148.6255  141.5574  155.3453 H   0  0  0  0  0  0  0  0  0  0  0  0
  149.2744  140.4359  152.8371 H   0  0  0  0  0  0  0  0  0  0  0  0
  150.9839  140.4564  157.4792 H   0  0  0  0  0  0  0  0  0  0  0  0
  153.5713  138.8558  154.1299 H   0  0  0  0  0  0  0  0  0  0  0  0
  148.3558  132.9054  155.8311 H   0  0  0  0  0  0  0  0  0  0  0  0
  1  2  1  0  0  0  0
  1 30  1  0  0  0  0
  1 31  1  0  0  0  0
  1 32  1  0  0  0  0
  2  3  1  0  0  0  0
  2  4  1  0  0  0  0
  2 33  1  0  0  0  0
  3 34  1  0  0  0  0
  3 35  1  0  0  0  0
  3 36  1  0  0  0  0
  4  5  2  0  0  0  0
  4  6  1  0  0  0  0
  6 37  1  0  0  0  0
  6  7  1  0  0  0  0
  7 25  1  0  0  0  0
  7  8  2  0  0  0  0
  8  9  1  0  0  0  0
  9 13  1  0  0  0  0
  9 10  2  0  0  0  0
 10 11  1  0  0  0  0
 10 23  1  0  0  0  0
 11 12  2  0  0  0  0
 12 13  1  0  0  0  0
 12 38  1  0  0  0  0
 13 14  1  0  0  0  0
 14 26  1  0  0  0  0
 14 21  1  0  0  0  0
 14 15  1  0  0  0  0
 15 16  1  0  0  0  0
 16 27  1  0  0  0  0
 16 17  1  0  0  0  0
 16 19  1  0  0  0  0
 17 18  1  0  0  0  0
 17 39  1  0  0  0  0
 17 40  1  0  0  0  0
 18 41  1  0  0  0  0
 19 28  1  0  0  0  0
 19 20  1  0  0  0  0
 19 21  1  0  0  0  0
 20 42  1  0  0  0  0
 21 29  1  0  0  0  0
 21 22  1  0  0  0  0
 22 43  1  0  0  0  0
 23 24  2  0  0  0  0
 23 25  1  0  0  0  0
 25 44  1  0  0  0  0
M  END
> <s_m_source_file>
AV-unprocessed.smi

> <i_m_source_file_index>
54

> <i_lp_mmshare_version>
43012

> <i_f3d_flags>
0

> <s_epik_input>
W0NIM11bQ0hdKFtDSDNdKUMoPU8pW05IXWMobjEpW25IXWMoPU8pYyhjMTIpbltjSF1uMltDQEBIXTNPW0NASF0oW0NIMl1bT0hdKVtDQEBIXShbT0hdKVtDQEhdM1tPSF0=

> <s_epik_cmdline>
J2VwaWtfcHl0aG9uJywgJy1waCcsICc3LjAnLCAnLXRuJywgJzgnLCAnLW1hJywgJzIwMCcsICctbWV0YWxfYmluZGluZycsICctaW1hZScsICc8aW5maWxlLm1hZT4nLCAnLW9tYWUnLCAnPG91dGZpbGUubWFlPic=

> <r_lp_tautomer_probability>
0.85571

> <r_epik_Ionization_Penalty>
0.0316551

> <r_epik_Ionization_Penalty_Charging>
0.0316043

> <r_epik_Ionization_Penalty_Neutral>
5.07097e-05

> <r_epik_State_Penalty>
3.15494e-07

> <r_epik_Charging_Adjusted_Penalty>
0.0316047

> <i_epik_Tot_Q>
0

> <i_epik_Tot_abs_Q>
0

> <r_epik_Metal_State_Penalty>
0.421206

> <b_epik_Metal_Only>
0

> <s_epik_Chemistry_Notes>
This compound contains an acetal/aminal-like group ( X-CH(R)-Y where X, Y are N, S, or O) that may be acid/base labile, releasing an aldehyde.

> <s_lp_Force_Field>
OPLS_2005

> <r_lp_Energy>
36.3126

> <b_lp_Chiralities_Consistent>
1

> <s_lp_Variant>
AV-unprocessed.smi:54-10

> <Gold.Version>
5.8.1

> <Gold.Id.Protein>
6NUR|6NUR_protein|mol2

> <Gold.PLP.Fitness>
46.7590

> <Gold.PLP.PLP>
-32.8193

> <Gold.PLP.part.hbond>
-8.0000

> <Gold.PLP.part.metal>
0.0000

> <Gold.PLP.part.buried>
-3.8152

> <Gold.PLP.part.nonpolar>
-22.2997

> <Gold.PLP.part.repulsive>
2.1300

> <Gold.PLP.ligand.clash>
0.0000

> <Gold.PLP.ligand.torsion>
0.2817

> <Gold.PLP.Chemscore.Hbond>
4.8164

> <Gold.PLP.Chemscore.CHOScore>
0.0000

> <Gold.PLP.Chemscore.Metal>
0.0000

> <Gold.Chemscore.Hbonds>
donor molecule, donor type, donor heavy atom, donor atom, acceptor molecule, acceptor atom, score
      L1  H     6    37       P1  7948  0.72
      L1  H    18    41       P1  7957  0.82
      P1  H  6896  6907       L1    24  1.00
      P1  H  6896  6908       L1    11  0.13
      P1  H  7989  7998       L1    18  0.04
      P1  H  7997  8010       L1    22  1.00
      P1  H  8011  8017       L1    18  0.90

> <Gold.PLP.Chemscore.Internal.Correction>
0.0538

> <Gold.Rescore>
     Score         DG    S(hbond)    S(metal)    S(lipo)     H(rot)  DE(clash)    DE(int)     intcor
      9.47     -11.26       3.18        0.00      47.12       4.05       1.50       0.29       ----

> <Gold.Chemscore.Fitness>
9.4660

> <Gold.Chemscore.DG>
-11.2562

> <Gold.Chemscore.ZeroCoef>
-5.4800

> <Gold.Chemscore.Hbond>
3.1826

> <Gold.Chemscore.Metal>
0.0000

> <Gold.Chemscore.Lipo>
47.1155

> <Gold.Chemscore.Internal_Hbond>
0.0000

> <Gold.Chemscore.DEClash>
1.4987

> <Gold.Chemscore.DEInternal>
0.2915

> <Gold.Chemscore.Rot>
4.0493

> <Gold.Chemscore.Internal.Correction>
   9.000000E+99

> <Gold.Chemscore.Hbonds>
donor molecule, donor type, donor heavy atom, donor atom, acceptor molecule, acceptor atom, score
      L1  H     6    37       P1  7948  0.13
      L1  H    18    41       P1  7957  0.81
      P1  H  6896  6907       L1    24  0.74
      P1  H  6896  6908       L1    11  0.13
      P1  H  7997  8010       L1    22  0.65
      P1  H  8011  8017       L1    18  0.17

> <Gold.Chemscore.Hbond.Weighted>
-10.6299

> <Gold.Chemscore.Metal.Weighted>
-0.0000

> <Gold.Chemscore.Lipo.Weighted>
-5.5125

> <Gold.Chemscore.Internal_Hbond.Weighted>
0.0000

> <Gold.Chemscore.DEClash.Weighted>
1.4987

> <Gold.Chemscore.DEInternal.Weighted>
0.2915

> <Gold.Chemscore.Rot.Weighted>
10.3662

> <Gold.Chemscore.Internal.Correction.Weighted>
   9.000000E+99

> <Gold.Protein.RotatedTorsions>
[ 6907 6896 6895 6894 ] final -131.34 input  -60.11 | X-H torsion
[ 7974 7965 7964 7962 ] final -147.13 input  175.53 | X-H torsion
[ 8008 7997 7996 7995 ] final  121.59 input   59.86 | X-H torsion
[ 10167 10162 10161 10158 ] final  127.03 input  -65.29 | X-H torsion
[ 10718 10713 10712 10709 ] final  -67.75 input   66.30 | X-H torsion
[ 10763 10752 10751 10750 ] final -146.59 input  -60.55 | X-H torsion
[ 11005 11000 10999 10996 ] final -131.80 input  -57.11 | X-H torsion

> <Gold.Protein.ActiveResidues>
 VAL166  LYS551  ARG553  GLY616  TRP617  ASP618  TYR619  PRO620  LYS621  CYS622 
 ASP623  PHE694  ASN695  SER759  ASP760  ASP761  ALA762  ILE779  LEU786  VAL792 
 PHE793  MET794  SER795  GLU796  ALA797  LYS798  CYS799  TRP800  GLU811  SER814 

> <Gold.Protein.RotatedAtoms>
  150.9499  133.6561  159.2773 H   0  0  0  0  0  0  0  0  0  0  0  0  # atno 6907 bound_to 6896
  151.3921  135.0956  159.9539 H   0  0  0  0  0  0  0  0  0  0  0  0  # atno 6908 bound_to 6896
  152.5105  133.9011  159.7496 H   0  0  0  0  0  0  0  0  0  0  0  0  # atno 6909 bound_to 6896
  144.8114  140.5367  143.5640 H   0  0  0  0  0  0  0  0  0  0  0  0  # atno 7974 bound_to 7965
  156.2693  140.2805  156.1332 H   0  0  0  0  0  0  0  0  0  0  0  0  # atno 8008 bound_to 7997
  155.1032  140.0390  157.2720 H   0  0  0  0  0  0  0  0  0  0  0  0  # atno 8009 bound_to 7997
  154.6799  140.2606  155.6925 H   0  0  0  0  0  0  0  0  0  0  0  0  # atno 8010 bound_to 7997
  139.5600  144.6875  151.4071 H   0  0  0  0  0  0  0  0  0  0  0  0  # atno 10167 bound_to 10162
  156.0541  130.4283  150.1901 H   0  0  0  0  0  0  0  0  0  0  0  0  # atno 10718 bound_to 10713
  154.8328  135.3382  154.6686 H   0  0  0  0  0  0  0  0  0  0  0  0  # atno 10763 bound_to 10752
  153.7304  135.6952  153.4995 H   0  0  0  0  0  0  0  0  0  0  0  0  # atno 10764 bound_to 10752
  153.2316  135.4414  155.0554 H   0  0  0  0  0  0  0  0  0  0  0  0  # atno 10765 bound_to 10752
  140.9227  134.1424  157.4301 H   0  0  0  0  0  0  0  0  0  0  0  0  # atno 11005 bound_to 11000
  145.5316  139.1475  143.3496 LP  0  0  0  0  0  0  0  0  0  0  0  0  # atno 17320 bound_to 7965
  146.2412  140.5457  142.8933 LP  0  0  0  0  0  0  0  0  0  0  0  0  # atno 17321 bound_to 7965
  140.6878  143.7933  150.7211 LP  0  0  0  0  0  0  0  0  0  0  0  0  # atno 17342 bound_to 10162
  140.1406  143.4445  152.2196 LP  0  0  0  0  0  0  0  0  0  0  0  0  # atno 17343 bound_to 10162
  156.9979  130.9913  151.3398 LP  0  0  0  0  0  0  0  0  0  0  0  0  # atno 17370 bound_to 10713
  157.5494  130.8172  149.8127 LP  0  0  0  0  0  0  0  0  0  0  0  0  # atno 17371 bound_to 10713
  139.8779  134.9977  156.5860 LP  0  0  0  0  0  0  0  0  0  0  0  0  # atno 17394 bound_to 11000
  140.7967  133.8538  155.8692 LP  0  0  0  0  0  0  0  0  0  0  0  0  # atno 17395 bound_to 11000

$$$$
