AV-unprocessed.smi:670|AV-procd|sdf|3266|dock4
  -GOLD-   22720 0223D 1   1.00000     0.00000
 Structure written by MMmdl.
 44 45  0  0  0  0  0  0  0  0  2 V2000
  148.3328  143.3977  159.3137 C   0  0  0  0  0  0  0  0  0  0  0  0
  149.6208  144.1529  158.9501 C   0  0  1  0  0  0  0  0  0  0  0  0
  150.2247  144.8752  160.1728 C   0  0  0  0  0  0  0  0  0  0  0  0
  151.4919  145.6599  159.7983 C   0  0  0  0  0  0  0  0  0  0  0  0
  152.5264  144.7549  159.1143 C   0  0  0  0  0  0  0  0  0  0  0  0
  151.9240  144.0404  157.8950 C   0  0  0  0  0  0  0  0  0  0  0  0
  150.6645  143.2325  158.2776 C   0  0  1  0  0  0  0  0  0  0  0  0
  150.9838  142.1955  159.1976 O   0  0  0  0  0  0  0  0  0  0  0  0
  151.0218  140.8830  158.6595 C   0  0  0  0  0  0  0  0  0  0  0  0
  152.1850  140.1160  159.3066 C   0  0  0  0  0  0  0  0  0  0  0  0
  152.2080  138.7196  158.8837 N   0  0  0  0  0  0  0  0  0  0  0  0
  153.2705  138.0830  158.3666 C   0  0  0  0  0  0  0  0  0  0  0  0
  154.3762  138.6094  158.2369 O   0  0  0  0  0  0  0  0  0  0  0  0
  153.0576  136.6180  157.9635 C   0  0  0  0  0  0  0  0  0  0  0  0
  154.0246  135.7153  158.6027 N   0  0  0  0  0  0  0  0  0  0  0  0
  153.9216  135.6926  160.0600 N   0  5  0  0  0  0  0  0  0  0  0  0
  154.7249  134.8559  160.7688 C   0  0  0  0  0  0  0  0  0  0  0  0
  154.6731  134.7609  161.9927 O   0  0  0  0  0  0  0  0  0  0  0  0
  155.6830  134.0446  160.0369 C   0  0  0  0  0  0  0  0  0  0  0  0
  155.7799  134.1109  158.6945 C   0  0  0  0  0  0  0  0  0  0  0  0
  154.9322  134.9849  157.8931 C   0  0  0  0  0  0  0  0  0  0  0  0
  155.0242  135.0543  156.6677 O   0  0  0  0  0  0  0  0  0  0  0  0
  148.5191  142.6287  160.0642 H   0  0  0  0  0  0  0  0  0  0  0  0
  147.9015  142.9118  158.4382 H   0  0  0  0  0  0  0  0  0  0  0  0
  147.5819  144.0774  159.7170 H   0  0  0  0  0  0  0  0  0  0  0  0
  149.3437  144.9175  158.2228 H   0  0  0  0  0  0  0  0  0  0  0  0
  149.4905  145.5560  160.6044 H   0  0  0  0  0  0  0  0  0  0  0  0
  150.4649  144.1504  160.9521 H   0  0  0  0  0  0  0  0  0  0  0  0
  151.2294  146.4825  159.1322 H   0  0  0  0  0  0  0  0  0  0  0  0
  151.9264  146.1107  160.6907 H   0  0  0  0  0  0  0  0  0  0  0  0
  153.3941  145.3420  158.8133 H   0  0  0  0  0  0  0  0  0  0  0  0
  152.8874  144.0131  159.8264 H   0  0  0  0  0  0  0  0  0  0  0  0
  151.6576  144.7829  157.1417 H   0  0  0  0  0  0  0  0  0  0  0  0
  152.6760  143.4052  157.4292 H   0  0  0  0  0  0  0  0  0  0  0  0
  150.2221  142.7972  157.3799 H   0  0  0  0  0  0  0  0  0  0  0  0
  150.0796  140.3781  158.8763 H   0  0  0  0  0  0  0  0  0  0  0  0
  151.1438  140.8935  157.5767 H   0  0  0  0  0  0  0  0  0  0  0  0
  153.1369  140.6044  159.0915 H   0  0  0  0  0  0  0  0  0  0  0  0
  152.0690  140.1292  160.3902 H   0  0  0  0  0  0  0  0  0  0  0  0
  151.3414  138.2060  158.9528 H   0  0  0  0  0  0  0  0  0  0  0  0
  152.0396  136.3278  158.2285 H   0  0  0  0  0  0  0  0  0  0  0  0
  153.1091  136.5224  156.8768 H   0  0  0  0  0  0  0  0  0  0  0  0
  156.3332  133.3764  160.5817 H   0  0  0  0  0  0  0  0  0  0  0  0
  156.5077  133.4916  158.1917 H   0  0  0  0  0  0  0  0  0  0  0  0
  1  2  1  0  0  0  0
  1 23  1  0  0  0  0
  1 24  1  0  0  0  0
  1 25  1  0  0  0  0
  2  7  1  0  0  0  0
  2  3  1  0  0  0  0
  2 26  1  0  0  0  0
  3  4  1  0  0  0  0
  3 27  1  0  0  0  0
  3 28  1  0  0  0  0
  4  5  1  0  0  0  0
  4 29  1  0  0  0  0
  4 30  1  0  0  0  0
  5  6  1  0  0  0  0
  5 31  1  0  0  0  0
  5 32  1  0  0  0  0
  6  7  1  0  0  0  0
  6 33  1  0  0  0  0
  6 34  1  0  0  0  0
  7  8  1  0  0  0  0
  7 35  1  0  0  0  0
  8  9  1  0  0  0  0
  9 10  1  0  0  0  0
  9 36  1  0  0  0  0
  9 37  1  0  0  0  0
 10 11  1  0  0  0  0
 10 38  1  0  0  0  0
 10 39  1  0  0  0  0
 11 12  1  0  0  0  0
 11 40  1  0  0  0  0
 12 13  2  0  0  0  0
 12 14  1  0  0  0  0
 14 41  1  0  0  0  0
 14 42  1  0  0  0  0
 14 15  1  0  0  0  0
 15 16  1  0  0  0  0
 15 21  1  0  0  0  0
 16 17  1  0  0  0  0
 17 18  2  0  0  0  0
 17 19  1  0  0  0  0
 19 43  1  0  0  0  0
 19 20  2  0  0  0  0
 20 44  1  0  0  0  0
 20 21  1  0  0  0  0
 21 22  2  0  0  0  0
M  CHG  1  16  -1
M  END
> <s_m_source_file>
AV-unprocessed.smi

> <i_m_source_file_index>
670

> <i_lp_mmshare_version>
43012

> <i_f3d_flags>
0

> <s_epik_input>
W0NIM11bQ0BASF0xW0NIMl1bQ0gyXVtDSDJdW0NIMl1bQ0BIXTFPW0NIMl1bQ0gyXVtOSF1DKD1PKVtDSDJdbjJbbkhdYyg9TylbY0hdW2NIXWMyPU8=

> <s_epik_cmdline>
J2VwaWtfcHl0aG9uJywgJy1waCcsICc3LjAnLCAnLXRuJywgJzgnLCAnLW1hJywgJzIwMCcsICctbWV0YWxfYmluZGluZycsICctaW1hZScsICc8aW5maWxlLm1hZT4nLCAnLW9tYWUnLCAnPG91dGZpbGUubWFlPic=

> <r_lp_tautomer_probability>
1

> <r_epik_Ionization_Penalty>
0.0975638

> <r_epik_Ionization_Penalty_Charging>
0.0975637

> <r_epik_Ionization_Penalty_Neutral>
2.78599e-08

> <r_epik_State_Penalty>
0.0343507

> <r_epik_Charging_Adjusted_Penalty>
0.131914

> <i_epik_Tot_Q>
-1

> <i_epik_Tot_abs_Q>
1

> <r_epik_Metal_State_Penalty>
0.0343507

> <b_epik_Metal_Only>
0

> <s_lp_Force_Field>
OPLS_2005

> <r_lp_Energy>
24.4617

> <b_lp_Chiralities_Consistent>
1

> <s_lp_Variant>
AV-unprocessed.smi:670-2

> <Gold.Version>
5.8.1

> <Gold.Id.Protein>
6NUR|6NUR_protein|mol2

> <Gold.PLP.Fitness>
40.7058

> <Gold.PLP.PLP>
-30.6185

> <Gold.PLP.part.hbond>
-3.1681

> <Gold.PLP.part.metal>
0.0000

> <Gold.PLP.part.buried>
-3.9869

> <Gold.PLP.part.nonpolar>
-23.3193

> <Gold.PLP.part.repulsive>
0.0895

> <Gold.PLP.ligand.clash>
0.0000

> <Gold.PLP.ligand.torsion>
0.9850

> <Gold.PLP.Chemscore.Hbond>
4.0000

> <Gold.PLP.Chemscore.CHOScore>
0.0000

> <Gold.PLP.Chemscore.Metal>
0.0000

> <Gold.Chemscore.Hbonds>
donor molecule, donor type, donor heavy atom, donor atom, acceptor molecule, acceptor atom, score
      P1  H  6896  6909       L1    16  1.30
      P1  H  7997  8008       L1    13  1.00
      P1  H 10752 10765       L1    22  0.78

> <Gold.PLP.Chemscore.Internal.Correction>
0.0574

> <Gold.Rescore>
     Score         DG    S(hbond)    S(metal)    S(lipo)     H(rot)  DE(clash)    DE(int)     intcor
     15.67     -16.93       2.41        0.00      82.70       2.45       0.21       1.05       ----

> <Gold.Chemscore.Fitness>
15.6732

> <Gold.Chemscore.DG>
-16.9286

> <Gold.Chemscore.ZeroCoef>
-5.4800

> <Gold.Chemscore.Hbond>
2.4079

> <Gold.Chemscore.Metal>
0.0000

> <Gold.Chemscore.Lipo>
82.6983

> <Gold.Chemscore.Internal_Hbond>
0.0000

> <Gold.Chemscore.DEClash>
0.2091

> <Gold.Chemscore.DEInternal>
1.0462

> <Gold.Chemscore.Rot>
2.4490

> <Gold.Chemscore.Internal.Correction>
   9.000000E+99

> <Gold.Chemscore.Hbonds>
donor molecule, donor type, donor heavy atom, donor atom, acceptor molecule, acceptor atom, score
      P1  H  6896  6909       L1    16  0.02
      P1  H  7997  8008       L1    13  0.94
      P1  H 10752 10765       L1    22  0.78

> <Gold.Chemscore.Hbond.Weighted>
-8.0422

> <Gold.Chemscore.Metal.Weighted>
-0.0000

> <Gold.Chemscore.Lipo.Weighted>
-9.6757

> <Gold.Chemscore.Internal_Hbond.Weighted>
0.0000

> <Gold.Chemscore.DEClash.Weighted>
0.2091

> <Gold.Chemscore.DEInternal.Weighted>
1.0462

> <Gold.Chemscore.Rot.Weighted>
6.2694

> <Gold.Chemscore.Internal.Correction.Weighted>
   9.000000E+99

> <Gold.Protein.RotatedTorsions>
[ 6907 6896 6895 6894 ] final  169.07 input  -60.11 | X-H torsion
[ 7974 7965 7964 7962 ] final -107.33 input  175.53 | X-H torsion
[ 8008 7997 7996 7995 ] final -122.00 input   59.86 | X-H torsion
[ 10167 10162 10161 10158 ] final  123.77 input  -65.29 | X-H torsion
[ 10718 10713 10712 10709 ] final  -50.18 input   66.30 | X-H torsion
[ 10763 10752 10751 10750 ] final  -48.49 input  -60.55 | X-H torsion
[ 11005 11000 10999 10996 ] final -162.92 input  -57.11 | X-H torsion

> <Gold.Protein.ActiveResidues>
 VAL166  LYS551  ARG553  GLY616  TRP617  ASP618  TYR619  PRO620  LYS621  CYS622 
 ASP623  PHE694  ASN695  SER759  ASP760  ASP761  ALA762  ILE779  LEU786  VAL792 
 PHE793  MET794  SER795  GLU796  ALA797  LYS798  CYS799  TRP800  GLU811  SER814 

> <Gold.Protein.RotatedAtoms>
  151.8377  133.3418  159.3633 H   0  0  0  0  0  0  0  0  0  0  0  0  # atno 6907 bound_to 6896
  150.7244  134.5421  159.5762 H   0  0  0  0  0  0  0  0  0  0  0  0  # atno 6908 bound_to 6896
  152.2888  134.7746  160.0433 H   0  0  0  0  0  0  0  0  0  0  0  0  # atno 6909 bound_to 6896
  145.2067  140.9079  143.3338 H   0  0  0  0  0  0  0  0  0  0  0  0  # atno 7974 bound_to 7965
  155.1571  140.0405  157.2834 H   0  0  0  0  0  0  0  0  0  0  0  0  # atno 8008 bound_to 7997
  154.6363  140.2536  155.7348 H   0  0  0  0  0  0  0  0  0  0  0  0  # atno 8009 bound_to 7997
  156.2510  140.2865  156.0736 H   0  0  0  0  0  0  0  0  0  0  0  0  # atno 8010 bound_to 7997
  139.5780  144.6973  151.3602 H   0  0  0  0  0  0  0  0  0  0  0  0  # atno 10167 bound_to 10162
  156.1825  130.4151  149.9487 H   0  0  0  0  0  0  0  0  0  0  0  0  # atno 10718 bound_to 10713
  154.0787  135.6594  153.4834 H   0  0  0  0  0  0  0  0  0  0  0  0  # atno 10763 bound_to 10752
  153.0364  135.5174  154.7496 H   0  0  0  0  0  0  0  0  0  0  0  0  # atno 10764 bound_to 10752
  154.6584  135.3011  154.9866 H   0  0  0  0  0  0  0  0  0  0  0  0  # atno 10765 bound_to 10752
  140.6039  134.4919  157.5208 H   0  0  0  0  0  0  0  0  0  0  0  0  # atno 11005 bound_to 11000
  144.9895  139.3703  143.6222 LP  0  0  0  0  0  0  0  0  0  0  0  0  # atno 17320 bound_to 7965
  146.3406  139.9072  142.8785 LP  0  0  0  0  0  0  0  0  0  0  0  0  # atno 17321 bound_to 7965
  140.7061  143.7510  150.7485 LP  0  0  0  0  0  0  0  0  0  0  0  0  # atno 17342 bound_to 10162
  140.1035  143.4766  152.2412 LP  0  0  0  0  0  0  0  0  0  0  0  0  # atno 17343 bound_to 10162
  156.7253  130.9022  151.3621 LP  0  0  0  0  0  0  0  0  0  0  0  0  # atno 17370 bound_to 10713
  157.6877  130.9202  150.0430 LP  0  0  0  0  0  0  0  0  0  0  0  0  # atno 17371 bound_to 10713
  139.9221  134.8129  156.1180 LP  0  0  0  0  0  0  0  0  0  0  0  0  # atno 17394 bound_to 11000
  141.0854  133.6736  156.2424 LP  0  0  0  0  0  0  0  0  0  0  0  0  # atno 17395 bound_to 11000

$$$$
