AV-unprocessed.smi:21|AV-procd|sdf|165|dock5
  -GOLD-   2262015413D 1   1.00000     0.00000
 Structure written by MMmdl.
 61 64  0  0  0  0  0  0  0  0  1 V2000
  152.2961  145.3971  158.8400 C   0  0  0  0  0  0  0  0  0  0  0  0
  152.8673  144.1119  159.0279 O   0  0  0  0  0  0  0  0  0  0  0  0
  151.9050  143.0673  159.0785 C   0  0  1  0  0  0  0  0  0  0  0  0
  151.2562  142.8186  157.7061 C   0  0  0  0  0  0  0  0  0  0  0  0
  151.3853  141.3050  157.5004 C   0  0  1  0  0  0  0  0  0  0  0  0
  151.3103  140.8660  156.0210 C   0  0  0  0  0  0  0  0  0  0  0  0
  151.4294  139.4173  155.8505 N   0  0  0  0  0  0  0  0  0  0  0  0
  152.5788  138.9160  155.0980 C   0  0  0  0  0  0  0  0  0  0  0  0
  150.3195  138.6281  155.9395 C   0  0  0  0  0  0  0  0  0  0  0  0
  149.1797  139.1677  156.4532 N   0  0  0  0  0  0  0  0  0  0  0  0
  148.0624  138.4441  156.5607 C   0  0  0  0  0  0  0  0  0  0  0  0
  147.8568  137.1743  156.2138 N   0  0  0  0  0  0  0  0  0  0  0  0
  148.9849  136.6216  155.6860 C   0  0  0  0  0  0  0  0  0  0  0  0
  150.2461  137.2652  155.5134 C   0  0  0  0  0  0  0  0  0  0  0  0
  151.1375  136.3705  154.9294 N   0  0  0  0  0  0  0  0  0  0  0  0
  150.4551  135.2694  154.7820 C   0  0  0  0  0  0  0  0  0  0  0  0
  149.1484  135.3359  155.2026 N   0  0  0  0  0  0  0  0  0  0  0  0
  148.1592  134.2742  155.1530 C   0  0  0  0  0  0  0  0  0  0  0  0
  148.7430  132.9367  154.6305 C   0  0  1  0  0  0  0  0  0  0  0  0
  149.8088  132.3731  155.5990 C   0  0  0  0  0  0  0  0  0  0  0  0
  149.2428  132.0469  156.8512 O   0  0  0  0  0  0  0  0  0  0  0  0
  147.6548  131.8817  154.2893 C   0  0  1  0  0  0  0  0  0  0  0  0
  146.8280  132.1304  153.0360 C   0  0  0  0  0  0  0  0  0  0  0  0
  146.2944  130.7348  152.7443 C   0  0  0  0  0  0  0  0  0  0  0  0
  147.4065  129.8946  153.0147 O   0  0  0  0  0  0  0  0  0  0  0  0
  148.1587  130.4416  154.0954 C   0  0  0  0  0  0  0  0  0  0  0  0
  152.6300  140.9655  158.1690 N   0  0  0  0  0  0  0  0  0  0  0  0
  152.8012  139.5399  158.4148 C   0  0  0  0  0  0  0  0  0  0  0  0
  152.5974  141.7355  159.4003 C   0  0  0  0  0  0  0  0  0  0  0  0
  151.1542  143.2749  159.8430 H   0  0  0  0  0  0  0  0  0  0  0  0
  150.5686  140.8335  158.0492 H   0  0  0  0  0  0  0  0  0  0  0  0
  153.0871  146.1465  158.8150 H   0  0  0  0  0  0  0  0  0  0  0  0
  151.6200  145.6505  159.6576 H   0  0  0  0  0  0  0  0  0  0  0  0
  151.7466  145.4610  157.9003 H   0  0  0  0  0  0  0  0  0  0  0  0
  150.2215  143.1601  157.6626 H   0  0  0  0  0  0  0  0  0  0  0  0
  151.8155  143.3492  156.9378 H   0  0  0  0  0  0  0  0  0  0  0  0
  150.4161  141.2707  155.5528 H   0  0  0  0  0  0  0  0  0  0  0  0
  152.1391  141.3147  155.4731 H   0  0  0  0  0  0  0  0  0  0  0  0
  152.8868  137.9382  155.4700 H   0  0  0  0  0  0  0  0  0  0  0  0
  153.4346  139.5846  155.1825 H   0  0  0  0  0  0  0  0  0  0  0  0
  152.3357  138.8248  154.0388 H   0  0  0  0  0  0  0  0  0  0  0  0
  147.2117  138.9571  156.9849 H   0  0  0  0  0  0  0  0  0  0  0  0
  150.8862  134.3778  154.3502 H   0  0  0  0  0  0  0  0  0  0  0  0
  147.7476  134.1482  156.1545 H   0  0  0  0  0  0  0  0  0  0  0  0
  147.3391  134.6228  154.5263 H   0  0  0  0  0  0  0  0  0  0  0  0
  149.2559  133.1594  153.6932 H   0  0  0  0  0  0  0  0  0  0  0  0
  150.2548  131.4608  155.2040 H   0  0  0  0  0  0  0  0  0  0  0  0
  150.6203  133.0868  155.7435 H   0  0  0  0  0  0  0  0  0  0  0  0
  148.4454  132.5425  156.9597 H   0  0  0  0  0  0  0  0  0  0  0  0
  146.9513  131.8358  155.1218 H   0  0  0  0  0  0  0  0  0  0  0  0
  146.0346  132.8633  153.1847 H   0  0  0  0  0  0  0  0  0  0  0  0
  147.4454  132.4584  152.2005 H   0  0  0  0  0  0  0  0  0  0  0  0
  145.4748  130.4826  153.4192 H   0  0  0  0  0  0  0  0  0  0  0  0
  145.9449  130.6210  151.7181 H   0  0  0  0  0  0  0  0  0  0  0  0
  149.2190  130.3844  153.8537 H   0  0  0  0  0  0  0  0  0  0  0  0
  148.0000  129.8518  154.9990 H   0  0  0  0  0  0  0  0  0  0  0  0
  153.7250  139.3545  158.9636 H   0  0  0  0  0  0  0  0  0  0  0  0
  152.8598  138.9857  157.4782 H   0  0  0  0  0  0  0  0  0  0  0  0
  151.9731  139.1359  158.9986 H   0  0  0  0  0  0  0  0  0  0  0  0
  153.5984  141.8706  159.8114 H   0  0  0  0  0  0  0  0  0  0  0  0
  152.0062  141.2082  160.1513 H   0  0  0  0  0  0  0  0  0  0  0  0
  1  2  1  0  0  0  0
  1 32  1  0  0  0  0
  1 33  1  0  0  0  0
  1 34  1  0  0  0  0
  2  3  1  0  0  0  0
  3 30  1  0  0  0  0
  3 29  1  0  0  0  0
  3  4  1  0  0  0  0
  4  5  1  0  0  0  0
  4 35  1  0  0  0  0
  4 36  1  0  0  0  0
  5 31  1  0  0  0  0
  5  6  1  0  0  0  0
  5 27  1  0  0  0  0
  6  7  1  0  0  0  0
  6 37  1  0  0  0  0
  6 38  1  0  0  0  0
  7  8  1  0  0  0  0
  7  9  1  0  0  0  0
  8 39  1  0  0  0  0
  8 40  1  0  0  0  0
  8 41  1  0  0  0  0
  9 14  1  0  0  0  0
  9 10  2  0  0  0  0
 10 11  1  0  0  0  0
 11 12  2  0  0  0  0
 11 42  1  0  0  0  0
 12 13  1  0  0  0  0
 13 17  1  0  0  0  0
 13 14  2  0  0  0  0
 14 15  1  0  0  0  0
 15 16  2  0  0  0  0
 16 17  1  0  0  0  0
 16 43  1  0  0  0  0
 17 18  1  0  0  0  0
 18 19  1  0  0  0  0
 18 44  1  0  0  0  0
 18 45  1  0  0  0  0
 19 20  1  0  0  0  0
 19 22  1  0  0  0  0
 19 46  1  0  0  0  0
 20 21  1  0  0  0  0
 20 47  1  0  0  0  0
 20 48  1  0  0  0  0
 21 49  1  0  0  0  0
 22 26  1  0  0  0  0
 22 23  1  0  0  0  0
 22 50  1  0  0  0  0
 23 24  1  0  0  0  0
 23 51  1  0  0  0  0
 23 52  1  0  0  0  0
 24 25  1  0  0  0  0
 24 53  1  0  0  0  0
 24 54  1  0  0  0  0
 25 26  1  0  0  0  0
 26 55  1  0  0  0  0
 26 56  1  0  0  0  0
 27 28  1  0  0  0  0
 27 29  1  0  0  0  0
 28 57  1  0  0  0  0
 28 58  1  0  0  0  0
 28 59  1  0  0  0  0
 29 60  1  0  0  0  0
 29 61  1  0  0  0  0
M  END
> <s_m_source_file>
AV-unprocessed.smi

> <i_m_source_file_index>
21

> <i_lp_mmshare_version>
43012

> <i_f3d_flags>
0

> <s_epik_input>
W0NIM11PW0NASF0xW0NIMl1bQ0BIXShOKFtDSDNdKVtDSDJdMSlbQ0gyXU4oW0NIM10pYyhuW2NIXW4yKWMoYzIzKW5bY0hdbjNbQ0gyXVtDQEhdKFtDSDJdW09IXSlbQ0BASF00W0NIMl1bQ0gyXU9bQ0gyXTQ=

> <s_epik_cmdline>
J2VwaWtfcHl0aG9uJywgJy1waCcsICc3LjAnLCAnLXRuJywgJzgnLCAnLW1hJywgJzIwMCcsICctbWV0YWxfYmluZGluZycsICctaW1hZScsICc8aW5maWxlLm1hZT4nLCAnLW9tYWUnLCAnPG91dGZpbGUubWFlPic=

> <r_lp_tautomer_probability>
1

> <r_epik_Ionization_Penalty>
2.17574

> <r_epik_Ionization_Penalty_Charging>
0

> <r_epik_Ionization_Penalty_Neutral>
2.17574

> <r_epik_State_Penalty>
2.31336

> <r_epik_Charging_Adjusted_Penalty>
2.31336

> <i_epik_Tot_Q>
0

> <i_epik_Tot_abs_Q>
0

> <r_epik_Metal_State_Penalty>
2.31025

> <b_epik_Metal_Only>
0

> <s_lp_Force_Field>
OPLS_2005

> <r_lp_Energy>
71.9314

> <b_lp_Chiralities_Consistent>
1

> <s_lp_Variant>
AV-unprocessed.smi:21-45

> <Gold.Version>
5.8.1

> <Gold.Id.Protein>
6NUR|6NUR_protein|mol2

> <Gold.PLP.Fitness>
44.4195

> <Gold.PLP.PLP>
-42.4316

> <Gold.PLP.part.hbond>
-1.0000

> <Gold.PLP.part.metal>
0.0000

> <Gold.PLP.part.buried>
-6.6570

> <Gold.PLP.part.nonpolar>
-37.2580

> <Gold.PLP.part.repulsive>
1.3815

> <Gold.PLP.ligand.clash>
0.0000

> <Gold.PLP.ligand.torsion>
0.6207

> <Gold.PLP.Chemscore.Hbond>
0.8500

> <Gold.PLP.Chemscore.CHOScore>
0.0000

> <Gold.PLP.Chemscore.Metal>
0.0000

> <Gold.Chemscore.Hbonds>
donor molecule, donor type, donor heavy atom, donor atom, acceptor molecule, acceptor atom, score
      P1  H 10752 10764       L1    15  0.85

> <Gold.PLP.Chemscore.Internal.Correction>
0.6793

> <Gold.Rescore>
     Score         DG    S(hbond)    S(metal)    S(lipo)     H(rot)  DE(clash)    DE(int)     intcor
      9.90     -13.26       0.86        0.00     107.60       3.00       0.06       3.31       ----

> <Gold.Chemscore.Fitness>
9.8984

> <Gold.Chemscore.DG>
-13.2641

> <Gold.Chemscore.ZeroCoef>
-5.4800

> <Gold.Chemscore.Hbond>
0.8632

> <Gold.Chemscore.Metal>
0.0000

> <Gold.Chemscore.Lipo>
107.5993

> <Gold.Chemscore.Internal_Hbond>
0.0000

> <Gold.Chemscore.DEClash>
0.0557

> <Gold.Chemscore.DEInternal>
3.3100

> <Gold.Chemscore.Rot>
3.0031

> <Gold.Chemscore.Internal.Correction>
   9.000000E+99

> <Gold.Chemscore.Hbonds>
donor molecule, donor type, donor heavy atom, donor atom, acceptor molecule, acceptor atom, score
      P1  H 10752 10764       L1    15  0.14

> <Gold.Chemscore.Hbond.Weighted>
-2.8829

> <Gold.Chemscore.Metal.Weighted>
-0.0000

> <Gold.Chemscore.Lipo.Weighted>
-12.5891

> <Gold.Chemscore.Internal_Hbond.Weighted>
0.0000

> <Gold.Chemscore.DEClash.Weighted>
0.0557

> <Gold.Chemscore.DEInternal.Weighted>
3.3100

> <Gold.Chemscore.Rot.Weighted>
7.6880

> <Gold.Chemscore.Internal.Correction.Weighted>
   9.000000E+99

> <Gold.Protein.RotatedTorsions>
[ 6907 6896 6895 6894 ] final -103.03 input  -60.11 | X-H torsion
[ 7974 7965 7964 7962 ] final -144.85 input  175.53 | X-H torsion
[ 8008 7997 7996 7995 ] final  -65.15 input   59.86 | X-H torsion
[ 10167 10162 10161 10158 ] final -103.08 input  -65.29 | X-H torsion
[ 10718 10713 10712 10709 ] final -148.76 input   66.30 | X-H torsion
[ 10763 10752 10751 10750 ] final  -61.70 input  -60.55 | X-H torsion
[ 11005 11000 10999 10996 ] final -172.28 input  -57.11 | X-H torsion

> <Gold.Protein.ActiveResidues>
 VAL166  LYS551  ARG553  GLY616  TRP617  ASP618  TYR619  PRO620  LYS621  CYS622 
 ASP623  PHE694  ASN695  SER759  ASP760  ASP761  ALA762  ILE779  LEU786  VAL792 
 PHE793  MET794  SER795  GLU796  ALA797  LYS798  CYS799  TRP800  GLU811  SER814 

> <Gold.Protein.RotatedAtoms>
  150.7222  134.0491  159.3791 H   0  0  0  0  0  0  0  0  0  0  0  0  # atno 6907 bound_to 6896
  151.8467  135.0569  160.0463 H   0  0  0  0  0  0  0  0  0  0  0  0  # atno 6908 bound_to 6896
  152.2821  133.5444  159.5541 H   0  0  0  0  0  0  0  0  0  0  0  0  # atno 6909 bound_to 6896
  144.8268  140.5658  143.5541 H   0  0  0  0  0  0  0  0  0  0  0  0  # atno 7974 bound_to 7965
  154.4654  140.0939  156.7006 H   0  0  0  0  0  0  0  0  0  0  0  0  # atno 8008 bound_to 7997
  155.4873  140.3469  155.4331 H   0  0  0  0  0  0  0  0  0  0  0  0  # atno 8009 bound_to 7997
  156.0946  140.1406  156.9536 H   0  0  0  0  0  0  0  0  0  0  0  0  # atno 8010 bound_to 7997
  140.2239  143.3656  152.0946 H   0  0  0  0  0  0  0  0  0  0  0  0  # atno 10167 bound_to 10162
  156.4245  130.8045  151.2269 H   0  0  0  0  0  0  0  0  0  0  0  0  # atno 10718 bound_to 10713
  154.2887  135.6258  153.5376 H   0  0  0  0  0  0  0  0  0  0  0  0  # atno 10763 bound_to 10752
  152.9855  135.5650  154.5414 H   0  0  0  0  0  0  0  0  0  0  0  0  # atno 10764 bound_to 10752
  154.5020  135.2872  155.1388 H   0  0  0  0  0  0  0  0  0  0  0  0  # atno 10765 bound_to 10752
  140.4988  134.5914  157.4980 H   0  0  0  0  0  0  0  0  0  0  0  0  # atno 11005 bound_to 11000
  145.4982  139.1485  143.3672 LP  0  0  0  0  0  0  0  0  0  0  0  0  # atno 17320 bound_to 7965
  146.2573  140.5122  142.8868 LP  0  0  0  0  0  0  0  0  0  0  0  0  # atno 17321 bound_to 7965
  139.5134  144.6932  151.5702 LP  0  0  0  0  0  0  0  0  0  0  0  0  # atno 17342 bound_to 10162
  140.6235  143.9213  150.6545 LP  0  0  0  0  0  0  0  0  0  0  0  0  # atno 17343 bound_to 10162
  157.7508  131.0218  150.3764 LP  0  0  0  0  0  0  0  0  0  0  0  0  # atno 17370 bound_to 10713
  156.4088  130.3930  149.6906 LP  0  0  0  0  0  0  0  0  0  0  0  0  # atno 17371 bound_to 10713
  139.9726  134.7268  156.0012 LP  0  0  0  0  0  0  0  0  0  0  0  0  # atno 17394 bound_to 11000
  141.1446  133.6558  156.3830 LP  0  0  0  0  0  0  0  0  0  0  0  0  # atno 17395 bound_to 11000

$$$$
