AV-unprocessed.smi:34|AV-procd|sdf|226|dock4
  -GOLD-   2262015553D 1   1.00000     0.00000
 Structure written by MMmdl.
 55 59  0  0  0  0  0  0  0  0  1 V2000
  153.6711  140.5113  158.0645 O   0  0  0  0  0  0  0  0  0  0  0  0
  152.7771  141.3219  157.8197 C   0  0  0  0  0  0  0  0  0  0  0  0
  151.8936  141.1766  156.6763 N   0  0  0  0  0  0  0  0  0  0  0  0
  151.9272  140.2329  155.7063 C   0  0  0  0  0  0  0  0  0  0  0  0
  152.2801  140.5161  154.4253 N   0  0  0  0  0  0  0  0  0  0  0  0
  152.2965  139.5490  153.5046 C   0  0  0  0  0  0  0  0  0  0  0  0
  152.0069  138.2552  153.6522 N   0  0  0  0  0  0  0  0  0  0  0  0
  151.6608  137.9548  154.9386 C   0  0  0  0  0  0  0  0  0  0  0  0
  151.5909  138.8880  156.0113 C   0  0  0  0  0  0  0  0  0  0  0  0
  151.1808  138.2440  157.1699 N   0  0  0  0  0  0  0  0  0  0  0  0
  151.0145  137.0039  156.7986 C   0  0  0  0  0  0  0  0  0  0  0  0
  151.3182  136.7276  155.4813 N   0  0  0  0  0  0  0  0  0  0  0  0
  151.2011  135.4035  154.7713 C   0  0  1  0  0  0  0  0  0  0  0  0
  152.1093  134.5063  155.3315 O   0  0  0  0  0  0  0  0  0  0  0  0
  151.4757  133.8349  156.4098 C   0  0  2  0  0  0  0  0  0  0  0  0
  152.2841  132.6062  156.8502 C   0  0  0  0  0  0  0  0  0  0  0  0
  153.0097  132.0897  155.7425 O   0  0  0  0  0  0  0  0  0  0  0  0
  154.2682  132.5083  155.4834 C   0  0  0  0  0  0  0  0  0  0  0  0
  154.9246  133.2183  156.2478 O   0  0  0  0  0  0  0  0  0  0  0  0
  154.7894  132.0059  154.1802 C   0  0  0  0  0  0  0  0  0  0  0  0
  154.1041  130.9616  153.5168 C   0  0  0  0  0  0  0  0  0  0  0  0
  154.5618  130.4779  152.2760 C   0  0  0  0  0  0  0  0  0  0  0  0
  155.7105  131.0332  151.6833 C   0  0  0  0  0  0  0  0  0  0  0  0
  156.4007  132.0733  152.3327 C   0  0  0  0  0  0  0  0  0  0  0  0
  155.9446  132.5580  153.5738 C   0  0  0  0  0  0  0  0  0  0  0  0
  150.1283  133.5090  155.7762 C   0  0  1  0  0  0  0  0  0  0  0  0
  149.1983  133.2405  156.6932 F   0  0  0  0  0  0  0  0  0  0  0  0
  149.8049  134.7812  155.0005 C   0  0  2  0  0  0  0  0  0  0  0  0
  149.1435  134.4757  153.7904 O   0  0  0  0  0  0  0  0  0  0  0  0
  152.4880  142.4781  158.7330 C   0  0  0  0  0  0  0  0  0  0  0  0
  151.4530  143.3869  158.4167 C   0  0  0  0  0  0  0  0  0  0  0  0
  151.1648  144.4667  159.2739 C   0  0  0  0  0  0  0  0  0  0  0  0
  151.9036  144.6429  160.4587 C   0  0  0  0  0  0  0  0  0  0  0  0
  152.9280  143.7358  160.7882 C   0  0  0  0  0  0  0  0  0  0  0  0
  153.2174  142.6556  159.9317 C   0  0  0  0  0  0  0  0  0  0  0  0
  151.1770  141.8813  156.5807 H   0  0  0  0  0  0  0  0  0  0  0  0
  152.5843  139.8551  152.5095 H   0  0  0  0  0  0  0  0  0  0  0  0
  150.6672  136.2480  157.4881 H   0  0  0  0  0  0  0  0  0  0  0  0
  151.4412  135.6303  153.7320 H   0  0  0  0  0  0  0  0  0  0  0  0
  151.3380  134.5208  157.2485 H   0  0  0  0  0  0  0  0  0  0  0  0
  153.0135  132.9069  157.6022 H   0  0  0  0  0  0  0  0  0  0  0  0
  151.6470  131.8533  157.3166 H   0  0  0  0  0  0  0  0  0  0  0  0
  153.2180  130.5218  153.9516 H   0  0  0  0  0  0  0  0  0  0  0  0
  154.0300  129.6802  151.7787 H   0  0  0  0  0  0  0  0  0  0  0  0
  156.0610  130.6631  150.7311 H   0  0  0  0  0  0  0  0  0  0  0  0
  157.2814  132.5021  151.8775 H   0  0  0  0  0  0  0  0  0  0  0  0
  156.4942  133.3612  154.0425 H   0  0  0  0  0  0  0  0  0  0  0  0
  150.2171  132.6461  155.1137 H   0  0  0  0  0  0  0  0  0  0  0  0
  149.1803  135.4399  155.6042 H   0  0  0  0  0  0  0  0  0  0  0  0
  149.1098  135.2586  153.2617 H   0  0  0  0  0  0  0  0  0  0  0  0
  150.8754  143.2652  157.5116 H   0  0  0  0  0  0  0  0  0  0  0  0
  150.3756  145.1599  159.0222 H   0  0  0  0  0  0  0  0  0  0  0  0
  151.6824  145.4709  161.1160 H   0  0  0  0  0  0  0  0  0  0  0  0
  153.4915  143.8671  161.7002 H   0  0  0  0  0  0  0  0  0  0  0  0
  154.0019  141.9668  160.2094 H   0  0  0  0  0  0  0  0  0  0  0  0
  1  2  2  0  0  0  0
  2  3  1  0  0  0  0
  2 30  1  0  0  0  0
  3  4  1  0  0  0  0
  3 36  1  0  0  0  0
  4  9  1  0  0  0  0
  4  5  2  0  0  0  0
  5  6  1  0  0  0  0
  6  7  2  0  0  0  0
  6 37  1  0  0  0  0
  7  8  1  0  0  0  0
  8 12  1  0  0  0  0
  8  9  2  0  0  0  0
  9 10  1  0  0  0  0
 10 11  2  0  0  0  0
 11 12  1  0  0  0  0
 11 38  1  0  0  0  0
 12 13  1  0  0  0  0
 13 28  1  0  0  0  0
 13 14  1  0  0  0  0
 13 39  1  0  0  0  0
 14 15  1  0  0  0  0
 15 16  1  0  0  0  0
 15 26  1  0  0  0  0
 15 40  1  0  0  0  0
 16 17  1  0  0  0  0
 16 41  1  0  0  0  0
 16 42  1  0  0  0  0
 17 18  1  0  0  0  0
 18 19  2  0  0  0  0
 18 20  1  0  0  0  0
 20 25  1  0  0  0  0
 20 21  2  0  0  0  0
 21 22  1  0  0  0  0
 21 43  1  0  0  0  0
 22 23  2  0  0  0  0
 22 44  1  0  0  0  0
 23 24  1  0  0  0  0
 23 45  1  0  0  0  0
 24 25  2  0  0  0  0
 24 46  1  0  0  0  0
 25 47  1  0  0  0  0
 26 27  1  0  0  0  0
 26 28  1  0  0  0  0
 26 48  1  0  0  0  0
 28 29  1  0  0  0  0
 28 49  1  0  0  0  0
 29 50  1  0  0  0  0
 30 35  1  0  0  0  0
 30 31  2  0  0  0  0
 31 32  1  0  0  0  0
 31 51  1  0  0  0  0
 32 33  2  0  0  0  0
 32 52  1  0  0  0  0
 33 34  1  0  0  0  0
 33 53  1  0  0  0  0
 34 35  2  0  0  0  0
 34 54  1  0  0  0  0
 35 55  1  0  0  0  0
M  END
> <s_m_source_file>
AV-unprocessed.smi

> <i_m_source_file_index>
34

> <i_lp_mmshare_version>
43012

> <i_f3d_flags>
0

> <s_epik_input>
W2NIXTFbY0hdW2NIXVtjSF1bY0hdYzFDKD1PKVtOSF1jKG5bY0hdbjIpYyhjMjMpbltjSF1uM1tDQEBIXTRPW0NASF0oW0NAQEhdKEYpW0NASF00W09IXSlbQ0gyXU9DKD1PKWM1W2NIXVtjSF1bY0hdW2NIXVtjSF01

> <s_epik_cmdline>
J2VwaWtfcHl0aG9uJywgJy1waCcsICc3LjAnLCAnLXRuJywgJzgnLCAnLW1hJywgJzIwMCcsICctbWV0YWxfYmluZGluZycsICctaW1hZScsICc8aW5maWxlLm1hZT4nLCAnLW9tYWUnLCAnPG91dGZpbGUubWFlPic=

> <r_lp_tautomer_probability>
1

> <r_epik_Ionization_Penalty>
0.00257489

> <r_epik_Ionization_Penalty_Charging>
0

> <r_epik_Ionization_Penalty_Neutral>
0.00257489

> <r_epik_State_Penalty>
0.00519398

> <r_epik_Charging_Adjusted_Penalty>
0.00519398

> <i_epik_Tot_Q>
0

> <i_epik_Tot_abs_Q>
0

> <r_epik_Metal_State_Penalty>
0.335891

> <b_epik_Metal_Only>
0

> <s_epik_Chemistry_Notes>
This compound has an ester and may undergo hydrolysis at high or low pH. This compound contains an acetal/aminal-like group ( X-CH(R)-Y where X, Y are N, S, or O) that may be acid/base labile, releasing an aldehyde.

> <s_lp_Force_Field>
OPLS_2005

> <r_lp_Energy>
40.9193

> <b_lp_Chiralities_Consistent>
1

> <s_lp_Variant>
AV-unprocessed.smi:34-12

> <Gold.Version>
5.8.1

> <Gold.Id.Protein>
6NUR|6NUR_protein|mol2

> <Gold.PLP.Fitness>
62.5352

> <Gold.PLP.PLP>
-53.5637

> <Gold.PLP.part.hbond>
-4.8045

> <Gold.PLP.part.metal>
0.0000

> <Gold.PLP.part.buried>
-6.3141

> <Gold.PLP.part.nonpolar>
-43.9481

> <Gold.PLP.part.repulsive>
0.2538

> <Gold.PLP.ligand.clash>
0.0000

> <Gold.PLP.ligand.torsion>
1.4258

> <Gold.PLP.Chemscore.Hbond>
3.8762

> <Gold.PLP.Chemscore.CHOScore>
0.0000

> <Gold.PLP.Chemscore.Metal>
0.0000

> <Gold.Chemscore.Hbonds>
donor molecule, donor type, donor heavy atom, donor atom, acceptor molecule, acceptor atom, score
      L1  H    29    50       P1  7948  1.00
      P1  H  7997  8008       L1     1  0.10
      P1  H 10752 10764       L1    19  0.07

> <Gold.PLP.Chemscore.Internal.Correction>
0.1945

> <Gold.Rescore>
     Score         DG    S(hbond)    S(metal)    S(lipo)     H(rot)  DE(clash)    DE(int)     intcor
     22.26     -24.47       3.79        0.00     113.77       2.72       0.61       1.60       ----

> <Gold.Chemscore.Fitness>
22.2596

> <Gold.Chemscore.DG>
-24.4714

> <Gold.Chemscore.ZeroCoef>
-5.4800

> <Gold.Chemscore.Hbond>
3.7866

> <Gold.Chemscore.Metal>
0.0000

> <Gold.Chemscore.Lipo>
113.7724

> <Gold.Chemscore.Internal_Hbond>
0.0000

> <Gold.Chemscore.DEClash>
0.6146

> <Gold.Chemscore.DEInternal>
1.5973

> <Gold.Chemscore.Rot>
2.7215

> <Gold.Chemscore.Internal.Correction>
   9.000000E+99

> <Gold.Chemscore.Hbonds>
donor molecule, donor type, donor heavy atom, donor atom, acceptor molecule, acceptor atom, score
      L1  H    29    50       P1  7948  0.25
      P1  H  7997  8008       L1     1  0.12
      P1  H 10752 10764       L1    19  0.01

> <Gold.Chemscore.Hbond.Weighted>
-12.6471

> <Gold.Chemscore.Metal.Weighted>
-0.0000

> <Gold.Chemscore.Lipo.Weighted>
-13.3114

> <Gold.Chemscore.Internal_Hbond.Weighted>
0.0000

> <Gold.Chemscore.DEClash.Weighted>
0.6146

> <Gold.Chemscore.DEInternal.Weighted>
1.5973

> <Gold.Chemscore.Rot.Weighted>
6.9670

> <Gold.Chemscore.Internal.Correction.Weighted>
   9.000000E+99

> <Gold.Protein.RotatedTorsions>
[ 6907 6896 6895 6894 ] final  -85.89 input  -60.11 | X-H torsion
[ 7974 7965 7964 7962 ] final  -77.69 input  175.53 | X-H torsion
[ 8008 7997 7996 7995 ] final -131.22 input   59.86 | X-H torsion
[ 10167 10162 10161 10158 ] final   37.52 input  -65.29 | X-H torsion
[ 10718 10713 10712 10709 ] final  117.03 input   66.30 | X-H torsion
[ 10763 10752 10751 10750 ] final   48.78 input  -60.55 | X-H torsion
[ 11005 11000 10999 10996 ] final   65.26 input  -57.11 | X-H torsion

> <Gold.Protein.ActiveResidues>
 VAL166  LYS551  ARG553  GLY616  TRP617  ASP618  TYR619  PRO620  LYS621  CYS622 
 ASP623  PHE694  ASN695  SER759  ASP760  ASP761  ALA762  ILE779  LEU786  VAL792 
 PHE793  MET794  SER795  GLU796  ALA797  LYS798  CYS799  TRP800  GLU811  SER814 

> <Gold.Protein.RotatedAtoms>
  150.6868  134.3135  159.4756 H   0  0  0  0  0  0  0  0  0  0  0  0  # atno 6907 bound_to 6896
  152.1019  134.9333  160.0578 H   0  0  0  0  0  0  0  0  0  0  0  0  # atno 6908 bound_to 6896
  152.0609  133.4027  159.4454 H   0  0  0  0  0  0  0  0  0  0  0  0  # atno 6909 bound_to 6896
  145.5963  140.9418  143.1265 H   0  0  0  0  0  0  0  0  0  0  0  0  # atno 7974 bound_to 7965
  155.3087  140.0456  157.3033 H   0  0  0  0  0  0  0  0  0  0  0  0  # atno 8008 bound_to 7997
  154.5445  140.2298  155.8553 H   0  0  0  0  0  0  0  0  0  0  0  0  # atno 8009 bound_to 7997
  156.1911  140.3050  155.9341 H   0  0  0  0  0  0  0  0  0  0  0  0  # atno 8010 bound_to 7997
  140.4024  144.1705  150.6134 H   0  0  0  0  0  0  0  0  0  0  0  0  # atno 10167 bound_to 10162
  157.6122  131.1032  150.7557 H   0  0  0  0  0  0  0  0  0  0  0  0  # atno 10718 bound_to 10713
  152.9790  135.5933  154.3982 H   0  0  0  0  0  0  0  0  0  0  0  0  # atno 10763 bound_to 10752
  154.3630  135.2767  155.2311 H   0  0  0  0  0  0  0  0  0  0  0  0  # atno 10764 bound_to 10752
  154.4300  135.6038  153.6117 H   0  0  0  0  0  0  0  0  0  0  0  0  # atno 10765 bound_to 10752
  139.9906  134.6598  156.0098 H   0  0  0  0  0  0  0  0  0  0  0  0  # atno 11005 bound_to 11000
  144.7329  139.7671  143.7340 LP  0  0  0  0  0  0  0  0  0  0  0  0  # atno 17320 bound_to 7965
  146.1609  139.4723  142.9989 LP  0  0  0  0  0  0  0  0  0  0  0  0  # atno 17321 bound_to 7965
  140.4725  143.2408  151.9069 LP  0  0  0  0  0  0  0  0  0  0  0  0  # atno 17342 bound_to 10162
  139.4784  144.5354  151.8605 LP  0  0  0  0  0  0  0  0  0  0  0  0  # atno 17343 bound_to 10162
  156.7932  130.4897  149.5381 LP  0  0  0  0  0  0  0  0  0  0  0  0  # atno 17370 bound_to 10713
  156.1230  130.6123  151.0222 LP  0  0  0  0  0  0  0  0  0  0  0  0  # atno 17371 bound_to 10713
  141.1562  133.6542  156.4170 LP  0  0  0  0  0  0  0  0  0  0  0  0  # atno 17394 bound_to 11000
  140.4916  134.6570  157.5213 LP  0  0  0  0  0  0  0  0  0  0  0  0  # atno 17395 bound_to 11000

$$$$
