AV-unprocessed.smi:2784|AV-procd|sdf|10733|dock6
  -GOLD-   2272015173D 1   1.00000     0.00000
 Structure written by MMmdl.
 32 33  0  0  0  0  0  0  0  0  2 V2000
  153.5764  141.9953  160.0385 C   0  0  0  0  0  0  0  0  0  0  0  0
  152.1662  141.8809  159.9330 O   0  0  0  0  0  0  0  0  0  0  0  0
  151.5248  143.0711  159.4948 C   0  0  1  0  0  0  0  0  0  0  0  0
  151.7984  144.2584  160.4273 C   0  0  0  0  0  0  0  0  0  0  0  0
  151.7349  145.4776  159.5146 C   0  0  0  0  0  0  0  0  0  0  0  0
  152.3871  144.9996  158.2182 C   0  0  0  0  0  0  0  0  0  0  0  0
  152.0733  143.4931  158.1147 C   0  0  2  0  0  0  0  0  0  0  0  0
  151.0912  143.2271  157.0659 N   0  0  0  0  0  0  0  0  0  0  0  0
  150.8635  142.0266  156.5135 C   0  0  0  0  0  0  0  0  0  0  0  0
  151.4743  141.0040  156.8257 O   0  0  0  0  0  0  0  0  0  0  0  0
  149.8966  142.0843  155.5853 N   0  0  0  0  0  0  0  0  0  0  0  0
  149.4234  140.9946  154.8186 C   0  0  0  0  0  0  0  0  0  0  0  0
  148.1736  140.8852  154.3713 N   0  3  0  0  0  0  0  0  0  0  0  0
  148.0588  139.7124  153.6669 C   0  0  0  0  0  0  0  0  0  0  0  0
  149.3002  139.1248  153.7147 C   0  0  0  0  0  0  0  0  0  0  0  0
  150.1693  139.9195  154.4354 O   0  0  0  0  0  0  0  0  0  0  0  0
  153.9899  141.0587  160.4123 H   0  0  0  0  0  0  0  0  0  0  0  0
  153.8579  142.7863  160.7346 H   0  0  0  0  0  0  0  0  0  0  0  0
  154.0371  142.1991  159.0715 H   0  0  0  0  0  0  0  0  0  0  0  0
  150.4460  142.9131  159.4290 H   0  0  0  0  0  0  0  0  0  0  0  0
  151.0912  144.3165  161.2553 H   0  0  0  0  0  0  0  0  0  0  0  0
  152.8008  144.1770  160.8500 H   0  0  0  0  0  0  0  0  0  0  0  0
  150.6941  145.7455  159.3283 H   0  0  0  0  0  0  0  0  0  0  0  0
  152.2346  146.3484  159.9403 H   0  0  0  0  0  0  0  0  0  0  0  0
  152.0524  145.5777  157.3558 H   0  0  0  0  0  0  0  0  0  0  0  0
  153.4673  145.1346  158.2905 H   0  0  0  0  0  0  0  0  0  0  0  0
  152.9957  142.9494  157.8995 H   0  0  0  0  0  0  0  0  0  0  0  0
  150.5439  144.0147  156.7506 H   0  0  0  0  0  0  0  0  0  0  0  0
  147.4080  141.5340  154.5052 H   0  0  0  0  0  0  0  0  0  0  0  0
  147.1240  139.4177  153.2114 H   0  0  0  0  0  0  0  0  0  0  0  0
  149.7073  138.2065  153.3167 H   0  0  0  0  0  0  0  0  0  0  0  0
  149.4648  142.9799  155.4126 H   0  0  0  0  0  0  0  0  0  0  0  0
  1  2  1  0  0  0  0
  1 17  1  0  0  0  0
  1 18  1  0  0  0  0
  1 19  1  0  0  0  0
  2  3  1  0  0  0  0
  3  7  1  0  0  0  0
  3  4  1  0  0  0  0
  3 20  1  0  0  0  0
  4  5  1  0  0  0  0
  4 21  1  0  0  0  0
  4 22  1  0  0  0  0
  5  6  1  0  0  0  0
  5 23  1  0  0  0  0
  5 24  1  0  0  0  0
  6  7  1  0  0  0  0
  6 25  1  0  0  0  0
  6 26  1  0  0  0  0
  7  8  1  0  0  0  0
  7 27  1  0  0  0  0
  8 28  1  0  0  0  0
  8  9  1  0  0  0  0
  9 11  1  0  0  0  0
  9 10  2  0  0  0  0
 11 12  1  0  0  0  0
 11 32  1  0  0  0  0
 12 16  1  0  0  0  0
 12 13  2  0  0  0  0
 13 29  1  0  0  0  0
 13 14  1  0  0  0  0
 14 30  1  0  0  0  0
 14 15  2  0  0  0  0
 15 31  1  0  0  0  0
 15 16  1  0  0  0  0
M  CHG  1  13   1
M  END
> <s_m_source_file>
AV-unprocessed.smi

> <i_m_source_file_index>
2784

> <i_lp_mmshare_version>
43012

> <i_f3d_flags>
0

> <s_epik_input>
W0NIM11PW0NAQEhdMVtDSDJdW0NIMl1bQ0gyXVtDQEhdMVtOSF1DKD1PKVtOSF1jMm5bY0hdW2NIXW8y

> <s_epik_cmdline>
J2VwaWtfcHl0aG9uJywgJy1waCcsICc3LjAnLCAnLXRuJywgJzgnLCAnLW1hJywgJzIwMCcsICctbWV0YWxfYmluZGluZycsICctaW1hZScsICc8aW5maWxlLm1hZT4nLCAnLW9tYWUnLCAnPG91dGZpbGUubWFlPic=

> <r_epik_Ionization_Penalty>
6.73843

> <r_epik_Ionization_Penalty_Charging>
6.66704

> <r_epik_Ionization_Penalty_Neutral>
0.0713889

> <r_epik_State_Penalty>
1.94951

> <r_epik_Charging_Adjusted_Penalty>
8.61656

> <i_epik_Tot_Q>
1

> <i_epik_Tot_abs_Q>
1

> <r_epik_Metal_State_Penalty>
1.97013

> <b_epik_Metal_Only>
0

> <s_lp_Force_Field>
OPLS_2005

> <r_lp_Energy>
26.913

> <b_lp_Chiralities_Consistent>
1

> <s_lp_Variant>
AV-unprocessed.smi:2784-8

> <Gold.Version>
5.8.1

> <Gold.Id.Protein>
6NUR|6NUR_protein|mol2

> <Gold.PLP.Fitness>
45.2512

> <Gold.PLP.PLP>
-34.5189

> <Gold.PLP.part.hbond>
-3.0000

> <Gold.PLP.part.metal>
0.0000

> <Gold.PLP.part.buried>
-2.4949

> <Gold.PLP.part.nonpolar>
-29.8114

> <Gold.PLP.part.repulsive>
0.3867

> <Gold.PLP.ligand.clash>
0.0000

> <Gold.PLP.ligand.torsion>
0.4527

> <Gold.PLP.Chemscore.Hbond>
2.8775

> <Gold.PLP.Chemscore.CHOScore>
1.0000

> <Gold.PLP.Chemscore.Metal>
0.0000

> <Gold.Chemscore.Hbonds>
donor molecule, donor type, donor heavy atom, donor atom, acceptor molecule, acceptor atom, score
      L1  H     8    28       P1  8028  0.85
      L1  H    11    32       P1  8028  1.00
      P1  H  7989  7998       L1    16  0.95
      L1  C    15    31       P1  7948  1.00

> <Gold.PLP.Chemscore.Internal.Correction>
0.0052

> <Gold.Rescore>
     Score         DG    S(hbond)    S(metal)    S(lipo)     H(rot)  DE(clash)    DE(int)     intcor
     17.41     -19.74       2.30        0.00      85.33       1.34       0.61       1.72       ----

> <Gold.Chemscore.Fitness>
17.4084

> <Gold.Chemscore.DG>
-19.7423

> <Gold.Chemscore.ZeroCoef>
-5.4800

> <Gold.Chemscore.Hbond>
2.3043

> <Gold.Chemscore.Metal>
0.0000

> <Gold.Chemscore.Lipo>
85.3305

> <Gold.Chemscore.Internal_Hbond>
0.0000

> <Gold.Chemscore.DEClash>
0.6102

> <Gold.Chemscore.DEInternal>
1.7236

> <Gold.Chemscore.Rot>
1.3351

> <Gold.Chemscore.Internal.Correction>
   9.000000E+99

> <Gold.Chemscore.Hbonds>
donor molecule, donor type, donor heavy atom, donor atom, acceptor molecule, acceptor atom, score
      L1  H     8    28       P1  8028  0.79
      L1  H    11    32       P1  8028  1.00
      P1  H  7989  7998       L1    16  0.20

> <Gold.Chemscore.Hbond.Weighted>
-7.6963

> <Gold.Chemscore.Metal.Weighted>
-0.0000

> <Gold.Chemscore.Lipo.Weighted>
-9.9837

> <Gold.Chemscore.Internal_Hbond.Weighted>
0.0000

> <Gold.Chemscore.DEClash.Weighted>
0.6102

> <Gold.Chemscore.DEInternal.Weighted>
1.7236

> <Gold.Chemscore.Rot.Weighted>
3.4177

> <Gold.Chemscore.Internal.Correction.Weighted>
   9.000000E+99

> <Gold.Protein.RotatedTorsions>
[ 6907 6896 6895 6894 ] final -172.73 input  -60.11 | X-H torsion
[ 7974 7965 7964 7962 ] final  170.91 input  175.53 | X-H torsion
[ 8008 7997 7996 7995 ] final  -49.02 input   59.86 | X-H torsion
[ 10167 10162 10161 10158 ] final  -98.12 input  -65.29 | X-H torsion
[ 10718 10713 10712 10709 ] final  141.93 input   66.30 | X-H torsion
[ 10763 10752 10751 10750 ] final  135.11 input  -60.55 | X-H torsion
[ 11005 11000 10999 10996 ] final  113.06 input  -57.11 | X-H torsion

> <Gold.Protein.ActiveResidues>
 VAL166  LYS551  ARG553  GLY616  TRP617  ASP618  TYR619  PRO620  LYS621  CYS622 
 ASP623  PHE694  ASN695  SER759  ASP760  ASP761  ALA762  ILE779  LEU786  VAL792 
 PHE793  MET794  SER795  GLU796  ALA797  LYS798  CYS799  TRP800  GLU811  SER814 

> <Gold.Protein.RotatedAtoms>
  151.5446  133.3427  159.2941 H   0  0  0  0  0  0  0  0  0  0  0  0  # atno 6907 bound_to 6896
  150.8515  134.7843  159.7023 H   0  0  0  0  0  0  0  0  0  0  0  0  # atno 6908 bound_to 6896
  152.4560  134.5299  159.9859 H   0  0  0  0  0  0  0  0  0  0  0  0  # atno 6909 bound_to 6896
  144.7310  139.9272  143.6423 H   0  0  0  0  0  0  0  0  0  0  0  0  # atno 7974 bound_to 7965
  154.4037  140.1307  156.4434 H   0  0  0  0  0  0  0  0  0  0  0  0  # atno 8008 bound_to 7997
  155.7437  140.3489  155.5096 H   0  0  0  0  0  0  0  0  0  0  0  0  # atno 8009 bound_to 7997
  155.9015  140.1020  157.1337 H   0  0  0  0  0  0  0  0  0  0  0  0  # atno 8010 bound_to 7997
  140.2762  143.3311  152.0486 H   0  0  0  0  0  0  0  0  0  0  0  0  # atno 10167 bound_to 10162
  157.3864  131.0999  151.0689 H   0  0  0  0  0  0  0  0  0  0  0  0  # atno 10718 bound_to 10713
  153.8347  135.3099  155.3421 H   0  0  0  0  0  0  0  0  0  0  0  0  # atno 10763 bound_to 10752
  154.7958  135.4756  154.0161 H   0  0  0  0  0  0  0  0  0  0  0  0  # atno 10764 bound_to 10752
  153.1613  135.6861  153.8830 H   0  0  0  0  0  0  0  0  0  0  0  0  # atno 10765 bound_to 10752
  139.8943  134.9542  156.6680 H   0  0  0  0  0  0  0  0  0  0  0  0  # atno 11005 bound_to 11000
  146.0885  139.3874  143.0420 LP  0  0  0  0  0  0  0  0  0  0  0  0  # atno 17320 bound_to 7965
  145.7744  140.9883  143.1132 LP  0  0  0  0  0  0  0  0  0  0  0  0  # atno 17321 bound_to 7965
  139.4975  144.6622  151.6437 LP  0  0  0  0  0  0  0  0  0  0  0  0  # atno 17342 bound_to 10162
  140.5849  143.9882  150.6289 LP  0  0  0  0  0  0  0  0  0  0  0  0  # atno 17343 bound_to 10162
  157.1739  130.6279  149.5649 LP  0  0  0  0  0  0  0  0  0  0  0  0  # atno 17370 bound_to 10713
  155.9787  130.4776  150.6675 LP  0  0  0  0  0  0  0  0  0  0  0  0  # atno 17371 bound_to 10713
  140.7395  133.8990  155.8268 LP  0  0  0  0  0  0  0  0  0  0  0  0  # atno 17394 bound_to 11000
  141.0089  134.1048  157.4242 LP  0  0  0  0  0  0  0  0  0  0  0  0  # atno 17395 bound_to 11000

$$$$
