AV-unprocessed.smi:2089|AV-procd|sdf|8530|dock3
  -GOLD-   2272011253D 1   1.00000     0.00000
 Structure written by MMmdl.
 40 41  0  0  0  0  0  0  0  0  2 V2000
  151.7648  134.8351  154.3924 C   0  0  0  0  0  0  0  0  0  0  0  0
  151.6899  135.9253  155.8716 S   0  0  0  0  0  0  0  0  0  0  0  0
  150.6613  135.3979  156.7816 O   0  0  0  0  0  0  0  0  0  0  0  0
  153.0545  136.1621  156.3664 O   0  0  0  0  0  0  0  0  0  0  0  0
  151.0968  137.4160  155.2231 N   0  0  0  0  0  0  0  0  0  0  0  0
  149.8331  137.4075  154.4735 C   0  0  0  0  0  0  0  0  0  0  0  0
  149.8911  138.6248  153.5540 C   0  0  0  0  0  0  0  0  0  0  0  0
  151.3795  138.7664  153.2691 C   0  0  0  0  0  0  0  0  0  0  0  0
  152.0538  138.3338  154.5832 C   0  0  1  0  0  0  0  0  0  0  0  0
  152.4414  139.5091  155.4920 C   0  0  0  0  0  0  0  0  0  0  0  0
  153.3226  140.3026  155.1598 O   0  0  0  0  0  0  0  0  0  0  0  0
  151.7568  139.6173  156.6395 N   0  0  0  0  0  0  0  0  0  0  0  0
  151.9528  140.6755  157.6191 C   0  0  0  0  0  0  0  0  0  0  0  0
  151.3491  141.9944  157.1176 C   0  0  0  0  0  0  0  0  0  0  0  0
  151.1079  142.9791  158.2454 C   0  0  0  0  0  0  0  0  0  0  0  0
  151.7122  142.8335  159.5133 C   0  0  0  0  0  0  0  0  0  0  0  0
  151.4506  143.7915  160.5151 C   0  0  0  0  0  0  0  0  0  0  0  0
  150.5931  144.8741  160.2283 C   0  0  0  0  0  0  0  0  0  0  0  0
  150.0174  144.9711  158.9450 C   0  0  0  0  0  0  0  0  0  0  0  0
  150.2917  144.0326  158.0123 N   0  3  0  0  0  0  0  0  0  0  0  0
  152.0922  133.8403  154.6932 H   0  0  0  0  0  0  0  0  0  0  0  0
  152.4716  135.2428  153.6703 H   0  0  0  0  0  0  0  0  0  0  0  0
  150.7768  134.7694  153.9376 H   0  0  0  0  0  0  0  0  0  0  0  0
  149.7686  136.4944  153.8805 H   0  0  0  0  0  0  0  0  0  0  0  0
  148.9790  137.4372  155.1502 H   0  0  0  0  0  0  0  0  0  0  0  0
  149.2957  138.5007  152.6492 H   0  0  0  0  0  0  0  0  0  0  0  0
  149.5254  139.5076  154.0803 H   0  0  0  0  0  0  0  0  0  0  0  0
  151.6680  138.0834  152.4689 H   0  0  0  0  0  0  0  0  0  0  0  0
  151.6454  139.7735  152.9445 H   0  0  0  0  0  0  0  0  0  0  0  0
  152.9647  137.7870  154.3324 H   0  0  0  0  0  0  0  0  0  0  0  0
  151.0404  138.9318  156.8333 H   0  0  0  0  0  0  0  0  0  0  0  0
  151.4889  140.3832  158.5625 H   0  0  0  0  0  0  0  0  0  0  0  0
  153.0205  140.8000  157.8078 H   0  0  0  0  0  0  0  0  0  0  0  0
  152.0119  142.4548  156.3831 H   0  0  0  0  0  0  0  0  0  0  0  0
  150.4063  141.8020  156.6035 H   0  0  0  0  0  0  0  0  0  0  0  0
  152.3696  142.0007  159.7174 H   0  0  0  0  0  0  0  0  0  0  0  0
  151.9034  143.6978  161.4913 H   0  0  0  0  0  0  0  0  0  0  0  0
  150.3806  145.6187  160.9816 H   0  0  0  0  0  0  0  0  0  0  0  0
  149.3518  145.7647  158.6383 H   0  0  0  0  0  0  0  0  0  0  0  0
  149.8647  144.1236  157.0901 H   0  0  0  0  0  0  0  0  0  0  0  0
  1  2  1  0  0  0  0
  1 21  1  0  0  0  0
  1 22  1  0  0  0  0
  1 23  1  0  0  0  0
  2  3  2  0  0  0  0
  2  4  2  0  0  0  0
  2  5  1  0  0  0  0
  5  9  1  0  0  0  0
  5  6  1  0  0  0  0
  6  7  1  0  0  0  0
  6 24  1  0  0  0  0
  6 25  1  0  0  0  0
  7  8  1  0  0  0  0
  7 26  1  0  0  0  0
  7 27  1  0  0  0  0
  8  9  1  0  0  0  0
  8 28  1  0  0  0  0
  8 29  1  0  0  0  0
  9 10  1  0  0  0  0
  9 30  1  0  0  0  0
 10 11  2  0  0  0  0
 10 12  1  0  0  0  0
 12 13  1  0  0  0  0
 12 31  1  0  0  0  0
 13 14  1  0  0  0  0
 13 32  1  0  0  0  0
 13 33  1  0  0  0  0
 14 15  1  0  0  0  0
 14 34  1  0  0  0  0
 14 35  1  0  0  0  0
 15 20  1  0  0  0  0
 15 16  2  0  0  0  0
 16 17  1  0  0  0  0
 16 36  1  0  0  0  0
 17 18  2  0  0  0  0
 17 37  1  0  0  0  0
 18 19  1  0  0  0  0
 18 38  1  0  0  0  0
 19 20  2  0  0  0  0
 19 39  1  0  0  0  0
 20 40  1  0  0  0  0
M  CHG  1  20   1
M  END
> <s_m_source_file>
AV-unprocessed.smi

> <i_m_source_file_index>
2089

> <i_lp_mmshare_version>
43012

> <i_f3d_flags>
0

> <s_epik_input>
W0NIM11TKD1PKSg9TylOMVtDSDJdW0NIMl1bQ0gyXVtDQEhdMUMoPU8pW05IXVtDSDJdW0NIMl1jMltjSF1bY0hdW2NIXVtjSF1uMg==

> <s_epik_cmdline>
J2VwaWtfcHl0aG9uJywgJy1waCcsICc3LjAnLCAnLXRuJywgJzgnLCAnLW1hJywgJzIwMCcsICctbWV0YWxfYmluZGluZycsICctaW1hZScsICc8aW5maWxlLm1hZT4nLCAnLW9tYWUnLCAnPG91dGZpbGUubWFlPic=

> <r_epik_Ionization_Penalty>
1.90116

> <r_epik_Ionization_Penalty_Charging>
1.90116

> <r_epik_Ionization_Penalty_Neutral>
1.4017e-07

> <r_epik_State_Penalty>
2.02245

> <r_epik_Charging_Adjusted_Penalty>
3.9236

> <i_epik_Tot_Q>
1

> <i_epik_Tot_abs_Q>
1

> <r_epik_Metal_State_Penalty>
2.04621

> <b_epik_Metal_Only>
0

> <s_lp_Force_Field>
OPLS_2005

> <r_lp_Energy>
11.7086

> <b_lp_Chiralities_Consistent>
1

> <s_lp_Variant>
AV-unprocessed.smi:2089-3

> <Gold.Version>
5.8.1

> <Gold.Id.Protein>
6NUR|6NUR_protein|mol2

> <Gold.PLP.Fitness>
52.2033

> <Gold.PLP.PLP>
-37.7203

> <Gold.PLP.part.hbond>
-5.0000

> <Gold.PLP.part.metal>
0.0000

> <Gold.PLP.part.buried>
-3.8487

> <Gold.PLP.part.nonpolar>
-28.8695

> <Gold.PLP.part.repulsive>
0.1853

> <Gold.PLP.ligand.clash>
0.0000

> <Gold.PLP.ligand.torsion>
0.9921

> <Gold.PLP.Chemscore.Hbond>
5.3074

> <Gold.PLP.Chemscore.CHOScore>
0.0000

> <Gold.PLP.Chemscore.Metal>
0.0000

> <Gold.Chemscore.Hbonds>
donor molecule, donor type, donor heavy atom, donor atom, acceptor molecule, acceptor atom, score
      L1  H    20    40       P1  8028  2.00
      P1  H  7997  8010       L1    11  0.54

> <Gold.PLP.Chemscore.Internal.Correction>
0.5449

> <Gold.Rescore>
     Score         DG    S(hbond)    S(metal)    S(lipo)     H(rot)  DE(clash)    DE(int)     intcor
     21.83     -24.61       3.92        0.00      95.55       2.00       1.42       1.36       ----

> <Gold.Chemscore.Fitness>
21.8291

> <Gold.Chemscore.DG>
-24.6113

> <Gold.Chemscore.ZeroCoef>
-5.4800

> <Gold.Chemscore.Hbond>
3.9170

> <Gold.Chemscore.Metal>
0.0000

> <Gold.Chemscore.Lipo>
95.5494

> <Gold.Chemscore.Internal_Hbond>
0.0000

> <Gold.Chemscore.DEClash>
1.4208

> <Gold.Chemscore.DEInternal>
1.3614

> <Gold.Chemscore.Rot>
2.0043

> <Gold.Chemscore.Internal.Correction>
   9.000000E+99

> <Gold.Chemscore.Hbonds>
donor molecule, donor type, donor heavy atom, donor atom, acceptor molecule, acceptor atom, score
      L1  H    20    40       P1  8028  0.74
      P1  H  7997  8010       L1    11  0.51

> <Gold.Chemscore.Hbond.Weighted>
-13.0829

> <Gold.Chemscore.Metal.Weighted>
-0.0000

> <Gold.Chemscore.Lipo.Weighted>
-11.1793

> <Gold.Chemscore.Internal_Hbond.Weighted>
0.0000

> <Gold.Chemscore.DEClash.Weighted>
1.4208

> <Gold.Chemscore.DEInternal.Weighted>
1.3614

> <Gold.Chemscore.Rot.Weighted>
5.1309

> <Gold.Chemscore.Internal.Correction.Weighted>
   9.000000E+99

> <Gold.Protein.RotatedTorsions>
[ 6907 6896 6895 6894 ] final  -63.45 input  -60.11 | X-H torsion
[ 7974 7965 7964 7962 ] final  -21.04 input  175.53 | X-H torsion
[ 8008 7997 7996 7995 ] final  111.30 input   59.86 | X-H torsion
[ 10167 10162 10161 10158 ] final  121.36 input  -65.29 | X-H torsion
[ 10718 10713 10712 10709 ] final -127.30 input   66.30 | X-H torsion
[ 10763 10752 10751 10750 ] final -147.07 input  -60.55 | X-H torsion
[ 11005 11000 10999 10996 ] final   10.65 input  -57.11 | X-H torsion

> <Gold.Protein.ActiveResidues>
 VAL166  LYS551  ARG553  GLY616  TRP617  ASP618  TYR619  PRO620  LYS621  CYS622 
 ASP623  PHE694  ASN695  SER759  ASP760  ASP761  ALA762  ILE779  LEU786  VAL792 
 PHE793  MET794  SER795  GLU796  ALA797  LYS798  CYS799  TRP800  GLU811  SER814 

> <Gold.Protein.RotatedAtoms>
  150.7649  134.6434  159.6248 H   0  0  0  0  0  0  0  0  0  0  0  0  # atno 6907 bound_to 6896
  152.3675  134.6780  160.0196 H   0  0  0  0  0  0  0  0  0  0  0  0  # atno 6908 bound_to 6896
  151.7150  133.3277  159.3337 H   0  0  0  0  0  0  0  0  0  0  0  0  # atno 6909 bound_to 6896
  146.1755  140.4286  142.8515 H   0  0  0  0  0  0  0  0  0  0  0  0  # atno 7974 bound_to 7965
  156.2114  140.3022  155.9741 H   0  0  0  0  0  0  0  0  0  0  0  0  # atno 8008 bound_to 7997
  155.2714  140.0434  157.3024 H   0  0  0  0  0  0  0  0  0  0  0  0  # atno 8009 bound_to 7997
  154.5705  140.2347  155.8207 H   0  0  0  0  0  0  0  0  0  0  0  0  # atno 8010 bound_to 7997
  139.5924  144.7030  151.3258 H   0  0  0  0  0  0  0  0  0  0  0  0  # atno 10167 bound_to 10162
  156.1844  130.6754  151.0346 H   0  0  0  0  0  0  0  0  0  0  0  0  # atno 10718 bound_to 10713
  154.8304  135.3370  154.6760 H   0  0  0  0  0  0  0  0  0  0  0  0  # atno 10763 bound_to 10752
  153.7381  135.6947  153.4978 H   0  0  0  0  0  0  0  0  0  0  0  0  # atno 10764 bound_to 10752
  153.2264  135.4431  155.0498 H   0  0  0  0  0  0  0  0  0  0  0  0  # atno 10765 bound_to 10752
  140.5120  134.0642  155.7821 H   0  0  0  0  0  0  0  0  0  0  0  0  # atno 11005 bound_to 11000
  144.8229  140.6581  143.6341 LP  0  0  0  0  0  0  0  0  0  0  0  0  # atno 17320 bound_to 7965
  145.4223  139.1562  143.4067 LP  0  0  0  0  0  0  0  0  0  0  0  0  # atno 17321 bound_to 7965
  140.7184  143.7203  150.7701 LP  0  0  0  0  0  0  0  0  0  0  0  0  # atno 17342 bound_to 10162
  140.0762  143.5013  152.2554 LP  0  0  0  0  0  0  0  0  0  0  0  0  # atno 17343 bound_to 10162
  157.6889  131.0816  150.7163 LP  0  0  0  0  0  0  0  0  0  0  0  0  # atno 17370 bound_to 10713
  156.7220  130.4683  149.5520 LP  0  0  0  0  0  0  0  0  0  0  0  0  # atno 17371 bound_to 10713
  141.1380  133.9188  157.2390 LP  0  0  0  0  0  0  0  0  0  0  0  0  # atno 17394 bound_to 11000
  139.9653  135.0143  156.9371 LP  0  0  0  0  0  0  0  0  0  0  0  0  # atno 17395 bound_to 11000

$$$$
