AV-unprocessed.smi:1047|AV-procd|sdf|4563|dock10
  -GOLD-   22720 3 13D 1   1.00000     0.00000
 Structure written by MMmdl.
 57 59  0  0  0  0  0  0  0  0  3 V2000
  146.9629  128.3290  151.3927 C   0  0  0  0  0  0  0  0  0  0  0  0
  146.1341  129.4880  150.8206 C   0  0  0  0  0  0  0  0  0  0  0  0
  146.7653  130.8107  151.0572 N   0  3  2  0  0  0  0  0  0  0  0  0
  147.3176  130.9346  152.4274 C   0  0  0  0  0  0  0  0  0  0  0  0
  148.0139  132.2939  152.6091 C   0  0  0  0  0  0  0  0  0  0  0  0
  147.0966  133.3450  152.3294 O   0  0  0  0  0  0  0  0  0  0  0  0
  146.6097  133.2931  150.9926 C   0  0  2  0  0  0  0  0  0  0  0  0
  145.7372  134.5323  150.7281 C   0  0  0  0  0  0  0  0  0  0  0  0
  146.2593  135.7408  151.4006 N   0  3  0  0  0  0  0  0  0  0  0  0
  145.8626  135.8563  152.8181 C   0  0  0  0  0  0  0  0  0  0  0  0
  144.3506  136.1193  152.9597 C   0  0  2  0  0  0  0  0  0  0  0  0
  144.1106  137.5035  152.8021 O   0  0  0  0  0  0  0  0  0  0  0  0
  143.7673  135.6961  154.3236 C   0  0  0  0  0  0  0  0  0  0  0  0
  142.3331  135.4771  154.2783 N   0  0  0  0  0  0  0  0  0  0  0  0
  141.6995  134.3214  154.0003 C   0  0  0  0  0  0  0  0  0  0  0  0
  140.3701  134.3359  154.0223 N   0  0  0  0  0  0  0  0  0  0  0  0
  140.1097  135.6563  154.3461 C   0  0  0  0  0  0  0  0  0  0  0  0
  138.8831  136.3304  154.5325 C   0  0  0  0  0  0  0  0  0  0  0  0
  138.8542  137.7016  154.8729 C   0  0  0  0  0  0  0  0  0  0  0  0
  137.5124  138.3858  155.0677 C   0  0  0  0  0  0  0  0  0  0  0  0
  140.0662  138.4210  155.0287 C   0  0  0  0  0  0  0  0  0  0  0  0
  140.0591  139.8946  155.3947 C   0  0  0  0  0  0  0  0  0  0  0  0
  141.3004  137.7638  154.8431 C   0  0  0  0  0  0  0  0  0  0  0  0
  141.3162  136.3981  154.5085 C   0  0  0  0  0  0  0  0  0  0  0  0
  145.8731  131.9579  150.7547 C   0  0  0  0  0  0  0  0  0  0  0  0
  146.4285  127.3852  151.2805 H   0  0  0  0  0  0  0  0  0  0  0  0
  147.1586  128.4713  152.4558 H   0  0  0  0  0  0  0  0  0  0  0  0
  147.9202  128.2187  150.8843 H   0  0  0  0  0  0  0  0  0  0  0  0
  145.9539  129.3426  149.7545 H   0  0  0  0  0  0  0  0  0  0  0  0
  145.1565  129.4687  151.3044 H   0  0  0  0  0  0  0  0  0  0  0  0
  146.5147  130.8244  153.1580 H   0  0  0  0  0  0  0  0  0  0  0  0
  148.0324  130.1319  152.6135 H   0  0  0  0  0  0  0  0  0  0  0  0
  148.3689  132.3993  153.6345 H   0  0  0  0  0  0  0  0  0  0  0  0
  148.8879  132.3743  151.9608 H   0  0  0  0  0  0  0  0  0  0  0  0
  147.4632  133.3449  150.3138 H   0  0  0  0  0  0  0  0  0  0  0  0
  145.6837  134.7204  149.6550 H   0  0  0  0  0  0  0  0  0  0  0  0
  144.7178  134.3439  151.0673 H   0  0  0  0  0  0  0  0  0  0  0  0
  147.2685  135.7299  151.3577 H   0  0  0  0  0  0  0  0  0  0  0  0
  146.1316  134.9227  153.3124 H   0  0  0  0  0  0  0  0  0  0  0  0
  146.4346  136.6507  153.3000 H   0  0  0  0  0  0  0  0  0  0  0  0
  143.8174  135.5915  152.1677 H   0  0  0  0  0  0  0  0  0  0  0  0
  144.1407  137.7139  151.8809 H   0  0  0  0  0  0  0  0  0  0  0  0
  144.2449  134.7812  154.6770 H   0  0  0  0  0  0  0  0  0  0  0  0
  143.9707  136.4608  155.0748 H   0  0  0  0  0  0  0  0  0  0  0  0
  142.2457  133.4172  153.7744 H   0  0  0  0  0  0  0  0  0  0  0  0
  137.9599  135.7823  154.4136 H   0  0  0  0  0  0  0  0  0  0  0  0
  137.3971  139.2086  154.3619 H   0  0  0  0  0  0  0  0  0  0  0  0
  137.4286  138.7823  156.0798 H   0  0  0  0  0  0  0  0  0  0  0  0
  136.6850  137.6930  154.9112 H   0  0  0  0  0  0  0  0  0  0  0  0
  141.0719  140.2868  155.4895 H   0  0  0  0  0  0  0  0  0  0  0  0
  139.5505  140.0501  156.3463 H   0  0  0  0  0  0  0  0  0  0  0  0
  139.5455  140.4754  154.6284 H   0  0  0  0  0  0  0  0  0  0  0  0
  142.2301  138.3009  154.9587 H   0  0  0  0  0  0  0  0  0  0  0  0
  145.5374  131.9122  149.7191 H   0  0  0  0  0  0  0  0  0  0  0  0
  144.9828  131.8942  151.3823 H   0  0  0  0  0  0  0  0  0  0  0  0
  145.9248  136.5563  150.9068 H   0  0  0  0  0  0  0  0  0  0  0  0
  147.5533  130.8698  150.4276 H   0  0  0  0  0  0  0  0  0  0  0  0
  1  2  1  0  0  0  0
  1 26  1  0  0  0  0
  1 27  1  0  0  0  0
  1 28  1  0  0  0  0
  2  3  1  0  0  0  0
  2 29  1  0  0  0  0
  2 30  1  0  0  0  0
  3 25  1  0  0  0  0
  3  4  1  0  0  0  0
  3 57  1  0  0  0  0
  4  5  1  0  0  0  0
  4 31  1  0  0  0  0
  4 32  1  0  0  0  0
  5  6  1  0  0  0  0
  5 33  1  0  0  0  0
  5 34  1  0  0  0  0
  6  7  1  0  0  0  0
  7  8  1  0  0  0  0
  7 25  1  0  0  0  0
  7 35  1  0  0  0  0
  8  9  1  0  0  0  0
  8 36  1  0  0  0  0
  8 37  1  0  0  0  0
  9 10  1  0  0  0  0
  9 38  1  0  0  0  0
  9 56  1  0  0  0  0
 10 11  1  0  0  0  0
 10 39  1  0  0  0  0
 10 40  1  0  0  0  0
 11 12  1  0  0  0  0
 11 13  1  0  0  0  0
 11 41  1  0  0  0  0
 12 42  1  0  0  0  0
 13 14  1  0  0  0  0
 13 43  1  0  0  0  0
 13 44  1  0  0  0  0
 14 24  1  0  0  0  0
 14 15  1  0  0  0  0
 15 16  2  0  0  0  0
 15 45  1  0  0  0  0
 16 17  1  0  0  0  0
 17 24  2  0  0  0  0
 17 18  1  0  0  0  0
 18 19  2  0  0  0  0
 18 46  1  0  0  0  0
 19 20  1  0  0  0  0
 19 21  1  0  0  0  0
 20 47  1  0  0  0  0
 20 48  1  0  0  0  0
 20 49  1  0  0  0  0
 21 22  1  0  0  0  0
 21 23  2  0  0  0  0
 22 50  1  0  0  0  0
 22 51  1  0  0  0  0
 22 52  1  0  0  0  0
 23 24  1  0  0  0  0
 23 53  1  0  0  0  0
 25 54  1  0  0  0  0
 25 55  1  0  0  0  0
M  CHG  1   3   1
M  CHG  1   9   1
M  END
> <s_m_source_file>
AV-unprocessed.smi

> <i_m_source_file_index>
1047

> <i_lp_mmshare_version>
43012

> <i_f3d_flags>
0

> <s_epik_input>
W0NIM11bQ0gyXU4xW0NIMl1bQ0gyXU9bQ0BIXShbQ0gyXTEpW0NIMl1bTkhdW0NIMl1bQ0BIXShbT0hdKVtDSDJdbihbY0hdbjIpYyhjMjMpW2NIXWMoW0NIM10pYyhbY0hdMylbQ0gzXQ==

> <s_epik_cmdline>
J2VwaWtfcHl0aG9uJywgJy1waCcsICc3LjAnLCAnLXRuJywgJzgnLCAnLW1hJywgJzIwMCcsICctbWV0YWxfYmluZGluZycsICctaW1hZScsICc8aW5maWxlLm1hZT4nLCAnLW9tYWUnLCAnPG91dGZpbGUubWFlPic=

> <r_epik_Ionization_Penalty>
0.528991

> <r_epik_Ionization_Penalty_Charging>
0.438567

> <r_epik_Ionization_Penalty_Neutral>
0.0904237

> <r_epik_State_Penalty>
0.533036

> <r_epik_Charging_Adjusted_Penalty>
0.971603

> <i_epik_Tot_Q>
2

> <i_epik_Tot_abs_Q>
2

> <r_epik_Metal_State_Penalty>
0.448985

> <b_epik_Metal_Only>
0

> <s_lp_Force_Field>
OPLS_2005

> <r_lp_Energy>
33.7981

> <b_lp_Chiralities_Consistent>
1

> <s_lp_Variant>
AV-unprocessed.smi:1047-4

> <Gold.Version>
5.8.1

> <Gold.Id.Protein>
6NUR|6NUR_protein|mol2

> <Gold.PLP.Fitness>
59.1135

> <Gold.PLP.PLP>
-46.1157

> <Gold.PLP.part.hbond>
-5.7291

> <Gold.PLP.part.metal>
0.0000

> <Gold.PLP.part.buried>
-6.0428

> <Gold.PLP.part.nonpolar>
-36.1327

> <Gold.PLP.part.repulsive>
0.4730

> <Gold.PLP.ligand.clash>
0.0000

> <Gold.PLP.ligand.torsion>
1.2914

> <Gold.PLP.Chemscore.Hbond>
4.1710

> <Gold.PLP.Chemscore.CHOScore>
1.0000

> <Gold.PLP.Chemscore.Metal>
0.0000

> <Gold.Chemscore.Hbonds>
donor molecule, donor type, donor heavy atom, donor atom, acceptor molecule, acceptor atom, score
      L1  H     3    57       P1 10747  0.70
      L1  H     9    38       P1  7948  2.00
      L1  H    12    42       P1 10171  0.44
      P1  H 10995 11001       L1    16  0.06
      L1  C    15    45       P1 10957  0.84

> <Gold.PLP.Chemscore.Internal.Correction>
0.0679

> <Gold.Rescore>
     Score         DG    S(hbond)    S(metal)    S(lipo)     H(rot)  DE(clash)    DE(int)     intcor
     19.48     -21.04       2.89        0.00     109.69       2.70       0.23       1.33       ----

> <Gold.Chemscore.Fitness>
19.4839

> <Gold.Chemscore.DG>
-21.0441

> <Gold.Chemscore.ZeroCoef>
-5.4800

> <Gold.Chemscore.Hbond>
2.8859

> <Gold.Chemscore.Metal>
0.0000

> <Gold.Chemscore.Lipo>
109.6853

> <Gold.Chemscore.Internal_Hbond>
0.0000

> <Gold.Chemscore.DEClash>
0.2328

> <Gold.Chemscore.DEInternal>
1.3274

> <Gold.Chemscore.Rot>
2.6985

> <Gold.Chemscore.Internal.Correction>
   9.000000E+99

> <Gold.Chemscore.Hbonds>
donor molecule, donor type, donor heavy atom, donor atom, acceptor molecule, acceptor atom, score
      L1  H     3    57       P1 10747  0.67
      L1  H     9    38       P1  7948  0.97
      L1  H    12    42       P1 10171  0.44
      P1  H 10995 11001       L1    16  0.09

> <Gold.Chemscore.Hbond.Weighted>
-9.6390

> <Gold.Chemscore.Metal.Weighted>
-0.0000

> <Gold.Chemscore.Lipo.Weighted>
-12.8332

> <Gold.Chemscore.Internal_Hbond.Weighted>
0.0000

> <Gold.Chemscore.DEClash.Weighted>
0.2328

> <Gold.Chemscore.DEInternal.Weighted>
1.3274

> <Gold.Chemscore.Rot.Weighted>
6.9081

> <Gold.Chemscore.Internal.Correction.Weighted>
   9.000000E+99

> <Gold.Protein.RotatedTorsions>
[ 6907 6896 6895 6894 ] final  -20.29 input  -60.11 | X-H torsion
[ 7974 7965 7964 7962 ] final -172.06 input  175.53 | X-H torsion
[ 8008 7997 7996 7995 ] final  -90.60 input   59.86 | X-H torsion
[ 10167 10162 10161 10158 ] final -146.71 input  -65.29 | X-H torsion
[ 10718 10713 10712 10709 ] final   35.84 input   66.30 | X-H torsion
[ 10763 10752 10751 10750 ] final -125.51 input  -60.55 | X-H torsion
[ 11005 11000 10999 10996 ] final   25.99 input  -57.11 | X-H torsion

> <Gold.Protein.ActiveResidues>
 VAL166  LYS551  ARG553  GLY616  TRP617  ASP618  TYR619  PRO620  LYS621  CYS622 
 ASP623  PHE694  ASN695  SER759  ASP760  ASP761  ALA762  ILE779  LEU786  VAL792 
 PHE793  MET794  SER795  GLU796  ALA797  LYS798  CYS799  TRP800  GLU811  SER814 

> <Gold.Protein.RotatedAtoms>
  151.2503  135.0620  159.9059 H   0  0  0  0  0  0  0  0  0  0  0  0  # atno 6907 bound_to 6896
  152.5381  134.0339  159.8047 H   0  0  0  0  0  0  0  0  0  0  0  0  # atno 6908 bound_to 6896
  151.0546  133.5546  159.2670 H   0  0  0  0  0  0  0  0  0  0  0  0  # atno 6909 bound_to 6896
  144.7150  140.1829  143.6356 H   0  0  0  0  0  0  0  0  0  0  0  0  # atno 7974 bound_to 7965
  154.7005  140.0528  157.0454 H   0  0  0  0  0  0  0  0  0  0  0  0  # atno 8008 bound_to 7997
  155.0691  140.3197  155.4617 H   0  0  0  0  0  0  0  0  0  0  0  0  # atno 8009 bound_to 7997
  156.2758  140.2085  156.5818 H   0  0  0  0  0  0  0  0  0  0  0  0  # atno 8010 bound_to 7997
  139.7689  143.8267  152.2621 H   0  0  0  0  0  0  0  0  0  0  0  0  # atno 10167 bound_to 10162
  157.3276  130.7481  149.6826 H   0  0  0  0  0  0  0  0  0  0  0  0  # atno 10718 bound_to 10713
  154.8736  135.4027  154.3281 H   0  0  0  0  0  0  0  0  0  0  0  0  # atno 10763 bound_to 10752
  153.4098  135.7020  153.6372 H   0  0  0  0  0  0  0  0  0  0  0  0  # atno 10764 bound_to 10752
  153.5079  135.3713  155.2543 H   0  0  0  0  0  0  0  0  0  0  0  0  # atno 10765 bound_to 10752
  140.3419  134.2323  155.7689 H   0  0  0  0  0  0  0  0  0  0  0  0  # atno 11005 bound_to 11000
  145.8840  139.2338  143.1589 LP  0  0  0  0  0  0  0  0  0  0  0  0  # atno 17320 bound_to 7965
  145.9968  140.8555  143.0039 LP  0  0  0  0  0  0  0  0  0  0  0  0  # atno 17321 bound_to 7965
  139.8296  144.7260  150.9468 LP  0  0  0  0  0  0  0  0  0  0  0  0  # atno 17342 bound_to 10162
  140.7812  143.4083  151.1035 LP  0  0  0  0  0  0  0  0  0  0  0  0  # atno 17343 bound_to 10162
  155.9692  130.4205  150.4424 LP  0  0  0  0  0  0  0  0  0  0  0  0  # atno 17370 bound_to 10713
  157.2450  131.0534  151.2413 LP  0  0  0  0  0  0  0  0  0  0  0  0  # atno 17371 bound_to 10713
  141.2036  133.7908  157.0331 LP  0  0  0  0  0  0  0  0  0  0  0  0  # atno 17394 bound_to 11000
  140.0774  134.9668  157.1568 LP  0  0  0  0  0  0  0  0  0  0  0  0  # atno 17395 bound_to 11000

$$$$
