AV-unprocessed.smi:2753|AV-procd|sdf|10614|dock1
  -GOLD-   2272015 63D 1   1.00000     0.00000
 Structure written by MMmdl.
 27 28  0  0  0  0  0  0  0  0  3 V2000
  150.9807  137.4038  155.4346 F   0  0  0  0  0  0  0  0  0  0  0  0
  151.4103  138.6038  155.0447 C   0  0  0  0  0  0  0  0  0  0  0  0
  152.5408  138.4534  154.3548 F   0  0  0  0  0  0  0  0  0  0  0  0
  150.4929  139.1583  154.2521 F   0  0  0  0  0  0  0  0  0  0  0  0
  151.6519  139.4858  156.2536 C   0  0  0  0  0  0  0  0  0  0  0  0
  152.5912  139.0723  157.2440 C   0  0  0  0  0  0  0  0  0  0  0  0
  152.5794  140.0424  158.1648 N   0  5  0  0  0  0  0  0  0  0  0  0
  151.7070  141.0063  157.8018 C   0  0  0  0  0  0  0  0  0  0  0  0
  151.4131  142.2639  158.5932 C   0  0  1  0  0  0  0  0  0  0  0  0
  152.6919  143.0570  158.9181 C   0  0  0  0  0  0  0  0  0  0  0  0
  152.3455  144.3329  159.7009 C   0  0  0  0  0  0  0  0  0  0  0  0
  151.2887  145.1656  158.9554 C   0  0  0  0  0  0  0  0  0  0  0  0
  150.0780  144.3582  158.6886 N   0  3  0  0  0  0  0  0  0  0  0  0
  150.3583  143.1420  157.8952 C   0  0  0  0  0  0  0  0  0  0  0  0
  151.1327  140.6701  156.6314 N   0  0  0  0  0  0  0  0  0  0  0  0
  153.2281  138.2025  157.3466 H   0  0  0  0  0  0  0  0  0  0  0  0
  150.9860  141.9345  159.5420 H   0  0  0  0  0  0  0  0  0  0  0  0
  153.3841  142.4402  159.4924 H   0  0  0  0  0  0  0  0  0  0  0  0
  153.2055  143.3258  157.9938 H   0  0  0  0  0  0  0  0  0  0  0  0
  151.9711  144.0655  160.6899 H   0  0  0  0  0  0  0  0  0  0  0  0
  153.2455  144.9272  159.8610 H   0  0  0  0  0  0  0  0  0  0  0  0
  151.0107  146.0395  159.5449 H   0  0  0  0  0  0  0  0  0  0  0  0
  151.6915  145.5322  158.0101 H   0  0  0  0  0  0  0  0  0  0  0  0
  149.6782  144.0768  159.5724 H   0  0  0  0  0  0  0  0  0  0  0  0
  150.7028  143.4364  156.9028 H   0  0  0  0  0  0  0  0  0  0  0  0
  149.4304  142.5858  157.7591 H   0  0  0  0  0  0  0  0  0  0  0  0
  149.4064  144.9247  158.1907 H   0  0  0  0  0  0  0  0  0  0  0  0
  1  2  1  0  0  0  0
  2  3  1  0  0  0  0
  2  4  1  0  0  0  0
  2  5  1  0  0  0  0
  5 15  1  0  0  0  0
  5  6  2  0  0  0  0
  6  7  1  0  0  0  0
  6 16  1  0  0  0  0
  7  8  1  0  0  0  0
  8  9  1  0  0  0  0
  8 15  2  0  0  0  0
  9 14  1  0  0  0  0
  9 10  1  0  0  0  0
  9 17  1  0  0  0  0
 10 11  1  0  0  0  0
 10 18  1  0  0  0  0
 10 19  1  0  0  0  0
 11 12  1  0  0  0  0
 11 20  1  0  0  0  0
 11 21  1  0  0  0  0
 12 13  1  0  0  0  0
 12 22  1  0  0  0  0
 12 23  1  0  0  0  0
 13 14  1  0  0  0  0
 13 24  1  0  0  0  0
 13 27  1  0  0  0  0
 14 25  1  0  0  0  0
 14 26  1  0  0  0  0
M  CHG  1   7  -1
M  CHG  1  13   1
M  END
> <s_m_source_file>
AV-unprocessed.smi

> <i_m_source_file_index>
2753

> <i_lp_mmshare_version>
43012

> <i_f3d_flags>
0

> <s_epik_input>
RkMoRikoRiljMVtjSF1bbkhdYyhuMSlbQ0BASF0yW0NIMl1bQ0gyXVtDSDJdW05IXVtDSDJdMg==

> <s_epik_cmdline>
J2VwaWtfcHl0aG9uJywgJy1waCcsICc3LjAnLCAnLXRuJywgJzgnLCAnLW1hJywgJzIwMCcsICctbWV0YWxfYmluZGluZycsICctaW1hZScsICc8aW5maWxlLm1hZT4nLCAnLW9tYWUnLCAnPG91dGZpbGUubWFlPic=

> <r_lp_tautomer_probability>
0.5

> <r_epik_Ionization_Penalty>
6.42345

> <r_epik_Ionization_Penalty_Charging>
5.19935

> <r_epik_Ionization_Penalty_Neutral>
1.22411

> <r_epik_State_Penalty>
5.30226

> <r_epik_Charging_Adjusted_Penalty>
10.5016

> <i_epik_Tot_Q>
0

> <i_epik_Tot_abs_Q>
2

> <r_epik_Metal_State_Penalty>
1.35744

> <b_epik_Metal_Only>
1

> <s_lp_Force_Field>
OPLS_2005

> <r_lp_Energy>
18.3827

> <b_lp_Chiralities_Consistent>
1

> <s_lp_Variant>
AV-unprocessed.smi:2753-6

> <Gold.Version>
5.8.1

> <Gold.Id.Protein>
6NUR|6NUR_protein|mol2

> <Gold.PLP.Fitness>
37.5920

> <Gold.PLP.PLP>
-31.6266

> <Gold.PLP.part.hbond>
-1.4703

> <Gold.PLP.part.metal>
0.0000

> <Gold.PLP.part.buried>
-2.7878

> <Gold.PLP.part.nonpolar>
-27.2019

> <Gold.PLP.part.repulsive>
0.1409

> <Gold.PLP.ligand.clash>
0.0000

> <Gold.PLP.ligand.torsion>
0.0381

> <Gold.PLP.Chemscore.Hbond>
2.0000

> <Gold.PLP.Chemscore.CHOScore>
0.0000

> <Gold.PLP.Chemscore.Metal>
0.0000

> <Gold.Chemscore.Hbonds>
donor molecule, donor type, donor heavy atom, donor atom, acceptor molecule, acceptor atom, score
      L1  H    13    27       P1  8029  1.98

> <Gold.PLP.Chemscore.Internal.Correction>
0.0416

> <Gold.Rescore>
     Score         DG    S(hbond)    S(metal)    S(lipo)     H(rot)  DE(clash)    DE(int)     intcor
     12.67     -12.80       0.46        0.00      71.27       1.00       0.06       0.08       ----

> <Gold.Chemscore.Fitness>
12.6660

> <Gold.Chemscore.DG>
-12.8013

> <Gold.Chemscore.ZeroCoef>
-5.4800

> <Gold.Chemscore.Hbond>
0.4619

> <Gold.Chemscore.Metal>
0.0000

> <Gold.Chemscore.Lipo>
71.2694

> <Gold.Chemscore.Internal_Hbond>
0.0000

> <Gold.Chemscore.DEClash>
0.0591

> <Gold.Chemscore.DEInternal>
0.0761

> <Gold.Chemscore.Rot>
1.0000

> <Gold.Chemscore.Internal.Correction>
   9.000000E+99

> <Gold.Chemscore.Hbonds>
donor molecule, donor type, donor heavy atom, donor atom, acceptor molecule, acceptor atom, score
      L1  H    13    27       P1  8029  0.32

> <Gold.Chemscore.Hbond.Weighted>
-1.5427

> <Gold.Chemscore.Metal.Weighted>
-0.0000

> <Gold.Chemscore.Lipo.Weighted>
-8.3385

> <Gold.Chemscore.Internal_Hbond.Weighted>
0.0000

> <Gold.Chemscore.DEClash.Weighted>
0.0591

> <Gold.Chemscore.DEInternal.Weighted>
0.0761

> <Gold.Chemscore.Rot.Weighted>
2.5600

> <Gold.Chemscore.Internal.Correction.Weighted>
   9.000000E+99

> <Gold.Protein.RotatedTorsions>
[ 6907 6896 6895 6894 ] final    3.73 input  -60.11 | X-H torsion
[ 7974 7965 7964 7962 ] final   56.12 input  175.53 | X-H torsion
[ 8008 7997 7996 7995 ] final   26.08 input   59.86 | X-H torsion
[ 10167 10162 10161 10158 ] final   -6.63 input  -65.29 | X-H torsion
[ 10718 10713 10712 10709 ] final  -38.75 input   66.30 | X-H torsion
[ 10763 10752 10751 10750 ] final   60.76 input  -60.55 | X-H torsion
[ 11005 11000 10999 10996 ] final -100.20 input  -57.11 | X-H torsion

> <Gold.Protein.ActiveResidues>
 VAL166  LYS551  ARG553  GLY616  TRP617  ASP618  TYR619  PRO620  LYS621  CYS622 
 ASP623  PHE694  ASN695  SER759  ASP760  ASP761  ALA762  ILE779  LEU786  VAL792 
 PHE793  MET794  SER795  GLU796  ALA797  LYS798  CYS799  TRP800  GLU811  SER814 

> <Gold.Protein.RotatedAtoms>
  151.6298  135.1024  160.0118 H   0  0  0  0  0  0  0  0  0  0  0  0  # atno 6907 bound_to 6896
  152.4113  133.6963  159.6408 H   0  0  0  0  0  0  0  0  0  0  0  0  # atno 6908 bound_to 6896
  150.8003  133.8537  159.3253 H   0  0  0  0  0  0  0  0  0  0  0  0  # atno 6909 bound_to 6896
  145.9432  139.3906  143.0351 H   0  0  0  0  0  0  0  0  0  0  0  0  # atno 7974 bound_to 7965
  155.0217  140.3148  155.4791 H   0  0  0  0  0  0  0  0  0  0  0  0  # atno 8008 bound_to 7997
  156.2891  140.2196  156.5277 H   0  0  0  0  0  0  0  0  0  0  0  0  # atno 8009 bound_to 7997
  154.7446  140.0471  157.0829 H   0  0  0  0  0  0  0  0  0  0  0  0  # atno 8010 bound_to 7997
  140.7003  143.6172  150.8647 H   0  0  0  0  0  0  0  0  0  0  0  0  # atno 10167 bound_to 10162
  156.3003  130.4239  149.8150 H   0  0  0  0  0  0  0  0  0  0  0  0  # atno 10718 bound_to 10713
  152.9930  135.5525  154.5926 H   0  0  0  0  0  0  0  0  0  0  0  0  # atno 10763 bound_to 10752
  154.5284  135.2812  155.1204 H   0  0  0  0  0  0  0  0  0  0  0  0  # atno 10764 bound_to 10752
  154.2529  135.6395  153.5299 H   0  0  0  0  0  0  0  0  0  0  0  0  # atno 10765 bound_to 10752
  141.1279  133.8381  157.1072 H   0  0  0  0  0  0  0  0  0  0  0  0  # atno 11005 bound_to 11000
  145.8272  140.9649  143.0868 LP  0  0  0  0  0  0  0  0  0  0  0  0  # atno 17320 bound_to 7965
  144.6782  140.0116  143.7484 LP  0  0  0  0  0  0  0  0  0  0  0  0  # atno 17321 bound_to 7965
  139.9894  143.5864  152.2915 LP  0  0  0  0  0  0  0  0  0  0  0  0  # atno 17342 bound_to 10162
  139.6513  144.7661  151.2142 LP  0  0  0  0  0  0  0  0  0  0  0  0  # atno 17343 bound_to 10162
  156.5531  130.8350  151.3306 LP  0  0  0  0  0  0  0  0  0  0  0  0  # atno 17370 bound_to 10713
  157.7366  130.9781  150.2145 LP  0  0  0  0  0  0  0  0  0  0  0  0  # atno 17371 bound_to 10713
  140.0297  134.9907  157.0756 LP  0  0  0  0  0  0  0  0  0  0  0  0  # atno 17394 bound_to 11000
  140.4305  134.1786  155.7168 LP  0  0  0  0  0  0  0  0  0  0  0  0  # atno 17395 bound_to 11000

$$$$
