AV-unprocessed.smi:3066|AV-procd|sdf|11693|dock9
  -GOLD-   2272017 93D 1   1.00000     0.00000
 Structure written by MMmdl.
 35 36  0  0  0  0  0  0  0  0  1 V2000
  146.6101  143.1710  154.1498 N   0  0  0  0  0  0  0  0  0  0  0  0
  147.1772  142.1630  154.1938 C   0  0  0  0  0  0  0  0  0  0  0  0
  147.8890  140.8976  154.2485 C   0  0  0  0  0  0  0  0  0  0  0  0
  147.4196  139.7869  153.6091 N   0  0  0  0  0  0  0  0  0  0  0  0
  148.3763  138.9326  153.9512 C   0  0  0  0  0  0  0  0  0  0  0  0
  149.3320  139.4661  154.7197 N   0  0  0  0  0  0  0  0  0  0  0  0
  150.5183  138.8653  155.3021 C   0  0  0  0  0  0  0  0  0  0  0  0
  151.4784  139.9369  155.8195 C   0  0  0  0  0  0  0  0  0  0  0  0
  152.5033  140.1994  155.1908 O   0  0  0  0  0  0  0  0  0  0  0  0
  151.1325  140.5446  156.9658 N   0  0  0  0  0  0  0  0  0  0  0  0
  151.9111  141.5687  157.6572 C   0  0  0  0  0  0  0  0  0  0  0  0
  152.2598  141.0368  159.0601 C   0  0  0  0  0  0  0  0  0  0  0  0
  153.0664  142.0017  159.9461 C   0  0  0  0  0  0  0  0  0  0  0  0
  152.2135  143.1545  160.4996 C   0  0  0  0  0  0  0  0  0  0  0  0
  152.0848  144.3822  159.5812 C   0  0  0  0  0  0  0  0  0  0  0  0
  151.9986  144.1067  158.0697 C   0  0  0  0  0  0  0  0  0  0  0  0
  151.1326  142.9032  157.6610 C   0  0  0  0  0  0  0  0  0  0  0  0
  149.0269  140.7706  154.9281 N   0  0  0  0  0  0  0  0  0  0  0  0
  148.3789  137.8977  153.6410 H   0  0  0  0  0  0  0  0  0  0  0  0
  150.2130  138.2095  156.1185 H   0  0  0  0  0  0  0  0  0  0  0  0
  151.0174  138.2431  154.5572 H   0  0  0  0  0  0  0  0  0  0  0  0
  150.2685  140.2604  157.4051 H   0  0  0  0  0  0  0  0  0  0  0  0
  152.8480  141.7117  157.1152 H   0  0  0  0  0  0  0  0  0  0  0  0
  151.3493  140.7399  159.5831 H   0  0  0  0  0  0  0  0  0  0  0  0
  152.8403  140.1204  158.9423 H   0  0  0  0  0  0  0  0  0  0  0  0
  153.4452  141.4299  160.7941 H   0  0  0  0  0  0  0  0  0  0  0  0
  153.9475  142.3770  159.4239 H   0  0  0  0  0  0  0  0  0  0  0  0
  151.2197  142.7812  160.7498 H   0  0  0  0  0  0  0  0  0  0  0  0
  152.6391  143.4883  161.4465 H   0  0  0  0  0  0  0  0  0  0  0  0
  151.2060  144.9478  159.8925 H   0  0  0  0  0  0  0  0  0  0  0  0
  152.9333  145.0453  159.7537 H   0  0  0  0  0  0  0  0  0  0  0  0
  151.6031  145.0037  157.5916 H   0  0  0  0  0  0  0  0  0  0  0  0
  153.0025  143.9867  157.6608 H   0  0  0  0  0  0  0  0  0  0  0  0
  150.7732  143.0934  156.6487 H   0  0  0  0  0  0  0  0  0  0  0  0
  150.2396  142.8368  158.2840 H   0  0  0  0  0  0  0  0  0  0  0  0
  1  2  3  0  0  0  0
  2  3  1  0  0  0  0
  3 18  2  0  0  0  0
  3  4  1  0  0  0  0
  4  5  2  0  0  0  0
  5  6  1  0  0  0  0
  5 19  1  0  0  0  0
  6  7  1  0  0  0  0
  6 18  1  0  0  0  0
  7  8  1  0  0  0  0
  7 20  1  0  0  0  0
  7 21  1  0  0  0  0
  8  9  2  0  0  0  0
  8 10  1  0  0  0  0
 10 11  1  0  0  0  0
 10 22  1  0  0  0  0
 11 17  1  0  0  0  0
 11 12  1  0  0  0  0
 11 23  1  0  0  0  0
 12 13  1  0  0  0  0
 12 24  1  0  0  0  0
 12 25  1  0  0  0  0
 13 14  1  0  0  0  0
 13 26  1  0  0  0  0
 13 27  1  0  0  0  0
 14 15  1  0  0  0  0
 14 28  1  0  0  0  0
 14 29  1  0  0  0  0
 15 16  1  0  0  0  0
 15 30  1  0  0  0  0
 15 31  1  0  0  0  0
 16 17  1  0  0  0  0
 16 32  1  0  0  0  0
 16 33  1  0  0  0  0
 17 34  1  0  0  0  0
 17 35  1  0  0  0  0
M  END
> <s_m_source_file>
AV-unprocessed.smi

> <i_m_source_file_index>
3066

> <i_lp_mmshare_version>
43012

> <i_f3d_flags>
0

> <s_epik_input>
TiNDYzFuW2NIXW4objEpW0NIMl1DKD1PKVtOSF1bQ0hdMltDSDJdW0NIMl1bQ0gyXVtDSDJdW0NIMl1bQ0gyXTI=

> <s_epik_cmdline>
J2VwaWtfcHl0aG9uJywgJy1waCcsICc3LjAnLCAnLXRuJywgJzgnLCAnLW1hJywgJzIwMCcsICctbWV0YWxfYmluZGluZycsICctaW1hZScsICc8aW5maWxlLm1hZT4nLCAnLW9tYWUnLCAnPG91dGZpbGUubWFlPic=

> <r_lp_tautomer_probability>
1

> <r_epik_Ionization_Penalty>
4.79211e-08

> <r_epik_Ionization_Penalty_Charging>
0

> <r_epik_Ionization_Penalty_Neutral>
4.79211e-08

> <r_epik_State_Penalty>
-0

> <r_epik_Charging_Adjusted_Penalty>
0

> <i_epik_Tot_Q>
0

> <i_epik_Tot_abs_Q>
0

> <r_epik_Metal_State_Penalty>
-0

> <b_epik_Metal_Only>
0

> <s_lp_Force_Field>
OPLS_2005

> <r_lp_Energy>
17.6035

> <b_lp_Chiralities_Consistent>
1

> <s_lp_Variant>
AV-unprocessed.smi:3066-1

> <Gold.Version>
5.8.1

> <Gold.Id.Protein>
6NUR|6NUR_protein|mol2

> <Gold.PLP.Fitness>
44.9160

> <Gold.PLP.PLP>
-38.1547

> <Gold.PLP.part.hbond>
-2.8532

> <Gold.PLP.part.metal>
0.0000

> <Gold.PLP.part.buried>
-4.0281

> <Gold.PLP.part.nonpolar>
-32.7970

> <Gold.PLP.part.repulsive>
0.9773

> <Gold.PLP.ligand.clash>
0.0000

> <Gold.PLP.ligand.torsion>
0.3691

> <Gold.PLP.Chemscore.Hbond>
1.4951

> <Gold.PLP.Chemscore.CHOScore>
1.0000

> <Gold.PLP.Chemscore.Metal>
0.0000

> <Gold.Chemscore.Hbonds>
donor molecule, donor type, donor heavy atom, donor atom, acceptor molecule, acceptor atom, score
      P1  H  7989  7998       L1     9  0.53
      P1  H  7997  8008       L1     9  0.93
      L1  C     5    19       P1  7948  1.00

> <Gold.PLP.Chemscore.Internal.Correction>
0.0142

> <Gold.Rescore>
     Score         DG    S(hbond)    S(metal)    S(lipo)     H(rot)  DE(clash)    DE(int)     intcor
     12.05     -14.01       1.13        0.00      83.19       1.95       0.43       1.53       ----

> <Gold.Chemscore.Fitness>
12.0510

> <Gold.Chemscore.DG>
-14.0106

> <Gold.Chemscore.ZeroCoef>
-5.4800

> <Gold.Chemscore.Hbond>
1.1325

> <Gold.Chemscore.Metal>
0.0000

> <Gold.Chemscore.Lipo>
83.1900

> <Gold.Chemscore.Internal_Hbond>
0.0000

> <Gold.Chemscore.DEClash>
0.4266

> <Gold.Chemscore.DEInternal>
1.5329

> <Gold.Chemscore.Rot>
1.9474

> <Gold.Chemscore.Internal.Correction>
   9.000000E+99

> <Gold.Chemscore.Hbonds>
donor molecule, donor type, donor heavy atom, donor atom, acceptor molecule, acceptor atom, score
      P1  H  7989  7998       L1     9  0.13
      P1  H  7997  8008       L1     9  0.88

> <Gold.Chemscore.Hbond.Weighted>
-3.7826

> <Gold.Chemscore.Metal.Weighted>
-0.0000

> <Gold.Chemscore.Lipo.Weighted>
-9.7332

> <Gold.Chemscore.Internal_Hbond.Weighted>
0.0000

> <Gold.Chemscore.DEClash.Weighted>
0.4266

> <Gold.Chemscore.DEInternal.Weighted>
1.5329

> <Gold.Chemscore.Rot.Weighted>
4.9852

> <Gold.Chemscore.Internal.Correction.Weighted>
   9.000000E+99

> <Gold.Protein.RotatedTorsions>
[ 6907 6896 6895 6894 ] final   55.44 input  -60.11 | X-H torsion
[ 7974 7965 7964 7962 ] final   -2.31 input  175.53 | X-H torsion
[ 8008 7997 7996 7995 ] final  -24.72 input   59.86 | X-H torsion
[ 10167 10162 10161 10158 ] final -146.98 input  -65.29 | X-H torsion
[ 10718 10713 10712 10709 ] final   58.26 input   66.30 | X-H torsion
[ 10763 10752 10751 10750 ] final -114.67 input  -60.55 | X-H torsion
[ 11005 11000 10999 10996 ] final   21.44 input  -57.11 | X-H torsion

> <Gold.Protein.ActiveResidues>
 VAL166  LYS551  ARG553  GLY616  TRP617  ASP618  TYR619  PRO620  LYS621  CYS622 
 ASP623  PHE694  ASN695  SER759  ASP760  ASP761  ALA762  ILE779  LEU786  VAL792 
 PHE793  MET794  SER795  GLU796  ALA797  LYS798  CYS799  TRP800  GLU811  SER814 

> <Gold.Protein.RotatedAtoms>
  152.3538  134.6968  160.0227 H   0  0  0  0  0  0  0  0  0  0  0  0  # atno 6907 bound_to 6896
  151.7313  133.3312  159.3349 H   0  0  0  0  0  0  0  0  0  0  0  0  # atno 6908 bound_to 6896
  150.7558  134.6294  159.6223 H   0  0  0  0  0  0  0  0  0  0  0  0  # atno 6909 bound_to 6896
  146.2406  140.1551  142.8333 H   0  0  0  0  0  0  0  0  0  0  0  0  # atno 7974 bound_to 7965
  154.4514  140.1946  156.0508 H   0  0  0  0  0  0  0  0  0  0  0  0  # atno 8008 bound_to 7997
  156.0656  140.3291  155.7486 H   0  0  0  0  0  0  0  0  0  0  0  0  # atno 8009 bound_to 7997
  155.5344  140.0581  157.2873 H   0  0  0  0  0  0  0  0  0  0  0  0  # atno 8010 bound_to 7997
  139.7664  143.8301  152.2617 H   0  0  0  0  0  0  0  0  0  0  0  0  # atno 10167 bound_to 10162
  157.5582  130.8815  149.9068 H   0  0  0  0  0  0  0  0  0  0  0  0  # atno 10718 bound_to 10713
  154.8450  135.4409  154.1543 H   0  0  0  0  0  0  0  0  0  0  0  0  # atno 10763 bound_to 10752
  153.2696  135.6944  153.7501 H   0  0  0  0  0  0  0  0  0  0  0  0  # atno 10764 bound_to 10752
  153.6746  135.3413  155.3137 H   0  0  0  0  0  0  0  0  0  0  0  0  # atno 10765 bound_to 10752
  140.3916  134.1813  155.7662 H   0  0  0  0  0  0  0  0  0  0  0  0  # atno 11005 bound_to 11000
  145.0135  140.8734  143.5209 LP  0  0  0  0  0  0  0  0  0  0  0  0  # atno 17320 bound_to 7965
  145.1588  139.2470  143.5402 LP  0  0  0  0  0  0  0  0  0  0  0  0  # atno 17321 bound_to 7965
  139.8323  144.7248  150.9435 LP  0  0  0  0  0  0  0  0  0  0  0  0  # atno 17342 bound_to 10162
  140.7811  143.4059  151.1072 LP  0  0  0  0  0  0  0  0  0  0  0  0  # atno 17343 bound_to 10162
  156.0638  130.3695  150.0924 LP  0  0  0  0  0  0  0  0  0  0  0  0  # atno 17370 bound_to 10713
  156.9091  130.9645  151.3565 LP  0  0  0  0  0  0  0  0  0  0  0  0  # atno 17371 bound_to 10713
  141.1889  133.8250  157.0978 LP  0  0  0  0  0  0  0  0  0  0  0  0  # atno 17394 bound_to 11000
  140.0402  134.9858  157.0948 LP  0  0  0  0  0  0  0  0  0  0  0  0  # atno 17395 bound_to 11000

$$$$
