AV-unprocessed.smi:623|AV-procd|sdf|3092|dock2
  -GOLD-   22720 0 13D 1   1.00000     0.00000
 Structure written by MMmdl.
 45 47  0  0  0  0  0  0  0  0  1 V2000
  144.5758  134.9350  162.1272 C   0  0  0  0  0  0  0  0  0  0  0  0
  145.8151  135.5779  161.4429 C   0  0  0  0  0  0  0  0  0  0  0  0
  145.2366  136.6719  160.5016 C   0  0  0  0  0  0  0  0  0  0  0  0
  146.8875  136.0908  162.4248 C   0  0  1  0  0  0  0  0  0  0  0  0
  147.3598  134.8080  163.1461 C   0  0  0  0  0  0  0  0  0  0  0  0
  147.2936  133.7493  162.0255 C   0  0  0  0  0  0  0  0  0  0  0  0
  146.8155  134.5747  160.8026 C   0  0  1  0  0  0  0  0  0  0  0  0
  146.2518  133.6885  159.6732 C   0  0  0  0  0  0  0  0  0  0  0  0
  148.0450  135.4486  160.4068 C   0  0  1  0  0  0  0  0  0  0  0  0
  147.9422  135.9839  159.0543 N   0  0  0  0  0  0  0  0  0  0  0  0
  148.7678  135.7298  158.0276 C   0  0  0  0  0  0  0  0  0  0  0  0
  149.7304  134.9689  158.1163 O   0  0  0  0  0  0  0  0  0  0  0  0
  148.4860  136.4464  156.6953 C   0  0  0  0  0  0  0  0  0  0  0  0
  149.5624  137.3543  156.2609 N   0  0  0  0  0  0  0  0  0  0  0  0
  150.1011  137.2345  154.9873 C   0  0  0  0  0  0  0  0  0  0  0  0
  151.1231  137.9985  154.5346 C   0  0  0  0  0  0  0  0  0  0  0  0
  151.7226  139.0140  155.3934 C   0  0  0  0  0  0  0  0  0  0  0  0
  152.6518  139.7529  155.0759 O   0  0  0  0  0  0  0  0  0  0  0  0
  151.1534  139.1049  156.6663 N   0  0  0  0  0  0  0  0  0  0  0  0
  150.1011  138.3200  157.1398 C   0  0  0  0  0  0  0  0  0  0  0  0
  149.6850  138.4716  158.2876 O   0  0  0  0  0  0  0  0  0  0  0  0
  148.0468  136.5376  161.5049 C   0  0  0  0  0  0  0  0  0  0  0  0
  151.5377  139.7937  157.2970 H   0  0  0  0  0  0  0  0  0  0  0  0
  144.0186  135.6827  162.6924 H   0  0  0  0  0  0  0  0  0  0  0  0
  144.7962  134.1280  162.8223 H   0  0  0  0  0  0  0  0  0  0  0  0
  143.8937  134.5233  161.3826 H   0  0  0  0  0  0  0  0  0  0  0  0
  145.9740  137.2857  159.9924 H   0  0  0  0  0  0  0  0  0  0  0  0
  144.6100  137.3658  161.0627 H   0  0  0  0  0  0  0  0  0  0  0  0
  144.6086  136.2288  159.7283 H   0  0  0  0  0  0  0  0  0  0  0  0
  146.5520  136.8727  163.1070 H   0  0  0  0  0  0  0  0  0  0  0  0
  148.3653  134.9102  163.5562 H   0  0  0  0  0  0  0  0  0  0  0  0
  146.7011  134.5489  163.9753 H   0  0  0  0  0  0  0  0  0  0  0  0
  148.2581  133.2679  161.8588 H   0  0  0  0  0  0  0  0  0  0  0  0
  146.5932  132.9534  162.2794 H   0  0  0  0  0  0  0  0  0  0  0  0
  147.0280  133.0438  159.2601 H   0  0  0  0  0  0  0  0  0  0  0  0
  145.8452  134.2821  158.8542 H   0  0  0  0  0  0  0  0  0  0  0  0
  145.4504  133.0456  160.0372 H   0  0  0  0  0  0  0  0  0  0  0  0
  148.9630  134.8597  160.4523 H   0  0  0  0  0  0  0  0  0  0  0  0
  147.1751  136.6182  158.8842 H   0  0  0  0  0  0  0  0  0  0  0  0
  148.3180  135.6856  155.9314 H   0  0  0  0  0  0  0  0  0  0  0  0
  147.5375  136.9800  156.7778 H   0  0  0  0  0  0  0  0  0  0  0  0
  149.6933  136.4884  154.3202 H   0  0  0  0  0  0  0  0  0  0  0  0
  151.5018  137.8553  153.5329 H   0  0  0  0  0  0  0  0  0  0  0  0
  147.8714  137.5352  161.1014 H   0  0  0  0  0  0  0  0  0  0  0  0
  148.9999  136.5787  162.0334 H   0  0  0  0  0  0  0  0  0  0  0  0
  1  2  1  0  0  0  0
  1 24  1  0  0  0  0
  1 25  1  0  0  0  0
  1 26  1  0  0  0  0
  2  7  1  0  0  0  0
  2  3  1  0  0  0  0
  2  4  1  0  0  0  0
  3 27  1  0  0  0  0
  3 28  1  0  0  0  0
  3 29  1  0  0  0  0
  4 22  1  0  0  0  0
  4  5  1  0  0  0  0
  4 30  1  0  0  0  0
  5  6  1  0  0  0  0
  5 31  1  0  0  0  0
  5 32  1  0  0  0  0
  6  7  1  0  0  0  0
  6 33  1  0  0  0  0
  6 34  1  0  0  0  0
  7  8  1  0  0  0  0
  7  9  1  0  0  0  0
  8 35  1  0  0  0  0
  8 36  1  0  0  0  0
  8 37  1  0  0  0  0
  9 10  1  0  0  0  0
  9 22  1  0  0  0  0
  9 38  1  0  0  0  0
 10 11  1  0  0  0  0
 10 39  1  0  0  0  0
 11 12  2  0  0  0  0
 11 13  1  0  0  0  0
 13 14  1  0  0  0  0
 13 40  1  0  0  0  0
 13 41  1  0  0  0  0
 14 20  1  0  0  0  0
 14 15  1  0  0  0  0
 15 16  2  0  0  0  0
 15 42  1  0  0  0  0
 16 17  1  0  0  0  0
 16 43  1  0  0  0  0
 17 18  2  0  0  0  0
 17 19  1  0  0  0  0
 19 23  1  0  0  0  0
 19 20  1  0  0  0  0
 20 21  2  0  0  0  0
 22 44  1  0  0  0  0
 22 45  1  0  0  0  0
M  END
> <s_m_source_file>
AV-unprocessed.smi

> <i_m_source_file_index>
623

> <i_lp_mmshare_version>
43012

> <i_f3d_flags>
0

> <s_epik_input>
W0NIM11bQ0BdMTJDKFtDSDNdKShbQ0gzXSlbQ0BIXShbQ0gyXVtDSDJdMSlbQ0gyXVtDQEBIXTJbTkhdQyg9TylbQ0gyXW4zW2NIXVtjSF1jKD1PKVtuSF1jMz1P

> <s_epik_cmdline>
J2VwaWtfcHl0aG9uJywgJy1waCcsICc3LjAnLCAnLXRuJywgJzgnLCAnLW1hJywgJzIwMCcsICctbWV0YWxfYmluZGluZycsICctaW1hZScsICc8aW5maWxlLm1hZT4nLCAnLW9tYWUnLCAnPG91dGZpbGUubWFlPic=

> <r_lp_tautomer_probability>
0.999537

> <r_epik_Ionization_Penalty>
0.00303563

> <r_epik_Ionization_Penalty_Charging>
0.00303561

> <r_epik_Ionization_Penalty_Neutral>
2.03238e-08

> <r_epik_State_Penalty>
0.00213308

> <r_epik_Charging_Adjusted_Penalty>
0.00516869

> <i_epik_Tot_Q>
0

> <i_epik_Tot_abs_Q>
0

> <r_epik_Metal_State_Penalty>
0.361714

> <b_epik_Metal_Only>
0

> <s_lp_Force_Field>
OPLS_2005

> <r_lp_Energy>
54.5125

> <b_lp_Chiralities_Consistent>
1

> <s_lp_Variant>
AV-unprocessed.smi:623-2

> <Gold.Version>
5.8.1

> <Gold.Id.Protein>
6NUR|6NUR_protein|mol2

> <Gold.PLP.Fitness>
40.9109

> <Gold.PLP.PLP>
-30.6437

> <Gold.PLP.part.hbond>
-2.9572

> <Gold.PLP.part.metal>
0.0000

> <Gold.PLP.part.buried>
-2.5692

> <Gold.PLP.part.nonpolar>
-25.6767

> <Gold.PLP.part.repulsive>
0.1665

> <Gold.PLP.ligand.clash>
0.0000

> <Gold.PLP.ligand.torsion>
0.1011

> <Gold.PLP.Chemscore.Hbond>
2.4851

> <Gold.PLP.Chemscore.CHOScore>
1.0000

> <Gold.PLP.Chemscore.Metal>
0.0000

> <Gold.Chemscore.Hbonds>
donor molecule, donor type, donor heavy atom, donor atom, acceptor molecule, acceptor atom, score
      P1  H  6896  6909       L1    12  1.00
      P1  H  7989  7998       L1    18  0.37
      P1  H  7997  8010       L1    18  1.00
      L1  C    15    42       P1  7948  0.95

> <Gold.PLP.Chemscore.Internal.Correction>
0.0142

> <Gold.Rescore>
     Score         DG    S(hbond)    S(metal)    S(lipo)     H(rot)  DE(clash)    DE(int)     intcor
     14.54     -17.62       1.98        0.00      83.74       1.66       1.76       1.32       ----

> <Gold.Chemscore.Fitness>
14.5399

> <Gold.Chemscore.DG>
-17.6234

> <Gold.Chemscore.ZeroCoef>
-5.4800

> <Gold.Chemscore.Hbond>
1.9784

> <Gold.Chemscore.Metal>
0.0000

> <Gold.Chemscore.Lipo>
83.7366

> <Gold.Chemscore.Internal_Hbond>
0.0000

> <Gold.Chemscore.DEClash>
1.7587

> <Gold.Chemscore.DEInternal>
1.3249

> <Gold.Chemscore.Rot>
1.6647

> <Gold.Chemscore.Internal.Correction>
   9.000000E+99

> <Gold.Chemscore.Hbonds>
donor molecule, donor type, donor heavy atom, donor atom, acceptor molecule, acceptor atom, score
      P1  H  6896  6909       L1    12  0.98
      P1  H  7989  7998       L1    18  0.08
      P1  H  7997  8010       L1    18  0.94

> <Gold.Chemscore.Hbond.Weighted>
-6.6079

> <Gold.Chemscore.Metal.Weighted>
-0.0000

> <Gold.Chemscore.Lipo.Weighted>
-9.7972

> <Gold.Chemscore.Internal_Hbond.Weighted>
0.0000

> <Gold.Chemscore.DEClash.Weighted>
1.7587

> <Gold.Chemscore.DEInternal.Weighted>
1.3249

> <Gold.Chemscore.Rot.Weighted>
4.2617

> <Gold.Chemscore.Internal.Correction.Weighted>
   9.000000E+99

> <Gold.Protein.RotatedTorsions>
[ 6907 6896 6895 6894 ] final   36.10 input  -60.11 | X-H torsion
[ 7974 7965 7964 7962 ] final   35.20 input  175.53 | X-H torsion
[ 8008 7997 7996 7995 ] final  101.55 input   59.86 | X-H torsion
[ 10167 10162 10161 10158 ] final  149.25 input  -65.29 | X-H torsion
[ 10718 10713 10712 10709 ] final   30.71 input   66.30 | X-H torsion
[ 10763 10752 10751 10750 ] final   24.70 input  -60.55 | X-H torsion
[ 11005 11000 10999 10996 ] final  148.82 input  -57.11 | X-H torsion

> <Gold.Protein.ActiveResidues>
 VAL166  LYS551  ARG553  GLY616  TRP617  ASP618  TYR619  PRO620  LYS621  CYS622 
 ASP623  PHE694  ASN695  SER759  ASP760  ASP761  ALA762  ILE779  LEU786  VAL792 
 PHE793  MET794  SER795  GLU796  ALA797  LYS798  CYS799  TRP800  GLU811  SER814 

> <Gold.Protein.RotatedAtoms>
  152.1251  134.9176  160.0561 H   0  0  0  0  0  0  0  0  0  0  0  0  # atno 6907 bound_to 6896
  152.0302  133.3929  159.4302 H   0  0  0  0  0  0  0  0  0  0  0  0  # atno 6908 bound_to 6896
  150.6852  134.3450  159.4928 H   0  0  0  0  0  0  0  0  0  0  0  0  # atno 6909 bound_to 6896
  146.1299  139.6172  142.9233 H   0  0  0  0  0  0  0  0  0  0  0  0  # atno 7974 bound_to 7965
  156.1310  140.3195  155.8349 H   0  0  0  0  0  0  0  0  0  0  0  0  # atno 8008 bound_to 7997
  155.4332  140.0520  157.3034 H   0  0  0  0  0  0  0  0  0  0  0  0  # atno 8009 bound_to 7997
  154.4899  140.2088  155.9584 H   0  0  0  0  0  0  0  0  0  0  0  0  # atno 8010 bound_to 7997
  139.4864  144.5617  151.7219 H   0  0  0  0  0  0  0  0  0  0  0  0  # atno 10167 bound_to 10162
  157.2631  130.7171  149.6464 H   0  0  0  0  0  0  0  0  0  0  0  0  # atno 10718 bound_to 10713
  153.0745  135.6599  154.0176 H   0  0  0  0  0  0  0  0  0  0  0  0  # atno 10763 bound_to 10752
  153.9813  135.2955  155.3421 H   0  0  0  0  0  0  0  0  0  0  0  0  # atno 10764 bound_to 10752
  154.7129  135.5197  153.8764 H   0  0  0  0  0  0  0  0  0  0  0  0  # atno 10765 bound_to 10752
  140.0992  134.8993  157.1770 H   0  0  0  0  0  0  0  0  0  0  0  0  # atno 11005 bound_to 11000
  145.5283  141.0428  143.2397 LP  0  0  0  0  0  0  0  0  0  0  0  0  # atno 17320 bound_to 7965
  144.7680  139.6800  143.7206 LP  0  0  0  0  0  0  0  0  0  0  0  0  # atno 17321 bound_to 7965
  140.5188  144.0912  150.6016 LP  0  0  0  0  0  0  0  0  0  0  0  0  # atno 17342 bound_to 10162
  140.3863  143.2776  152.0113 LP  0  0  0  0  0  0  0  0  0  0  0  0  # atno 17343 bound_to 10162
  155.9664  130.4391  150.5245 LP  0  0  0  0  0  0  0  0  0  0  0  0  # atno 17370 bound_to 10713
  157.3154  131.0671  151.1971 LP  0  0  0  0  0  0  0  0  0  0  0  0  # atno 17371 bound_to 10713
  140.3243  134.2881  155.7240 LP  0  0  0  0  0  0  0  0  0  0  0  0  # atno 17394 bound_to 11000
  141.2101  133.7730  156.9955 LP  0  0  0  0  0  0  0  0  0  0  0  0  # atno 17395 bound_to 11000

$$$$
