AV-unprocessed.smi:229|AV-procd|sdf|1756|dock6
  -GOLD-   2262020283D 1   1.00000     0.00000
 Structure written by MMmdl.
 58 62  0  0  0  0  0  0  0  0  1 V2000
  153.4476  142.0210  160.2456 C   0  0  0  0  0  0  0  0  0  0  0  0
  152.8710  142.1949  158.8351 C   0  0  0  0  0  0  0  0  0  0  0  0
  152.0060  141.0054  158.3925 C   0  0  1  0  0  0  0  0  0  0  0  0
  151.1434  141.3492  157.1663 C   0  0  0  0  0  0  0  0  0  0  0  0
  150.4224  140.1625  156.7199 N   0  0  0  0  0  0  0  0  0  0  0  0
  149.3798  140.3215  155.8659 C   0  0  0  0  0  0  0  0  0  0  0  0
  149.0324  141.5664  155.4416 N   0  0  0  0  0  0  0  0  0  0  0  0
  148.0052  141.7332  154.6033 C   0  0  0  0  0  0  0  0  0  0  0  0
  147.1986  140.8095  154.0773 N   0  0  0  0  0  0  0  0  0  0  0  0
  147.5380  139.5597  154.5033 C   0  0  0  0  0  0  0  0  0  0  0  0
  148.6043  139.2280  155.3862 C   0  0  0  0  0  0  0  0  0  0  0  0
  148.6310  137.8536  155.5977 N   0  0  0  0  0  0  0  0  0  0  0  0
  147.6439  137.3992  154.8750 C   0  0  0  0  0  0  0  0  0  0  0  0
  146.9299  138.3574  154.1918 N   0  0  0  0  0  0  0  0  0  0  0  0
  145.7772  138.1421  153.3344 C   0  0  0  0  0  0  0  0  0  0  0  0
  146.0613  137.1142  152.2176 C   0  0  2  0  0  0  0  0  0  0  0  0
  146.4611  137.8239  151.0607 O   0  0  0  0  0  0  0  0  0  0  0  0
  144.8296  136.2643  151.8472 C   0  0  2  0  0  0  0  0  0  0  0  0
  144.2347  135.4563  153.0035 C   0  0  0  0  0  0  0  0  0  0  0  0
  143.5461  134.2876  152.3160 C   0  0  0  0  0  0  0  0  0  0  0  0
  144.1378  134.2905  150.9050 C   0  0  0  0  0  0  0  0  0  0  0  0
  145.2082  135.2221  150.9597 O   0  0  0  0  0  0  0  0  0  0  0  0
  151.3059  139.0397  156.4289 C   0  0  0  0  0  0  0  0  0  0  0  0
  152.2037  138.7214  157.6463 C   0  0  2  0  0  0  0  0  0  0  0  0
  153.2722  137.6945  157.2852 C   0  0  0  0  0  0  0  0  0  0  0  0
  152.6544  136.3771  157.7285 C   0  0  0  0  0  0  0  0  0  0  0  0
  152.0335  136.7300  158.9499 O   0  0  0  0  0  0  0  0  0  0  0  0
  151.4424  138.0150  158.7930 C   0  0  0  0  0  0  0  0  0  0  0  0
  152.8710  139.9142  158.0697 O   0  0  0  0  0  0  0  0  0  0  0  0
  154.0487  142.8854  160.5277 H   0  0  0  0  0  0  0  0  0  0  0  0
  154.0855  141.1389  160.3069 H   0  0  0  0  0  0  0  0  0  0  0  0
  152.6539  141.9126  160.9852 H   0  0  0  0  0  0  0  0  0  0  0  0
  152.2713  143.1055  158.8129 H   0  0  0  0  0  0  0  0  0  0  0  0
  153.6837  142.3455  158.1234 H   0  0  0  0  0  0  0  0  0  0  0  0
  151.3494  140.7304  159.2184 H   0  0  0  0  0  0  0  0  0  0  0  0
  150.4408  142.1429  157.4246 H   0  0  0  0  0  0  0  0  0  0  0  0
  151.7705  141.7186  156.3535 H   0  0  0  0  0  0  0  0  0  0  0  0
  147.7995  142.7531  154.3139 H   0  0  0  0  0  0  0  0  0  0  0  0
  147.4006  136.3475  154.8299 H   0  0  0  0  0  0  0  0  0  0  0  0
  144.9516  137.8095  153.9638 H   0  0  0  0  0  0  0  0  0  0  0  0
  145.4763  139.0992  152.9062 H   0  0  0  0  0  0  0  0  0  0  0  0
  146.8777  136.4601  152.5273 H   0  0  0  0  0  0  0  0  0  0  0  0
  145.6854  138.0899  150.5907 H   0  0  0  0  0  0  0  0  0  0  0  0
  144.0516  136.8780  151.3877 H   0  0  0  0  0  0  0  0  0  0  0  0
  145.0312  135.0792  153.6467 H   0  0  0  0  0  0  0  0  0  0  0  0
  143.5530  136.0422  153.6208 H   0  0  0  0  0  0  0  0  0  0  0  0
  143.7490  133.3525  152.8392 H   0  0  0  0  0  0  0  0  0  0  0  0
  142.4649  134.4252  152.2784 H   0  0  0  0  0  0  0  0  0  0  0  0
  144.4896  133.3063  150.5944 H   0  0  0  0  0  0  0  0  0  0  0  0
  143.3997  134.6338  150.1788 H   0  0  0  0  0  0  0  0  0  0  0  0
  150.7513  138.1502  156.1328 H   0  0  0  0  0  0  0  0  0  0  0  0
  151.9256  139.3149  155.5741 H   0  0  0  0  0  0  0  0  0  0  0  0
  153.5503  137.7010  156.2308 H   0  0  0  0  0  0  0  0  0  0  0  0
  154.1783  137.8737  157.8664 H   0  0  0  0  0  0  0  0  0  0  0  0
  151.9032  136.0330  157.0157 H   0  0  0  0  0  0  0  0  0  0  0  0
  153.3934  135.5875  157.8654 H   0  0  0  0  0  0  0  0  0  0  0  0
  151.5118  138.5471  159.7414 H   0  0  0  0  0  0  0  0  0  0  0  0
  150.3839  137.8977  158.5562 H   0  0  0  0  0  0  0  0  0  0  0  0
  1  2  1  0  0  0  0
  1 30  1  0  0  0  0
  1 31  1  0  0  0  0
  1 32  1  0  0  0  0
  2  3  1  0  0  0  0
  2 33  1  0  0  0  0
  2 34  1  0  0  0  0
  3 29  1  0  0  0  0
  3  4  1  0  0  0  0
  3 35  1  0  0  0  0
  4  5  1  0  0  0  0
  4 36  1  0  0  0  0
  4 37  1  0  0  0  0
  5  6  1  0  0  0  0
  5 23  1  0  0  0  0
  6 11  1  0  0  0  0
  6  7  2  0  0  0  0
  7  8  1  0  0  0  0
  8  9  2  0  0  0  0
  8 38  1  0  0  0  0
  9 10  1  0  0  0  0
 10 14  1  0  0  0  0
 10 11  2  0  0  0  0
 11 12  1  0  0  0  0
 12 13  2  0  0  0  0
 13 14  1  0  0  0  0
 13 39  1  0  0  0  0
 14 15  1  0  0  0  0
 15 16  1  0  0  0  0
 15 40  1  0  0  0  0
 15 41  1  0  0  0  0
 16 17  1  0  0  0  0
 16 18  1  0  0  0  0
 16 42  1  0  0  0  0
 17 43  1  0  0  0  0
 18 22  1  0  0  0  0
 18 19  1  0  0  0  0
 18 44  1  0  0  0  0
 19 20  1  0  0  0  0
 19 45  1  0  0  0  0
 19 46  1  0  0  0  0
 20 21  1  0  0  0  0
 20 47  1  0  0  0  0
 20 48  1  0  0  0  0
 21 22  1  0  0  0  0
 21 49  1  0  0  0  0
 21 50  1  0  0  0  0
 23 24  1  0  0  0  0
 23 51  1  0  0  0  0
 23 52  1  0  0  0  0
 24 28  1  0  0  0  0
 24 25  1  0  0  0  0
 24 29  1  0  0  0  0
 25 26  1  0  0  0  0
 25 53  1  0  0  0  0
 25 54  1  0  0  0  0
 26 27  1  0  0  0  0
 26 55  1  0  0  0  0
 26 56  1  0  0  0  0
 27 28  1  0  0  0  0
 28 57  1  0  0  0  0
 28 58  1  0  0  0  0
M  END
> <s_m_source_file>
AV-unprocessed.smi

> <i_m_source_file_index>
229

> <i_lp_mmshare_version>
43012

> <i_f3d_flags>
0

> <s_epik_input>
W0NIMl0xT1tDSDJdW0NIMl1bQ0BdMTJbQ0gyXU4oW0NIMl1bQ0BIXShPMilbQ0gyXVtDSDNdKWMobltjSF1uMyljKGMzNCluW2NIXW40W0NIMl1bQ0BIXShbT0hdKVtDQEBIXTVbQ0gyXVtDSDJdW0NIMl1PNQ==

> <s_epik_cmdline>
J2VwaWtfcHl0aG9uJywgJy1waCcsICc3LjAnLCAnLXRuJywgJzgnLCAnLW1hJywgJzIwMCcsICctbWV0YWxfYmluZGluZycsICctaW1hZScsICc8aW5maWxlLm1hZT4nLCAnLW9tYWUnLCAnPG91dGZpbGUubWFlPic=

> <r_lp_tautomer_probability>
1

> <r_epik_Ionization_Penalty>
0.00318402

> <r_epik_Ionization_Penalty_Charging>
0

> <r_epik_Ionization_Penalty_Neutral>
0.00318402

> <r_epik_State_Penalty>
0.00215642

> <r_epik_Charging_Adjusted_Penalty>
0.00215642

> <i_epik_Tot_Q>
0

> <i_epik_Tot_abs_Q>
0

> <r_epik_Metal_State_Penalty>
-0

> <b_epik_Metal_Only>
0

> <s_lp_Force_Field>
OPLS_2005

> <r_lp_Energy>
55.2871

> <b_lp_Chiralities_Consistent>
1

> <s_lp_Variant>
AV-unprocessed.smi:229-10

> <Gold.Version>
5.8.1

> <Gold.Id.Protein>
6NUR|6NUR_protein|mol2

> <Gold.PLP.Fitness>
49.7199

> <Gold.PLP.PLP>
-37.3408

> <Gold.PLP.part.hbond>
-4.8636

> <Gold.PLP.part.metal>
0.0000

> <Gold.PLP.part.buried>
-5.3594

> <Gold.PLP.part.nonpolar>
-28.9210

> <Gold.PLP.part.repulsive>
0.5688

> <Gold.PLP.ligand.clash>
0.0000

> <Gold.PLP.ligand.torsion>
0.8759

> <Gold.PLP.Chemscore.Hbond>
3.7332

> <Gold.PLP.Chemscore.CHOScore>
0.8462

> <Gold.PLP.Chemscore.Metal>
0.0000

> <Gold.Chemscore.Hbonds>
donor molecule, donor type, donor heavy atom, donor atom, acceptor molecule, acceptor atom, score
      L1  H    17    43       P1 10171  1.00
      P1  H  6896  6908       L1    27  0.88
      P1  H  7954  7966       L1    17  0.91
      P1  H  7997  8008       L1    29  0.99
      L1  C     8    38       P1  8028  0.72

> <Gold.PLP.Chemscore.Internal.Correction>
0.3927

> <Gold.Rescore>
     Score         DG    S(hbond)    S(metal)    S(lipo)     H(rot)  DE(clash)    DE(int)     intcor
     18.49     -20.97       3.40        0.00      89.22       2.46       0.42       2.06       ----

> <Gold.Chemscore.Fitness>
18.4950

> <Gold.Chemscore.DG>
-20.9713

> <Gold.Chemscore.ZeroCoef>
-5.4800

> <Gold.Chemscore.Hbond>
3.3977

> <Gold.Chemscore.Metal>
0.0000

> <Gold.Chemscore.Lipo>
89.2154

> <Gold.Chemscore.Internal_Hbond>
0.0000

> <Gold.Chemscore.DEClash>
0.4172

> <Gold.Chemscore.DEInternal>
2.0591

> <Gold.Chemscore.Rot>
2.4591

> <Gold.Chemscore.Internal.Correction>
   9.000000E+99

> <Gold.Chemscore.Hbonds>
donor molecule, donor type, donor heavy atom, donor atom, acceptor molecule, acceptor atom, score
      L1  H    17    43       P1 10171  0.93
      P1  H  6896  6908       L1    27  0.64
      P1  H  7954  7966       L1    17  0.75
      P1  H  7997  8008       L1    29  0.62

> <Gold.Chemscore.Hbond.Weighted>
-11.3484

> <Gold.Chemscore.Metal.Weighted>
-0.0000

> <Gold.Chemscore.Lipo.Weighted>
-10.4382

> <Gold.Chemscore.Internal_Hbond.Weighted>
0.0000

> <Gold.Chemscore.DEClash.Weighted>
0.4172

> <Gold.Chemscore.DEInternal.Weighted>
2.0591

> <Gold.Chemscore.Rot.Weighted>
6.2953

> <Gold.Chemscore.Internal.Correction.Weighted>
   9.000000E+99

> <Gold.Protein.RotatedTorsions>
[ 6907 6896 6895 6894 ] final -114.51 input  -60.11 | X-H torsion
[ 7974 7965 7964 7962 ] final  -94.67 input  175.53 | X-H torsion
[ 8008 7997 7996 7995 ] final  -91.56 input   59.86 | X-H torsion
[ 10167 10162 10161 10158 ] final  -85.59 input  -65.29 | X-H torsion
[ 10718 10713 10712 10709 ] final  141.42 input   66.30 | X-H torsion
[ 10763 10752 10751 10750 ] final  -13.88 input  -60.55 | X-H torsion
[ 11005 11000 10999 10996 ] final  106.78 input  -57.11 | X-H torsion

> <Gold.Protein.ActiveResidues>
 VAL166  LYS551  ARG553  GLY616  TRP617  ASP618  TYR619  PRO620  LYS621  CYS622 
 ASP623  PHE694  ASN695  SER759  ASP760  ASP761  ALA762  ILE779  LEU786  VAL792 
 PHE793  MET794  SER795  GLU796  ALA797  LYS798  CYS799  TRP800  GLU811  SER814 

> <Gold.Protein.RotatedAtoms>
  150.7907  133.8791  159.3280 H   0  0  0  0  0  0  0  0  0  0  0  0  # atno 6907 bound_to 6896
  151.6630  135.0985  160.0192 H   0  0  0  0  0  0  0  0  0  0  0  0  # atno 6908 bound_to 6896
  152.3981  133.6737  159.6328 H   0  0  0  0  0  0  0  0  0  0  0  0  # atno 6909 bound_to 6896
  145.3702  140.9504  143.2451 H   0  0  0  0  0  0  0  0  0  0  0  0  # atno 7974 bound_to 7965
  154.7123  140.0518  157.0561 H   0  0  0  0  0  0  0  0  0  0  0  0  # atno 8008 bound_to 7997
  155.0538  140.3182  155.4664 H   0  0  0  0  0  0  0  0  0  0  0  0  # atno 8009 bound_to 7997
  156.2793  140.2111  156.5665 H   0  0  0  0  0  0  0  0  0  0  0  0  # atno 8010 bound_to 7997
  140.4023  143.2657  151.9126 H   0  0  0  0  0  0  0  0  0  0  0  0  # atno 10167 bound_to 10162
  157.3922  131.1006  151.0635 H   0  0  0  0  0  0  0  0  0  0  0  0  # atno 10718 bound_to 10713
  153.5199  135.7016  153.5737 H   0  0  0  0  0  0  0  0  0  0  0  0  # atno 10763 bound_to 10752
  153.3790  135.3925  155.1843 H   0  0  0  0  0  0  0  0  0  0  0  0  # atno 10764 bound_to 10752
  154.8695  135.3830  154.4687 H   0  0  0  0  0  0  0  0  0  0  0  0  # atno 10765 bound_to 10752
  139.8819  134.9380  156.5719 H   0  0  0  0  0  0  0  0  0  0  0  0  # atno 11005 bound_to 11000
  144.8582  139.5218  143.6825 LP  0  0  0  0  0  0  0  0  0  0  0  0  # atno 17320 bound_to 7965
  146.2888  139.7081  142.9176 LP  0  0  0  0  0  0  0  0  0  0  0  0  # atno 17321 bound_to 7965
  139.4784  144.5621  151.8222 LP  0  0  0  0  0  0  0  0  0  0  0  0  # atno 17342 bound_to 10162
  140.4727  144.1564  150.5920 LP  0  0  0  0  0  0  0  0  0  0  0  0  # atno 17343 bound_to 10162
  157.1665  130.6248  149.5627 LP  0  0  0  0  0  0  0  0  0  0  0  0  # atno 17370 bound_to 10713
  155.9801  130.4799  150.6754 LP  0  0  0  0  0  0  0  0  0  0  0  0  # atno 17371 bound_to 10713
  140.8092  133.8443  155.8795 LP  0  0  0  0  0  0  0  0  0  0  0  0  # atno 17394 bound_to 11000
  140.9522  134.1764  157.4719 LP  0  0  0  0  0  0  0  0  0  0  0  0  # atno 17395 bound_to 11000

$$$$
