AV-unprocessed.smi:1795|AV-procd|sdf|7246|dock9
  -GOLD-   22720 8493D 1   1.00000     0.00000
 Structure written by MMmdl.
 48 49  0  0  0  0  0  0  0  0  2 V2000
  148.7490  141.1598  154.7327 C   0  0  0  0  0  0  0  0  0  0  0  0
  149.4733  139.8330  154.9848 C   0  0  1  0  0  0  0  0  0  0  0  0
  149.0697  138.7495  153.9646 C   0  0  0  0  0  0  0  0  0  0  0  0
  149.8200  137.4847  154.1941 N   0  3  2  0  0  0  0  0  0  0  0  0
  149.3940  136.6292  155.3530 C   0  0  1  0  0  0  0  0  0  0  0  0
  149.4027  137.3779  156.7079 C   0  0  0  0  0  0  0  0  0  0  0  0
  147.9881  136.0383  155.0837 C   0  0  0  0  0  0  0  0  0  0  0  0
  147.9690  135.1686  153.9136 N   0  0  0  0  0  0  0  0  0  0  0  0
  147.5538  133.8941  153.9267 C   0  0  0  0  0  0  0  0  0  0  0  0
  147.1428  133.3335  154.9435 O   0  0  0  0  0  0  0  0  0  0  0  0
  147.5930  133.1604  152.5784 C   0  0  0  0  0  0  0  0  0  0  0  0
  146.2653  132.9935  151.9645 N   0  0  0  0  0  0  0  0  0  0  0  0
  145.9590  131.7236  151.4359 C   0  0  0  0  0  0  0  0  0  0  0  0
  144.7784  131.4631  150.8529 C   0  0  0  0  0  0  0  0  0  0  0  0
  143.8053  132.5269  150.7769 C   0  0  0  0  0  0  0  0  0  0  0  0
  144.0900  133.7468  151.2745 C   0  0  0  0  0  0  0  0  0  0  0  0
  145.3822  134.0378  151.9067 C   0  0  0  0  0  0  0  0  0  0  0  0
  145.6542  135.1513  152.3571 O   0  0  0  0  0  0  0  0  0  0  0  0
  151.2786  137.7826  154.1623 C   0  0  0  0  0  0  0  0  0  0  0  0
  151.6541  138.9118  155.1486 C   0  0  1  0  0  0  0  0  0  0  0  0
  153.1323  139.3009  155.0381 C   0  0  0  0  0  0  0  0  0  0  0  0
  150.8722  140.0669  154.8654 O   0  0  0  0  0  0  0  0  0  0  0  0
  147.6688  141.0400  154.8189 H   0  0  0  0  0  0  0  0  0  0  0  0
  148.9647  141.5452  153.7356 H   0  0  0  0  0  0  0  0  0  0  0  0
  149.0581  141.9158  155.4549 H   0  0  0  0  0  0  0  0  0  0  0  0
  149.2466  139.5020  155.9995 H   0  0  0  0  0  0  0  0  0  0  0  0
  147.9919  138.5957  153.9426 H   0  0  0  0  0  0  0  0  0  0  0  0
  149.3173  139.1024  152.9623 H   0  0  0  0  0  0  0  0  0  0  0  0
  150.0979  135.8031  155.4499 H   0  0  0  0  0  0  0  0  0  0  0  0
  149.0513  136.7455  157.5228 H   0  0  0  0  0  0  0  0  0  0  0  0
  148.7603  138.2588  156.6804 H   0  0  0  0  0  0  0  0  0  0  0  0
  150.4053  137.6941  156.9955 H   0  0  0  0  0  0  0  0  0  0  0  0
  147.6529  135.4713  155.9541 H   0  0  0  0  0  0  0  0  0  0  0  0
  147.2491  136.8216  154.9203 H   0  0  0  0  0  0  0  0  0  0  0  0
  148.2917  135.5584  153.0397 H   0  0  0  0  0  0  0  0  0  0  0  0
  148.2528  133.7144  151.9093 H   0  0  0  0  0  0  0  0  0  0  0  0
  148.0722  132.1884  152.7100 H   0  0  0  0  0  0  0  0  0  0  0  0
  146.7430  130.9855  151.5270 H   0  0  0  0  0  0  0  0  0  0  0  0
  144.5640  130.4850  150.4479 H   0  0  0  0  0  0  0  0  0  0  0  0
  142.8448  132.3435  150.3184 H   0  0  0  0  0  0  0  0  0  0  0  0
  143.3495  134.5305  151.2080 H   0  0  0  0  0  0  0  0  0  0  0  0
  151.8790  136.8966  154.3593 H   0  0  0  0  0  0  0  0  0  0  0  0
  151.5354  138.0920  153.1481 H   0  0  0  0  0  0  0  0  0  0  0  0
  151.4645  138.5992  156.1761 H   0  0  0  0  0  0  0  0  0  0  0  0
  153.7790  138.4532  155.2659 H   0  0  0  0  0  0  0  0  0  0  0  0
  153.3782  140.1015  155.7361 H   0  0  0  0  0  0  0  0  0  0  0  0
  153.3764  139.6484  154.0336 H   0  0  0  0  0  0  0  0  0  0  0  0
  149.6290  136.9173  153.3803 H   0  0  0  0  0  0  0  0  0  0  0  0
  1  2  1  0  0  0  0
  1 23  1  0  0  0  0
  1 24  1  0  0  0  0
  1 25  1  0  0  0  0
  2 22  1  0  0  0  0
  2  3  1  0  0  0  0
  2 26  1  0  0  0  0
  3  4  1  0  0  0  0
  3 27  1  0  0  0  0
  3 28  1  0  0  0  0
  4  5  1  0  0  0  0
  4 19  1  0  0  0  0
  4 48  1  0  0  0  0
  5  6  1  0  0  0  0
  5  7  1  0  0  0  0
  5 29  1  0  0  0  0
  6 30  1  0  0  0  0
  6 31  1  0  0  0  0
  6 32  1  0  0  0  0
  7  8  1  0  0  0  0
  7 33  1  0  0  0  0
  7 34  1  0  0  0  0
  8  9  1  0  0  0  0
  8 35  1  0  0  0  0
  9 10  2  0  0  0  0
  9 11  1  0  0  0  0
 11 12  1  0  0  0  0
 11 36  1  0  0  0  0
 11 37  1  0  0  0  0
 12 17  1  0  0  0  0
 12 13  1  0  0  0  0
 13 14  2  0  0  0  0
 13 38  1  0  0  0  0
 14 15  1  0  0  0  0
 14 39  1  0  0  0  0
 15 16  2  0  0  0  0
 15 40  1  0  0  0  0
 16 17  1  0  0  0  0
 16 41  1  0  0  0  0
 17 18  2  0  0  0  0
 19 20  1  0  0  0  0
 19 42  1  0  0  0  0
 19 43  1  0  0  0  0
 20 21  1  0  0  0  0
 20 22  1  0  0  0  0
 20 44  1  0  0  0  0
 21 45  1  0  0  0  0
 21 46  1  0  0  0  0
 21 47  1  0  0  0  0
M  CHG  1   4   1
M  END
> <s_m_source_file>
AV-unprocessed.smi

> <i_m_source_file_index>
1795

> <i_lp_mmshare_version>
43012

> <i_f3d_flags>
0

> <s_epik_input>
W0NIM11bQ0BASF0xW0NIMl1OKFtDSDJdW0NASF0oTzEpW0NIM10pW0NASF0oW0NIM10pW0NIMl1bTkhdQyg9TylbQ0gyXW4yW2NIXVtjSF1bY0hdW2NIXWMyPU8=

> <s_epik_cmdline>
J2VwaWtfcHl0aG9uJywgJy1waCcsICc3LjAnLCAnLXRuJywgJzgnLCAnLW1hJywgJzIwMCcsICctbWV0YWxfYmluZGluZycsICctaW1hZScsICc8aW5maWxlLm1hZT4nLCAnLW9tYWUnLCAnPG91dGZpbGUubWFlPic=

> <r_lp_tautomer_probability>
1

> <r_epik_Ionization_Penalty>
0.656654

> <r_epik_Ionization_Penalty_Charging>
0.656654

> <r_epik_Ionization_Penalty_Neutral>
8.90321e-08

> <r_epik_State_Penalty>
0.675641

> <r_epik_Charging_Adjusted_Penalty>
1.33229

> <i_epik_Tot_Q>
1

> <i_epik_Tot_abs_Q>
1

> <r_epik_Metal_State_Penalty>
0.675691

> <b_epik_Metal_Only>
0

> <s_lp_Force_Field>
OPLS_2005

> <r_lp_Energy>
32.8471

> <b_lp_Chiralities_Consistent>
1

> <s_lp_Variant>
AV-unprocessed.smi:1795-10

> <Gold.Version>
5.8.1

> <Gold.Id.Protein>
6NUR|6NUR_protein|mol2

> <Gold.PLP.Fitness>
49.9188

> <Gold.PLP.PLP>
-36.2803

> <Gold.PLP.part.hbond>
-2.8118

> <Gold.PLP.part.metal>
0.0000

> <Gold.PLP.part.buried>
-2.2123

> <Gold.PLP.part.nonpolar>
-32.3795

> <Gold.PLP.part.repulsive>
0.2196

> <Gold.PLP.ligand.clash>
0.0000

> <Gold.PLP.ligand.torsion>
0.5082

> <Gold.PLP.Chemscore.Hbond>
3.8613

> <Gold.PLP.Chemscore.CHOScore>
0.9938

> <Gold.PLP.Chemscore.Metal>
0.0000

> <Gold.Chemscore.Hbonds>
donor molecule, donor type, donor heavy atom, donor atom, acceptor molecule, acceptor atom, score
      L1  H     4    48       P1  7948  2.00
      L1  H     8    35       P1  7948  0.91
      P1  H  7989  7998       L1    22  1.00
      L1  C    13    38       P1 10747  0.91

> <Gold.PLP.Chemscore.Internal.Correction>
0.0898

> <Gold.Rescore>
     Score         DG    S(hbond)    S(metal)    S(lipo)     H(rot)  DE(clash)    DE(int)     intcor
     18.07     -20.07       2.70        0.00      88.93       1.89       0.29       1.71       ----

> <Gold.Chemscore.Fitness>
18.0734

> <Gold.Chemscore.DG>
-20.0723

> <Gold.Chemscore.ZeroCoef>
-5.4800

> <Gold.Chemscore.Hbond>
2.7001

> <Gold.Chemscore.Metal>
0.0000

> <Gold.Chemscore.Lipo>
88.9293

> <Gold.Chemscore.Internal_Hbond>
0.0000

> <Gold.Chemscore.DEClash>
0.2934

> <Gold.Chemscore.DEInternal>
1.7055

> <Gold.Chemscore.Rot>
1.8870

> <Gold.Chemscore.Internal.Correction>
   9.000000E+99

> <Gold.Chemscore.Hbonds>
donor molecule, donor type, donor heavy atom, donor atom, acceptor molecule, acceptor atom, score
      L1  H     4    48       P1  7948  0.65
      L1  H     8    35       P1  7948  0.87
      P1  H  7989  7998       L1    22  0.60

> <Gold.Chemscore.Hbond.Weighted>
-9.0183

> <Gold.Chemscore.Metal.Weighted>
-0.0000

> <Gold.Chemscore.Lipo.Weighted>
-10.4047

> <Gold.Chemscore.Internal_Hbond.Weighted>
0.0000

> <Gold.Chemscore.DEClash.Weighted>
0.2934

> <Gold.Chemscore.DEInternal.Weighted>
1.7055

> <Gold.Chemscore.Rot.Weighted>
4.8308

> <Gold.Chemscore.Internal.Correction.Weighted>
   9.000000E+99

> <Gold.Protein.RotatedTorsions>
[ 6907 6896 6895 6894 ] final   59.14 input  -60.11 | X-H torsion
[ 7974 7965 7964 7962 ] final  -21.76 input  175.53 | X-H torsion
[ 8008 7997 7996 7995 ] final   33.12 input   59.86 | X-H torsion
[ 10167 10162 10161 10158 ] final   73.64 input  -65.29 | X-H torsion
[ 10718 10713 10712 10709 ] final   41.56 input   66.30 | X-H torsion
[ 10763 10752 10751 10750 ] final  -40.31 input  -60.55 | X-H torsion
[ 11005 11000 10999 10996 ] final    7.78 input  -57.11 | X-H torsion

> <Gold.Protein.ActiveResidues>
 VAL166  LYS551  ARG553  GLY616  TRP617  ASP618  TYR619  PRO620  LYS621  CYS622 
 ASP623  PHE694  ASN695  SER759  ASP760  ASP761  ALA762  ILE779  LEU786  VAL792 
 PHE793  MET794  SER795  GLU796  ALA797  LYS798  CYS799  TRP800  GLU811  SER814 

> <Gold.Protein.RotatedAtoms>
  152.3887  134.6475  160.0115 H   0  0  0  0  0  0  0  0  0  0  0  0  # atno 6907 bound_to 6896
  151.6716  133.3308  159.3206 H   0  0  0  0  0  0  0  0  0  0  0  0  # atno 6908 bound_to 6896
  150.7808  134.6794  159.6480 H   0  0  0  0  0  0  0  0  0  0  0  0  # atno 6909 bound_to 6896
  146.1715  140.4385  142.8530 H   0  0  0  0  0  0  0  0  0  0  0  0  # atno 7974 bound_to 7965
  155.1335  140.3259  155.4468 H   0  0  0  0  0  0  0  0  0  0  0  0  # atno 8008 bound_to 7997
  156.2627  140.2006  156.6402 H   0  0  0  0  0  0  0  0  0  0  0  0  # atno 8009 bound_to 7997
  154.6595  140.0549  157.0033 H   0  0  0  0  0  0  0  0  0  0  0  0  # atno 8010 bound_to 7997
  140.0223  144.5531  150.7572 H   0  0  0  0  0  0  0  0  0  0  0  0  # atno 10167 bound_to 10162
  157.3949  130.7827  149.7300 H   0  0  0  0  0  0  0  0  0  0  0  0  # atno 10718 bound_to 10713
  153.9438  135.6758  153.4744 H   0  0  0  0  0  0  0  0  0  0  0  0  # atno 10763 bound_to 10752
  153.0918  135.4871  154.8701 H   0  0  0  0  0  0  0  0  0  0  0  0  # atno 10764 bound_to 10752
  154.7362  135.3150  154.8765 H   0  0  0  0  0  0  0  0  0  0  0  0  # atno 10765 bound_to 10752
  140.5444  134.0343  155.7915 H   0  0  0  0  0  0  0  0  0  0  0  0  # atno 11005 bound_to 11000
  144.8170  140.6484  143.6378 LP  0  0  0  0  0  0  0  0  0  0  0  0  # atno 17320 bound_to 7965
  145.4328  139.1546  143.4013 LP  0  0  0  0  0  0  0  0  0  0  0  0  # atno 17321 bound_to 7965
  140.7337  143.2720  151.3858 LP  0  0  0  0  0  0  0  0  0  0  0  0  # atno 17342 bound_to 10162
  139.6131  144.1057  152.2319 LP  0  0  0  0  0  0  0  0  0  0  0  0  # atno 17343 bound_to 10162
  155.9808  130.4026  150.3509 LP  0  0  0  0  0  0  0  0  0  0  0  0  # atno 17370 bound_to 10713
  157.1629  131.0349  151.2832 LP  0  0  0  0  0  0  0  0  0  0  0  0  # atno 17371 bound_to 10713
  141.1208  133.9464  157.2732 LP  0  0  0  0  0  0  0  0  0  0  0  0  # atno 17394 bound_to 11000
  139.9487  135.0179  156.8930 LP  0  0  0  0  0  0  0  0  0  0  0  0  # atno 17395 bound_to 11000

$$$$
