AV-unprocessed.smi:1005|AV-procd|sdf|4371|dock3
  -GOLD-   22720 2283D 1   1.00000     0.00000
 Structure written by MMmdl.
 57 59  0  0  0  0  0  0  0  0  3 V2000
  153.0666  142.7913  161.2964 C   0  0  0  0  0  0  0  0  0  0  0  0
  152.4536  142.4894  159.9398 C   0  0  0  0  0  0  0  0  0  0  0  0
  152.2972  141.1427  159.5438 C   0  0  0  0  0  0  0  0  0  0  0  0
  151.7583  140.8163  158.2804 C   0  0  0  0  0  0  0  0  0  0  0  0
  151.5235  139.5832  157.6998 N   0  0  0  0  0  0  0  0  0  0  0  0
  151.0279  139.9331  156.5173 C   0  0  0  0  0  0  0  0  0  0  0  0
  150.8919  141.2506  156.2695 N   0  0  0  0  0  0  0  0  0  0  0  0
  150.3685  141.8519  155.0526 C   0  0  0  0  0  0  0  0  0  0  0  0
  148.8477  141.6559  154.8797 C   0  0  1  0  0  0  0  0  0  0  0  0
  148.3542  142.7427  154.1236 O   0  0  0  0  0  0  0  0  0  0  0  0
  148.4626  140.3325  154.1749 C   0  0  0  0  0  0  0  0  0  0  0  0
  146.9940  140.1739  153.9937 N   0  3  1  0  0  0  0  0  0  0  0  0
  146.5067  140.6854  152.6896 C   0  0  0  0  0  0  0  0  0  0  0  0
  146.8220  139.6971  151.5517 C   0  0  0  0  0  0  0  0  0  0  0  0
  146.2551  138.4274  151.8542 O   0  0  0  0  0  0  0  0  0  0  0  0
  146.7906  137.8551  153.0435 C   0  0  2  0  0  0  0  0  0  0  0  0
  146.1439  136.4720  153.2413 C   0  0  0  0  0  0  0  0  0  0  0  0
  146.4617  135.5282  152.1395 N   0  3  0  0  0  0  0  0  0  0  0  0
  146.2121  134.1113  152.4888 C   0  0  0  0  0  0  0  0  0  0  0  0
  145.7859  135.8995  150.8767 C   0  0  0  0  0  0  0  0  0  0  0  0
  146.4776  138.7980  154.2269 C   0  0  0  0  0  0  0  0  0  0  0  0
  151.3755  141.8820  157.4135 C   0  0  0  0  0  0  0  0  0  0  0  0
  151.5210  143.2269  157.8005 C   0  0  0  0  0  0  0  0  0  0  0  0
  152.0559  143.5351  159.0689 C   0  0  0  0  0  0  0  0  0  0  0  0
  152.2026  144.9903  159.4765 C   0  0  0  0  0  0  0  0  0  0  0  0
  153.1588  141.8881  161.9004 H   0  0  0  0  0  0  0  0  0  0  0  0
  152.4592  143.5031  161.8549 H   0  0  0  0  0  0  0  0  0  0  0  0
  154.0635  143.2149  161.1715 H   0  0  0  0  0  0  0  0  0  0  0  0
  152.6017  140.3450  160.2058 H   0  0  0  0  0  0  0  0  0  0  0  0
  150.7376  139.1868  155.7921 H   0  0  0  0  0  0  0  0  0  0  0  0
  150.6159  142.9143  155.0627 H   0  0  0  0  0  0  0  0  0  0  0  0
  150.8979  141.4170  154.2030 H   0  0  0  0  0  0  0  0  0  0  0  0
  148.3909  141.7206  155.8637 H   0  0  0  0  0  0  0  0  0  0  0  0
  147.4795  142.5426  153.8280 H   0  0  0  0  0  0  0  0  0  0  0  0
  148.9635  140.2997  153.2060 H   0  0  0  0  0  0  0  0  0  0  0  0
  148.8383  139.4695  154.7207 H   0  0  0  0  0  0  0  0  0  0  0  0
  145.4268  140.8236  152.7564 H   0  0  0  0  0  0  0  0  0  0  0  0
  146.9278  141.6691  152.4786 H   0  0  0  0  0  0  0  0  0  0  0  0
  146.3945  140.0573  150.6158 H   0  0  0  0  0  0  0  0  0  0  0  0
  147.8970  139.6031  151.3911 H   0  0  0  0  0  0  0  0  0  0  0  0
  147.8691  137.7397  152.9419 H   0  0  0  0  0  0  0  0  0  0  0  0
  146.4541  136.0351  154.1923 H   0  0  0  0  0  0  0  0  0  0  0  0
  145.0629  136.6068  153.3052 H   0  0  0  0  0  0  0  0  0  0  0  0
  145.1527  133.9465  152.6831 H   0  0  0  0  0  0  0  0  0  0  0  0
  146.7740  133.8040  153.3698 H   0  0  0  0  0  0  0  0  0  0  0  0
  146.5105  133.4565  151.6697 H   0  0  0  0  0  0  0  0  0  0  0  0
  144.7013  135.8581  150.9869 H   0  0  0  0  0  0  0  0  0  0  0  0
  146.0737  135.2238  150.0705 H   0  0  0  0  0  0  0  0  0  0  0  0
  146.0611  136.9098  150.5721 H   0  0  0  0  0  0  0  0  0  0  0  0
  146.8590  138.3771  155.1553 H   0  0  0  0  0  0  0  0  0  0  0  0
  145.3964  138.8670  154.3554 H   0  0  0  0  0  0  0  0  0  0  0  0
  151.2339  144.0193  157.1262 H   0  0  0  0  0  0  0  0  0  0  0  0
  151.9409  145.6616  158.6581 H   0  0  0  0  0  0  0  0  0  0  0  0
  153.2303  145.2067  159.7692 H   0  0  0  0  0  0  0  0  0  0  0  0
  151.5471  145.2158  160.3180 H   0  0  0  0  0  0  0  0  0  0  0  0
  147.4521  135.6178  151.9602 H   0  0  0  0  0  0  0  0  0  0  0  0
  146.5753  140.7665  154.6968 H   0  0  0  0  0  0  0  0  0  0  0  0
  1  2  1  0  0  0  0
  1 26  1  0  0  0  0
  1 27  1  0  0  0  0
  1 28  1  0  0  0  0
  2 24  1  0  0  0  0
  2  3  2  0  0  0  0
  3  4  1  0  0  0  0
  3 29  1  0  0  0  0
  4 22  2  0  0  0  0
  4  5  1  0  0  0  0
  5  6  2  0  0  0  0
  6  7  1  0  0  0  0
  6 30  1  0  0  0  0
  7  8  1  0  0  0  0
  7 22  1  0  0  0  0
  8  9  1  0  0  0  0
  8 31  1  0  0  0  0
  8 32  1  0  0  0  0
  9 10  1  0  0  0  0
  9 11  1  0  0  0  0
  9 33  1  0  0  0  0
 10 34  1  0  0  0  0
 11 12  1  0  0  0  0
 11 35  1  0  0  0  0
 11 36  1  0  0  0  0
 12 21  1  0  0  0  0
 12 13  1  0  0  0  0
 12 57  1  0  0  0  0
 13 14  1  0  0  0  0
 13 37  1  0  0  0  0
 13 38  1  0  0  0  0
 14 15  1  0  0  0  0
 14 39  1  0  0  0  0
 14 40  1  0  0  0  0
 15 16  1  0  0  0  0
 16 17  1  0  0  0  0
 16 21  1  0  0  0  0
 16 41  1  0  0  0  0
 17 18  1  0  0  0  0
 17 42  1  0  0  0  0
 17 43  1  0  0  0  0
 18 19  1  0  0  0  0
 18 20  1  0  0  0  0
 18 56  1  0  0  0  0
 19 44  1  0  0  0  0
 19 45  1  0  0  0  0
 19 46  1  0  0  0  0
 20 47  1  0  0  0  0
 20 48  1  0  0  0  0
 20 49  1  0  0  0  0
 21 50  1  0  0  0  0
 21 51  1  0  0  0  0
 22 23  1  0  0  0  0
 23 24  2  0  0  0  0
 23 52  1  0  0  0  0
 24 25  1  0  0  0  0
 25 53  1  0  0  0  0
 25 54  1  0  0  0  0
 25 55  1  0  0  0  0
M  CHG  1  12   1
M  CHG  1  18   1
M  END
> <s_m_source_file>
AV-unprocessed.smi

> <i_m_source_file_index>
1005

> <i_lp_mmshare_version>
43012

> <i_f3d_flags>
0

> <s_epik_input>
W0NIM11jKFtjSF0xKWMoW0NIM10pW2NIXWMoYzEyKW4oW2NIXW4yKVtDSDJdW0NASF0oW09IXSlbQ0gyXU4zW0NIMl1bQ0gyXU9bQ0BIXShbQ0gyXTMpW0NIMl1OKFtDSDNdKVtDSDNd

> <s_epik_cmdline>
J2VwaWtfcHl0aG9uJywgJy1waCcsICc3LjAnLCAnLXRuJywgJzgnLCAnLW1hJywgJzIwMCcsICctbWV0YWxfYmluZGluZycsICctaW1hZScsICc8aW5maWxlLm1hZT4nLCAnLW9tYWUnLCAnPG91dGZpbGUubWFlPic=

> <r_epik_Ionization_Penalty>
1.0968

> <r_epik_Ionization_Penalty_Charging>
1.0096

> <r_epik_Ionization_Penalty_Neutral>
0.0871956

> <r_epik_State_Penalty>
1.31185

> <r_epik_Charging_Adjusted_Penalty>
2.32145

> <i_epik_Tot_Q>
2

> <i_epik_Tot_abs_Q>
2

> <r_epik_Metal_State_Penalty>
1.22442

> <b_epik_Metal_Only>
0

> <s_lp_Force_Field>
OPLS_2005

> <r_lp_Energy>
34.2577

> <b_lp_Chiralities_Consistent>
1

> <s_lp_Variant>
AV-unprocessed.smi:1005-10

> <Gold.Version>
5.8.1

> <Gold.Id.Protein>
6NUR|6NUR_protein|mol2

> <Gold.PLP.Fitness>
50.0826

> <Gold.PLP.PLP>
-43.1456

> <Gold.PLP.part.hbond>
-3.9654

> <Gold.PLP.part.metal>
0.0000

> <Gold.PLP.part.buried>
4.2751

> <Gold.PLP.part.nonpolar>
-43.1781

> <Gold.PLP.part.repulsive>
0.3529

> <Gold.PLP.ligand.clash>
0.0000

> <Gold.PLP.ligand.torsion>
1.0245

> <Gold.PLP.Chemscore.Hbond>
2.9321

> <Gold.PLP.Chemscore.CHOScore>
0.0000

> <Gold.PLP.Chemscore.Metal>
0.0000

> <Gold.Chemscore.Hbonds>
donor molecule, donor type, donor heavy atom, donor atom, acceptor molecule, acceptor atom, score
      L1  H    18    56       P1  7948  2.00
      P1  H  8011  8017       L1    10  0.01
      P1  H  8022  8030       L1    10  0.84

> <Gold.PLP.Chemscore.Internal.Correction>
0.1897

> <Gold.Rescore>
     Score         DG    S(hbond)    S(metal)    S(lipo)     H(rot)  DE(clash)    DE(int)     intcor
     13.63     -18.07       1.01        0.00     132.95       2.48       1.97       2.46       ----

> <Gold.Chemscore.Fitness>
13.6339

> <Gold.Chemscore.DG>
-18.0659

> <Gold.Chemscore.ZeroCoef>
-5.4800

> <Gold.Chemscore.Hbond>
1.0129

> <Gold.Chemscore.Metal>
0.0000

> <Gold.Chemscore.Lipo>
132.9502

> <Gold.Chemscore.Internal_Hbond>
0.0000

> <Gold.Chemscore.DEClash>
1.9709

> <Gold.Chemscore.DEInternal>
2.4610

> <Gold.Chemscore.Rot>
2.4814

> <Gold.Chemscore.Internal.Correction>
   9.000000E+99

> <Gold.Chemscore.Hbonds>
donor molecule, donor type, donor heavy atom, donor atom, acceptor molecule, acceptor atom, score
      L1  H    18    56       P1  7948  0.98
      P1  H  8022  8030       L1    10  0.32

> <Gold.Chemscore.Hbond.Weighted>
-3.3830

> <Gold.Chemscore.Metal.Weighted>
-0.0000

> <Gold.Chemscore.Lipo.Weighted>
-15.5552

> <Gold.Chemscore.Internal_Hbond.Weighted>
0.0000

> <Gold.Chemscore.DEClash.Weighted>
1.9709

> <Gold.Chemscore.DEInternal.Weighted>
2.4610

> <Gold.Chemscore.Rot.Weighted>
6.3524

> <Gold.Chemscore.Internal.Correction.Weighted>
   9.000000E+99

> <Gold.Protein.RotatedTorsions>
[ 6907 6896 6895 6894 ] final  -54.87 input  -60.11 | X-H torsion
[ 7974 7965 7964 7962 ] final   57.44 input  175.53 | X-H torsion
[ 8008 7997 7996 7995 ] final   15.57 input   59.86 | X-H torsion
[ 10167 10162 10161 10158 ] final  -53.62 input  -65.29 | X-H torsion
[ 10718 10713 10712 10709 ] final   33.21 input   66.30 | X-H torsion
[ 10763 10752 10751 10750 ] final   39.34 input  -60.55 | X-H torsion
[ 11005 11000 10999 10996 ] final   99.46 input  -57.11 | X-H torsion

> <Gold.Protein.ActiveResidues>
 VAL166  LYS551  ARG553  GLY616  TRP617  ASP618  TYR619  PRO620  LYS621  CYS622 
 ASP623  PHE694  ASN695  SER759  ASP760  ASP761  ALA762  ILE779  LEU786  VAL792 
 PHE793  MET794  SER795  GLU796  ALA797  LYS798  CYS799  TRP800  GLU811  SER814 

> <Gold.Protein.RotatedAtoms>
  150.8301  134.7550  159.6845 H   0  0  0  0  0  0  0  0  0  0  0  0  # atno 6907 bound_to 6896
  152.4406  134.5594  159.9899 H   0  0  0  0  0  0  0  0  0  0  0  0  # atno 6908 bound_to 6896
  151.5757  133.3346  159.3034 H   0  0  0  0  0  0  0  0  0  0  0  0  # atno 6909 bound_to 6896
  145.9291  139.3792  143.0432 H   0  0  0  0  0  0  0  0  0  0  0  0  # atno 7974 bound_to 7965
  154.8646  140.2949  155.5518 H   0  0  0  0  0  0  0  0  0  0  0  0  # atno 8008 bound_to 7997
  156.3020  140.2471  156.3558 H   0  0  0  0  0  0  0  0  0  0  0  0  # atno 8009 bound_to 7997
  154.8882  140.0395  157.1812 H   0  0  0  0  0  0  0  0  0  0  0  0  # atno 8010 bound_to 7997
  140.6475  143.2544  151.4818 H   0  0  0  0  0  0  0  0  0  0  0  0  # atno 10167 bound_to 10162
  157.2950  130.7322  149.6633 H   0  0  0  0  0  0  0  0  0  0  0  0  # atno 10718 bound_to 10713
  152.9970  135.6223  154.2449 H   0  0  0  0  0  0  0  0  0  0  0  0  # atno 10763 bound_to 10752
  154.2189  135.2796  155.2933 H   0  0  0  0  0  0  0  0  0  0  0  0  # atno 10764 bound_to 10752
  154.5545  135.5723  153.7010 H   0  0  0  0  0  0  0  0  0  0  0  0  # atno 10765 bound_to 10752
  139.8771  134.9096  156.4609 H   0  0  0  0  0  0  0  0  0  0  0  0  # atno 11005 bound_to 11000
  145.8450  140.9560  143.0779 LP  0  0  0  0  0  0  0  0  0  0  0  0  # atno 17320 bound_to 7965
  144.6762  140.0333  143.7482 LP  0  0  0  0  0  0  0  0  0  0  0  0  # atno 17321 bound_to 7965
  139.5687  144.1981  152.1803 LP  0  0  0  0  0  0  0  0  0  0  0  0  # atno 17342 bound_to 10162
  140.1270  144.5322  150.6826 LP  0  0  0  0  0  0  0  0  0  0  0  0  # atno 17343 bound_to 10162
  155.9669  130.4297  150.4844 LP  0  0  0  0  0  0  0  0  0  0  0  0  # atno 17370 bound_to 10713
  157.2814  131.0607  151.2195 LP  0  0  0  0  0  0  0  0  0  0  0  0  # atno 17371 bound_to 10713
  140.8865  133.7880  155.9524 LP  0  0  0  0  0  0  0  0  0  0  0  0  # atno 17394 bound_to 11000
  140.8799  134.2624  157.5149 LP  0  0  0  0  0  0  0  0  0  0  0  0  # atno 17395 bound_to 11000

$$$$
