AV-unprocessed.smi:1846|AV-procd|sdf|7514|dock1
  -GOLD-   22720 9223D 1   1.00000     0.00000
 Structure written by MMmdl.
 37 38  0  0  0  0  0  0  0  0  1 V2000
  153.1187  142.3670  161.2502 C   0  0  0  0  0  0  0  0  0  0  0  0
  153.4244  142.1481  159.7612 C   0  0  0  0  0  0  0  0  0  0  0  0
  152.5349  142.9395  158.8987 N   0  0  0  0  0  0  0  0  0  0  0  0
  152.6101  144.3911  159.1154 C   0  0  0  0  0  0  0  0  0  0  0  0
  151.2717  144.9618  159.6097 C   0  0  0  0  0  0  0  0  0  0  0  0
  151.7314  142.3416  157.9823 C   0  0  0  0  0  0  0  0  0  0  0  0
  150.9967  142.9965  157.2390 O   0  0  0  0  0  0  0  0  0  0  0  0
  151.7160  140.8017  157.8861 C   0  0  0  0  0  0  0  0  0  0  0  0
  151.0910  140.3201  156.6063 C   0  0  0  0  0  0  0  0  0  0  0  0
  151.6087  139.3972  155.7305 C   0  0  0  0  0  0  0  0  0  0  0  0
  150.5513  139.1188  154.3742 S   0  0  0  0  0  0  0  0  0  0  0  0
  149.4253  140.2977  155.0535 C   0  0  0  0  0  0  0  0  0  0  0  0
  148.1748  140.6946  154.4939 N   0  0  0  0  0  0  0  0  0  0  0  0
  147.6452  142.0419  154.6793 C   0  0  0  0  0  0  0  0  0  0  0  0
  146.3225  142.0227  153.9198 C   0  0  0  0  0  0  0  0  0  0  0  0
  146.2805  140.6699  153.4168 N   0  0  0  0  0  0  0  0  0  0  0  0
  147.3413  139.9343  153.7567 C   0  0  0  0  0  0  0  0  0  0  0  0
  147.4946  138.7586  153.4314 O   0  0  0  0  0  0  0  0  0  0  0  0
  149.8532  140.8314  156.2024 N   0  0  0  0  0  0  0  0  0  0  0  0
  153.7783  141.7622  161.8723 H   0  0  0  0  0  0  0  0  0  0  0  0
  152.0917  142.0866  161.4854 H   0  0  0  0  0  0  0  0  0  0  0  0
  153.2568  143.4089  161.5398 H   0  0  0  0  0  0  0  0  0  0  0  0
  154.4675  142.3957  159.5572 H   0  0  0  0  0  0  0  0  0  0  0  0
  153.3345  141.0867  159.5260 H   0  0  0  0  0  0  0  0  0  0  0  0
  153.3875  144.6141  159.8479 H   0  0  0  0  0  0  0  0  0  0  0  0
  152.9293  144.9095  158.2112 H   0  0  0  0  0  0  0  0  0  0  0  0
  151.3456  146.0385  159.7632 H   0  0  0  0  0  0  0  0  0  0  0  0
  150.9812  144.5127  160.5597 H   0  0  0  0  0  0  0  0  0  0  0  0
  150.4637  144.7845  158.9007 H   0  0  0  0  0  0  0  0  0  0  0  0
  152.7281  140.4069  157.9602 H   0  0  0  0  0  0  0  0  0  0  0  0
  151.1657  140.4089  158.7415 H   0  0  0  0  0  0  0  0  0  0  0  0
  152.5422  138.8596  155.8054 H   0  0  0  0  0  0  0  0  0  0  0  0
  147.4934  142.2543  155.7386 H   0  0  0  0  0  0  0  0  0  0  0  0
  148.3299  142.7857  154.2694 H   0  0  0  0  0  0  0  0  0  0  0  0
  145.4714  142.2168  154.5734 H   0  0  0  0  0  0  0  0  0  0  0  0
  146.3111  142.7389  153.0973 H   0  0  0  0  0  0  0  0  0  0  0  0
  145.5115  140.3226  152.8621 H   0  0  0  0  0  0  0  0  0  0  0  0
  1  2  1  0  0  0  0
  1 20  1  0  0  0  0
  1 21  1  0  0  0  0
  1 22  1  0  0  0  0
  2  3  1  0  0  0  0
  2 23  1  0  0  0  0
  2 24  1  0  0  0  0
  3  4  1  0  0  0  0
  3  6  1  0  0  0  0
  4  5  1  0  0  0  0
  4 25  1  0  0  0  0
  4 26  1  0  0  0  0
  5 27  1  0  0  0  0
  5 28  1  0  0  0  0
  5 29  1  0  0  0  0
  6  7  2  0  0  0  0
  6  8  1  0  0  0  0
  8  9  1  0  0  0  0
  8 30  1  0  0  0  0
  8 31  1  0  0  0  0
  9 19  1  0  0  0  0
  9 10  2  0  0  0  0
 10 11  1  0  0  0  0
 10 32  1  0  0  0  0
 11 12  1  0  0  0  0
 12 13  1  0  0  0  0
 12 19  2  0  0  0  0
 13 17  1  0  0  0  0
 13 14  1  0  0  0  0
 14 15  1  0  0  0  0
 14 33  1  0  0  0  0
 14 34  1  0  0  0  0
 15 16  1  0  0  0  0
 15 35  1  0  0  0  0
 15 36  1  0  0  0  0
 16 17  1  0  0  0  0
 16 37  1  0  0  0  0
 17 18  2  0  0  0  0
M  END
> <s_m_source_file>
AV-unprocessed.smi

> <i_m_source_file_index>
1846

> <i_lp_mmshare_version>
43012

> <i_f3d_flags>
0

> <s_epik_input>
W0NIM11bQ0gyXU4oW0NIMl1bQ0gzXSlDKD1PKVtDSDJdYzFbY0hdc2MobjEpTjJbQ0gyXVtDSDJdW05IXUMyPU8=

> <s_epik_cmdline>
J2VwaWtfcHl0aG9uJywgJy1waCcsICc3LjAnLCAnLXRuJywgJzgnLCAnLW1hJywgJzIwMCcsICctbWV0YWxfYmluZGluZycsICctaW1hZScsICc8aW5maWxlLm1hZT4nLCAnLW9tYWUnLCAnPG91dGZpbGUubWFlPic=

> <r_lp_tautomer_probability>
1

> <r_epik_Ionization_Penalty>
0.000125664

> <r_epik_Ionization_Penalty_Charging>
0

> <r_epik_Ionization_Penalty_Neutral>
0.000125664

> <r_epik_State_Penalty>
-0

> <r_epik_Charging_Adjusted_Penalty>
0

> <i_epik_Tot_Q>
0

> <i_epik_Tot_abs_Q>
0

> <r_epik_Metal_State_Penalty>
-0

> <b_epik_Metal_Only>
0

> <s_lp_Force_Field>
OPLS_2005

> <r_lp_Energy>
40.7708

> <b_lp_Chiralities_Consistent>
1

> <s_lp_Variant>
AV-unprocessed.smi:1846-1

> <Gold.Version>
5.8.1

> <Gold.Id.Protein>
6NUR|6NUR_protein|mol2

> <Gold.PLP.Fitness>
45.5412

> <Gold.PLP.PLP>
-44.4213

> <Gold.PLP.part.hbond>
-1.0000

> <Gold.PLP.part.metal>
0.0000

> <Gold.PLP.part.buried>
-4.6091

> <Gold.PLP.part.nonpolar>
-40.1118

> <Gold.PLP.part.repulsive>
0.5184

> <Gold.PLP.ligand.clash>
0.0000

> <Gold.PLP.ligand.torsion>
0.7350

> <Gold.PLP.Chemscore.Hbond>
0.8160

> <Gold.PLP.Chemscore.CHOScore>
0.0000

> <Gold.PLP.Chemscore.Metal>
0.0000

> <Gold.Chemscore.Hbonds>
donor molecule, donor type, donor heavy atom, donor atom, acceptor molecule, acceptor atom, score
      L1  H    16    37       P1 10175  0.91

> <Gold.PLP.Chemscore.Internal.Correction>
0.1418

> <Gold.Rescore>
     Score         DG    S(hbond)    S(metal)    S(lipo)     H(rot)  DE(clash)    DE(int)     intcor
     12.26     -14.59       0.95        0.00      87.08       1.66       0.03       2.30       ----

> <Gold.Chemscore.Fitness>
12.2558

> <Gold.Chemscore.DG>
-14.5860

> <Gold.Chemscore.ZeroCoef>
-5.4800

> <Gold.Chemscore.Hbond>
0.9468

> <Gold.Chemscore.Metal>
0.0000

> <Gold.Chemscore.Lipo>
87.0793

> <Gold.Chemscore.Internal_Hbond>
0.0000

> <Gold.Chemscore.DEClash>
0.0255

> <Gold.Chemscore.DEInternal>
2.3048

> <Gold.Chemscore.Rot>
1.6581

> <Gold.Chemscore.Internal.Correction>
   9.000000E+99

> <Gold.Chemscore.Hbonds>
donor molecule, donor type, donor heavy atom, donor atom, acceptor molecule, acceptor atom, score
      L1  H    16    37       P1 10175  0.81

> <Gold.Chemscore.Hbond.Weighted>
-3.1625

> <Gold.Chemscore.Metal.Weighted>
-0.0000

> <Gold.Chemscore.Lipo.Weighted>
-10.1883

> <Gold.Chemscore.Internal_Hbond.Weighted>
0.0000

> <Gold.Chemscore.DEClash.Weighted>
0.0255

> <Gold.Chemscore.DEInternal.Weighted>
2.3048

> <Gold.Chemscore.Rot.Weighted>
4.2447

> <Gold.Chemscore.Internal.Correction.Weighted>
   9.000000E+99

> <Gold.Protein.RotatedTorsions>
[ 6907 6896 6895 6894 ] final  -56.41 input  -60.11 | X-H torsion
[ 7974 7965 7964 7962 ] final -157.56 input  175.53 | X-H torsion
[ 8008 7997 7996 7995 ] final  114.39 input   59.86 | X-H torsion
[ 10167 10162 10161 10158 ] final  -49.15 input  -65.29 | X-H torsion
[ 10718 10713 10712 10709 ] final -104.81 input   66.30 | X-H torsion
[ 10763 10752 10751 10750 ] final -157.31 input  -60.55 | X-H torsion
[ 11005 11000 10999 10996 ] final   91.90 input  -57.11 | X-H torsion

> <Gold.Protein.ActiveResidues>
 VAL166  LYS551  ARG553  GLY616  TRP617  ASP618  TYR619  PRO620  LYS621  CYS622 
 ASP623  PHE694  ASN695  SER759  ASP760  ASP761  ALA762  ILE779  LEU786  VAL792 
 PHE793  MET794  SER795  GLU796  ALA797  LYS798  CYS799  TRP800  GLU811  SER814 

> <Gold.Protein.RotatedAtoms>
  150.8170  134.7357  159.6738 H   0  0  0  0  0  0  0  0  0  0  0  0  # atno 6907 bound_to 6896
  152.4288  134.5814  159.9958 H   0  0  0  0  0  0  0  0  0  0  0  0  # atno 6908 bound_to 6896
  151.6008  133.3319  159.3083 H   0  0  0  0  0  0  0  0  0  0  0  0  # atno 6909 bound_to 6896
  144.7543  140.3952  143.6024 H   0  0  0  0  0  0  0  0  0  0  0  0  # atno 7974 bound_to 7965
  156.2318  140.2960  156.0208 H   0  0  0  0  0  0  0  0  0  0  0  0  # atno 8008 bound_to 7997
  155.2204  140.0415  157.2964 H   0  0  0  0  0  0  0  0  0  0  0  0  # atno 8009 bound_to 7997
  154.6008  140.2426  155.7802 H   0  0  0  0  0  0  0  0  0  0  0  0  # atno 8010 bound_to 7997
  140.6698  143.2710  151.4173 H   0  0  0  0  0  0  0  0  0  0  0  0  # atno 10167 bound_to 10162
  156.0319  130.5533  150.7449 H   0  0  0  0  0  0  0  0  0  0  0  0  # atno 10718 bound_to 10713
  154.7646  135.3127  154.8312 H   0  0  0  0  0  0  0  0  0  0  0  0  # atno 10763 bound_to 10752
  153.9063  135.6810  153.4757 H   0  0  0  0  0  0  0  0  0  0  0  0  # atno 10764 bound_to 10752
  153.1250  135.4805  154.9190 H   0  0  0  0  0  0  0  0  0  0  0  0  # atno 10765 bound_to 10752
  139.8831  134.8702  156.3495 H   0  0  0  0  0  0  0  0  0  0  0  0  # atno 11005 bound_to 11000
  145.6834  139.1623  143.2688 LP  0  0  0  0  0  0  0  0  0  0  0  0  # atno 17320 bound_to 7965
  146.1534  140.6893  142.9311 LP  0  0  0  0  0  0  0  0  0  0  0  0  # atno 17321 bound_to 7965
  139.5962  144.1393  152.2146 LP  0  0  0  0  0  0  0  0  0  0  0  0  # atno 17342 bound_to 10162
  140.0762  144.5738  150.7155 LP  0  0  0  0  0  0  0  0  0  0  0  0  # atno 17343 bound_to 10162
  157.5008  131.0918  151.0316 LP  0  0  0  0  0  0  0  0  0  0  0  0  # atno 17370 bound_to 10713
  157.0697  130.5859  149.5400 LP  0  0  0  0  0  0  0  0  0  0  0  0  # atno 17371 bound_to 10713
  140.9604  133.7392  156.0393 LP  0  0  0  0  0  0  0  0  0  0  0  0  # atno 17394 bound_to 11000
  140.7997  134.3523  157.5443 LP  0  0  0  0  0  0  0  0  0  0  0  0  # atno 17395 bound_to 11000

$$$$
