AV-unprocessed.smi:3104|AV-procd|sdf|11817|dock10
  -GOLD-   2272017193D 1   1.00000     0.00000
 Structure written by MMmdl.
 37 38  0  0  0  0  0  0  0  0  2 V2000
  147.1313  140.6835  153.0345 C   0  0  0  0  0  0  0  0  0  0  0  0
  148.3502  140.4043  153.8654 C   0  0  0  0  0  0  0  0  0  0  0  0
  149.0423  139.1697  154.0139 C   0  0  0  0  0  0  0  0  0  0  0  0
  150.0927  139.2630  154.8121 N   0  0  0  0  0  0  0  0  0  0  0  0
  150.1006  140.5513  155.2182 N   0  0  0  0  0  0  0  0  0  0  0  0
  151.1662  141.0214  156.0970 C   0  0  2  0  0  0  0  0  0  0  0  0
  152.0982  139.8509  156.4637 C   0  0  0  0  0  0  0  0  0  0  0  0
  150.5893  141.7602  157.3349 C   0  0  1  0  0  0  0  0  0  0  0  0
  151.2554  141.3222  158.6499 C   0  0  0  0  0  0  0  0  0  0  0  0
  150.7512  143.2265  157.1902 N   0  3  0  0  0  0  0  0  0  0  0  0
  150.4954  144.0044  158.4192 C   0  0  0  0  0  0  0  0  0  0  0  0
  151.7845  144.5441  159.0012 C   0  0  0  0  0  0  0  0  0  0  0  0
  152.3997  143.8886  160.2165 C   0  0  0  0  0  0  0  0  0  0  0  0
  151.7933  145.2649  160.3301 C   0  0  0  0  0  0  0  0  0  0  0  0
  149.0625  141.2646  154.6518 C   0  0  0  0  0  0  0  0  0  0  0  0
  146.6392  139.7648  152.7144 H   0  0  0  0  0  0  0  0  0  0  0  0
  147.3798  141.2453  152.1340 H   0  0  0  0  0  0  0  0  0  0  0  0
  146.3933  141.2667  153.5856 H   0  0  0  0  0  0  0  0  0  0  0  0
  148.8184  138.2154  153.5598 H   0  0  0  0  0  0  0  0  0  0  0  0
  151.7642  141.7356  155.5273 H   0  0  0  0  0  0  0  0  0  0  0  0
  153.0014  140.1976  156.9652 H   0  0  0  0  0  0  0  0  0  0  0  0
  152.4196  139.3135  155.5706 H   0  0  0  0  0  0  0  0  0  0  0  0
  151.6057  139.1353  157.1227 H   0  0  0  0  0  0  0  0  0  0  0  0
  149.5260  141.5276  157.4169 H   0  0  0  0  0  0  0  0  0  0  0  0
  151.0621  140.2728  158.8712 H   0  0  0  0  0  0  0  0  0  0  0  0
  150.8714  141.8983  159.4927 H   0  0  0  0  0  0  0  0  0  0  0  0
  152.3361  141.4643  158.6161 H   0  0  0  0  0  0  0  0  0  0  0  0
  151.6964  143.4167  156.8898 H   0  0  0  0  0  0  0  0  0  0  0  0
  149.8172  144.8324  158.2114 H   0  0  0  0  0  0  0  0  0  0  0  0
  150.0125  143.3639  159.1580 H   0  0  0  0  0  0  0  0  0  0  0  0
  152.4961  144.8918  158.2545 H   0  0  0  0  0  0  0  0  0  0  0  0
  151.8599  143.0645  160.6786 H   0  0  0  0  0  0  0  0  0  0  0  0
  153.4848  143.8133  160.2528 H   0  0  0  0  0  0  0  0  0  0  0  0
  152.4735  146.1068  160.4405 H   0  0  0  0  0  0  0  0  0  0  0  0
  150.8512  145.3538  160.8677 H   0  0  0  0  0  0  0  0  0  0  0  0
  148.9194  142.3172  154.8475 H   0  0  0  0  0  0  0  0  0  0  0  0
  150.1163  143.5427  156.4702 H   0  0  0  0  0  0  0  0  0  0  0  0
  1  2  1  0  0  0  0
  1 16  1  0  0  0  0
  1 17  1  0  0  0  0
  1 18  1  0  0  0  0
  2 15  2  0  0  0  0
  2  3  1  0  0  0  0
  3  4  2  0  0  0  0
  3 19  1  0  0  0  0
  4  5  1  0  0  0  0
  5  6  1  0  0  0  0
  5 15  1  0  0  0  0
  6  7  1  0  0  0  0
  6  8  1  0  0  0  0
  6 20  1  0  0  0  0
  7 21  1  0  0  0  0
  7 22  1  0  0  0  0
  7 23  1  0  0  0  0
  8  9  1  0  0  0  0
  8 10  1  0  0  0  0
  8 24  1  0  0  0  0
  9 25  1  0  0  0  0
  9 26  1  0  0  0  0
  9 27  1  0  0  0  0
 10 11  1  0  0  0  0
 10 28  1  0  0  0  0
 10 37  1  0  0  0  0
 11 12  1  0  0  0  0
 11 29  1  0  0  0  0
 11 30  1  0  0  0  0
 12 14  1  0  0  0  0
 12 13  1  0  0  0  0
 12 31  1  0  0  0  0
 13 14  1  0  0  0  0
 13 32  1  0  0  0  0
 13 33  1  0  0  0  0
 14 34  1  0  0  0  0
 14 35  1  0  0  0  0
 15 36  1  0  0  0  0
M  CHG  1  10   1
M  END
> <s_m_source_file>
AV-unprocessed.smi

> <i_m_source_file_index>
3104

> <i_lp_mmshare_version>
43012

> <i_f3d_flags>
0

> <s_epik_input>
W0NIM11jMVtjSF1ubihbY0hdMSlbQ0BIXShbQ0gzXSlbQ0BIXShbQ0gzXSlbTkhdW0NIMl1bQ0hdMltDSDJdW0NIMl0y

> <s_epik_cmdline>
J2VwaWtfcHl0aG9uJywgJy1waCcsICc3LjAnLCAnLXRuJywgJzgnLCAnLW1hJywgJzIwMCcsICctbWV0YWxfYmluZGluZycsICctaW1hZScsICc8aW5maWxlLm1hZT4nLCAnLW9tYWUnLCAnPG91dGZpbGUubWFlPic=

> <r_lp_tautomer_probability>
1

> <r_epik_Ionization_Penalty>
0.00120445

> <r_epik_Ionization_Penalty_Charging>
0.00118273

> <r_epik_Ionization_Penalty_Neutral>
2.17265e-05

> <r_epik_State_Penalty>
-0

> <r_epik_Charging_Adjusted_Penalty>
0.00118273

> <i_epik_Tot_Q>
1

> <i_epik_Tot_abs_Q>
1

> <r_epik_Metal_State_Penalty>
-0

> <b_epik_Metal_Only>
0

> <s_lp_Force_Field>
OPLS_2005

> <r_lp_Energy>
20.7188

> <b_lp_Chiralities_Consistent>
1

> <s_lp_Variant>
AV-unprocessed.smi:3104-3

> <Gold.Version>
5.8.1

> <Gold.Id.Protein>
6NUR|6NUR_protein|mol2

> <Gold.PLP.Fitness>
44.4749

> <Gold.PLP.PLP>
-36.7191

> <Gold.PLP.part.hbond>
-1.0000

> <Gold.PLP.part.metal>
0.0000

> <Gold.PLP.part.buried>
-0.5785

> <Gold.PLP.part.nonpolar>
-34.4468

> <Gold.PLP.part.repulsive>
0.1149

> <Gold.PLP.ligand.clash>
0.0000

> <Gold.PLP.ligand.torsion>
2.1452

> <Gold.PLP.Chemscore.Hbond>
2.0000

> <Gold.PLP.Chemscore.CHOScore>
1.8086

> <Gold.PLP.Chemscore.Metal>
0.0000

> <Gold.Chemscore.Hbonds>
donor molecule, donor type, donor heavy atom, donor atom, acceptor molecule, acceptor atom, score
      L1  H    10    37       P1  8028  2.00
      L1  C     3    19       P1  7948  0.84
      L1  C    15    36       P1  8028  1.00

> <Gold.PLP.Chemscore.Internal.Correction>
0.6202

> <Gold.Rescore>
     Score         DG    S(hbond)    S(metal)    S(lipo)     H(rot)  DE(clash)    DE(int)     intcor
     14.96     -17.10       0.99        0.00     103.58       1.49       0.06       2.07       ----

> <Gold.Chemscore.Fitness>
14.9620

> <Gold.Chemscore.DG>
-17.0975

> <Gold.Chemscore.ZeroCoef>
-5.4800

> <Gold.Chemscore.Hbond>
0.9937

> <Gold.Chemscore.Metal>
0.0000

> <Gold.Chemscore.Lipo>
103.5799

> <Gold.Chemscore.Internal_Hbond>
0.0000

> <Gold.Chemscore.DEClash>
0.0626

> <Gold.Chemscore.DEInternal>
2.0729

> <Gold.Chemscore.Rot>
1.4923

> <Gold.Chemscore.Internal.Correction>
   9.000000E+99

> <Gold.Chemscore.Hbonds>
donor molecule, donor type, donor heavy atom, donor atom, acceptor molecule, acceptor atom, score
      L1  H    10    37       P1  8028  0.98

> <Gold.Chemscore.Hbond.Weighted>
-3.3190

> <Gold.Chemscore.Metal.Weighted>
-0.0000

> <Gold.Chemscore.Lipo.Weighted>
-12.1189

> <Gold.Chemscore.Internal_Hbond.Weighted>
0.0000

> <Gold.Chemscore.DEClash.Weighted>
0.0626

> <Gold.Chemscore.DEInternal.Weighted>
2.0729

> <Gold.Chemscore.Rot.Weighted>
3.8204

> <Gold.Chemscore.Internal.Correction.Weighted>
   9.000000E+99

> <Gold.Protein.RotatedTorsions>
[ 6907 6896 6895 6894 ] final   43.14 input  -60.11 | X-H torsion
[ 7974 7965 7964 7962 ] final  -56.49 input  175.53 | X-H torsion
[ 8008 7997 7996 7995 ] final   32.11 input   59.86 | X-H torsion
[ 10167 10162 10161 10158 ] final -171.26 input  -65.29 | X-H torsion
[ 10718 10713 10712 10709 ] final   58.21 input   66.30 | X-H torsion
[ 10763 10752 10751 10750 ] final -101.45 input  -60.55 | X-H torsion
[ 11005 11000 10999 10996 ] final -154.86 input  -57.11 | X-H torsion

> <Gold.Protein.ActiveResidues>
 VAL166  LYS551  ARG553  GLY616  TRP617  ASP618  TYR619  PRO620  LYS621  CYS622 
 ASP623  PHE694  ASN695  SER759  ASP760  ASP761  ALA762  ILE779  LEU786  VAL792 
 PHE793  MET794  SER795  GLU796  ALA797  LYS798  CYS799  TRP800  GLU811  SER814 

> <Gold.Protein.RotatedAtoms>
  152.2166  134.8452  160.0490 H   0  0  0  0  0  0  0  0  0  0  0  0  # atno 6907 bound_to 6896
  151.9251  133.3591  159.3919 H   0  0  0  0  0  0  0  0  0  0  0  0  # atno 6908 bound_to 6896
  150.6989  134.4520  159.5385 H   0  0  0  0  0  0  0  0  0  0  0  0  # atno 6909 bound_to 6896
  145.8621  140.8278  142.9931 H   0  0  0  0  0  0  0  0  0  0  0  0  # atno 7974 bound_to 7965
  155.1172  140.3245  155.4506 H   0  0  0  0  0  0  0  0  0  0  0  0  # atno 8008 bound_to 7997
  156.2673  140.2033  156.6243 H   0  0  0  0  0  0  0  0  0  0  0  0  # atno 8009 bound_to 7997
  154.6711  140.0536  157.0153 H   0  0  0  0  0  0  0  0  0  0  0  0  # atno 8010 bound_to 7997
  139.5813  144.1418  152.1518 H   0  0  0  0  0  0  0  0  0  0  0  0  # atno 10167 bound_to 10162
  157.5578  130.8813  149.9063 H   0  0  0  0  0  0  0  0  0  0  0  0  # atno 10718 bound_to 10713
  154.7658  135.4897  153.9552 H   0  0  0  0  0  0  0  0  0  0  0  0  # atno 10763 bound_to 10752
  153.1307  135.6752  153.9191 H   0  0  0  0  0  0  0  0  0  0  0  0  # atno 10764 bound_to 10752
  153.8896  135.3122  155.3426 H   0  0  0  0  0  0  0  0  0  0  0  0  # atno 10765 bound_to 10752
  140.6928  134.4023  157.5217 H   0  0  0  0  0  0  0  0  0  0  0  0  # atno 11005 bound_to 11000
  144.6726  140.1111  143.7455 LP  0  0  0  0  0  0  0  0  0  0  0  0  # atno 17320 bound_to 7965
  145.9236  139.2561  143.1367 LP  0  0  0  0  0  0  0  0  0  0  0  0  # atno 17321 bound_to 7965
  140.0971  144.5571  150.7014 LP  0  0  0  0  0  0  0  0  0  0  0  0  # atno 17342 bound_to 10162
  140.7090  143.2490  151.4638 LP  0  0  0  0  0  0  0  0  0  0  0  0  # atno 17343 bound_to 10162
  156.0634  130.3696  150.0931 LP  0  0  0  0  0  0  0  0  0  0  0  0  # atno 17370 bound_to 10713
  156.9098  130.9648  151.3564 LP  0  0  0  0  0  0  0  0  0  0  0  0  # atno 17371 bound_to 10713
  139.8918  134.8769  156.2299 LP  0  0  0  0  0  0  0  0  0  0  0  0  # atno 17394 bound_to 11000
  141.0227  133.7032  156.1296 LP  0  0  0  0  0  0  0  0  0  0  0  0  # atno 17395 bound_to 11000

$$$$
