AV-unprocessed.smi:3281|AV-procd|sdf|12559|dock3
  -GOLD-   2272018483D 1   1.00000     0.00000
 Structure written by MMmdl.
 36 37  0  0  0  0  0  0  0  0  1 V2000
  144.3579  143.8806  154.6384 C   0  0  0  0  0  0  0  0  0  0  0  0
  144.7073  142.5275  155.2671 C   0  0  0  0  0  0  0  0  0  0  0  0
  146.0875  142.0631  154.9368 C   0  0  0  0  0  0  0  0  0  0  0  0
  146.5519  141.6132  153.7257 C   0  0  0  0  0  0  0  0  0  0  0  0
  147.9021  141.2567  153.7347 N   0  0  0  0  0  0  0  0  0  0  0  0
  148.4645  141.4170  154.9349 C   0  0  0  0  0  0  0  0  0  0  0  0
  149.9094  141.1465  155.2084 C   0  0  0  0  0  0  0  0  0  0  0  0
  150.3097  141.4047  156.6699 C   0  0  0  0  0  0  0  0  0  0  0  0
  150.7539  142.7819  156.8396 N   0  0  0  0  0  0  0  0  0  0  0  0
  150.9374  143.1318  158.2421 C   0  0  1  0  0  0  0  0  0  0  0  0
  151.9279  142.1503  158.9080 C   0  0  0  0  0  0  0  0  0  0  0  0
  152.1737  142.4742  160.3906 C   0  0  0  0  0  0  0  0  0  0  0  0
  152.7718  143.8726  160.5952 C   0  0  0  0  0  0  0  0  0  0  0  0
  151.6422  145.1596  160.0009 S   0  0  0  0  0  0  0  0  0  0  0  0
  151.4560  144.5802  158.2927 C   0  0  0  0  0  0  0  0  0  0  0  0
  147.3482  142.0442  156.1433 S   0  0  0  0  0  0  0  0  0  0  0  0
  143.3464  144.1842  154.9089 H   0  0  0  0  0  0  0  0  0  0  0  0
  144.4120  143.8373  153.5503 H   0  0  0  0  0  0  0  0  0  0  0  0
  145.0414  144.6593  154.9776 H   0  0  0  0  0  0  0  0  0  0  0  0
  144.5956  142.5957  156.3497 H   0  0  0  0  0  0  0  0  0  0  0  0
  143.9867  141.7788  154.9370 H   0  0  0  0  0  0  0  0  0  0  0  0
  145.9929  141.5183  152.8063 H   0  0  0  0  0  0  0  0  0  0  0  0
  150.1342  140.1163  154.9295 H   0  0  0  0  0  0  0  0  0  0  0  0
  150.5077  141.7786  154.5513 H   0  0  0  0  0  0  0  0  0  0  0  0
  149.4543  141.2272  157.3227 H   0  0  0  0  0  0  0  0  0  0  0  0
  151.0897  140.7025  156.9633 H   0  0  0  0  0  0  0  0  0  0  0  0
  150.0666  143.3969  156.4275 H   0  0  0  0  0  0  0  0  0  0  0  0
  149.9733  143.0942  158.7517 H   0  0  0  0  0  0  0  0  0  0  0  0
  151.5552  141.1285  158.8402 H   0  0  0  0  0  0  0  0  0  0  0  0
  152.8783  142.1613  158.3721 H   0  0  0  0  0  0  0  0  0  0  0  0
  151.2399  142.3879  160.9474 H   0  0  0  0  0  0  0  0  0  0  0  0
  152.8502  141.7302  160.8121 H   0  0  0  0  0  0  0  0  0  0  0  0
  152.9745  144.0459  161.6521 H   0  0  0  0  0  0  0  0  0  0  0  0
  153.7223  143.9610  160.0680 H   0  0  0  0  0  0  0  0  0  0  0  0
  152.4185  144.6640  157.7860 H   0  0  0  0  0  0  0  0  0  0  0  0
  150.7653  145.2518  157.7813 H   0  0  0  0  0  0  0  0  0  0  0  0
  1  2  1  0  0  0  0
  1 17  1  0  0  0  0
  1 18  1  0  0  0  0
  1 19  1  0  0  0  0
  2  3  1  0  0  0  0
  2 20  1  0  0  0  0
  2 21  1  0  0  0  0
  3 16  1  0  0  0  0
  3  4  2  0  0  0  0
  4  5  1  0  0  0  0
  4 22  1  0  0  0  0
  5  6  2  0  0  0  0
  6  7  1  0  0  0  0
  6 16  1  0  0  0  0
  7  8  1  0  0  0  0
  7 23  1  0  0  0  0
  7 24  1  0  0  0  0
  8  9  1  0  0  0  0
  8 25  1  0  0  0  0
  8 26  1  0  0  0  0
  9 10  1  0  0  0  0
  9 27  1  0  0  0  0
 10 15  1  0  0  0  0
 10 11  1  0  0  0  0
 10 28  1  0  0  0  0
 11 12  1  0  0  0  0
 11 29  1  0  0  0  0
 11 30  1  0  0  0  0
 12 13  1  0  0  0  0
 12 31  1  0  0  0  0
 12 32  1  0  0  0  0
 13 14  1  0  0  0  0
 13 33  1  0  0  0  0
 13 34  1  0  0  0  0
 14 15  1  0  0  0  0
 15 35  1  0  0  0  0
 15 36  1  0  0  0  0
M  END
> <s_m_source_file>
AV-unprocessed.smi

> <i_m_source_file_index>
3281

> <i_lp_mmshare_version>
43012

> <i_f3d_flags>
0

> <s_epik_input>
W0NIM11bQ0gyXWMxW2NIXW5jKHMxKVtDSDJdW0NIMl1bTkhdW0NAQEhdMltDSDJdW0NIMl1bQ0gyXVNbQ0gyXTI=

> <s_epik_cmdline>
J2VwaWtfcHl0aG9uJywgJy1waCcsICc3LjAnLCAnLXRuJywgJzgnLCAnLW1hJywgJzIwMCcsICctbWV0YWxfYmluZGluZycsICctaW1hZScsICc8aW5maWxlLm1hZT4nLCAnLW9tYWUnLCAnPG91dGZpbGUubWFlPic=

> <r_epik_Ionization_Penalty>
2.53829

> <r_epik_Ionization_Penalty_Charging>
0

> <r_epik_Ionization_Penalty_Neutral>
2.53829

> <r_epik_State_Penalty>
2.70274

> <r_epik_Charging_Adjusted_Penalty>
2.70274

> <i_epik_Tot_Q>
0

> <i_epik_Tot_abs_Q>
0

> <r_epik_Metal_State_Penalty>
2.69977

> <b_epik_Metal_Only>
0

> <s_lp_Force_Field>
OPLS_2005

> <r_lp_Energy>
0.42492

> <b_lp_Chiralities_Consistent>
1

> <s_lp_Variant>
AV-unprocessed.smi:3281-4

> <Gold.Version>
5.8.1

> <Gold.Id.Protein>
6NUR|6NUR_protein|mol2

> <Gold.PLP.Fitness>
38.5281

> <Gold.PLP.PLP>
-34.8906

> <Gold.PLP.part.hbond>
-1.0000

> <Gold.PLP.part.metal>
0.0000

> <Gold.PLP.part.buried>
-4.9642

> <Gold.PLP.part.nonpolar>
-30.5232

> <Gold.PLP.part.repulsive>
0.1654

> <Gold.PLP.ligand.clash>
0.0000

> <Gold.PLP.ligand.torsion>
0.3348

> <Gold.PLP.Chemscore.Hbond>
1.0000

> <Gold.PLP.Chemscore.CHOScore>
0.4232

> <Gold.PLP.Chemscore.Metal>
0.0000

> <Gold.Chemscore.Hbonds>
donor molecule, donor type, donor heavy atom, donor atom, acceptor molecule, acceptor atom, score
      L1  H     9    27       P1  8028  1.00
      L1  C     4    22       P1 10175  0.47

> <Gold.PLP.Chemscore.Internal.Correction>
0.0375

> <Gold.Rescore>
     Score         DG    S(hbond)    S(metal)    S(lipo)     H(rot)  DE(clash)    DE(int)     intcor
     17.85     -18.25       1.00        0.00     109.10       1.30       0.10       0.30       ----

> <Gold.Chemscore.Fitness>
17.8478

> <Gold.Chemscore.DG>
-18.2484

> <Gold.Chemscore.ZeroCoef>
-5.4800

> <Gold.Chemscore.Hbond>
0.9953

> <Gold.Chemscore.Metal>
0.0000

> <Gold.Chemscore.Lipo>
109.1002

> <Gold.Chemscore.Internal_Hbond>
0.0000

> <Gold.Chemscore.DEClash>
0.1007

> <Gold.Chemscore.DEInternal>
0.2999

> <Gold.Chemscore.Rot>
1.2972

> <Gold.Chemscore.Internal.Correction>
   9.000000E+99

> <Gold.Chemscore.Hbonds>
donor molecule, donor type, donor heavy atom, donor atom, acceptor molecule, acceptor atom, score
      L1  H     9    27       P1  8028  1.00

> <Gold.Chemscore.Hbond.Weighted>
-3.3244

> <Gold.Chemscore.Metal.Weighted>
-0.0000

> <Gold.Chemscore.Lipo.Weighted>
-12.7647

> <Gold.Chemscore.Internal_Hbond.Weighted>
0.0000

> <Gold.Chemscore.DEClash.Weighted>
0.1007

> <Gold.Chemscore.DEInternal.Weighted>
0.2999

> <Gold.Chemscore.Rot.Weighted>
3.3208

> <Gold.Chemscore.Internal.Correction.Weighted>
   9.000000E+99

> <Gold.Protein.RotatedTorsions>
[ 6907 6896 6895 6894 ] final -179.75 input  -60.11 | X-H torsion
[ 7974 7965 7964 7962 ] final   48.20 input  175.53 | X-H torsion
[ 8008 7997 7996 7995 ] final   44.46 input   59.86 | X-H torsion
[ 10167 10162 10161 10158 ] final -130.11 input  -65.29 | X-H torsion
[ 10718 10713 10712 10709 ] final -112.71 input   66.30 | X-H torsion
[ 10763 10752 10751 10750 ] final   60.30 input  -60.55 | X-H torsion
[ 11005 11000 10999 10996 ] final  -41.88 input  -57.11 | X-H torsion

> <Gold.Protein.ActiveResidues>
 VAL166  LYS551  ARG553  GLY616  TRP617  ASP618  TYR619  PRO620  LYS621  CYS622 
 ASP623  PHE694  ASN695  SER759  ASP760  ASP761  ALA762  ILE779  LEU786  VAL792 
 PHE793  MET794  SER795  GLU796  ALA797  LYS798  CYS799  TRP800  GLU811  SER814 

> <Gold.Protein.RotatedAtoms>
  151.6585  133.3318  159.3168 H   0  0  0  0  0  0  0  0  0  0  0  0  # atno 6907 bound_to 6896
  150.7925  134.6963  159.6534 H   0  0  0  0  0  0  0  0  0  0  0  0  # atno 6908 bound_to 6896
  152.4007  134.6295  160.0123 H   0  0  0  0  0  0  0  0  0  0  0  0  # atno 6909 bound_to 6896
  146.0226  139.4669  142.9887 H   0  0  0  0  0  0  0  0  0  0  0  0  # atno 7974 bound_to 7965
  155.3196  140.3396  155.4241 H   0  0  0  0  0  0  0  0  0  0  0  0  # atno 8008 bound_to 7997
  156.1915  140.1699  156.8119 H   0  0  0  0  0  0  0  0  0  0  0  0  # atno 8009 bound_to 7997
  154.5448  140.0717  156.8554 H   0  0  0  0  0  0  0  0  0  0  0  0  # atno 8010 bound_to 7997
  139.9327  143.6253  152.2525 H   0  0  0  0  0  0  0  0  0  0  0  0  # atno 10167 bound_to 10162
  156.0722  130.5934  150.8545 H   0  0  0  0  0  0  0  0  0  0  0  0  # atno 10718 bound_to 10713
  152.9917  135.5541  154.5851 H   0  0  0  0  0  0  0  0  0  0  0  0  # atno 10763 bound_to 10752
  154.5224  135.2808  155.1253 H   0  0  0  0  0  0  0  0  0  0  0  0  # atno 10764 bound_to 10752
  154.2601  135.6382  153.5324 H   0  0  0  0  0  0  0  0  0  0  0  0  # atno 10765 bound_to 10752
  141.0277  133.6834  156.2518 H   0  0  0  0  0  0  0  0  0  0  0  0  # atno 11005 bound_to 11000
  145.7169  141.0088  143.1423 LP  0  0  0  0  0  0  0  0  0  0  0  0  # atno 17320 bound_to 7965
  144.6996  139.8823  143.7448 LP  0  0  0  0  0  0  0  0  0  0  0  0  # atno 17321 bound_to 7965
  139.6769  144.7658  151.1680 LP  0  0  0  0  0  0  0  0  0  0  0  0  # atno 17342 bound_to 10162
  140.7633  143.5782  150.8923 LP  0  0  0  0  0  0  0  0  0  0  0  0  # atno 17343 bound_to 10162
  157.5799  131.0946  150.9287 LP  0  0  0  0  0  0  0  0  0  0  0  0  # atno 17370 bound_to 10713
  156.9485  130.5411  149.5282 LP  0  0  0  0  0  0  0  0  0  0  0  0  # atno 17371 bound_to 10713
  140.6462  134.5114  157.5574 LP  0  0  0  0  0  0  0  0  0  0  0  0  # atno 17394 bound_to 11000
  139.9187  134.8193  156.1282 LP  0  0  0  0  0  0  0  0  0  0  0  0  # atno 17395 bound_to 11000

$$$$
