AV-unprocessed.smi:2856|AV-procd|sdf|10993|dock8
  -GOLD-   2272015443D 1   1.00000     0.00000
 Structure written by MMmdl.
 37 38  0  0  0  0  0  0  0  0  1 V2000
  143.7850  135.8308  152.5281 C   0  0  0  0  0  0  0  0  0  0  0  0
  145.2339  136.1281  151.4784 S   0  0  0  0  0  0  0  0  0  0  0  0
  145.6215  134.4381  150.9184 C   0  0  2  0  0  0  0  0  0  0  0  0
  144.3880  133.8378  150.2173 C   0  0  0  0  0  0  0  0  0  0  0  0
  144.6338  132.3940  149.7568 C   0  0  0  0  0  0  0  0  0  0  0  0
  145.0577  131.5094  150.9363 C   0  0  0  0  0  0  0  0  0  0  0  0
  146.3028  132.0803  151.6297 C   0  0  0  0  0  0  0  0  0  0  0  0
  146.0892  133.5377  152.0890 C   0  0  1  0  0  0  0  0  0  0  0  0
  147.3369  134.0467  152.6539 N   0  0  0  0  0  0  0  0  0  0  0  0
  148.0486  133.4622  153.6279 C   0  0  0  0  0  0  0  0  0  0  0  0
  147.7422  132.3889  154.1476 O   0  0  0  0  0  0  0  0  0  0  0  0
  149.1239  134.2003  153.9516 N   0  0  0  0  0  0  0  0  0  0  0  0
  150.0895  133.9284  154.9538 C   0  0  0  0  0  0  0  0  0  0  0  0
  150.6376  132.6267  155.1034 C   0  0  0  0  0  0  0  0  0  0  0  0
  151.5073  132.7771  156.1466 C   0  0  0  0  0  0  0  0  0  0  0  0
  152.4241  131.8341  156.8472 C   0  0  0  0  0  0  0  0  0  0  0  0
  151.4921  134.0616  156.5949 O   0  0  0  0  0  0  0  0  0  0  0  0
  150.5813  134.7952  155.8258 N   0  0  0  0  0  0  0  0  0  0  0  0
  143.4477  136.7684  152.9693 H   0  0  0  0  0  0  0  0  0  0  0  0
  144.0335  135.1414  153.3347 H   0  0  0  0  0  0  0  0  0  0  0  0
  142.9620  135.4112  151.9505 H   0  0  0  0  0  0  0  0  0  0  0  0
  146.4205  134.5050  150.1786 H   0  0  0  0  0  0  0  0  0  0  0  0
  143.5341  133.8587  150.8960 H   0  0  0  0  0  0  0  0  0  0  0  0
  144.1128  134.4524  149.3596 H   0  0  0  0  0  0  0  0  0  0  0  0
  143.7310  131.9918  149.2963 H   0  0  0  0  0  0  0  0  0  0  0  0
  145.4073  132.3798  148.9881 H   0  0  0  0  0  0  0  0  0  0  0  0
  144.2393  131.4362  151.6537 H   0  0  0  0  0  0  0  0  0  0  0  0
  145.2572  130.4953  150.5889 H   0  0  0  0  0  0  0  0  0  0  0  0
  146.5633  131.4536  152.4835 H   0  0  0  0  0  0  0  0  0  0  0  0
  147.1489  132.0307  150.9426 H   0  0  0  0  0  0  0  0  0  0  0  0
  145.3070  133.5472  152.8506 H   0  0  0  0  0  0  0  0  0  0  0  0
  147.6718  134.9245  152.2851 H   0  0  0  0  0  0  0  0  0  0  0  0
  149.2597  135.0555  153.4335 H   0  0  0  0  0  0  0  0  0  0  0  0
  150.4295  131.7287  154.5409 H   0  0  0  0  0  0  0  0  0  0  0  0
  152.3612  130.8355  156.4144 H   0  0  0  0  0  0  0  0  0  0  0  0
  152.1687  131.7608  157.9044 H   0  0  0  0  0  0  0  0  0  0  0  0
  153.4579  132.1714  156.7704 H   0  0  0  0  0  0  0  0  0  0  0  0
  1  2  1  0  0  0  0
  1 19  1  0  0  0  0
  1 20  1  0  0  0  0
  1 21  1  0  0  0  0
  2  3  1  0  0  0  0
  3  8  1  0  0  0  0
  3  4  1  0  0  0  0
  3 22  1  0  0  0  0
  4  5  1  0  0  0  0
  4 23  1  0  0  0  0
  4 24  1  0  0  0  0
  5  6  1  0  0  0  0
  5 25  1  0  0  0  0
  5 26  1  0  0  0  0
  6  7  1  0  0  0  0
  6 27  1  0  0  0  0
  6 28  1  0  0  0  0
  7  8  1  0  0  0  0
  7 29  1  0  0  0  0
  7 30  1  0  0  0  0
  8  9  1  0  0  0  0
  8 31  1  0  0  0  0
  9 10  1  0  0  0  0
  9 32  1  0  0  0  0
 10 11  2  0  0  0  0
 10 12  1  0  0  0  0
 12 13  1  0  0  0  0
 12 33  1  0  0  0  0
 13 18  2  0  0  0  0
 13 14  1  0  0  0  0
 14 15  2  0  0  0  0
 14 34  1  0  0  0  0
 15 16  1  0  0  0  0
 15 17  1  0  0  0  0
 16 35  1  0  0  0  0
 16 36  1  0  0  0  0
 16 37  1  0  0  0  0
 17 18  1  0  0  0  0
M  END
> <s_m_source_file>
AV-unprocessed.smi

> <i_m_source_file_index>
2856

> <i_lp_mmshare_version>
43012

> <i_f3d_flags>
0

> <s_epik_input>
W0NIM11TW0NAQEhdMVtDSDJdW0NIMl1bQ0gyXVtDSDJdW0NASF0xW05IXUMoPU8pW05IXWMyW2NIXWMoW0NIM10pb24y

> <s_epik_cmdline>
J2VwaWtfcHl0aG9uJywgJy1waCcsICc3LjAnLCAnLXRuJywgJzgnLCAnLW1hJywgJzIwMCcsICctbWV0YWxfYmluZGluZycsICctaW1hZScsICc8aW5maWxlLm1hZT4nLCAnLW9tYWUnLCAnPG91dGZpbGUubWFlPic=

> <r_lp_tautomer_probability>
1

> <r_epik_Ionization_Penalty>
2.20874e-05

> <r_epik_Ionization_Penalty_Charging>
0

> <r_epik_Ionization_Penalty_Neutral>
2.20874e-05

> <r_epik_State_Penalty>
-0

> <r_epik_Charging_Adjusted_Penalty>
0

> <i_epik_Tot_Q>
0

> <i_epik_Tot_abs_Q>
0

> <r_epik_Metal_State_Penalty>
-0

> <b_epik_Metal_Only>
0

> <s_lp_Force_Field>
OPLS_2005

> <r_lp_Energy>
6.84472

> <b_lp_Chiralities_Consistent>
1

> <s_lp_Variant>
AV-unprocessed.smi:2856-1

> <Gold.Version>
5.8.1

> <Gold.Id.Protein>
6NUR|6NUR_protein|mol2

> <Gold.PLP.Fitness>
37.9139

> <Gold.PLP.PLP>
-32.7351

> <Gold.PLP.part.hbond>
-2.6747

> <Gold.PLP.part.metal>
0.0000

> <Gold.PLP.part.buried>
-4.7032

> <Gold.PLP.part.nonpolar>
-25.1244

> <Gold.PLP.part.repulsive>
0.0871

> <Gold.PLP.ligand.clash>
0.0000

> <Gold.PLP.ligand.torsion>
0.4140

> <Gold.PLP.Chemscore.Hbond>
2.0000

> <Gold.PLP.Chemscore.CHOScore>
0.0000

> <Gold.PLP.Chemscore.Metal>
0.0000

> <Gold.Chemscore.Hbonds>
donor molecule, donor type, donor heavy atom, donor atom, acceptor molecule, acceptor atom, score
      L1  H     9    32       P1  7948  1.00
      L1  H    12    33       P1  7948  0.80

> <Gold.PLP.Chemscore.Internal.Correction>
0.0068

> <Gold.Rescore>
     Score         DG    S(hbond)    S(metal)    S(lipo)     H(rot)  DE(clash)    DE(int)     intcor
     14.27     -16.27       1.57        0.00      73.96       1.21       0.26       1.75       ----

> <Gold.Chemscore.Fitness>
14.2687

> <Gold.Chemscore.DG>
-16.2741

> <Gold.Chemscore.ZeroCoef>
-5.4800

> <Gold.Chemscore.Hbond>
1.5691

> <Gold.Chemscore.Metal>
0.0000

> <Gold.Chemscore.Lipo>
73.9599

> <Gold.Chemscore.Internal_Hbond>
0.0000

> <Gold.Chemscore.DEClash>
0.2593

> <Gold.Chemscore.DEInternal>
1.7461

> <Gold.Chemscore.Rot>
1.2109

> <Gold.Chemscore.Internal.Correction>
   9.000000E+99

> <Gold.Chemscore.Hbonds>
donor molecule, donor type, donor heavy atom, donor atom, acceptor molecule, acceptor atom, score
      L1  H     9    32       P1  7948  0.89
      L1  H    12    33       P1  7948  0.11

> <Gold.Chemscore.Hbond.Weighted>
-5.2408

> <Gold.Chemscore.Metal.Weighted>
-0.0000

> <Gold.Chemscore.Lipo.Weighted>
-8.6533

> <Gold.Chemscore.Internal_Hbond.Weighted>
0.0000

> <Gold.Chemscore.DEClash.Weighted>
0.2593

> <Gold.Chemscore.DEInternal.Weighted>
1.7461

> <Gold.Chemscore.Rot.Weighted>
3.1000

> <Gold.Chemscore.Internal.Correction.Weighted>
   9.000000E+99

> <Gold.Protein.RotatedTorsions>
[ 6907 6896 6895 6894 ] final   -5.31 input  -60.11 | X-H torsion
[ 7974 7965 7964 7962 ] final  157.80 input  175.53 | X-H torsion
[ 8008 7997 7996 7995 ] final   67.37 input   59.86 | X-H torsion
[ 10167 10162 10161 10158 ] final  139.02 input  -65.29 | X-H torsion
[ 10718 10713 10712 10709 ] final -116.40 input   66.30 | X-H torsion
[ 10763 10752 10751 10750 ] final  -65.70 input  -60.55 | X-H torsion
[ 11005 11000 10999 10996 ] final   73.93 input  -57.11 | X-H torsion

> <Gold.Protein.ActiveResidues>
 VAL166  LYS551  ARG553  GLY616  TRP617  ASP618  TYR619  PRO620  LYS621  CYS622 
 ASP623  PHE694  ASN695  SER759  ASP760  ASP761  ALA762  ILE779  LEU786  VAL792 
 PHE793  MET794  SER795  GLU796  ALA797  LYS798  CYS799  TRP800  GLU811  SER814 

> <Gold.Protein.RotatedAtoms>
  151.4836  135.1053  159.9784 H   0  0  0  0  0  0  0  0  0  0  0  0  # atno 6907 bound_to 6896
  152.4769  133.8157  159.7037 H   0  0  0  0  0  0  0  0  0  0  0  0  # atno 6908 bound_to 6896
  150.8814  133.7306  159.2957 H   0  0  0  0  0  0  0  0  0  0  0  0  # atno 6909 bound_to 6896
  144.7882  139.7390  143.6232 H   0  0  0  0  0  0  0  0  0  0  0  0  # atno 7974 bound_to 7965
  155.6918  140.3496  155.4897 H   0  0  0  0  0  0  0  0  0  0  0  0  # atno 8008 bound_to 7997
  155.9517  140.1120  157.0993 H   0  0  0  0  0  0  0  0  0  0  0  0  # atno 8009 bound_to 7997
  154.4123  140.1193  156.5048 H   0  0  0  0  0  0  0  0  0  0  0  0  # atno 8010 bound_to 7997
  139.5092  144.6319  151.5796 H   0  0  0  0  0  0  0  0  0  0  0  0  # atno 10167 bound_to 10162
  156.0961  130.6133  150.9031 H   0  0  0  0  0  0  0  0  0  0  0  0  # atno 10718 bound_to 10713
  154.3490  135.6140  153.5633 H   0  0  0  0  0  0  0  0  0  0  0  0  # atno 10763 bound_to 10752
  152.9799  135.5788  154.4765 H   0  0  0  0  0  0  0  0  0  0  0  0  # atno 10764 bound_to 10752
  154.4483  135.2852  155.1776 H   0  0  0  0  0  0  0  0  0  0  0  0  # atno 10765 bound_to 10752
  139.9416  134.7389  156.1085 H   0  0  0  0  0  0  0  0  0  0  0  0  # atno 11005 bound_to 11000
  146.2123  139.5488  142.9673 LP  0  0  0  0  0  0  0  0  0  0  0  0  # atno 17320 bound_to 7965
  145.5864  141.0375  143.2094 LP  0  0  0  0  0  0  0  0  0  0  0  0  # atno 17321 bound_to 7965
  140.6055  143.9533  150.6415 LP  0  0  0  0  0  0  0  0  0  0  0  0  # atno 17342 bound_to 10162
  140.2758  143.3424  152.1196 LP  0  0  0  0  0  0  0  0  0  0  0  0  # atno 17343 bound_to 10162
  157.6122  131.0935  150.8774 LP  0  0  0  0  0  0  0  0  0  0  0  0  # atno 17370 bound_to 10713
  156.8912  130.5213  149.5286 LP  0  0  0  0  0  0  0  0  0  0  0  0  # atno 17371 bound_to 10713
  141.1052  133.6662  156.2847 LP  0  0  0  0  0  0  0  0  0  0  0  0  # atno 17394 bound_to 11000
  140.5938  134.5624  157.5504 LP  0  0  0  0  0  0  0  0  0  0  0  0  # atno 17395 bound_to 11000

$$$$
