AV-unprocessed.smi:1385|AV-procd|sdf|5628|dock9
  -GOLD-   22720 5243D 1   1.00000     0.00000
 Structure written by MMmdl.
 38 39  0  0  0  0  0  0  0  0  1 V2000
  143.9545  144.1674  162.5968 C   0  0  0  0  0  0  0  0  0  0  0  0
  145.0350  143.7342  161.6660 C   0  0  0  0  0  0  0  0  0  0  0  0
  145.8054  142.6644  161.8978 N   0  0  0  0  0  0  0  0  0  0  0  0
  146.7348  142.4570  160.8879 N   0  0  0  0  0  0  0  0  0  0  0  0
  146.6363  143.3796  159.9210 C   0  0  0  0  0  0  0  0  0  0  0  0
  147.4631  143.4055  158.7669 N   0  0  0  0  0  0  0  0  0  0  0  0
  148.1775  142.4006  158.2306 C   0  0  0  0  0  0  0  0  0  0  0  0
  148.2329  141.2521  158.6711 O   0  0  0  0  0  0  0  0  0  0  0  0
  148.8397  142.8057  157.1372 N   0  0  0  0  0  0  0  0  0  0  0  0
  149.7091  141.9631  156.3211 C   0  0  0  0  0  0  0  0  0  0  0  0
  148.9378  140.7581  155.7584 C   0  0  0  0  0  0  0  0  0  0  0  0
  149.8755  139.7930  155.0115 C   0  0  0  0  0  0  0  0  0  0  0  0
  150.9548  139.3293  155.8965 N   0  0  0  0  0  0  0  0  0  0  0  0
  151.8458  138.3467  155.2357 C   0  0  0  0  0  0  0  0  0  0  0  0
  151.2663  136.9323  155.1153 C   0  0  0  0  0  0  0  0  0  0  0  0
  150.2783  136.7529  154.2348 N   0  0  0  0  0  0  0  0  0  0  0  0
  151.7007  136.0184  155.8128 O   0  0  0  0  0  0  0  0  0  0  0  0
  151.7546  140.4683  156.3592 C   0  0  0  0  0  0  0  0  0  0  0  0
  150.8851  141.4503  157.1637 C   0  0  0  0  0  0  0  0  0  0  0  0
  145.3884  144.5887  160.1694 S   0  0  0  0  0  0  0  0  0  0  0  0
  144.1290  143.7709  163.5974 H   0  0  0  0  0  0  0  0  0  0  0  0
  142.9902  143.8061  162.2392 H   0  0  0  0  0  0  0  0  0  0  0  0
  143.9221  145.2556  162.6544 H   0  0  0  0  0  0  0  0  0  0  0  0
  147.5181  144.2959  158.2946 H   0  0  0  0  0  0  0  0  0  0  0  0
  148.7376  143.7674  156.8476 H   0  0  0  0  0  0  0  0  0  0  0  0
  150.1099  142.5516  155.4933 H   0  0  0  0  0  0  0  0  0  0  0  0
  148.4393  140.2229  156.5682 H   0  0  0  0  0  0  0  0  0  0  0  0
  148.1508  141.0976  155.0839 H   0  0  0  0  0  0  0  0  0  0  0  0
  149.2781  138.9553  154.6518 H   0  0  0  0  0  0  0  0  0  0  0  0
  150.2956  140.2811  154.1303 H   0  0  0  0  0  0  0  0  0  0  0  0
  152.1140  138.7047  154.2398 H   0  0  0  0  0  0  0  0  0  0  0  0
  152.7782  138.2661  155.7965 H   0  0  0  0  0  0  0  0  0  0  0  0
  149.8612  135.8395  154.1286 H   0  0  0  0  0  0  0  0  0  0  0  0
  149.9475  137.5329  153.6858 H   0  0  0  0  0  0  0  0  0  0  0  0
  152.5670  140.1159  156.9965 H   0  0  0  0  0  0  0  0  0  0  0  0
  152.2160  140.9789  155.5118 H   0  0  0  0  0  0  0  0  0  0  0  0
  151.4951  142.2881  157.5031 H   0  0  0  0  0  0  0  0  0  0  0  0
  150.5145  140.9533  158.0617 H   0  0  0  0  0  0  0  0  0  0  0  0
  1  2  1  0  0  0  0
  1 21  1  0  0  0  0
  1 22  1  0  0  0  0
  1 23  1  0  0  0  0
  2 20  1  0  0  0  0
  2  3  2  0  0  0  0
  3  4  1  0  0  0  0
  4  5  2  0  0  0  0
  5  6  1  0  0  0  0
  5 20  1  0  0  0  0
  6  7  1  0  0  0  0
  6 24  1  0  0  0  0
  7  8  2  0  0  0  0
  7  9  1  0  0  0  0
  9 10  1  0  0  0  0
  9 25  1  0  0  0  0
 10 19  1  0  0  0  0
 10 11  1  0  0  0  0
 10 26  1  0  0  0  0
 11 12  1  0  0  0  0
 11 27  1  0  0  0  0
 11 28  1  0  0  0  0
 12 13  1  0  0  0  0
 12 29  1  0  0  0  0
 12 30  1  0  0  0  0
 13 14  1  0  0  0  0
 13 18  1  0  0  0  0
 14 15  1  0  0  0  0
 14 31  1  0  0  0  0
 14 32  1  0  0  0  0
 15 16  1  0  0  0  0
 15 17  2  0  0  0  0
 16 33  1  0  0  0  0
 16 34  1  0  0  0  0
 18 19  1  0  0  0  0
 18 35  1  0  0  0  0
 18 36  1  0  0  0  0
 19 37  1  0  0  0  0
 19 38  1  0  0  0  0
M  END
> <s_m_source_file>
AV-unprocessed.smi

> <i_m_source_file_index>
1385

> <i_lp_mmshare_version>
43012

> <i_f3d_flags>
0

> <s_epik_input>
W0NIM11jMW5uYyhzMSlbTkhdQyg9TylbTkhdW0NIXTJbQ0gyXVtDSDJdTihbQ0gyXVtDSDJdMilbQ0gyXUMoPU8pW05IMl0=

> <s_epik_cmdline>
J2VwaWtfcHl0aG9uJywgJy1waCcsICc3LjAnLCAnLXRuJywgJzgnLCAnLW1hJywgJzIwMCcsICctbWV0YWxfYmluZGluZycsICctaW1hZScsICc8aW5maWxlLm1hZT4nLCAnLW9tYWUnLCAnPG91dGZpbGUubWFlPic=

> <r_lp_tautomer_probability>
1

> <r_epik_Ionization_Penalty>
0.159363

> <r_epik_Ionization_Penalty_Charging>
0

> <r_epik_Ionization_Penalty_Neutral>
0.159363

> <r_epik_State_Penalty>
0.146692

> <r_epik_Charging_Adjusted_Penalty>
0.146692

> <i_epik_Tot_Q>
0

> <i_epik_Tot_abs_Q>
0

> <r_epik_Metal_State_Penalty>
0.501772

> <b_epik_Metal_Only>
0

> <s_lp_Force_Field>
OPLS_2005

> <r_lp_Energy>
10.053

> <b_lp_Chiralities_Consistent>
1

> <s_lp_Variant>
AV-unprocessed.smi:1385-1

> <Gold.Version>
5.8.1

> <Gold.Id.Protein>
6NUR|6NUR_protein|mol2

> <Gold.PLP.Fitness>
39.4261

> <Gold.PLP.PLP>
-26.6674

> <Gold.PLP.part.hbond>
-8.3863

> <Gold.PLP.part.metal>
0.0000

> <Gold.PLP.part.buried>
3.0241

> <Gold.PLP.part.nonpolar>
-21.5997

> <Gold.PLP.part.repulsive>
0.2554

> <Gold.PLP.ligand.clash>
0.0000

> <Gold.PLP.ligand.torsion>
0.3773

> <Gold.PLP.Chemscore.Hbond>
4.5021

> <Gold.PLP.Chemscore.CHOScore>
0.0000

> <Gold.PLP.Chemscore.Metal>
0.0000

> <Gold.Chemscore.Hbonds>
donor molecule, donor type, donor heavy atom, donor atom, acceptor molecule, acceptor atom, score
      L1  H     6    24       P1  8029  1.00
      L1  H     9    25       P1  8028  0.83
      P1  H  6933  6944       L1     4  0.67
      P1  H  6934  6946       L1     4  0.85
      P1  H 10752 10764       L1    17  1.00

> <Gold.PLP.Chemscore.Internal.Correction>
0.0071

> <Gold.Rescore>
     Score         DG    S(hbond)    S(metal)    S(lipo)     H(rot)  DE(clash)    DE(int)     intcor
     12.19     -15.18       2.59        0.00      53.64       2.04       0.08       2.90       ----

> <Gold.Chemscore.Fitness>
12.1903

> <Gold.Chemscore.DG>
-15.1768

> <Gold.Chemscore.ZeroCoef>
-5.4800

> <Gold.Chemscore.Hbond>
2.5883

> <Gold.Chemscore.Metal>
0.0000

> <Gold.Chemscore.Lipo>
53.6422

> <Gold.Chemscore.Internal_Hbond>
0.0000

> <Gold.Chemscore.DEClash>
0.0839

> <Gold.Chemscore.DEInternal>
2.9026

> <Gold.Chemscore.Rot>
2.0407

> <Gold.Chemscore.Internal.Correction>
   9.000000E+99

> <Gold.Chemscore.Hbonds>
donor molecule, donor type, donor heavy atom, donor atom, acceptor molecule, acceptor atom, score
      L1  H     6    24       P1  8029  0.64
      L1  H     9    25       P1  8028  0.17
      P1  H  6933  6944       L1     4  0.44
      P1  H  6934  6946       L1     4  0.49
      P1  H 10752 10764       L1    17  0.69

> <Gold.Chemscore.Hbond.Weighted>
-8.6450

> <Gold.Chemscore.Metal.Weighted>
-0.0000

> <Gold.Chemscore.Lipo.Weighted>
-6.2761

> <Gold.Chemscore.Internal_Hbond.Weighted>
0.0000

> <Gold.Chemscore.DEClash.Weighted>
0.0839

> <Gold.Chemscore.DEInternal.Weighted>
2.9026

> <Gold.Chemscore.Rot.Weighted>
5.2243

> <Gold.Chemscore.Internal.Correction.Weighted>
   9.000000E+99

> <Gold.Protein.RotatedTorsions>
[ 6907 6896 6895 6894 ] final   85.24 input  -60.11 | X-H torsion
[ 7974 7965 7964 7962 ] final -153.47 input  175.53 | X-H torsion
[ 8008 7997 7996 7995 ] final  166.18 input   59.86 | X-H torsion
[ 10167 10162 10161 10158 ] final  -33.73 input  -65.29 | X-H torsion
[ 10718 10713 10712 10709 ] final -143.28 input   66.30 | X-H torsion
[ 10763 10752 10751 10750 ] final  -23.06 input  -60.55 | X-H torsion
[ 11005 11000 10999 10996 ] final   60.45 input  -57.11 | X-H torsion

> <Gold.Protein.ActiveResidues>
 VAL166  LYS551  ARG553  GLY616  TRP617  ASP618  TYR619  PRO620  LYS621  CYS622 
 ASP623  PHE694  ASN695  SER759  ASP760  ASP761  ALA762  ILE779  LEU786  VAL792 
 PHE793  MET794  SER795  GLU796  ALA797  LYS798  CYS799  TRP800  GLU811  SER814 

> <Gold.Protein.RotatedAtoms>
  152.5370  134.2617  159.8937 H   0  0  0  0  0  0  0  0  0  0  0  0  # atno 6907 bound_to 6896
  151.2576  133.4311  159.2622 H   0  0  0  0  0  0  0  0  0  0  0  0  # atno 6908 bound_to 6896
  151.0482  134.9669  159.8254 H   0  0  0  0  0  0  0  0  0  0  0  0  # atno 6909 bound_to 6896
  144.7739  140.4521  143.5887 H   0  0  0  0  0  0  0  0  0  0  0  0  # atno 7974 bound_to 7965
  156.1740  140.1650  156.8396 H   0  0  0  0  0  0  0  0  0  0  0  0  # atno 8008 bound_to 7997
  154.5287  140.0761  156.8339 H   0  0  0  0  0  0  0  0  0  0  0  0  # atno 8009 bound_to 7997
  155.3452  140.3387  155.4241 H   0  0  0  0  0  0  0  0  0  0  0  0  # atno 8010 bound_to 7997
  140.7199  143.3599  151.1984 H   0  0  0  0  0  0  0  0  0  0  0  0  # atno 10167 bound_to 10162
  156.3561  130.7713  151.1874 H   0  0  0  0  0  0  0  0  0  0  0  0  # atno 10718 bound_to 10713
  153.6618  135.6976  153.5175 H   0  0  0  0  0  0  0  0  0  0  0  0  # atno 10763 bound_to 10752
  153.2626  135.4240  155.0908 H   0  0  0  0  0  0  0  0  0  0  0  0  # atno 10764 bound_to 10752
  154.8450  135.3558  154.6162 H   0  0  0  0  0  0  0  0  0  0  0  0  # atno 10765 bound_to 10752
  140.0231  134.6124  155.9612 H   0  0  0  0  0  0  0  0  0  0  0  0  # atno 11005 bound_to 11000
  145.6243  139.1528  143.3005 LP  0  0  0  0  0  0  0  0  0  0  0  0  # atno 17320 bound_to 7965
  146.1905  140.6351  142.9148 LP  0  0  0  0  0  0  0  0  0  0  0  0  # atno 17321 bound_to 7965
  139.7148  143.9318  152.2962 LP  0  0  0  0  0  0  0  0  0  0  0  0  # atno 17342 bound_to 10162
  139.9055  144.6887  150.8619 LP  0  0  0  0  0  0  0  0  0  0  0  0  # atno 17343 bound_to 10162
  157.7467  131.0413  150.4642 LP  0  0  0  0  0  0  0  0  0  0  0  0  # atno 17370 bound_to 10713
  156.4845  130.4081  149.6442 LP  0  0  0  0  0  0  0  0  0  0  0  0  # atno 17371 bound_to 10713
  141.1786  133.6543  156.4927 LP  0  0  0  0  0  0  0  0  0  0  0  0  # atno 17394 bound_to 11000
  140.4354  134.7064  157.4964 LP  0  0  0  0  0  0  0  0  0  0  0  0  # atno 17395 bound_to 11000

$$$$
