AV-unprocessed.smi:114|AV-procd|sdf|1107|dock10
  -GOLD-   2262018223D 1   1.00000     0.00000
 Structure written by MMmdl.
 32 34  0  0  0  0  0  0  0  0  1 V2000
  154.2339  137.4744  156.6184 N   0  0  0  0  0  0  0  0  0  0  0  0
  153.1215  138.2221  156.6103 C   0  0  0  0  0  0  0  0  0  0  0  0
  153.1121  139.3723  157.3239 N   0  0  0  0  0  0  0  0  0  0  0  0
  152.0214  140.1495  157.3422 C   0  0  0  0  0  0  0  0  0  0  0  0
  152.1022  141.2807  158.0812 F   0  0  0  0  0  0  0  0  0  0  0  0
  150.8607  139.9337  156.7130 N   0  0  0  0  0  0  0  0  0  0  0  0
  150.8692  138.7742  155.9945 C   0  0  0  0  0  0  0  0  0  0  0  0
  151.9554  137.8661  155.8899 C   0  0  0  0  0  0  0  0  0  0  0  0
  151.6044  136.8005  155.0711 N   0  0  0  0  0  0  0  0  0  0  0  0
  150.3766  137.0701  154.7136 C   0  0  0  0  0  0  0  0  0  0  0  0
  149.8589  138.2404  155.2273 N   0  0  0  0  0  0  0  0  0  0  0  0
  148.5084  138.8450  155.0193 C   0  0  2  0  0  0  0  0  0  0  0  0
  147.7821  138.0062  154.1855 O   0  0  0  0  0  0  0  0  0  0  0  0
  146.7583  138.7818  153.5846 C   0  0  2  0  0  0  0  0  0  0  0  0
  146.2004  138.0504  152.3547 C   0  0  0  0  0  0  0  0  0  0  0  0
  145.7854  138.9875  151.3842 O   0  0  0  0  0  0  0  0  0  0  0  0
  147.4819  140.0929  153.2445 C   0  0  1  0  0  0  0  0  0  0  0  0
  146.5768  141.1767  153.3107 O   0  0  0  0  0  0  0  0  0  0  0  0
  148.5565  140.2219  154.3258 C   0  0  2  0  0  0  0  0  0  0  0  0
  149.8128  140.5384  153.7520 O   0  0  0  0  0  0  0  0  0  0  0  0
  148.0477  138.8782  156.0081 H   0  0  0  0  0  0  0  0  0  0  0  0
  145.9746  138.9667  154.3232 H   0  0  0  0  0  0  0  0  0  0  0  0
  147.9304  140.0348  152.2512 H   0  0  0  0  0  0  0  0  0  0  0  0
  148.3074  140.9803  155.0697 H   0  0  0  0  0  0  0  0  0  0  0  0
  154.2648  136.6123  156.0930 H   0  0  0  0  0  0  0  0  0  0  0  0
  155.0385  137.7733  157.1502 H   0  0  0  0  0  0  0  0  0  0  0  0
  149.8142  136.4198  154.0595 H   0  0  0  0  0  0  0  0  0  0  0  0
  146.9766  137.4325  151.9024 H   0  0  0  0  0  0  0  0  0  0  0  0
  145.3759  137.3900  152.6245 H   0  0  0  0  0  0  0  0  0  0  0  0
  144.9665  138.6951  151.0140 H   0  0  0  0  0  0  0  0  0  0  0  0
  146.4062  141.3693  154.2202 H   0  0  0  0  0  0  0  0  0  0  0  0
  149.7832  140.3267  152.8316 H   0  0  0  0  0  0  0  0  0  0  0  0
  1  2  1  0  0  0  0
  1 25  1  0  0  0  0
  1 26  1  0  0  0  0
  2  8  1  0  0  0  0
  2  3  2  0  0  0  0
  3  4  1  0  0  0  0
  4  5  1  0  0  0  0
  4  6  2  0  0  0  0
  6  7  1  0  0  0  0
  7 11  1  0  0  0  0
  7  8  2  0  0  0  0
  8  9  1  0  0  0  0
  9 10  2  0  0  0  0
 10 11  1  0  0  0  0
 10 27  1  0  0  0  0
 11 12  1  0  0  0  0
 12 21  1  0  0  0  0
 12 19  1  0  0  0  0
 12 13  1  0  0  0  0
 13 14  1  0  0  0  0
 14 22  1  0  0  0  0
 14 15  1  0  0  0  0
 14 17  1  0  0  0  0
 15 16  1  0  0  0  0
 15 28  1  0  0  0  0
 15 29  1  0  0  0  0
 16 30  1  0  0  0  0
 17 23  1  0  0  0  0
 17 18  1  0  0  0  0
 17 19  1  0  0  0  0
 18 31  1  0  0  0  0
 19 24  1  0  0  0  0
 19 20  1  0  0  0  0
 20 32  1  0  0  0  0
M  END
> <s_m_source_file>
AV-unprocessed.smi

> <i_m_source_file_index>
114

> <i_lp_mmshare_version>
43012

> <i_f3d_flags>
0

> <s_epik_input>
RmMobjEpbmMoW05IMl0pYyhjMTIpbltjSF1uMltDQEBIXTNPW0NASF0oW0NIMl1bT0hdKVtDQEBIXShbT0hdKVtDQEBIXTNbT0hd

> <s_epik_cmdline>
J2VwaWtfcHl0aG9uJywgJy1waCcsICc3LjAnLCAnLXRuJywgJzgnLCAnLW1hJywgJzIwMCcsICctbWV0YWxfYmluZGluZycsICctaW1hZScsICc8aW5maWxlLm1hZT4nLCAnLW9tYWUnLCAnPG91dGZpbGUubWFlPic=

> <r_lp_tautomer_probability>
1

> <r_epik_Ionization_Penalty>
1.13199e-05

> <r_epik_Ionization_Penalty_Charging>
0

> <r_epik_Ionization_Penalty_Neutral>
1.13199e-05

> <r_epik_State_Penalty>
-0

> <r_epik_Charging_Adjusted_Penalty>
0

> <i_epik_Tot_Q>
0

> <i_epik_Tot_abs_Q>
0

> <r_epik_Metal_State_Penalty>
-0

> <b_epik_Metal_Only>
0

> <s_epik_Chemistry_Notes>
This compound contains an acetal/aminal-like group ( X-CH(R)-Y where X, Y are N, S, or O) that may be acid/base labile, releasing an aldehyde.

> <s_lp_Force_Field>
OPLS_2005

> <r_lp_Energy>
35.9839

> <b_lp_Chiralities_Consistent>
1

> <s_lp_Variant>
AV-unprocessed.smi:114-1

> <Gold.Version>
5.8.1

> <Gold.Id.Protein>
6NUR|6NUR_protein|mol2

> <Gold.PLP.Fitness>
39.5414

> <Gold.PLP.PLP>
-24.9197

> <Gold.PLP.part.hbond>
-6.8642

> <Gold.PLP.part.metal>
0.0000

> <Gold.PLP.part.buried>
-3.2107

> <Gold.PLP.part.nonpolar>
-16.8948

> <Gold.PLP.part.repulsive>
0.4780

> <Gold.PLP.ligand.clash>
0.0115

> <Gold.PLP.ligand.torsion>
0.3625

> <Gold.PLP.Chemscore.Hbond>
4.1152

> <Gold.PLP.Chemscore.CHOScore>
1.0000

> <Gold.PLP.Chemscore.Metal>
0.0000

> <Gold.Chemscore.Hbonds>
donor molecule, donor type, donor heavy atom, donor atom, acceptor molecule, acceptor atom, score
      L1  H    16    30       P1 10171  1.00
      L1  H    20    32       P1  7957  1.00
      P1  H  7989  7998       L1    20  0.14
      P1  H  7997  8009       L1     3  1.00
      P1  H 10752 10764       L1     9  1.00
      L1  C    10    27       P1  7948  1.00

> <Gold.PLP.Chemscore.Internal.Correction>
0.0125

> <Gold.Rescore>
     Score         DG    S(hbond)    S(metal)    S(lipo)     H(rot)  DE(clash)    DE(int)     intcor
      8.79     -10.37       3.47        0.00      31.02       4.03       0.20       1.38       ----

> <Gold.Chemscore.Fitness>
8.7932

> <Gold.Chemscore.DG>
-10.3726

> <Gold.Chemscore.ZeroCoef>
-5.4800

> <Gold.Chemscore.Hbond>
3.4653

> <Gold.Chemscore.Metal>
0.0000

> <Gold.Chemscore.Lipo>
31.0204

> <Gold.Chemscore.Internal_Hbond>
0.0000

> <Gold.Chemscore.DEClash>
0.2025

> <Gold.Chemscore.DEInternal>
1.3769

> <Gold.Chemscore.Rot>
4.0277

> <Gold.Chemscore.Internal.Correction>
   9.000000E+99

> <Gold.Chemscore.Hbonds>
donor molecule, donor type, donor heavy atom, donor atom, acceptor molecule, acceptor atom, score
      L1  H    16    30       P1 10171  0.95
      L1  H    20    32       P1  7957  1.00
      P1  H  7997  8009       L1     3  0.27
      P1  H 10752 10764       L1     9  0.96

> <Gold.Chemscore.Hbond.Weighted>
-11.5742

> <Gold.Chemscore.Metal.Weighted>
-0.0000

> <Gold.Chemscore.Lipo.Weighted>
-3.6294

> <Gold.Chemscore.Internal_Hbond.Weighted>
0.0000

> <Gold.Chemscore.DEClash.Weighted>
0.2025

> <Gold.Chemscore.DEInternal.Weighted>
1.3769

> <Gold.Chemscore.Rot.Weighted>
10.3110

> <Gold.Chemscore.Internal.Correction.Weighted>
   9.000000E+99

> <Gold.Protein.RotatedTorsions>
[ 6907 6896 6895 6894 ] final  -85.35 input  -60.11 | X-H torsion
[ 7974 7965 7964 7962 ] final   13.11 input  175.53 | X-H torsion
[ 8008 7997 7996 7995 ] final  169.45 input   59.86 | X-H torsion
[ 10167 10162 10161 10158 ] final  142.51 input  -65.29 | X-H torsion
[ 10718 10713 10712 10709 ] final   23.31 input   66.30 | X-H torsion
[ 10763 10752 10751 10750 ] final  -61.14 input  -60.55 | X-H torsion
[ 11005 11000 10999 10996 ] final  137.06 input  -57.11 | X-H torsion

> <Gold.Protein.ActiveResidues>
 VAL166  LYS551  ARG553  GLY616  TRP617  ASP618  TYR619  PRO620  LYS621  CYS622 
 ASP623  PHE694  ASN695  SER759  ASP760  ASP761  ALA762  ILE779  LEU786  VAL792 
 PHE793  MET794  SER795  GLU796  ALA797  LYS798  CYS799  TRP800  GLU811  SER814 

> <Gold.Protein.RotatedAtoms>
  150.6871  134.3218  159.4789 H   0  0  0  0  0  0  0  0  0  0  0  0  # atno 6907 bound_to 6896
  152.1093  134.9283  160.0576 H   0  0  0  0  0  0  0  0  0  0  0  0  # atno 6908 bound_to 6896
  152.0532  133.3994  159.4423 H   0  0  0  0  0  0  0  0  0  0  0  0  # atno 6909 bound_to 6896
  146.2337  139.9238  142.8506 H   0  0  0  0  0  0  0  0  0  0  0  0  # atno 7974 bound_to 7965
  156.1456  140.1564  156.8852 H   0  0  0  0  0  0  0  0  0  0  0  0  # atno 8008 bound_to 7997
  154.5025  140.0821  156.7865 H   0  0  0  0  0  0  0  0  0  0  0  0  # atno 8009 bound_to 7997
  155.3995  140.3414  155.4258 H   0  0  0  0  0  0  0  0  0  0  0  0  # atno 8010 bound_to 7997
  139.4992  144.6102  151.6288 H   0  0  0  0  0  0  0  0  0  0  0  0  # atno 10167 bound_to 10162
  157.1643  130.6731  149.6055 H   0  0  0  0  0  0  0  0  0  0  0  0  # atno 10718 bound_to 10713
  154.2800  135.6273  153.5343 H   0  0  0  0  0  0  0  0  0  0  0  0  # atno 10763 bound_to 10752
  152.9867  135.5631  154.5505 H   0  0  0  0  0  0  0  0  0  0  0  0  # atno 10764 bound_to 10752
  154.5094  135.2876  155.1331 H   0  0  0  0  0  0  0  0  0  0  0  0  # atno 10765 bound_to 10752
  140.0088  134.9448  157.0233 H   0  0  0  0  0  0  0  0  0  0  0  0  # atno 11005 bound_to 11000
  145.2111  140.9896  143.4100 LP  0  0  0  0  0  0  0  0  0  0  0  0  # atno 17320 bound_to 7965
  144.9690  139.3899  143.6318 LP  0  0  0  0  0  0  0  0  0  0  0  0  # atno 17321 bound_to 7965
  140.5775  144.0004  150.6249 LP  0  0  0  0  0  0  0  0  0  0  0  0  # atno 17342 bound_to 10162
  140.3142  143.3179  152.0849 LP  0  0  0  0  0  0  0  0  0  0  0  0  # atno 17343 bound_to 10162
  155.9748  130.4701  150.6417 LP  0  0  0  0  0  0  0  0  0  0  0  0  # atno 17370 bound_to 10713
  157.4103  131.0822  151.1227 LP  0  0  0  0  0  0  0  0  0  0  0  0  # atno 17371 bound_to 10713
  140.4592  134.1501  155.7189 LP  0  0  0  0  0  0  0  0  0  0  0  0  # atno 17394 bound_to 11000
  141.1696  133.8635  157.1611 LP  0  0  0  0  0  0  0  0  0  0  0  0  # atno 17395 bound_to 11000

$$$$
