AV-unprocessed.smi:2078|AV-procd|sdf|8470|dock5
  -GOLD-   2272011173D 1   1.00000     0.00000
 Structure written by MMmdl.
 41 42  0  0  0  0  0  0  0  0  3 V2000
  150.9784  141.4768  155.6327 C   0  0  0  0  0  0  0  0  0  0  0  0
  151.3542  140.0717  155.3072 C   0  0  0  0  0  0  0  0  0  0  0  0
  150.7230  138.8751  155.4960 C   0  0  0  0  0  0  0  0  0  0  0  0
  151.6375  137.9351  154.9476 C   0  0  0  0  0  0  0  0  0  0  0  0
  151.4694  136.6042  154.9114 N   0  5  0  0  0  0  0  0  0  0  0  0
  150.4044  136.0352  155.5210 C   0  0  0  0  0  0  0  0  0  0  0  0
  150.3150  135.7373  156.7142 O   0  0  0  0  0  0  0  0  0  0  0  0
  149.3789  135.7926  154.6940 N   0  0  0  0  0  0  0  0  0  0  0  0
  148.1146  135.1763  155.0736 C   0  0  0  0  0  0  0  0  0  0  0  0
  146.9409  135.9426  154.4443 C   0  0  0  0  0  0  0  0  0  0  0  0
  146.5345  135.3773  153.1332 N   0  3  2  0  0  0  0  0  0  0  0  0
  145.4121  136.1343  152.5211 C   0  0  0  0  0  0  0  0  0  0  0  0
  145.1038  135.6210  151.1058 C   0  0  0  0  0  0  0  0  0  0  0  0
  144.8002  134.1178  151.1220 C   0  0  0  0  0  0  0  0  0  0  0  0
  145.9552  133.3476  151.7838 C   0  0  2  0  0  0  0  0  0  0  0  0
  145.6651  131.8410  151.8386 C   0  0  0  0  0  0  0  0  0  0  0  0
  146.2452  133.9188  153.1870 C   0  0  0  0  0  0  0  0  0  0  0  0
  152.7338  138.5092  154.4802 N   0  0  0  0  0  0  0  0  0  0  0  0
  152.5563  139.8805  154.6999 O   0  0  0  0  0  0  0  0  0  0  0  0
  150.4856  141.5294  156.6035 H   0  0  0  0  0  0  0  0  0  0  0  0
  150.2945  141.8758  154.8836 H   0  0  0  0  0  0  0  0  0  0  0  0
  151.8579  142.1202  155.6659 H   0  0  0  0  0  0  0  0  0  0  0  0
  149.7603  138.6996  155.9526 H   0  0  0  0  0  0  0  0  0  0  0  0
  149.4925  136.0561  153.7259 H   0  0  0  0  0  0  0  0  0  0  0  0
  148.0898  134.1353  154.7468 H   0  0  0  0  0  0  0  0  0  0  0  0
  148.0531  135.1757  156.1616 H   0  0  0  0  0  0  0  0  0  0  0  0
  146.0842  135.9690  155.1196 H   0  0  0  0  0  0  0  0  0  0  0  0
  147.2552  136.9782  154.3053 H   0  0  0  0  0  0  0  0  0  0  0  0
  144.5271  136.0514  153.1543 H   0  0  0  0  0  0  0  0  0  0  0  0
  145.6662  137.1936  152.4671 H   0  0  0  0  0  0  0  0  0  0  0  0
  144.2580  136.1669  150.6869 H   0  0  0  0  0  0  0  0  0  0  0  0
  145.9540  135.8169  150.4510 H   0  0  0  0  0  0  0  0  0  0  0  0
  143.8713  133.9374  151.6652 H   0  0  0  0  0  0  0  0  0  0  0  0
  144.6404  133.7611  150.1039 H   0  0  0  0  0  0  0  0  0  0  0  0
  146.8486  133.4874  151.1731 H   0  0  0  0  0  0  0  0  0  0  0  0
  144.7795  131.6283  152.4382 H   0  0  0  0  0  0  0  0  0  0  0  0
  146.5017  131.2950  152.2756 H   0  0  0  0  0  0  0  0  0  0  0  0
  145.4950  131.4370  150.8400 H   0  0  0  0  0  0  0  0  0  0  0  0
  147.0932  133.3859  153.6158 H   0  0  0  0  0  0  0  0  0  0  0  0
  145.3960  133.7419  153.8494 H   0  0  0  0  0  0  0  0  0  0  0  0
  147.3247  135.4994  152.5159 H   0  0  0  0  0  0  0  0  0  0  0  0
  1  2  1  0  0  0  0
  1 20  1  0  0  0  0
  1 21  1  0  0  0  0
  1 22  1  0  0  0  0
  2 19  1  0  0  0  0
  2  3  2  0  0  0  0
  3  4  1  0  0  0  0
  3 23  1  0  0  0  0
  4  5  1  0  0  0  0
  4 18  2  0  0  0  0
  5  6  1  0  0  0  0
  6  7  2  0  0  0  0
  6  8  1  0  0  0  0
  8  9  1  0  0  0  0
  8 24  1  0  0  0  0
  9 10  1  0  0  0  0
  9 25  1  0  0  0  0
  9 26  1  0  0  0  0
 10 11  1  0  0  0  0
 10 27  1  0  0  0  0
 10 28  1  0  0  0  0
 11 17  1  0  0  0  0
 11 12  1  0  0  0  0
 11 41  1  0  0  0  0
 12 13  1  0  0  0  0
 12 29  1  0  0  0  0
 12 30  1  0  0  0  0
 13 14  1  0  0  0  0
 13 31  1  0  0  0  0
 13 32  1  0  0  0  0
 14 15  1  0  0  0  0
 14 33  1  0  0  0  0
 14 34  1  0  0  0  0
 15 16  1  0  0  0  0
 15 17  1  0  0  0  0
 15 35  1  0  0  0  0
 16 36  1  0  0  0  0
 16 37  1  0  0  0  0
 16 38  1  0  0  0  0
 17 39  1  0  0  0  0
 17 40  1  0  0  0  0
 18 19  1  0  0  0  0
M  CHG  1   5  -1
M  CHG  1  11   1
M  END
> <s_m_source_file>
AV-unprocessed.smi

> <i_m_source_file_index>
2078

> <i_lp_mmshare_version>
43012

> <i_f3d_flags>
0

> <s_epik_input>
W0NIM11jMVtjSF1jKG5vMSlbTkhdQyg9TylbTkhdW0NIMl1bQ0gyXU4yW0NIMl1bQ0gyXVtDSDJdW0NAQEhdKFtDSDNdKVtDSDJdMg==

> <s_epik_cmdline>
J2VwaWtfcHl0aG9uJywgJy1waCcsICc3LjAnLCAnLXRuJywgJzgnLCAnLW1hJywgJzIwMCcsICctbWV0YWxfYmluZGluZycsICctaW1hZScsICc8aW5maWxlLm1hZT4nLCAnLW9tYWUnLCAnPG91dGZpbGUubWFlPic=

> <r_epik_Ionization_Penalty>
6.22434

> <r_epik_Ionization_Penalty_Charging>
6.22425

> <r_epik_Ionization_Penalty_Neutral>
9.37855e-05

> <r_epik_State_Penalty>
6.22423

> <r_epik_Charging_Adjusted_Penalty>
12.4485

> <i_epik_Tot_Q>
0

> <i_epik_Tot_abs_Q>
2

> <r_epik_Metal_State_Penalty>
2.16764

> <b_epik_Metal_Only>
1

> <s_lp_Force_Field>
OPLS_2005

> <r_lp_Energy>
6.03682

> <b_lp_Chiralities_Consistent>
1

> <s_lp_Variant>
AV-unprocessed.smi:2078-8

> <Gold.Version>
5.8.1

> <Gold.Id.Protein>
6NUR|6NUR_protein|mol2

> <Gold.PLP.Fitness>
47.4165

> <Gold.PLP.PLP>
-31.4264

> <Gold.PLP.part.hbond>
-4.9642

> <Gold.PLP.part.metal>
0.0000

> <Gold.PLP.part.buried>
-4.8965

> <Gold.PLP.part.nonpolar>
-22.1962

> <Gold.PLP.part.repulsive>
0.2100

> <Gold.PLP.ligand.clash>
0.0000

> <Gold.PLP.ligand.torsion>
1.0712

> <Gold.PLP.Chemscore.Hbond>
6.0288

> <Gold.PLP.Chemscore.CHOScore>
0.0000

> <Gold.PLP.Chemscore.Metal>
0.0000

> <Gold.Chemscore.Hbonds>
donor molecule, donor type, donor heavy atom, donor atom, acceptor molecule, acceptor atom, score
      L1  H     8    24       P1  7948  1.00
      L1  H    11    41       P1  7948  2.00
      P1  H  7997  8008       L1    19  0.36
      P1  H 10752 10765       L1     5  2.00

> <Gold.PLP.Chemscore.Internal.Correction>
0.0462

> <Gold.Rescore>
     Score         DG    S(hbond)    S(metal)    S(lipo)     H(rot)  DE(clash)    DE(int)     intcor
     17.03     -18.26       3.12        0.00      53.86       1.54       0.05       1.18       ----

> <Gold.Chemscore.Fitness>
17.0296

> <Gold.Chemscore.DG>
-18.2576

> <Gold.Chemscore.ZeroCoef>
-5.4800

> <Gold.Chemscore.Hbond>
3.1199

> <Gold.Chemscore.Metal>
0.0000

> <Gold.Chemscore.Lipo>
53.8603

> <Gold.Chemscore.Internal_Hbond>
0.0000

> <Gold.Chemscore.DEClash>
0.0480

> <Gold.Chemscore.DEInternal>
1.1801

> <Gold.Chemscore.Rot>
1.5409

> <Gold.Chemscore.Internal.Correction>
   9.000000E+99

> <Gold.Chemscore.Hbonds>
donor molecule, donor type, donor heavy atom, donor atom, acceptor molecule, acceptor atom, score
      L1  H     8    24       P1  7948  0.54
      L1  H    11    41       P1  7948  0.99
      P1  H  7997  8008       L1    19  0.06
      P1  H 10752 10765       L1     5  0.91

> <Gold.Chemscore.Hbond.Weighted>
-10.4206

> <Gold.Chemscore.Metal.Weighted>
-0.0000

> <Gold.Chemscore.Lipo.Weighted>
-6.3017

> <Gold.Chemscore.Internal_Hbond.Weighted>
0.0000

> <Gold.Chemscore.DEClash.Weighted>
0.0480

> <Gold.Chemscore.DEInternal.Weighted>
1.1801

> <Gold.Chemscore.Rot.Weighted>
3.9446

> <Gold.Chemscore.Internal.Correction.Weighted>
   9.000000E+99

> <Gold.Protein.RotatedTorsions>
[ 6907 6896 6895 6894 ] final  159.98 input  -60.11 | X-H torsion
[ 7974 7965 7964 7962 ] final   56.03 input  175.53 | X-H torsion
[ 8008 7997 7996 7995 ] final  -17.22 input   59.86 | X-H torsion
[ 10167 10162 10161 10158 ] final  154.84 input  -65.29 | X-H torsion
[ 10718 10713 10712 10709 ] final    2.28 input   66.30 | X-H torsion
[ 10763 10752 10751 10750 ] final  174.22 input  -60.55 | X-H torsion
[ 11005 11000 10999 10996 ] final  -68.15 input  -57.11 | X-H torsion

> <Gold.Protein.ActiveResidues>
 VAL166  LYS551  ARG553  GLY616  TRP617  ASP618  TYR619  PRO620  LYS621  CYS622 
 ASP623  PHE694  ASN695  SER759  ASP760  ASP761  ALA762  ILE779  LEU786  VAL792 
 PHE793  MET794  SER795  GLU796  ALA797  LYS798  CYS799  TRP800  GLU811  SER814 

> <Gold.Protein.RotatedAtoms>
  151.9775  133.3746  159.4094 H   0  0  0  0  0  0  0  0  0  0  0  0  # atno 6907 bound_to 6896
  150.6939  134.4074  159.5155 H   0  0  0  0  0  0  0  0  0  0  0  0  # atno 6908 bound_to 6896
  152.1788  134.8772  160.0579 H   0  0  0  0  0  0  0  0  0  0  0  0  # atno 6909 bound_to 6896
  145.9441  139.3914  143.0345 H   0  0  0  0  0  0  0  0  0  0  0  0  # atno 7974 bound_to 7965
  154.4994  140.2148  155.9378 H   0  0  0  0  0  0  0  0  0  0  0  0  # atno 8008 bound_to 7997
  156.1414  140.3179  155.8469 H   0  0  0  0  0  0  0  0  0  0  0  0  # atno 8009 bound_to 7997
  155.4113  140.0490  157.3022 H   0  0  0  0  0  0  0  0  0  0  0  0  # atno 8010 bound_to 7997
  139.4822  144.5151  151.7964 H   0  0  0  0  0  0  0  0  0  0  0  0  # atno 10167 bound_to 10162
  156.8607  130.5586  149.5663 H   0  0  0  0  0  0  0  0  0  0  0  0  # atno 10718 bound_to 10713
  154.4509  135.2764  155.1782 H   0  0  0  0  0  0  0  0  0  0  0  0  # atno 10763 bound_to 10752
  154.3609  135.6129  153.5694 H   0  0  0  0  0  0  0  0  0  0  0  0  # atno 10764 bound_to 10752
  152.9847  135.5834  154.4853 H   0  0  0  0  0  0  0  0  0  0  0  0  # atno 10765 bound_to 10752
  141.1525  133.6734  156.6401 H   0  0  0  0  0  0  0  0  0  0  0  0  # atno 11005 bound_to 11000
  145.8260  140.9655  143.0874 LP  0  0  0  0  0  0  0  0  0  0  0  0  # atno 17320 bound_to 7965
  144.6784  140.0101  143.7484 LP  0  0  0  0  0  0  0  0  0  0  0  0  # atno 17321 bound_to 7965
  140.4659  144.1656  150.5911 LP  0  0  0  0  0  0  0  0  0  0  0  0  # atno 17342 bound_to 10162
  140.4435  143.2516  151.9442 LP  0  0  0  0  0  0  0  0  0  0  0  0  # atno 17343 bound_to 10162
  156.0778  130.5796  150.9507 LP  0  0  0  0  0  0  0  0  0  0  0  0  # atno 17370 bound_to 10713
  157.6251  131.0926  150.8548 LP  0  0  0  0  0  0  0  0  0  0  0  0  # atno 17371 bound_to 10713
  140.3400  134.7857  157.4390 LP  0  0  0  0  0  0  0  0  0  0  0  0  # atno 17394 bound_to 11000
  140.0946  134.5555  155.8411 LP  0  0  0  0  0  0  0  0  0  0  0  0  # atno 17395 bound_to 11000

$$$$
