AV-unprocessed.smi:1452|AV-procd|sdf|5910|dock9
  -GOLD-   22720 5593D 1   1.00000     0.00000
 Structure written by MMmdl.
 40 42  0  0  0  0  0  0  0  0  2 V2000
  149.4346  140.6002  155.8860 O   0  0  0  0  0  0  0  0  0  0  0  0
  149.2535  141.8164  155.8638 C   0  0  0  0  0  0  0  0  0  0  0  0
  150.0392  142.6510  156.5774 N   0  0  0  0  0  0  0  0  0  0  0  0
  151.1418  142.4011  157.4476 C   0  0  0  0  0  0  0  0  0  0  0  0
  151.8686  143.5559  157.8158 C   0  0  0  0  0  0  0  0  0  0  0  0
  152.9799  143.4365  158.6726 C   0  0  0  0  0  0  0  0  0  0  0  0
  153.3408  142.1605  159.1402 C   0  0  0  0  0  0  0  0  0  0  0  0
  152.5677  141.0609  158.7264 C   0  0  0  0  0  0  0  0  0  0  0  0
  151.5011  141.1745  157.9066 N   0  0  0  0  0  0  0  0  0  0  0  0
  148.2850  142.3906  155.1322 N   0  0  0  0  0  0  0  0  0  0  0  0
  147.3443  141.6896  154.2649 C   0  0  1  0  0  0  0  0  0  0  0  0
  148.0404  140.9056  153.1384 C   0  0  0  0  0  0  0  0  0  0  0  0
  147.2355  139.5993  152.9907 C   0  0  0  0  0  0  0  0  0  0  0  0
  146.0990  139.7331  153.9220 N   0  3  1  0  0  0  0  0  0  0  0  0
  145.4762  138.4828  154.4092 C   0  0  0  0  0  0  0  0  0  0  0  0
  144.2651  138.8306  155.2979 C   0  0  0  0  0  0  0  0  0  0  0  0
  144.6459  139.8106  156.4261 C   0  0  0  0  0  0  0  0  0  0  0  0
  145.3730  141.0486  155.8662 C   0  0  0  0  0  0  0  0  0  0  0  0
  146.5709  140.6001  155.0120 C   0  0  2  0  0  0  0  0  0  0  0  0
  149.7893  143.6260  156.4964 H   0  0  0  0  0  0  0  0  0  0  0  0
  151.5797  144.5301  157.4479 H   0  0  0  0  0  0  0  0  0  0  0  0
  153.5452  144.3091  158.9643 H   0  0  0  0  0  0  0  0  0  0  0  0
  154.1869  142.0283  159.7983 H   0  0  0  0  0  0  0  0  0  0  0  0
  152.8111  140.0637  159.0617 H   0  0  0  0  0  0  0  0  0  0  0  0
  148.2046  143.3972  155.1752 H   0  0  0  0  0  0  0  0  0  0  0  0
  146.6415  142.3920  153.8115 H   0  0  0  0  0  0  0  0  0  0  0  0
  148.0544  141.4804  152.2116 H   0  0  0  0  0  0  0  0  0  0  0  0
  149.0756  140.6731  153.3940 H   0  0  0  0  0  0  0  0  0  0  0  0
  146.8831  139.4401  151.9713 H   0  0  0  0  0  0  0  0  0  0  0  0
  147.8540  138.7459  153.2729 H   0  0  0  0  0  0  0  0  0  0  0  0
  145.1584  137.8766  153.5602 H   0  0  0  0  0  0  0  0  0  0  0  0
  146.2068  137.8976  154.9702 H   0  0  0  0  0  0  0  0  0  0  0  0
  143.4833  139.2784  154.6829 H   0  0  0  0  0  0  0  0  0  0  0  0
  143.8392  137.9205  155.7214 H   0  0  0  0  0  0  0  0  0  0  0  0
  143.7552  140.1149  156.9764 H   0  0  0  0  0  0  0  0  0  0  0  0
  145.2934  139.3033  157.1423 H   0  0  0  0  0  0  0  0  0  0  0  0
  144.6849  141.6459  155.2665 H   0  0  0  0  0  0  0  0  0  0  0  0
  145.7067  141.6845  156.6865 H   0  0  0  0  0  0  0  0  0  0  0  0
  147.2660  140.0300  155.6331 H   0  0  0  0  0  0  0  0  0  0  0  0
  145.3861  140.2545  153.4320 H   0  0  0  0  0  0  0  0  0  0  0  0
  1  2  2  0  0  0  0
  2  3  1  0  0  0  0
  2 10  1  0  0  0  0
  3  4  1  0  0  0  0
  3 20  1  0  0  0  0
  4  9  1  0  0  0  0
  4  5  2  0  0  0  0
  5  6  1  0  0  0  0
  5 21  1  0  0  0  0
  6  7  2  0  0  0  0
  6 22  1  0  0  0  0
  7  8  1  0  0  0  0
  7 23  1  0  0  0  0
  8  9  2  0  0  0  0
  8 24  1  0  0  0  0
 10 11  1  0  0  0  0
 10 25  1  0  0  0  0
 11 19  1  0  0  0  0
 11 12  1  0  0  0  0
 11 26  1  0  0  0  0
 12 13  1  0  0  0  0
 12 27  1  0  0  0  0
 12 28  1  0  0  0  0
 13 14  1  0  0  0  0
 13 29  1  0  0  0  0
 13 30  1  0  0  0  0
 14 19  1  0  0  0  0
 14 15  1  0  0  0  0
 14 40  1  0  0  0  0
 15 16  1  0  0  0  0
 15 31  1  0  0  0  0
 15 32  1  0  0  0  0
 16 17  1  0  0  0  0
 16 33  1  0  0  0  0
 16 34  1  0  0  0  0
 17 18  1  0  0  0  0
 17 35  1  0  0  0  0
 17 36  1  0  0  0  0
 18 19  1  0  0  0  0
 18 37  1  0  0  0  0
 18 38  1  0  0  0  0
 19 39  1  0  0  0  0
M  CHG  1  14   1
M  END
> <s_m_source_file>
AV-unprocessed.smi

> <i_m_source_file_index>
1452

> <i_lp_mmshare_version>
43012

> <i_f3d_flags>
0

> <s_epik_input>
W0NIMl0xW0NIMl1bQ0gyXVtDSDJdW0NASF0oTjEyKVtDQEBIXShbQ0gyXVtDSDJdMilbTkhdQyg9TylbTkhdYzNbY0hdW2NIXVtjSF1bY0hdbjM=

> <s_epik_cmdline>
J2VwaWtfcHl0aG9uJywgJy1waCcsICc3LjAnLCAnLXRuJywgJzgnLCAnLW1hJywgJzIwMCcsICctbWV0YWxfYmluZGluZycsICctaW1hZScsICc8aW5maWxlLm1hZT4nLCAnLW9tYWUnLCAnPG91dGZpbGUubWFlPic=

> <r_epik_Ionization_Penalty>
0.00100813

> <r_epik_Ionization_Penalty_Charging>
0.000974069

> <r_epik_Ionization_Penalty_Neutral>
3.40643e-05

> <r_epik_State_Penalty>
0.000633842

> <r_epik_Charging_Adjusted_Penalty>
0.00160791

> <i_epik_Tot_Q>
1

> <i_epik_Tot_abs_Q>
1

> <r_epik_Metal_State_Penalty>
-0

> <b_epik_Metal_Only>
0

> <s_lp_Force_Field>
OPLS_2005

> <r_lp_Energy>
38.162

> <b_lp_Chiralities_Consistent>
1

> <s_lp_Variant>
AV-unprocessed.smi:1452-8

> <Gold.Version>
5.8.1

> <Gold.Id.Protein>
6NUR|6NUR_protein|mol2

> <Gold.PLP.Fitness>
39.9194

> <Gold.PLP.PLP>
-28.0837

> <Gold.PLP.part.hbond>
-2.9830

> <Gold.PLP.part.metal>
0.0000

> <Gold.PLP.part.buried>
-1.0240

> <Gold.PLP.part.nonpolar>
-25.1284

> <Gold.PLP.part.repulsive>
0.2157

> <Gold.PLP.ligand.clash>
0.0000

> <Gold.PLP.ligand.torsion>
0.0390

> <Gold.PLP.Chemscore.Hbond>
3.9680

> <Gold.PLP.Chemscore.CHOScore>
0.0000

> <Gold.PLP.Chemscore.Metal>
0.0000

> <Gold.Chemscore.Hbonds>
donor molecule, donor type, donor heavy atom, donor atom, acceptor molecule, acceptor atom, score
      L1  H     3    20       P1  8028  0.91
      L1  H    10    25       P1  8028  0.94
      L1  H    14    40       P1 10175  2.00

> <Gold.PLP.Chemscore.Internal.Correction>
0.0096

> <Gold.Rescore>
     Score         DG    S(hbond)    S(metal)    S(lipo)     H(rot)  DE(clash)    DE(int)     intcor
     17.54     -19.92       2.89        0.00      62.78       1.00       0.04       2.33       ----

> <Gold.Chemscore.Fitness>
17.5426

> <Gold.Chemscore.DG>
-19.9199

> <Gold.Chemscore.ZeroCoef>
-5.4800

> <Gold.Chemscore.Hbond>
2.8908

> <Gold.Chemscore.Metal>
0.0000

> <Gold.Chemscore.Lipo>
62.7753

> <Gold.Chemscore.Internal_Hbond>
0.0000

> <Gold.Chemscore.DEClash>
0.0444

> <Gold.Chemscore.DEInternal>
2.3329

> <Gold.Chemscore.Rot>
1.0000

> <Gold.Chemscore.Internal.Correction>
   9.000000E+99

> <Gold.Chemscore.Hbonds>
donor molecule, donor type, donor heavy atom, donor atom, acceptor molecule, acceptor atom, score
      L1  H     3    20       P1  8028  0.89
      L1  H    10    25       P1  8028  0.79
      L1  H    14    40       P1 10175  0.96

> <Gold.Chemscore.Hbond.Weighted>
-9.6552

> <Gold.Chemscore.Metal.Weighted>
-0.0000

> <Gold.Chemscore.Lipo.Weighted>
-7.3447

> <Gold.Chemscore.Internal_Hbond.Weighted>
0.0000

> <Gold.Chemscore.DEClash.Weighted>
0.0444

> <Gold.Chemscore.DEInternal.Weighted>
2.3329

> <Gold.Chemscore.Rot.Weighted>
2.5600

> <Gold.Chemscore.Internal.Correction.Weighted>
   9.000000E+99

> <Gold.Protein.RotatedTorsions>
[ 6907 6896 6895 6894 ] final -133.39 input  -60.11 | X-H torsion
[ 7974 7965 7964 7962 ] final -156.62 input  175.53 | X-H torsion
[ 8008 7997 7996 7995 ] final  -71.94 input   59.86 | X-H torsion
[ 10167 10162 10161 10158 ] final   84.65 input  -65.29 | X-H torsion
[ 10718 10713 10712 10709 ] final  -71.28 input   66.30 | X-H torsion
[ 10763 10752 10751 10750 ] final  152.60 input  -60.55 | X-H torsion
[ 11005 11000 10999 10996 ] final  -43.46 input  -57.11 | X-H torsion

> <Gold.Protein.ActiveResidues>
 VAL166  LYS551  ARG553  GLY616  TRP617  ASP618  TYR619  PRO620  LYS621  CYS622 
 ASP623  PHE694  ASN695  SER759  ASP760  ASP761  ALA762  ILE779  LEU786  VAL792 
 PHE793  MET794  SER795  GLU796  ALA797  LYS798  CYS799  TRP800  GLU811  SER814 

> <Gold.Protein.RotatedAtoms>
  150.9735  133.6319  159.2733 H   0  0  0  0  0  0  0  0  0  0  0  0  # atno 6907 bound_to 6896
  151.3600  135.0901  159.9441 H   0  0  0  0  0  0  0  0  0  0  0  0  # atno 6908 bound_to 6896
  152.5191  133.9310  159.7635 H   0  0  0  0  0  0  0  0  0  0  0  0  # atno 6909 bound_to 6896
  144.7585  140.4084  143.5994 H   0  0  0  0  0  0  0  0  0  0  0  0  # atno 7974 bound_to 7965
  154.5127  140.0806  156.8021 H   0  0  0  0  0  0  0  0  0  0  0  0  # atno 8008 bound_to 7997
  155.3749  140.3425  155.4226 H   0  0  0  0  0  0  0  0  0  0  0  0  # atno 8009 bound_to 7997
  156.1592  140.1583  156.8628 H   0  0  0  0  0  0  0  0  0  0  0  0  # atno 8010 bound_to 7997
  139.9059  144.6301  150.8588 H   0  0  0  0  0  0  0  0  0  0  0  0  # atno 10167 bound_to 10162
  156.0370  130.4348  150.2421 H   0  0  0  0  0  0  0  0  0  0  0  0  # atno 10718 bound_to 10713
  154.1227  135.2832  155.3204 H   0  0  0  0  0  0  0  0  0  0  0  0  # atno 10763 bound_to 10752
  154.6412  135.5402  153.7794 H   0  0  0  0  0  0  0  0  0  0  0  0  # atno 10764 bound_to 10752
  153.0307  135.6487  154.1380 H   0  0  0  0  0  0  0  0  0  0  0  0  # atno 10765 bound_to 10752
  141.0385  133.6790  156.2736 H   0  0  0  0  0  0  0  0  0  0  0  0  # atno 11005 bound_to 11000
  145.6699  139.1597  143.2760 LP  0  0  0  0  0  0  0  0  0  0  0  0  # atno 17320 bound_to 7965
  146.1622  140.6772  142.9272 LP  0  0  0  0  0  0  0  0  0  0  0  0  # atno 17321 bound_to 7965
  140.7696  143.3402  151.2224 LP  0  0  0  0  0  0  0  0  0  0  0  0  # atno 17342 bound_to 10162
  139.6985  143.9573  152.2894 LP  0  0  0  0  0  0  0  0  0  0  0  0  # atno 17343 bound_to 10162
  157.0519  131.0065  151.3251 LP  0  0  0  0  0  0  0  0  0  0  0  0  # atno 17370 bound_to 10713
  157.5134  130.7953  149.7730 LP  0  0  0  0  0  0  0  0  0  0  0  0  # atno 17371 bound_to 10713
  140.6278  134.5296  157.5556 LP  0  0  0  0  0  0  0  0  0  0  0  0  # atno 17394 bound_to 11000
  139.9258  134.8058  156.1073 LP  0  0  0  0  0  0  0  0  0  0  0  0  # atno 17395 bound_to 11000

$$$$
