AV-unprocessed.smi:1163|AV-procd|sdf|4921|dock3
  -GOLD-   22720 3503D 1   1.00000     0.00000
 Structure written by MMmdl.
 39 40  0  0  0  0  0  0  0  0  1 V2000
  136.8530  138.3999  157.0811 C   0  0  0  0  0  0  0  0  0  0  0  0
  137.8222  137.3574  157.0678 O   0  0  0  0  0  0  0  0  0  0  0  0
  138.9666  137.5368  156.3177 C   0  0  0  0  0  0  0  0  0  0  0  0
  139.9334  136.5120  156.3067 C   0  0  0  0  0  0  0  0  0  0  0  0
  141.1003  136.6892  155.5398 C   0  0  0  0  0  0  0  0  0  0  0  0
  141.2647  137.8780  154.8009 C   0  0  0  0  0  0  0  0  0  0  0  0
  142.4604  138.0336  154.0489 N   0  0  0  0  0  0  0  0  0  0  0  0
  143.2941  137.0833  153.5925 C   0  0  0  0  0  0  0  0  0  0  0  0
  143.1644  135.8736  153.7780 O   0  0  0  0  0  0  0  0  0  0  0  0
  144.3154  137.6259  152.9151 N   0  0  0  0  0  0  0  0  0  0  0  0
  145.4177  136.8926  152.2992 C   0  0  1  0  0  0  0  0  0  0  0  0
  146.4363  136.4060  153.3269 C   0  0  0  0  0  0  0  0  0  0  0  0
  146.7801  135.0036  152.8389 C   0  0  0  0  0  0  0  0  0  0  0  0
  145.4966  134.5088  152.3661 N   0  0  0  0  0  0  0  0  0  0  0  0
  145.6463  133.2808  151.5879 C   0  0  0  0  0  0  0  0  0  0  0  0
  144.3426  132.4645  151.4908 C   0  0  0  0  0  0  0  0  0  0  0  0
  144.6394  131.1722  151.6210 F   0  0  0  0  0  0  0  0  0  0  0  0
  143.5037  132.8070  152.4692 F   0  0  0  0  0  0  0  0  0  0  0  0
  143.7417  132.6362  150.3133 F   0  0  0  0  0  0  0  0  0  0  0  0
  144.9115  135.6150  151.6123 C   0  0  0  0  0  0  0  0  0  0  0  0
  140.2421  138.8541  154.8879 C   0  0  0  0  0  0  0  0  0  0  0  0
  139.1214  138.6907  155.6227 N   0  0  0  0  0  0  0  0  0  0  0  0
  136.0105  138.1018  157.7050 H   0  0  0  0  0  0  0  0  0  0  0  0
  136.4675  138.6007  156.0803 H   0  0  0  0  0  0  0  0  0  0  0  0
  137.2645  139.3202  157.4984 H   0  0  0  0  0  0  0  0  0  0  0  0
  139.7822  135.6071  156.8764 H   0  0  0  0  0  0  0  0  0  0  0  0
  141.8563  135.9177  155.5178 H   0  0  0  0  0  0  0  0  0  0  0  0
  142.7441  138.9879  153.8824 H   0  0  0  0  0  0  0  0  0  0  0  0
  144.3375  138.6306  152.8199 H   0  0  0  0  0  0  0  0  0  0  0  0
  145.9285  137.5013  151.5509 H   0  0  0  0  0  0  0  0  0  0  0  0
  147.3116  137.0532  153.3894 H   0  0  0  0  0  0  0  0  0  0  0  0
  145.9922  136.3474  154.3222 H   0  0  0  0  0  0  0  0  0  0  0  0
  147.4940  135.0536  152.0148 H   0  0  0  0  0  0  0  0  0  0  0  0
  147.1986  134.3744  153.6251 H   0  0  0  0  0  0  0  0  0  0  0  0
  146.0318  133.5069  150.5924 H   0  0  0  0  0  0  0  0  0  0  0  0
  146.3994  132.6633  152.0797 H   0  0  0  0  0  0  0  0  0  0  0  0
  143.8234  135.5448  151.5927 H   0  0  0  0  0  0  0  0  0  0  0  0
  145.2672  135.5964  150.5806 H   0  0  0  0  0  0  0  0  0  0  0  0
  140.3109  139.8041  154.3818 H   0  0  0  0  0  0  0  0  0  0  0  0
  1  2  1  0  0  0  0
  1 23  1  0  0  0  0
  1 24  1  0  0  0  0
  1 25  1  0  0  0  0
  2  3  1  0  0  0  0
  3 22  1  0  0  0  0
  3  4  2  0  0  0  0
  4  5  1  0  0  0  0
  4 26  1  0  0  0  0
  5  6  2  0  0  0  0
  5 27  1  0  0  0  0
  6  7  1  0  0  0  0
  6 21  1  0  0  0  0
  7  8  1  0  0  0  0
  7 28  1  0  0  0  0
  8  9  2  0  0  0  0
  8 10  1  0  0  0  0
 10 11  1  0  0  0  0
 10 29  1  0  0  0  0
 11 20  1  0  0  0  0
 11 12  1  0  0  0  0
 11 30  1  0  0  0  0
 12 13  1  0  0  0  0
 12 31  1  0  0  0  0
 12 32  1  0  0  0  0
 13 14  1  0  0  0  0
 13 33  1  0  0  0  0
 13 34  1  0  0  0  0
 14 15  1  0  0  0  0
 14 20  1  0  0  0  0
 15 16  1  0  0  0  0
 15 35  1  0  0  0  0
 15 36  1  0  0  0  0
 16 17  1  0  0  0  0
 16 18  1  0  0  0  0
 16 19  1  0  0  0  0
 20 37  1  0  0  0  0
 20 38  1  0  0  0  0
 21 22  2  0  0  0  0
 21 39  1  0  0  0  0
M  END
> <s_m_source_file>
AV-unprocessed.smi

> <i_m_source_file_index>
1163

> <i_lp_mmshare_version>
43012

> <i_f3d_flags>
0

> <s_epik_input>
W0NIM11PYzFbY0hdW2NIXWMoW2NIXW4xKVtOSF1DKD1PKVtOSF1bQ0BASF0yW0NIMl1bQ0gyXU4oW0NIMl0yKVtDSDJdQyhGKShGKUY=

> <s_epik_cmdline>
J2VwaWtfcHl0aG9uJywgJy1waCcsICc3LjAnLCAnLXRuJywgJzgnLCAnLW1hJywgJzIwMCcsICctbWV0YWxfYmluZGluZycsICctaW1hZScsICc8aW5maWxlLm1hZT4nLCAnLW9tYWUnLCAnPG91dGZpbGUubWFlPic=

> <r_lp_tautomer_probability>
1

> <r_epik_Ionization_Penalty>
0.0970123

> <r_epik_Ionization_Penalty_Charging>
0

> <r_epik_Ionization_Penalty_Neutral>
0.0970123

> <r_epik_State_Penalty>
0.0870533

> <r_epik_Charging_Adjusted_Penalty>
0.0870533

> <i_epik_Tot_Q>
0

> <i_epik_Tot_abs_Q>
0

> <r_epik_Metal_State_Penalty>
0.0870519

> <b_epik_Metal_Only>
0

> <s_lp_Force_Field>
OPLS_2005

> <r_lp_Energy>
29.6524

> <b_lp_Chiralities_Consistent>
1

> <s_lp_Variant>
AV-unprocessed.smi:1163-2

> <Gold.Version>
5.8.1

> <Gold.Id.Protein>
6NUR|6NUR_protein|mol2

> <Gold.PLP.Fitness>
47.2269

> <Gold.PLP.PLP>
-40.8612

> <Gold.PLP.part.hbond>
-3.0000

> <Gold.PLP.part.metal>
0.0000

> <Gold.PLP.part.buried>
-5.3516

> <Gold.PLP.part.nonpolar>
-33.4669

> <Gold.PLP.part.repulsive>
0.4308

> <Gold.PLP.ligand.clash>
0.0000

> <Gold.PLP.ligand.torsion>
1.3954

> <Gold.PLP.Chemscore.Hbond>
1.9920

> <Gold.PLP.Chemscore.CHOScore>
0.8926

> <Gold.PLP.Chemscore.Metal>
0.0000

> <Gold.Chemscore.Hbonds>
donor molecule, donor type, donor heavy atom, donor atom, acceptor molecule, acceptor atom, score
      L1  H     7    28       P1 10175  0.56
      L1  H    10    29       P1 10175  1.00

> <Gold.PLP.Chemscore.Internal.Correction>
0.5026

> <Gold.Rescore>
     Score         DG    S(hbond)    S(metal)    S(lipo)     H(rot)  DE(clash)    DE(int)     intcor
      8.78     -14.53       1.86        0.00      60.33       1.65       0.72       5.03       ----

> <Gold.Chemscore.Fitness>
8.7825

> <Gold.Chemscore.DG>
-14.5346

> <Gold.Chemscore.ZeroCoef>
-5.4800

> <Gold.Chemscore.Hbond>
1.8635

> <Gold.Chemscore.Metal>
0.0000

> <Gold.Chemscore.Lipo>
60.3276

> <Gold.Chemscore.Internal_Hbond>
0.0000

> <Gold.Chemscore.DEClash>
0.7226

> <Gold.Chemscore.DEInternal>
5.0294

> <Gold.Chemscore.Rot>
1.6515

> <Gold.Chemscore.Internal.Correction>
   9.000000E+99

> <Gold.Chemscore.Hbonds>
donor molecule, donor type, donor heavy atom, donor atom, acceptor molecule, acceptor atom, score
      L1  H     7    28       P1 10175  0.54
      L1  H    10    29       P1 10175  0.97

> <Gold.Chemscore.Hbond.Weighted>
-6.2241

> <Gold.Chemscore.Metal.Weighted>
-0.0000

> <Gold.Chemscore.Lipo.Weighted>
-7.0583

> <Gold.Chemscore.Internal_Hbond.Weighted>
0.0000

> <Gold.Chemscore.DEClash.Weighted>
0.7226

> <Gold.Chemscore.DEInternal.Weighted>
5.0294

> <Gold.Chemscore.Rot.Weighted>
4.2279

> <Gold.Chemscore.Internal.Correction.Weighted>
   9.000000E+99

> <Gold.Protein.RotatedTorsions>
[ 6907 6896 6895 6894 ] final -128.62 input  -60.11 | X-H torsion
[ 7974 7965 7964 7962 ] final   -1.85 input  175.53 | X-H torsion
[ 8008 7997 7996 7995 ] final   30.71 input   59.86 | X-H torsion
[ 10167 10162 10161 10158 ] final -107.14 input  -65.29 | X-H torsion
[ 10718 10713 10712 10709 ] final  167.02 input   66.30 | X-H torsion
[ 10763 10752 10751 10750 ] final  -91.16 input  -60.55 | X-H torsion
[ 11005 11000 10999 10996 ] final -126.43 input  -57.11 | X-H torsion

> <Gold.Protein.ActiveResidues>
 VAL166  LYS551  ARG553  GLY616  TRP617  ASP618  TYR619  PRO620  LYS621  CYS622 
 ASP623  PHE694  ASN695  SER759  ASP760  ASP761  ALA762  ILE779  LEU786  VAL792 
 PHE793  MET794  SER795  GLU796  ALA797  LYS798  CYS799  TRP800  GLU811  SER814 

> <Gold.Protein.RotatedAtoms>
  150.9199  133.6893  159.2834 H   0  0  0  0  0  0  0  0  0  0  0  0  # atno 6907 bound_to 6896
  151.4351  135.1013  159.9663 H   0  0  0  0  0  0  0  0  0  0  0  0  # atno 6908 bound_to 6896
  152.4974  133.8620  159.7310 H   0  0  0  0  0  0  0  0  0  0  0  0  # atno 6909 bound_to 6896
  146.2412  140.1483  142.8334 H   0  0  0  0  0  0  0  0  0  0  0  0  # atno 7974 bound_to 7965
  155.0948  140.3223  155.4563 H   0  0  0  0  0  0  0  0  0  0  0  0  # atno 8008 bound_to 7997
  156.2733  140.2071  156.6021 H   0  0  0  0  0  0  0  0  0  0  0  0  # atno 8009 bound_to 7997
  154.6875  140.0520  157.0316 H   0  0  0  0  0  0  0  0  0  0  0  0  # atno 8010 bound_to 7997
  140.1801  143.3973  152.1288 H   0  0  0  0  0  0  0  0  0  0  0  0  # atno 10167 bound_to 10162
  157.0575  131.0330  151.2659 H   0  0  0  0  0  0  0  0  0  0  0  0  # atno 10718 bound_to 10713
  154.6732  135.5278  153.8165 H   0  0  0  0  0  0  0  0  0  0  0  0  # atno 10763 bound_to 10752
  153.0515  135.6534  154.0692 H   0  0  0  0  0  0  0  0  0  0  0  0  # atno 10764 bound_to 10752
  154.0588  135.2963  155.3308 H   0  0  0  0  0  0  0  0  0  0  0  0  # atno 10765 bound_to 10752
  140.9682  134.0842  157.3897 H   0  0  0  0  0  0  0  0  0  0  0  0  # atno 11005 bound_to 11000
  145.0189  140.8777  143.5179 LP  0  0  0  0  0  0  0  0  0  0  0  0  # atno 17320 bound_to 7965
  145.1528  139.2504  143.5432 LP  0  0  0  0  0  0  0  0  0  0  0  0  # atno 17321 bound_to 7965
  139.5300  144.7147  151.5091 LP  0  0  0  0  0  0  0  0  0  0  0  0  # atno 17342 bound_to 10162
  140.6525  143.8667  150.6800 LP  0  0  0  0  0  0  0  0  0  0  0  0  # atno 17343 bound_to 10162
  157.4981  130.7863  149.7576 LP  0  0  0  0  0  0  0  0  0  0  0  0  # atno 17370 bound_to 10713
  155.9988  130.3892  150.2686 LP  0  0  0  0  0  0  0  0  0  0  0  0  # atno 17371 bound_to 10713
  139.8902  135.0110  156.6724 LP  0  0  0  0  0  0  0  0  0  0  0  0  # atno 17394 bound_to 11000
  140.7368  133.9012  155.8250 LP  0  0  0  0  0  0  0  0  0  0  0  0  # atno 17395 bound_to 11000

$$$$
