AV-unprocessed.smi:768|AV-procd|sdf|3673|dock2
  -GOLD-   22720 1 83D 1   1.00000     0.00000
 Structure written by MMmdl.
 48 49  0  0  0  0  0  0  0  0  1 V2000
  154.0495  140.9572  161.9997 C   0  0  0  0  0  0  0  0  0  0  0  0
  153.2250  142.0868  161.4079 C   0  0  0  0  0  0  0  0  0  0  0  0
  152.7860  143.1123  162.1695 C   0  0  0  0  0  0  0  0  0  0  0  0
  152.0073  144.1848  161.5996 C   0  0  0  0  0  0  0  0  0  0  0  0
  151.7273  144.1373  160.2896 C   0  0  0  0  0  0  0  0  0  0  0  0
  152.1706  143.0797  159.4740 N   0  0  0  0  0  0  0  0  0  0  0  0
  151.8061  143.1400  158.0459 C   0  0  0  0  0  0  0  0  0  0  0  0
  150.9702  141.9508  157.5404 C   0  0  0  0  0  0  0  0  0  0  0  0
  151.1026  140.8552  158.0839 O   0  0  0  0  0  0  0  0  0  0  0  0
  150.1369  142.1595  156.5072 N   0  0  0  0  0  0  0  0  0  0  0  0
  149.3498  141.1419  155.8198 C   0  0  0  0  0  0  0  0  0  0  0  0
  148.6014  141.7512  154.6232 C   0  0  0  0  0  0  0  0  0  0  0  0
  147.0733  141.7161  154.7751 C   0  0  0  0  0  0  0  0  0  0  0  0
  146.4858  142.3677  153.6590 O   0  0  0  0  0  0  0  0  0  0  0  0
  145.8858  143.6217  153.9602 C   0  0  0  0  0  0  0  0  0  0  0  0
  144.6455  143.4385  154.8612 C   0  0  0  0  0  0  0  0  0  0  0  0
  143.9069  144.7685  155.0802 C   0  0  0  0  0  0  0  0  0  0  0  0
  143.5245  145.4231  153.7436 C   0  0  0  0  0  0  0  0  0  0  0  0
  144.7566  145.6080  152.8441 C   0  0  0  0  0  0  0  0  0  0  0  0
  145.4884  144.2740  152.6242 C   0  0  0  0  0  0  0  0  0  0  0  0
  152.9157  142.0410  159.9666 C   0  0  0  0  0  0  0  0  0  0  0  0
  153.3060  141.1275  159.2374 O   0  0  0  0  0  0  0  0  0  0  0  0
  154.1738  141.0766  163.0764 H   0  0  0  0  0  0  0  0  0  0  0  0
  155.0411  140.9339  161.5486 H   0  0  0  0  0  0  0  0  0  0  0  0
  153.5671  139.9955  161.8217 H   0  0  0  0  0  0  0  0  0  0  0  0
  153.0194  143.1382  163.2239 H   0  0  0  0  0  0  0  0  0  0  0  0
  151.6623  145.0052  162.2115 H   0  0  0  0  0  0  0  0  0  0  0  0
  151.1560  144.9023  159.7839 H   0  0  0  0  0  0  0  0  0  0  0  0
  151.2594  144.0619  157.8384 H   0  0  0  0  0  0  0  0  0  0  0  0
  152.7033  143.2034  157.4289 H   0  0  0  0  0  0  0  0  0  0  0  0
  150.0848  143.0956  156.1323 H   0  0  0  0  0  0  0  0  0  0  0  0
  149.9715  140.3130  155.4781 H   0  0  0  0  0  0  0  0  0  0  0  0
  148.6350  140.7244  156.5290 H   0  0  0  0  0  0  0  0  0  0  0  0
  148.9243  142.7842  154.4889 H   0  0  0  0  0  0  0  0  0  0  0  0
  148.8855  141.2231  153.7122 H   0  0  0  0  0  0  0  0  0  0  0  0
  146.7287  140.6845  154.8353 H   0  0  0  0  0  0  0  0  0  0  0  0
  146.7775  142.2153  155.6988 H   0  0  0  0  0  0  0  0  0  0  0  0
  146.6105  144.2707  154.4559 H   0  0  0  0  0  0  0  0  0  0  0  0
  143.9667  142.7169  154.4047 H   0  0  0  0  0  0  0  0  0  0  0  0
  144.9273  143.0284  155.8302 H   0  0  0  0  0  0  0  0  0  0  0  0
  143.0129  144.6011  155.6817 H   0  0  0  0  0  0  0  0  0  0  0  0
  144.5413  145.4474  155.6515 H   0  0  0  0  0  0  0  0  0  0  0  0
  142.7874  144.8035  153.2308 H   0  0  0  0  0  0  0  0  0  0  0  0
  143.0468  146.3864  153.9241 H   0  0  0  0  0  0  0  0  0  0  0  0
  144.4565  146.0296  151.8843 H   0  0  0  0  0  0  0  0  0  0  0  0
  145.4378  146.3283  153.2992 H   0  0  0  0  0  0  0  0  0  0  0  0
  146.3759  144.4364  152.0119 H   0  0  0  0  0  0  0  0  0  0  0  0
  144.8452  143.5961  152.0614 H   0  0  0  0  0  0  0  0  0  0  0  0
  1  2  1  0  0  0  0
  1 23  1  0  0  0  0
  1 24  1  0  0  0  0
  1 25  1  0  0  0  0
  2 21  1  0  0  0  0
  2  3  2  0  0  0  0
  3  4  1  0  0  0  0
  3 26  1  0  0  0  0
  4  5  2  0  0  0  0
  4 27  1  0  0  0  0
  5  6  1  0  0  0  0
  5 28  1  0  0  0  0
  6  7  1  0  0  0  0
  6 21  1  0  0  0  0
  7  8  1  0  0  0  0
  7 29  1  0  0  0  0
  7 30  1  0  0  0  0
  8  9  2  0  0  0  0
  8 10  1  0  0  0  0
 10 11  1  0  0  0  0
 10 31  1  0  0  0  0
 11 12  1  0  0  0  0
 11 32  1  0  0  0  0
 11 33  1  0  0  0  0
 12 13  1  0  0  0  0
 12 34  1  0  0  0  0
 12 35  1  0  0  0  0
 13 14  1  0  0  0  0
 13 36  1  0  0  0  0
 13 37  1  0  0  0  0
 14 15  1  0  0  0  0
 15 20  1  0  0  0  0
 15 16  1  0  0  0  0
 15 38  1  0  0  0  0
 16 17  1  0  0  0  0
 16 39  1  0  0  0  0
 16 40  1  0  0  0  0
 17 18  1  0  0  0  0
 17 41  1  0  0  0  0
 17 42  1  0  0  0  0
 18 19  1  0  0  0  0
 18 43  1  0  0  0  0
 18 44  1  0  0  0  0
 19 20  1  0  0  0  0
 19 45  1  0  0  0  0
 19 46  1  0  0  0  0
 20 47  1  0  0  0  0
 20 48  1  0  0  0  0
 21 22  2  0  0  0  0
M  END
> <s_m_source_file>
AV-unprocessed.smi

> <i_m_source_file_index>
768

> <i_lp_mmshare_version>
43012

> <i_f3d_flags>
0

> <s_epik_input>
W0NIM11jMVtjSF1bY0hdW2NIXW4oYzE9TylbQ0gyXUMoPU8pW05IXVtDSDJdW0NIMl1bQ0gyXU9bQ0hdMltDSDJdW0NIMl1bQ0gyXVtDSDJdW0NIMl0y

> <s_epik_cmdline>
J2VwaWtfcHl0aG9uJywgJy1waCcsICc3LjAnLCAnLXRuJywgJzgnLCAnLW1hJywgJzIwMCcsICctbWV0YWxfYmluZGluZycsICctaW1hZScsICc8aW5maWxlLm1hZT4nLCAnLW9tYWUnLCAnPG91dGZpbGUubWFlPic=

> <r_lp_tautomer_probability>
1

> <r_epik_Ionization_Penalty>
7.81262e-07

> <r_epik_Ionization_Penalty_Charging>
7.6198e-07

> <r_epik_Ionization_Penalty_Neutral>
1.92812e-08

> <r_epik_State_Penalty>
-0

> <r_epik_Charging_Adjusted_Penalty>
7.6198e-07

> <i_epik_Tot_Q>
0

> <i_epik_Tot_abs_Q>
0

> <r_epik_Metal_State_Penalty>
-0

> <b_epik_Metal_Only>
0

> <s_lp_Force_Field>
OPLS_2005

> <r_lp_Energy>
20.2971

> <b_lp_Chiralities_Consistent>
1

> <s_lp_Variant>
AV-unprocessed.smi:768-1

> <Gold.Version>
5.8.1

> <Gold.Id.Protein>
6NUR|6NUR_protein|mol2

> <Gold.PLP.Fitness>
54.1400

> <Gold.PLP.PLP>
-53.4275

> <Gold.PLP.part.hbond>
-1.1661

> <Gold.PLP.part.metal>
0.0000

> <Gold.PLP.part.buried>
-4.2479

> <Gold.PLP.part.nonpolar>
-47.6992

> <Gold.PLP.part.repulsive>
0.2577

> <Gold.PLP.ligand.clash>
0.0000

> <Gold.PLP.ligand.torsion>
1.1318

> <Gold.PLP.Chemscore.Hbond>
0.9588

> <Gold.PLP.Chemscore.CHOScore>
0.0000

> <Gold.PLP.Chemscore.Metal>
0.0000

> <Gold.Chemscore.Hbonds>
donor molecule, donor type, donor heavy atom, donor atom, acceptor molecule, acceptor atom, score
      L1  H    10    31       P1  8028  0.86

> <Gold.PLP.Chemscore.Internal.Correction>
0.0999

> <Gold.Rescore>
     Score         DG    S(hbond)    S(metal)    S(lipo)     H(rot)  DE(clash)    DE(int)     intcor
     14.19     -18.67       0.93        0.00     129.22       1.97       0.57       3.91       ----

> <Gold.Chemscore.Fitness>
14.1893

> <Gold.Chemscore.DG>
-18.6717

> <Gold.Chemscore.ZeroCoef>
-5.4800

> <Gold.Chemscore.Hbond>
0.9308

> <Gold.Chemscore.Metal>
0.0000

> <Gold.Chemscore.Lipo>
129.2195

> <Gold.Chemscore.Internal_Hbond>
0.0000

> <Gold.Chemscore.DEClash>
0.5720

> <Gold.Chemscore.DEInternal>
3.9103

> <Gold.Chemscore.Rot>
1.9671

> <Gold.Chemscore.Internal.Correction>
   9.000000E+99

> <Gold.Chemscore.Hbonds>
donor molecule, donor type, donor heavy atom, donor atom, acceptor molecule, acceptor atom, score
      L1  H    10    31       P1  8028  0.80

> <Gold.Chemscore.Hbond.Weighted>
-3.1089

> <Gold.Chemscore.Metal.Weighted>
-0.0000

> <Gold.Chemscore.Lipo.Weighted>
-15.1187

> <Gold.Chemscore.Internal_Hbond.Weighted>
0.0000

> <Gold.Chemscore.DEClash.Weighted>
0.5720

> <Gold.Chemscore.DEInternal.Weighted>
3.9103

> <Gold.Chemscore.Rot.Weighted>
5.0359

> <Gold.Chemscore.Internal.Correction.Weighted>
   9.000000E+99

> <Gold.Protein.RotatedTorsions>
[ 6907 6896 6895 6894 ] final   -5.17 input  -60.11 | X-H torsion
[ 7974 7965 7964 7962 ] final -132.51 input  175.53 | X-H torsion
[ 8008 7997 7996 7995 ] final  159.58 input   59.86 | X-H torsion
[ 10167 10162 10161 10158 ] final  116.81 input  -65.29 | X-H torsion
[ 10718 10713 10712 10709 ] final   94.54 input   66.30 | X-H torsion
[ 10763 10752 10751 10750 ] final  151.35 input  -60.55 | X-H torsion
[ 11005 11000 10999 10996 ] final -159.34 input  -57.11 | X-H torsion

> <Gold.Protein.ActiveResidues>
 VAL166  LYS551  ARG553  GLY616  TRP617  ASP618  TYR619  PRO620  LYS621  CYS622 
 ASP623  PHE694  ASN695  SER759  ASP760  ASP761  ALA762  ILE779  LEU786  VAL792 
 PHE793  MET794  SER795  GLU796  ALA797  LYS798  CYS799  TRP800  GLU811  SER814 

> <Gold.Protein.RotatedAtoms>
  151.4859  135.1055  159.9790 H   0  0  0  0  0  0  0  0  0  0  0  0  # atno 6907 bound_to 6896
  152.4760  133.8137  159.7027 H   0  0  0  0  0  0  0  0  0  0  0  0  # atno 6908 bound_to 6896
  150.8799  133.7325  159.2961 H   0  0  0  0  0  0  0  0  0  0  0  0  # atno 6909 bound_to 6896
  144.9278  140.7092  143.4925 H   0  0  0  0  0  0  0  0  0  0  0  0  # atno 7974 bound_to 7965
  156.2229  140.1827  156.7433 H   0  0  0  0  0  0  0  0  0  0  0  0  # atno 8008 bound_to 7997
  154.5894  140.0653  156.9246 H   0  0  0  0  0  0  0  0  0  0  0  0  # atno 8009 bound_to 7997
  155.2362  140.3318  155.4300 H   0  0  0  0  0  0  0  0  0  0  0  0  # atno 8010 bound_to 7997
  139.6221  144.7102  151.2611 H   0  0  0  0  0  0  0  0  0  0  0  0  # atno 10167 bound_to 10162
  157.6947  131.0515  150.4201 H   0  0  0  0  0  0  0  0  0  0  0  0  # atno 10718 bound_to 10713
  154.1023  135.2845  155.3249 H   0  0  0  0  0  0  0  0  0  0  0  0  # atno 10763 bound_to 10752
  154.6547  135.5356  153.7947 H   0  0  0  0  0  0  0  0  0  0  0  0  # atno 10764 bound_to 10752
  153.0374  135.6519  154.1186 H   0  0  0  0  0  0  0  0  0  0  0  0  # atno 10765 bound_to 10752
  140.6436  134.4525  157.5234 H   0  0  0  0  0  0  0  0  0  0  0  0  # atno 11005 bound_to 11000
  145.3190  139.1794  143.4598 LP  0  0  0  0  0  0  0  0  0  0  0  0  # atno 17320 bound_to 7965
  146.3234  140.3205  142.8633 LP  0  0  0  0  0  0  0  0  0  0  0  0  # atno 17321 bound_to 7965
  140.7388  143.6636  150.8143 LP  0  0  0  0  0  0  0  0  0  0  0  0  # atno 17342 bound_to 10162
  140.0248  143.5505  152.2785 LP  0  0  0  0  0  0  0  0  0  0  0  0  # atno 17343 bound_to 10162
  156.4577  130.4025  149.6596 LP  0  0  0  0  0  0  0  0  0  0  0  0  # atno 17370 bound_to 10713
  156.3722  130.7536  151.2520 LP  0  0  0  0  0  0  0  0  0  0  0  0  # atno 17371 bound_to 10713
  139.9071  134.8425  156.1665 LP  0  0  0  0  0  0  0  0  0  0  0  0  # atno 17394 bound_to 11000
  141.0588  133.6852  156.1913 LP  0  0  0  0  0  0  0  0  0  0  0  0  # atno 17395 bound_to 11000

$$$$
