AV-unprocessed.smi:1424|AV-procd|sdf|5799|dock10
  -GOLD-   22720 5453D 1   1.00000     0.00000
 Structure written by MMmdl.
 45 47  0  0  0  0  0  0  0  0  1 V2000
  152.9853  139.2514  157.1738 O   0  0  0  0  0  0  0  0  0  0  0  0
  152.0337  140.0172  157.3246 C   0  0  0  0  0  0  0  0  0  0  0  0
  151.0536  140.1676  156.4222 N   0  0  0  0  0  0  0  0  0  0  0  0
  150.9723  139.4820  155.1356 C   0  0  0  0  0  0  0  0  0  0  0  0
  149.5977  139.6611  154.4614 C   0  0  2  0  0  0  0  0  0  0  0  0
  149.1170  141.1268  154.3923 C   0  0  0  0  0  0  0  0  0  0  0  0
  147.6401  141.1405  153.9862 C   0  0  0  0  0  0  0  0  0  0  0  0
  146.9061  139.6475  154.7492 S   0  0  0  0  0  0  0  0  0  0  0  0
  146.2222  140.0204  155.9967 O   0  0  0  0  0  0  0  0  0  0  0  0
  146.2158  138.8675  153.7109 O   0  0  0  0  0  0  0  0  0  0  0  0
  148.5009  138.8437  155.1638 C   0  0  0  0  0  0  0  0  0  0  0  0
  151.8392  140.8172  158.3867 N   0  0  0  0  0  0  0  0  0  0  0  0
  152.6576  140.9787  159.5419 C   0  0  0  0  0  0  0  0  0  0  0  0
  153.4976  139.9498  160.0344 C   0  0  0  0  0  0  0  0  0  0  0  0
  154.2665  140.1833  161.1886 C   0  0  0  0  0  0  0  0  0  0  0  0
  154.1622  141.4357  161.8177 C   0  0  0  0  0  0  0  0  0  0  0  0
  153.3552  142.4194  161.3721 N   0  0  0  0  0  0  0  0  0  0  0  0
  152.6142  142.2059  160.2574 C   0  0  0  0  0  0  0  0  0  0  0  0
  151.7539  143.2414  159.8373 N   0  0  0  0  0  0  0  0  0  0  0  0
  151.6334  144.3255  160.8079 C   0  0  0  0  0  0  0  0  0  0  0  0
  151.4847  145.6140  159.9975 C   0  0  0  0  0  0  0  0  0  0  0  0
  152.2393  145.2958  158.7130 C   0  0  0  0  0  0  0  0  0  0  0  0
  151.9275  143.8145  158.5029 C   0  0  0  0  0  0  0  0  0  0  0  0
  150.3140  140.8215  156.6332 H   0  0  0  0  0  0  0  0  0  0  0  0
  151.7475  139.9024  154.4943 H   0  0  0  0  0  0  0  0  0  0  0  0
  151.2113  138.4222  155.2416 H   0  0  0  0  0  0  0  0  0  0  0  0
  149.6659  139.2946  153.4358 H   0  0  0  0  0  0  0  0  0  0  0  0
  149.2169  141.5840  155.3777 H   0  0  0  0  0  0  0  0  0  0  0  0
  149.7167  141.7218  153.7033 H   0  0  0  0  0  0  0  0  0  0  0  0
  147.1113  142.0343  154.3179 H   0  0  0  0  0  0  0  0  0  0  0  0
  147.5358  141.0523  152.9046 H   0  0  0  0  0  0  0  0  0  0  0  0
  148.4863  137.7989  154.8529 H   0  0  0  0  0  0  0  0  0  0  0  0
  148.6162  138.8798  156.2476 H   0  0  0  0  0  0  0  0  0  0  0  0
  151.0585  141.4542  158.3233 H   0  0  0  0  0  0  0  0  0  0  0  0
  153.5564  138.9828  159.5596 H   0  0  0  0  0  0  0  0  0  0  0  0
  154.9167  139.4174  161.5844 H   0  0  0  0  0  0  0  0  0  0  0  0
  154.7353  141.6515  162.7073 H   0  0  0  0  0  0  0  0  0  0  0  0
  150.7802  144.1707  161.4686 H   0  0  0  0  0  0  0  0  0  0  0  0
  152.5311  144.3772  161.4272 H   0  0  0  0  0  0  0  0  0  0  0  0
  150.4320  145.7925  159.7726 H   0  0  0  0  0  0  0  0  0  0  0  0
  151.8739  146.4898  160.5171 H   0  0  0  0  0  0  0  0  0  0  0  0
  151.9350  145.9180  157.8710 H   0  0  0  0  0  0  0  0  0  0  0  0
  153.3106  145.4320  158.8680 H   0  0  0  0  0  0  0  0  0  0  0  0
  152.6881  143.3235  157.8956 H   0  0  0  0  0  0  0  0  0  0  0  0
  150.9813  143.7068  157.9715 H   0  0  0  0  0  0  0  0  0  0  0  0
  1  2  2  0  0  0  0
  2  3  1  0  0  0  0
  2 12  1  0  0  0  0
  3  4  1  0  0  0  0
  3 24  1  0  0  0  0
  4  5  1  0  0  0  0
  4 25  1  0  0  0  0
  4 26  1  0  0  0  0
  5 11  1  0  0  0  0
  5  6  1  0  0  0  0
  5 27  1  0  0  0  0
  6  7  1  0  0  0  0
  6 28  1  0  0  0  0
  6 29  1  0  0  0  0
  7  8  1  0  0  0  0
  7 30  1  0  0  0  0
  7 31  1  0  0  0  0
  8  9  2  0  0  0  0
  8 10  2  0  0  0  0
  8 11  1  0  0  0  0
 11 32  1  0  0  0  0
 11 33  1  0  0  0  0
 12 13  1  0  0  0  0
 12 34  1  0  0  0  0
 13 18  1  0  0  0  0
 13 14  2  0  0  0  0
 14 15  1  0  0  0  0
 14 35  1  0  0  0  0
 15 16  2  0  0  0  0
 15 36  1  0  0  0  0
 16 17  1  0  0  0  0
 16 37  1  0  0  0  0
 17 18  2  0  0  0  0
 18 19  1  0  0  0  0
 19 23  1  0  0  0  0
 19 20  1  0  0  0  0
 20 21  1  0  0  0  0
 20 38  1  0  0  0  0
 20 39  1  0  0  0  0
 21 22  1  0  0  0  0
 21 40  1  0  0  0  0
 21 41  1  0  0  0  0
 22 23  1  0  0  0  0
 22 42  1  0  0  0  0
 22 43  1  0  0  0  0
 23 44  1  0  0  0  0
 23 45  1  0  0  0  0
M  END
> <s_m_source_file>
AV-unprocessed.smi

> <i_m_source_file_index>
1424

> <i_lp_mmshare_version>
43012

> <i_f3d_flags>
0

> <s_epik_input>
Tz1TMSg9TylbQ0gyXVtDSDJdW0NASF0oW0NIMl0xKVtDSDJdW05IXUMoPU8pW05IXWMyW2NIXVtjSF1bY0hdbmMyTjNbQ0gyXVtDSDJdW0NIMl1bQ0gyXTM=

> <s_epik_cmdline>
J2VwaWtfcHl0aG9uJywgJy1waCcsICc3LjAnLCAnLXRuJywgJzgnLCAnLW1hJywgJzIwMCcsICctbWV0YWxfYmluZGluZycsICctaW1hZScsICc8aW5maWxlLm1hZT4nLCAnLW9tYWUnLCAnPG91dGZpbGUubWFlPic=

> <r_lp_tautomer_probability>
1

> <r_epik_Ionization_Penalty>
0.0965651

> <r_epik_Ionization_Penalty_Charging>
0

> <r_epik_Ionization_Penalty_Neutral>
0.0965651

> <r_epik_State_Penalty>
0.0861592

> <r_epik_Charging_Adjusted_Penalty>
0.0861592

> <i_epik_Tot_Q>
0

> <i_epik_Tot_abs_Q>
0

> <r_epik_Metal_State_Penalty>
0.0740444

> <b_epik_Metal_Only>
0

> <s_lp_Force_Field>
OPLS_2005

> <r_lp_Energy>
33.9356

> <b_lp_Chiralities_Consistent>
1

> <s_lp_Variant>
AV-unprocessed.smi:1424-1

> <Gold.Version>
5.8.1

> <Gold.Id.Protein>
6NUR|6NUR_protein|mol2

> <Gold.PLP.Fitness>
49.0923

> <Gold.PLP.PLP>
-46.7340

> <Gold.PLP.part.hbond>
-1.0000

> <Gold.PLP.part.metal>
0.0000

> <Gold.PLP.part.buried>
-4.4964

> <Gold.PLP.part.nonpolar>
-41.5616

> <Gold.PLP.part.repulsive>
0.4869

> <Gold.PLP.ligand.clash>
0.0000

> <Gold.PLP.ligand.torsion>
0.3791

> <Gold.PLP.Chemscore.Hbond>
1.0000

> <Gold.PLP.Chemscore.CHOScore>
0.0000

> <Gold.PLP.Chemscore.Metal>
0.0000

> <Gold.Chemscore.Hbonds>
donor molecule, donor type, donor heavy atom, donor atom, acceptor molecule, acceptor atom, score
      P1  H  7997  8009       L1     1  1.00

> <Gold.PLP.Chemscore.Internal.Correction>
0.1165

> <Gold.Rescore>
     Score         DG    S(hbond)    S(metal)    S(lipo)     H(rot)  DE(clash)    DE(int)     intcor
     16.20     -18.75       0.96        0.00     118.23       1.47       0.05       2.50       ----

> <Gold.Chemscore.Fitness>
16.2007

> <Gold.Chemscore.DG>
-18.7482

> <Gold.Chemscore.ZeroCoef>
-5.4800

> <Gold.Chemscore.Hbond>
0.9609

> <Gold.Chemscore.Metal>
0.0000

> <Gold.Chemscore.Lipo>
118.2323

> <Gold.Chemscore.Internal_Hbond>
0.0000

> <Gold.Chemscore.DEClash>
0.0485

> <Gold.Chemscore.DEInternal>
2.4991

> <Gold.Chemscore.Rot>
1.4744

> <Gold.Chemscore.Internal.Correction>
   9.000000E+99

> <Gold.Chemscore.Hbonds>
donor molecule, donor type, donor heavy atom, donor atom, acceptor molecule, acceptor atom, score
      P1  H  7997  8009       L1     1  0.88

> <Gold.Chemscore.Hbond.Weighted>
-3.2095

> <Gold.Chemscore.Metal.Weighted>
-0.0000

> <Gold.Chemscore.Lipo.Weighted>
-13.8332

> <Gold.Chemscore.Internal_Hbond.Weighted>
0.0000

> <Gold.Chemscore.DEClash.Weighted>
0.0485

> <Gold.Chemscore.DEInternal.Weighted>
2.4991

> <Gold.Chemscore.Rot.Weighted>
3.7744

> <Gold.Chemscore.Internal.Correction.Weighted>
   9.000000E+99

> <Gold.Protein.RotatedTorsions>
[ 6907 6896 6895 6894 ] final -178.27 input  -60.11 | X-H torsion
[ 7974 7965 7964 7962 ] final -142.09 input  175.53 | X-H torsion
[ 8008 7997 7996 7995 ] final  164.88 input   59.86 | X-H torsion
[ 10167 10162 10161 10158 ] final   79.86 input  -65.29 | X-H torsion
[ 10718 10713 10712 10709 ] final -147.97 input   66.30 | X-H torsion
[ 10763 10752 10751 10750 ] final  161.21 input  -60.55 | X-H torsion
[ 11005 11000 10999 10996 ] final  -72.81 input  -57.11 | X-H torsion

> <Gold.Protein.ActiveResidues>
 VAL166  LYS551  ARG553  GLY616  TRP617  ASP618  TYR619  PRO620  LYS621  CYS622 
 ASP623  PHE694  ASN695  SER759  ASP760  ASP761  ALA762  ILE779  LEU786  VAL792 
 PHE793  MET794  SER795  GLU796  ALA797  LYS798  CYS799  TRP800  GLU811  SER814 

> <Gold.Protein.RotatedAtoms>
  151.6345  133.3330  159.3115 H   0  0  0  0  0  0  0  0  0  0  0  0  # atno 6907 bound_to 6896
  150.8039  134.7156  159.6638 H   0  0  0  0  0  0  0  0  0  0  0  0  # atno 6908 bound_to 6896
  152.4134  134.6089  160.0072 H   0  0  0  0  0  0  0  0  0  0  0  0  # atno 6909 bound_to 6896
  144.8469  140.6000  143.5415 H   0  0  0  0  0  0  0  0  0  0  0  0  # atno 7974 bound_to 7965
  156.1845  140.1685  156.8211 H   0  0  0  0  0  0  0  0  0  0  0  0  # atno 8008 bound_to 7997
  154.5398  140.0739  156.8523 H   0  0  0  0  0  0  0  0  0  0  0  0  # atno 8009 bound_to 7997
  155.3238  140.3375  155.4243 H   0  0  0  0  0  0  0  0  0  0  0  0  # atno 8010 bound_to 7997
  139.9558  144.5995  150.8118 H   0  0  0  0  0  0  0  0  0  0  0  0  # atno 10167 bound_to 10162
  156.4143  130.7997  151.2216 H   0  0  0  0  0  0  0  0  0  0  0  0  # atno 10718 bound_to 10713
  154.2594  135.2769  155.2784 H   0  0  0  0  0  0  0  0  0  0  0  0  # atno 10763 bound_to 10752
  154.5397  135.5706  153.6832 H   0  0  0  0  0  0  0  0  0  0  0  0  # atno 10764 bound_to 10752
  152.9965  135.6248  154.2744 H   0  0  0  0  0  0  0  0  0  0  0  0  # atno 10765 bound_to 10752
  141.1614  133.6858  156.7115 H   0  0  0  0  0  0  0  0  0  0  0  0  # atno 11005 bound_to 11000
  145.4578  139.1516  143.3883 LP  0  0  0  0  0  0  0  0  0  0  0  0  # atno 17320 bound_to 7965
  146.2752  140.4707  142.8798 LP  0  0  0  0  0  0  0  0  0  0  0  0  # atno 17321 bound_to 7965
  140.7569  143.3074  151.2927 LP  0  0  0  0  0  0  0  0  0  0  0  0  # atno 17342 bound_to 10162
  139.6592  144.0220  152.2681 LP  0  0  0  0  0  0  0  0  0  0  0  0  # atno 17343 bound_to 10162
  157.7507  131.0248  150.3891 LP  0  0  0  0  0  0  0  0  0  0  0  0  # atno 17370 bound_to 10713
  156.4195  130.3950  149.6835 LP  0  0  0  0  0  0  0  0  0  0  0  0  # atno 17371 bound_to 10713
  140.2883  134.8261  157.3994 LP  0  0  0  0  0  0  0  0  0  0  0  0  # atno 17394 bound_to 11000
  140.1370  134.5021  155.8061 LP  0  0  0  0  0  0  0  0  0  0  0  0  # atno 17395 bound_to 11000

$$$$
