AV-unprocessed.smi:148|AV-procd|sdf|1205|dock8
  -GOLD-   2262018373D 1   1.00000     0.00000
 Structure written by MMmdl.
 63 67  0  0  0  0  0  0  0  0  1 V2000
  151.7069  132.8497  157.3960 O   0  0  0  0  0  0  0  0  0  0  0  0
  150.7426  132.3845  156.4750 C   0  0  0  0  0  0  0  0  0  0  0  0
  149.8609  133.5509  155.9700 C   0  0  1  0  0  0  0  0  0  0  0  0
  150.7387  134.6402  155.3027 C   0  0  0  0  0  0  0  0  0  0  0  0
  150.7132  135.9138  156.0003 N   0  0  0  0  0  0  0  0  0  0  0  0
  149.9822  136.2249  157.1254 C   0  0  0  0  0  0  0  0  0  0  0  0
  150.1355  137.4428  157.5689 N   0  0  0  0  0  0  0  0  0  0  0  0
  151.0317  138.0152  156.6755 C   0  0  0  0  0  0  0  0  0  0  0  0
  151.6237  139.3003  156.5600 C   0  0  0  0  0  0  0  0  0  0  0  0
  151.3679  140.2873  157.4517 N   0  0  0  0  0  0  0  0  0  0  0  0
  152.5909  140.5652  158.2080 C   0  0  0  0  0  0  0  0  0  0  0  0
  152.3330  141.5201  159.3796 C   0  0  0  0  0  0  0  0  0  0  0  0
  151.6691  142.8050  158.8777 C   0  0  0  0  0  0  0  0  0  0  0  0
  150.3752  142.4540  158.1346 C   0  0  0  0  0  0  0  0  0  0  0  0
  150.6290  141.4688  156.9624 C   0  0  2  0  0  0  0  0  0  0  0  0
  149.3210  141.1041  156.1846 C   0  0  2  0  0  0  0  0  0  0  0  0
  149.5493  140.5611  154.7634 C   0  0  0  0  0  0  0  0  0  0  0  0
  148.2548  140.8399  153.9818 C   0  0  0  0  0  0  0  0  0  0  0  0
  147.3421  141.6354  154.9224 C   0  0  0  0  0  0  0  0  0  0  0  0
  148.2790  142.2171  155.9817 C   0  0  1  0  0  0  0  0  0  0  0  0
  147.5735  142.5331  157.1635 O   0  0  0  0  0  0  0  0  0  0  0  0
  152.4966  139.5075  155.5375 N   0  0  0  0  0  0  0  0  0  0  0  0
  152.7520  138.5252  154.6679 C   0  0  0  0  0  0  0  0  0  0  0  0
  152.2624  137.2834  154.6433 N   0  0  0  0  0  0  0  0  0  0  0  0
  151.4016  137.0699  155.6796 C   0  0  0  0  0  0  0  0  0  0  0  0
  148.6838  133.0914  155.0639 C   0  0  2  0  0  0  0  0  0  0  0  0
  149.0733  132.2845  153.8239 C   0  0  0  0  0  0  0  0  0  0  0  0
  148.2905  132.9431  152.6873 C   0  0  0  0  0  0  0  0  0  0  0  0
  147.2359  133.6311  153.3410 O   0  0  0  0  0  0  0  0  0  0  0  0
  147.7930  134.2090  154.5088 C   0  0  0  0  0  0  0  0  0  0  0  0
  152.5534  132.8404  156.9760 H   0  0  0  0  0  0  0  0  0  0  0  0
  151.2575  131.8926  155.6497 H   0  0  0  0  0  0  0  0  0  0  0  0
  150.1519  131.6210  156.9789 H   0  0  0  0  0  0  0  0  0  0  0  0
  149.3974  134.0028  156.8483 H   0  0  0  0  0  0  0  0  0  0  0  0
  151.7779  134.3140  155.2487 H   0  0  0  0  0  0  0  0  0  0  0  0
  150.4144  134.8049  154.2743 H   0  0  0  0  0  0  0  0  0  0  0  0
  149.3337  135.5136  157.6159 H   0  0  0  0  0  0  0  0  0  0  0  0
  153.0151  139.6358  158.5918 H   0  0  0  0  0  0  0  0  0  0  0  0
  153.3355  140.9997  157.5388 H   0  0  0  0  0  0  0  0  0  0  0  0
  151.6915  141.0340  160.1160 H   0  0  0  0  0  0  0  0  0  0  0  0
  153.2702  141.7526  159.8856 H   0  0  0  0  0  0  0  0  0  0  0  0
  151.4548  143.4689  159.7156 H   0  0  0  0  0  0  0  0  0  0  0  0
  152.3468  143.3428  158.2137 H   0  0  0  0  0  0  0  0  0  0  0  0
  149.6858  142.0160  158.8556 H   0  0  0  0  0  0  0  0  0  0  0  0
  149.9113  143.3739  157.7826 H   0  0  0  0  0  0  0  0  0  0  0  0
  151.2907  141.9751  156.2579 H   0  0  0  0  0  0  0  0  0  0  0  0
  148.8106  140.2910  156.7010 H   0  0  0  0  0  0  0  0  0  0  0  0
  150.3773  141.0638  154.2661 H   0  0  0  0  0  0  0  0  0  0  0  0
  149.7898  139.4975  154.7815 H   0  0  0  0  0  0  0  0  0  0  0  0
  148.4796  141.4226  153.0876 H   0  0  0  0  0  0  0  0  0  0  0  0
  147.7727  139.9171  153.6565 H   0  0  0  0  0  0  0  0  0  0  0  0
  146.7695  142.4032  154.4014 H   0  0  0  0  0  0  0  0  0  0  0  0
  146.6292  140.9528  155.3883 H   0  0  0  0  0  0  0  0  0  0  0  0
  148.7339  143.1220  155.5809 H   0  0  0  0  0  0  0  0  0  0  0  0
  146.7307  142.8880  156.9255 H   0  0  0  0  0  0  0  0  0  0  0  0
  153.4511  138.7672  153.8809 H   0  0  0  0  0  0  0  0  0  0  0  0
  148.0367  132.4294  155.6401 H   0  0  0  0  0  0  0  0  0  0  0  0
  150.1427  132.2729  153.6166 H   0  0  0  0  0  0  0  0  0  0  0  0
  148.7620  131.2462  153.9470 H   0  0  0  0  0  0  0  0  0  0  0  0
  148.9155  133.6634  152.1570 H   0  0  0  0  0  0  0  0  0  0  0  0
  147.9116  132.2214  151.9632 H   0  0  0  0  0  0  0  0  0  0  0  0
  147.0184  134.5156  155.2120 H   0  0  0  0  0  0  0  0  0  0  0  0
  148.3637  135.0930  154.2244 H   0  0  0  0  0  0  0  0  0  0  0  0
  1  2  1  0  0  0  0
  1 31  1  0  0  0  0
  2  3  1  0  0  0  0
  2 32  1  0  0  0  0
  2 33  1  0  0  0  0
  3  4  1  0  0  0  0
  3 26  1  0  0  0  0
  3 34  1  0  0  0  0
  4  5  1  0  0  0  0
  4 35  1  0  0  0  0
  4 36  1  0  0  0  0
  5 25  1  0  0  0  0
  5  6  1  0  0  0  0
  6  7  2  0  0  0  0
  6 37  1  0  0  0  0
  7  8  1  0  0  0  0
  8 25  2  0  0  0  0
  8  9  1  0  0  0  0
  9 10  1  0  0  0  0
  9 22  2  0  0  0  0
 10 15  1  0  0  0  0
 10 11  1  0  0  0  0
 11 12  1  0  0  0  0
 11 38  1  0  0  0  0
 11 39  1  0  0  0  0
 12 13  1  0  0  0  0
 12 40  1  0  0  0  0
 12 41  1  0  0  0  0
 13 14  1  0  0  0  0
 13 42  1  0  0  0  0
 13 43  1  0  0  0  0
 14 15  1  0  0  0  0
 14 44  1  0  0  0  0
 14 45  1  0  0  0  0
 15 16  1  0  0  0  0
 15 46  1  0  0  0  0
 16 20  1  0  0  0  0
 16 17  1  0  0  0  0
 16 47  1  0  0  0  0
 17 18  1  0  0  0  0
 17 48  1  0  0  0  0
 17 49  1  0  0  0  0
 18 19  1  0  0  0  0
 18 50  1  0  0  0  0
 18 51  1  0  0  0  0
 19 20  1  0  0  0  0
 19 52  1  0  0  0  0
 19 53  1  0  0  0  0
 20 21  1  0  0  0  0
 20 54  1  0  0  0  0
 21 55  1  0  0  0  0
 22 23  1  0  0  0  0
 23 24  2  0  0  0  0
 23 56  1  0  0  0  0
 24 25  1  0  0  0  0
 26 30  1  0  0  0  0
 26 27  1  0  0  0  0
 26 57  1  0  0  0  0
 27 28  1  0  0  0  0
 27 58  1  0  0  0  0
 27 59  1  0  0  0  0
 28 29  1  0  0  0  0
 28 60  1  0  0  0  0
 28 61  1  0  0  0  0
 29 30  1  0  0  0  0
 30 62  1  0  0  0  0
 30 63  1  0  0  0  0
M  END
> <s_m_source_file>
AV-unprocessed.smi

> <i_m_source_file_index>
148

> <i_lp_mmshare_version>
43012

> <i_f3d_flags>
0

> <s_epik_input>
W0NIMl0xT1tDSDJdW0NIMl1bQ0BIXTFbQ0BIXShbQ0gyXVtPSF0pW0NIMl1uKFtjSF1uMiljKGMyMyluW2NIXW5jM040W0NIMl1bQ0gyXVtDSDJdW0NIMl1bQ0BIXTRbQ0BASF01W0NIMl1bQ0gyXVtDSDJdW0NASF01W09IXQ==

> <s_epik_cmdline>
J2VwaWtfcHl0aG9uJywgJy1waCcsICc3LjAnLCAnLXRuJywgJzgnLCAnLW1hJywgJzIwMCcsICctbWV0YWxfYmluZGluZycsICctaW1hZScsICc8aW5maWxlLm1hZT4nLCAnLW9tYWUnLCAnPG91dGZpbGUubWFlPic=

> <r_lp_tautomer_probability>
1

> <r_epik_Ionization_Penalty>
0.00556303

> <r_epik_Ionization_Penalty_Charging>
0

> <r_epik_Ionization_Penalty_Neutral>
0.00556303

> <r_epik_State_Penalty>
0.00401767

> <r_epik_Charging_Adjusted_Penalty>
0.00401767

> <i_epik_Tot_Q>
0

> <i_epik_Tot_abs_Q>
0

> <r_epik_Metal_State_Penalty>
-0

> <b_epik_Metal_Only>
0

> <s_lp_Force_Field>
OPLS_2005

> <r_lp_Energy>
67.6364

> <b_lp_Chiralities_Consistent>
1

> <s_lp_Variant>
AV-unprocessed.smi:148-4

> <Gold.Version>
5.8.1

> <Gold.Id.Protein>
6NUR|6NUR_protein|mol2

> <Gold.PLP.Fitness>
47.3979

> <Gold.PLP.PLP>
-42.3154

> <Gold.PLP.part.hbond>
-3.9620

> <Gold.PLP.part.metal>
0.0000

> <Gold.PLP.part.buried>
-0.4041

> <Gold.PLP.part.nonpolar>
-38.2169

> <Gold.PLP.part.repulsive>
0.2242

> <Gold.PLP.ligand.clash>
1.1194

> <Gold.PLP.ligand.torsion>
1.2352

> <Gold.PLP.Chemscore.Hbond>
2.7353

> <Gold.PLP.Chemscore.CHOScore>
0.0000

> <Gold.PLP.Chemscore.Metal>
0.0000

> <Gold.Chemscore.Hbonds>
donor molecule, donor type, donor heavy atom, donor atom, acceptor molecule, acceptor atom, score
      P1  H  6896  6908       L1     1  0.91
      P1  H  7997  8009       L1    22  0.93
      P1  H 10752 10765       L1    24  0.78

> <Gold.PLP.Chemscore.Internal.Correction>
0.4665

> <Gold.Rescore>
     Score         DG    S(hbond)    S(metal)    S(lipo)     H(rot)  DE(clash)    DE(int)     intcor
     13.33     -17.70       2.47        0.00     106.62       3.32       1.80       2.57       ----

> <Gold.Chemscore.Fitness>
13.3312

> <Gold.Chemscore.DG>
-17.7013

> <Gold.Chemscore.ZeroCoef>
-5.4800

> <Gold.Chemscore.Hbond>
2.4691

> <Gold.Chemscore.Metal>
0.0000

> <Gold.Chemscore.Lipo>
106.6191

> <Gold.Chemscore.Internal_Hbond>
0.0000

> <Gold.Chemscore.DEClash>
1.8040

> <Gold.Chemscore.DEInternal>
2.5661

> <Gold.Chemscore.Rot>
3.3203

> <Gold.Chemscore.Internal.Correction>
   9.000000E+99

> <Gold.Chemscore.Hbonds>
donor molecule, donor type, donor heavy atom, donor atom, acceptor molecule, acceptor atom, score
      P1  H  6896  6908       L1     1  0.89
      P1  H  7997  8009       L1    22  0.38
      P1  H 10752 10765       L1    24  0.27

> <Gold.Chemscore.Hbond.Weighted>
-8.2469

> <Gold.Chemscore.Metal.Weighted>
-0.0000

> <Gold.Chemscore.Lipo.Weighted>
-12.4744

> <Gold.Chemscore.Internal_Hbond.Weighted>
0.0000

> <Gold.Chemscore.DEClash.Weighted>
1.8040

> <Gold.Chemscore.DEInternal.Weighted>
2.5661

> <Gold.Chemscore.Rot.Weighted>
8.5000

> <Gold.Chemscore.Internal.Correction.Weighted>
   9.000000E+99

> <Gold.Protein.RotatedTorsions>
[ 6907 6896 6895 6894 ] final   73.50 input  -60.11 | X-H torsion
[ 7974 7965 7964 7962 ] final -116.23 input  175.53 | X-H torsion
[ 8008 7997 7996 7995 ] final -152.91 input   59.86 | X-H torsion
[ 10167 10162 10161 10158 ] final  112.94 input  -65.29 | X-H torsion
[ 10718 10713 10712 10709 ] final  149.37 input   66.30 | X-H torsion
[ 10763 10752 10751 10750 ] final  167.80 input  -60.55 | X-H torsion
[ 11005 11000 10999 10996 ] final  -78.50 input  -57.11 | X-H torsion

> <Gold.Protein.ActiveResidues>
 VAL166  LYS551  ARG553  GLY616  TRP617  ASP618  TYR619  PRO620  LYS621  CYS622 
 ASP623  PHE694  ASN695  SER759  ASP760  ASP761  ALA762  ILE779  LEU786  VAL792 
 PHE793  MET794  SER795  GLU796  ALA797  LYS798  CYS799  TRP800  GLU811  SER814 

> <Gold.Protein.RotatedAtoms>
  152.4926  134.4412  159.9543 H   0  0  0  0  0  0  0  0  0  0  0  0  # atno 6907 bound_to 6896
  151.4397  133.3641  159.2788 H   0  0  0  0  0  0  0  0  0  0  0  0  # atno 6908 bound_to 6896
  150.9096  134.8536  159.7476 H   0  0  0  0  0  0  0  0  0  0  0  0  # atno 6909 bound_to 6896
  145.0992  140.8540  143.3936 H   0  0  0  0  0  0  0  0  0  0  0  0  # atno 7974 bound_to 7965
  155.6626  140.0724  157.2548 H   0  0  0  0  0  0  0  0  0  0  0  0  # atno 8008 bound_to 7997
  154.4139  140.1713  156.1844 H   0  0  0  0  0  0  0  0  0  0  0  0  # atno 8009 bound_to 7997
  155.9684  140.3364  155.6556 H   0  0  0  0  0  0  0  0  0  0  0  0  # atno 8010 bound_to 7997
  139.6498  144.7128  151.2070 H   0  0  0  0  0  0  0  0  0  0  0  0  # atno 10167 bound_to 10162
  157.2969  131.0863  151.1419 H   0  0  0  0  0  0  0  0  0  0  0  0  # atno 10718 bound_to 10713
  154.3592  135.2753  155.2329 H   0  0  0  0  0  0  0  0  0  0  0  0  # atno 10763 bound_to 10752
  154.4525  135.5927  153.6205 H   0  0  0  0  0  0  0  0  0  0  0  0  # atno 10764 bound_to 10752
  152.9844  135.6045  154.3810 H   0  0  0  0  0  0  0  0  0  0  0  0  # atno 10765 bound_to 10752
  141.1665  133.7066  156.7981 H   0  0  0  0  0  0  0  0  0  0  0  0  # atno 11005 bound_to 11000
  145.0976  139.2846  143.5703 LP  0  0  0  0  0  0  0  0  0  0  0  0  # atno 17320 bound_to 7965
  146.3530  140.0532  142.8634 LP  0  0  0  0  0  0  0  0  0  0  0  0  # atno 17321 bound_to 7965
  140.7532  143.6168  150.8551 LP  0  0  0  0  0  0  0  0  0  0  0  0  # atno 17342 bound_to 10162
  139.9815  143.5945  152.2941 LP  0  0  0  0  0  0  0  0  0  0  0  0  # atno 17343 bound_to 10162
  157.2794  130.6742  149.6058 LP  0  0  0  0  0  0  0  0  0  0  0  0  # atno 17370 bound_to 10713
  155.9669  130.4454  150.5502 LP  0  0  0  0  0  0  0  0  0  0  0  0  # atno 17371 bound_to 10713
  140.2276  134.8710  157.3443 LP  0  0  0  0  0  0  0  0  0  0  0  0  # atno 17394 bound_to 11000
  140.1923  134.4356  155.7708 LP  0  0  0  0  0  0  0  0  0  0  0  0  # atno 17395 bound_to 11000

$$$$
