AV-unprocessed.smi:1872|AV-procd|sdf|7605|dock7
  -GOLD-   22720 9323D 1   1.00000     0.00000
 Structure written by MMmdl.
 40 42  0  0  0  0  0  0  0  0  2 V2000
  149.9856  141.4595  155.2541 C   0  0  0  0  0  0  0  0  0  0  0  0
  150.7202  141.8585  156.4897 C   0  0  0  0  0  0  0  0  0  0  0  0
  150.7087  143.0927  157.0671 N   0  3  0  0  0  0  0  0  0  0  0  0
  151.5153  143.0885  158.2060 C   0  0  0  0  0  0  0  0  0  0  0  0
  151.8138  144.1004  159.1135 C   0  0  0  0  0  0  0  0  0  0  0  0
  152.6772  143.7629  160.1762 C   0  0  0  0  0  0  0  0  0  0  0  0
  153.2061  142.4623  160.3073 C   0  0  0  0  0  0  0  0  0  0  0  0
  152.8961  141.4450  159.3811 C   0  0  0  0  0  0  0  0  0  0  0  0
  152.0439  141.7870  158.3309 C   0  0  0  0  0  0  0  0  0  0  0  0
  151.5266  141.0635  157.2489 N   0  0  0  0  0  0  0  0  0  0  0  0
  151.8867  139.6473  157.0749 C   0  0  0  0  0  0  0  0  0  0  0  0
  151.1101  138.7091  158.0201 C   0  0  2  0  0  0  0  0  0  0  0  0
  151.9468  138.2793  159.0766 O   0  0  0  0  0  0  0  0  0  0  0  0
  150.5015  137.5431  157.2576 C   0  0  0  0  0  0  0  0  0  0  0  0
  150.7683  137.3842  155.8818 C   0  0  0  0  0  0  0  0  0  0  0  0
  150.2172  136.2999  155.1725 C   0  0  0  0  0  0  0  0  0  0  0  0
  149.3887  135.3634  155.8226 C   0  0  0  0  0  0  0  0  0  0  0  0
  148.8924  134.3174  155.0781 O   0  0  0  0  0  0  0  0  0  0  0  0
  149.7519  133.5370  154.3704 C   0  0  0  0  0  0  0  0  0  0  0  0
  150.4305  132.7224  155.2139 F   0  0  0  0  0  0  0  0  0  0  0  0
  149.0713  132.7505  153.5010 F   0  0  0  0  0  0  0  0  0  0  0  0
  149.1331  135.5163  157.2064 C   0  0  0  0  0  0  0  0  0  0  0  0
  149.6845  136.5998  157.9168 C   0  0  0  0  0  0  0  0  0  0  0  0
  149.4189  142.3014  154.8561 H   0  0  0  0  0  0  0  0  0  0  0  0
  149.2925  140.6471  155.4731 H   0  0  0  0  0  0  0  0  0  0  0  0
  150.6880  141.1225  154.4916 H   0  0  0  0  0  0  0  0  0  0  0  0
  151.4084  145.0969  159.0158 H   0  0  0  0  0  0  0  0  0  0  0  0
  152.9377  144.5157  160.9060 H   0  0  0  0  0  0  0  0  0  0  0  0
  153.8624  142.2394  161.1360 H   0  0  0  0  0  0  0  0  0  0  0  0
  153.3029  140.4514  159.4962 H   0  0  0  0  0  0  0  0  0  0  0  0
  151.6700  139.3872  156.0381 H   0  0  0  0  0  0  0  0  0  0  0  0
  152.9639  139.5305  157.1945 H   0  0  0  0  0  0  0  0  0  0  0  0
  150.2980  139.2728  158.4810 H   0  0  0  0  0  0  0  0  0  0  0  0
  152.7487  138.7787  159.0441 H   0  0  0  0  0  0  0  0  0  0  0  0
  151.3998  138.0914  155.3641 H   0  0  0  0  0  0  0  0  0  0  0  0
  150.4305  136.1870  154.1195 H   0  0  0  0  0  0  0  0  0  0  0  0
  150.4827  134.1341  153.8244 H   0  0  0  0  0  0  0  0  0  0  0  0
  148.5204  134.8040  157.7386 H   0  0  0  0  0  0  0  0  0  0  0  0
  149.4818  136.7003  158.9731 H   0  0  0  0  0  0  0  0  0  0  0  0
  150.1858  143.8804  156.7063 H   0  0  0  0  0  0  0  0  0  0  0  0
  1  2  1  0  0  0  0
  1 24  1  0  0  0  0
  1 25  1  0  0  0  0
  1 26  1  0  0  0  0
  2 10  1  0  0  0  0
  2  3  2  0  0  0  0
  3  4  1  0  0  0  0
  3 40  1  0  0  0  0
  4  9  2  0  0  0  0
  4  5  1  0  0  0  0
  5  6  2  0  0  0  0
  5 27  1  0  0  0  0
  6  7  1  0  0  0  0
  6 28  1  0  0  0  0
  7  8  2  0  0  0  0
  7 29  1  0  0  0  0
  8  9  1  0  0  0  0
  8 30  1  0  0  0  0
  9 10  1  0  0  0  0
 10 11  1  0  0  0  0
 11 12  1  0  0  0  0
 11 31  1  0  0  0  0
 11 32  1  0  0  0  0
 12 13  1  0  0  0  0
 12 14  1  0  0  0  0
 12 33  1  0  0  0  0
 13 34  1  0  0  0  0
 14 23  1  0  0  0  0
 14 15  2  0  0  0  0
 15 16  1  0  0  0  0
 15 35  1  0  0  0  0
 16 17  2  0  0  0  0
 16 36  1  0  0  0  0
 17 18  1  0  0  0  0
 17 22  1  0  0  0  0
 18 19  1  0  0  0  0
 19 20  1  0  0  0  0
 19 21  1  0  0  0  0
 19 37  1  0  0  0  0
 22 23  2  0  0  0  0
 22 38  1  0  0  0  0
 23 39  1  0  0  0  0
M  CHG  1   3   1
M  END
> <s_m_source_file>
AV-unprocessed.smi

> <i_m_source_file_index>
1872

> <i_lp_mmshare_version>
43012

> <i_f3d_flags>
0

> <s_epik_input>
W2NIXTFbY0hdW2NIXVtjSF1jKGMxMiluKGMobjIpW0NIM10pW0NIMl1bQ0BIXShbT0hdKWMzW2NIXVtjSF1jKE9bQ0hdKEYpRilbY0hdW2NIXTM=

> <s_epik_cmdline>
J2VwaWtfcHl0aG9uJywgJy1waCcsICc3LjAnLCAnLXRuJywgJzgnLCAnLW1hJywgJzIwMCcsICctbWV0YWxfYmluZGluZycsICctaW1hZScsICc8aW5maWxlLm1hZT4nLCAnLW9tYWUnLCAnPG91dGZpbGUubWFlPic=

> <r_lp_tautomer_probability>
1

> <r_epik_Ionization_Penalty>
0.963868

> <r_epik_Ionization_Penalty_Charging>
0.963868

> <r_epik_Ionization_Penalty_Neutral>
2.50501e-07

> <r_epik_State_Penalty>
1.00924

> <r_epik_Charging_Adjusted_Penalty>
1.9731

> <i_epik_Tot_Q>
1

> <i_epik_Tot_abs_Q>
1

> <r_epik_Metal_State_Penalty>
4.98304

> <b_epik_Metal_Only>
0

> <s_lp_Force_Field>
OPLS_2005

> <r_lp_Energy>
14.3509

> <b_lp_Chiralities_Consistent>
1

> <s_lp_Variant>
AV-unprocessed.smi:1872-3

> <Gold.Version>
5.8.1

> <Gold.Id.Protein>
6NUR|6NUR_protein|mol2

> <Gold.PLP.Fitness>
46.9368

> <Gold.PLP.PLP>
-42.9875

> <Gold.PLP.part.hbond>
-1.0000

> <Gold.PLP.part.metal>
0.0000

> <Gold.PLP.part.buried>
-6.4261

> <Gold.PLP.part.nonpolar>
-35.3996

> <Gold.PLP.part.repulsive>
0.0902

> <Gold.PLP.ligand.clash>
0.0000

> <Gold.PLP.ligand.torsion>
1.0424

> <Gold.PLP.Chemscore.Hbond>
2.0000

> <Gold.PLP.Chemscore.CHOScore>
0.0000

> <Gold.PLP.Chemscore.Metal>
0.0000

> <Gold.Chemscore.Hbonds>
donor molecule, donor type, donor heavy atom, donor atom, acceptor molecule, acceptor atom, score
      L1  H     3    40       P1  8028  2.00

> <Gold.PLP.Chemscore.Internal.Correction>
0.0341

> <Gold.Rescore>
     Score         DG    S(hbond)    S(metal)    S(lipo)     H(rot)  DE(clash)    DE(int)     intcor
     14.72     -15.79       1.00        0.00     110.46       2.32       0.00       1.07       ----

> <Gold.Chemscore.Fitness>
14.7228

> <Gold.Chemscore.DG>
-15.7927

> <Gold.Chemscore.ZeroCoef>
-5.4800

> <Gold.Chemscore.Hbond>
0.9960

> <Gold.Chemscore.Metal>
0.0000

> <Gold.Chemscore.Lipo>
110.4599

> <Gold.Chemscore.Internal_Hbond>
0.0000

> <Gold.Chemscore.DEClash>
0.0000

> <Gold.Chemscore.DEInternal>
1.0699

> <Gold.Chemscore.Rot>
2.3195

> <Gold.Chemscore.Internal.Correction>
   9.000000E+99

> <Gold.Chemscore.Hbonds>
donor molecule, donor type, donor heavy atom, donor atom, acceptor molecule, acceptor atom, score
      L1  H     3    40       P1  8028  0.99

> <Gold.Chemscore.Hbond.Weighted>
-3.3268

> <Gold.Chemscore.Metal.Weighted>
-0.0000

> <Gold.Chemscore.Lipo.Weighted>
-12.9238

> <Gold.Chemscore.Internal_Hbond.Weighted>
0.0000

> <Gold.Chemscore.DEClash.Weighted>
0.0000

> <Gold.Chemscore.DEInternal.Weighted>
1.0699

> <Gold.Chemscore.Rot.Weighted>
5.9379

> <Gold.Chemscore.Internal.Correction.Weighted>
   9.000000E+99

> <Gold.Protein.RotatedTorsions>
[ 6907 6896 6895 6894 ] final   73.25 input  -60.11 | X-H torsion
[ 7974 7965 7964 7962 ] final  -35.47 input  175.53 | X-H torsion
[ 8008 7997 7996 7995 ] final   41.74 input   59.86 | X-H torsion
[ 10167 10162 10161 10158 ] final  134.28 input  -65.29 | X-H torsion
[ 10718 10713 10712 10709 ] final  176.21 input   66.30 | X-H torsion
[ 10763 10752 10751 10750 ] final  118.46 input  -60.55 | X-H torsion
[ 11005 11000 10999 10996 ] final -149.45 input  -57.11 | X-H torsion

> <Gold.Protein.ActiveResidues>
 VAL166  LYS551  ARG553  GLY616  TRP617  ASP618  TYR619  PRO620  LYS621  CYS622 
 ASP623  PHE694  ASN695  SER759  ASP760  ASP761  ALA762  ILE779  LEU786  VAL792 
 PHE793  MET794  SER795  GLU796  ALA797  LYS798  CYS799  TRP800  GLU811  SER814 

> <Gold.Protein.RotatedAtoms>
  152.4913  134.4449  159.9555 H   0  0  0  0  0  0  0  0  0  0  0  0  # atno 6907 bound_to 6896
  151.4436  133.3630  159.2793 H   0  0  0  0  0  0  0  0  0  0  0  0  # atno 6908 bound_to 6896
  150.9070  134.8510  159.7460 H   0  0  0  0  0  0  0  0  0  0  0  0  # atno 6909 bound_to 6896
  146.0744  140.6163  142.8937 H   0  0  0  0  0  0  0  0  0  0  0  0  # atno 7974 bound_to 7965
  155.2746  140.3368  155.4262 H   0  0  0  0  0  0  0  0  0  0  0  0  # atno 8008 bound_to 7997
  156.2117  140.1772  156.7721 H   0  0  0  0  0  0  0  0  0  0  0  0  # atno 8009 bound_to 7997
  154.5696  140.0672  156.8929 H   0  0  0  0  0  0  0  0  0  0  0  0  # atno 8010 bound_to 7997
  139.5262  144.6575  151.5117 H   0  0  0  0  0  0  0  0  0  0  0  0  # atno 10167 bound_to 10162
  156.9234  130.9948  151.3000 H   0  0  0  0  0  0  0  0  0  0  0  0  # atno 10718 bound_to 10713
  153.5680  135.3507  155.2826 H   0  0  0  0  0  0  0  0  0  0  0  0  # atno 10763 bound_to 10752
  154.8686  135.4152  154.2756 H   0  0  0  0  0  0  0  0  0  0  0  0  # atno 10764 bound_to 10752
  153.3516  135.7055  153.6853 H   0  0  0  0  0  0  0  0  0  0  0  0  # atno 10765 bound_to 10752
  140.7506  134.3411  157.5127 H   0  0  0  0  0  0  0  0  0  0  0  0  # atno 11005 bound_to 11000
  144.7252  140.4501  143.6978 LP  0  0  0  0  0  0  0  0  0  0  0  0  # atno 17320 bound_to 7965
  145.6333  139.1539  143.2956 LP  0  0  0  0  0  0  0  0  0  0  0  0  # atno 17321 bound_to 7965
  140.6407  143.8894  150.6689 LP  0  0  0  0  0  0  0  0  0  0  0  0  # atno 17342 bound_to 10162
  140.2228  143.3796  152.1629 LP  0  0  0  0  0  0  0  0  0  0  0  0  # atno 17343 bound_to 10162
  157.5893  130.8432  149.8635 LP  0  0  0  0  0  0  0  0  0  0  0  0  # atno 17370 bound_to 10713
  156.0480  130.3723  150.1270 LP  0  0  0  0  0  0  0  0  0  0  0  0  # atno 17371 bound_to 10713
  139.8788  134.9139  156.3095 LP  0  0  0  0  0  0  0  0  0  0  0  0  # atno 17394 bound_to 11000
  140.9754  133.7300  156.0595 LP  0  0  0  0  0  0  0  0  0  0  0  0  # atno 17395 bound_to 11000

$$$$
