AV-unprocessed.smi:2026|AV-procd|sdf|8202|dock5
  -GOLD-   2272010463D 1   1.00000     0.00000
 Structure written by MMmdl.
 46 48  0  0  0  0  0  0  0  0  1 V2000
  153.0575  142.7507  161.3689 C   0  0  0  0  0  0  0  0  0  0  0  0
  152.4466  142.4139  160.0199 C   0  0  0  0  0  0  0  0  0  0  0  0
  152.8762  141.2514  159.3409 C   0  0  0  0  0  0  0  0  0  0  0  0
  152.3332  140.9031  158.0847 C   0  0  0  0  0  0  0  0  0  0  0  0
  152.6030  139.8271  157.2564 N   0  0  0  0  0  0  0  0  0  0  0  0
  151.7795  140.0603  156.2383 C   0  0  0  0  0  0  0  0  0  0  0  0
  151.0077  141.1618  156.3088 N   0  0  0  0  0  0  0  0  0  0  0  0
  150.0443  141.6156  155.3215 C   0  0  0  0  0  0  0  0  0  0  0  0
  149.0970  140.4925  154.8565 C   0  0  1  0  0  0  0  0  0  0  0  0
  148.0678  141.0632  154.0710 O   0  0  0  0  0  0  0  0  0  0  0  0
  149.8413  139.4389  154.0104 C   0  0  0  0  0  0  0  0  0  0  0  0
  149.7486  138.0985  154.5976 N   0  0  0  0  0  0  0  0  0  0  0  0
  148.6419  137.5974  155.1741 C   0  0  0  0  0  0  0  0  0  0  0  0
  147.5542  138.1610  155.2852 O   0  0  0  0  0  0  0  0  0  0  0  0
  148.9202  136.3638  155.6162 N   0  0  0  0  0  0  0  0  0  0  0  0
  150.2879  135.9622  155.3472 C   0  0  0  0  0  0  0  0  0  0  0  0
  151.0541  135.7129  156.6585 C   0  0  0  0  0  0  0  0  0  0  0  0
  150.3285  134.7444  154.4064 C   0  0  0  0  0  0  0  0  0  0  0  0
  150.7647  137.2270  154.6502 C   0  0  0  0  0  0  0  0  0  0  0  0
  151.9078  137.3904  154.2224 O   0  0  0  0  0  0  0  0  0  0  0  0
  151.3405  141.7574  157.5209 C   0  0  0  0  0  0  0  0  0  0  0  0
  150.9046  142.9165  158.1872 C   0  0  0  0  0  0  0  0  0  0  0  0
  151.4577  143.2495  159.4413 C   0  0  0  0  0  0  0  0  0  0  0  0
  150.9794  144.5032  160.1525 C   0  0  0  0  0  0  0  0  0  0  0  0
  153.7728  141.9906  161.6841 H   0  0  0  0  0  0  0  0  0  0  0  0
  152.2835  142.8185  162.1334 H   0  0  0  0  0  0  0  0  0  0  0  0
  153.5824  143.7051  161.3214 H   0  0  0  0  0  0  0  0  0  0  0  0
  153.6293  140.6145  159.7809 H   0  0  0  0  0  0  0  0  0  0  0  0
  151.7323  139.3911  155.3914 H   0  0  0  0  0  0  0  0  0  0  0  0
  149.4763  142.4472  155.7404 H   0  0  0  0  0  0  0  0  0  0  0  0
  150.5972  142.0156  154.4703 H   0  0  0  0  0  0  0  0  0  0  0  0
  148.6484  140.0249  155.7341 H   0  0  0  0  0  0  0  0  0  0  0  0
  147.3350  140.4667  154.0532 H   0  0  0  0  0  0  0  0  0  0  0  0
  149.4847  139.4455  152.9787 H   0  0  0  0  0  0  0  0  0  0  0  0
  150.8981  139.7045  153.9474 H   0  0  0  0  0  0  0  0  0  0  0  0
  148.2585  135.7678  156.0923 H   0  0  0  0  0  0  0  0  0  0  0  0
  152.0906  135.4349  156.4638 H   0  0  0  0  0  0  0  0  0  0  0  0
  150.5991  134.9034  157.2301 H   0  0  0  0  0  0  0  0  0  0  0  0
  151.0641  136.5988  157.2954 H   0  0  0  0  0  0  0  0  0  0  0  0
  151.3549  134.4442  154.1927 H   0  0  0  0  0  0  0  0  0  0  0  0
  149.8410  134.9532  153.4529 H   0  0  0  0  0  0  0  0  0  0  0  0
  149.8220  133.8879  154.8522 H   0  0  0  0  0  0  0  0  0  0  0  0
  150.1491  143.5433  157.7374 H   0  0  0  0  0  0  0  0  0  0  0  0
  150.2477  145.0458  159.5534 H   0  0  0  0  0  0  0  0  0  0  0  0
  151.8148  145.1757  160.3484 H   0  0  0  0  0  0  0  0  0  0  0  0
  150.5105  144.2465  161.1026 H   0  0  0  0  0  0  0  0  0  0  0  0
  1  2  1  0  0  0  0
  1 25  1  0  0  0  0
  1 26  1  0  0  0  0
  1 27  1  0  0  0  0
  2 23  1  0  0  0  0
  2  3  2  0  0  0  0
  3  4  1  0  0  0  0
  3 28  1  0  0  0  0
  4 21  2  0  0  0  0
  4  5  1  0  0  0  0
  5  6  2  0  0  0  0
  6  7  1  0  0  0  0
  6 29  1  0  0  0  0
  7  8  1  0  0  0  0
  7 21  1  0  0  0  0
  8  9  1  0  0  0  0
  8 30  1  0  0  0  0
  8 31  1  0  0  0  0
  9 10  1  0  0  0  0
  9 11  1  0  0  0  0
  9 32  1  0  0  0  0
 10 33  1  0  0  0  0
 11 12  1  0  0  0  0
 11 34  1  0  0  0  0
 11 35  1  0  0  0  0
 12 19  1  0  0  0  0
 12 13  1  0  0  0  0
 13 14  2  0  0  0  0
 13 15  1  0  0  0  0
 15 16  1  0  0  0  0
 15 36  1  0  0  0  0
 16 17  1  0  0  0  0
 16 18  1  0  0  0  0
 16 19  1  0  0  0  0
 17 37  1  0  0  0  0
 17 38  1  0  0  0  0
 17 39  1  0  0  0  0
 18 40  1  0  0  0  0
 18 41  1  0  0  0  0
 18 42  1  0  0  0  0
 19 20  2  0  0  0  0
 21 22  1  0  0  0  0
 22 23  2  0  0  0  0
 22 43  1  0  0  0  0
 23 24  1  0  0  0  0
 24 44  1  0  0  0  0
 24 45  1  0  0  0  0
 24 46  1  0  0  0  0
M  END
> <s_m_source_file>
AV-unprocessed.smi

> <i_m_source_file_index>
2026

> <i_lp_mmshare_version>
43012

> <i_f3d_flags>
0

> <s_epik_input>
W0NIM11jKFtjSF0xKWMoW0NIM10pW2NIXWMoYzEyKW4oW2NIXW4yKVtDSDJdW0NASF0oW09IXSlbQ0gyXU4oQzM9TylDKD1PKVtOSF1DMyhbQ0gzXSlbQ0gzXQ==

> <s_epik_cmdline>
J2VwaWtfcHl0aG9uJywgJy1waCcsICc3LjAnLCAnLXRuJywgJzgnLCAnLW1hJywgJzIwMCcsICctbWV0YWxfYmluZGluZycsICctaW1hZScsICc8aW5maWxlLm1hZT4nLCAnLW9tYWUnLCAnPG91dGZpbGUubWFlPic=

> <r_lp_tautomer_probability>
1

> <r_epik_Ionization_Penalty>
0.103994

> <r_epik_Ionization_Penalty_Charging>
0

> <r_epik_Ionization_Penalty_Neutral>
0.103994

> <r_epik_State_Penalty>
0.0938482

> <r_epik_Charging_Adjusted_Penalty>
0.0938482

> <i_epik_Tot_Q>
0

> <i_epik_Tot_abs_Q>
0

> <r_epik_Metal_State_Penalty>
0.106997

> <b_epik_Metal_Only>
0

> <s_lp_Force_Field>
OPLS_2005

> <r_lp_Energy>
23.8549

> <b_lp_Chiralities_Consistent>
1

> <s_lp_Variant>
AV-unprocessed.smi:2026-2

> <Gold.Version>
5.8.1

> <Gold.Id.Protein>
6NUR|6NUR_protein|mol2

> <Gold.PLP.Fitness>
47.6141

> <Gold.PLP.PLP>
-43.9625

> <Gold.PLP.part.hbond>
-2.0000

> <Gold.PLP.part.metal>
0.0000

> <Gold.PLP.part.buried>
-4.9257

> <Gold.PLP.part.nonpolar>
-36.9354

> <Gold.PLP.part.repulsive>
0.1939

> <Gold.PLP.ligand.clash>
0.0000

> <Gold.PLP.ligand.torsion>
1.1926

> <Gold.PLP.Chemscore.Hbond>
2.0000

> <Gold.PLP.Chemscore.CHOScore>
0.0000

> <Gold.PLP.Chemscore.Metal>
0.0000

> <Gold.Chemscore.Hbonds>
donor molecule, donor type, donor heavy atom, donor atom, acceptor molecule, acceptor atom, score
      P1  H  7997  8009       L1     5  1.00
      P1  H 10752 10765       L1    20  0.94

> <Gold.PLP.Chemscore.Internal.Correction>
0.0368

> <Gold.Rescore>
     Score         DG    S(hbond)    S(metal)    S(lipo)     H(rot)  DE(clash)    DE(int)     intcor
     15.27     -17.68       1.81        0.00     106.04       2.44       0.07       2.34       ----

> <Gold.Chemscore.Fitness>
15.2722

> <Gold.Chemscore.DG>
-17.6842

> <Gold.Chemscore.ZeroCoef>
-5.4800

> <Gold.Chemscore.Hbond>
1.8064

> <Gold.Chemscore.Metal>
0.0000

> <Gold.Chemscore.Lipo>
106.0399

> <Gold.Chemscore.Internal_Hbond>
0.0000

> <Gold.Chemscore.DEClash>
0.0692

> <Gold.Chemscore.DEInternal>
2.3429

> <Gold.Chemscore.Rot>
2.4358

> <Gold.Chemscore.Internal.Correction>
   9.000000E+99

> <Gold.Chemscore.Hbonds>
donor molecule, donor type, donor heavy atom, donor atom, acceptor molecule, acceptor atom, score
      P1  H  7997  8009       L1     5  0.27
      P1  H 10752 10765       L1    20  0.64

> <Gold.Chemscore.Hbond.Weighted>
-6.0332

> <Gold.Chemscore.Metal.Weighted>
-0.0000

> <Gold.Chemscore.Lipo.Weighted>
-12.4067

> <Gold.Chemscore.Internal_Hbond.Weighted>
0.0000

> <Gold.Chemscore.DEClash.Weighted>
0.0692

> <Gold.Chemscore.DEInternal.Weighted>
2.3429

> <Gold.Chemscore.Rot.Weighted>
6.2357

> <Gold.Chemscore.Internal.Correction.Weighted>
   9.000000E+99

> <Gold.Protein.RotatedTorsions>
[ 6907 6896 6895 6894 ] final   45.68 input  -60.11 | X-H torsion
[ 7974 7965 7964 7962 ] final  156.17 input  175.53 | X-H torsion
[ 8008 7997 7996 7995 ] final -174.72 input   59.86 | X-H torsion
[ 10167 10162 10161 10158 ] final -155.57 input  -65.29 | X-H torsion
[ 10718 10713 10712 10709 ] final   80.09 input   66.30 | X-H torsion
[ 10763 10752 10751 10750 ] final  166.41 input  -60.55 | X-H torsion
[ 11005 11000 10999 10996 ] final  109.38 input  -57.11 | X-H torsion

> <Gold.Protein.ActiveResidues>
 VAL166  LYS551  ARG553  GLY616  TRP617  ASP618  TYR619  PRO620  LYS621  CYS622 
 ASP623  PHE694  ASN695  SER759  ASP760  ASP761  ALA762  ILE779  LEU786  VAL792 
 PHE793  MET794  SER795  GLU796  ALA797  LYS798  CYS799  TRP800  GLU811  SER814 

> <Gold.Protein.RotatedAtoms>
  152.2475  134.8166  160.0450 H   0  0  0  0  0  0  0  0  0  0  0  0  # atno 6907 bound_to 6896
  151.8859  133.3500  159.3790 H   0  0  0  0  0  0  0  0  0  0  0  0  # atno 6908 bound_to 6896
  150.7073  134.4899  159.5555 H   0  0  0  0  0  0  0  0  0  0  0  0  # atno 6909 bound_to 6896
  144.7979  139.7168  143.6194 H   0  0  0  0  0  0  0  0  0  0  0  0  # atno 7974 bound_to 7965
  155.9736  140.1168  157.0790 H   0  0  0  0  0  0  0  0  0  0  0  0  # atno 8008 bound_to 7997
  154.4163  140.1158  156.5407 H   0  0  0  0  0  0  0  0  0  0  0  0  # atno 8009 bound_to 7997
  155.6564  140.3473  155.4769 H   0  0  0  0  0  0  0  0  0  0  0  0  # atno 8010 bound_to 7997
  139.6920  143.9404  152.2389 H   0  0  0  0  0  0  0  0  0  0  0  0  # atno 10167 bound_to 10162
  157.6796  130.9943  150.2028 H   0  0  0  0  0  0  0  0  0  0  0  0  # atno 10718 bound_to 10713
  154.3385  135.2754  155.2435 H   0  0  0  0  0  0  0  0  0  0  0  0  # atno 10763 bound_to 10752
  154.4716  135.5881  153.6329 H   0  0  0  0  0  0  0  0  0  0  0  0  # atno 10764 bound_to 10752
  152.9860  135.6089  154.3584 H   0  0  0  0  0  0  0  0  0  0  0  0  # atno 10765 bound_to 10752
  139.8861  134.9456  156.6117 H   0  0  0  0  0  0  0  0  0  0  0  0  # atno 11005 bound_to 11000
  146.2253  139.5710  142.9591 LP  0  0  0  0  0  0  0  0  0  0  0  0  # atno 17320 bound_to 7965
  145.5626  141.0403  143.2218 LP  0  0  0  0  0  0  0  0  0  0  0  0  # atno 17321 bound_to 7965
  139.9223  144.6792  150.8448 LP  0  0  0  0  0  0  0  0  0  0  0  0  # atno 17342 bound_to 10162
  140.7685  143.3366  151.2296 LP  0  0  0  0  0  0  0  0  0  0  0  0  # atno 17343 bound_to 10162
  156.2715  130.3722  149.8027 LP  0  0  0  0  0  0  0  0  0  0  0  0  # atno 17370 bound_to 10713
  156.5742  130.8438  151.3365 LP  0  0  0  0  0  0  0  0  0  0  0  0  # atno 17371 bound_to 10713
  140.7806  133.8663  155.8565 LP  0  0  0  0  0  0  0  0  0  0  0  0  # atno 17394 bound_to 11000
  140.9763  134.1464  157.4533 LP  0  0  0  0  0  0  0  0  0  0  0  0  # atno 17395 bound_to 11000

$$$$
