AV-unprocessed.smi:35|AV-procd|sdf|260|dock3
  -GOLD-   2262016 23D 1   1.00000     0.00000
 Structure written by MMmdl.
 29 30  0  0  0  0  0  0  0  0  1 V2000
  147.2997  130.2623  153.0176 O   0  0  0  0  0  0  0  0  0  0  0  0
  146.7555  131.2824  152.6010 C   0  0  0  0  0  0  0  0  0  0  0  0
  145.5067  131.2120  151.9764 N   0  0  0  0  0  0  0  0  0  0  0  0
  144.7917  132.2982  151.4677 C   0  0  0  0  0  0  0  0  0  0  0  0
  143.7071  132.1167  150.9156 O   0  0  0  0  0  0  0  0  0  0  0  0
  145.3734  133.5777  151.6106 N   0  0  0  0  0  0  0  0  0  0  0  0
  144.6433  134.7844  151.0674 C   0  0  1  0  0  0  0  0  0  0  0  0
  143.6732  135.1792  151.9933 O   0  0  0  0  0  0  0  0  0  0  0  0
  143.8011  136.5682  152.2795 C   0  0  1  0  0  0  0  0  0  0  0  0
  143.2873  136.8386  153.7025 C   0  0  0  0  0  0  0  0  0  0  0  0
  143.2687  138.2243  153.9697 O   0  0  0  0  0  0  0  0  0  0  0  0
  145.2921  136.8400  152.0654 C   0  0  2  0  0  0  0  0  0  0  0  0
  145.5961  138.2032  151.8378 O   0  0  0  0  0  0  0  0  0  0  0  0
  145.6226  135.9533  150.8707 C   0  0  2  0  0  0  0  0  0  0  0  0
  145.3971  136.5987  149.6296 O   0  0  0  0  0  0  0  0  0  0  0  0
  146.6236  133.6946  152.2043 C   0  0  0  0  0  0  0  0  0  0  0  0
  147.3063  132.6306  152.6878 C   0  0  0  0  0  0  0  0  0  0  0  0
  149.0752  133.0072  153.4965 Br  0  0  0  0  0  0  0  0  0  0  0  0
  145.0894  130.2975  151.8801 H   0  0  0  0  0  0  0  0  0  0  0  0
  144.1403  134.4614  150.1537 H   0  0  0  0  0  0  0  0  0  0  0  0
  143.2048  137.1108  151.5433 H   0  0  0  0  0  0  0  0  0  0  0  0
  142.2701  136.4613  153.8086 H   0  0  0  0  0  0  0  0  0  0  0  0
  143.8991  136.3268  154.4458 H   0  0  0  0  0  0  0  0  0  0  0  0
  143.4826  138.6876  153.1741 H   0  0  0  0  0  0  0  0  0  0  0  0
  145.8554  136.4941  152.9332 H   0  0  0  0  0  0  0  0  0  0  0  0
  145.1468  138.4809  151.0537 H   0  0  0  0  0  0  0  0  0  0  0  0
  146.6582  135.6109  150.8954 H   0  0  0  0  0  0  0  0  0  0  0  0
  145.7466  136.0534  148.9412 H   0  0  0  0  0  0  0  0  0  0  0  0
  147.0860  134.6671  152.2853 H   0  0  0  0  0  0  0  0  0  0  0  0
  1  2  2  0  0  0  0
  2 17  1  0  0  0  0
  2  3  1  0  0  0  0
  3 19  1  0  0  0  0
  3  4  1  0  0  0  0
  4  5  2  0  0  0  0
  4  6  1  0  0  0  0
  6  7  1  0  0  0  0
  6 16  1  0  0  0  0
  7 14  1  0  0  0  0
  7  8  1  0  0  0  0
  7 20  1  0  0  0  0
  8  9  1  0  0  0  0
  9 10  1  0  0  0  0
  9 12  1  0  0  0  0
  9 21  1  0  0  0  0
 10 11  1  0  0  0  0
 10 22  1  0  0  0  0
 10 23  1  0  0  0  0
 11 24  1  0  0  0  0
 12 13  1  0  0  0  0
 12 14  1  0  0  0  0
 12 25  1  0  0  0  0
 13 26  1  0  0  0  0
 14 15  1  0  0  0  0
 14 27  1  0  0  0  0
 15 28  1  0  0  0  0
 16 17  2  0  0  0  0
 16 29  1  0  0  0  0
 17 18  1  0  0  0  0
M  END
> <s_m_source_file>
AV-unprocessed.smi

> <i_m_source_file_index>
35

> <i_lp_mmshare_version>
43012

> <i_f3d_flags>
0

> <s_epik_input>
Tz1jMVtuSF1jKD1PKW4oW2NIXWMxQnIpW0NAQEhdMk9bQ0BASF0oW0NIMl1bT0hdKVtDQEBIXShbT0hdKVtDQEhdMltPSF0=

> <s_epik_cmdline>
J2VwaWtfcHl0aG9uJywgJy1waCcsICc3LjAnLCAnLXRuJywgJzgnLCAnLW1hJywgJzIwMCcsICctbWV0YWxfYmluZGluZycsICctaW1hZScsICc8aW5maWxlLm1hZT4nLCAnLW9tYWUnLCAnPG91dGZpbGUubWFlPic=

> <r_lp_tautomer_probability>
0.999537

> <r_epik_Ionization_Penalty>
0.10812

> <r_epik_Ionization_Penalty_Charging>
0.108119

> <r_epik_Ionization_Penalty_Neutral>
4.93006e-07

> <r_epik_State_Penalty>
0.0979238

> <r_epik_Charging_Adjusted_Penalty>
0.206043

> <i_epik_Tot_Q>
0

> <i_epik_Tot_abs_Q>
0

> <r_epik_Metal_State_Penalty>
3.07911

> <b_epik_Metal_Only>
0

> <s_epik_Chemistry_Notes>
This compound contains an acetal/aminal-like group ( X-CH(R)-Y where X, Y are N, S, or O) that may be acid/base labile, releasing an aldehyde.

> <s_lp_Force_Field>
OPLS_2005

> <r_lp_Energy>
30.2872

> <b_lp_Chiralities_Consistent>
1

> <s_lp_Variant>
AV-unprocessed.smi:35-14

> <Gold.Version>
5.8.1

> <Gold.Id.Protein>
6NUR|6NUR_protein|mol2

> <Gold.PLP.Fitness>
42.0721

> <Gold.PLP.PLP>
-31.6432

> <Gold.PLP.part.hbond>
-4.7731

> <Gold.PLP.part.metal>
0.0000

> <Gold.PLP.part.buried>
-5.8386

> <Gold.PLP.part.nonpolar>
-21.3904

> <Gold.PLP.part.repulsive>
0.5066

> <Gold.PLP.ligand.clash>
0.0000

> <Gold.PLP.ligand.torsion>
0.5879

> <Gold.PLP.Chemscore.Hbond>
2.8640

> <Gold.PLP.Chemscore.CHOScore>
1.0000

> <Gold.PLP.Chemscore.Metal>
0.0000

> <Gold.Chemscore.Hbonds>
donor molecule, donor type, donor heavy atom, donor atom, acceptor molecule, acceptor atom, score
      L1  H    11    24       P1 10175  0.83
      L1  H    13    26       P1 10171  1.00
      L1  H    15    28       P1  7921  1.00
      L1  C    16    29       P1  7948  1.00

> <Gold.PLP.Chemscore.Internal.Correction>
0.0127

> <Gold.Rescore>
     Score         DG    S(hbond)    S(metal)    S(lipo)     H(rot)  DE(clash)    DE(int)     intcor
      9.73     -10.03       2.88        0.00      36.94       3.67       0.03       0.27       ----

> <Gold.Chemscore.Fitness>
9.7311

> <Gold.Chemscore.DG>
-10.0287

> <Gold.Chemscore.ZeroCoef>
-5.4800

> <Gold.Chemscore.Hbond>
2.8809

> <Gold.Chemscore.Metal>
0.0000

> <Gold.Chemscore.Lipo>
36.9399

> <Gold.Chemscore.Internal_Hbond>
0.0000

> <Gold.Chemscore.DEClash>
0.0285

> <Gold.Chemscore.DEInternal>
0.2692

> <Gold.Chemscore.Rot>
3.6701

> <Gold.Chemscore.Internal.Correction>
   9.000000E+99

> <Gold.Chemscore.Hbonds>
donor molecule, donor type, donor heavy atom, donor atom, acceptor molecule, acceptor atom, score
      L1  H    11    24       P1 10175  0.83
      L1  H    13    26       P1 10171  1.00
      L1  H    15    28       P1  7921  1.00

> <Gold.Chemscore.Hbond.Weighted>
-9.6222

> <Gold.Chemscore.Metal.Weighted>
-0.0000

> <Gold.Chemscore.Lipo.Weighted>
-4.3220

> <Gold.Chemscore.Internal_Hbond.Weighted>
0.0000

> <Gold.Chemscore.DEClash.Weighted>
0.0285

> <Gold.Chemscore.DEInternal.Weighted>
0.2692

> <Gold.Chemscore.Rot.Weighted>
9.3955

> <Gold.Chemscore.Internal.Correction.Weighted>
   9.000000E+99

> <Gold.Protein.RotatedTorsions>
[ 6907 6896 6895 6894 ] final   18.49 input  -60.11 | X-H torsion
[ 7974 7965 7964 7962 ] final -125.56 input  175.53 | X-H torsion
[ 8008 7997 7996 7995 ] final   53.49 input   59.86 | X-H torsion
[ 10167 10162 10161 10158 ] final   45.33 input  -65.29 | X-H torsion
[ 10718 10713 10712 10709 ] final  -98.26 input   66.30 | X-H torsion
[ 10763 10752 10751 10750 ] final -105.75 input  -60.55 | X-H torsion
[ 11005 11000 10999 10996 ] final   94.00 input  -57.11 | X-H torsion

> <Gold.Protein.ActiveResidues>
 VAL166  LYS551  ARG553  GLY616  TRP617  ASP618  TYR619  PRO620  LYS621  CYS622 
 ASP623  PHE694  ASN695  SER759  ASP760  ASP761  ALA762  ILE779  LEU786  VAL792 
 PHE793  MET794  SER795  GLU796  ALA797  LYS798  CYS799  TRP800  GLU811  SER814 

> <Gold.Protein.RotatedAtoms>
  151.8661  135.0506  160.0474 H   0  0  0  0  0  0  0  0  0  0  0  0  # atno 6907 bound_to 6896
  152.2625  133.5305  159.5398 H   0  0  0  0  0  0  0  0  0  0  0  0  # atno 6908 bound_to 6896
  150.7121  134.0726  159.3912 H   0  0  0  0  0  0  0  0  0  0  0  0  # atno 6909 bound_to 6896
  144.9964  140.7779  143.4523 H   0  0  0  0  0  0  0  0  0  0  0  0  # atno 7974 bound_to 7965
  155.4692  140.3464  155.4323 H   0  0  0  0  0  0  0  0  0  0  0  0  # atno 8008 bound_to 7997
  156.1111  140.1461  156.9366 H   0  0  0  0  0  0  0  0  0  0  0  0  # atno 8009 bound_to 7997
  154.4757  140.0886  156.7235 H   0  0  0  0  0  0  0  0  0  0  0  0  # atno 8010 bound_to 7997
  140.3252  144.2656  150.6176 H   0  0  0  0  0  0  0  0  0  0  0  0  # atno 10167 bound_to 10162
  156.0103  130.5230  150.6497 H   0  0  0  0  0  0  0  0  0  0  0  0  # atno 10718 bound_to 10713
  154.7967  135.4737  154.0178 H   0  0  0  0  0  0  0  0  0  0  0  0  # atno 10763 bound_to 10752
  153.1715  135.6826  153.8608 H   0  0  0  0  0  0  0  0  0  0  0  0  # atno 10764 bound_to 10752
  153.8189  135.3207  155.3386 H   0  0  0  0  0  0  0  0  0  0  0  0  # atno 10765 bound_to 10752
  139.8803  134.8821  156.3800 H   0  0  0  0  0  0  0  0  0  0  0  0  # atno 11005 bound_to 11000
  145.2214  139.2157  143.5091 LP  0  0  0  0  0  0  0  0  0  0  0  0  # atno 17320 bound_to 7965
  146.3442  140.2073  142.8589 LP  0  0  0  0  0  0  0  0  0  0  0  0  # atno 17321 bound_to 7965
  140.5447  143.2217  151.8026 LP  0  0  0  0  0  0  0  0  0  0  0  0  # atno 17342 bound_to 10162
  139.4866  144.4554  151.9604 LP  0  0  0  0  0  0  0  0  0  0  0  0  # atno 17343 bound_to 10162
  157.4261  131.0843  151.1084 LP  0  0  0  0  0  0  0  0  0  0  0  0  # atno 17370 bound_to 10713
  157.1671  130.6251  149.5629 LP  0  0  0  0  0  0  0  0  0  0  0  0  # atno 17371 bound_to 10713
  140.9405  133.7518  156.0140 LP  0  0  0  0  0  0  0  0  0  0  0  0  # atno 17394 bound_to 11000
  140.8225  134.3273  157.5377 LP  0  0  0  0  0  0  0  0  0  0  0  0  # atno 17395 bound_to 11000

$$$$
