AV-unprocessed.smi:1427|AV-procd|sdf|5811|dock6
  -GOLD-   22720 5463D 1   1.00000     0.00000
 Structure written by MMmdl.
 33 34  0  0  0  0  0  0  0  0  1 V2000
  152.4982  142.1454  161.8162 C   0  0  0  0  0  0  0  0  0  0  0  0
  153.7268  141.9953  160.9093 C   0  0  2  0  0  0  0  0  0  0  0  0
  153.3237  141.9369  159.4211 C   0  0  0  0  0  0  0  0  0  0  0  0
  152.4271  143.0155  159.0430 N   0  0  0  0  0  0  0  0  0  0  0  0
  152.6087  144.3734  159.2000 C   0  0  0  0  0  0  0  0  0  0  0  0
  151.5062  144.9928  158.6853 C   0  0  0  0  0  0  0  0  0  0  0  0
  150.6938  143.9157  158.2331 C   0  0  0  0  0  0  0  0  0  0  0  0
  151.2461  142.7331  158.4508 N   0  0  0  0  0  0  0  0  0  0  0  0
  154.4566  140.7888  161.2957 N   0  0  0  0  0  0  0  0  0  0  0  0
  155.0193  140.5542  162.4946 C   0  0  0  0  0  0  0  0  0  0  0  0
  154.9668  141.3572  163.4259 O   0  0  0  0  0  0  0  0  0  0  0  0
  155.7794  139.2299  162.6923 C   0  0  1  0  0  0  0  0  0  0  0  0
  156.2353  139.0452  164.1579 C   0  0  0  0  0  0  0  0  0  0  0  0
  155.8238  137.6242  164.5679 C   0  0  0  0  0  0  0  0  0  0  0  0
  154.9641  137.1559  163.4084 C   0  0  0  0  0  0  0  0  0  0  0  0
  154.3550  136.0888  163.4043 O   0  0  0  0  0  0  0  0  0  0  0  0
  154.9709  138.0494  162.4215 N   0  0  0  0  0  0  0  0  0  0  0  0
  151.9368  143.0471  161.5696 H   0  0  0  0  0  0  0  0  0  0  0  0
  152.7901  142.2172  162.8645 H   0  0  0  0  0  0  0  0  0  0  0  0
  151.8227  141.2950  161.7155 H   0  0  0  0  0  0  0  0  0  0  0  0
  154.3515  142.8764  161.0670 H   0  0  0  0  0  0  0  0  0  0  0  0
  154.2080  141.9614  158.7819 H   0  0  0  0  0  0  0  0  0  0  0  0
  152.8150  140.9959  159.2093 H   0  0  0  0  0  0  0  0  0  0  0  0
  153.4999  144.7803  159.6548 H   0  0  0  0  0  0  0  0  0  0  0  0
  151.3107  146.0539  158.6377 H   0  0  0  0  0  0  0  0  0  0  0  0
  149.7252  143.9576  157.7571 H   0  0  0  0  0  0  0  0  0  0  0  0
  154.5514  140.0736  160.5892 H   0  0  0  0  0  0  0  0  0  0  0  0
  156.6403  139.2117  162.0228 H   0  0  0  0  0  0  0  0  0  0  0  0
  157.3131  139.1836  164.2502 H   0  0  0  0  0  0  0  0  0  0  0  0
  155.7645  139.7670  164.8280 H   0  0  0  0  0  0  0  0  0  0  0  0
  156.6902  136.9700  164.6710 H   0  0  0  0  0  0  0  0  0  0  0  0
  155.2618  137.6137  165.5024 H   0  0  0  0  0  0  0  0  0  0  0  0
  154.4700  137.9293  161.5529 H   0  0  0  0  0  0  0  0  0  0  0  0
  1  2  1  0  0  0  0
  1 18  1  0  0  0  0
  1 19  1  0  0  0  0
  1 20  1  0  0  0  0
  2  3  1  0  0  0  0
  2  9  1  0  0  0  0
  2 21  1  0  0  0  0
  3  4  1  0  0  0  0
  3 22  1  0  0  0  0
  3 23  1  0  0  0  0
  4  8  1  0  0  0  0
  4  5  1  0  0  0  0
  5  6  2  0  0  0  0
  5 24  1  0  0  0  0
  6  7  1  0  0  0  0
  6 25  1  0  0  0  0
  7  8  2  0  0  0  0
  7 26  1  0  0  0  0
  9 10  1  0  0  0  0
  9 27  1  0  0  0  0
 10 11  2  0  0  0  0
 10 12  1  0  0  0  0
 12 17  1  0  0  0  0
 12 13  1  0  0  0  0
 12 28  1  0  0  0  0
 13 14  1  0  0  0  0
 13 29  1  0  0  0  0
 13 30  1  0  0  0  0
 14 15  1  0  0  0  0
 14 31  1  0  0  0  0
 14 32  1  0  0  0  0
 15 16  2  0  0  0  0
 15 17  1  0  0  0  0
 17 33  1  0  0  0  0
M  END
> <s_m_source_file>
AV-unprocessed.smi

> <i_m_source_file_index>
1427

> <i_lp_mmshare_version>
43012

> <i_f3d_flags>
0

> <s_epik_input>
bjFbY0hdW2NIXVtjSF1uMVtDSDJdW0NAQEhdKFtDSDNdKVtOSF1DKD1PKVtDQEBIXTJbQ0gyXVtDSDJdQyg9TylbTkhdMg==

> <s_epik_cmdline>
J2VwaWtfcHl0aG9uJywgJy1waCcsICc3LjAnLCAnLXRuJywgJzgnLCAnLW1hJywgJzIwMCcsICctbWV0YWxfYmluZGluZycsICctaW1hZScsICc8aW5maWxlLm1hZT4nLCAnLW9tYWUnLCAnPG91dGZpbGUubWFlPic=

> <r_lp_tautomer_probability>
1

> <r_epik_Ionization_Penalty>
0.000310707

> <r_epik_Ionization_Penalty_Charging>
0

> <r_epik_Ionization_Penalty_Neutral>
0.000310707

> <r_epik_State_Penalty>
-0

> <r_epik_Charging_Adjusted_Penalty>
0

> <i_epik_Tot_Q>
0

> <i_epik_Tot_abs_Q>
0

> <r_epik_Metal_State_Penalty>
-0

> <b_epik_Metal_Only>
0

> <s_lp_Force_Field>
OPLS_2005

> <r_lp_Energy>
14.9883

> <b_lp_Chiralities_Consistent>
1

> <s_lp_Variant>
AV-unprocessed.smi:1427-3

> <Gold.Version>
5.8.1

> <Gold.Id.Protein>
6NUR|6NUR_protein|mol2

> <Gold.PLP.Fitness>
42.0235

> <Gold.PLP.PLP>
-38.6741

> <Gold.PLP.part.hbond>
-1.0000

> <Gold.PLP.part.metal>
0.0000

> <Gold.PLP.part.buried>
-5.3252

> <Gold.PLP.part.nonpolar>
-31.8175

> <Gold.PLP.part.repulsive>
0.1269

> <Gold.PLP.ligand.clash>
0.0000

> <Gold.PLP.ligand.torsion>
0.1431

> <Gold.PLP.Chemscore.Hbond>
0.0000

> <Gold.PLP.Chemscore.CHOScore>
1.2059

> <Gold.PLP.Chemscore.Metal>
0.0000

> <Gold.Chemscore.Hbonds>
donor molecule, donor type, donor heavy atom, donor atom, acceptor molecule, acceptor atom, score
      L1  C     7    26       P1  8028  1.00
      L1  C     7    26       P1  8029  0.10

> <Gold.PLP.Chemscore.Internal.Correction>
0.0178

> <Gold.Rescore>
     Score         DG    S(hbond)    S(metal)    S(lipo)     H(rot)  DE(clash)    DE(int)     intcor
     10.13     -10.94       0.00        0.00      87.87       1.88       0.54       0.28       ----

> <Gold.Chemscore.Fitness>
10.1255

> <Gold.Chemscore.DG>
-10.9432

> <Gold.Chemscore.ZeroCoef>
-5.4800

> <Gold.Chemscore.Hbond>
0.0000

> <Gold.Chemscore.Metal>
0.0000

> <Gold.Chemscore.Lipo>
87.8736

> <Gold.Chemscore.Internal_Hbond>
0.0000

> <Gold.Chemscore.DEClash>
0.5398

> <Gold.Chemscore.DEInternal>
0.2779

> <Gold.Chemscore.Rot>
1.8821

> <Gold.Chemscore.Internal.Correction>
   9.000000E+99

> <Gold.Chemscore.Hbond.Weighted>
-0.0000

> <Gold.Chemscore.Metal.Weighted>
-0.0000

> <Gold.Chemscore.Lipo.Weighted>
-10.2812

> <Gold.Chemscore.Internal_Hbond.Weighted>
0.0000

> <Gold.Chemscore.DEClash.Weighted>
0.5398

> <Gold.Chemscore.DEInternal.Weighted>
0.2779

> <Gold.Chemscore.Rot.Weighted>
4.8181

> <Gold.Chemscore.Internal.Correction.Weighted>
   9.000000E+99

> <Gold.Protein.RotatedTorsions>
[ 6907 6896 6895 6894 ] final   33.58 input  -60.11 | X-H torsion
[ 7974 7965 7964 7962 ] final -111.41 input  175.53 | X-H torsion
[ 8008 7997 7996 7995 ] final -142.66 input   59.86 | X-H torsion
[ 10167 10162 10161 10158 ] final   90.29 input  -65.29 | X-H torsion
[ 10718 10713 10712 10709 ] final   12.34 input   66.30 | X-H torsion
[ 10763 10752 10751 10750 ] final -146.24 input  -60.55 | X-H torsion
[ 11005 11000 10999 10996 ] final   49.80 input  -57.11 | X-H torsion

> <Gold.Protein.ActiveResidues>
 VAL166  LYS551  ARG553  GLY616  TRP617  ASP618  TYR619  PRO620  LYS621  CYS622 
 ASP623  PHE694  ASN695  SER759  ASP760  ASP761  ALA762  ILE779  LEU786  VAL792 
 PHE793  MET794  SER795  GLU796  ALA797  LYS798  CYS799  TRP800  GLU811  SER814 

> <Gold.Protein.RotatedAtoms>
  152.0905  134.9410  160.0571 H   0  0  0  0  0  0  0  0  0  0  0  0  # atno 6907 bound_to 6896
  152.0664  133.4081  159.4448 H   0  0  0  0  0  0  0  0  0  0  0  0  # atno 6908 bound_to 6896
  150.6837  134.3062  159.4770 H   0  0  0  0  0  0  0  0  0  0  0  0  # atno 6909 bound_to 6896
  145.1564  140.8855  143.3616 H   0  0  0  0  0  0  0  0  0  0  0  0  # atno 7974 bound_to 7965
  155.4978  140.0573  157.2944 H   0  0  0  0  0  0  0  0  0  0  0  0  # atno 8008 bound_to 7997
  154.4598  140.1991  156.0226 H   0  0  0  0  0  0  0  0  0  0  0  0  # atno 8009 bound_to 7997
  156.0869  140.3239  155.7770 H   0  0  0  0  0  0  0  0  0  0  0  0  # atno 8010 bound_to 7997
  139.8487  144.6604  150.9195 H   0  0  0  0  0  0  0  0  0  0  0  0  # atno 10167 bound_to 10162
  157.0087  130.6108  149.5705 H   0  0  0  0  0  0  0  0  0  0  0  0  # atno 10718 bound_to 10713
  154.8346  135.3392  154.6630 H   0  0  0  0  0  0  0  0  0  0  0  0  # atno 10763 bound_to 10752
  153.7246  135.6956  153.5009 H   0  0  0  0  0  0  0  0  0  0  0  0  # atno 10764 bound_to 10752
  153.2356  135.4401  155.0595 H   0  0  0  0  0  0  0  0  0  0  0  0  # atno 10765 bound_to 10752
  140.1072  134.5003  155.8709 H   0  0  0  0  0  0  0  0  0  0  0  0  # atno 11005 bound_to 11000
  145.0377  139.3286  143.5992 LP  0  0  0  0  0  0  0  0  0  0  0  0  # atno 17320 bound_to 7965
  146.3488  139.9739  142.8703 LP  0  0  0  0  0  0  0  0  0  0  0  0  # atno 17321 bound_to 7965
  140.7790  143.3846  151.1416 LP  0  0  0  0  0  0  0  0  0  0  0  0  # atno 17342 bound_to 10162
  139.7486  143.8813  152.3070 LP  0  0  0  0  0  0  0  0  0  0  0  0  # atno 17343 bound_to 10162
  156.0144  130.5237  150.8089 LP  0  0  0  0  0  0  0  0  0  0  0  0  # atno 17370 bound_to 10713
  157.5336  131.0938  150.9922 LP  0  0  0  0  0  0  0  0  0  0  0  0  # atno 17371 bound_to 10713
  141.2121  133.6715  156.6634 LP  0  0  0  0  0  0  0  0  0  0  0  0  # atno 17394 bound_to 11000
  140.3140  134.8063  157.4199 LP  0  0  0  0  0  0  0  0  0  0  0  0  # atno 17395 bound_to 11000

$$$$
