AV-unprocessed.smi:22|AV-procd|sdf|171|dock7
  -GOLD-   2262015423D 1   1.00000     0.00000
 Structure written by MMmdl.
 56 59  0  0  0  0  0  0  0  0  2 V2000
  146.6842  133.7510  151.4373 C   0  0  0  0  0  0  0  0  0  0  0  0
  145.3632  134.2510  151.9027 N   0  3  2  0  0  0  0  0  0  0  0  0
  144.3240  134.1721  150.8316 C   0  0  0  0  0  0  0  0  0  0  0  0
  144.0066  132.7383  150.3650 C   0  0  0  0  0  0  0  0  0  0  0  0
  142.6160  132.5801  150.1758 O   0  0  0  0  0  0  0  0  0  0  0  0
  145.4920  135.5819  152.5835 C   0  0  0  0  0  0  0  0  0  0  0  0
  145.9150  136.6679  151.5652 C   0  0  0  0  0  0  0  0  0  0  0  0
  146.0305  138.0534  152.2193 C   0  0  0  0  0  0  0  0  0  0  0  0
  146.9447  138.0171  153.3591 N   0  0  0  0  0  0  0  0  0  0  0  0
  147.3782  139.2040  153.8548 C   0  0  0  0  0  0  0  0  0  0  0  0
  146.5502  140.2830  153.8558 N   0  0  0  0  0  0  0  0  0  0  0  0
  146.9641  141.4510  154.3557 C   0  0  0  0  0  0  0  0  0  0  0  0
  148.1468  141.7567  154.8919 N   0  0  0  0  0  0  0  0  0  0  0  0
  148.9867  140.6823  154.8840 C   0  0  0  0  0  0  0  0  0  0  0  0
  148.6847  139.3809  154.3916 C   0  0  0  0  0  0  0  0  0  0  0  0
  149.7873  138.5491  154.5465 N   0  0  0  0  0  0  0  0  0  0  0  0
  150.6860  139.3125  155.1059 C   0  0  0  0  0  0  0  0  0  0  0  0
  150.2928  140.6116  155.3370 N   0  0  0  0  0  0  0  0  0  0  0  0
  151.0890  141.6679  155.9442 C   0  0  0  0  0  0  0  0  0  0  0  0
  150.5999  142.0823  157.3520 C   0  0  2  0  0  0  0  0  0  0  0  0
  149.2480  142.5002  157.2646 O   0  0  0  0  0  0  0  0  0  0  0  0
  151.4145  143.2219  157.9512 C   0  0  0  0  0  0  0  0  0  0  0  0
  151.2874  142.9741  159.4482 C   0  0  0  0  0  0  0  0  0  0  0  0
  151.3704  141.5623  159.5443 O   0  0  0  0  0  0  0  0  0  0  0  0
  150.7028  140.9809  158.4278 C   0  0  0  0  0  0  0  0  0  0  0  0
  146.6069  137.0258  154.3768 C   0  0  0  0  0  0  0  0  0  0  0  0
  146.4984  135.6204  153.7630 C   0  0  0  0  0  0  0  0  0  0  0  0
  147.0045  134.2787  150.5381 H   0  0  0  0  0  0  0  0  0  0  0  0
  146.6520  132.6847  151.2182 H   0  0  0  0  0  0  0  0  0  0  0  0
  147.4634  133.8781  152.1866 H   0  0  0  0  0  0  0  0  0  0  0  0
  143.3817  134.5914  151.1816 H   0  0  0  0  0  0  0  0  0  0  0  0
  144.6430  134.7743  149.9796 H   0  0  0  0  0  0  0  0  0  0  0  0
  144.4998  132.5474  149.4116 H   0  0  0  0  0  0  0  0  0  0  0  0
  144.3804  131.9817  151.0536 H   0  0  0  0  0  0  0  0  0  0  0  0
  142.2768  133.3556  149.7544 H   0  0  0  0  0  0  0  0  0  0  0  0
  144.5138  135.8423  152.9921 H   0  0  0  0  0  0  0  0  0  0  0  0
  146.8750  136.3982  151.1224 H   0  0  0  0  0  0  0  0  0  0  0  0
  145.2101  136.7395  150.7386 H   0  0  0  0  0  0  0  0  0  0  0  0
  146.3855  138.7733  151.4801 H   0  0  0  0  0  0  0  0  0  0  0  0
  145.0477  138.3904  152.5526 H   0  0  0  0  0  0  0  0  0  0  0  0
  146.2439  142.2553  154.3228 H   0  0  0  0  0  0  0  0  0  0  0  0
  151.6704  138.9482  155.3622 H   0  0  0  0  0  0  0  0  0  0  0  0
  152.1247  141.3293  155.9918 H   0  0  0  0  0  0  0  0  0  0  0  0
  151.0812  142.5285  155.2738 H   0  0  0  0  0  0  0  0  0  0  0  0
  149.2307  143.3922  156.9532 H   0  0  0  0  0  0  0  0  0  0  0  0
  152.4632  143.1298  157.6650 H   0  0  0  0  0  0  0  0  0  0  0  0
  151.0738  144.2132  157.6487 H   0  0  0  0  0  0  0  0  0  0  0  0
  152.0702  143.4637  160.0274 H   0  0  0  0  0  0  0  0  0  0  0  0
  150.3187  143.3108  159.8208 H   0  0  0  0  0  0  0  0  0  0  0  0
  149.7247  140.6025  158.7283 H   0  0  0  0  0  0  0  0  0  0  0  0
  151.2924  140.1283  158.0935 H   0  0  0  0  0  0  0  0  0  0  0  0
  147.3458  137.0115  155.1774 H   0  0  0  0  0  0  0  0  0  0  0  0
  145.6572  137.3045  154.8354 H   0  0  0  0  0  0  0  0  0  0  0  0
  146.1959  134.9377  154.5572 H   0  0  0  0  0  0  0  0  0  0  0  0
  147.4858  135.3022  153.4246 H   0  0  0  0  0  0  0  0  0  0  0  0
  145.0516  133.6108  152.6194 H   0  0  0  0  0  0  0  0  0  0  0  0
  1  2  1  0  0  0  0
  1 28  1  0  0  0  0
  1 29  1  0  0  0  0
  1 30  1  0  0  0  0
  2  3  1  0  0  0  0
  2  6  1  0  0  0  0
  2 56  1  0  0  0  0
  3  4  1  0  0  0  0
  3 31  1  0  0  0  0
  3 32  1  0  0  0  0
  4  5  1  0  0  0  0
  4 33  1  0  0  0  0
  4 34  1  0  0  0  0
  5 35  1  0  0  0  0
  6 27  1  0  0  0  0
  6  7  1  0  0  0  0
  6 36  1  0  0  0  0
  7  8  1  0  0  0  0
  7 37  1  0  0  0  0
  7 38  1  0  0  0  0
  8  9  1  0  0  0  0
  8 39  1  0  0  0  0
  8 40  1  0  0  0  0
  9 10  1  0  0  0  0
  9 26  1  0  0  0  0
 10 15  1  0  0  0  0
 10 11  2  0  0  0  0
 11 12  1  0  0  0  0
 12 13  2  0  0  0  0
 12 41  1  0  0  0  0
 13 14  1  0  0  0  0
 14 18  1  0  0  0  0
 14 15  2  0  0  0  0
 15 16  1  0  0  0  0
 16 17  2  0  0  0  0
 17 18  1  0  0  0  0
 17 42  1  0  0  0  0
 18 19  1  0  0  0  0
 19 20  1  0  0  0  0
 19 43  1  0  0  0  0
 19 44  1  0  0  0  0
 20 25  1  0  0  0  0
 20 21  1  0  0  0  0
 20 22  1  0  0  0  0
 21 45  1  0  0  0  0
 22 23  1  0  0  0  0
 22 46  1  0  0  0  0
 22 47  1  0  0  0  0
 23 24  1  0  0  0  0
 23 48  1  0  0  0  0
 23 49  1  0  0  0  0
 24 25  1  0  0  0  0
 25 50  1  0  0  0  0
 25 51  1  0  0  0  0
 26 27  1  0  0  0  0
 26 52  1  0  0  0  0
 26 53  1  0  0  0  0
 27 54  1  0  0  0  0
 27 55  1  0  0  0  0
M  CHG  1   2   1
M  END
> <s_m_source_file>
AV-unprocessed.smi

> <i_m_source_file_index>
22

> <i_lp_mmshare_version>
43012

> <i_f3d_flags>
0

> <s_epik_input>
W09IXVtDSDJdW0NIMl1OKFtDSDNdKVtDSF0xW0NIMl1bQ0gyXU4oW0NIMl1bQ0gyXTEpYyhuW2NIXW4yKWMoYzIzKW5bY0hdbjNbQ0gyXVtDQEBdNChbT0hdKVtDSDJdW0NIMl1PW0NIMl00

> <s_epik_cmdline>
J2VwaWtfcHl0aG9uJywgJy1waCcsICc3LjAnLCAnLXRuJywgJzgnLCAnLW1hJywgJzIwMCcsICctbWV0YWxfYmluZGluZycsICctaW1hZScsICc8aW5maWxlLm1hZT4nLCAnLW9tYWUnLCAnPG91dGZpbGUubWFlPic=

> <r_lp_tautomer_probability>
1

> <r_epik_Ionization_Penalty>
0.00317524

> <r_epik_Ionization_Penalty_Charging>
0.00191487

> <r_epik_Ionization_Penalty_Neutral>
0.00126037

> <r_epik_State_Penalty>
-0

> <r_epik_Charging_Adjusted_Penalty>
0.00191487

> <i_epik_Tot_Q>
1

> <i_epik_Tot_abs_Q>
1

> <r_epik_Metal_State_Penalty>
-0

> <b_epik_Metal_Only>
0

> <s_lp_Force_Field>
OPLS_2005

> <r_lp_Energy>
48.0385

> <b_lp_Chiralities_Consistent>
1

> <s_lp_Variant>
AV-unprocessed.smi:22-3

> <Gold.Version>
5.8.1

> <Gold.Id.Protein>
6NUR|6NUR_protein|mol2

> <Gold.PLP.Fitness>
44.4895

> <Gold.PLP.PLP>
-40.0462

> <Gold.PLP.part.hbond>
-3.6442

> <Gold.PLP.part.metal>
0.0000

> <Gold.PLP.part.buried>
-5.5807

> <Gold.PLP.part.nonpolar>
-33.0610

> <Gold.PLP.part.repulsive>
1.2249

> <Gold.PLP.ligand.clash>
0.0000

> <Gold.PLP.ligand.torsion>
1.0038

> <Gold.PLP.Chemscore.Hbond>
2.0000

> <Gold.PLP.Chemscore.CHOScore>
0.0000

> <Gold.PLP.Chemscore.Metal>
0.0000

> <Gold.Chemscore.Hbonds>
donor molecule, donor type, donor heavy atom, donor atom, acceptor molecule, acceptor atom, score
      L1  H     5    35       P1 10186  0.96
      L1  H    21    45       P1  8028  1.00

> <Gold.PLP.Chemscore.Internal.Correction>
0.4510

> <Gold.Rescore>
     Score         DG    S(hbond)    S(metal)    S(lipo)     H(rot)  DE(clash)    DE(int)     intcor
      9.56     -11.91       1.92        0.00      82.30       3.76       0.15       2.20       ----

> <Gold.Chemscore.Fitness>
9.5593

> <Gold.Chemscore.DG>
-11.9098

> <Gold.Chemscore.ZeroCoef>
-5.4800

> <Gold.Chemscore.Hbond>
1.9227

> <Gold.Chemscore.Metal>
0.0000

> <Gold.Chemscore.Lipo>
82.3024

> <Gold.Chemscore.Internal_Hbond>
0.0000

> <Gold.Chemscore.DEClash>
0.1465

> <Gold.Chemscore.DEInternal>
2.2041

> <Gold.Chemscore.Rot>
3.7583

> <Gold.Chemscore.Internal.Correction>
   9.000000E+99

> <Gold.Chemscore.Hbonds>
donor molecule, donor type, donor heavy atom, donor atom, acceptor molecule, acceptor atom, score
      L1  H     5    35       P1 10186  0.92
      L1  H    21    45       P1  8028  0.86

> <Gold.Chemscore.Hbond.Weighted>
-6.4217

> <Gold.Chemscore.Metal.Weighted>
-0.0000

> <Gold.Chemscore.Lipo.Weighted>
-9.6294

> <Gold.Chemscore.Internal_Hbond.Weighted>
0.0000

> <Gold.Chemscore.DEClash.Weighted>
0.1465

> <Gold.Chemscore.DEInternal.Weighted>
2.2041

> <Gold.Chemscore.Rot.Weighted>
9.6213

> <Gold.Chemscore.Internal.Correction.Weighted>
   9.000000E+99

> <Gold.Protein.RotatedTorsions>
[ 6907 6896 6895 6894 ] final -152.75 input  -60.11 | X-H torsion
[ 7974 7965 7964 7962 ] final    1.35 input  175.53 | X-H torsion
[ 8008 7997 7996 7995 ] final -100.70 input   59.86 | X-H torsion
[ 10167 10162 10161 10158 ] final -142.21 input  -65.29 | X-H torsion
[ 10718 10713 10712 10709 ] final   89.60 input   66.30 | X-H torsion
[ 10763 10752 10751 10750 ] final -137.40 input  -60.55 | X-H torsion
[ 11005 11000 10999 10996 ] final -150.71 input  -57.11 | X-H torsion

> <Gold.Protein.ActiveResidues>
 VAL166  LYS551  ARG553  GLY616  TRP617  ASP618  TYR619  PRO620  LYS621  CYS622 
 ASP623  PHE694  ASN695  SER759  ASP760  ASP761  ALA762  ILE779  LEU786  VAL792 
 PHE793  MET794  SER795  GLU796  ALA797  LYS798  CYS799  TRP800  GLU811  SER814 

> <Gold.Protein.RotatedAtoms>
  151.2324  133.4443  159.2604 H   0  0  0  0  0  0  0  0  0  0  0  0  # atno 6907 bound_to 6896
  151.0782  134.9841  159.8353 H   0  0  0  0  0  0  0  0  0  0  0  0  # atno 6908 bound_to 6896
  152.5421  134.2265  159.8861 H   0  0  0  0  0  0  0  0  0  0  0  0  # atno 6909 bound_to 6896
  146.2440  140.1000  142.8348 H   0  0  0  0  0  0  0  0  0  0  0  0  # atno 7974 bound_to 7965
  154.8323  140.0439  157.1485 H   0  0  0  0  0  0  0  0  0  0  0  0  # atno 8008 bound_to 7997
  154.9139  140.3017  155.5231 H   0  0  0  0  0  0  0  0  0  0  0  0  # atno 8009 bound_to 7997
  156.2987  140.2353  156.4181 H   0  0  0  0  0  0  0  0  0  0  0  0  # atno 8010 bound_to 7997
  139.8110  143.7703  152.2663 H   0  0  0  0  0  0  0  0  0  0  0  0  # atno 10167 bound_to 10162
  157.6956  131.0339  150.3451 H   0  0  0  0  0  0  0  0  0  0  0  0  # atno 10718 bound_to 10713
  154.8662  135.3643  154.5216 H   0  0  0  0  0  0  0  0  0  0  0  0  # atno 10763 bound_to 10752
  153.5846  135.7017  153.5453 H   0  0  0  0  0  0  0  0  0  0  0  0  # atno 10764 bound_to 10752
  153.3427  135.4093  155.1546 H   0  0  0  0  0  0  0  0  0  0  0  0  # atno 10765 bound_to 10752
  140.7373  134.3553  157.5155 H   0  0  0  0  0  0  0  0  0  0  0  0  # atno 11005 bound_to 11000
  145.0576  140.9064  143.4958 LP  0  0  0  0  0  0  0  0  0  0  0  0  # atno 17320 bound_to 7965
  145.1110  139.2757  143.5637 LP  0  0  0  0  0  0  0  0  0  0  0  0  # atno 17321 bound_to 7965
  139.7852  144.7430  151.0032 LP  0  0  0  0  0  0  0  0  0  0  0  0  # atno 17342 bound_to 10162
  140.7818  143.4500  151.0427 LP  0  0  0  0  0  0  0  0  0  0  0  0  # atno 17343 bound_to 10162
  156.3907  130.3897  149.7032 LP  0  0  0  0  0  0  0  0  0  0  0  0  # atno 17370 bound_to 10713
  156.4383  130.7849  151.2869 LP  0  0  0  0  0  0  0  0  0  0  0  0  # atno 17371 bound_to 10713
  139.8813  134.9058  156.2908 LP  0  0  0  0  0  0  0  0  0  0  0  0  # atno 17394 bound_to 11000
  140.9868  133.7233  156.0753 LP  0  0  0  0  0  0  0  0  0  0  0  0  # atno 17395 bound_to 11000

$$$$
