AV-unprocessed.smi:1608|AV-procd|sdf|6468|dock6
  -GOLD-   22720 7123D 1   1.00000     0.00000
 Structure written by MMmdl.
 42 43  0  0  0  0  0  0  0  0  1 V2000
  146.2589  131.8238  149.3387 C   0  0  0  0  0  0  0  0  0  0  0  0
  145.5363  132.6879  150.2753 N   0  0  0  0  0  0  0  0  0  0  0  0
  146.2913  133.5711  151.0695 C   0  0  0  0  0  0  0  0  0  0  0  0
  145.7297  134.3990  151.9690 C   0  0  0  0  0  0  0  0  0  0  0  0
  146.5765  135.2356  152.7094 N   0  0  0  0  0  0  0  0  0  0  0  0
  146.3385  135.8584  153.8782 C   0  0  0  0  0  0  0  0  0  0  0  0
  145.3110  135.7658  154.5491 O   0  0  0  0  0  0  0  0  0  0  0  0
  147.3926  136.5998  154.2489 N   0  0  0  0  0  0  0  0  0  0  0  0
  147.4832  137.3820  155.4781 C   0  0  1  0  0  0  0  0  0  0  0  0
  146.6414  138.6643  155.3682 C   0  0  0  0  0  0  0  0  0  0  0  0
  146.7020  139.4405  156.6882 C   0  0  0  0  0  0  0  0  0  0  0  0
  146.2538  138.5656  157.8718 C   0  0  0  0  0  0  0  0  0  0  0  0
  147.0101  137.2981  157.9300 N   0  0  0  0  0  0  0  0  0  0  0  0
  148.3114  137.1137  159.0709 S   0  0  0  0  0  0  0  0  0  0  0  0
  149.5890  138.3060  158.4962 C   0  0  0  0  0  0  0  0  0  0  0  0
  147.8236  137.5628  160.3838 O   0  0  0  0  0  0  0  0  0  0  0  0
  148.8522  135.7541  158.9207 O   0  0  0  0  0  0  0  0  0  0  0  0
  147.0162  136.5254  156.6715 C   0  0  0  0  0  0  0  0  0  0  0  0
  144.2784  134.3640  152.0776 C   0  0  0  0  0  0  0  0  0  0  0  0
  143.5494  133.5236  151.3172 C   0  0  0  0  0  0  0  0  0  0  0  0
  144.1766  132.6142  150.3549 C   0  0  0  0  0  0  0  0  0  0  0  0
  143.5212  131.8366  149.6610 O   0  0  0  0  0  0  0  0  0  0  0  0
  147.3405  131.9505  149.3960 H   0  0  0  0  0  0  0  0  0  0  0  0
  145.9590  132.0389  148.3122 H   0  0  0  0  0  0  0  0  0  0  0  0
  146.0454  130.7734  149.5420 H   0  0  0  0  0  0  0  0  0  0  0  0
  147.3588  133.5256  150.9068 H   0  0  0  0  0  0  0  0  0  0  0  0
  147.4910  135.3756  152.3056 H   0  0  0  0  0  0  0  0  0  0  0  0
  148.1968  136.6195  153.6391 H   0  0  0  0  0  0  0  0  0  0  0  0
  148.5254  137.6589  155.6382 H   0  0  0  0  0  0  0  0  0  0  0  0
  147.0043  139.2922  154.5536 H   0  0  0  0  0  0  0  0  0  0  0  0
  145.6054  138.4147  155.1349 H   0  0  0  0  0  0  0  0  0  0  0  0
  147.7155  139.8042  156.8518 H   0  0  0  0  0  0  0  0  0  0  0  0
  146.0691  140.3260  156.6254 H   0  0  0  0  0  0  0  0  0  0  0  0
  146.3554  139.1130  158.8085 H   0  0  0  0  0  0  0  0  0  0  0  0
  145.1945  138.3288  157.7680 H   0  0  0  0  0  0  0  0  0  0  0  0
  150.4429  138.2647  159.1719 H   0  0  0  0  0  0  0  0  0  0  0  0
  149.1839  139.3165  158.5023 H   0  0  0  0  0  0  0  0  0  0  0  0
  149.9209  138.0422  157.4937 H   0  0  0  0  0  0  0  0  0  0  0  0
  146.0038  136.1606  156.4918 H   0  0  0  0  0  0  0  0  0  0  0  0
  147.6456  135.6417  156.7763 H   0  0  0  0  0  0  0  0  0  0  0  0
  143.7448  135.0164  152.7495 H   0  0  0  0  0  0  0  0  0  0  0  0
  142.4734  133.5242  151.4129 H   0  0  0  0  0  0  0  0  0  0  0  0
  1  2  1  0  0  0  0
  1 23  1  0  0  0  0
  1 24  1  0  0  0  0
  1 25  1  0  0  0  0
  2 21  1  0  0  0  0
  2  3  1  0  0  0  0
  3  4  2  0  0  0  0
  3 26  1  0  0  0  0
  4  5  1  0  0  0  0
  4 19  1  0  0  0  0
  5  6  1  0  0  0  0
  5 27  1  0  0  0  0
  6  7  2  0  0  0  0
  6  8  1  0  0  0  0
  8  9  1  0  0  0  0
  8 28  1  0  0  0  0
  9 18  1  0  0  0  0
  9 10  1  0  0  0  0
  9 29  1  0  0  0  0
 10 11  1  0  0  0  0
 10 30  1  0  0  0  0
 10 31  1  0  0  0  0
 11 12  1  0  0  0  0
 11 32  1  0  0  0  0
 11 33  1  0  0  0  0
 12 13  1  0  0  0  0
 12 34  1  0  0  0  0
 12 35  1  0  0  0  0
 13 14  1  0  0  0  0
 13 18  1  0  0  0  0
 14 15  1  0  0  0  0
 14 16  2  0  0  0  0
 14 17  2  0  0  0  0
 15 36  1  0  0  0  0
 15 37  1  0  0  0  0
 15 38  1  0  0  0  0
 18 39  1  0  0  0  0
 18 40  1  0  0  0  0
 19 20  2  0  0  0  0
 19 41  1  0  0  0  0
 20 21  1  0  0  0  0
 20 42  1  0  0  0  0
 21 22  2  0  0  0  0
M  END
> <s_m_source_file>
AV-unprocessed.smi

> <i_m_source_file_index>
1608

> <i_lp_mmshare_version>
43012

> <i_f3d_flags>
0

> <s_epik_input>
Tz1jMVtjSF1bY0hdYyhbY0hdbjFbQ0gzXSlbTkhdQyg9TylbTkhdW0NAQEhdMltDSDJdW0NIMl1bQ0gyXU4oW0NIMl0yKVMoPU8pKD1PKVtDSDNd

> <s_epik_cmdline>
J2VwaWtfcHl0aG9uJywgJy1waCcsICc3LjAnLCAnLXRuJywgJzgnLCAnLW1hJywgJzIwMCcsICctbWV0YWxfYmluZGluZycsICctaW1hZScsICc8aW5maWxlLm1hZT4nLCAnLW9tYWUnLCAnPG91dGZpbGUubWFlPic=

> <r_lp_tautomer_probability>
1

> <r_epik_Ionization_Penalty>
2.44111e-05

> <r_epik_Ionization_Penalty_Charging>
5.7429e-06

> <r_epik_Ionization_Penalty_Neutral>
1.86682e-05

> <r_epik_State_Penalty>
-0

> <r_epik_Charging_Adjusted_Penalty>
5.7429e-06

> <i_epik_Tot_Q>
0

> <i_epik_Tot_abs_Q>
0

> <r_epik_Metal_State_Penalty>
-0

> <b_epik_Metal_Only>
0

> <s_lp_Force_Field>
OPLS_2005

> <r_lp_Energy>
11.6091

> <b_lp_Chiralities_Consistent>
1

> <s_lp_Variant>
AV-unprocessed.smi:1608-2

> <Gold.Version>
5.8.1

> <Gold.Id.Protein>
6NUR|6NUR_protein|mol2

> <Gold.PLP.Fitness>
43.8180

> <Gold.PLP.PLP>
-28.0138

> <Gold.PLP.part.hbond>
-6.0000

> <Gold.PLP.part.metal>
0.0000

> <Gold.PLP.part.buried>
-4.4049

> <Gold.PLP.part.nonpolar>
-18.6683

> <Gold.PLP.part.repulsive>
0.5253

> <Gold.PLP.ligand.clash>
0.0000

> <Gold.PLP.ligand.torsion>
1.2987

> <Gold.PLP.Chemscore.Hbond>
5.4490

> <Gold.PLP.Chemscore.CHOScore>
0.0000

> <Gold.PLP.Chemscore.Metal>
0.0000

> <Gold.Chemscore.Hbonds>
donor molecule, donor type, donor heavy atom, donor atom, acceptor molecule, acceptor atom, score
      L1  H     5    27       P1  7948  1.00
      L1  H     8    28       P1  7948  0.96
      P1  H  6896  6908       L1    17  0.37
      P1  H  6931  6943       L1    16  0.53
      P1  H  6934  6947       L1    16  0.77
      P1  H 10785 10796       L1    22  1.00

> <Gold.PLP.Chemscore.Internal.Correction>
2.0546

> <Gold.Rescore>
     Score         DG    S(hbond)    S(metal)    S(lipo)     H(rot)  DE(clash)    DE(int)     intcor
     20.87     -24.51       5.09        0.00      39.07       1.00       0.17       3.46       ----

> <Gold.Chemscore.Fitness>
20.8747

> <Gold.Chemscore.DG>
-24.5074

> <Gold.Chemscore.ZeroCoef>
-5.4800

> <Gold.Chemscore.Hbond>
5.0948

> <Gold.Chemscore.Metal>
0.0000

> <Gold.Chemscore.Lipo>
39.0665

> <Gold.Chemscore.Internal_Hbond>
0.0000

> <Gold.Chemscore.DEClash>
0.1749

> <Gold.Chemscore.DEInternal>
3.4578

> <Gold.Chemscore.Rot>
1.0000

> <Gold.Chemscore.Internal.Correction>
   9.000000E+99

> <Gold.Chemscore.Hbonds>
donor molecule, donor type, donor heavy atom, donor atom, acceptor molecule, acceptor atom, score
      L1  H     5    27       P1  7948  0.99
      L1  H     8    28       P1  7948  0.91
      P1  H  6896  6908       L1    17  0.37
      P1  H  6931  6943       L1    16  0.50
      P1  H  6934  6947       L1    16  0.76
      P1  H 10785 10796       L1    22  0.93

> <Gold.Chemscore.Hbond.Weighted>
-17.0166

> <Gold.Chemscore.Metal.Weighted>
-0.0000

> <Gold.Chemscore.Lipo.Weighted>
-4.5708

> <Gold.Chemscore.Internal_Hbond.Weighted>
0.0000

> <Gold.Chemscore.DEClash.Weighted>
0.1749

> <Gold.Chemscore.DEInternal.Weighted>
3.4578

> <Gold.Chemscore.Rot.Weighted>
2.5600

> <Gold.Chemscore.Internal.Correction.Weighted>
   9.000000E+99

> <Gold.Protein.RotatedTorsions>
[ 6907 6896 6895 6894 ] final  162.07 input  -60.11 | X-H torsion
[ 7974 7965 7964 7962 ] final -111.13 input  175.53 | X-H torsion
[ 8008 7997 7996 7995 ] final -118.15 input   59.86 | X-H torsion
[ 10167 10162 10161 10158 ] final  -92.30 input  -65.29 | X-H torsion
[ 10718 10713 10712 10709 ] final  131.70 input   66.30 | X-H torsion
[ 10763 10752 10751 10750 ] final   34.13 input  -60.55 | X-H torsion
[ 11005 11000 10999 10996 ] final   61.99 input  -57.11 | X-H torsion

> <Gold.Protein.ActiveResidues>
 VAL166  LYS551  ARG553  GLY616  TRP617  ASP618  TYR619  PRO620  LYS621  CYS622 
 ASP623  PHE694  ASN695  SER759  ASP760  ASP761  ALA762  ILE779  LEU786  VAL792 
 PHE793  MET794  SER795  GLU796  ALA797  LYS798  CYS799  TRP800  GLU811  SER814 

> <Gold.Protein.RotatedAtoms>
  151.9459  133.3651  159.3982 H   0  0  0  0  0  0  0  0  0  0  0  0  # atno 6907 bound_to 6896
  150.6989  134.4390  159.5293 H   0  0  0  0  0  0  0  0  0  0  0  0  # atno 6908 bound_to 6896
  152.2055  134.8549  160.0554 H   0  0  0  0  0  0  0  0  0  0  0  0  # atno 6909 bound_to 6896
  145.1598  140.8872  143.3597 H   0  0  0  0  0  0  0  0  0  0  0  0  # atno 7974 bound_to 7965
  155.0951  140.0395  157.2680 H   0  0  0  0  0  0  0  0  0  0  0  0  # atno 8008 bound_to 7997
  154.6802  140.2631  155.6891 H   0  0  0  0  0  0  0  0  0  0  0  0  # atno 8009 bound_to 7997
  156.2692  140.2780  156.1343 H   0  0  0  0  0  0  0  0  0  0  0  0  # atno 8010 bound_to 7997
  140.3362  143.2967  151.9887 H   0  0  0  0  0  0  0  0  0  0  0  0  # atno 10167 bound_to 10162
  157.4942  131.1092  150.9515 H   0  0  0  0  0  0  0  0  0  0  0  0  # atno 10718 bound_to 10713
  153.0178  135.6368  154.1620 H   0  0  0  0  0  0  0  0  0  0  0  0  # atno 10763 bound_to 10752
  154.1358  135.2837  155.3175 H   0  0  0  0  0  0  0  0  0  0  0  0  # atno 10764 bound_to 10752
  154.6161  135.5540  153.7586 H   0  0  0  0  0  0  0  0  0  0  0  0  # atno 10765 bound_to 10752
  140.0123  134.6278  155.9762 H   0  0  0  0  0  0  0  0  0  0  0  0  # atno 11005 bound_to 11000
  145.0343  139.3314  143.6009 LP  0  0  0  0  0  0  0  0  0  0  0  0  # atno 17320 bound_to 7965
  146.3484  139.9692  142.8708 LP  0  0  0  0  0  0  0  0  0  0  0  0  # atno 17321 bound_to 7965
  139.4848  144.6194  151.7283 LP  0  0  0  0  0  0  0  0  0  0  0  0  # atno 17342 bound_to 10162
  140.5351  144.0668  150.6067 LP  0  0  0  0  0  0  0  0  0  0  0  0  # atno 17343 bound_to 10162
  157.0206  130.5672  149.5331 LP  0  0  0  0  0  0  0  0  0  0  0  0  # atno 17370 bound_to 10713
  156.0191  130.5286  150.8223 LP  0  0  0  0  0  0  0  0  0  0  0  0  # atno 17371 bound_to 10713
  141.1719  133.6538  156.4684 LP  0  0  0  0  0  0  0  0  0  0  0  0  # atno 17394 bound_to 11000
  140.4533  134.6909  157.5050 LP  0  0  0  0  0  0  0  0  0  0  0  0  # atno 17395 bound_to 11000

$$$$
