AV-unprocessed.smi:1443|AV-procd|sdf|5878|dock10
  -GOLD-   22720 5553D 1   1.00000     0.00000
 Structure written by MMmdl.
 27 28  0  0  0  0  0  0  0  0  1 V2000
  150.9498  136.8461  155.9547 C   0  0  0  0  0  0  0  0  0  0  0  0
  150.7037  137.6446  154.3464 S   0  0  0  0  0  0  0  0  0  0  0  0
  149.9517  139.2050  154.6804 C   0  0  0  0  0  0  0  0  0  0  0  0
  148.7381  139.4940  154.1772 N   0  0  0  0  0  0  0  0  0  0  0  0
  148.2992  141.0445  154.6852 S   0  0  0  0  0  0  0  0  0  0  0  0
  149.7920  141.2133  155.5605 C   0  0  0  0  0  0  0  0  0  0  0  0
  150.1061  142.3870  156.3052 N   0  0  0  0  0  0  0  0  0  0  0  0
  150.9310  142.5832  157.3557 C   0  0  0  0  0  0  0  0  0  0  0  0
  151.5756  141.6525  157.8362 O   0  0  0  0  0  0  0  0  0  0  0  0
  150.9983  143.8371  157.8296 N   0  0  0  0  0  0  0  0  0  0  0  0
  151.8204  144.2788  158.9101 C   0  0  1  0  0  0  0  0  0  0  0  0
  151.9433  145.7731  159.1168 C   0  0  0  0  0  0  0  0  0  0  0  0
  151.1678  144.9456  160.1071 C   0  0  1  0  0  0  0  0  0  0  0  0
  149.6638  145.0901  160.2273 C   0  0  0  0  0  0  0  0  0  0  0  0
  150.5614  140.1303  155.4438 N   0  0  0  0  0  0  0  0  0  0  0  0
  151.3656  135.8480  155.8188 H   0  0  0  0  0  0  0  0  0  0  0  0
  150.0039  136.7576  156.4894 H   0  0  0  0  0  0  0  0  0  0  0  0
  151.6432  137.4282  156.5608 H   0  0  0  0  0  0  0  0  0  0  0  0
  149.6000  143.2110  156.0145 H   0  0  0  0  0  0  0  0  0  0  0  0
  150.4303  144.5387  157.3762 H   0  0  0  0  0  0  0  0  0  0  0  0
  152.7188  143.6990  159.1172 H   0  0  0  0  0  0  0  0  0  0  0  0
  152.9109  146.1575  159.4329 H   0  0  0  0  0  0  0  0  0  0  0  0
  151.3809  146.4251  158.4509 H   0  0  0  0  0  0  0  0  0  0  0  0
  151.6573  144.7656  161.0624 H   0  0  0  0  0  0  0  0  0  0  0  0
  149.2143  145.3280  159.2641 H   0  0  0  0  0  0  0  0  0  0  0  0
  149.4208  145.8895  160.9275 H   0  0  0  0  0  0  0  0  0  0  0  0
  149.2271  144.1614  160.5942 H   0  0  0  0  0  0  0  0  0  0  0  0
  1  2  1  0  0  0  0
  1 16  1  0  0  0  0
  1 17  1  0  0  0  0
  1 18  1  0  0  0  0
  2  3  1  0  0  0  0
  3 15  1  0  0  0  0
  3  4  2  0  0  0  0
  4  5  1  0  0  0  0
  5  6  1  0  0  0  0
  6  7  1  0  0  0  0
  6 15  2  0  0  0  0
  7  8  1  0  0  0  0
  7 19  1  0  0  0  0
  8  9  2  0  0  0  0
  8 10  1  0  0  0  0
 10 11  1  0  0  0  0
 10 20  1  0  0  0  0
 11 13  1  0  0  0  0
 11 12  1  0  0  0  0
 11 21  1  0  0  0  0
 12 13  1  0  0  0  0
 12 22  1  0  0  0  0
 12 23  1  0  0  0  0
 13 14  1  0  0  0  0
 13 24  1  0  0  0  0
 14 25  1  0  0  0  0
 14 26  1  0  0  0  0
 14 27  1  0  0  0  0
M  END
> <s_m_source_file>
AV-unprocessed.smi

> <i_m_source_file_index>
1443

> <i_lp_mmshare_version>
43012

> <i_f3d_flags>
0

> <s_epik_input>
W0NIM11TYzFuc2MobjEpW05IXUMoPU8pW05IXVtDQEBIXTJbQ0gyXVtDQEhdMltDSDNd

> <s_epik_cmdline>
J2VwaWtfcHl0aG9uJywgJy1waCcsICc3LjAnLCAnLXRuJywgJzgnLCAnLW1hJywgJzIwMCcsICctbWV0YWxfYmluZGluZycsICctaW1hZScsICc8aW5maWxlLm1hZT4nLCAnLW9tYWUnLCAnPG91dGZpbGUubWFlPic=

> <r_lp_tautomer_probability>
1

> <r_epik_Ionization_Penalty>
2.74658e-05

> <r_epik_Ionization_Penalty_Charging>
0

> <r_epik_Ionization_Penalty_Neutral>
2.74658e-05

> <r_epik_State_Penalty>
-0

> <r_epik_Charging_Adjusted_Penalty>
0

> <i_epik_Tot_Q>
0

> <i_epik_Tot_abs_Q>
0

> <r_epik_Metal_State_Penalty>
-0

> <b_epik_Metal_Only>
0

> <s_lp_Force_Field>
OPLS_2005

> <r_lp_Energy>
21.211

> <b_lp_Chiralities_Consistent>
1

> <s_lp_Variant>
AV-unprocessed.smi:1443-2

> <Gold.Version>
5.8.1

> <Gold.Id.Protein>
6NUR|6NUR_protein|mol2

> <Gold.PLP.Fitness>
35.7760

> <Gold.PLP.PLP>
-31.8090

> <Gold.PLP.part.hbond>
-2.5877

> <Gold.PLP.part.metal>
0.0000

> <Gold.PLP.part.buried>
-4.2942

> <Gold.PLP.part.nonpolar>
-26.8452

> <Gold.PLP.part.repulsive>
1.4442

> <Gold.PLP.ligand.clash>
0.0000

> <Gold.PLP.ligand.torsion>
0.1880

> <Gold.PLP.Chemscore.Hbond>
1.4354

> <Gold.PLP.Chemscore.CHOScore>
0.0000

> <Gold.PLP.Chemscore.Metal>
0.0000

> <Gold.Chemscore.Hbonds>
donor molecule, donor type, donor heavy atom, donor atom, acceptor molecule, acceptor atom, score
      L1  H     7    19       P1  8028  1.00
      L1  H    10    20       P1  8028  0.30
      P1  H  7989  7998       L1    15  0.06

> <Gold.PLP.Chemscore.Internal.Correction>
0.0368

> <Gold.Rescore>
     Score         DG    S(hbond)    S(metal)    S(lipo)     H(rot)  DE(clash)    DE(int)     intcor
     12.29     -13.54       1.20        0.00      62.49       1.27       0.08       1.17       ----

> <Gold.Chemscore.Fitness>
12.2905

> <Gold.Chemscore.DG>
-13.5398

> <Gold.Chemscore.ZeroCoef>
-5.4800

> <Gold.Chemscore.Hbond>
1.1973

> <Gold.Chemscore.Metal>
0.0000

> <Gold.Chemscore.Lipo>
62.4923

> <Gold.Chemscore.Internal_Hbond>
0.0000

> <Gold.Chemscore.DEClash>
0.0825

> <Gold.Chemscore.DEInternal>
1.1667

> <Gold.Chemscore.Rot>
1.2699

> <Gold.Chemscore.Internal.Correction>
   9.000000E+99

> <Gold.Chemscore.Hbonds>
donor molecule, donor type, donor heavy atom, donor atom, acceptor molecule, acceptor atom, score
      L1  H     7    19       P1  8028  1.00
      L1  H    10    20       P1  8028  0.17

> <Gold.Chemscore.Hbond.Weighted>
-3.9991

> <Gold.Chemscore.Metal.Weighted>
-0.0000

> <Gold.Chemscore.Lipo.Weighted>
-7.3116

> <Gold.Chemscore.Internal_Hbond.Weighted>
0.0000

> <Gold.Chemscore.DEClash.Weighted>
0.0825

> <Gold.Chemscore.DEInternal.Weighted>
1.1667

> <Gold.Chemscore.Rot.Weighted>
3.2509

> <Gold.Chemscore.Internal.Correction.Weighted>
   9.000000E+99

> <Gold.Protein.RotatedTorsions>
[ 6907 6896 6895 6894 ] final    5.20 input  -60.11 | X-H torsion
[ 7974 7965 7964 7962 ] final   61.50 input  175.53 | X-H torsion
[ 8008 7997 7996 7995 ] final  128.95 input   59.86 | X-H torsion
[ 10167 10162 10161 10158 ] final -161.14 input  -65.29 | X-H torsion
[ 10718 10713 10712 10709 ] final   99.65 input   66.30 | X-H torsion
[ 10763 10752 10751 10750 ] final   21.45 input  -60.55 | X-H torsion
[ 11005 11000 10999 10996 ] final  -12.70 input  -57.11 | X-H torsion

> <Gold.Protein.ActiveResidues>
 VAL166  LYS551  ARG553  GLY616  TRP617  ASP618  TYR619  PRO620  LYS621  CYS622 
 ASP623  PHE694  ASN695  SER759  ASP760  ASP761  ALA762  ILE779  LEU786  VAL792 
 PHE793  MET794  SER795  GLU796  ALA797  LYS798  CYS799  TRP800  GLU811  SER814 

> <Gold.Protein.RotatedAtoms>
  151.6536  135.0998  160.0165 H   0  0  0  0  0  0  0  0  0  0  0  0  # atno 6907 bound_to 6896
  152.3987  133.6780  159.6306 H   0  0  0  0  0  0  0  0  0  0  0  0  # atno 6908 bound_to 6896
  150.7890  133.8746  159.3309 H   0  0  0  0  0  0  0  0  0  0  0  0  # atno 6909 bound_to 6896
  145.8840  139.3463  143.0689 H   0  0  0  0  0  0  0  0  0  0  0  0  # atno 7974 bound_to 7965
  156.2926  140.2632  156.2520 H   0  0  0  0  0  0  0  0  0  0  0  0  # atno 8008 bound_to 7997
  154.9873  140.0389  157.2322 H   0  0  0  0  0  0  0  0  0  0  0  0  # atno 8009 bound_to 7997
  154.7717  140.2779  155.6137 H   0  0  0  0  0  0  0  0  0  0  0  0  # atno 8010 bound_to 7997
  139.6487  144.0125  152.2146 H   0  0  0  0  0  0  0  0  0  0  0  0  # atno 10167 bound_to 10162
  157.6871  131.0676  150.4981 H   0  0  0  0  0  0  0  0  0  0  0  0  # atno 10718 bound_to 10713
  153.0994  135.6668  153.9701 H   0  0  0  0  0  0  0  0  0  0  0  0  # atno 10763 bound_to 10752
  153.9276  135.3007  155.3448 H   0  0  0  0  0  0  0  0  0  0  0  0  # atno 10764 bound_to 10752
  154.7414  135.5077  153.9205 H   0  0  0  0  0  0  0  0  0  0  0  0  # atno 10765 bound_to 10752
  140.7685  133.8457  155.9186 H   0  0  0  0  0  0  0  0  0  0  0  0  # atno 11005 bound_to 11000
  145.8989  140.9255  143.0513 LP  0  0  0  0  0  0  0  0  0  0  0  0  # atno 17320 bound_to 7965
  144.6728  140.1006  143.7460 LP  0  0  0  0  0  0  0  0  0  0  0  0  # atno 17321 bound_to 7965
  139.9833  144.6413  150.7881 LP  0  0  0  0  0  0  0  0  0  0  0  0  # atno 17342 bound_to 10162
  140.7527  143.2995  151.3117 LP  0  0  0  0  0  0  0  0  0  0  0  0  # atno 17343 bound_to 10162
  156.5304  130.4183  149.6205 LP  0  0  0  0  0  0  0  0  0  0  0  0  # atno 17370 bound_to 10713
  156.3075  130.7210  151.2096 LP  0  0  0  0  0  0  0  0  0  0  0  0  # atno 17371 bound_to 10713
  140.9596  134.1673  157.4664 LP  0  0  0  0  0  0  0  0  0  0  0  0  # atno 17394 bound_to 11000
  139.8759  134.9940  156.5671 LP  0  0  0  0  0  0  0  0  0  0  0  0  # atno 17395 bound_to 11000

$$$$
