AV-unprocessed.smi:28|AV-procd|sdf|189|dock4
  -GOLD-   2262015453D 1   1.00000     0.00000
 Structure written by MMmdl.
 41 44  0  0  0  0  0  0  0  0  1 V2000
  153.4616  138.5494  160.4794 O   0  0  0  0  0  0  0  0  0  0  0  0
  153.1247  139.6520  160.0448 C   0  0  0  0  0  0  0  0  0  0  0  0
  153.4771  140.9103  160.6939 C   0  0  0  0  0  0  0  0  0  0  0  0
  154.2176  140.8942  161.8150 F   0  0  0  0  0  0  0  0  0  0  0  0
  153.0681  142.0950  160.1903 C   0  0  0  0  0  0  0  0  0  0  0  0
  152.3008  142.2038  159.0415 N   0  0  0  0  0  0  0  0  0  0  0  0
  151.8328  143.5425  158.5092 C   0  0  2  0  0  0  0  0  0  0  0  0
  152.4479  144.6970  159.3239 C   0  0  0  0  0  0  0  0  0  0  0  0
  151.2351  145.5220  159.7069 C   0  0  0  0  0  0  0  0  0  0  0  0
  150.1398  144.4679  159.7598 C   0  0  0  0  0  0  0  0  0  0  0  0
  150.4433  143.6478  158.6391 O   0  0  0  0  0  0  0  0  0  0  0  0
  151.9067  141.0361  158.3522 C   0  0  0  0  0  0  0  0  0  0  0  0
  151.2012  141.1089  157.3431 O   0  0  0  0  0  0  0  0  0  0  0  0
  152.3460  139.7946  158.8699 N   0  0  0  0  0  0  0  0  0  0  0  0
  151.9192  138.5854  158.1856 C   0  0  0  0  0  0  0  0  0  0  0  0
  153.1086  137.7783  157.7702 C   0  0  0  0  0  0  0  0  0  0  0  0
  153.5423  136.6356  158.3054 N   0  0  0  0  0  0  0  0  0  0  0  0
  154.6482  136.2754  157.5698 N   0  0  0  0  0  0  0  0  0  0  0  0
  154.7987  137.2229  156.6385 C   0  0  0  0  0  0  0  0  0  0  0  0
  155.8191  137.3408  155.6032 C   0  0  0  0  0  0  0  0  0  0  0  0
  155.5244  138.0944  154.4458 C   0  0  0  0  0  0  0  0  0  0  0  0
  156.4789  138.2337  153.4205 C   0  0  0  0  0  0  0  0  0  0  0  0
  157.7358  137.6141  153.5423 C   0  0  0  0  0  0  0  0  0  0  0  0
  158.0330  136.8506  154.6866 C   0  0  0  0  0  0  0  0  0  0  0  0
  157.0815  136.7063  155.7165 C   0  0  0  0  0  0  0  0  0  0  0  0
  157.5339  135.6215  157.2189 Br  0  0  0  0  0  0  0  0  0  0  0  0
  153.8645  138.2064  156.7268 O   0  0  0  0  0  0  0  0  0  0  0  0
  153.3610  142.9847  160.7263 H   0  0  0  0  0  0  0  0  0  0  0  0
  152.1010  143.5483  157.4513 H   0  0  0  0  0  0  0  0  0  0  0  0
  152.9422  144.3101  160.2167 H   0  0  0  0  0  0  0  0  0  0  0  0
  153.1739  145.2521  158.7288 H   0  0  0  0  0  0  0  0  0  0  0  0
  151.3607  146.0562  160.6490 H   0  0  0  0  0  0  0  0  0  0  0  0
  151.0144  146.2504  158.9255 H   0  0  0  0  0  0  0  0  0  0  0  0
  150.2034  143.8870  160.6812 H   0  0  0  0  0  0  0  0  0  0  0  0
  149.1388  144.8933  159.6872 H   0  0  0  0  0  0  0  0  0  0  0  0
  151.2689  138.0176  158.8530 H   0  0  0  0  0  0  0  0  0  0  0  0
  151.3087  138.8600  157.3241 H   0  0  0  0  0  0  0  0  0  0  0  0
  154.5631  138.5769  154.3427 H   0  0  0  0  0  0  0  0  0  0  0  0
  156.2464  138.8166  152.5413 H   0  0  0  0  0  0  0  0  0  0  0  0
  158.4696  137.7193  152.7569 H   0  0  0  0  0  0  0  0  0  0  0  0
  158.9951  136.3673  154.7724 H   0  0  0  0  0  0  0  0  0  0  0  0
  1  2  2  0  0  0  0
  2 14  1  0  0  0  0
  2  3  1  0  0  0  0
  3  4  1  0  0  0  0
  3  5  2  0  0  0  0
  5  6  1  0  0  0  0
  5 28  1  0  0  0  0
  6  7  1  0  0  0  0
  6 12  1  0  0  0  0
  7 11  1  0  0  0  0
  7  8  1  0  0  0  0
  7 29  1  0  0  0  0
  8  9  1  0  0  0  0
  8 30  1  0  0  0  0
  8 31  1  0  0  0  0
  9 10  1  0  0  0  0
  9 32  1  0  0  0  0
  9 33  1  0  0  0  0
 10 11  1  0  0  0  0
 10 34  1  0  0  0  0
 10 35  1  0  0  0  0
 12 13  2  0  0  0  0
 12 14  1  0  0  0  0
 14 15  1  0  0  0  0
 15 16  1  0  0  0  0
 15 36  1  0  0  0  0
 15 37  1  0  0  0  0
 16 27  1  0  0  0  0
 16 17  2  0  0  0  0
 17 18  1  0  0  0  0
 18 19  2  0  0  0  0
 19 20  1  0  0  0  0
 19 27  1  0  0  0  0
 20 25  1  0  0  0  0
 20 21  2  0  0  0  0
 21 22  1  0  0  0  0
 21 38  1  0  0  0  0
 22 23  2  0  0  0  0
 22 39  1  0  0  0  0
 23 24  1  0  0  0  0
 23 40  1  0  0  0  0
 24 25  2  0  0  0  0
 24 41  1  0  0  0  0
 25 26  1  0  0  0  0
M  END
> <s_m_source_file>
AV-unprocessed.smi

> <i_m_source_file_index>
28

> <i_lp_mmshare_version>
43012

> <i_f3d_flags>
0

> <s_epik_input>
TzFbQ0gyXVtDSDJdW0NIMl1bQ0BIXTFuKFtjSF1jKEYpYzI9TyljKD1PKW4yW0NIMl1jM25uYyhvMyktYzRbY0hdW2NIXVtjSF1bY0hdYzRCcg==

> <s_epik_cmdline>
J2VwaWtfcHl0aG9uJywgJy1waCcsICc3LjAnLCAnLXRuJywgJzgnLCAnLW1hJywgJzIwMCcsICctbWV0YWxfYmluZGluZycsICctaW1hZScsICc8aW5maWxlLm1hZT4nLCAnLW9tYWUnLCAnPG91dGZpbGUubWFlPic=

> <r_lp_tautomer_probability>
1

> <r_epik_Ionization_Penalty>
2.5628e-09

> <r_epik_Ionization_Penalty_Charging>
2.54231e-09

> <r_epik_Ionization_Penalty_Neutral>
2.0492e-11

> <r_epik_State_Penalty>
-0

> <r_epik_Charging_Adjusted_Penalty>
2.54231e-09

> <i_epik_Tot_Q>
0

> <i_epik_Tot_abs_Q>
0

> <r_epik_Metal_State_Penalty>
-0

> <b_epik_Metal_Only>
0

> <s_epik_Chemistry_Notes>
This compound contains an acetal/aminal-like group ( X-CH(R)-Y where X, Y are N, S, or O) that may be acid/base labile, releasing an aldehyde.

> <s_lp_Force_Field>
OPLS_2005

> <r_lp_Energy>
34.3922

> <b_lp_Chiralities_Consistent>
1

> <s_lp_Variant>
AV-unprocessed.smi:28-1

> <Gold.Version>
5.8.1

> <Gold.Id.Protein>
6NUR|6NUR_protein|mol2

> <Gold.PLP.Fitness>
48.7545

> <Gold.PLP.PLP>
-48.3792

> <Gold.PLP.part.hbond>
-0.8923

> <Gold.PLP.part.metal>
0.0000

> <Gold.PLP.part.buried>
-0.5584

> <Gold.PLP.part.nonpolar>
-46.8769

> <Gold.PLP.part.repulsive>
0.1668

> <Gold.PLP.ligand.clash>
0.0000

> <Gold.PLP.ligand.torsion>
0.4883

> <Gold.PLP.Chemscore.Hbond>
0.4423

> <Gold.PLP.Chemscore.CHOScore>
0.0000

> <Gold.PLP.Chemscore.Metal>
0.0000

> <Gold.Chemscore.Hbonds>
donor molecule, donor type, donor heavy atom, donor atom, acceptor molecule, acceptor atom, score
      P1  H  7997  8008       L1    27  0.61

> <Gold.PLP.Chemscore.Internal.Correction>
0.0251

> <Gold.Rescore>
     Score         DG    S(hbond)    S(metal)    S(lipo)     H(rot)  DE(clash)    DE(int)     intcor
     10.58     -15.85       0.34        0.00     115.99       1.70       0.44       4.84       ----

> <Gold.Chemscore.Fitness>
10.5763

> <Gold.Chemscore.DG>
-15.8512

> <Gold.Chemscore.ZeroCoef>
-5.4800

> <Gold.Chemscore.Hbond>
0.3435

> <Gold.Chemscore.Metal>
0.0000

> <Gold.Chemscore.Lipo>
115.9890

> <Gold.Chemscore.Internal_Hbond>
0.0000

> <Gold.Chemscore.DEClash>
0.4366

> <Gold.Chemscore.DEInternal>
4.8382

> <Gold.Chemscore.Rot>
1.6980

> <Gold.Chemscore.Internal.Correction>
   9.000000E+99

> <Gold.Chemscore.Hbonds>
donor molecule, donor type, donor heavy atom, donor atom, acceptor molecule, acceptor atom, score
      P1  H  7997  8008       L1    27  0.50

> <Gold.Chemscore.Hbond.Weighted>
-1.1474

> <Gold.Chemscore.Metal.Weighted>
-0.0000

> <Gold.Chemscore.Lipo.Weighted>
-13.5707

> <Gold.Chemscore.Internal_Hbond.Weighted>
0.0000

> <Gold.Chemscore.DEClash.Weighted>
0.4366

> <Gold.Chemscore.DEInternal.Weighted>
4.8382

> <Gold.Chemscore.Rot.Weighted>
4.3469

> <Gold.Chemscore.Internal.Correction.Weighted>
   9.000000E+99

> <Gold.Protein.RotatedTorsions>
[ 6907 6896 6895 6894 ] final  -55.11 input  -60.11 | X-H torsion
[ 7974 7965 7964 7962 ] final  -92.90 input  175.53 | X-H torsion
[ 8008 7997 7996 7995 ] final  -78.71 input   59.86 | X-H torsion
[ 10167 10162 10161 10158 ] final   19.02 input  -65.29 | X-H torsion
[ 10718 10713 10712 10709 ] final  142.41 input   66.30 | X-H torsion
[ 10763 10752 10751 10750 ] final  -78.54 input  -60.55 | X-H torsion
[ 11005 11000 10999 10996 ] final  -74.32 input  -57.11 | X-H torsion

> <Gold.Protein.ActiveResidues>
 VAL166  LYS551  ARG553  GLY616  TRP617  ASP618  TYR619  PRO620  LYS621  CYS622 
 ASP623  PHE694  ASN695  SER759  ASP760  ASP761  ALA762  ILE779  LEU786  VAL792 
 PHE793  MET794  SER795  GLU796  ALA797  LYS798  CYS799  TRP800  GLU811  SER814 

> <Gold.Protein.RotatedAtoms>
  150.8279  134.7519  159.6828 H   0  0  0  0  0  0  0  0  0  0  0  0  # atno 6907 bound_to 6896
  152.4388  134.5630  159.9909 H   0  0  0  0  0  0  0  0  0  0  0  0  # atno 6908 bound_to 6896
  151.5798  133.3341  159.3042 H   0  0  0  0  0  0  0  0  0  0  0  0  # atno 6909 bound_to 6896
  145.3937  140.9531  143.2326 H   0  0  0  0  0  0  0  0  0  0  0  0  # atno 7974 bound_to 7965
  154.5715  140.0690  156.8972 H   0  0  0  0  0  0  0  0  0  0  0  0  # atno 8008 bound_to 7997
  155.2625  140.3359  155.4254 H   0  0  0  0  0  0  0  0  0  0  0  0  # atno 8009 bound_to 7997
  156.2122  140.1764  156.7655 H   0  0  0  0  0  0  0  0  0  0  0  0  # atno 8010 bound_to 7997
  140.5610  143.9337  150.6643 H   0  0  0  0  0  0  0  0  0  0  0  0  # atno 10167 bound_to 10162
  157.3808  131.0992  151.0740 H   0  0  0  0  0  0  0  0  0  0  0  0  # atno 10718 bound_to 10713
  154.5272  135.5726  153.6729 H   0  0  0  0  0  0  0  0  0  0  0  0  # atno 10763 bound_to 10752
  152.9931  135.6196  154.2676 H   0  0  0  0  0  0  0  0  0  0  0  0  # atno 10764 bound_to 10752
  154.2601  135.2856  155.2761 H   0  0  0  0  0  0  0  0  0  0  0  0  # atno 10765 bound_to 10752
  141.1633  133.6907  156.7346 H   0  0  0  0  0  0  0  0  0  0  0  0  # atno 11005 bound_to 11000
  144.8422  139.5453  143.6895 LP  0  0  0  0  0  0  0  0  0  0  0  0  # atno 17320 bound_to 7965
  146.2785  139.6816  142.9246 LP  0  0  0  0  0  0  0  0  0  0  0  0  # atno 17321 bound_to 7965
  140.2787  143.3404  152.1171 LP  0  0  0  0  0  0  0  0  0  0  0  0  # atno 17342 bound_to 10162
  139.5070  144.6824  151.5974 LP  0  0  0  0  0  0  0  0  0  0  0  0  # atno 17343 bound_to 10162
  157.1810  130.6309  149.5672 LP  0  0  0  0  0  0  0  0  0  0  0  0  # atno 17370 bound_to 10713
  155.9775  130.4753  150.6599 LP  0  0  0  0  0  0  0  0  0  0  0  0  # atno 17371 bound_to 10713
  140.2719  134.8385  157.3855 LP  0  0  0  0  0  0  0  0  0  0  0  0  # atno 17394 bound_to 11000
  140.1513  134.4846  155.7959 LP  0  0  0  0  0  0  0  0  0  0  0  0  # atno 17395 bound_to 11000

$$$$
