AV-unprocessed.smi:2236|AV-procd|sdf|9045|dock4
  -GOLD-   2272012253D 1   1.00000     0.00000
 Structure written by MMmdl.
 37 38  0  0  0  0  0  0  0  0  1 V2000
  146.4117  141.9982  154.2560 C   0  0  0  0  0  0  0  0  0  0  0  0
  147.5519  141.9087  155.0979 O   0  0  0  0  0  0  0  0  0  0  0  0
  148.4487  140.8815  154.8771 C   0  0  0  0  0  0  0  0  0  0  0  0
  148.1434  139.7234  154.1175 C   0  0  0  0  0  0  0  0  0  0  0  0
  149.1234  138.7301  153.9474 C   0  0  0  0  0  0  0  0  0  0  0  0
  150.3806  138.9280  154.5453 C   0  0  0  0  0  0  0  0  0  0  0  0
  151.4842  137.9014  154.4004 C   0  0  0  0  0  0  0  0  0  0  0  0
  150.6827  140.0246  155.2687 N   0  0  0  0  0  0  0  0  0  0  0  0
  149.7465  140.9909  155.4406 C   0  0  0  0  0  0  0  0  0  0  0  0
  149.9901  142.1772  156.1868 N   0  0  0  0  0  0  0  0  0  0  0  0
  150.9551  142.4118  157.0928 C   0  0  0  0  0  0  0  0  0  0  0  0
  151.8020  141.5960  157.4590 O   0  0  0  0  0  0  0  0  0  0  0  0
  150.8837  143.6686  157.5605 N   0  0  0  0  0  0  0  0  0  0  0  0
  151.7747  144.2796  158.5498 C   0  0  0  0  0  0  0  0  0  0  0  0
  153.0799  144.7197  157.8787 C   0  0  0  0  0  0  0  0  0  0  0  0
  151.0350  145.2816  159.4626 C   0  0  0  0  0  0  0  0  0  0  0  0
  151.7533  144.6449  160.6547 C   0  0  0  0  0  0  0  0  0  0  0  0
  151.8778  143.3820  159.7974 C   0  0  0  0  0  0  0  0  0  0  0  0
  145.8073  142.8530  154.5592 H   0  0  0  0  0  0  0  0  0  0  0  0
  145.7857  141.1084  154.3347 H   0  0  0  0  0  0  0  0  0  0  0  0
  146.6967  142.1496  153.2140 H   0  0  0  0  0  0  0  0  0  0  0  0
  147.1771  139.5760  153.6605 H   0  0  0  0  0  0  0  0  0  0  0  0
  148.9121  137.8413  153.3714 H   0  0  0  0  0  0  0  0  0  0  0  0
  151.1076  136.9766  153.9623 H   0  0  0  0  0  0  0  0  0  0  0  0
  151.9161  137.6640  155.3731 H   0  0  0  0  0  0  0  0  0  0  0  0
  152.2756  138.2868  153.7574 H   0  0  0  0  0  0  0  0  0  0  0  0
  149.3592  142.9412  155.9938 H   0  0  0  0  0  0  0  0  0  0  0  0
  150.1508  144.2601  157.1971 H   0  0  0  0  0  0  0  0  0  0  0  0
  153.7988  145.0937  158.6078 H   0  0  0  0  0  0  0  0  0  0  0  0
  152.9131  145.5183  157.1559 H   0  0  0  0  0  0  0  0  0  0  0  0
  153.5556  143.8918  157.3522 H   0  0  0  0  0  0  0  0  0  0  0  0
  151.2853  146.3287  159.2897 H   0  0  0  0  0  0  0  0  0  0  0  0
  149.9541  145.1311  159.5011 H   0  0  0  0  0  0  0  0  0  0  0  0
  152.7151  145.1111  160.8744 H   0  0  0  0  0  0  0  0  0  0  0  0
  151.1410  144.5322  161.5498 H   0  0  0  0  0  0  0  0  0  0  0  0
  151.0292  142.7072  159.9276 H   0  0  0  0  0  0  0  0  0  0  0  0
  152.8261  142.8548  159.9060 H   0  0  0  0  0  0  0  0  0  0  0  0
  1  2  1  0  0  0  0
  1 19  1  0  0  0  0
  1 20  1  0  0  0  0
  1 21  1  0  0  0  0
  2  3  1  0  0  0  0
  3  9  1  0  0  0  0
  3  4  2  0  0  0  0
  4  5  1  0  0  0  0
  4 22  1  0  0  0  0
  5  6  2  0  0  0  0
  5 23  1  0  0  0  0
  6  7  1  0  0  0  0
  6  8  1  0  0  0  0
  7 24  1  0  0  0  0
  7 25  1  0  0  0  0
  7 26  1  0  0  0  0
  8  9  2  0  0  0  0
  9 10  1  0  0  0  0
 10 11  1  0  0  0  0
 10 27  1  0  0  0  0
 11 12  2  0  0  0  0
 11 13  1  0  0  0  0
 13 14  1  0  0  0  0
 13 28  1  0  0  0  0
 14 18  1  0  0  0  0
 14 15  1  0  0  0  0
 14 16  1  0  0  0  0
 15 29  1  0  0  0  0
 15 30  1  0  0  0  0
 15 31  1  0  0  0  0
 16 17  1  0  0  0  0
 16 32  1  0  0  0  0
 16 33  1  0  0  0  0
 17 18  1  0  0  0  0
 17 34  1  0  0  0  0
 17 35  1  0  0  0  0
 18 36  1  0  0  0  0
 18 37  1  0  0  0  0
M  END
> <s_m_source_file>
AV-unprocessed.smi

> <i_m_source_file_index>
2236

> <i_lp_mmshare_version>
43012

> <i_f3d_flags>
0

> <s_epik_input>
W0NIM11PYzFbY0hdW2NIXWMoW0NIM10pbmMxW05IXUMoPU8pW05IXUMyKFtDSDNdKVtDSDJdW0NIMl1bQ0gyXTI=

> <s_epik_cmdline>
J2VwaWtfcHl0aG9uJywgJy1waCcsICc3LjAnLCAnLXRuJywgJzgnLCAnLW1hJywgJzIwMCcsICctbWV0YWxfYmluZGluZycsICctaW1hZScsICc8aW5maWxlLm1hZT4nLCAnLW9tYWUnLCAnPG91dGZpbGUubWFlPic=

> <r_lp_tautomer_probability>
1

> <r_epik_Ionization_Penalty>
6.75542e-05

> <r_epik_Ionization_Penalty_Charging>
0

> <r_epik_Ionization_Penalty_Neutral>
6.75542e-05

> <r_epik_State_Penalty>
-0

> <r_epik_Charging_Adjusted_Penalty>
0

> <i_epik_Tot_Q>
0

> <i_epik_Tot_abs_Q>
0

> <r_epik_Metal_State_Penalty>
-0

> <b_epik_Metal_Only>
0

> <s_lp_Force_Field>
OPLS_2005

> <r_lp_Energy>
20.3098

> <b_lp_Chiralities_Consistent>
1

> <s_lp_Variant>
AV-unprocessed.smi:2236-1

> <Gold.Version>
5.8.1

> <Gold.Id.Protein>
6NUR|6NUR_protein|mol2

> <Gold.PLP.Fitness>
47.1552

> <Gold.PLP.PLP>
-41.4286

> <Gold.PLP.part.hbond>
-2.7898

> <Gold.PLP.part.metal>
0.0000

> <Gold.PLP.part.buried>
-3.8753

> <Gold.PLP.part.nonpolar>
-36.1750

> <Gold.PLP.part.repulsive>
0.7524

> <Gold.PLP.ligand.clash>
0.0000

> <Gold.PLP.ligand.torsion>
0.6596

> <Gold.PLP.Chemscore.Hbond>
2.2496

> <Gold.PLP.Chemscore.CHOScore>
0.0000

> <Gold.PLP.Chemscore.Metal>
0.0000

> <Gold.Chemscore.Hbonds>
donor molecule, donor type, donor heavy atom, donor atom, acceptor molecule, acceptor atom, score
      L1  H    10    27       P1  8028  1.00
      L1  H    13    28       P1  8028  0.99
      P1  H  7989  7998       L1     8  0.24

> <Gold.PLP.Chemscore.Internal.Correction>
0.2970

> <Gold.Rescore>
     Score         DG    S(hbond)    S(metal)    S(lipo)     H(rot)  DE(clash)    DE(int)     intcor
     17.23     -20.04       1.75        0.00     100.94       1.21       0.15       2.66       ----

> <Gold.Chemscore.Fitness>
17.2295

> <Gold.Chemscore.DG>
-20.0386

> <Gold.Chemscore.ZeroCoef>
-5.4800

> <Gold.Chemscore.Hbond>
1.7506

> <Gold.Chemscore.Metal>
0.0000

> <Gold.Chemscore.Lipo>
100.9411

> <Gold.Chemscore.Internal_Hbond>
0.0000

> <Gold.Chemscore.DEClash>
0.1513

> <Gold.Chemscore.DEInternal>
2.6579

> <Gold.Chemscore.Rot>
1.2103

> <Gold.Chemscore.Internal.Correction>
   9.000000E+99

> <Gold.Chemscore.Hbonds>
donor molecule, donor type, donor heavy atom, donor atom, acceptor molecule, acceptor atom, score
      L1  H    10    27       P1  8028  0.98
      L1  H    13    28       P1  8028  0.66

> <Gold.Chemscore.Hbond.Weighted>
-5.8469

> <Gold.Chemscore.Metal.Weighted>
-0.0000

> <Gold.Chemscore.Lipo.Weighted>
-11.8101

> <Gold.Chemscore.Internal_Hbond.Weighted>
0.0000

> <Gold.Chemscore.DEClash.Weighted>
0.1513

> <Gold.Chemscore.DEInternal.Weighted>
2.6579

> <Gold.Chemscore.Rot.Weighted>
3.0984

> <Gold.Chemscore.Internal.Correction.Weighted>
   9.000000E+99

> <Gold.Protein.RotatedTorsions>
[ 6907 6896 6895 6894 ] final   42.45 input  -60.11 | X-H torsion
[ 7974 7965 7964 7962 ] final -128.50 input  175.53 | X-H torsion
[ 8008 7997 7996 7995 ] final  -82.30 input   59.86 | X-H torsion
[ 10167 10162 10161 10158 ] final  161.96 input  -65.29 | X-H torsion
[ 10718 10713 10712 10709 ] final -168.88 input   66.30 | X-H torsion
[ 10763 10752 10751 10750 ] final  -55.40 input  -60.55 | X-H torsion
[ 11005 11000 10999 10996 ] final    5.78 input  -57.11 | X-H torsion

> <Gold.Protein.ActiveResidues>
 VAL166  LYS551  ARG553  GLY616  TRP617  ASP618  TYR619  PRO620  LYS621  CYS622 
 ASP623  PHE694  ASN695  SER759  ASP760  ASP761  ALA762  ILE779  LEU786  VAL792 
 PHE793  MET794  SER795  GLU796  ALA797  LYS798  CYS799  TRP800  GLU811  SER814 

> <Gold.Protein.RotatedAtoms>
  152.2080  134.8528  160.0500 H   0  0  0  0  0  0  0  0  0  0  0  0  # atno 6907 bound_to 6896
  151.9357  133.3618  159.3955 H   0  0  0  0  0  0  0  0  0  0  0  0  # atno 6908 bound_to 6896
  150.6969  134.4416  159.5339 H   0  0  0  0  0  0  0  0  0  0  0  0  # atno 6909 bound_to 6896
  144.9665  140.7501  143.4697 H   0  0  0  0  0  0  0  0  0  0  0  0  # atno 7974 bound_to 7965
  154.6072  140.0635  156.9446 H   0  0  0  0  0  0  0  0  0  0  0  0  # atno 8008 bound_to 7997
  155.2033  140.3317  155.4321 H   0  0  0  0  0  0  0  0  0  0  0  0  # atno 8009 bound_to 7997
  156.2355  140.1861  156.7115 H   0  0  0  0  0  0  0  0  0  0  0  0  # atno 8010 bound_to 7997
  139.4855  144.4485  151.8861 H   0  0  0  0  0  0  0  0  0  0  0  0  # atno 10167 bound_to 10162
  156.7034  130.9205  151.3082 H   0  0  0  0  0  0  0  0  0  0  0  0  # atno 10718 bound_to 10713
  154.1902  135.6428  153.5058 H   0  0  0  0  0  0  0  0  0  0  0  0  # atno 10763 bound_to 10752
  153.0037  135.5427  154.6423 H   0  0  0  0  0  0  0  0  0  0  0  0  # atno 10764 bound_to 10752
  154.5810  135.2925  155.0706 H   0  0  0  0  0  0  0  0  0  0  0  0  # atno 10765 bound_to 10752
  140.5669  134.0139  155.7993 H   0  0  0  0  0  0  0  0  0  0  0  0  # atno 11005 bound_to 11000
  145.2622  139.1987  143.4886 LP  0  0  0  0  0  0  0  0  0  0  0  0  # atno 17320 bound_to 7965
  146.3369  140.2554  142.8600 LP  0  0  0  0  0  0  0  0  0  0  0  0  # atno 17321 bound_to 7965
  140.3940  144.2579  150.5897 LP  0  0  0  0  0  0  0  0  0  0  0  0  # atno 17342 bound_to 10162
  140.5119  143.2288  151.8522 LP  0  0  0  0  0  0  0  0  0  0  0  0  # atno 17343 bound_to 10162
  157.6964  130.9286  150.0657 LP  0  0  0  0  0  0  0  0  0  0  0  0  # atno 17370 bound_to 10713
  156.1712  130.3646  149.9162 LP  0  0  0  0  0  0  0  0  0  0  0  0  # atno 17371 bound_to 10713
  141.1080  133.9662  157.2961 LP  0  0  0  0  0  0  0  0  0  0  0  0  # atno 17394 bound_to 11000
  139.9381  135.0194  156.8620 LP  0  0  0  0  0  0  0  0  0  0  0  0  # atno 17395 bound_to 11000

$$$$
