AV-unprocessed.smi:1788|AV-procd|sdf|7213|dock1
  -GOLD-   22720 8453D 1   1.00000     0.00000
 Structure written by MMmdl.
 55 57  0  0  0  0  0  0  0  0  2 V2000
  146.0565  132.7631  154.3193 C   0  0  0  0  0  0  0  0  0  0  0  0
  146.2441  133.7664  153.1727 C   0  0  1  0  0  0  0  0  0  0  0  0
  145.4714  133.3323  151.9160 C   0  0  0  0  0  0  0  0  0  0  0  0
  145.6551  134.3642  150.7964 C   0  0  0  0  0  0  0  0  0  0  0  0
  145.2542  135.7696  151.2723 C   0  0  0  0  0  0  0  0  0  0  0  0
  146.0188  136.1635  152.4841 N   0  3  1  0  0  0  0  0  0  0  0  0
  145.7481  137.5669  152.8865 C   0  0  0  0  0  0  0  0  0  0  0  0
  146.3989  138.5879  151.9323 C   0  0  0  0  0  0  0  0  0  0  0  0
  147.6645  139.0862  152.4586 N   0  0  0  0  0  0  0  0  0  0  0  0
  147.8456  139.5579  153.7005 C   0  0  0  0  0  0  0  0  0  0  0  0
  146.9384  139.6381  154.5277 O   0  0  0  0  0  0  0  0  0  0  0  0
  149.1226  139.9298  153.8962 N   0  0  0  0  0  0  0  0  0  0  0  0
  149.7402  140.4631  155.0616 C   0  0  0  0  0  0  0  0  0  0  0  0
  149.1405  141.3891  155.9473 C   0  0  0  0  0  0  0  0  0  0  0  0
  149.8653  141.8254  157.0730 C   0  0  0  0  0  0  0  0  0  0  0  0
  151.1699  141.3259  157.2962 C   0  0  0  0  0  0  0  0  0  0  0  0
  151.9139  141.7501  158.4192 N   0  0  0  0  0  0  0  0  0  0  0  0
  152.3550  140.7344  159.3739 C   0  0  0  0  0  0  0  0  0  0  0  0
  153.3862  141.3265  160.3495 C   0  0  0  0  0  0  0  0  0  0  0  0
  152.8384  142.4760  160.9859 O   0  0  0  0  0  0  0  0  0  0  0  0
  152.5184  143.4976  160.0477 C   0  0  0  0  0  0  0  0  0  0  0  0
  151.4597  142.9842  159.0562 C   0  0  0  0  0  0  0  0  0  0  0  0
  151.7409  140.4390  156.4449 N   0  0  0  0  0  0  0  0  0  0  0  0
  151.0429  140.0223  155.3686 C   0  0  0  0  0  0  0  0  0  0  0  0
  145.8235  135.1894  153.5920 C   0  0  0  0  0  0  0  0  0  0  0  0
  145.0104  132.6943  154.6188 H   0  0  0  0  0  0  0  0  0  0  0  0
  146.6354  133.0547  155.1962 H   0  0  0  0  0  0  0  0  0  0  0  0
  146.3849  131.7657  154.0258 H   0  0  0  0  0  0  0  0  0  0  0  0
  147.3070  133.7879  152.9262 H   0  0  0  0  0  0  0  0  0  0  0  0
  145.8148  132.3537  151.5786 H   0  0  0  0  0  0  0  0  0  0  0  0
  144.4105  133.2280  152.1480 H   0  0  0  0  0  0  0  0  0  0  0  0
  146.6959  134.3701  150.4697 H   0  0  0  0  0  0  0  0  0  0  0  0
  145.0599  134.0805  149.9278 H   0  0  0  0  0  0  0  0  0  0  0  0
  145.4399  136.4833  150.4687 H   0  0  0  0  0  0  0  0  0  0  0  0
  144.1850  135.8043  151.4878 H   0  0  0  0  0  0  0  0  0  0  0  0
  144.6714  137.7426  152.8799 H   0  0  0  0  0  0  0  0  0  0  0  0
  146.0771  137.7199  153.9155 H   0  0  0  0  0  0  0  0  0  0  0  0
  146.5706  138.1628  150.9430 H   0  0  0  0  0  0  0  0  0  0  0  0
  145.7332  139.4397  151.7911 H   0  0  0  0  0  0  0  0  0  0  0  0
  148.4621  139.0542  151.8402 H   0  0  0  0  0  0  0  0  0  0  0  0
  149.7334  139.8373  153.0977 H   0  0  0  0  0  0  0  0  0  0  0  0
  148.1444  141.7737  155.7994 H   0  0  0  0  0  0  0  0  0  0  0  0
  149.4162  142.5453  157.7408 H   0  0  0  0  0  0  0  0  0  0  0  0
  151.4919  140.3593  159.9256 H   0  0  0  0  0  0  0  0  0  0  0  0
  152.8008  139.8885  158.8489 H   0  0  0  0  0  0  0  0  0  0  0  0
  153.6487  140.5908  161.1098 H   0  0  0  0  0  0  0  0  0  0  0  0
  154.3085  141.5896  159.8289 H   0  0  0  0  0  0  0  0  0  0  0  0
  152.1380  144.3660  160.5858 H   0  0  0  0  0  0  0  0  0  0  0  0
  153.4193  143.8188  159.5222 H   0  0  0  0  0  0  0  0  0  0  0  0
  151.2530  143.7657  158.3269 H   0  0  0  0  0  0  0  0  0  0  0  0
  150.5243  142.7843  159.5804 H   0  0  0  0  0  0  0  0  0  0  0  0
  151.5459  139.3114  154.7293 H   0  0  0  0  0  0  0  0  0  0  0  0
  144.7771  135.1976  153.9023 H   0  0  0  0  0  0  0  0  0  0  0  0
  146.4089  135.4874  154.4609 H   0  0  0  0  0  0  0  0  0  0  0  0
  146.9943  136.1239  152.2247 H   0  0  0  0  0  0  0  0  0  0  0  0
  1  2  1  0  0  0  0
  1 26  1  0  0  0  0
  1 27  1  0  0  0  0
  1 28  1  0  0  0  0
  2 25  1  0  0  0  0
  2  3  1  0  0  0  0
  2 29  1  0  0  0  0
  3  4  1  0  0  0  0
  3 30  1  0  0  0  0
  3 31  1  0  0  0  0
  4  5  1  0  0  0  0
  4 32  1  0  0  0  0
  4 33  1  0  0  0  0
  5  6  1  0  0  0  0
  5 34  1  0  0  0  0
  5 35  1  0  0  0  0
  6  7  1  0  0  0  0
  6 25  1  0  0  0  0
  6 55  1  0  0  0  0
  7  8  1  0  0  0  0
  7 36  1  0  0  0  0
  7 37  1  0  0  0  0
  8  9  1  0  0  0  0
  8 38  1  0  0  0  0
  8 39  1  0  0  0  0
  9 10  1  0  0  0  0
  9 40  1  0  0  0  0
 10 11  2  0  0  0  0
 10 12  1  0  0  0  0
 12 13  1  0  0  0  0
 12 41  1  0  0  0  0
 13 24  1  0  0  0  0
 13 14  2  0  0  0  0
 14 15  1  0  0  0  0
 14 42  1  0  0  0  0
 15 16  2  0  0  0  0
 15 43  1  0  0  0  0
 16 17  1  0  0  0  0
 16 23  1  0  0  0  0
 17 22  1  0  0  0  0
 17 18  1  0  0  0  0
 18 19  1  0  0  0  0
 18 44  1  0  0  0  0
 18 45  1  0  0  0  0
 19 20  1  0  0  0  0
 19 46  1  0  0  0  0
 19 47  1  0  0  0  0
 20 21  1  0  0  0  0
 21 22  1  0  0  0  0
 21 48  1  0  0  0  0
 21 49  1  0  0  0  0
 22 50  1  0  0  0  0
 22 51  1  0  0  0  0
 23 24  2  0  0  0  0
 24 52  1  0  0  0  0
 25 53  1  0  0  0  0
 25 54  1  0  0  0  0
M  CHG  1   6   1
M  END
> <s_m_source_file>
AV-unprocessed.smi

> <i_m_source_file_index>
1788

> <i_lp_mmshare_version>
43012

> <i_f3d_flags>
0

> <s_epik_input>
W0NIM11bQ0BASF0xW0NIMl1bQ0gyXVtDSDJdTihbQ0gyXTEpW0NIMl1bQ0gyXVtOSF1DKD1PKVtOSF1jMltjSF1bY0hdYyhuW2NIXTIpTjNbQ0gyXVtDSDJdT1tDSDJdW0NIMl0z

> <s_epik_cmdline>
J2VwaWtfcHl0aG9uJywgJy1waCcsICc3LjAnLCAnLXRuJywgJzgnLCAnLW1hJywgJzIwMCcsICctbWV0YWxfYmluZGluZycsICctaW1hZScsICc8aW5maWxlLm1hZT4nLCAnLW9tYWUnLCAnPG91dGZpbGUubWFlPic=

> <r_lp_tautomer_probability>
1

> <r_epik_Ionization_Penalty>
0.00340126

> <r_epik_Ionization_Penalty_Charging>
0.00171832

> <r_epik_Ionization_Penalty_Neutral>
0.00168294

> <r_epik_State_Penalty>
-0

> <r_epik_Charging_Adjusted_Penalty>
0.00171832

> <i_epik_Tot_Q>
1

> <i_epik_Tot_abs_Q>
1

> <r_epik_Metal_State_Penalty>
-0

> <b_epik_Metal_Only>
0

> <s_lp_Force_Field>
OPLS_2005

> <r_lp_Energy>
34.4498

> <b_lp_Chiralities_Consistent>
1

> <s_lp_Variant>
AV-unprocessed.smi:1788-4

> <Gold.Version>
5.8.1

> <Gold.Id.Protein>
6NUR|6NUR_protein|mol2

> <Gold.PLP.Fitness>
53.6783

> <Gold.PLP.PLP>
-44.2978

> <Gold.PLP.part.hbond>
-3.4739

> <Gold.PLP.part.metal>
0.0000

> <Gold.PLP.part.buried>
-5.9485

> <Gold.PLP.part.nonpolar>
-35.5494

> <Gold.PLP.part.repulsive>
0.3470

> <Gold.PLP.ligand.clash>
0.0000

> <Gold.PLP.ligand.torsion>
0.9983

> <Gold.PLP.Chemscore.Hbond>
3.6480

> <Gold.PLP.Chemscore.CHOScore>
0.0000

> <Gold.PLP.Chemscore.Metal>
0.0000

> <Gold.Chemscore.Hbonds>
donor molecule, donor type, donor heavy atom, donor atom, acceptor molecule, acceptor atom, score
      L1  H     6    55       P1  7948  2.00
      L1  H     9    40       P1  7957  0.85
      L1  H    12    41       P1  7957  0.77

> <Gold.PLP.Chemscore.Internal.Correction>
0.4332

> <Gold.Rescore>
     Score         DG    S(hbond)    S(metal)    S(lipo)     H(rot)  DE(clash)    DE(int)     intcor
     19.11     -22.72       2.66        0.00     106.32       1.60       1.47       2.14       ----

> <Gold.Chemscore.Fitness>
19.1107

> <Gold.Chemscore.DG>
-22.7227

> <Gold.Chemscore.ZeroCoef>
-5.4800

> <Gold.Chemscore.Hbond>
2.6627

> <Gold.Chemscore.Metal>
0.0000

> <Gold.Chemscore.Lipo>
106.3184

> <Gold.Chemscore.Internal_Hbond>
0.0000

> <Gold.Chemscore.DEClash>
1.4750

> <Gold.Chemscore.DEInternal>
2.1370

> <Gold.Chemscore.Rot>
1.5976

> <Gold.Chemscore.Internal.Correction>
   9.000000E+99

> <Gold.Chemscore.Hbonds>
donor molecule, donor type, donor heavy atom, donor atom, acceptor molecule, acceptor atom, score
      L1  H     6    55       P1  7948  0.98
      L1  H     9    40       P1  7957  0.78
      L1  H    12    41       P1  7957  0.75

> <Gold.Chemscore.Hbond.Weighted>
-8.8933

> <Gold.Chemscore.Metal.Weighted>
-0.0000

> <Gold.Chemscore.Lipo.Weighted>
-12.4393

> <Gold.Chemscore.Internal_Hbond.Weighted>
0.0000

> <Gold.Chemscore.DEClash.Weighted>
1.4750

> <Gold.Chemscore.DEInternal.Weighted>
2.1370

> <Gold.Chemscore.Rot.Weighted>
4.0899

> <Gold.Chemscore.Internal.Correction.Weighted>
   9.000000E+99

> <Gold.Protein.RotatedTorsions>
[ 6907 6896 6895 6894 ] final -100.63 input  -60.11 | X-H torsion
[ 7974 7965 7964 7962 ] final  -59.68 input  175.53 | X-H torsion
[ 8008 7997 7996 7995 ] final  150.57 input   59.86 | X-H torsion
[ 10167 10162 10161 10158 ] final  165.52 input  -65.29 | X-H torsion
[ 10718 10713 10712 10709 ] final -137.38 input   66.30 | X-H torsion
[ 10763 10752 10751 10750 ] final -162.82 input  -60.55 | X-H torsion
[ 11005 11000 10999 10996 ] final  -58.06 input  -57.11 | X-H torsion

> <Gold.Protein.ActiveResidues>
 VAL166  LYS551  ARG553  GLY616  TRP617  ASP618  TYR619  PRO620  LYS621  CYS622 
 ASP623  PHE694  ASN695  SER759  ASP760  ASP761  ALA762  ILE779  LEU786  VAL792 
 PHE793  MET794  SER795  GLU796  ALA797  LYS798  CYS799  TRP800  GLU811  SER814 

> <Gold.Protein.RotatedAtoms>
  150.7123  134.0858  159.3913 H   0  0  0  0  0  0  0  0  0  0  0  0  # atno 6907 bound_to 6896
  151.8843  135.0439  160.0501 H   0  0  0  0  0  0  0  0  0  0  0  0  # atno 6908 bound_to 6896
  152.2543  133.5206  159.5380 H   0  0  0  0  0  0  0  0  0  0  0  0  # atno 6909 bound_to 6896
  145.8246  140.8518  143.0115 H   0  0  0  0  0  0  0  0  0  0  0  0  # atno 7974 bound_to 7965
  156.2710  140.2071  156.6038 H   0  0  0  0  0  0  0  0  0  0  0  0  # atno 8008 bound_to 7997
  154.6886  140.0532  157.0363 H   0  0  0  0  0  0  0  0  0  0  0  0  # atno 8009 bound_to 7997
  155.0899  140.3195  155.4580 H   0  0  0  0  0  0  0  0  0  0  0  0  # atno 8010 bound_to 7997
  139.4907  144.4123  151.9284 H   0  0  0  0  0  0  0  0  0  0  0  0  # atno 10167 bound_to 10162
  156.2874  130.7356  151.1371 H   0  0  0  0  0  0  0  0  0  0  0  0  # atno 10718 bound_to 10713
  154.7180  135.3019  154.9093 H   0  0  0  0  0  0  0  0  0  0  0  0  # atno 10763 bound_to 10752
  153.9974  135.6711  153.4761 H   0  0  0  0  0  0  0  0  0  0  0  0  # atno 10764 bound_to 10752
  153.0809  135.5009  154.8417 H   0  0  0  0  0  0  0  0  0  0  0  0  # atno 10765 bound_to 10752
  141.1191  133.6611  156.4863 H   0  0  0  0  0  0  0  0  0  0  0  0  # atno 11005 bound_to 11000
  144.6744  140.0583  143.7477 LP  0  0  0  0  0  0  0  0  0  0  0  0  # atno 17320 bound_to 7965
  145.9637  139.2819  143.1140 LP  0  0  0  0  0  0  0  0  0  0  0  0  # atno 17321 bound_to 7965
  140.3565  144.3025  150.5940 LP  0  0  0  0  0  0  0  0  0  0  0  0  # atno 17342 bound_to 10162
  140.5440  143.2218  151.8038 LP  0  0  0  0  0  0  0  0  0  0  0  0  # atno 17343 bound_to 10162
  157.7332  131.0592  150.5586 LP  0  0  0  0  0  0  0  0  0  0  0  0  # atno 17370 bound_to 10713
  156.5698  130.4277  149.6024 LP  0  0  0  0  0  0  0  0  0  0  0  0  # atno 17371 bound_to 10713
  140.4560  134.6885  157.5062 LP  0  0  0  0  0  0  0  0  0  0  0  0  # atno 17394 bound_to 11000
  140.0135  134.6655  155.9345 LP  0  0  0  0  0  0  0  0  0  0  0  0  # atno 17395 bound_to 11000

$$$$
