AV-unprocessed.smi:1295|AV-procd|sdf|5409|dock9
  -GOLD-   22720 4563D 1   1.00000     0.00000
 Structure written by MMmdl.
 42 43  0  0  0  0  0  0  0  0  2 V2000
  149.8814  134.5054  155.0861 C   0  0  0  0  0  0  0  0  0  0  0  0
  150.3298  135.4529  156.1779 C   0  0  0  0  0  0  0  0  0  0  0  0
  149.4699  135.8958  157.0138 N   0  0  0  0  0  0  0  0  0  0  0  0
  149.8830  136.7721  158.0317 C   0  0  0  0  0  0  0  0  0  0  0  0
  148.7950  137.2487  158.9786 C   0  0  0  0  0  0  0  0  0  0  0  0
  151.1864  137.1575  158.1453 C   0  0  0  0  0  0  0  0  0  0  0  0
  151.6837  138.1069  159.2347 C   0  0  0  0  0  0  0  0  0  0  0  0
  152.3574  139.3881  158.7390 C   0  0  0  0  0  0  0  0  0  0  0  0
  153.4350  139.3344  158.1465 O   0  0  0  0  0  0  0  0  0  0  0  0
  151.7076  140.5343  158.9946 N   0  0  0  0  0  0  0  0  0  0  0  0
  152.1726  141.8794  158.6606 C   0  0  2  0  0  0  0  0  0  0  0  0
  152.4254  142.6486  159.9722 C   0  0  0  0  0  0  0  0  0  0  0  0
  152.8534  144.0995  159.7100 C   0  0  0  0  0  0  0  0  0  0  0  0
  151.8206  144.8277  158.8399 C   0  0  0  0  0  0  0  0  0  0  0  0
  151.5849  144.0754  157.5220 C   0  0  0  0  0  0  0  0  0  0  0  0
  151.1463  142.6162  157.7612 C   0  0  1  0  0  0  0  0  0  0  0  0
  150.9094  141.9016  156.4186 C   0  0  0  0  0  0  0  0  0  0  0  0
  152.1463  136.6228  157.1629 C   0  0  0  0  0  0  0  0  0  0  0  0
  153.3362  136.9293  157.2254 O   0  0  0  0  0  0  0  0  0  0  0  0
  151.6656  135.7854  156.2000 N   0  5  0  0  0  0  0  0  0  0  0  0
  148.8646  134.1532  155.2645 H   0  0  0  0  0  0  0  0  0  0  0  0
  150.5391  133.6367  155.0420 H   0  0  0  0  0  0  0  0  0  0  0  0
  149.9066  135.0082  154.1192 H   0  0  0  0  0  0  0  0  0  0  0  0
  148.6805  138.3310  158.9160 H   0  0  0  0  0  0  0  0  0  0  0  0
  149.0370  136.9829  160.0078 H   0  0  0  0  0  0  0  0  0  0  0  0
  147.8333  136.7955  158.7348 H   0  0  0  0  0  0  0  0  0  0  0  0
  150.8725  138.3891  159.9063 H   0  0  0  0  0  0  0  0  0  0  0  0
  152.3845  137.5600  159.8663 H   0  0  0  0  0  0  0  0  0  0  0  0
  150.8261  140.4714  159.4828 H   0  0  0  0  0  0  0  0  0  0  0  0
  153.1213  141.8250  158.1231 H   0  0  0  0  0  0  0  0  0  0  0  0
  151.5211  142.6463  160.5828 H   0  0  0  0  0  0  0  0  0  0  0  0
  153.1936  142.1419  160.5581 H   0  0  0  0  0  0  0  0  0  0  0  0
  152.9809  144.6264  160.6560 H   0  0  0  0  0  0  0  0  0  0  0  0
  153.8249  144.1116  159.2141 H   0  0  0  0  0  0  0  0  0  0  0  0
  150.8796  144.9192  159.3841 H   0  0  0  0  0  0  0  0  0  0  0  0
  152.1588  145.8433  158.6328 H   0  0  0  0  0  0  0  0  0  0  0  0
  150.8297  144.6002  156.9360 H   0  0  0  0  0  0  0  0  0  0  0  0
  152.4999  144.0912  156.9281 H   0  0  0  0  0  0  0  0  0  0  0  0
  150.1919  142.6431  158.2893 H   0  0  0  0  0  0  0  0  0  0  0  0
  151.8386  141.7972  155.8579 H   0  0  0  0  0  0  0  0  0  0  0  0
  150.2071  142.4574  155.7969 H   0  0  0  0  0  0  0  0  0  0  0  0
  150.4925  140.9044  156.5601 H   0  0  0  0  0  0  0  0  0  0  0  0
  1  2  1  0  0  0  0
  1 21  1  0  0  0  0
  1 22  1  0  0  0  0
  1 23  1  0  0  0  0
  2 20  1  0  0  0  0
  2  3  2  0  0  0  0
  3  4  1  0  0  0  0
  4  5  1  0  0  0  0
  4  6  2  0  0  0  0
  5 24  1  0  0  0  0
  5 25  1  0  0  0  0
  5 26  1  0  0  0  0
  6  7  1  0  0  0  0
  6 18  1  0  0  0  0
  7  8  1  0  0  0  0
  7 27  1  0  0  0  0
  7 28  1  0  0  0  0
  8  9  2  0  0  0  0
  8 10  1  0  0  0  0
 10 11  1  0  0  0  0
 10 29  1  0  0  0  0
 11 16  1  0  0  0  0
 11 12  1  0  0  0  0
 11 30  1  0  0  0  0
 12 13  1  0  0  0  0
 12 31  1  0  0  0  0
 12 32  1  0  0  0  0
 13 14  1  0  0  0  0
 13 33  1  0  0  0  0
 13 34  1  0  0  0  0
 14 15  1  0  0  0  0
 14 35  1  0  0  0  0
 14 36  1  0  0  0  0
 15 16  1  0  0  0  0
 15 37  1  0  0  0  0
 15 38  1  0  0  0  0
 16 17  1  0  0  0  0
 16 39  1  0  0  0  0
 17 40  1  0  0  0  0
 17 41  1  0  0  0  0
 17 42  1  0  0  0  0
 18 19  2  0  0  0  0
 18 20  1  0  0  0  0
M  CHG  1  20  -1
M  END
> <s_m_source_file>
AV-unprocessed.smi

> <i_m_source_file_index>
1295

> <i_lp_mmshare_version>
43012

> <i_f3d_flags>
0

> <s_epik_input>
W0NIM11jMW5jKFtDSDNdKWMoYyg9TylbbkhdMSlbQ0gyXUMoPU8pW05IXVtDQEBIXTJbQ0gyXVtDSDJdW0NIMl1bQ0gyXVtDQEhdMltDSDNd

> <s_epik_cmdline>
J2VwaWtfcHl0aG9uJywgJy1waCcsICc3LjAnLCAnLXRuJywgJzgnLCAnLW1hJywgJzIwMCcsICctbWV0YWxfYmluZGluZycsICctaW1hZScsICc8aW5maWxlLm1hZT4nLCAnLW9tYWUnLCAnPG91dGZpbGUubWFlPic=

> <r_lp_tautomer_probability>
0.839158

> <r_epik_Ionization_Penalty>
6.67742

> <r_epik_Ionization_Penalty_Charging>
7.78154e-08

> <r_epik_Ionization_Penalty_Neutral>
6.67742

> <r_epik_State_Penalty>
4.51991

> <r_epik_Charging_Adjusted_Penalty>
4.51991

> <i_epik_Tot_Q>
-1

> <i_epik_Tot_abs_Q>
1

> <r_epik_Metal_State_Penalty>
0.853272

> <b_epik_Metal_Only>
1

> <s_lp_Force_Field>
OPLS_2005

> <r_lp_Energy>
15.3241

> <b_lp_Chiralities_Consistent>
1

> <s_lp_Variant>
AV-unprocessed.smi:1295-9

> <Gold.Version>
5.8.1

> <Gold.Id.Protein>
6NUR|6NUR_protein|mol2

> <Gold.PLP.Fitness>
45.7525

> <Gold.PLP.PLP>
-36.8748

> <Gold.PLP.part.hbond>
-2.0000

> <Gold.PLP.part.metal>
0.0000

> <Gold.PLP.part.buried>
-5.5241

> <Gold.PLP.part.nonpolar>
-29.3157

> <Gold.PLP.part.repulsive>
0.1716

> <Gold.PLP.ligand.clash>
0.0000

> <Gold.PLP.ligand.torsion>
0.0638

> <Gold.PLP.Chemscore.Hbond>
3.0000

> <Gold.PLP.Chemscore.CHOScore>
0.0000

> <Gold.PLP.Chemscore.Metal>
0.0000

> <Gold.Chemscore.Hbonds>
donor molecule, donor type, donor heavy atom, donor atom, acceptor molecule, acceptor atom, score
      P1  H  7997  8010       L1     9  1.00
      P1  H 10752 10765       L1    20  2.00

> <Gold.PLP.Chemscore.Internal.Correction>
0.0052

> <Gold.Rescore>
     Score         DG    S(hbond)    S(metal)    S(lipo)     H(rot)  DE(clash)    DE(int)     intcor
     17.65     -19.30       1.91        0.00      95.09       1.45       0.00       1.64       ----

> <Gold.Chemscore.Fitness>
17.6549

> <Gold.Chemscore.DG>
-19.2987

> <Gold.Chemscore.ZeroCoef>
-5.4800

> <Gold.Chemscore.Hbond>
1.9138

> <Gold.Chemscore.Metal>
0.0000

> <Gold.Chemscore.Lipo>
95.0918

> <Gold.Chemscore.Internal_Hbond>
0.0000

> <Gold.Chemscore.DEClash>
0.0004

> <Gold.Chemscore.DEInternal>
1.6434

> <Gold.Chemscore.Rot>
1.4450

> <Gold.Chemscore.Internal.Correction>
   9.000000E+99

> <Gold.Chemscore.Hbonds>
donor molecule, donor type, donor heavy atom, donor atom, acceptor molecule, acceptor atom, score
      P1  H  7997  8010       L1     9  1.00
      P1  H 10752 10765       L1    20  0.50

> <Gold.Chemscore.Hbond.Weighted>
-6.3922

> <Gold.Chemscore.Metal.Weighted>
-0.0000

> <Gold.Chemscore.Lipo.Weighted>
-11.1257

> <Gold.Chemscore.Internal_Hbond.Weighted>
0.0000

> <Gold.Chemscore.DEClash.Weighted>
0.0004

> <Gold.Chemscore.DEInternal.Weighted>
1.6434

> <Gold.Chemscore.Rot.Weighted>
3.6992

> <Gold.Chemscore.Internal.Correction.Weighted>
   9.000000E+99

> <Gold.Protein.RotatedTorsions>
[ 6907 6896 6895 6894 ] final -125.33 input  -60.11 | X-H torsion
[ 7974 7965 7964 7962 ] final  162.86 input  175.53 | X-H torsion
[ 8008 7997 7996 7995 ] final   21.85 input   59.86 | X-H torsion
[ 10167 10162 10161 10158 ] final   44.06 input  -65.29 | X-H torsion
[ 10718 10713 10712 10709 ] final -133.11 input   66.30 | X-H torsion
[ 10763 10752 10751 10750 ] final -151.62 input  -60.55 | X-H torsion
[ 11005 11000 10999 10996 ] final  -70.40 input  -57.11 | X-H torsion

> <Gold.Protein.ActiveResidues>
 VAL166  LYS551  ARG553  GLY616  TRP617  ASP618  TYR619  PRO620  LYS621  CYS622 
 ASP623  PHE694  ASN695  SER759  ASP760  ASP761  ALA762  ILE779  LEU786  VAL792 
 PHE793  MET794  SER795  GLU796  ALA797  LYS798  CYS799  TRP800  GLU811  SER814 

> <Gold.Protein.RotatedAtoms>
  150.8856  133.7312  159.2918 H   0  0  0  0  0  0  0  0  0  0  0  0  # atno 6907 bound_to 6896
  151.4878  135.1054  159.9805 H   0  0  0  0  0  0  0  0  0  0  0  0  # atno 6908 bound_to 6896
  152.4788  133.8157  159.7082 H   0  0  0  0  0  0  0  0  0  0  0  0  # atno 6909 bound_to 6896
  144.7617  139.8100  143.6330 H   0  0  0  0  0  0  0  0  0  0  0  0  # atno 7974 bound_to 7965
  154.9568  140.3073  155.5049 H   0  0  0  0  0  0  0  0  0  0  0  0  # atno 8008 bound_to 7997
  156.2981  140.2308  156.4588 H   0  0  0  0  0  0  0  0  0  0  0  0  # atno 8009 bound_to 7997
  154.8002  140.0434  157.1256 H   0  0  0  0  0  0  0  0  0  0  0  0  # atno 8010 bound_to 7997
  140.3381  144.2505  150.6159 H   0  0  0  0  0  0  0  0  0  0  0  0  # atno 10167 bound_to 10162
  156.2415  130.7099  151.0962 H   0  0  0  0  0  0  0  0  0  0  0  0  # atno 10718 bound_to 10713
  154.8046  135.3255  154.7463 H   0  0  0  0  0  0  0  0  0  0  0  0  # atno 10763 bound_to 10752
  153.8124  135.6894  153.4843 H   0  0  0  0  0  0  0  0  0  0  0  0  # atno 10764 bound_to 10752
  153.1784  135.4596  154.9940 H   0  0  0  0  0  0  0  0  0  0  0  0  # atno 10765 bound_to 10752
  141.1573  133.6789  156.6746 H   0  0  0  0  0  0  0  0  0  0  0  0  # atno 11005 bound_to 11000
  146.1686  139.4827  142.9942 LP  0  0  0  0  0  0  0  0  0  0  0  0  # atno 17320 bound_to 7965
  145.6599  141.0243  143.1714 LP  0  0  0  0  0  0  0  0  0  0  0  0  # atno 17321 bound_to 7965
  140.5335  143.2238  151.8201 LP  0  0  0  0  0  0  0  0  0  0  0  0  # atno 17342 bound_to 10162
  139.4845  144.4691  151.9447 LP  0  0  0  0  0  0  0  0  0  0  0  0  # atno 17343 bound_to 10162
  157.7177  131.0700  150.6261 LP  0  0  0  0  0  0  0  0  0  0  0  0  # atno 17370 bound_to 10713
  156.6334  130.4438  149.5778 LP  0  0  0  0  0  0  0  0  0  0  0  0  # atno 17371 bound_to 10713
  140.3149  134.8056  157.4206 LP  0  0  0  0  0  0  0  0  0  0  0  0  # atno 17394 bound_to 11000
  140.1147  134.5299  155.8235 LP  0  0  0  0  0  0  0  0  0  0  0  0  # atno 17395 bound_to 11000

$$$$
