AV-unprocessed.smi:527|AV-procd|sdf|2829|dock2
  -GOLD-   2262023313D 1   1.00000     0.00000
 Structure written by MMmdl.
 43 44  0  0  0  0  0  0  0  0  2 V2000
  148.9051  142.0163  156.8821 C   0  0  0  0  0  0  0  0  0  0  0  0
  149.4928  140.7100  156.3232 C   0  0  2  0  0  0  0  0  0  0  0  0
  150.9588  140.8851  155.8784 C   0  0  0  0  0  0  0  0  0  0  0  0
  151.5700  139.5513  155.4210 C   0  0  0  0  0  0  0  0  0  0  0  0
  150.7235  138.8887  154.3236 C   0  0  0  0  0  0  0  0  0  0  0  0
  149.2596  138.7149  154.7730 C   0  0  2  0  0  0  0  0  0  0  0  0
  148.4950  138.0501  153.7191 N   0  0  0  0  0  0  0  0  0  0  0  0
  147.1613  137.9098  153.6984 C   0  0  0  0  0  0  0  0  0  0  0  0
  146.4146  138.4102  154.5420 O   0  0  0  0  0  0  0  0  0  0  0  0
  146.7692  137.1665  152.6455 N   0  0  0  0  0  0  0  0  0  0  0  0
  145.5073  136.9468  152.2220 C   0  0  0  0  0  0  0  0  0  0  0  0
  144.4905  137.4064  152.7452 O   0  0  0  0  0  0  0  0  0  0  0  0
  145.3659  136.0618  150.9823 C   0  0  0  0  0  0  0  0  0  0  0  0
  144.5841  134.8566  151.2766 N   0  0  0  0  0  0  0  0  0  0  0  0
  144.3302  133.8036  150.4350 C   0  0  0  0  0  0  0  0  0  0  0  0
  143.5594  132.9159  151.1409 C   0  0  0  0  0  0  0  0  0  0  0  0
  143.3741  133.4639  152.3821 N   0  3  0  0  0  0  0  0  0  0  0  0
  143.9988  134.6432  152.4633 C   0  0  0  0  0  0  0  0  0  0  0  0
  148.6288  140.0684  155.2046 C   0  0  2  0  0  0  0  0  0  0  0  0
  148.3515  141.0176  154.0157 C   0  0  0  0  0  0  0  0  0  0  0  0
  148.9513  142.8268  156.1547 H   0  0  0  0  0  0  0  0  0  0  0  0
  149.4554  142.3424  157.7653 H   0  0  0  0  0  0  0  0  0  0  0  0
  147.8633  141.8856  157.1757 H   0  0  0  0  0  0  0  0  0  0  0  0
  149.4982  140.0044  157.1557 H   0  0  0  0  0  0  0  0  0  0  0  0
  151.0235  141.6163  155.0720 H   0  0  0  0  0  0  0  0  0  0  0  0
  151.5503  141.2884  156.7010 H   0  0  0  0  0  0  0  0  0  0  0  0
  152.5869  139.7119  155.0610 H   0  0  0  0  0  0  0  0  0  0  0  0
  151.6487  138.8774  156.2750 H   0  0  0  0  0  0  0  0  0  0  0  0
  150.7714  139.4874  153.4133 H   0  0  0  0  0  0  0  0  0  0  0  0
  151.1532  137.9181  154.0729 H   0  0  0  0  0  0  0  0  0  0  0  0
  149.2674  138.0522  155.6411 H   0  0  0  0  0  0  0  0  0  0  0  0
  149.0265  137.6685  152.9504 H   0  0  0  0  0  0  0  0  0  0  0  0
  147.5040  136.7248  152.1129 H   0  0  0  0  0  0  0  0  0  0  0  0
  144.8768  136.6027  150.1705 H   0  0  0  0  0  0  0  0  0  0  0  0
  146.3499  135.7560  150.6232 H   0  0  0  0  0  0  0  0  0  0  0  0
  144.7069  133.7642  149.4228 H   0  0  0  0  0  0  0  0  0  0  0  0
  143.1393  131.9607  150.8604 H   0  0  0  0  0  0  0  0  0  0  0  0
  144.0220  135.2970  153.3176 H   0  0  0  0  0  0  0  0  0  0  0  0
  147.6573  139.8453  155.6477 H   0  0  0  0  0  0  0  0  0  0  0  0
  149.2677  141.3248  153.5132 H   0  0  0  0  0  0  0  0  0  0  0  0
  147.8339  141.9203  154.3383 H   0  0  0  0  0  0  0  0  0  0  0  0
  147.7102  140.5485  153.2699 H   0  0  0  0  0  0  0  0  0  0  0  0
  142.8404  133.0411  153.1315 H   0  0  0  0  0  0  0  0  0  0  0  0
  1  2  1  0  0  0  0
  1 21  1  0  0  0  0
  1 22  1  0  0  0  0
  1 23  1  0  0  0  0
  2 19  1  0  0  0  0
  2  3  1  0  0  0  0
  2 24  1  0  0  0  0
  3  4  1  0  0  0  0
  3 25  1  0  0  0  0
  3 26  1  0  0  0  0
  4  5  1  0  0  0  0
  4 27  1  0  0  0  0
  4 28  1  0  0  0  0
  5  6  1  0  0  0  0
  5 29  1  0  0  0  0
  5 30  1  0  0  0  0
  6  7  1  0  0  0  0
  6 19  1  0  0  0  0
  6 31  1  0  0  0  0
  7  8  1  0  0  0  0
  7 32  1  0  0  0  0
  8  9  2  0  0  0  0
  8 10  1  0  0  0  0
 10 11  1  0  0  0  0
 10 33  1  0  0  0  0
 11 12  2  0  0  0  0
 11 13  1  0  0  0  0
 13 14  1  0  0  0  0
 13 34  1  0  0  0  0
 13 35  1  0  0  0  0
 14 18  1  0  0  0  0
 14 15  1  0  0  0  0
 15 16  2  0  0  0  0
 15 36  1  0  0  0  0
 16 17  1  0  0  0  0
 16 37  1  0  0  0  0
 17 18  2  0  0  0  0
 17 43  1  0  0  0  0
 18 38  1  0  0  0  0
 19 20  1  0  0  0  0
 19 39  1  0  0  0  0
 20 40  1  0  0  0  0
 20 41  1  0  0  0  0
 20 42  1  0  0  0  0
M  CHG  1  17   1
M  END
> <s_m_source_file>
AV-unprocessed.smi

> <i_m_source_file_index>
527

> <i_lp_mmshare_version>
43012

> <i_f3d_flags>
0

> <s_epik_input>
W0NIM11bQ0BASF0xW0NIMl1bQ0gyXVtDSDJdW0NASF0oW0NASF0xW0NIM10pW05IXUMoPU8pW05IXUMoPU8pW0NIMl1uMltjSF1bY0hdbltjSF0y

> <s_epik_cmdline>
J2VwaWtfcHl0aG9uJywgJy1waCcsICc3LjAnLCAnLXRuJywgJzgnLCAnLW1hJywgJzIwMCcsICctbWV0YWxfYmluZGluZycsICctaW1hZScsICc8aW5maWxlLm1hZT4nLCAnLW9tYWUnLCAnPG91dGZpbGUubWFlPic=

> <r_lp_tautomer_probability>
1

> <r_epik_Ionization_Penalty>
0.816441

> <r_epik_Ionization_Penalty_Charging>
0

> <r_epik_Ionization_Penalty_Neutral>
0.816441

> <r_epik_State_Penalty>
0.849034

> <r_epik_Charging_Adjusted_Penalty>
0.849034

> <i_epik_Tot_Q>
1

> <i_epik_Tot_abs_Q>
1

> <r_epik_Metal_State_Penalty>
0.984327

> <b_epik_Metal_Only>
0

> <s_lp_Force_Field>
OPLS_2005

> <r_lp_Energy>
18.4408

> <b_lp_Chiralities_Consistent>
1

> <s_lp_Variant>
AV-unprocessed.smi:527-15

> <Gold.Version>
5.8.1

> <Gold.Id.Protein>
6NUR|6NUR_protein|mol2

> <Gold.PLP.Fitness>
46.8664

> <Gold.PLP.PLP>
-32.8514

> <Gold.PLP.part.hbond>
-2.8713

> <Gold.PLP.part.metal>
0.0000

> <Gold.PLP.part.buried>
-3.4389

> <Gold.PLP.part.nonpolar>
-27.7417

> <Gold.PLP.part.repulsive>
0.3382

> <Gold.PLP.ligand.clash>
0.0000

> <Gold.PLP.ligand.torsion>
0.1784

> <Gold.PLP.Chemscore.Hbond>
3.7840

> <Gold.PLP.Chemscore.CHOScore>
1.0000

> <Gold.PLP.Chemscore.Metal>
0.0000

> <Gold.Chemscore.Hbonds>
donor molecule, donor type, donor heavy atom, donor atom, acceptor molecule, acceptor atom, score
      L1  H     7    32       P1  7948  0.78
      L1  H    10    33       P1  7948  1.00
      L1  H    17    43       P1 10957  1.76
      L1  C    15    36       P1  7921  1.00

> <Gold.PLP.Chemscore.Internal.Correction>
0.0197

> <Gold.Rescore>
     Score         DG    S(hbond)    S(metal)    S(lipo)     H(rot)  DE(clash)    DE(int)     intcor
     14.41     -18.50       2.82        0.00      68.14       1.71       0.03       4.06       ----

> <Gold.Chemscore.Fitness>
14.4140

> <Gold.Chemscore.DG>
-18.4988

> <Gold.Chemscore.ZeroCoef>
-5.4800

> <Gold.Chemscore.Hbond>
2.8178

> <Gold.Chemscore.Metal>
0.0000

> <Gold.Chemscore.Lipo>
68.1428

> <Gold.Chemscore.Internal_Hbond>
0.0000

> <Gold.Chemscore.DEClash>
0.0290

> <Gold.Chemscore.DEInternal>
4.0558

> <Gold.Chemscore.Rot>
1.7052

> <Gold.Chemscore.Internal.Correction>
   9.000000E+99

> <Gold.Chemscore.Hbonds>
donor molecule, donor type, donor heavy atom, donor atom, acceptor molecule, acceptor atom, score
      L1  H     7    32       P1  7948  0.78
      L1  H    10    33       P1  7948  0.92
      L1  H    17    43       P1 10957  0.54

> <Gold.Chemscore.Hbond.Weighted>
-9.4114

> <Gold.Chemscore.Metal.Weighted>
-0.0000

> <Gold.Chemscore.Lipo.Weighted>
-7.9727

> <Gold.Chemscore.Internal_Hbond.Weighted>
0.0000

> <Gold.Chemscore.DEClash.Weighted>
0.0290

> <Gold.Chemscore.DEInternal.Weighted>
4.0558

> <Gold.Chemscore.Rot.Weighted>
4.3653

> <Gold.Chemscore.Internal.Correction.Weighted>
   9.000000E+99

> <Gold.Protein.RotatedTorsions>
[ 6907 6896 6895 6894 ] final -140.33 input  -60.11 | X-H torsion
[ 7974 7965 7964 7962 ] final    0.23 input  175.53 | X-H torsion
[ 8008 7997 7996 7995 ] final  -85.43 input   59.86 | X-H torsion
[ 10167 10162 10161 10158 ] final   -4.69 input  -65.29 | X-H torsion
[ 10718 10713 10712 10709 ] final -173.72 input   66.30 | X-H torsion
[ 10763 10752 10751 10750 ] final   42.74 input  -60.55 | X-H torsion
[ 11005 11000 10999 10996 ] final  -63.14 input  -57.11 | X-H torsion

> <Gold.Protein.ActiveResidues>
 VAL166  LYS551  ARG553  GLY616  TRP617  ASP618  TYR619  PRO620  LYS621  CYS622 
 ASP623  PHE694  ASN695  SER759  ASP760  ASP761  ALA762  ILE779  LEU786  VAL792 
 PHE793  MET794  SER795  GLU796  ALA797  LYS798  CYS799  TRP800  GLU811  SER814 

> <Gold.Protein.RotatedAtoms>
  151.0593  133.5557  159.2635 H   0  0  0  0  0  0  0  0  0  0  0  0  # atno 6907 bound_to 6896
  151.2538  135.0630  159.9082 H   0  0  0  0  0  0  0  0  0  0  0  0  # atno 6908 bound_to 6896
  152.5395  134.0350  159.8095 H   0  0  0  0  0  0  0  0  0  0  0  0  # atno 6909 bound_to 6896
  146.2433  140.1168  142.8342 H   0  0  0  0  0  0  0  0  0  0  0  0  # atno 7974 bound_to 7965
  154.6407  140.0591  156.9842 H   0  0  0  0  0  0  0  0  0  0  0  0  # atno 8008 bound_to 7997
  155.1522  140.3275  155.4410 H   0  0  0  0  0  0  0  0  0  0  0  0  # atno 8009 bound_to 7997
  156.2529  140.1945  156.6633 H   0  0  0  0  0  0  0  0  0  0  0  0  # atno 8010 bound_to 7997
  140.6937  143.6394  150.8449 H   0  0  0  0  0  0  0  0  0  0  0  0  # atno 10167 bound_to 10162
  156.7745  130.9461  151.3120 H   0  0  0  0  0  0  0  0  0  0  0  0  # atno 10718 bound_to 10713
  152.9876  135.6123  154.2998 H   0  0  0  0  0  0  0  0  0  0  0  0  # atno 10763 bound_to 10752
  154.2719  135.2779  155.2736 H   0  0  0  0  0  0  0  0  0  0  0  0  # atno 10764 bound_to 10752
  154.5115  135.5840  153.6665 H   0  0  0  0  0  0  0  0  0  0  0  0  # atno 10765 bound_to 10752
  141.1383  133.6648  156.5634 H   0  0  0  0  0  0  0  0  0  0  0  0  # atno 11005 bound_to 11000
  145.0440  140.8967  143.5035 LP  0  0  0  0  0  0  0  0  0  0  0  0  # atno 17320 bound_to 7965
  145.1254  139.2666  143.5567 LP  0  0  0  0  0  0  0  0  0  0  0  0  # atno 17321 bound_to 7965
  140.0110  143.5643  152.2839 LP  0  0  0  0  0  0  0  0  0  0  0  0  # atno 17342 bound_to 10162
  139.6366  144.7650  151.2424 LP  0  0  0  0  0  0  0  0  0  0  0  0  # atno 17343 bound_to 10162
  157.6675  130.9021  149.9966 LP  0  0  0  0  0  0  0  0  0  0  0  0  # atno 17370 bound_to 10713
  156.1257  130.3644  149.9814 LP  0  0  0  0  0  0  0  0  0  0  0  0  # atno 17371 bound_to 10713
  140.3970  134.7390  157.4756 LP  0  0  0  0  0  0  0  0  0  0  0  0  # atno 17394 bound_to 11000
  140.0524  134.6112  155.8846 LP  0  0  0  0  0  0  0  0  0  0  0  0  # atno 17395 bound_to 11000

$$$$
