AV-unprocessed.smi:2260|AV-procd|sdf|9133|dock7
  -GOLD-   2272012343D 1   1.00000     0.00000
 Structure written by MMmdl.
 43 44  0  0  0  0  0  0  0  0  2 V2000
  150.9562  133.2719  155.9580 C   0  0  0  0  0  0  0  0  0  0  0  0
  150.7963  131.9155  155.2926 C   0  0  0  0  0  0  0  0  0  0  0  0
  151.6576  130.8966  155.3861 C   0  0  0  0  0  0  0  0  0  0  0  0
  151.1239  129.4776  154.5164 S   0  0  0  0  0  0  0  0  0  0  0  0
  149.6294  130.3412  154.0053 C   0  0  0  0  0  0  0  0  0  0  0  0
  148.7576  129.8189  153.3125 O   0  0  0  0  0  0  0  0  0  0  0  0
  149.6610  131.6352  154.5217 N   0  0  0  0  0  0  0  0  0  0  0  0
  148.5848  132.5951  154.2607 C   0  0  0  0  0  0  0  0  0  0  0  0
  148.4554  132.8910  152.7587 C   0  0  0  0  0  0  0  0  0  0  0  0
  147.4599  133.9556  152.5169 N   0  3  0  0  0  0  0  0  0  0  0  0
  146.6082  133.7765  151.3163 C   0  0  1  0  0  0  0  0  0  0  0  0
  146.3272  132.2785  151.0502 C   0  0  0  0  0  0  0  0  0  0  0  0
  145.4508  132.0770  149.8067 C   0  0  0  0  0  0  0  0  0  0  0  0
  144.1434  132.8699  149.9138 C   0  0  0  0  0  0  0  0  0  0  0  0
  144.4230  134.3599  150.1719 C   0  0  0  0  0  0  0  0  0  0  0  0
  145.2982  134.6185  151.4260 C   0  0  0  0  0  0  0  0  0  0  0  0
  144.4945  134.2861  152.7068 C   0  0  0  0  0  0  0  0  0  0  0  0
  145.6450  136.1231  151.4512 C   0  0  0  0  0  0  0  0  0  0  0  0
  151.6362  133.1960  156.8069 H   0  0  0  0  0  0  0  0  0  0  0  0
  150.0106  133.6601  156.3348 H   0  0  0  0  0  0  0  0  0  0  0  0
  151.3749  133.9906  155.2535 H   0  0  0  0  0  0  0  0  0  0  0  0
  152.5883  130.8928  155.9343 H   0  0  0  0  0  0  0  0  0  0  0  0
  147.6395  132.2325  154.6649 H   0  0  0  0  0  0  0  0  0  0  0  0
  148.7866  133.5224  154.8000 H   0  0  0  0  0  0  0  0  0  0  0  0
  149.4200  133.2055  152.3581 H   0  0  0  0  0  0  0  0  0  0  0  0
  148.1667  131.9848  152.2272 H   0  0  0  0  0  0  0  0  0  0  0  0
  146.8649  134.0502  153.3274 H   0  0  0  0  0  0  0  0  0  0  0  0
  147.1686  134.1615  150.4621 H   0  0  0  0  0  0  0  0  0  0  0  0
  147.2597  131.7348  150.9020 H   0  0  0  0  0  0  0  0  0  0  0  0
  145.8472  131.8214  151.9160 H   0  0  0  0  0  0  0  0  0  0  0  0
  145.9983  132.3970  148.9191 H   0  0  0  0  0  0  0  0  0  0  0  0
  145.2343  131.0169  149.6706 H   0  0  0  0  0  0  0  0  0  0  0  0
  143.5696  132.7576  148.9934 H   0  0  0  0  0  0  0  0  0  0  0  0
  143.5216  132.4564  150.7081 H   0  0  0  0  0  0  0  0  0  0  0  0
  144.9206  134.7705  149.2918 H   0  0  0  0  0  0  0  0  0  0  0  0
  143.4770  134.8965  150.2546 H   0  0  0  0  0  0  0  0  0  0  0  0
  143.5642  134.8539  152.7431 H   0  0  0  0  0  0  0  0  0  0  0  0
  145.0513  134.5349  153.6105 H   0  0  0  0  0  0  0  0  0  0  0  0
  144.2282  133.2320  152.7726 H   0  0  0  0  0  0  0  0  0  0  0  0
  144.7428  136.7357  151.4659 H   0  0  0  0  0  0  0  0  0  0  0  0
  146.2215  136.4159  150.5729 H   0  0  0  0  0  0  0  0  0  0  0  0
  146.2300  136.3926  152.3309 H   0  0  0  0  0  0  0  0  0  0  0  0
  147.9710  134.8185  152.3951 H   0  0  0  0  0  0  0  0  0  0  0  0
  1  2  1  0  0  0  0
  1 19  1  0  0  0  0
  1 20  1  0  0  0  0
  1 21  1  0  0  0  0
  2  7  1  0  0  0  0
  2  3  2  0  0  0  0
  3  4  1  0  0  0  0
  3 22  1  0  0  0  0
  4  5  1  0  0  0  0
  5  6  2  0  0  0  0
  5  7  1  0  0  0  0
  7  8  1  0  0  0  0
  8  9  1  0  0  0  0
  8 23  1  0  0  0  0
  8 24  1  0  0  0  0
  9 10  1  0  0  0  0
  9 25  1  0  0  0  0
  9 26  1  0  0  0  0
 10 11  1  0  0  0  0
 10 27  1  0  0  0  0
 10 43  1  0  0  0  0
 11 16  1  0  0  0  0
 11 12  1  0  0  0  0
 11 28  1  0  0  0  0
 12 13  1  0  0  0  0
 12 29  1  0  0  0  0
 12 30  1  0  0  0  0
 13 14  1  0  0  0  0
 13 31  1  0  0  0  0
 13 32  1  0  0  0  0
 14 15  1  0  0  0  0
 14 33  1  0  0  0  0
 14 34  1  0  0  0  0
 15 16  1  0  0  0  0
 15 35  1  0  0  0  0
 15 36  1  0  0  0  0
 16 17  1  0  0  0  0
 16 18  1  0  0  0  0
 17 37  1  0  0  0  0
 17 38  1  0  0  0  0
 17 39  1  0  0  0  0
 18 40  1  0  0  0  0
 18 41  1  0  0  0  0
 18 42  1  0  0  0  0
M  CHG  1  10   1
M  END
> <s_m_source_file>
AV-unprocessed.smi

> <i_m_source_file_index>
2260

> <i_lp_mmshare_version>
43012

> <i_f3d_flags>
0

> <s_epik_input>
W0NIM11jMVtjSF1zYyg9TyluMVtDSDJdW0NIMl1bTkhdW0NAQEhdKEMyKFtDSDNdKVtDSDNdKVtDSDJdW0NIMl1bQ0gyXVtDSDJdMg==

> <s_epik_cmdline>
J2VwaWtfcHl0aG9uJywgJy1waCcsICc3LjAnLCAnLXRuJywgJzgnLCAnLW1hJywgJzIwMCcsICctbWV0YWxfYmluZGluZycsICctaW1hZScsICc8aW5maWxlLm1hZT4nLCAnLW9tYWUnLCAnPG91dGZpbGUubWFlPic=

> <r_epik_Ionization_Penalty>
0.0114277

> <r_epik_Ionization_Penalty_Charging>
0.0114277

> <r_epik_Ionization_Penalty_Neutral>
2.57259e-08

> <r_epik_State_Penalty>
0.0087935

> <r_epik_Charging_Adjusted_Penalty>
0.0202212

> <i_epik_Tot_Q>
1

> <i_epik_Tot_abs_Q>
1

> <r_epik_Metal_State_Penalty>
0.0087935

> <b_epik_Metal_Only>
0

> <s_lp_Force_Field>
OPLS_2005

> <r_lp_Energy>
26.3159

> <b_lp_Chiralities_Consistent>
1

> <s_lp_Variant>
AV-unprocessed.smi:2260-2

> <Gold.Version>
5.8.1

> <Gold.Id.Protein>
6NUR|6NUR_protein|mol2

> <Gold.PLP.Fitness>
43.6299

> <Gold.PLP.PLP>
-38.6782

> <Gold.PLP.part.hbond>
-1.0000

> <Gold.PLP.part.metal>
0.0000

> <Gold.PLP.part.buried>
-3.4071

> <Gold.PLP.part.nonpolar>
-34.2159

> <Gold.PLP.part.repulsive>
0.1366

> <Gold.PLP.ligand.clash>
0.0000

> <Gold.PLP.ligand.torsion>
0.5313

> <Gold.PLP.Chemscore.Hbond>
2.0000

> <Gold.PLP.Chemscore.CHOScore>
0.0000

> <Gold.PLP.Chemscore.Metal>
0.0000

> <Gold.Chemscore.Hbonds>
donor molecule, donor type, donor heavy atom, donor atom, acceptor molecule, acceptor atom, score
      L1  H    10    43       P1  7948  2.00

> <Gold.PLP.Chemscore.Internal.Correction>
0.0143

> <Gold.Rescore>
     Score         DG    S(hbond)    S(metal)    S(lipo)     H(rot)  DE(clash)    DE(int)     intcor
     14.83     -15.84       0.87        0.00      95.95       1.48       0.29       0.72       ----

> <Gold.Chemscore.Fitness>
14.8317

> <Gold.Chemscore.DG>
-15.8378

> <Gold.Chemscore.ZeroCoef>
-5.4800

> <Gold.Chemscore.Hbond>
0.8734

> <Gold.Chemscore.Metal>
0.0000

> <Gold.Chemscore.Lipo>
95.9455

> <Gold.Chemscore.Internal_Hbond>
0.0000

> <Gold.Chemscore.DEClash>
0.2879

> <Gold.Chemscore.DEInternal>
0.7181

> <Gold.Chemscore.Rot>
1.4785

> <Gold.Chemscore.Internal.Correction>
   9.000000E+99

> <Gold.Chemscore.Hbonds>
donor molecule, donor type, donor heavy atom, donor atom, acceptor molecule, acceptor atom, score
      L1  H    10    43       P1  7948  0.70

> <Gold.Chemscore.Hbond.Weighted>
-2.9172

> <Gold.Chemscore.Metal.Weighted>
-0.0000

> <Gold.Chemscore.Lipo.Weighted>
-11.2256

> <Gold.Chemscore.Internal_Hbond.Weighted>
0.0000

> <Gold.Chemscore.DEClash.Weighted>
0.2879

> <Gold.Chemscore.DEInternal.Weighted>
0.7181

> <Gold.Chemscore.Rot.Weighted>
3.7850

> <Gold.Chemscore.Internal.Correction.Weighted>
   9.000000E+99

> <Gold.Protein.RotatedTorsions>
[ 6907 6896 6895 6894 ] final   96.38 input  -60.11 | X-H torsion
[ 7974 7965 7964 7962 ] final -136.98 input  175.53 | X-H torsion
[ 8008 7997 7996 7995 ] final -137.89 input   59.86 | X-H torsion
[ 10167 10162 10161 10158 ] final   55.87 input  -65.29 | X-H torsion
[ 10718 10713 10712 10709 ] final -103.54 input   66.30 | X-H torsion
[ 10763 10752 10751 10750 ] final -105.75 input  -60.55 | X-H torsion
[ 11005 11000 10999 10996 ] final  -79.03 input  -57.11 | X-H torsion

> <Gold.Protein.ActiveResidues>
 VAL166  LYS551  ARG553  GLY616  TRP617  ASP618  TYR619  PRO620  LYS621  CYS622 
 ASP623  PHE694  ASN695  SER759  ASP760  ASP761  ALA762  ILE779  LEU786  VAL792 
 PHE793  MET794  SER795  GLU796  ALA797  LYS798  CYS799  TRP800  GLU811  SER814 

> <Gold.Protein.RotatedAtoms>
  152.5435  134.0895  159.8270 H   0  0  0  0  0  0  0  0  0  0  0  0  # atno 6907 bound_to 6896
  151.0986  133.5253  159.2618 H   0  0  0  0  0  0  0  0  0  0  0  0  # atno 6908 bound_to 6896
  151.2017  135.0454  159.8929 H   0  0  0  0  0  0  0  0  0  0  0  0  # atno 6909 bound_to 6896
  144.8881  140.6603  143.5163 H   0  0  0  0  0  0  0  0  0  0  0  0  # atno 7974 bound_to 7965
  155.4193  140.0517  157.3027 H   0  0  0  0  0  0  0  0  0  0  0  0  # atno 8008 bound_to 7997
  154.4910  140.2120  155.9508 H   0  0  0  0  0  0  0  0  0  0  0  0  # atno 8009 bound_to 7997
  156.1342  140.3166  155.8400 H   0  0  0  0  0  0  0  0  0  0  0  0  # atno 8010 bound_to 7997
  140.2148  144.3851  150.6474 H   0  0  0  0  0  0  0  0  0  0  0  0  # atno 10167 bound_to 10162
  156.0269  130.5472  150.7267 H   0  0  0  0  0  0  0  0  0  0  0  0  # atno 10718 bound_to 10713
  154.7967  135.4737  154.0179 H   0  0  0  0  0  0  0  0  0  0  0  0  # atno 10763 bound_to 10752
  153.1715  135.6826  153.8608 H   0  0  0  0  0  0  0  0  0  0  0  0  # atno 10764 bound_to 10752
  153.8188  135.3207  155.3386 H   0  0  0  0  0  0  0  0  0  0  0  0  # atno 10765 bound_to 10752
  141.1666  133.7088  156.8061 H   0  0  0  0  0  0  0  0  0  0  0  0  # atno 11005 bound_to 11000
  145.3833  139.1632  143.4269 LP  0  0  0  0  0  0  0  0  0  0  0  0  # atno 17320 bound_to 7965
  146.3037  140.3915  142.8695 LP  0  0  0  0  0  0  0  0  0  0  0  0  # atno 17321 bound_to 7965
  140.6297  143.2186  151.6521 LP  0  0  0  0  0  0  0  0  0  0  0  0  # atno 17342 bound_to 10162
  139.5166  144.3341  152.0799 LP  0  0  0  0  0  0  0  0  0  0  0  0  # atno 17343 bound_to 10162
  157.4870  131.0907  151.0471 LP  0  0  0  0  0  0  0  0  0  0  0  0  # atno 17370 bound_to 10713
  157.0889  130.5934  149.5435 LP  0  0  0  0  0  0  0  0  0  0  0  0  # atno 17371 bound_to 10713
  140.2221  134.8749  157.3388 LP  0  0  0  0  0  0  0  0  0  0  0  0  # atno 17394 bound_to 11000
  140.1977  134.4293  155.7680 LP  0  0  0  0  0  0  0  0  0  0  0  0  # atno 17395 bound_to 11000

$$$$
