AV-unprocessed.smi:833|AV-procd|sdf|3881|dock4
  -GOLD-   22720 1333D 1   1.00000     0.00000
 Structure written by MMmdl.
 39 40  0  0  0  0  0  0  0  0  1 V2000
  144.1009  133.6389  150.6252 C   0  0  0  0  0  0  0  0  0  0  0  0
  145.1117  134.7826  150.7845 C   0  0  1  0  0  0  0  0  0  0  0  0
  144.6959  135.8191  149.9190 O   0  0  0  0  0  0  0  0  0  0  0  0
  145.1566  135.3173  152.2305 C   0  0  0  0  0  0  0  0  0  0  0  0
  146.2998  136.1961  152.4518 N   0  0  0  0  0  0  0  0  0  0  0  0
  146.2398  137.4170  153.0002 C   0  0  0  0  0  0  0  0  0  0  0  0
  145.1941  137.9412  153.3833 O   0  0  0  0  0  0  0  0  0  0  0  0
  147.4549  137.9867  153.0512 N   0  0  0  0  0  0  0  0  0  0  0  0
  147.7892  139.2935  153.5051 C   0  0  0  0  0  0  0  0  0  0  0  0
  146.8764  140.3701  153.3885 C   0  0  0  0  0  0  0  0  0  0  0  0
  147.2208  141.6270  153.9145 C   0  0  0  0  0  0  0  0  0  0  0  0
  148.4632  141.7604  154.5557 C   0  0  0  0  0  0  0  0  0  0  0  0
  149.3374  140.7427  154.6872 N   0  0  0  0  0  0  0  0  0  0  0  0
  149.0263  139.5275  154.1718 C   0  0  0  0  0  0  0  0  0  0  0  0
  149.9896  138.5037  154.3253 N   0  0  0  0  0  0  0  0  0  0  0  0
  151.3494  138.8881  154.6938 C   0  0  0  0  0  0  0  0  0  0  0  0
  151.8722  137.7925  155.6289 C   0  0  0  0  0  0  0  0  0  0  0  0
  150.9818  136.5942  155.3154 C   0  0  0  0  0  0  0  0  0  0  0  0
  149.6440  137.2570  154.9999 C   0  0  0  0  0  0  0  0  0  0  0  0
  144.3731  132.7864  151.2478 H   0  0  0  0  0  0  0  0  0  0  0  0
  144.0600  133.2901  149.5926 H   0  0  0  0  0  0  0  0  0  0  0  0
  143.0963  133.9527  150.9113 H   0  0  0  0  0  0  0  0  0  0  0  0
  146.0968  134.4301  150.4752 H   0  0  0  0  0  0  0  0  0  0  0  0
  145.0926  135.6792  149.0719 H   0  0  0  0  0  0  0  0  0  0  0  0
  144.2189  135.7988  152.5150 H   0  0  0  0  0  0  0  0  0  0  0  0
  145.2864  134.4831  152.9206 H   0  0  0  0  0  0  0  0  0  0  0  0
  147.2025  135.8477  152.1641 H   0  0  0  0  0  0  0  0  0  0  0  0
  148.2067  137.4763  152.6113 H   0  0  0  0  0  0  0  0  0  0  0  0
  145.9093  140.2458  152.9254 H   0  0  0  0  0  0  0  0  0  0  0  0
  146.5428  142.4641  153.8400 H   0  0  0  0  0  0  0  0  0  0  0  0
  148.7617  142.7075  154.9801 H   0  0  0  0  0  0  0  0  0  0  0  0
  151.9601  138.9265  153.7915 H   0  0  0  0  0  0  0  0  0  0  0  0
  151.3859  139.8689  155.1700 H   0  0  0  0  0  0  0  0  0  0  0  0
  152.9330  137.5846  155.4870 H   0  0  0  0  0  0  0  0  0  0  0  0
  151.7251  138.0952  156.6666 H   0  0  0  0  0  0  0  0  0  0  0  0
  151.3571  136.0709  154.4350 H   0  0  0  0  0  0  0  0  0  0  0  0
  150.9196  135.8796  156.1364 H   0  0  0  0  0  0  0  0  0  0  0  0
  149.1101  137.4549  155.9302 H   0  0  0  0  0  0  0  0  0  0  0  0
  149.0161  136.6251  154.3713 H   0  0  0  0  0  0  0  0  0  0  0  0
  1  2  1  0  0  0  0
  1 20  1  0  0  0  0
  1 21  1  0  0  0  0
  1 22  1  0  0  0  0
  2  3  1  0  0  0  0
  2  4  1  0  0  0  0
  2 23  1  0  0  0  0
  3 24  1  0  0  0  0
  4  5  1  0  0  0  0
  4 25  1  0  0  0  0
  4 26  1  0  0  0  0
  5  6  1  0  0  0  0
  5 27  1  0  0  0  0
  6  7  2  0  0  0  0
  6  8  1  0  0  0  0
  8  9  1  0  0  0  0
  8 28  1  0  0  0  0
  9 14  1  0  0  0  0
  9 10  2  0  0  0  0
 10 11  1  0  0  0  0
 10 29  1  0  0  0  0
 11 12  2  0  0  0  0
 11 30  1  0  0  0  0
 12 13  1  0  0  0  0
 12 31  1  0  0  0  0
 13 14  2  0  0  0  0
 14 15  1  0  0  0  0
 15 19  1  0  0  0  0
 15 16  1  0  0  0  0
 16 17  1  0  0  0  0
 16 32  1  0  0  0  0
 16 33  1  0  0  0  0
 17 18  1  0  0  0  0
 17 34  1  0  0  0  0
 17 35  1  0  0  0  0
 18 19  1  0  0  0  0
 18 36  1  0  0  0  0
 18 37  1  0  0  0  0
 19 38  1  0  0  0  0
 19 39  1  0  0  0  0
M  END
> <s_m_source_file>
AV-unprocessed.smi

> <i_m_source_file_index>
833

> <i_lp_mmshare_version>
43012

> <i_f3d_flags>
0

> <s_epik_input>
W0NIM11bQ0BIXShbT0hdKVtDSDJdW05IXUMoPU8pW05IXWMxW2NIXVtjSF1bY0hdbmMxTjJbQ0gyXVtDSDJdW0NIMl1bQ0gyXTI=

> <s_epik_cmdline>
J2VwaWtfcHl0aG9uJywgJy1waCcsICc3LjAnLCAnLXRuJywgJzgnLCAnLW1hJywgJzIwMCcsICctbWV0YWxfYmluZGluZycsICctaW1hZScsICc8aW5maWxlLm1hZT4nLCAnLW9tYWUnLCAnPG91dGZpbGUubWFlPic=

> <r_lp_tautomer_probability>
1

> <r_epik_Ionization_Penalty>
0.0986749

> <r_epik_Ionization_Penalty_Charging>
0

> <r_epik_Ionization_Penalty_Neutral>
0.0986749

> <r_epik_State_Penalty>
0.0881977

> <r_epik_Charging_Adjusted_Penalty>
0.0881977

> <i_epik_Tot_Q>
0

> <i_epik_Tot_abs_Q>
0

> <r_epik_Metal_State_Penalty>
0.0755487

> <b_epik_Metal_Only>
0

> <s_lp_Force_Field>
OPLS_2005

> <r_lp_Energy>
30.9988

> <b_lp_Chiralities_Consistent>
1

> <s_lp_Variant>
AV-unprocessed.smi:833-2

> <Gold.Version>
5.8.1

> <Gold.Id.Protein>
6NUR|6NUR_protein|mol2

> <Gold.PLP.Fitness>
41.7766

> <Gold.PLP.PLP>
-30.6615

> <Gold.PLP.part.hbond>
-4.0000

> <Gold.PLP.part.metal>
0.0000

> <Gold.PLP.part.buried>
-2.8776

> <Gold.PLP.part.nonpolar>
-25.2568

> <Gold.PLP.part.repulsive>
0.9009

> <Gold.PLP.ligand.clash>
0.0000

> <Gold.PLP.ligand.torsion>
0.5490

> <Gold.PLP.Chemscore.Hbond>
2.9600

> <Gold.PLP.Chemscore.CHOScore>
1.0000

> <Gold.PLP.Chemscore.Metal>
0.0000

> <Gold.Chemscore.Hbonds>
donor molecule, donor type, donor heavy atom, donor atom, acceptor molecule, acceptor atom, score
      L1  H     3    24       P1  7921  1.00
      L1  H     5    27       P1  7948  0.96
      L1  H     8    28       P1  7948  1.00
      L1  C    12    31       P1  8028  1.00

> <Gold.PLP.Chemscore.Internal.Correction>
0.3332

> <Gold.Rescore>
     Score         DG    S(hbond)    S(metal)    S(lipo)     H(rot)  DE(clash)    DE(int)     intcor
     15.82     -17.96       2.91        0.00      67.98       2.03       0.28       1.85       ----

> <Gold.Chemscore.Fitness>
15.8199

> <Gold.Chemscore.DG>
-17.9587

> <Gold.Chemscore.ZeroCoef>
-5.4800

> <Gold.Chemscore.Hbond>
2.9110

> <Gold.Chemscore.Metal>
0.0000

> <Gold.Chemscore.Lipo>
67.9847

> <Gold.Chemscore.Internal_Hbond>
0.0000

> <Gold.Chemscore.DEClash>
0.2840

> <Gold.Chemscore.DEInternal>
1.8548

> <Gold.Chemscore.Rot>
2.0306

> <Gold.Chemscore.Internal.Correction>
   9.000000E+99

> <Gold.Chemscore.Hbonds>
donor molecule, donor type, donor heavy atom, donor atom, acceptor molecule, acceptor atom, score
      L1  H     3    24       P1  7921  0.98
      L1  H     5    27       P1  7948  0.92
      L1  H     8    28       P1  7948  0.99

> <Gold.Chemscore.Hbond.Weighted>
-9.7229

> <Gold.Chemscore.Metal.Weighted>
-0.0000

> <Gold.Chemscore.Lipo.Weighted>
-7.9542

> <Gold.Chemscore.Internal_Hbond.Weighted>
0.0000

> <Gold.Chemscore.DEClash.Weighted>
0.2840

> <Gold.Chemscore.DEInternal.Weighted>
1.8548

> <Gold.Chemscore.Rot.Weighted>
5.1984

> <Gold.Chemscore.Internal.Correction.Weighted>
   9.000000E+99

> <Gold.Protein.RotatedTorsions>
[ 6907 6896 6895 6894 ] final  -57.33 input  -60.11 | X-H torsion
[ 7974 7965 7964 7962 ] final  -21.29 input  175.53 | X-H torsion
[ 8008 7997 7996 7995 ] final  112.67 input   59.86 | X-H torsion
[ 10167 10162 10161 10158 ] final -161.07 input  -65.29 | X-H torsion
[ 10718 10713 10712 10709 ] final   27.97 input   66.30 | X-H torsion
[ 10763 10752 10751 10750 ] final -106.56 input  -60.55 | X-H torsion
[ 11005 11000 10999 10996 ] final   63.19 input  -57.11 | X-H torsion

> <Gold.Protein.ActiveResidues>
 VAL166  LYS551  ARG553  GLY616  TRP617  ASP618  TYR619  PRO620  LYS621  CYS622 
 ASP623  PHE694  ASN695  SER759  ASP760  ASP761  ALA762  ILE779  LEU786  VAL792 
 PHE793  MET794  SER795  GLU796  ALA797  LYS798  CYS799  TRP800  GLU811  SER814 

> <Gold.Protein.RotatedAtoms>
  150.8095  134.7241  159.6674 H   0  0  0  0  0  0  0  0  0  0  0  0  # atno 6907 bound_to 6896
  152.4215  134.5943  159.9992 H   0  0  0  0  0  0  0  0  0  0  0  0  # atno 6908 bound_to 6896
  151.6157  133.3306  159.3113 H   0  0  0  0  0  0  0  0  0  0  0  0  # atno 6909 bound_to 6896
  146.1741  140.4321  142.8520 H   0  0  0  0  0  0  0  0  0  0  0  0  # atno 7974 bound_to 7965
  156.2208  140.2995  155.9947 H   0  0  0  0  0  0  0  0  0  0  0  0  # atno 8008 bound_to 7997
  155.2487  140.0425  157.3001 H   0  0  0  0  0  0  0  0  0  0  0  0  # atno 8009 bound_to 7997
  154.5837  140.2382  155.8025 H   0  0  0  0  0  0  0  0  0  0  0  0  # atno 8010 bound_to 7997
  139.6493  144.0114  152.2150 H   0  0  0  0  0  0  0  0  0  0  0  0  # atno 10167 bound_to 10162
  157.2272  130.7006  149.6297 H   0  0  0  0  0  0  0  0  0  0  0  0  # atno 10718 bound_to 10713
  154.8020  135.4707  154.0298 H   0  0  0  0  0  0  0  0  0  0  0  0  # atno 10763 bound_to 10752
  153.1797  135.6838  153.8502 H   0  0  0  0  0  0  0  0  0  0  0  0  # atno 10764 bound_to 10752
  153.8056  135.3224  155.3373 H   0  0  0  0  0  0  0  0  0  0  0  0  # atno 10765 bound_to 10752
  140.0041  134.6396  155.9883 H   0  0  0  0  0  0  0  0  0  0  0  0  # atno 11005 bound_to 11000
  144.8208  140.6547  143.6354 LP  0  0  0  0  0  0  0  0  0  0  0  0  # atno 17320 bound_to 7965
  145.4260  139.1556  143.4048 LP  0  0  0  0  0  0  0  0  0  0  0  0  # atno 17321 bound_to 7965
  139.9824  144.6419  150.7888 LP  0  0  0  0  0  0  0  0  0  0  0  0  # atno 17342 bound_to 10162
  140.7530  143.3000  151.3106 LP  0  0  0  0  0  0  0  0  0  0  0  0  # atno 17343 bound_to 10162
  155.9678  130.4500  150.5682 LP  0  0  0  0  0  0  0  0  0  0  0  0  # atno 17370 bound_to 10713
  157.3515  131.0734  151.1709 LP  0  0  0  0  0  0  0  0  0  0  0  0  # atno 17371 bound_to 10713
  141.1664  133.6537  156.4495 LP  0  0  0  0  0  0  0  0  0  0  0  0  # atno 17394 bound_to 11000
  140.4673  134.6786  157.5113 LP  0  0  0  0  0  0  0  0  0  0  0  0  # atno 17395 bound_to 11000

$$$$
