AV-unprocessed.smi:1527|AV-procd|sdf|6147|dock1
  -GOLD-   22720 6293D 1   1.00000     0.00000
 Structure written by MMmdl.
 30 30  0  0  0  0  0  0  0  0  2 V2000
  151.4784  145.2339  159.6527 C   0  0  0  0  0  0  0  0  0  0  0  0
  152.5059  144.1742  160.0758 C   0  0  0  0  0  0  0  0  0  0  0  0
  152.0713  142.7296  159.7639 C   0  0  2  0  0  0  0  0  0  0  0  0
  153.1524  141.7149  160.1697 C   0  0  0  0  0  0  0  0  0  0  0  0
  151.7619  142.5911  158.3427 N   0  0  0  0  0  0  0  0  0  0  0  0
  151.3833  141.4568  157.7338 C   0  0  0  0  0  0  0  0  0  0  0  0
  151.2511  140.3854  158.3276 O   0  0  0  0  0  0  0  0  0  0  0  0
  151.1022  141.5719  156.2272 C   0  0  0  0  0  0  0  0  0  0  0  0
  150.8945  140.2803  155.5560 N   0  0  0  0  0  0  0  0  0  0  0  0
  149.5632  140.1228  154.9770 N   0  5  0  0  0  0  0  0  0  0  0  0
  149.2469  138.9585  154.3504 C   0  0  0  0  0  0  0  0  0  0  0  0
  148.1421  138.7467  153.8556 O   0  0  0  0  0  0  0  0  0  0  0  0
  150.2689  137.9287  154.2634 C   0  0  0  0  0  0  0  0  0  0  0  0
  151.4985  138.1120  154.7839 C   0  0  0  0  0  0  0  0  0  0  0  0
  151.8797  139.3413  155.4686 C   0  0  0  0  0  0  0  0  0  0  0  0
  153.0046  139.5198  155.9367 O   0  0  0  0  0  0  0  0  0  0  0  0
  151.8132  146.2316  159.9366 H   0  0  0  0  0  0  0  0  0  0  0  0
  150.5143  145.0591  160.1307 H   0  0  0  0  0  0  0  0  0  0  0  0
  151.3226  145.2346  158.5735 H   0  0  0  0  0  0  0  0  0  0  0  0
  153.4612  144.3857  159.5937 H   0  0  0  0  0  0  0  0  0  0  0  0
  152.6809  144.2706  161.1480 H   0  0  0  0  0  0  0  0  0  0  0  0
  151.1717  142.5199  160.3457 H   0  0  0  0  0  0  0  0  0  0  0  0
  153.3842  141.7937  161.2320 H   0  0  0  0  0  0  0  0  0  0  0  0
  154.0770  141.8761  159.6143 H   0  0  0  0  0  0  0  0  0  0  0  0
  152.8256  140.6917  159.9819 H   0  0  0  0  0  0  0  0  0  0  0  0
  151.8375  143.4243  157.7777 H   0  0  0  0  0  0  0  0  0  0  0  0
  150.2302  142.2150  156.0970 H   0  0  0  0  0  0  0  0  0  0  0  0
  151.9283  142.0991  155.7469 H   0  0  0  0  0  0  0  0  0  0  0  0
  150.0381  136.9971  153.7681 H   0  0  0  0  0  0  0  0  0  0  0  0
  152.2274  137.3205  154.6944 H   0  0  0  0  0  0  0  0  0  0  0  0
  1  2  1  0  0  0  0
  1 17  1  0  0  0  0
  1 18  1  0  0  0  0
  1 19  1  0  0  0  0
  2  3  1  0  0  0  0
  2 20  1  0  0  0  0
  2 21  1  0  0  0  0
  3  4  1  0  0  0  0
  3  5  1  0  0  0  0
  3 22  1  0  0  0  0
  4 23  1  0  0  0  0
  4 24  1  0  0  0  0
  4 25  1  0  0  0  0
  5  6  1  0  0  0  0
  5 26  1  0  0  0  0
  6  7  2  0  0  0  0
  6  8  1  0  0  0  0
  8 27  1  0  0  0  0
  8 28  1  0  0  0  0
  8  9  1  0  0  0  0
  9 10  1  0  0  0  0
  9 15  1  0  0  0  0
 10 11  1  0  0  0  0
 11 12  2  0  0  0  0
 11 13  1  0  0  0  0
 13 29  1  0  0  0  0
 13 14  2  0  0  0  0
 14 30  1  0  0  0  0
 14 15  1  0  0  0  0
 15 16  2  0  0  0  0
M  CHG  1  10  -1
M  END
> <s_m_source_file>
AV-unprocessed.smi

> <i_m_source_file_index>
1527

> <i_lp_mmshare_version>
43012

> <i_f3d_flags>
0

> <s_epik_input>
W0NIM11bQ0gyXVtDQEhdKFtDSDNdKVtOSF1DKD1PKVtDSDJdbjFbbkhdYyg9TylbY0hdW2NIXWMxPU8=

> <s_epik_cmdline>
J2VwaWtfcHl0aG9uJywgJy1waCcsICc3LjAnLCAnLXRuJywgJzgnLCAnLW1hJywgJzIwMCcsICctbWV0YWxfYmluZGluZycsICctaW1hZScsICc8aW5maWxlLm1hZT4nLCAnLW9tYWUnLCAnPG91dGZpbGUubWFlPic=

> <r_lp_tautomer_probability>
1

> <r_epik_Ionization_Penalty>
0.0984334

> <r_epik_Ionization_Penalty_Charging>
0.0984334

> <r_epik_Ionization_Penalty_Neutral>
1.93017e-08

> <r_epik_State_Penalty>
0.0346952

> <r_epik_Charging_Adjusted_Penalty>
0.133129

> <i_epik_Tot_Q>
-1

> <i_epik_Tot_abs_Q>
1

> <r_epik_Metal_State_Penalty>
0.0346952

> <b_epik_Metal_Only>
0

> <s_lp_Force_Field>
OPLS_2005

> <r_lp_Energy>
18.7632

> <b_lp_Chiralities_Consistent>
1

> <s_lp_Variant>
AV-unprocessed.smi:1527-1

> <Gold.Version>
5.8.1

> <Gold.Id.Protein>
6NUR|6NUR_protein|mol2

> <Gold.PLP.Fitness>
37.5523

> <Gold.PLP.PLP>
-34.7433

> <Gold.PLP.part.hbond>
-0.8364

> <Gold.PLP.part.metal>
0.0000

> <Gold.PLP.part.buried>
-3.8806

> <Gold.PLP.part.nonpolar>
-29.9797

> <Gold.PLP.part.repulsive>
0.3225

> <Gold.PLP.ligand.clash>
0.0000

> <Gold.PLP.ligand.torsion>
0.1144

> <Gold.PLP.Chemscore.Hbond>
1.0000

> <Gold.PLP.Chemscore.CHOScore>
0.0000

> <Gold.PLP.Chemscore.Metal>
0.0000

> <Gold.Chemscore.Hbonds>
donor molecule, donor type, donor heavy atom, donor atom, acceptor molecule, acceptor atom, score
      P1  H  7997  8008       L1    16  1.00

> <Gold.PLP.Chemscore.Internal.Correction>
0.0379

> <Gold.Rescore>
     Score         DG    S(hbond)    S(metal)    S(lipo)     H(rot)  DE(clash)    DE(int)     intcor
     11.52     -11.67       0.99        0.00      67.20       1.94       0.01       0.13       ----

> <Gold.Chemscore.Fitness>
11.5216

> <Gold.Chemscore.DG>
-11.6652

> <Gold.Chemscore.ZeroCoef>
-5.4800

> <Gold.Chemscore.Hbond>
0.9886

> <Gold.Chemscore.Metal>
0.0000

> <Gold.Chemscore.Lipo>
67.2000

> <Gold.Chemscore.Internal_Hbond>
0.0000

> <Gold.Chemscore.DEClash>
0.0149

> <Gold.Chemscore.DEInternal>
0.1287

> <Gold.Chemscore.Rot>
1.9449

> <Gold.Chemscore.Internal.Correction>
   9.000000E+99

> <Gold.Chemscore.Hbonds>
donor molecule, donor type, donor heavy atom, donor atom, acceptor molecule, acceptor atom, score
      P1  H  7997  8008       L1    16  0.94

> <Gold.Chemscore.Hbond.Weighted>
-3.3019

> <Gold.Chemscore.Metal.Weighted>
-0.0000

> <Gold.Chemscore.Lipo.Weighted>
-7.8624

> <Gold.Chemscore.Internal_Hbond.Weighted>
0.0000

> <Gold.Chemscore.DEClash.Weighted>
0.0149

> <Gold.Chemscore.DEInternal.Weighted>
0.1287

> <Gold.Chemscore.Rot.Weighted>
4.9791

> <Gold.Chemscore.Internal.Correction.Weighted>
   9.000000E+99

> <Gold.Protein.RotatedTorsions>
[ 6907 6896 6895 6894 ] final  -91.11 input  -60.11 | X-H torsion
[ 7974 7965 7964 7962 ] final   77.30 input  175.53 | X-H torsion
[ 8008 7997 7996 7995 ] final  -51.02 input   59.86 | X-H torsion
[ 10167 10162 10161 10158 ] final   32.87 input  -65.29 | X-H torsion
[ 10718 10713 10712 10709 ] final -176.02 input   66.30 | X-H torsion
[ 10763 10752 10751 10750 ] final -128.75 input  -60.55 | X-H torsion
[ 11005 11000 10999 10996 ] final  -75.02 input  -57.11 | X-H torsion

> <Gold.Protein.ActiveResidues>
 VAL166  LYS551  ARG553  GLY616  TRP617  ASP618  TYR619  PRO620  LYS621  CYS622 
 ASP623  PHE694  ASN695  SER759  ASP760  ASP761  ALA762  ILE779  LEU786  VAL792 
 PHE793  MET794  SER795  GLU796  ALA797  LYS798  CYS799  TRP800  GLU811  SER814 

> <Gold.Protein.RotatedAtoms>
  150.6889  134.2327  159.4440 H   0  0  0  0  0  0  0  0  0  0  0  0  # atno 6907 bound_to 6896
  152.0277  134.9784  160.0581 H   0  0  0  0  0  0  0  0  0  0  0  0  # atno 6908 bound_to 6896
  152.1336  133.4387  159.4769 H   0  0  0  0  0  0  0  0  0  0  0  0  # atno 6909 bound_to 6896
  145.6918  139.2555  143.1755 H   0  0  0  0  0  0  0  0  0  0  0  0  # atno 7974 bound_to 7965
  154.4074  140.1258  156.4761 H   0  0  0  0  0  0  0  0  0  0  0  0  # atno 8008 bound_to 7997
  155.7131  140.3493  155.4963 H   0  0  0  0  0  0  0  0  0  0  0  0  # atno 8009 bound_to 7997
  155.9282  140.1065  157.1143 H   0  0  0  0  0  0  0  0  0  0  0  0  # atno 8010 bound_to 7997
  140.4459  144.1119  150.6182 H   0  0  0  0  0  0  0  0  0  0  0  0  # atno 10167 bound_to 10162
  156.8085  130.9577  151.3116 H   0  0  0  0  0  0  0  0  0  0  0  0  # atno 10718 bound_to 10713
  154.8757  135.3918  154.3807 H   0  0  0  0  0  0  0  0  0  0  0  0  # atno 10763 bound_to 10752
  153.4555  135.7028  153.6088 H   0  0  0  0  0  0  0  0  0  0  0  0  # atno 10764 bound_to 10752
  153.4609  135.3812  155.2306 H   0  0  0  0  0  0  0  0  0  0  0  0  # atno 10765 bound_to 10752
  141.1641  133.6932  156.7454 H   0  0  0  0  0  0  0  0  0  0  0  0  # atno 11005 bound_to 11000
  146.0875  140.7694  142.9611 LP  0  0  0  0  0  0  0  0  0  0  0  0  # atno 17320 bound_to 7965
  144.6994  140.3585  143.7168 LP  0  0  0  0  0  0  0  0  0  0  0  0  # atno 17321 bound_to 7965
  140.4264  143.2588  151.9651 LP  0  0  0  0  0  0  0  0  0  0  0  0  # atno 17342 bound_to 10162
  139.4793  144.5784  151.7973 LP  0  0  0  0  0  0  0  0  0  0  0  0  # atno 17343 bound_to 10162
  157.6518  130.8890  149.9648 LP  0  0  0  0  0  0  0  0  0  0  0  0  # atno 17370 bound_to 10713
  156.1058  130.3653  150.0135 LP  0  0  0  0  0  0  0  0  0  0  0  0  # atno 17371 bound_to 10713
  140.2644  134.8442  157.3788 LP  0  0  0  0  0  0  0  0  0  0  0  0  # atno 17394 bound_to 11000
  140.1581  134.4764  155.7914 LP  0  0  0  0  0  0  0  0  0  0  0  0  # atno 17395 bound_to 11000

$$$$
