AV-unprocessed.smi:2706|AV-procd|sdf|10445|dock10
  -GOLD-   2272014483D 1   1.00000     0.00000
 Structure written by MMmdl.
 43 46  0  0  0  0  0  0  0  0  1 V2000
  156.0331  139.6961  165.8667 C   0  0  0  0  0  0  0  0  0  0  0  0
  156.4643  138.3943  165.3667 N   0  0  0  0  0  0  0  0  0  0  0  0
  157.5495  137.6836  166.0310 C   0  0  0  0  0  0  0  0  0  0  0  0
  155.7699  137.7903  164.2940 C   0  0  0  0  0  0  0  0  0  0  0  0
  155.5896  136.3881  164.2218 C   0  0  0  0  0  0  0  0  0  0  0  0
  154.8856  135.8481  163.1307 C   0  0  0  0  0  0  0  0  0  0  0  0
  154.3837  136.7163  162.1448 C   0  0  0  0  0  0  0  0  0  0  0  0
  154.6015  138.1040  162.2746 C   0  0  0  0  0  0  0  0  0  0  0  0
  154.0591  138.9036  161.2335 N   0  0  0  0  0  0  0  0  0  0  0  0
  154.1146  140.2409  161.1002 C   0  0  0  0  0  0  0  0  0  0  0  0
  154.6835  141.0102  161.8757 O   0  0  0  0  0  0  0  0  0  0  0  0
  153.4663  140.6445  159.9990 N   0  0  0  0  0  0  0  0  0  0  0  0
  153.3434  141.9966  159.5594 C   0  0  2  0  0  0  0  0  0  0  0  0
  152.4007  142.8983  160.3408 C   0  0  1  0  0  0  0  0  0  0  0  0
  152.3178  144.4173  160.2221 C   0  0  2  0  0  0  0  0  0  0  0  0
  150.8262  144.8059  160.1589 C   0  0  0  0  0  0  0  0  0  0  0  0
  150.4101  144.3056  158.7535 C   0  0  0  0  0  0  0  0  0  0  0  0
  151.7233  143.7045  158.2107 C   0  0  1  0  0  0  0  0  0  0  0  0
  152.7295  144.7070  158.7778 C   0  0  0  0  0  0  0  0  0  0  0  0
  152.0007  142.4158  158.9793 C   0  0  1  0  0  0  0  0  0  0  0  0
  155.2808  138.6100  163.3321 N   0  0  0  0  0  0  0  0  0  0  0  0
  156.0768  140.4452  165.0756 H   0  0  0  0  0  0  0  0  0  0  0  0
  156.6670  140.0393  166.6843 H   0  0  0  0  0  0  0  0  0  0  0  0
  155.0088  139.6431  166.2367 H   0  0  0  0  0  0  0  0  0  0  0  0
  158.3694  137.5022  165.3354 H   0  0  0  0  0  0  0  0  0  0  0  0
  157.2013  136.7264  166.4204 H   0  0  0  0  0  0  0  0  0  0  0  0
  157.9447  138.2578  166.8690 H   0  0  0  0  0  0  0  0  0  0  0  0
  155.9745  135.7200  164.9772 H   0  0  0  0  0  0  0  0  0  0  0  0
  154.7323  134.7819  163.0512 H   0  0  0  0  0  0  0  0  0  0  0  0
  153.8406  136.3169  161.3005 H   0  0  0  0  0  0  0  0  0  0  0  0
  153.5682  138.3997  160.5100 H   0  0  0  0  0  0  0  0  0  0  0  0
  153.0280  139.9411  159.4226 H   0  0  0  0  0  0  0  0  0  0  0  0
  154.2356  142.4487  159.1318 H   0  0  0  0  0  0  0  0  0  0  0  0
  151.8939  142.4638  161.2010 H   0  0  0  0  0  0  0  0  0  0  0  0
  152.8957  144.9342  160.9884 H   0  0  0  0  0  0  0  0  0  0  0  0
  150.2436  144.3418  160.9558 H   0  0  0  0  0  0  0  0  0  0  0  0
  150.6998  145.8865  160.2363 H   0  0  0  0  0  0  0  0  0  0  0  0
  149.6051  143.5707  158.7952 H   0  0  0  0  0  0  0  0  0  0  0  0
  150.0732  145.1367  158.1323 H   0  0  0  0  0  0  0  0  0  0  0  0
  151.7537  143.5677  157.1297 H   0  0  0  0  0  0  0  0  0  0  0  0
  152.5389  145.7368  158.4691 H   0  0  0  0  0  0  0  0  0  0  0  0
  153.7699  144.4760  158.5518 H   0  0  0  0  0  0  0  0  0  0  0  0
  151.2241  141.6551  158.9198 H   0  0  0  0  0  0  0  0  0  0  0  0
  1  2  1  0  0  0  0
  1 22  1  0  0  0  0
  1 23  1  0  0  0  0
  1 24  1  0  0  0  0
  2  3  1  0  0  0  0
  2  4  1  0  0  0  0
  3 25  1  0  0  0  0
  3 26  1  0  0  0  0
  3 27  1  0  0  0  0
  4 21  1  0  0  0  0
  4  5  2  0  0  0  0
  5  6  1  0  0  0  0
  5 28  1  0  0  0  0
  6  7  2  0  0  0  0
  6 29  1  0  0  0  0
  7  8  1  0  0  0  0
  7 30  1  0  0  0  0
  8  9  1  0  0  0  0
  8 21  2  0  0  0  0
  9 10  1  0  0  0  0
  9 31  1  0  0  0  0
 10 11  2  0  0  0  0
 10 12  1  0  0  0  0
 12 13  1  0  0  0  0
 12 32  1  0  0  0  0
 13 20  1  0  0  0  0
 13 14  1  0  0  0  0
 13 33  1  0  0  0  0
 14 20  1  0  0  0  0
 14 15  1  0  0  0  0
 14 34  1  0  0  0  0
 15 19  1  0  0  0  0
 15 16  1  0  0  0  0
 15 35  1  0  0  0  0
 16 17  1  0  0  0  0
 16 36  1  0  0  0  0
 16 37  1  0  0  0  0
 17 18  1  0  0  0  0
 17 38  1  0  0  0  0
 17 39  1  0  0  0  0
 18 19  1  0  0  0  0
 18 20  1  0  0  0  0
 18 40  1  0  0  0  0
 19 41  1  0  0  0  0
 19 42  1  0  0  0  0
 20 43  1  0  0  0  0
M  END
> <s_m_source_file>
AV-unprocessed.smi

> <i_m_source_file_index>
2706

> <i_lp_mmshare_version>
43012

> <i_f3d_flags>
0

> <s_epik_input>
W0NIM11OKFtDSDNdKWMxW2NIXVtjSF1bY0hdYyhuMSlbTkhdQyg9TylbTkhdW0NASF0yW0NAQEhdM1tDQEBIXShbQ0gyXTQpW0NIMl1bQ0gyXVtDQEBIXTRbQ0BIXTIz

> <s_epik_cmdline>
J2VwaWtfcHl0aG9uJywgJy1waCcsICc3LjAnLCAnLXRuJywgJzgnLCAnLW1hJywgJzIwMCcsICctbWV0YWxfYmluZGluZycsICctaW1hZScsICc8aW5maWxlLm1hZT4nLCAnLW9tYWUnLCAnPG91dGZpbGUubWFlPic=

> <r_lp_tautomer_probability>
1

> <r_epik_Ionization_Penalty>
0.0296788

> <r_epik_Ionization_Penalty_Charging>
0

> <r_epik_Ionization_Penalty_Neutral>
0.0296788

> <r_epik_State_Penalty>
0.0248512

> <r_epik_Charging_Adjusted_Penalty>
0.0248512

> <i_epik_Tot_Q>
0

> <i_epik_Tot_abs_Q>
0

> <r_epik_Metal_State_Penalty>
0.0237882

> <b_epik_Metal_Only>
0

> <s_lp_Force_Field>
OPLS_2005

> <r_lp_Energy>
77.4142

> <b_lp_Chiralities_Consistent>
1

> <s_lp_Variant>
AV-unprocessed.smi:2706-2

> <Gold.Version>
5.8.1

> <Gold.Id.Protein>
6NUR|6NUR_protein|mol2

> <Gold.PLP.Fitness>
43.0866

> <Gold.PLP.PLP>
-44.4056

> <Gold.PLP.part.hbond>
-1.0000

> <Gold.PLP.part.metal>
0.0000

> <Gold.PLP.part.buried>
-7.0334

> <Gold.PLP.part.nonpolar>
-37.4026

> <Gold.PLP.part.repulsive>
0.0997

> <Gold.PLP.ligand.clash>
0.0000

> <Gold.PLP.ligand.torsion>
0.6749

> <Gold.PLP.Chemscore.Hbond>
0.0000

> <Gold.PLP.Chemscore.CHOScore>
0.0000

> <Gold.PLP.Chemscore.Metal>
0.0000

> <Gold.PLP.Chemscore.Internal.Correction>
0.0309

> <Gold.Rescore>
     Score         DG    S(hbond)    S(metal)    S(lipo)     H(rot)  DE(clash)    DE(int)     intcor
     15.05     -16.89       0.00        0.00     119.43       1.00       0.06       1.78       ----

> <Gold.Chemscore.Fitness>
15.0546

> <Gold.Chemscore.DG>
-16.8935

> <Gold.Chemscore.ZeroCoef>
-5.4800

> <Gold.Chemscore.Hbond>
0.0000

> <Gold.Chemscore.Metal>
0.0000

> <Gold.Chemscore.Lipo>
119.4318

> <Gold.Chemscore.Internal_Hbond>
0.0000

> <Gold.Chemscore.DEClash>
0.0633

> <Gold.Chemscore.DEInternal>
1.7757

> <Gold.Chemscore.Rot>
1.0000

> <Gold.Chemscore.Internal.Correction>
   9.000000E+99

> <Gold.Chemscore.Hbond.Weighted>
-0.0000

> <Gold.Chemscore.Metal.Weighted>
-0.0000

> <Gold.Chemscore.Lipo.Weighted>
-13.9735

> <Gold.Chemscore.Internal_Hbond.Weighted>
0.0000

> <Gold.Chemscore.DEClash.Weighted>
0.0633

> <Gold.Chemscore.DEInternal.Weighted>
1.7757

> <Gold.Chemscore.Rot.Weighted>
2.5600

> <Gold.Chemscore.Internal.Correction.Weighted>
   9.000000E+99

> <Gold.Protein.RotatedTorsions>
[ 6907 6896 6895 6894 ] final  -57.23 input  -60.11 | X-H torsion
[ 7974 7965 7964 7962 ] final  129.05 input  175.53 | X-H torsion
[ 8008 7997 7996 7995 ] final   21.81 input   59.86 | X-H torsion
[ 10167 10162 10161 10158 ] final  156.77 input  -65.29 | X-H torsion
[ 10718 10713 10712 10709 ] final  126.84 input   66.30 | X-H torsion
[ 10763 10752 10751 10750 ] final   20.85 input  -60.55 | X-H torsion
[ 11005 11000 10999 10996 ] final -178.81 input  -57.11 | X-H torsion

> <Gold.Protein.ActiveResidues>
 VAL166  LYS551  ARG553  GLY616  TRP617  ASP618  TYR619  PRO620  LYS621  CYS622 
 ASP623  PHE694  ASN695  SER759  ASP760  ASP761  ALA762  ILE779  LEU786  VAL792 
 PHE793  MET794  SER795  GLU796  ALA797  LYS798  CYS799  TRP800  GLU811  SER814 

> <Gold.Protein.RotatedAtoms>
  150.8103  134.7254  159.6681 H   0  0  0  0  0  0  0  0  0  0  0  0  # atno 6907 bound_to 6896
  152.4223  134.5929  159.9989 H   0  0  0  0  0  0  0  0  0  0  0  0  # atno 6908 bound_to 6896
  151.6141  133.3307  159.3110 H   0  0  0  0  0  0  0  0  0  0  0  0  # atno 6909 bound_to 6896
  145.0329  139.4030  143.5140 H   0  0  0  0  0  0  0  0  0  0  0  0  # atno 7974 bound_to 7965
  154.9562  140.3072  155.5052 H   0  0  0  0  0  0  0  0  0  0  0  0  # atno 8008 bound_to 7997
  156.2982  140.2310  156.4582 H   0  0  0  0  0  0  0  0  0  0  0  0  # atno 8009 bound_to 7997
  154.8008  140.0434  157.1259 H   0  0  0  0  0  0  0  0  0  0  0  0  # atno 8010 bound_to 7997
  139.4821  144.4979  151.8212 H   0  0  0  0  0  0  0  0  0  0  0  0  # atno 10167 bound_to 10162
  157.5385  131.1097  150.8897 H   0  0  0  0  0  0  0  0  0  0  0  0  # atno 10718 bound_to 10713
  153.1043  135.6681  153.9615 H   0  0  0  0  0  0  0  0  0  0  0  0  # atno 10763 bound_to 10752
  153.9176  135.3018  155.3449 H   0  0  0  0  0  0  0  0  0  0  0  0  # atno 10764 bound_to 10752
  154.7464  135.5055  153.9288 H   0  0  0  0  0  0  0  0  0  0  0  0  # atno 10765 bound_to 10752
  140.4256  134.6565  157.4686 H   0  0  0  0  0  0  0  0  0  0  0  0  # atno 11005 bound_to 11000
  146.3500  139.9889  142.8688 LP  0  0  0  0  0  0  0  0  0  0  0  0  # atno 17320 bound_to 7965
  145.1747  140.9738  143.4301 LP  0  0  0  0  0  0  0  0  0  0  0  0  # atno 17321 bound_to 7965
  140.4469  144.1909  150.5894 LP  0  0  0  0  0  0  0  0  0  0  0  0  # atno 17342 bound_to 10162
  140.4625  143.2443  151.9200 LP  0  0  0  0  0  0  0  0  0  0  0  0  # atno 17343 bound_to 10162
  156.9457  130.5401  149.5281 LP  0  0  0  0  0  0  0  0  0  0  0  0  # atno 17370 bound_to 10713
  156.0477  130.5551  150.8919 LP  0  0  0  0  0  0  0  0  0  0  0  0  # atno 17371 bound_to 10713
  140.0169  134.6605  155.9296 LP  0  0  0  0  0  0  0  0  0  0  0  0  # atno 17394 bound_to 11000
  141.1766  133.6541  156.4854 LP  0  0  0  0  0  0  0  0  0  0  0  0  # atno 17395 bound_to 11000

$$$$
