AV-unprocessed.smi:284|AV-procd|sdf|2164|dock5
  -GOLD-   2262021523D 1   1.00000     0.00000
 Structure written by MMmdl.
 60 62  0  0  0  0  0  0  0  0  1 V2000
  149.2584  133.0491  154.1608 C   0  0  0  0  0  0  0  0  0  0  0  0
  148.3467  132.0201  153.5111 C   0  0  0  0  0  0  0  0  0  0  0  0
  147.4820  132.3471  152.5229 C   0  0  0  0  0  0  0  0  0  0  0  0
  146.6411  131.4347  151.9109 N   0  0  0  0  0  0  0  0  0  0  0  0
  145.6785  131.8340  150.8124 C   0  0  1  0  0  0  0  0  0  0  0  0
  144.2335  131.4980  151.2128 C   0  0  0  0  0  0  0  0  0  0  0  0
  143.4769  132.7566  150.8329 C   0  0  2  0  0  0  0  0  0  0  0  0
  143.0180  132.6791  149.4960 O   0  0  0  0  0  0  0  0  0  0  0  0
  144.5444  133.8409  151.0196 C   0  0  2  0  0  0  0  0  0  0  0  0
  144.3190  135.1769  150.2905 C   0  0  0  0  0  0  0  0  0  0  0  0
  144.0206  134.9455  148.9303 O   0  0  0  0  0  0  0  0  0  0  0  0
  145.7491  133.2136  150.5910 O   0  0  0  0  0  0  0  0  0  0  0  0
  146.6525  130.0887  152.3281 C   0  0  0  0  0  0  0  0  0  0  0  0
  145.9034  129.2608  151.8042 O   0  0  0  0  0  0  0  0  0  0  0  0
  147.5418  129.7148  153.3601 N   0  0  0  0  0  0  0  0  0  0  0  0
  147.5740  128.2962  153.7806 C   0  0  0  0  0  0  0  0  0  0  0  0
  148.5058  127.4284  152.9201 C   0  0  0  0  0  0  0  0  0  0  0  0
  149.6820  127.2687  153.2477 O   0  0  0  0  0  0  0  0  0  0  0  0
  147.9246  126.8580  151.8488 N   0  0  0  0  0  0  0  0  0  0  0  0
  148.4977  126.0257  150.8477 C   0  0  0  0  0  0  0  0  0  0  0  0
  149.8317  126.2908  150.4818 C   0  0  0  0  0  0  0  0  0  0  0  0
  150.4843  125.5037  149.5138 C   0  0  0  0  0  0  0  0  0  0  0  0
  149.8178  124.4211  148.8894 C   0  0  0  0  0  0  0  0  0  0  0  0
  150.4968  123.5340  147.8280 C   0  0  0  0  0  0  0  0  0  0  0  0
  149.7070  123.6095  146.5042 C   0  0  0  0  0  0  0  0  0  0  0  0
  150.5715  122.0470  148.2427 C   0  0  0  0  0  0  0  0  0  0  0  0
  151.9391  124.0268  147.5892 C   0  0  0  0  0  0  0  0  0  0  0  0
  148.4809  124.1556  149.2688 C   0  0  0  0  0  0  0  0  0  0  0  0
  147.8271  124.9400  150.2379 C   0  0  0  0  0  0  0  0  0  0  0  0
  148.4201  130.6352  153.9829 C   0  0  0  0  0  0  0  0  0  0  0  0
  149.1959  130.2642  154.8657 O   0  0  0  0  0  0  0  0  0  0  0  0
  149.1142  134.0443  153.7393 H   0  0  0  0  0  0  0  0  0  0  0  0
  150.3042  132.7754  154.0176 H   0  0  0  0  0  0  0  0  0  0  0  0
  149.0624  133.1095  155.2320 H   0  0  0  0  0  0  0  0  0  0  0  0
  147.4589  133.3784  152.2066 H   0  0  0  0  0  0  0  0  0  0  0  0
  146.0159  131.3266  149.9072 H   0  0  0  0  0  0  0  0  0  0  0  0
  143.8826  130.5931  150.7150 H   0  0  0  0  0  0  0  0  0  0  0  0
  144.1790  131.3463  152.2922 H   0  0  0  0  0  0  0  0  0  0  0  0
  142.6164  132.9228  151.4817 H   0  0  0  0  0  0  0  0  0  0  0  0
  142.3286  133.3144  149.3769 H   0  0  0  0  0  0  0  0  0  0  0  0
  144.6489  134.0372  152.0879 H   0  0  0  0  0  0  0  0  0  0  0  0
  143.4759  135.7043  150.7375 H   0  0  0  0  0  0  0  0  0  0  0  0
  145.1837  135.8350  150.3739 H   0  0  0  0  0  0  0  0  0  0  0  0
  144.7948  134.6089  148.5054 H   0  0  0  0  0  0  0  0  0  0  0  0
  147.8813  128.1950  154.8223 H   0  0  0  0  0  0  0  0  0  0  0  0
  146.5692  127.8701  153.7625 H   0  0  0  0  0  0  0  0  0  0  0  0
  146.9312  127.0140  151.7583 H   0  0  0  0  0  0  0  0  0  0  0  0
  150.3661  127.1080  150.9442 H   0  0  0  0  0  0  0  0  0  0  0  0
  151.5044  125.7563  149.2716 H   0  0  0  0  0  0  0  0  0  0  0  0
  150.1526  122.9723  145.7395 H   0  0  0  0  0  0  0  0  0  0  0  0
  149.6790  124.6206  146.0979 H   0  0  0  0  0  0  0  0  0  0  0  0
  148.6756  123.2827  146.6414 H   0  0  0  0  0  0  0  0  0  0  0  0
  149.5796  121.6225  148.4026 H   0  0  0  0  0  0  0  0  0  0  0  0
  151.1506  121.9110  149.1570 H   0  0  0  0  0  0  0  0  0  0  0  0
  151.0533  121.4457  147.4706 H   0  0  0  0  0  0  0  0  0  0  0  0
  152.4543  123.4059  146.8553 H   0  0  0  0  0  0  0  0  0  0  0  0
  152.5232  123.9971  148.5098 H   0  0  0  0  0  0  0  0  0  0  0  0
  151.9667  125.0508  147.2164 H   0  0  0  0  0  0  0  0  0  0  0  0
  147.9401  123.3360  148.8201 H   0  0  0  0  0  0  0  0  0  0  0  0
  146.8156  124.6757  150.5022 H   0  0  0  0  0  0  0  0  0  0  0  0
  1  2  1  0  0  0  0
  1 32  1  0  0  0  0
  1 33  1  0  0  0  0
  1 34  1  0  0  0  0
  2 30  1  0  0  0  0
  2  3  2  0  0  0  0
  3  4  1  0  0  0  0
  3 35  1  0  0  0  0
  4  5  1  0  0  0  0
  4 13  1  0  0  0  0
  5 12  1  0  0  0  0
  5  6  1  0  0  0  0
  5 36  1  0  0  0  0
  6  7  1  0  0  0  0
  6 37  1  0  0  0  0
  6 38  1  0  0  0  0
  7  8  1  0  0  0  0
  7  9  1  0  0  0  0
  7 39  1  0  0  0  0
  8 40  1  0  0  0  0
  9 10  1  0  0  0  0
  9 12  1  0  0  0  0
  9 41  1  0  0  0  0
 10 11  1  0  0  0  0
 10 42  1  0  0  0  0
 10 43  1  0  0  0  0
 11 44  1  0  0  0  0
 13 14  2  0  0  0  0
 13 15  1  0  0  0  0
 15 16  1  0  0  0  0
 15 30  1  0  0  0  0
 16 17  1  0  0  0  0
 16 45  1  0  0  0  0
 16 46  1  0  0  0  0
 17 18  2  0  0  0  0
 17 19  1  0  0  0  0
 19 20  1  0  0  0  0
 19 47  1  0  0  0  0
 20 29  1  0  0  0  0
 20 21  2  0  0  0  0
 21 22  1  0  0  0  0
 21 48  1  0  0  0  0
 22 23  2  0  0  0  0
 22 49  1  0  0  0  0
 23 24  1  0  0  0  0
 23 28  1  0  0  0  0
 24 25  1  0  0  0  0
 24 26  1  0  0  0  0
 24 27  1  0  0  0  0
 25 50  1  0  0  0  0
 25 51  1  0  0  0  0
 25 52  1  0  0  0  0
 26 53  1  0  0  0  0
 26 54  1  0  0  0  0
 26 55  1  0  0  0  0
 27 56  1  0  0  0  0
 27 57  1  0  0  0  0
 27 58  1  0  0  0  0
 28 29  2  0  0  0  0
 28 59  1  0  0  0  0
 29 60  1  0  0  0  0
 30 31  2  0  0  0  0
M  END
> <s_m_source_file>
AV-unprocessed.smi

> <i_m_source_file_index>
284

> <i_lp_mmshare_version>
43012

> <i_f3d_flags>
0

> <s_epik_input>
W09IXVtDSDJdW0NAQEhdKE8xKVtDQEhdKFtPSF0pW0NIMl1bQ0BIXTFuKFtjSF1jMltDSDNdKWMoPU8pbihjMj1PKVtDSDJdQyg9TylbTkhdYzNbY0hdW2NIXWMoQyhbQ0gzXSkoW0NIM10pW0NIM10pW2NIXVtjSF0z

> <s_epik_cmdline>
J2VwaWtfcHl0aG9uJywgJy1waCcsICc3LjAnLCAnLXRuJywgJzgnLCAnLW1hJywgJzIwMCcsICctbWV0YWxfYmluZGluZycsICctaW1hZScsICc8aW5maWxlLm1hZT4nLCAnLW9tYWUnLCAnPG91dGZpbGUubWFlPic=

> <r_lp_tautomer_probability>
1

> <r_epik_Ionization_Penalty>
4.92358e-06

> <r_epik_Ionization_Penalty_Charging>
1.29777e-07

> <r_epik_Ionization_Penalty_Neutral>
4.79381e-06

> <r_epik_State_Penalty>
-0

> <r_epik_Charging_Adjusted_Penalty>
1.29777e-07

> <i_epik_Tot_Q>
0

> <i_epik_Tot_abs_Q>
0

> <r_epik_Metal_State_Penalty>
-0

> <b_epik_Metal_Only>
0

> <s_epik_Chemistry_Notes>
This compound contains an acetal/aminal-like group ( X-CH(R)-Y where X, Y are N, S, or O) that may be acid/base labile, releasing an aldehyde.

> <s_lp_Force_Field>
OPLS_2005

> <r_lp_Energy>
40.7373

> <b_lp_Chiralities_Consistent>
1

> <s_lp_Variant>
AV-unprocessed.smi:284-8

> <Gold.Version>
5.8.1

> <Gold.Id.Protein>
6NUR|6NUR_protein|mol2

> <Gold.PLP.Fitness>
55.0563

> <Gold.PLP.PLP>
-51.0078

> <Gold.PLP.part.hbond>
-2.4313

> <Gold.PLP.part.metal>
0.0000

> <Gold.PLP.part.buried>
-3.4245

> <Gold.PLP.part.nonpolar>
-46.0053

> <Gold.PLP.part.repulsive>
1.2817

> <Gold.PLP.ligand.clash>
0.0000

> <Gold.PLP.ligand.torsion>
1.0424

> <Gold.PLP.Chemscore.Hbond>
2.0000

> <Gold.PLP.Chemscore.CHOScore>
0.0000

> <Gold.PLP.Chemscore.Metal>
0.0000

> <Gold.Chemscore.Hbonds>
donor molecule, donor type, donor heavy atom, donor atom, acceptor molecule, acceptor atom, score
      L1  H     8    40       P1 10186  1.00
      L1  H    11    44       P1  7921  1.00

> <Gold.PLP.Chemscore.Internal.Correction>
0.1333

> <Gold.Rescore>
     Score         DG    S(hbond)    S(metal)    S(lipo)     H(rot)  DE(clash)    DE(int)     intcor
     10.20     -16.22       1.98        0.00     106.73       3.27       2.43       3.59       ----

> <Gold.Chemscore.Fitness>
10.1972

> <Gold.Chemscore.DG>
-16.2175

> <Gold.Chemscore.ZeroCoef>
-5.4800

> <Gold.Chemscore.Hbond>
1.9850

> <Gold.Chemscore.Metal>
0.0000

> <Gold.Chemscore.Lipo>
106.7327

> <Gold.Chemscore.Internal_Hbond>
0.0000

> <Gold.Chemscore.DEClash>
2.4348

> <Gold.Chemscore.DEInternal>
3.5855

> <Gold.Chemscore.Rot>
3.2735

> <Gold.Chemscore.Internal.Correction>
   9.000000E+99

> <Gold.Chemscore.Hbonds>
donor molecule, donor type, donor heavy atom, donor atom, acceptor molecule, acceptor atom, score
      L1  H     8    40       P1 10186  1.00
      L1  H    11    44       P1  7921  0.94

> <Gold.Chemscore.Hbond.Weighted>
-6.6298

> <Gold.Chemscore.Metal.Weighted>
-0.0000

> <Gold.Chemscore.Lipo.Weighted>
-12.4877

> <Gold.Chemscore.Internal_Hbond.Weighted>
0.0000

> <Gold.Chemscore.DEClash.Weighted>
2.4348

> <Gold.Chemscore.DEInternal.Weighted>
3.5855

> <Gold.Chemscore.Rot.Weighted>
8.3801

> <Gold.Chemscore.Internal.Correction.Weighted>
   9.000000E+99

> <Gold.Protein.RotatedTorsions>
[ 6907 6896 6895 6894 ] final   59.98 input  -60.11 | X-H torsion
[ 7974 7965 7964 7962 ] final   55.37 input  175.53 | X-H torsion
[ 8008 7997 7996 7995 ] final -168.03 input   59.86 | X-H torsion
[ 10167 10162 10161 10158 ] final  -40.68 input  -65.29 | X-H torsion
[ 10718 10713 10712 10709 ] final -177.72 input   66.30 | X-H torsion
[ 10763 10752 10751 10750 ] final   90.79 input  -60.55 | X-H torsion
[ 11005 11000 10999 10996 ] final   -4.39 input  -57.11 | X-H torsion

> <Gold.Protein.ActiveResidues>
 VAL166  LYS551  ARG553  GLY616  TRP617  ASP618  TYR619  PRO620  LYS621  CYS622 
 ASP623  PHE694  ASN695  SER759  ASP760  ASP761  ALA762  ILE779  LEU786  VAL792 
 PHE793  MET794  SER795  GLU796  ALA797  LYS798  CYS799  TRP800  GLU811  SER814 

> <Gold.Protein.RotatedAtoms>
  152.3963  134.6360  160.0087 H   0  0  0  0  0  0  0  0  0  0  0  0  # atno 6907 bound_to 6896
  151.6579  133.3312  159.3175 H   0  0  0  0  0  0  0  0  0  0  0  0  # atno 6908 bound_to 6896
  150.7870  134.6906  159.6539 H   0  0  0  0  0  0  0  0  0  0  0  0  # atno 6909 bound_to 6896
  145.9511  139.3973  143.0305 H   0  0  0  0  0  0  0  0  0  0  0  0  # atno 7974 bound_to 7965
  155.8859  140.1016  157.1453 H   0  0  0  0  0  0  0  0  0  0  0  0  # atno 8008 bound_to 7997
  154.4010  140.1320  156.4318 H   0  0  0  0  0  0  0  0  0  0  0  0  # atno 8009 bound_to 7997
  155.7590  140.3463  155.5190 H   0  0  0  0  0  0  0  0  0  0  0  0  # atno 8010 bound_to 7997
  140.7027  143.3139  151.2958 H   0  0  0  0  0  0  0  0  0  0  0  0  # atno 10167 bound_to 10162
  156.8336  130.9662  151.3105 H   0  0  0  0  0  0  0  0  0  0  0  0  # atno 10718 bound_to 10713
  153.2013  135.4421  155.0270 H   0  0  0  0  0  0  0  0  0  0  0  0  # atno 10763 bound_to 10752
  154.8148  135.3310  154.7207 H   0  0  0  0  0  0  0  0  0  0  0  0  # atno 10764 bound_to 10752
  153.7652  135.6988  153.4973 H   0  0  0  0  0  0  0  0  0  0  0  0  # atno 10765 bound_to 10752
  140.6798  133.9164  155.8547 H   0  0  0  0  0  0  0  0  0  0  0  0  # atno 11005 bound_to 11000
  145.8170  140.9698  143.0919 LP  0  0  0  0  0  0  0  0  0  0  0  0  # atno 17320 bound_to 7965
  144.6796  139.9993  143.7484 LP  0  0  0  0  0  0  0  0  0  0  0  0  # atno 17321 bound_to 7965
  139.6571  144.0256  152.2667 LP  0  0  0  0  0  0  0  0  0  0  0  0  # atno 17342 bound_to 10162
  139.9811  144.6427  150.7899 LP  0  0  0  0  0  0  0  0  0  0  0  0  # atno 17343 bound_to 10162
  157.6393  130.8793  149.9419 LP  0  0  0  0  0  0  0  0  0  0  0  0  # atno 17370 bound_to 10713
  156.0920  130.3662  150.0377 LP  0  0  0  0  0  0  0  0  0  0  0  0  # atno 17371 bound_to 10713
  141.0327  134.0734  157.3996 LP  0  0  0  0  0  0  0  0  0  0  0  0  # atno 17394 bound_to 11000
  139.8955  135.0141  156.7006 LP  0  0  0  0  0  0  0  0  0  0  0  0  # atno 17395 bound_to 11000

$$$$
