AV-unprocessed.smi:544|AV-procd|sdf|2878|dock10
  -GOLD-   2262023373D 1   1.00000     0.00000
 Structure written by MMmdl.
 49 51  0  0  0  0  0  0  0  0  1 V2000
  148.1120  137.0239  158.9211 C   0  0  0  0  0  0  0  0  0  0  0  0
  149.5718  137.4405  159.1136 C   0  0  0  0  0  0  0  0  0  0  0  0
  150.0667  137.9340  157.8819 O   0  0  0  0  0  0  0  0  0  0  0  0
  151.4465  138.2565  157.9233 C   0  0  0  0  0  0  0  0  0  0  0  0
  151.8574  139.0749  156.6848 C   0  0  0  0  0  0  0  0  0  0  0  0
  150.8252  139.9958  156.2101 N   0  0  0  0  0  0  0  0  0  0  0  0
  150.4938  141.2256  156.6913 C   0  0  0  0  0  0  0  0  0  0  0  0
  151.1288  141.7890  157.7979 N   0  0  0  0  0  0  0  0  0  0  0  0
  151.5766  141.0608  158.9832 C   0  0  0  0  0  0  0  0  0  0  0  0
  153.0099  141.4465  159.3852 C   0  0  0  0  0  0  0  0  0  0  0  0
  153.1084  142.9583  159.6299 C   0  0  0  0  0  0  0  0  0  0  0  0
  152.5486  143.7323  158.4235 C   0  0  2  0  0  0  0  0  0  0  0  0
  152.5547  145.2465  158.6726 C   0  0  0  0  0  0  0  0  0  0  0  0
  151.1338  143.2233  158.0794 C   0  0  0  0  0  0  0  0  0  0  0  0
  149.5507  141.8629  155.9924 N   0  0  0  0  0  0  0  0  0  0  0  0
  149.2391  140.9594  154.9890 C   0  0  0  0  0  0  0  0  0  0  0  0
  150.0004  139.8405  155.0924 C   0  0  0  0  0  0  0  0  0  0  0  0
  149.9053  138.7349  154.1274 C   0  0  0  0  0  0  0  0  0  0  0  0
  150.6100  137.7290  154.1729 O   0  0  0  0  0  0  0  0  0  0  0  0
  148.9615  138.9380  153.1767 N   0  0  0  0  0  0  0  0  0  0  0  0
  148.1529  140.0309  153.0276 C   0  0  0  0  0  0  0  0  0  0  0  0
  147.3296  140.0663  152.1133 O   0  0  0  0  0  0  0  0  0  0  0  0
  148.3015  141.0597  153.9220 N   0  0  0  0  0  0  0  0  0  0  0  0
  147.4770  142.2638  153.8022 C   0  0  0  0  0  0  0  0  0  0  0  0
  148.8448  138.2001  152.4977 H   0  0  0  0  0  0  0  0  0  0  0  0
  147.6914  136.6367  159.8493 H   0  0  0  0  0  0  0  0  0  0  0  0
  148.0242  136.2455  158.1625 H   0  0  0  0  0  0  0  0  0  0  0  0
  147.5026  137.8706  158.6039 H   0  0  0  0  0  0  0  0  0  0  0  0
  149.6413  138.2095  159.8843 H   0  0  0  0  0  0  0  0  0  0  0  0
  150.1644  136.5854  159.4423 H   0  0  0  0  0  0  0  0  0  0  0  0
  151.6599  138.8056  158.8381 H   0  0  0  0  0  0  0  0  0  0  0  0
  152.0408  137.3426  157.9634 H   0  0  0  0  0  0  0  0  0  0  0  0
  152.7735  139.6287  156.8839 H   0  0  0  0  0  0  0  0  0  0  0  0
  152.1104  138.3989  155.8690 H   0  0  0  0  0  0  0  0  0  0  0  0
  150.8942  141.2823  159.8050 H   0  0  0  0  0  0  0  0  0  0  0  0
  151.4947  139.9898  158.8175 H   0  0  0  0  0  0  0  0  0  0  0  0
  153.3044  140.9039  160.2836 H   0  0  0  0  0  0  0  0  0  0  0  0
  153.7104  141.1530  158.6038 H   0  0  0  0  0  0  0  0  0  0  0  0
  152.5448  143.2167  160.5276 H   0  0  0  0  0  0  0  0  0  0  0  0
  154.1446  143.2406  159.8188 H   0  0  0  0  0  0  0  0  0  0  0  0
  153.1942  143.5358  157.5658 H   0  0  0  0  0  0  0  0  0  0  0  0
  151.9198  145.5113  159.5188 H   0  0  0  0  0  0  0  0  0  0  0  0
  152.1895  145.7881  157.7999 H   0  0  0  0  0  0  0  0  0  0  0  0
  153.5620  145.6053  158.8861 H   0  0  0  0  0  0  0  0  0  0  0  0
  150.7550  143.7591  157.2082 H   0  0  0  0  0  0  0  0  0  0  0  0
  150.4423  143.4325  158.8968 H   0  0  0  0  0  0  0  0  0  0  0  0
  147.4666  142.6328  152.7755 H   0  0  0  0  0  0  0  0  0  0  0  0
  147.8394  143.0794  154.4280 H   0  0  0  0  0  0  0  0  0  0  0  0
  146.4500  142.0484  154.0984 H   0  0  0  0  0  0  0  0  0  0  0  0
  1  2  1  0  0  0  0
  1 26  1  0  0  0  0
  1 27  1  0  0  0  0
  1 28  1  0  0  0  0
  2  3  1  0  0  0  0
  2 29  1  0  0  0  0
  2 30  1  0  0  0  0
  3  4  1  0  0  0  0
  4  5  1  0  0  0  0
  4 31  1  0  0  0  0
  4 32  1  0  0  0  0
  5  6  1  0  0  0  0
  5 33  1  0  0  0  0
  5 34  1  0  0  0  0
  6 17  1  0  0  0  0
  6  7  1  0  0  0  0
  7  8  1  0  0  0  0
  7 15  2  0  0  0  0
  8 14  1  0  0  0  0
  8  9  1  0  0  0  0
  9 10  1  0  0  0  0
  9 35  1  0  0  0  0
  9 36  1  0  0  0  0
 10 11  1  0  0  0  0
 10 37  1  0  0  0  0
 10 38  1  0  0  0  0
 11 12  1  0  0  0  0
 11 39  1  0  0  0  0
 11 40  1  0  0  0  0
 12 13  1  0  0  0  0
 12 14  1  0  0  0  0
 12 41  1  0  0  0  0
 13 42  1  0  0  0  0
 13 43  1  0  0  0  0
 13 44  1  0  0  0  0
 14 45  1  0  0  0  0
 14 46  1  0  0  0  0
 15 16  1  0  0  0  0
 16 23  1  0  0  0  0
 16 17  2  0  0  0  0
 17 18  1  0  0  0  0
 18 19  2  0  0  0  0
 18 20  1  0  0  0  0
 20 25  1  0  0  0  0
 20 21  1  0  0  0  0
 21 22  2  0  0  0  0
 21 23  1  0  0  0  0
 23 24  1  0  0  0  0
 24 47  1  0  0  0  0
 24 48  1  0  0  0  0
 24 49  1  0  0  0  0
M  END
> <s_m_source_file>
AV-unprocessed.smi

> <i_m_source_file_index>
544

> <i_lp_mmshare_version>
43012

> <i_f3d_flags>
0

> <s_epik_input>
W0NIM11uMWMoPU8pW25IXWMoPU8pYyhjMTIpbihbQ0gyXVtDSDJdT1tDSDJdW0NIM10pYyhuMilOM1tDSDJdW0NIMl1bQ0gyXVtDQEBIXShbQ0gzXSlbQ0gyXTM=

> <s_epik_cmdline>
J2VwaWtfcHl0aG9uJywgJy1waCcsICc3LjAnLCAnLXRuJywgJzgnLCAnLW1hJywgJzIwMCcsICctbWV0YWxfYmluZGluZycsICctaW1hZScsICc8aW5maWxlLm1hZT4nLCAnLW9tYWUnLCAnPG91dGZpbGUubWFlPic=

> <r_lp_tautomer_probability>
1

> <r_epik_Ionization_Penalty>
0.000382477

> <r_epik_Ionization_Penalty_Charging>
0.000119472

> <r_epik_Ionization_Penalty_Neutral>
0.000263005

> <r_epik_State_Penalty>
-0

> <r_epik_Charging_Adjusted_Penalty>
0.000119472

> <i_epik_Tot_Q>
0

> <i_epik_Tot_abs_Q>
0

> <r_epik_Metal_State_Penalty>
0.0919313

> <b_epik_Metal_Only>
0

> <s_lp_Force_Field>
OPLS_2005

> <r_lp_Energy>
37.0872

> <b_lp_Chiralities_Consistent>
1

> <s_lp_Variant>
AV-unprocessed.smi:544-2

> <Gold.Version>
5.8.1

> <Gold.Id.Protein>
6NUR|6NUR_protein|mol2

> <Gold.PLP.Fitness>
48.0487

> <Gold.PLP.PLP>
-46.0302

> <Gold.PLP.part.hbond>
-2.0000

> <Gold.PLP.part.metal>
0.0000

> <Gold.PLP.part.buried>
-5.7207

> <Gold.PLP.part.nonpolar>
-41.8198

> <Gold.PLP.part.repulsive>
2.8138

> <Gold.PLP.ligand.clash>
0.0000

> <Gold.PLP.ligand.torsion>
0.7693

> <Gold.PLP.Chemscore.Hbond>
1.0000

> <Gold.PLP.Chemscore.CHOScore>
0.0000

> <Gold.PLP.Chemscore.Metal>
0.0000

> <Gold.Chemscore.Hbonds>
donor molecule, donor type, donor heavy atom, donor atom, acceptor molecule, acceptor atom, score
      L1  H    20    25       P1  7948  0.99

> <Gold.PLP.Chemscore.Internal.Correction>
0.5570

> <Gold.Rescore>
     Score         DG    S(hbond)    S(metal)    S(lipo)     H(rot)  DE(clash)    DE(int)     intcor
     14.68     -15.66       1.00        0.00      93.11       1.58       0.02       0.96       ----

> <Gold.Chemscore.Fitness>
14.6834

> <Gold.Chemscore.DG>
-15.6635

> <Gold.Chemscore.ZeroCoef>
-5.4800

> <Gold.Chemscore.Hbond>
0.9989

> <Gold.Chemscore.Metal>
0.0000

> <Gold.Chemscore.Lipo>
93.1050

> <Gold.Chemscore.Internal_Hbond>
0.0000

> <Gold.Chemscore.DEClash>
0.0185

> <Gold.Chemscore.DEInternal>
0.9616

> <Gold.Chemscore.Rot>
1.5806

> <Gold.Chemscore.Internal.Correction>
   9.000000E+99

> <Gold.Chemscore.Hbonds>
donor molecule, donor type, donor heavy atom, donor atom, acceptor molecule, acceptor atom, score
      L1  H    20    25       P1  7948  0.90

> <Gold.Chemscore.Hbond.Weighted>
-3.3365

> <Gold.Chemscore.Metal.Weighted>
-0.0000

> <Gold.Chemscore.Lipo.Weighted>
-10.8933

> <Gold.Chemscore.Internal_Hbond.Weighted>
0.0000

> <Gold.Chemscore.DEClash.Weighted>
0.0185

> <Gold.Chemscore.DEInternal.Weighted>
0.9616

> <Gold.Chemscore.Rot.Weighted>
4.0463

> <Gold.Chemscore.Internal.Correction.Weighted>
   9.000000E+99

> <Gold.Protein.RotatedTorsions>
[ 6907 6896 6895 6894 ] final  -44.31 input  -60.11 | X-H torsion
[ 7974 7965 7964 7962 ] final  -51.12 input  175.53 | X-H torsion
[ 8008 7997 7996 7995 ] final    9.76 input   59.86 | X-H torsion
[ 10167 10162 10161 10158 ] final   67.15 input  -65.29 | X-H torsion
[ 10718 10713 10712 10709 ] final  151.97 input   66.30 | X-H torsion
[ 10763 10752 10751 10750 ] final   60.68 input  -60.55 | X-H torsion
[ 11005 11000 10999 10996 ] final -105.98 input  -57.11 | X-H torsion

> <Gold.Protein.ActiveResidues>
 VAL166  LYS551  ARG553  GLY616  TRP617  ASP618  TYR619  PRO620  LYS621  CYS622 
 ASP623  PHE694  ASN695  SER759  ASP760  ASP761  ALA762  ILE779  LEU786  VAL792 
 PHE793  MET794  SER795  GLU796  ALA797  LYS798  CYS799  TRP800  GLU811  SER814 

> <Gold.Protein.RotatedAtoms>
  150.9342  134.8756  159.7570 H   0  0  0  0  0  0  0  0  0  0  0  0  # atno 6907 bound_to 6896
  152.5052  134.4034  159.9434 H   0  0  0  0  0  0  0  0  0  0  0  0  # atno 6908 bound_to 6896
  151.4059  133.3702  159.2773 H   0  0  0  0  0  0  0  0  0  0  0  0  # atno 6909 bound_to 6896
  145.9224  140.7821  142.9640 H   0  0  0  0  0  0  0  0  0  0  0  0  # atno 7974 bound_to 7965
  154.7844  140.2824  155.6039 H   0  0  0  0  0  0  0  0  0  0  0  0  # atno 8008 bound_to 7997
  156.2955  140.2617  156.2605 H   0  0  0  0  0  0  0  0  0  0  0  0  # atno 8009 bound_to 7997
  154.9746  140.0375  157.2239 H   0  0  0  0  0  0  0  0  0  0  0  0  # atno 8010 bound_to 7997
  140.0927  144.4974  150.7088 H   0  0  0  0  0  0  0  0  0  0  0  0  # atno 10167 bound_to 10162
  157.2639  131.0803  151.1647 H   0  0  0  0  0  0  0  0  0  0  0  0  # atno 10718 bound_to 10713
  152.9928  135.5527  154.5913 H   0  0  0  0  0  0  0  0  0  0  0  0  # atno 10763 bound_to 10752
  154.5274  135.2811  155.1212 H   0  0  0  0  0  0  0  0  0  0  0  0  # atno 10764 bound_to 10752
  154.2541  135.6393  153.5303 H   0  0  0  0  0  0  0  0  0  0  0  0  # atno 10765 bound_to 10752
  141.1027  133.8854  157.1801 H   0  0  0  0  0  0  0  0  0  0  0  0  # atno 11005 bound_to 11000
  144.6754  140.1997  143.7388 LP  0  0  0  0  0  0  0  0  0  0  0  0  # atno 17320 bound_to 7965
  145.8532  139.2186  143.1760 LP  0  0  0  0  0  0  0  0  0  0  0  0  # atno 17321 bound_to 7965
  140.7020  143.2441  151.4837 LP  0  0  0  0  0  0  0  0  0  0  0  0  # atno 17342 bound_to 10162
  139.5715  144.1917  152.1843 LP  0  0  0  0  0  0  0  0  0  0  0  0  # atno 17343 bound_to 10162
  157.3146  130.6906  149.6234 LP  0  0  0  0  0  0  0  0  0  0  0  0  # atno 17370 bound_to 10713
  155.9663  130.4353  150.5087 LP  0  0  0  0  0  0  0  0  0  0  0  0  # atno 17371 bound_to 10713
  139.9884  135.0073  156.9918 LP  0  0  0  0  0  0  0  0  0  0  0  0  # atno 17394 bound_to 11000
  140.4982  134.1124  155.7245 LP  0  0  0  0  0  0  0  0  0  0  0  0  # atno 17395 bound_to 11000

$$$$
