AV-unprocessed.smi:1381|AV-procd|sdf|5613|dock2
  -GOLD-   22720 5223D 1   1.00000     0.00000
 Structure written by MMmdl.
 42 43  0  0  0  0  0  0  0  0  3 V2000
  148.2381  140.2506  154.5436 C   0  0  0  0  0  0  0  0  0  0  0  0
  149.2837  139.2035  154.7206 C   0  0  0  0  0  0  0  0  0  0  0  0
  149.2283  137.8895  155.0901 C   0  0  0  0  0  0  0  0  0  0  0  0
  150.5910  137.4856  155.0591 C   0  0  0  0  0  0  0  0  0  0  0  0
  151.0564  136.2579  155.3368 N   0  5  0  0  0  0  0  0  0  0  0  0
  150.2023  135.2165  155.4578 C   0  0  0  0  0  0  0  0  0  0  0  0
  150.0529  134.5028  156.4525 O   0  0  0  0  0  0  0  0  0  0  0  0
  149.4747  134.9855  154.3556 N   0  0  0  0  0  0  0  0  0  0  0  0
  148.4798  133.9315  154.1996 C   0  0  0  0  0  0  0  0  0  0  0  0
  148.9821  132.8198  153.2596 C   0  0  0  0  0  0  0  0  0  0  0  0
  147.8724  132.1573  152.5314 N   0  3  1  0  0  0  0  0  0  0  0  0
  147.1361  131.1899  153.3789 C   0  0  0  0  0  0  0  0  0  0  0  0
  146.0325  130.4726  152.5767 C   0  0  2  0  0  0  0  0  0  0  0  0
  146.5716  129.4192  151.5922 C   0  0  0  0  0  0  0  0  0  0  0  0
  145.1869  131.4277  151.9356 O   0  0  0  0  0  0  0  0  0  0  0  0
  145.8635  132.3527  151.0879 C   0  0  1  0  0  0  0  0  0  0  0  0
  144.8160  133.2979  150.4898 C   0  0  0  0  0  0  0  0  0  0  0  0
  146.9273  133.1106  151.9018 C   0  0  0  0  0  0  0  0  0  0  0  0
  151.4001  138.4635  154.6880 N   0  0  0  0  0  0  0  0  0  0  0  0
  150.5702  139.5704  154.4745 O   0  0  0  0  0  0  0  0  0  0  0  0
  147.7123  140.1135  153.5987 H   0  0  0  0  0  0  0  0  0  0  0  0
  148.6778  141.2483  154.5448 H   0  0  0  0  0  0  0  0  0  0  0  0
  147.5050  140.2049  155.3491 H   0  0  0  0  0  0  0  0  0  0  0  0
  148.3542  137.3097  155.3457 H   0  0  0  0  0  0  0  0  0  0  0  0
  149.6270  135.5945  153.5647 H   0  0  0  0  0  0  0  0  0  0  0  0
  148.2163  133.5395  155.1823 H   0  0  0  0  0  0  0  0  0  0  0  0
  147.5736  134.3806  153.7927 H   0  0  0  0  0  0  0  0  0  0  0  0
  149.6654  133.2721  152.5393 H   0  0  0  0  0  0  0  0  0  0  0  0
  149.5610  132.0720  153.8041 H   0  0  0  0  0  0  0  0  0  0  0  0
  147.8250  130.4561  153.7999 H   0  0  0  0  0  0  0  0  0  0  0  0
  146.6909  131.7235  154.2203 H   0  0  0  0  0  0  0  0  0  0  0  0
  145.4000  129.9408  153.2881 H   0  0  0  0  0  0  0  0  0  0  0  0
  147.1012  128.6288  152.1248 H   0  0  0  0  0  0  0  0  0  0  0  0
  147.2676  129.8439  150.8694 H   0  0  0  0  0  0  0  0  0  0  0  0
  145.7566  128.9525  151.0385 H   0  0  0  0  0  0  0  0  0  0  0  0
  146.3425  131.8187  150.2667 H   0  0  0  0  0  0  0  0  0  0  0  0
  145.2794  134.0250  149.8223 H   0  0  0  0  0  0  0  0  0  0  0  0
  144.2881  133.8478  151.2694 H   0  0  0  0  0  0  0  0  0  0  0  0
  144.0750  132.7438  149.9133 H   0  0  0  0  0  0  0  0  0  0  0  0
  146.4518  133.7168  152.6750 H   0  0  0  0  0  0  0  0  0  0  0  0
  147.4602  133.7971  151.2446 H   0  0  0  0  0  0  0  0  0  0  0  0
  148.2962  131.6202  151.7885 H   0  0  0  0  0  0  0  0  0  0  0  0
  1  2  1  0  0  0  0
  1 21  1  0  0  0  0
  1 22  1  0  0  0  0
  1 23  1  0  0  0  0
  2 20  1  0  0  0  0
  2  3  2  0  0  0  0
  3  4  1  0  0  0  0
  3 24  1  0  0  0  0
  4  5  1  0  0  0  0
  4 19  2  0  0  0  0
  5  6  1  0  0  0  0
  6  7  2  0  0  0  0
  6  8  1  0  0  0  0
  8  9  1  0  0  0  0
  8 25  1  0  0  0  0
  9 10  1  0  0  0  0
  9 26  1  0  0  0  0
  9 27  1  0  0  0  0
 10 11  1  0  0  0  0
 10 28  1  0  0  0  0
 10 29  1  0  0  0  0
 11 18  1  0  0  0  0
 11 12  1  0  0  0  0
 11 42  1  0  0  0  0
 12 13  1  0  0  0  0
 12 30  1  0  0  0  0
 12 31  1  0  0  0  0
 13 14  1  0  0  0  0
 13 15  1  0  0  0  0
 13 32  1  0  0  0  0
 14 33  1  0  0  0  0
 14 34  1  0  0  0  0
 14 35  1  0  0  0  0
 15 16  1  0  0  0  0
 16 17  1  0  0  0  0
 16 18  1  0  0  0  0
 16 36  1  0  0  0  0
 17 37  1  0  0  0  0
 17 38  1  0  0  0  0
 17 39  1  0  0  0  0
 18 40  1  0  0  0  0
 18 41  1  0  0  0  0
 19 20  1  0  0  0  0
M  CHG  1   5  -1
M  CHG  1  11   1
M  END
> <s_m_source_file>
AV-unprocessed.smi

> <i_m_source_file_index>
1381

> <i_lp_mmshare_version>
43012

> <i_f3d_flags>
0

> <s_epik_input>
W0NIM11jMVtjSF1jKG5vMSlbTkhdQyg9TylbTkhdW0NIMl1bQ0gyXU4yW0NIMl1bQ0BASF0oW0NIM10pT1tDQEBIXShbQ0gzXSlbQ0gyXTI=

> <s_epik_cmdline>
J2VwaWtfcHl0aG9uJywgJy1waCcsICc3LjAnLCAnLXRuJywgJzgnLCAnLW1hJywgJzIwMCcsICctbWV0YWxfYmluZGluZycsICctaW1hZScsICc8aW5maWxlLm1hZT4nLCAnLW9tYWUnLCAnPG91dGZpbGUubWFlPic=

> <r_epik_Ionization_Penalty>
6.73511

> <r_epik_Ionization_Penalty_Charging>
6.73502

> <r_epik_Ionization_Penalty_Neutral>
9.26583e-05

> <r_epik_State_Penalty>
6.93549

> <r_epik_Charging_Adjusted_Penalty>
13.6705

> <i_epik_Tot_Q>
0

> <i_epik_Tot_abs_Q>
2

> <r_epik_Metal_State_Penalty>
2.87211

> <b_epik_Metal_Only>
1

> <s_lp_Force_Field>
OPLS_2005

> <r_lp_Energy>
5.71057

> <b_lp_Chiralities_Consistent>
1

> <s_lp_Variant>
AV-unprocessed.smi:1381-12

> <Gold.Version>
5.8.1

> <Gold.Id.Protein>
6NUR|6NUR_protein|mol2

> <Gold.PLP.Fitness>
45.8613

> <Gold.PLP.PLP>
-34.2669

> <Gold.PLP.part.hbond>
-4.0000

> <Gold.PLP.part.metal>
0.0000

> <Gold.PLP.part.buried>
-6.5907

> <Gold.PLP.part.nonpolar>
-25.2164

> <Gold.PLP.part.repulsive>
0.5391

> <Gold.PLP.ligand.clash>
0.0000

> <Gold.PLP.ligand.torsion>
0.9456

> <Gold.PLP.Chemscore.Hbond>
4.4664

> <Gold.PLP.Chemscore.CHOScore>
0.0000

> <Gold.PLP.Chemscore.Metal>
0.0000

> <Gold.Chemscore.Hbonds>
donor molecule, donor type, donor heavy atom, donor atom, acceptor molecule, acceptor atom, score
      L1  H     8    25       P1  7948  0.76
      L1  H    11    42       P1 10747  1.00
      P1  H  7989  7998       L1    20  1.00
      P1  H 10752 10763       L1     5  1.56

> <Gold.PLP.Chemscore.Internal.Correction>
0.0865

> <Gold.Rescore>
     Score         DG    S(hbond)    S(metal)    S(lipo)     H(rot)  DE(clash)    DE(int)     intcor
     18.51     -19.56       2.92        0.00      71.69       1.58       0.07       0.98       ----

> <Gold.Chemscore.Fitness>
18.5103

> <Gold.Chemscore.DG>
-19.5627

> <Gold.Chemscore.ZeroCoef>
-5.4800

> <Gold.Chemscore.Hbond>
2.9154

> <Gold.Chemscore.Metal>
0.0000

> <Gold.Chemscore.Lipo>
71.6929

> <Gold.Chemscore.Internal_Hbond>
0.0000

> <Gold.Chemscore.DEClash>
0.0696

> <Gold.Chemscore.DEInternal>
0.9828

> <Gold.Chemscore.Rot>
1.5792

> <Gold.Chemscore.Internal.Correction>
   9.000000E+99

> <Gold.Chemscore.Hbonds>
donor molecule, donor type, donor heavy atom, donor atom, acceptor molecule, acceptor atom, score
      L1  H     8    25       P1  7948  0.11
      L1  H    11    42       P1 10747  1.00
      P1  H  7989  7998       L1    20  0.55
      P1  H 10752 10763       L1     5  0.57

> <Gold.Chemscore.Hbond.Weighted>
-9.7374

> <Gold.Chemscore.Metal.Weighted>
-0.0000

> <Gold.Chemscore.Lipo.Weighted>
-8.3881

> <Gold.Chemscore.Internal_Hbond.Weighted>
0.0000

> <Gold.Chemscore.DEClash.Weighted>
0.0696

> <Gold.Chemscore.DEInternal.Weighted>
0.9828

> <Gold.Chemscore.Rot.Weighted>
4.0428

> <Gold.Chemscore.Internal.Correction.Weighted>
   9.000000E+99

> <Gold.Protein.RotatedTorsions>
[ 6907 6896 6895 6894 ] final  129.76 input  -60.11 | X-H torsion
[ 7974 7965 7964 7962 ] final  -78.39 input  175.53 | X-H torsion
[ 8008 7997 7996 7995 ] final  -53.37 input   59.86 | X-H torsion
[ 10167 10162 10161 10158 ] final  -33.94 input  -65.29 | X-H torsion
[ 10718 10713 10712 10709 ] final  151.65 input   66.30 | X-H torsion
[ 10763 10752 10751 10750 ] final   64.59 input  -60.55 | X-H torsion
[ 11005 11000 10999 10996 ] final   85.07 input  -57.11 | X-H torsion

> <Gold.Protein.ActiveResidues>
 VAL166  LYS551  ARG553  GLY616  TRP617  ASP618  TYR619  PRO620  LYS621  CYS622 
 ASP623  PHE694  ASN695  SER759  ASP760  ASP761  ALA762  ILE779  LEU786  VAL792 
 PHE793  MET794  SER795  GLU796  ALA797  LYS798  CYS799  TRP800  GLU811  SER814 

> <Gold.Protein.RotatedAtoms>
  152.3592  133.6275  159.6001 H   0  0  0  0  0  0  0  0  0  0  0  0  # atno 6907 bound_to 6896
  150.7589  133.9451  159.3477 H   0  0  0  0  0  0  0  0  0  0  0  0  # atno 6908 bound_to 6896
  151.7291  135.0879  160.0348 H   0  0  0  0  0  0  0  0  0  0  0  0  # atno 6909 bound_to 6896
  145.5872  140.9437  143.1312 H   0  0  0  0  0  0  0  0  0  0  0  0  # atno 7974 bound_to 7965
  154.4131  140.1201  156.5142 H   0  0  0  0  0  0  0  0  0  0  0  0  # atno 8008 bound_to 7997
  155.6768  140.3496  155.4820 H   0  0  0  0  0  0  0  0  0  0  0  0  # atno 8009 bound_to 7997
  155.9586  140.1118  157.0905 H   0  0  0  0  0  0  0  0  0  0  0  0  # atno 8010 bound_to 7997
  140.7195  143.3583  151.2013 H   0  0  0  0  0  0  0  0  0  0  0  0  # atno 10167 bound_to 10162
  157.2679  131.0811  151.1620 H   0  0  0  0  0  0  0  0  0  0  0  0  # atno 10718 bound_to 10713
  153.0062  135.5387  154.6533 H   0  0  0  0  0  0  0  0  0  0  0  0  # atno 10763 bound_to 10752
  154.5760  135.2846  155.0782 H   0  0  0  0  0  0  0  0  0  0  0  0  # atno 10764 bound_to 10752
  154.1930  135.6497  153.5118 H   0  0  0  0  0  0  0  0  0  0  0  0  # atno 10765 bound_to 10752
  139.8982  134.8261  156.2532 H   0  0  0  0  0  0  0  0  0  0  0  0  # atno 11005 bound_to 11000
  144.7367  139.7564  143.7326 LP  0  0  0  0  0  0  0  0  0  0  0  0  # atno 17320 bound_to 7965
  146.1674  139.4810  142.9950 LP  0  0  0  0  0  0  0  0  0  0  0  0  # atno 17321 bound_to 7965
  139.7130  143.9346  152.2955 LP  0  0  0  0  0  0  0  0  0  0  0  0  # atno 17342 bound_to 10162
  139.9077  144.6875  150.8596 LP  0  0  0  0  0  0  0  0  0  0  0  0  # atno 17343 bound_to 10162
  157.3104  130.6887  149.6212 LP  0  0  0  0  0  0  0  0  0  0  0  0  # atno 17370 bound_to 10713
  155.9663  130.4365  150.5137 LP  0  0  0  0  0  0  0  0  0  0  0  0  # atno 17371 bound_to 10713
  141.0211  133.7041  156.1269 LP  0  0  0  0  0  0  0  0  0  0  0  0  # atno 17394 bound_to 11000
  140.7233  134.4335  157.5573 LP  0  0  0  0  0  0  0  0  0  0  0  0  # atno 17395 bound_to 11000

$$$$
