AV-unprocessed.smi:2829|AV-procd|sdf|10901|dock7
  -GOLD-   2272015353D 1   1.00000     0.00000
 Structure written by MMmdl.
 50 53  0  0  0  0  0  0  0  0  1 V2000
  151.6135  144.7727  160.4428 C   0  0  0  0  0  0  0  0  0  0  0  0
  151.9866  143.9831  159.1708 C   0  0  0  0  0  0  0  0  0  0  0  0
  150.7265  143.7456  158.3123 C   0  0  0  0  0  0  0  0  0  0  0  0
  152.9521  144.8627  158.3444 C   0  0  0  0  0  0  0  0  0  0  0  0
  152.6110  142.6316  159.5622 C   0  0  0  0  0  0  0  0  0  0  0  0
  152.8371  142.2425  160.9020 C   0  0  0  0  0  0  0  0  0  0  0  0
  153.4159  140.9824  161.1286 C   0  0  0  0  0  0  0  0  0  0  0  0
  153.7382  140.1807  160.0154 C   0  0  0  0  0  0  0  0  0  0  0  0
  154.3213  138.9232  160.3199 N   0  0  0  0  0  0  0  0  0  0  0  0
  154.9563  138.5498  161.4487 C   0  0  0  0  0  0  0  0  0  0  0  0
  155.1390  139.2754  162.4242 O   0  0  0  0  0  0  0  0  0  0  0  0
  155.4120  137.2850  161.4263 N   0  0  0  0  0  0  0  0  0  0  0  0
  156.1382  136.5800  162.4849 C   0  0  1  0  0  0  0  0  0  0  0  0
  155.4707  136.6684  163.8778 C   0  0  1  0  0  0  0  0  0  0  0  0
  154.0728  137.1922  164.0875 C   0  0  0  0  0  0  0  0  0  0  0  0
  153.2025  135.9933  163.7245 C   0  0  0  0  0  0  0  0  0  0  0  0
  153.9916  134.8559  164.0725 O   0  0  0  0  0  0  0  0  0  0  0  0
  155.3824  135.1440  163.9045 C   0  0  1  0  0  0  0  0  0  0  0  0
  155.9102  135.0592  162.4606 C   0  0  0  0  0  0  0  0  0  0  0  0
  155.1230  134.3271  161.3534 C   0  0  0  0  0  0  0  0  0  0  0  0
  156.0651  133.1360  161.5411 C   0  0  0  0  0  0  0  0  0  0  0  0
  157.0780  134.1101  162.1473 C   0  0  0  0  0  0  0  0  0  0  0  0
  153.4922  140.6174  158.7549 N   0  0  0  0  0  0  0  0  0  0  0  0
  152.9411  141.8142  158.5326 N   0  0  0  0  0  0  0  0  0  0  0  0
  151.1886  145.7461  160.1958 H   0  0  0  0  0  0  0  0  0  0  0  0
  152.4881  144.9456  161.0714 H   0  0  0  0  0  0  0  0  0  0  0  0
  150.8747  144.2444  161.0467 H   0  0  0  0  0  0  0  0  0  0  0  0
  149.9640  143.1871  158.8564 H   0  0  0  0  0  0  0  0  0  0  0  0
  150.9643  143.1824  157.4089 H   0  0  0  0  0  0  0  0  0  0  0  0
  150.2733  144.6879  158.0024 H   0  0  0  0  0  0  0  0  0  0  0  0
  152.4893  145.8132  158.0764 H   0  0  0  0  0  0  0  0  0  0  0  0
  153.2425  144.3766  157.4124 H   0  0  0  0  0  0  0  0  0  0  0  0
  153.8602  145.0973  158.9014 H   0  0  0  0  0  0  0  0  0  0  0  0
  152.5861  142.8690  161.7438 H   0  0  0  0  0  0  0  0  0  0  0  0
  153.6071  140.6431  162.1363 H   0  0  0  0  0  0  0  0  0  0  0  0
  154.2512  138.2239  159.5956 H   0  0  0  0  0  0  0  0  0  0  0  0
  155.2694  136.7675  160.5708 H   0  0  0  0  0  0  0  0  0  0  0  0
  157.2034  136.8150  162.5258 H   0  0  0  0  0  0  0  0  0  0  0  0
  156.1813  137.0473  164.6134 H   0  0  0  0  0  0  0  0  0  0  0  0
  153.9247  137.4513  165.1363 H   0  0  0  0  0  0  0  0  0  0  0  0
  153.8363  138.0762  163.4960 H   0  0  0  0  0  0  0  0  0  0  0  0
  152.2456  135.9935  164.2466 H   0  0  0  0  0  0  0  0  0  0  0  0
  153.0017  135.9805  162.6526 H   0  0  0  0  0  0  0  0  0  0  0  0
  156.0255  134.6713  164.6476 H   0  0  0  0  0  0  0  0  0  0  0  0
  154.0786  134.1105  161.5761 H   0  0  0  0  0  0  0  0  0  0  0  0
  155.2341  134.7832  160.3684 H   0  0  0  0  0  0  0  0  0  0  0  0
  155.6894  132.4117  162.2658 H   0  0  0  0  0  0  0  0  0  0  0  0
  156.3871  132.6565  160.6163 H   0  0  0  0  0  0  0  0  0  0  0  0
  157.7641  134.5178  161.4028 H   0  0  0  0  0  0  0  0  0  0  0  0
  157.6122  133.7292  163.0180 H   0  0  0  0  0  0  0  0  0  0  0  0
  1  2  1  0  0  0  0
  1 25  1  0  0  0  0
  1 26  1  0  0  0  0
  1 27  1  0  0  0  0
  2  3  1  0  0  0  0
  2  4  1  0  0  0  0
  2  5  1  0  0  0  0
  3 28  1  0  0  0  0
  3 29  1  0  0  0  0
  3 30  1  0  0  0  0
  4 31  1  0  0  0  0
  4 32  1  0  0  0  0
  4 33  1  0  0  0  0
  5 24  1  0  0  0  0
  5  6  2  0  0  0  0
  6  7  1  0  0  0  0
  6 34  1  0  0  0  0
  7  8  2  0  0  0  0
  7 35  1  0  0  0  0
  8  9  1  0  0  0  0
  8 23  1  0  0  0  0
  9 10  1  0  0  0  0
  9 36  1  0  0  0  0
 10 11  2  0  0  0  0
 10 12  1  0  0  0  0
 12 13  1  0  0  0  0
 12 37  1  0  0  0  0
 13 19  1  0  0  0  0
 13 14  1  0  0  0  0
 13 38  1  0  0  0  0
 14 18  1  0  0  0  0
 14 15  1  0  0  0  0
 14 39  1  0  0  0  0
 15 16  1  0  0  0  0
 15 40  1  0  0  0  0
 15 41  1  0  0  0  0
 16 17  1  0  0  0  0
 16 42  1  0  0  0  0
 16 43  1  0  0  0  0
 17 18  1  0  0  0  0
 18 19  1  0  0  0  0
 18 44  1  0  0  0  0
 19 22  1  0  0  0  0
 19 20  1  0  0  0  0
 20 21  1  0  0  0  0
 20 45  1  0  0  0  0
 20 46  1  0  0  0  0
 21 22  1  0  0  0  0
 21 47  1  0  0  0  0
 21 48  1  0  0  0  0
 22 49  1  0  0  0  0
 22 50  1  0  0  0  0
 23 24  2  0  0  0  0
M  END
> <s_m_source_file>
AV-unprocessed.smi

> <i_m_source_file_index>
2829

> <i_lp_mmshare_version>
43012

> <i_f3d_flags>
0

> <s_epik_input>
W0NIM11DKFtDSDNdKShbQ0gzXSljMVtjSF1bY0hdYyhubjEpW05IXUMoPU8pW05IXVtDQEBIXTJbQ0BIXShbQ0gyXVtDSDJdTzMpW0NAQEhdM0MyNFtDSDJdW0NIMl1bQ0gyXTQ=

> <s_epik_cmdline>
J2VwaWtfcHl0aG9uJywgJy1waCcsICc3LjAnLCAnLXRuJywgJzgnLCAnLW1hJywgJzIwMCcsICctbWV0YWxfYmluZGluZycsICctaW1hZScsICc8aW5maWxlLm1hZT4nLCAnLW9tYWUnLCAnPG91dGZpbGUubWFlPic=

> <r_lp_tautomer_probability>
1

> <r_epik_Ionization_Penalty>
0.011915

> <r_epik_Ionization_Penalty_Charging>
0

> <r_epik_Ionization_Penalty_Neutral>
0.011915

> <r_epik_State_Penalty>
0.00486223

> <r_epik_Charging_Adjusted_Penalty>
0.00486223

> <i_epik_Tot_Q>
0

> <i_epik_Tot_abs_Q>
0

> <r_epik_Metal_State_Penalty>
-0

> <b_epik_Metal_Only>
0

> <s_lp_Force_Field>
OPLS_2005

> <r_lp_Energy>
61.8896

> <b_lp_Chiralities_Consistent>
1

> <s_lp_Variant>
AV-unprocessed.smi:2829-4

> <Gold.Version>
5.8.1

> <Gold.Id.Protein>
6NUR|6NUR_protein|mol2

> <Gold.PLP.Fitness>
42.0683

> <Gold.PLP.PLP>
-42.0335

> <Gold.PLP.part.hbond>
-0.5164

> <Gold.PLP.part.metal>
0.0000

> <Gold.PLP.part.buried>
-4.8978

> <Gold.PLP.part.nonpolar>
-36.6648

> <Gold.PLP.part.repulsive>
0.1268

> <Gold.PLP.ligand.clash>
0.0063

> <Gold.PLP.ligand.torsion>
0.3541

> <Gold.PLP.Chemscore.Hbond>
0.1950

> <Gold.PLP.Chemscore.CHOScore>
0.0000

> <Gold.PLP.Chemscore.Metal>
0.0000

> <Gold.Chemscore.Hbonds>
donor molecule, donor type, donor heavy atom, donor atom, acceptor molecule, acceptor atom, score
      P1  H  7997  8008       L1    23  0.60

> <Gold.PLP.Chemscore.Internal.Correction>
0.1644

> <Gold.Rescore>
     Score         DG    S(hbond)    S(metal)    S(lipo)     H(rot)  DE(clash)    DE(int)     intcor
     15.40     -17.57       0.36        0.00     118.36       1.16       0.38       1.79       ----

> <Gold.Chemscore.Fitness>
15.4019

> <Gold.Chemscore.DG>
-17.5702

> <Gold.Chemscore.ZeroCoef>
-5.4800

> <Gold.Chemscore.Hbond>
0.3642

> <Gold.Chemscore.Metal>
0.0000

> <Gold.Chemscore.Lipo>
118.3577

> <Gold.Chemscore.Internal_Hbond>
0.0000

> <Gold.Chemscore.DEClash>
0.3800

> <Gold.Chemscore.DEInternal>
1.7882

> <Gold.Chemscore.Rot>
1.1618

> <Gold.Chemscore.Internal.Correction>
   9.000000E+99

> <Gold.Chemscore.Hbonds>
donor molecule, donor type, donor heavy atom, donor atom, acceptor molecule, acceptor atom, score
      P1  H  7997  8008       L1    23  0.45

> <Gold.Chemscore.Hbond.Weighted>
-1.2164

> <Gold.Chemscore.Metal.Weighted>
-0.0000

> <Gold.Chemscore.Lipo.Weighted>
-13.8478

> <Gold.Chemscore.Internal_Hbond.Weighted>
0.0000

> <Gold.Chemscore.DEClash.Weighted>
0.3800

> <Gold.Chemscore.DEInternal.Weighted>
1.7882

> <Gold.Chemscore.Rot.Weighted>
2.9741

> <Gold.Chemscore.Internal.Correction.Weighted>
   9.000000E+99

> <Gold.Protein.RotatedTorsions>
[ 6907 6896 6895 6894 ] final  164.01 input  -60.11 | X-H torsion
[ 7974 7965 7964 7962 ] final  -36.61 input  175.53 | X-H torsion
[ 8008 7997 7996 7995 ] final  -98.94 input   59.86 | X-H torsion
[ 10167 10162 10161 10158 ] final    1.48 input  -65.29 | X-H torsion
[ 10718 10713 10712 10709 ] final   12.86 input   66.30 | X-H torsion
[ 10763 10752 10751 10750 ] final   -4.54 input  -60.55 | X-H torsion
[ 11005 11000 10999 10996 ] final -141.04 input  -57.11 | X-H torsion

> <Gold.Protein.ActiveResidues>
 VAL166  LYS551  ARG553  GLY616  TRP617  ASP618  TYR619  PRO620  LYS621  CYS622 
 ASP623  PHE694  ASN695  SER759  ASP760  ASP761  ALA762  ILE779  LEU786  VAL792 
 PHE793  MET794  SER795  GLU796  ALA797  LYS798  CYS799  TRP800  GLU811  SER814 

> <Gold.Protein.RotatedAtoms>
  151.9164  133.3574  159.3881 H   0  0  0  0  0  0  0  0  0  0  0  0  # atno 6907 bound_to 6896
  150.7046  134.4680  159.5421 H   0  0  0  0  0  0  0  0  0  0  0  0  # atno 6908 bound_to 6896
  152.2295  134.8335  160.0526 H   0  0  0  0  0  0  0  0  0  0  0  0  # atno 6909 bound_to 6896
  146.0646  140.6299  142.8981 H   0  0  0  0  0  0  0  0  0  0  0  0  # atno 7974 bound_to 7965
  154.8080  140.0451  157.1322 H   0  0  0  0  0  0  0  0  0  0  0  0  # atno 8008 bound_to 7997
  154.9401  140.3051  155.5105 H   0  0  0  0  0  0  0  0  0  0  0  0  # atno 8009 bound_to 7997
  156.2969  140.2307  156.4469 H   0  0  0  0  0  0  0  0  0  0  0  0  # atno 8010 bound_to 7997
  140.6681  143.7125  150.7867 H   0  0  0  0  0  0  0  0  0  0  0  0  # atno 10167 bound_to 10162
  157.0163  130.6137  149.5715 H   0  0  0  0  0  0  0  0  0  0  0  0  # atno 10718 bound_to 10713
  153.3863  135.7000  153.6528 H   0  0  0  0  0  0  0  0  0  0  0  0  # atno 10763 bound_to 10752
  153.5119  135.3630  155.2591 H   0  0  0  0  0  0  0  0  0  0  0  0  # atno 10764 bound_to 10752
  154.8698  135.4137  154.3170 H   0  0  0  0  0  0  0  0  0  0  0  0  # atno 10765 bound_to 10752
  140.8363  134.2456  157.4832 H   0  0  0  0  0  0  0  0  0  0  0  0  # atno 11005 bound_to 11000
  144.7195  140.4325  143.7019 LP  0  0  0  0  0  0  0  0  0  0  0  0  # atno 17320 bound_to 7965
  145.6499  139.1563  143.2868 LP  0  0  0  0  0  0  0  0  0  0  0  0  # atno 17321 bound_to 7965
  140.0805  143.4973  152.2532 LP  0  0  0  0  0  0  0  0  0  0  0  0  # atno 17342 bound_to 10162
  139.5937  144.7559  151.3337 LP  0  0  0  0  0  0  0  0  0  0  0  0  # atno 17343 bound_to 10162
  156.0118  130.5210  150.8012 LP  0  0  0  0  0  0  0  0  0  0  0  0  # atno 17370 bound_to 10713
  157.5283  131.0935  150.9988 LP  0  0  0  0  0  0  0  0  0  0  0  0  # atno 17371 bound_to 10713
  139.8704  134.9612  156.4389 LP  0  0  0  0  0  0  0  0  0  0  0  0  # atno 17394 bound_to 11000
  140.8944  133.7825  155.9608 LP  0  0  0  0  0  0  0  0  0  0  0  0  # atno 17395 bound_to 11000

$$$$
