AV-unprocessed.smi:732|AV-procd|sdf|3528|dock8
  -GOLD-   22720 0523D 1   1.00000     0.00000
 Structure written by MMmdl.
 34 36  0  0  0  0  0  0  0  0  1 V2000
  150.4549  135.4122  155.1929 C   0  0  0  0  0  0  0  0  0  0  0  0
  150.5959  136.1845  156.4596 C   0  0  0  0  0  0  0  0  0  0  0  0
  151.1500  137.3991  156.7516 C   0  0  0  0  0  0  0  0  0  0  0  0
  150.9350  137.5204  158.1503 C   0  0  0  0  0  0  0  0  0  0  0  0
  151.3699  138.6712  158.8555 N   0  0  0  0  0  0  0  0  0  0  0  0
  152.5564  139.2944  158.7563 C   0  0  0  0  0  0  0  0  0  0  0  0
  153.4714  138.9619  158.0022 O   0  0  0  0  0  0  0  0  0  0  0  0
  152.6226  140.3404  159.5906 N   0  0  0  0  0  0  0  0  0  0  0  0
  153.7364  141.2251  159.7316 C   0  0  2  0  0  0  0  0  0  0  0  0
  153.6876  142.3132  160.7900 C   0  0  2  0  0  0  0  0  0  0  0  0
  152.4670  142.6289  161.6413 C   0  0  0  0  0  0  0  0  0  0  0  0
  151.9736  144.0667  161.3857 C   0  0  0  0  0  0  0  0  0  0  0  0
  151.8512  144.4418  159.8861 C   0  0  0  0  0  0  0  0  0  0  0  0
  152.2563  143.3154  158.9148 C   0  0  0  0  0  0  0  0  0  0  0  0
  153.5752  142.6816  159.3316 C   0  0  2  0  0  0  0  0  0  0  0  0
  150.3076  136.4743  158.6657 N   0  0  0  0  0  0  0  0  0  0  0  0
  150.0868  135.6130  157.5846 O   0  0  0  0  0  0  0  0  0  0  0  0
  151.0345  135.8699  154.3910 H   0  0  0  0  0  0  0  0  0  0  0  0
  149.4120  135.3748  154.8778 H   0  0  0  0  0  0  0  0  0  0  0  0
  150.8069  134.3886  155.3222 H   0  0  0  0  0  0  0  0  0  0  0  0
  151.6300  138.0874  156.0719 H   0  0  0  0  0  0  0  0  0  0  0  0
  150.7070  139.0595  159.5099 H   0  0  0  0  0  0  0  0  0  0  0  0
  151.8204  140.5331  160.1723 H   0  0  0  0  0  0  0  0  0  0  0  0
  154.7210  140.7991  159.5438 H   0  0  0  0  0  0  0  0  0  0  0  0
  154.6317  142.5802  161.2610 H   0  0  0  0  0  0  0  0  0  0  0  0
  151.6628  141.9286  161.4172 H   0  0  0  0  0  0  0  0  0  0  0  0
  152.7138  142.4866  162.6937 H   0  0  0  0  0  0  0  0  0  0  0  0
  151.0155  144.2156  161.8846 H   0  0  0  0  0  0  0  0  0  0  0  0
  152.6651  144.7628  161.8623 H   0  0  0  0  0  0  0  0  0  0  0  0
  150.8317  144.7599  159.6663 H   0  0  0  0  0  0  0  0  0  0  0  0
  152.4797  145.3122  159.6933 H   0  0  0  0  0  0  0  0  0  0  0  0
  151.4695  142.5618  158.8935 H   0  0  0  0  0  0  0  0  0  0  0  0
  152.3441  143.6958  157.8967 H   0  0  0  0  0  0  0  0  0  0  0  0
  154.4506  143.1752  158.9136 H   0  0  0  0  0  0  0  0  0  0  0  0
  1  2  1  0  0  0  0
  1 18  1  0  0  0  0
  1 19  1  0  0  0  0
  1 20  1  0  0  0  0
  2 17  1  0  0  0  0
  2  3  2  0  0  0  0
  3  4  1  0  0  0  0
  3 21  1  0  0  0  0
  4  5  1  0  0  0  0
  4 16  2  0  0  0  0
  5  6  1  0  0  0  0
  5 22  1  0  0  0  0
  6  7  2  0  0  0  0
  6  8  1  0  0  0  0
  8  9  1  0  0  0  0
  8 23  1  0  0  0  0
  9 15  1  0  0  0  0
  9 10  1  0  0  0  0
  9 24  1  0  0  0  0
 10 15  1  0  0  0  0
 10 11  1  0  0  0  0
 10 25  1  0  0  0  0
 11 12  1  0  0  0  0
 11 26  1  0  0  0  0
 11 27  1  0  0  0  0
 12 13  1  0  0  0  0
 12 28  1  0  0  0  0
 12 29  1  0  0  0  0
 13 14  1  0  0  0  0
 13 30  1  0  0  0  0
 13 31  1  0  0  0  0
 14 15  1  0  0  0  0
 14 32  1  0  0  0  0
 14 33  1  0  0  0  0
 15 34  1  0  0  0  0
 16 17  1  0  0  0  0
M  END
> <s_m_source_file>
AV-unprocessed.smi

> <i_m_source_file_index>
732

> <i_lp_mmshare_version>
43012

> <i_f3d_flags>
0

> <s_epik_input>
W0NIM11jMVtjSF1jKG5vMSlbTkhdQyg9TylbTkhdW0NASF0yW0NAQEhdKFtDQEBIXTIzKVtDSDJdW0NIMl1bQ0gyXVtDSDJdMw==

> <s_epik_cmdline>
J2VwaWtfcHl0aG9uJywgJy1waCcsICc3LjAnLCAnLXRuJywgJzgnLCAnLW1hJywgJzIwMCcsICctbWV0YWxfYmluZGluZycsICctaW1hZScsICc8aW5maWxlLm1hZT4nLCAnLW9tYWUnLCAnPG91dGZpbGUubWFlPic=

> <r_lp_tautomer_probability>
1

> <r_epik_Ionization_Penalty>
2.39506e-05

> <r_epik_Ionization_Penalty_Charging>
0

> <r_epik_Ionization_Penalty_Neutral>
2.39506e-05

> <r_epik_State_Penalty>
-0

> <r_epik_Charging_Adjusted_Penalty>
0

> <i_epik_Tot_Q>
0

> <i_epik_Tot_abs_Q>
0

> <r_epik_Metal_State_Penalty>
-0

> <b_epik_Metal_Only>
0

> <s_lp_Force_Field>
OPLS_2005

> <r_lp_Energy>
36.3442

> <b_lp_Chiralities_Consistent>
1

> <s_lp_Variant>
AV-unprocessed.smi:732-2

> <Gold.Version>
5.8.1

> <Gold.Id.Protein>
6NUR|6NUR_protein|mol2

> <Gold.PLP.Fitness>
39.0665

> <Gold.PLP.PLP>
-34.5699

> <Gold.PLP.part.hbond>
-2.8410

> <Gold.PLP.part.metal>
0.0000

> <Gold.PLP.part.buried>
-5.1307

> <Gold.PLP.part.nonpolar>
-26.6346

> <Gold.PLP.part.repulsive>
0.2551

> <Gold.PLP.ligand.clash>
0.0000

> <Gold.PLP.ligand.torsion>
0.3965

> <Gold.PLP.Chemscore.Hbond>
1.7488

> <Gold.PLP.Chemscore.CHOScore>
0.0000

> <Gold.PLP.Chemscore.Metal>
0.0000

> <Gold.Chemscore.Hbonds>
donor molecule, donor type, donor heavy atom, donor atom, acceptor molecule, acceptor atom, score
      P1  H  6896  6907       L1    16  0.65
      P1  H  7997  8009       L1     7  1.00

> <Gold.PLP.Chemscore.Internal.Correction>
0.0432

> <Gold.Rescore>
     Score         DG    S(hbond)    S(metal)    S(lipo)     H(rot)  DE(clash)    DE(int)     intcor
     18.53     -19.03       1.57        0.00      92.85       1.00       0.00       0.50       ----

> <Gold.Chemscore.Fitness>
18.5281

> <Gold.Chemscore.DG>
-19.0326

> <Gold.Chemscore.ZeroCoef>
-5.4800

> <Gold.Chemscore.Hbond>
1.5718

> <Gold.Chemscore.Metal>
0.0000

> <Gold.Chemscore.Lipo>
92.8453

> <Gold.Chemscore.Internal_Hbond>
0.0000

> <Gold.Chemscore.DEClash>
0.0000

> <Gold.Chemscore.DEInternal>
0.5044

> <Gold.Chemscore.Rot>
1.0000

> <Gold.Chemscore.Internal.Correction>
   9.000000E+99

> <Gold.Chemscore.Hbonds>
donor molecule, donor type, donor heavy atom, donor atom, acceptor molecule, acceptor atom, score
      P1  H  6896  6907       L1    16  0.11
      P1  H  7997  8009       L1     7  1.00

> <Gold.Chemscore.Hbond.Weighted>
-5.2497

> <Gold.Chemscore.Metal.Weighted>
-0.0000

> <Gold.Chemscore.Lipo.Weighted>
-10.8629

> <Gold.Chemscore.Internal_Hbond.Weighted>
0.0000

> <Gold.Chemscore.DEClash.Weighted>
0.0000

> <Gold.Chemscore.DEInternal.Weighted>
0.5044

> <Gold.Chemscore.Rot.Weighted>
2.5600

> <Gold.Chemscore.Internal.Correction.Weighted>
   9.000000E+99

> <Gold.Protein.RotatedTorsions>
[ 6907 6896 6895 6894 ] final  -17.11 input  -60.11 | X-H torsion
[ 7974 7965 7964 7962 ] final -177.86 input  175.53 | X-H torsion
[ 8008 7997 7996 7995 ] final  158.62 input   59.86 | X-H torsion
[ 10167 10162 10161 10158 ] final  -94.15 input  -65.29 | X-H torsion
[ 10718 10713 10712 10709 ] final  -44.65 input   66.30 | X-H torsion
[ 10763 10752 10751 10750 ] final  140.99 input  -60.55 | X-H torsion
[ 11005 11000 10999 10996 ] final  132.39 input  -57.11 | X-H torsion

> <Gold.Protein.ActiveResidues>
 VAL166  LYS551  ARG553  GLY616  TRP617  ASP618  TYR619  PRO620  LYS621  CYS622 
 ASP623  PHE694  ASN695  SER759  ASP760  ASP761  ALA762  ILE779  LEU786  VAL792 
 PHE793  MET794  SER795  GLU796  ALA797  LYS798  CYS799  TRP800  GLU811  SER814 

> <Gold.Protein.RotatedAtoms>
  151.2983  135.0761  159.9229 H   0  0  0  0  0  0  0  0  0  0  0  0  # atno 6907 bound_to 6896
  152.5303  133.9860  159.7839 H   0  0  0  0  0  0  0  0  0  0  0  0  # atno 6908 bound_to 6896
  151.0142  133.5886  159.2709 H   0  0  0  0  0  0  0  0  0  0  0  0  # atno 6909 bound_to 6896
  144.7129  140.0956  143.6419 H   0  0  0  0  0  0  0  0  0  0  0  0  # atno 7974 bound_to 7965
  156.2291  140.1853  156.7288 H   0  0  0  0  0  0  0  0  0  0  0  0  # atno 8008 bound_to 7997
  154.5992  140.0638  156.9373 H   0  0  0  0  0  0  0  0  0  0  0  0  # atno 8009 bound_to 7997
  155.2204  140.3307  155.4319 H   0  0  0  0  0  0  0  0  0  0  0  0  # atno 8010 bound_to 7997
  140.3174  143.3069  152.0083 H   0  0  0  0  0  0  0  0  0  0  0  0  # atno 10167 bound_to 10162
  156.2364  130.4176  149.8813 H   0  0  0  0  0  0  0  0  0  0  0  0  # atno 10718 bound_to 10713
  153.9319  135.2989  155.3445 H   0  0  0  0  0  0  0  0  0  0  0  0  # atno 10763 bound_to 10752
  154.7522  135.4975  153.9313 H   0  0  0  0  0  0  0  0  0  0  0  0  # atno 10764 bound_to 10752
  153.1087  135.6753  153.9644 H   0  0  0  0  0  0  0  0  0  0  0  0  # atno 10765 bound_to 10752
  139.9787  134.9555  156.9575 H   0  0  0  0  0  0  0  0  0  0  0  0  # atno 11005 bound_to 11000
  145.9582  139.2782  143.1171 LP  0  0  0  0  0  0  0  0  0  0  0  0  # atno 17320 bound_to 7965
  145.9249  140.9089  143.0386 LP  0  0  0  0  0  0  0  0  0  0  0  0  # atno 17321 bound_to 7965
  139.4881  144.6337  151.7018 LP  0  0  0  0  0  0  0  0  0  0  0  0  # atno 17342 bound_to 10162
  140.5514  144.0419  150.6128 LP  0  0  0  0  0  0  0  0  0  0  0  0  # atno 17343 bound_to 10162
  156.6409  130.8704  151.3514 LP  0  0  0  0  0  0  0  0  0  0  0  0  # atno 17370 bound_to 10713
  157.7156  130.9493  150.1244 LP  0  0  0  0  0  0  0  0  0  0  0  0  # atno 17371 bound_to 10713
  140.5141  134.0973  155.7277 LP  0  0  0  0  0  0  0  0  0  0  0  0  # atno 17394 bound_to 11000
  141.1461  133.9052  157.2211 LP  0  0  0  0  0  0  0  0  0  0  0  0  # atno 17395 bound_to 11000

$$$$
