AV-unprocessed.smi:275|AV-procd|sdf|2063|dock9
  -GOLD-   2262021313D 1   1.00000     0.00000
 Structure written by MMmdl.
 65 69  0  0  0  0  0  0  0  0  1 V2000
  143.3516  137.1209  162.3804 C   0  0  0  0  0  0  0  0  0  0  0  0
  144.7056  136.4534  162.6626 C   0  0  0  0  0  0  0  0  0  0  0  0
  145.7953  137.5358  162.8313 C   0  0  0  0  0  0  0  0  0  0  0  0
  145.0044  135.3314  161.6335 C   0  0  1  0  0  0  0  0  0  0  0  0
  146.3210  134.7330  161.8653 N   0  0  0  0  0  0  0  0  0  0  0  0
  147.1967  134.6158  160.7359 C   0  0  0  0  0  0  0  0  0  0  0  0
  147.4983  133.3721  160.2721 N   0  0  0  0  0  0  0  0  0  0  0  0
  148.3164  133.1895  159.2329 C   0  0  0  0  0  0  0  0  0  0  0  0
  148.9606  134.1050  158.5119 N   0  0  0  0  0  0  0  0  0  0  0  0
  148.6998  135.3584  158.9758 C   0  0  0  0  0  0  0  0  0  0  0  0
  147.8488  135.6986  160.0687 C   0  0  0  0  0  0  0  0  0  0  0  0
  147.8551  137.0788  160.2409 N   0  0  0  0  0  0  0  0  0  0  0  0
  148.6417  137.5259  159.3020 C   0  0  0  0  0  0  0  0  0  0  0  0
  149.1878  136.5595  158.4920 N   0  0  0  0  0  0  0  0  0  0  0  0
  150.0940  136.7772  157.3775 C   0  0  0  0  0  0  0  0  0  0  0  0
  149.7342  138.0237  156.5299 C   0  0  2  0  0  0  0  0  0  0  0  0
  148.8155  137.6428  155.3406 C   0  0  0  0  0  0  0  0  0  0  0  0
  149.1779  136.4009  154.7748 O   0  0  0  0  0  0  0  0  0  0  0  0
  151.0299  138.7477  156.0715 C   0  0  2  0  0  0  0  0  0  0  0  0
  151.6292  138.2103  154.7742 C   0  0  0  0  0  0  0  0  0  0  0  0
  153.1373  138.4369  154.9150 C   0  0  0  0  0  0  0  0  0  0  0  0
  153.3236  139.0171  156.1981 O   0  0  0  0  0  0  0  0  0  0  0  0
  152.2295  138.6378  157.0144 C   0  0  0  0  0  0  0  0  0  0  0  0
  145.7374  133.4898  162.3659 C   0  0  0  0  0  0  0  0  0  0  0  0
  144.4071  133.9008  161.7203 C   0  0  0  0  0  0  0  0  0  0  0  0
  144.1250  133.2166  160.3644 C   0  0  0  0  0  0  0  0  0  0  0  0
  142.8776  133.7670  159.6533 C   0  0  0  0  0  0  0  0  0  0  0  0
  141.6316  133.6141  160.5325 C   0  0  0  0  0  0  0  0  0  0  0  0
  141.8588  134.2316  161.9168 C   0  0  0  0  0  0  0  0  0  0  0  0
  143.1394  133.6826  162.5720 C   0  0  0  0  0  0  0  0  0  0  0  0
  143.3651  137.6557  161.4302 H   0  0  0  0  0  0  0  0  0  0  0  0
  143.0953  137.8381  163.1605 H   0  0  0  0  0  0  0  0  0  0  0  0
  142.5493  136.3839  162.3393 H   0  0  0  0  0  0  0  0  0  0  0  0
  144.5956  135.9806  163.6375 H   0  0  0  0  0  0  0  0  0  0  0  0
  145.9190  138.1273  161.9237 H   0  0  0  0  0  0  0  0  0  0  0  0
  146.7667  137.1214  163.0900 H   0  0  0  0  0  0  0  0  0  0  0  0
  145.5267  138.2282  163.6295 H   0  0  0  0  0  0  0  0  0  0  0  0
  144.8708  135.6891  160.6141 H   0  0  0  0  0  0  0  0  0  0  0  0
  148.4788  132.1627  158.9400 H   0  0  0  0  0  0  0  0  0  0  0  0
  148.8452  138.5790  159.1730 H   0  0  0  0  0  0  0  0  0  0  0  0
  151.0964  136.8664  157.7957 H   0  0  0  0  0  0  0  0  0  0  0  0
  150.1033  135.8851  156.7502 H   0  0  0  0  0  0  0  0  0  0  0  0
  149.1766  138.7028  157.1775 H   0  0  0  0  0  0  0  0  0  0  0  0
  147.7703  137.6162  155.6497 H   0  0  0  0  0  0  0  0  0  0  0  0
  148.8832  138.3692  154.5326 H   0  0  0  0  0  0  0  0  0  0  0  0
  149.1787  136.4886  153.8338 H   0  0  0  0  0  0  0  0  0  0  0  0
  150.8153  139.8084  155.9321 H   0  0  0  0  0  0  0  0  0  0  0  0
  151.4298  137.1437  154.6623 H   0  0  0  0  0  0  0  0  0  0  0  0
  151.2204  138.7177  153.8998 H   0  0  0  0  0  0  0  0  0  0  0  0
  153.6767  137.4905  154.8582 H   0  0  0  0  0  0  0  0  0  0  0  0
  153.5290  139.0982  154.1418 H   0  0  0  0  0  0  0  0  0  0  0  0
  152.1504  139.2943  157.8812 H   0  0  0  0  0  0  0  0  0  0  0  0
  152.3706  137.6135  157.3636 H   0  0  0  0  0  0  0  0  0  0  0  0
  146.1429  132.5554  161.9779 H   0  0  0  0  0  0  0  0  0  0  0  0
  145.7016  133.4728  163.4550 H   0  0  0  0  0  0  0  0  0  0  0  0
  144.9778  133.3242  159.6941 H   0  0  0  0  0  0  0  0  0  0  0  0
  144.0084  132.1415  160.5085 H   0  0  0  0  0  0  0  0  0  0  0  0
  143.0265  134.8186  159.4060 H   0  0  0  0  0  0  0  0  0  0  0  0
  142.7289  133.2463  158.7070 H   0  0  0  0  0  0  0  0  0  0  0  0
  140.7703  134.0770  160.0502 H   0  0  0  0  0  0  0  0  0  0  0  0
  141.3936  132.5554  160.6424 H   0  0  0  0  0  0  0  0  0  0  0  0
  141.9222  135.3153  161.8221 H   0  0  0  0  0  0  0  0  0  0  0  0
  140.9988  134.0299  162.5561 H   0  0  0  0  0  0  0  0  0  0  0  0
  143.0061  132.6168  162.7623 H   0  0  0  0  0  0  0  0  0  0  0  0
  143.2436  134.1308  163.5572 H   0  0  0  0  0  0  0  0  0  0  0  0
  1  2  1  0  0  0  0
  1 31  1  0  0  0  0
  1 32  1  0  0  0  0
  1 33  1  0  0  0  0
  2  3  1  0  0  0  0
  2  4  1  0  0  0  0
  2 34  1  0  0  0  0
  3 35  1  0  0  0  0
  3 36  1  0  0  0  0
  3 37  1  0  0  0  0
  4 25  1  0  0  0  0
  4  5  1  0  0  0  0
  4 38  1  0  0  0  0
  5  6  1  0  0  0  0
  5 24  1  0  0  0  0
  6 11  1  0  0  0  0
  6  7  2  0  0  0  0
  7  8  1  0  0  0  0
  8  9  2  0  0  0  0
  8 39  1  0  0  0  0
  9 10  1  0  0  0  0
 10 14  1  0  0  0  0
 10 11  2  0  0  0  0
 11 12  1  0  0  0  0
 12 13  2  0  0  0  0
 13 14  1  0  0  0  0
 13 40  1  0  0  0  0
 14 15  1  0  0  0  0
 15 16  1  0  0  0  0
 15 41  1  0  0  0  0
 15 42  1  0  0  0  0
 16 17  1  0  0  0  0
 16 19  1  0  0  0  0
 16 43  1  0  0  0  0
 17 18  1  0  0  0  0
 17 44  1  0  0  0  0
 17 45  1  0  0  0  0
 18 46  1  0  0  0  0
 19 23  1  0  0  0  0
 19 20  1  0  0  0  0
 19 47  1  0  0  0  0
 20 21  1  0  0  0  0
 20 48  1  0  0  0  0
 20 49  1  0  0  0  0
 21 22  1  0  0  0  0
 21 50  1  0  0  0  0
 21 51  1  0  0  0  0
 22 23  1  0  0  0  0
 23 52  1  0  0  0  0
 23 53  1  0  0  0  0
 24 25  1  0  0  0  0
 24 54  1  0  0  0  0
 24 55  1  0  0  0  0
 25 30  1  0  0  0  0
 25 26  1  0  0  0  0
 26 27  1  0  0  0  0
 26 56  1  0  0  0  0
 26 57  1  0  0  0  0
 27 28  1  0  0  0  0
 27 58  1  0  0  0  0
 27 59  1  0  0  0  0
 28 29  1  0  0  0  0
 28 60  1  0  0  0  0
 28 61  1  0  0  0  0
 29 30  1  0  0  0  0
 29 62  1  0  0  0  0
 29 63  1  0  0  0  0
 30 64  1  0  0  0  0
 30 65  1  0  0  0  0
M  END
> <s_m_source_file>
AV-unprocessed.smi

> <i_m_source_file_index>
275

> <i_lp_mmshare_version>
43012

> <i_f3d_flags>
0

> <s_epik_input>
W0NIMl0xW0NIMl1bQ0gyXVtDSDJdW0NIMl1DMTJbQ0BIXShbQ0hdKFtDSDNdKVtDSDNdKU4oW0NIMl0yKWMobltjSF1uMyljKGMzNCluW2NIXW40W0NIMl1bQ0BIXShbQ0gyXVtPSF0pW0NAQEhdNVtDSDJdW0NIMl1PW0NIMl01

> <s_epik_cmdline>
J2VwaWtfcHl0aG9uJywgJy1waCcsICc3LjAnLCAnLXRuJywgJzgnLCAnLW1hJywgJzIwMCcsICctbWV0YWxfYmluZGluZycsICctaW1hZScsICc8aW5maWxlLm1hZT4nLCAnLW9tYWUnLCAnPG91dGZpbGUubWFlPic=

> <r_lp_tautomer_probability>
1

> <r_epik_Ionization_Penalty>
0.00375122

> <r_epik_Ionization_Penalty_Charging>
0

> <r_epik_Ionization_Penalty_Neutral>
0.00375122

> <r_epik_State_Penalty>
0.00260593

> <r_epik_Charging_Adjusted_Penalty>
0.00260593

> <i_epik_Tot_Q>
0

> <i_epik_Tot_abs_Q>
0

> <r_epik_Metal_State_Penalty>
-0

> <b_epik_Metal_Only>
0

> <s_lp_Force_Field>
OPLS_2005

> <r_lp_Energy>
70.0888

> <b_lp_Chiralities_Consistent>
1

> <s_lp_Variant>
AV-unprocessed.smi:275-2

> <Gold.Version>
5.8.1

> <Gold.Id.Protein>
6NUR|6NUR_protein|mol2

> <Gold.PLP.Fitness>
44.6893

> <Gold.PLP.PLP>
-37.1772

> <Gold.PLP.part.hbond>
-4.0666

> <Gold.PLP.part.metal>
0.0000

> <Gold.PLP.part.buried>
-5.7119

> <Gold.PLP.part.nonpolar>
-28.4018

> <Gold.PLP.part.repulsive>
0.0000

> <Gold.PLP.ligand.clash>
0.0000

> <Gold.PLP.ligand.torsion>
1.9783

> <Gold.PLP.Chemscore.Hbond>
3.6794

> <Gold.PLP.Chemscore.CHOScore>
0.0000

> <Gold.PLP.Chemscore.Metal>
0.0000

> <Gold.Chemscore.Hbonds>
donor molecule, donor type, donor heavy atom, donor atom, acceptor molecule, acceptor atom, score
      L1  H    18    46       P1  7948  1.00
      P1  H  6896  6907       L1     9  0.67
      P1  H  6931  6943       L1    12  0.08
      P1  H  6934  6947       L1    12  0.45
      P1  H  7997  8010       L1    22  0.91

> <Gold.PLP.Chemscore.Internal.Correction>
0.4305

> <Gold.Rescore>
     Score         DG    S(hbond)    S(metal)    S(lipo)     H(rot)  DE(clash)    DE(int)     intcor
     16.09     -18.48       2.53        0.00      94.50       2.54       0.06       2.33       ----

> <Gold.Chemscore.Fitness>
16.0865

> <Gold.Chemscore.DG>
-18.4818

> <Gold.Chemscore.ZeroCoef>
-5.4800

> <Gold.Chemscore.Hbond>
2.5275

> <Gold.Chemscore.Metal>
0.0000

> <Gold.Chemscore.Lipo>
94.5011

> <Gold.Chemscore.Internal_Hbond>
0.0000

> <Gold.Chemscore.DEClash>
0.0649

> <Gold.Chemscore.DEInternal>
2.3304

> <Gold.Chemscore.Rot>
2.5377

> <Gold.Chemscore.Internal.Correction>
   9.000000E+99

> <Gold.Chemscore.Hbonds>
donor molecule, donor type, donor heavy atom, donor atom, acceptor molecule, acceptor atom, score
      L1  H    18    46       P1  7948  0.94
      P1  H  6896  6907       L1     9  0.02
      P1  H  6931  6943       L1    12  0.01
      P1  H  6934  6947       L1    12  0.07
      P1  H  7997  8010       L1    22  0.82

> <Gold.Chemscore.Hbond.Weighted>
-8.4417

> <Gold.Chemscore.Metal.Weighted>
-0.0000

> <Gold.Chemscore.Lipo.Weighted>
-11.0566

> <Gold.Chemscore.Internal_Hbond.Weighted>
0.0000

> <Gold.Chemscore.DEClash.Weighted>
0.0649

> <Gold.Chemscore.DEInternal.Weighted>
2.3304

> <Gold.Chemscore.Rot.Weighted>
6.4966

> <Gold.Chemscore.Internal.Correction.Weighted>
   9.000000E+99

> <Gold.Protein.RotatedTorsions>
[ 6907 6896 6895 6894 ] final -106.72 input  -60.11 | X-H torsion
[ 7974 7965 7964 7962 ] final  145.41 input  175.53 | X-H torsion
[ 8008 7997 7996 7995 ] final   78.39 input   59.86 | X-H torsion
[ 10167 10162 10161 10158 ] final -134.29 input  -65.29 | X-H torsion
[ 10718 10713 10712 10709 ] final  145.43 input   66.30 | X-H torsion
[ 10763 10752 10751 10750 ] final  142.38 input  -60.55 | X-H torsion
[ 11005 11000 10999 10996 ] final   -2.60 input  -57.11 | X-H torsion

> <Gold.Protein.ActiveResidues>
 VAL166  LYS551  ARG553  GLY616  TRP617  ASP618  TYR619  PRO620  LYS621  CYS622 
 ASP623  PHE694  ASN695  SER759  ASP760  ASP761  ALA762  ILE779  LEU786  VAL792 
 PHE793  MET794  SER795  GLU796  ALA797  LYS798  CYS799  TRP800  GLU811  SER814 

> <Gold.Protein.RotatedAtoms>
  150.7405  133.9933  159.3613 H   0  0  0  0  0  0  0  0  0  0  0  0  # atno 6907 bound_to 6896
  151.7882  135.0741  160.0393 H   0  0  0  0  0  0  0  0  0  0  0  0  # atno 6908 bound_to 6896
  152.3226  133.5834  159.5791 H   0  0  0  0  0  0  0  0  0  0  0  0  # atno 6909 bound_to 6896
  144.8755  139.5780  143.5867 H   0  0  0  0  0  0  0  0  0  0  0  0  # atno 7974 bound_to 7965
  155.8551  140.3456  155.5719 H   0  0  0  0  0  0  0  0  0  0  0  0  # atno 8008 bound_to 7997
  155.7995  140.0883  157.1984 H   0  0  0  0  0  0  0  0  0  0  0  0  # atno 8009 bound_to 7997
  154.4009  140.1468  156.3245 H   0  0  0  0  0  0  0  0  0  0  0  0  # atno 8010 bound_to 7997
  139.8895  143.6740  152.2614 H   0  0  0  0  0  0  0  0  0  0  0  0  # atno 10167 bound_to 10162
  157.3453  131.0942  151.1047 H   0  0  0  0  0  0  0  0  0  0  0  0  # atno 10718 bound_to 10713
  153.9548  135.2966  155.3437 H   0  0  0  0  0  0  0  0  0  0  0  0  # atno 10763 bound_to 10752
  154.7407  135.5026  153.9121 H   0  0  0  0  0  0  0  0  0  0  0  0  # atno 10764 bound_to 10752
  153.0976  135.6725  153.9843 H   0  0  0  0  0  0  0  0  0  0  0  0  # atno 10765 bound_to 10752
  140.6602  133.9327  155.8431 H   0  0  0  0  0  0  0  0  0  0  0  0  # atno 11005 bound_to 11000
  146.2959  139.7277  142.9127 LP  0  0  0  0  0  0  0  0  0  0  0  0  # atno 17320 bound_to 7965
  145.4051  141.0390  143.3048 LP  0  0  0  0  0  0  0  0  0  0  0  0  # atno 17321 bound_to 7965
  139.7122  144.7618  151.1093 LP  0  0  0  0  0  0  0  0  0  0  0  0  # atno 17342 bound_to 10162
  140.7729  143.5315  150.9417 LP  0  0  0  0  0  0  0  0  0  0  0  0  # atno 17343 bound_to 10162
  157.2243  130.6496  149.5824 LP  0  0  0  0  0  0  0  0  0  0  0  0  # atno 17370 bound_to 10713
  155.9713  130.4619  150.6126 LP  0  0  0  0  0  0  0  0  0  0  0  0  # atno 17371 bound_to 10713
  141.0471  134.0538  157.3830 LP  0  0  0  0  0  0  0  0  0  0  0  0  # atno 17394 bound_to 11000
  139.9016  135.0166  156.7293 LP  0  0  0  0  0  0  0  0  0  0  0  0  # atno 17395 bound_to 11000

$$$$
