AV-unprocessed.smi:1809|AV-procd|sdf|7327|dock1
  -GOLD-   22720 8583D 1   1.00000     0.00000
 Structure written by MMmdl.
 39 41  0  0  0  0  0  0  0  0  3 V2000
  145.9188  133.9881  162.6326 C   0  0  0  0  0  0  0  0  0  0  0  0
  146.8423  134.7843  161.7760 C   0  0  0  0  0  0  0  0  0  0  0  0
  146.9330  136.1143  161.8525 N   0  0  0  0  0  0  0  0  0  0  0  0
  147.8599  136.6274  160.9566 N   0  0  0  0  0  0  0  0  0  0  0  0
  148.4634  135.6801  160.2245 C   0  0  0  0  0  0  0  0  0  0  0  0
  149.3897  135.9686  159.2953 N   0  5  0  0  0  0  0  0  0  0  0  0
  149.0430  136.6621  158.1884 C   0  0  0  0  0  0  0  0  0  0  0  0
  147.9767  136.5788  157.5745 O   0  0  0  0  0  0  0  0  0  0  0  0
  149.9913  137.5056  157.7635 N   0  0  0  0  0  0  0  0  0  0  0  0
  149.8845  138.3556  156.5866 C   0  0  0  0  0  0  0  0  0  0  0  0
  151.2552  138.9549  156.2182 C   0  0  2  0  0  0  0  0  0  0  0  0
  152.0271  139.4804  157.4526 C   0  0  0  0  0  0  0  0  0  0  0  0
  151.4128  140.7455  157.8975 N   0  3  1  0  0  0  0  0  0  0  0  0
  151.9847  141.4202  159.0750 C   0  0  0  0  0  0  0  0  0  0  0  0
  151.5815  142.9001  158.9181 C   0  0  0  0  0  0  0  0  0  0  0  0
  150.9291  143.0103  157.5281 C   0  0  0  0  0  0  0  0  0  0  0  0
  151.3974  141.7409  156.8234 C   0  0  2  0  0  0  0  0  0  0  0  0
  150.5525  141.2097  155.6594 C   0  0  0  0  0  0  0  0  0  0  0  0
  151.1380  139.9812  155.2196 O   0  0  0  0  0  0  0  0  0  0  0  0
  147.9035  134.0476  160.5874 S   0  0  0  0  0  0  0  0  0  0  0  0
  146.3670  133.8269  163.6129 H   0  0  0  0  0  0  0  0  0  0  0  0
  145.7196  133.0193  162.1741 H   0  0  0  0  0  0  0  0  0  0  0  0
  144.9724  134.5142  162.7599 H   0  0  0  0  0  0  0  0  0  0  0  0
  150.8520  137.5476  158.2901 H   0  0  0  0  0  0  0  0  0  0  0  0
  149.4701  137.7818  155.7569 H   0  0  0  0  0  0  0  0  0  0  0  0
  149.1753  139.1577  156.7964 H   0  0  0  0  0  0  0  0  0  0  0  0
  151.8480  138.1555  155.7719 H   0  0  0  0  0  0  0  0  0  0  0  0
  152.0110  138.7501  158.2624 H   0  0  0  0  0  0  0  0  0  0  0  0
  153.0731  139.6533  157.1958 H   0  0  0  0  0  0  0  0  0  0  0  0
  151.6104  140.9788  159.9989 H   0  0  0  0  0  0  0  0  0  0  0  0
  153.0717  141.3254  159.0679 H   0  0  0  0  0  0  0  0  0  0  0  0
  150.8875  143.2135  159.6985 H   0  0  0  0  0  0  0  0  0  0  0  0
  152.4627  143.5392  158.9858 H   0  0  0  0  0  0  0  0  0  0  0  0
  149.8425  143.0075  157.6272 H   0  0  0  0  0  0  0  0  0  0  0  0
  151.2160  143.9175  156.9955 H   0  0  0  0  0  0  0  0  0  0  0  0
  152.4218  141.8978  156.4780 H   0  0  0  0  0  0  0  0  0  0  0  0
  149.5117  141.0650  155.9502 H   0  0  0  0  0  0  0  0  0  0  0  0
  150.5560  141.9196  154.8321 H   0  0  0  0  0  0  0  0  0  0  0  0
  150.4467  140.5498  158.1189 H   0  0  0  0  0  0  0  0  0  0  0  0
  1  2  1  0  0  0  0
  1 21  1  0  0  0  0
  1 22  1  0  0  0  0
  1 23  1  0  0  0  0
  2 20  1  0  0  0  0
  2  3  2  0  0  0  0
  3  4  1  0  0  0  0
  4  5  2  0  0  0  0
  5  6  1  0  0  0  0
  5 20  1  0  0  0  0
  6  7  1  0  0  0  0
  7  8  2  0  0  0  0
  7  9  1  0  0  0  0
  9 10  1  0  0  0  0
  9 24  1  0  0  0  0
 10 11  1  0  0  0  0
 10 25  1  0  0  0  0
 10 26  1  0  0  0  0
 11 19  1  0  0  0  0
 11 12  1  0  0  0  0
 11 27  1  0  0  0  0
 12 13  1  0  0  0  0
 12 28  1  0  0  0  0
 12 29  1  0  0  0  0
 13 17  1  0  0  0  0
 13 14  1  0  0  0  0
 13 39  1  0  0  0  0
 14 15  1  0  0  0  0
 14 30  1  0  0  0  0
 14 31  1  0  0  0  0
 15 16  1  0  0  0  0
 15 32  1  0  0  0  0
 15 33  1  0  0  0  0
 16 17  1  0  0  0  0
 16 34  1  0  0  0  0
 16 35  1  0  0  0  0
 17 18  1  0  0  0  0
 17 36  1  0  0  0  0
 18 19  1  0  0  0  0
 18 37  1  0  0  0  0
 18 38  1  0  0  0  0
M  CHG  1   6  -1
M  CHG  1  13   1
M  END
> <s_m_source_file>
AV-unprocessed.smi

> <i_m_source_file_index>
1809

> <i_lp_mmshare_version>
43012

> <i_f3d_flags>
0

> <s_epik_input>
W0NIM11jMW5uYyhzMSlbTkhdQyg9TylbTkhdW0NIMl1bQ0BIXShbQ0gyXTIpT1tDSDJdW0NAQEhdKE4yMylbQ0gyXVtDSDJdW0NIMl0z

> <s_epik_cmdline>
J2VwaWtfcHl0aG9uJywgJy1waCcsICc3LjAnLCAnLXRuJywgJzgnLCAnLW1hJywgJzIwMCcsICctbWV0YWxfYmluZGluZycsICctaW1hZScsICc8aW5maWxlLm1hZT4nLCAnLW9tYWUnLCAnPG91dGZpbGUubWFlPic=

> <r_lp_tautomer_probability>
1

> <r_epik_Ionization_Penalty>
3.2601

> <r_epik_Ionization_Penalty_Charging>
3.1406

> <r_epik_Ionization_Penalty_Neutral>
0.119497

> <r_epik_State_Penalty>
3.08894

> <r_epik_Charging_Adjusted_Penalty>
6.22954

> <i_epik_Tot_Q>
0

> <i_epik_Tot_abs_Q>
2

> <r_epik_Metal_State_Penalty>
0.510807

> <b_epik_Metal_Only>
1

> <s_lp_Force_Field>
OPLS_2005

> <r_lp_Energy>
31.1042

> <b_lp_Chiralities_Consistent>
1

> <s_lp_Variant>
AV-unprocessed.smi:1809-19

> <Gold.Version>
5.8.1

> <Gold.Id.Protein>
6NUR|6NUR_protein|mol2

> <Gold.PLP.Fitness>
41.5649

> <Gold.PLP.PLP>
-30.2169

> <Gold.PLP.part.hbond>
-3.9826

> <Gold.PLP.part.metal>
0.0000

> <Gold.PLP.part.buried>
-5.9369

> <Gold.PLP.part.nonpolar>
-21.3023

> <Gold.PLP.part.repulsive>
0.1914

> <Gold.PLP.ligand.clash>
0.0000

> <Gold.PLP.ligand.torsion>
1.0475

> <Gold.PLP.Chemscore.Hbond>
4.4112

> <Gold.PLP.Chemscore.CHOScore>
0.0000

> <Gold.PLP.Chemscore.Metal>
0.0000

> <Gold.Chemscore.Hbonds>
donor molecule, donor type, donor heavy atom, donor atom, acceptor molecule, acceptor atom, score
      P1  H  6896  6908       L1     6  2.00
      P1  H  6931  6943       L1     4  0.54
      P1  H  7989  7998       L1    19  0.45

> <Gold.PLP.Chemscore.Internal.Correction>
0.2095

> <Gold.Rescore>
     Score         DG    S(hbond)    S(metal)    S(lipo)     H(rot)  DE(clash)    DE(int)     intcor
     16.29     -17.59       1.78        0.00      81.67       1.32       0.14       1.16       ----

> <Gold.Chemscore.Fitness>
16.2875

> <Gold.Chemscore.DG>
-17.5858

> <Gold.Chemscore.ZeroCoef>
-5.4800

> <Gold.Chemscore.Hbond>
1.7790

> <Gold.Chemscore.Metal>
0.0000

> <Gold.Chemscore.Lipo>
81.6664

> <Gold.Chemscore.Internal_Hbond>
0.0000

> <Gold.Chemscore.DEClash>
0.1409

> <Gold.Chemscore.DEInternal>
1.1573

> <Gold.Chemscore.Rot>
1.3246

> <Gold.Chemscore.Internal.Correction>
   9.000000E+99

> <Gold.Chemscore.Hbonds>
donor molecule, donor type, donor heavy atom, donor atom, acceptor molecule, acceptor atom, score
      P1  H  6896  6908       L1     6  0.45
      P1  H  6931  6943       L1     4  0.41
      P1  H  6934  6947       L1     4  0.01
      P1  H  7989  7998       L1    19  0.02

> <Gold.Chemscore.Hbond.Weighted>
-5.9418

> <Gold.Chemscore.Metal.Weighted>
-0.0000

> <Gold.Chemscore.Lipo.Weighted>
-9.5550

> <Gold.Chemscore.Internal_Hbond.Weighted>
0.0000

> <Gold.Chemscore.DEClash.Weighted>
0.1409

> <Gold.Chemscore.DEInternal.Weighted>
1.1573

> <Gold.Chemscore.Rot.Weighted>
3.3910

> <Gold.Chemscore.Internal.Correction.Weighted>
   9.000000E+99

> <Gold.Protein.RotatedTorsions>
[ 6907 6896 6895 6894 ] final -170.48 input  -60.11 | X-H torsion
[ 7974 7965 7964 7962 ] final -124.08 input  175.53 | X-H torsion
[ 8008 7997 7996 7995 ] final   27.80 input   59.86 | X-H torsion
[ 10167 10162 10161 10158 ] final   99.77 input  -65.29 | X-H torsion
[ 10718 10713 10712 10709 ] final  -91.62 input   66.30 | X-H torsion
[ 10763 10752 10751 10750 ] final  -48.49 input  -60.55 | X-H torsion
[ 11005 11000 10999 10996 ] final -159.32 input  -57.11 | X-H torsion

> <Gold.Protein.ActiveResidues>
 VAL166  LYS551  ARG553  GLY616  TRP617  ASP618  TYR619  PRO620  LYS621  CYS622 
 ASP623  PHE694  ASN695  SER759  ASP760  ASP761  ALA762  ILE779  LEU786  VAL792 
 PHE793  MET794  SER795  GLU796  ALA797  LYS798  CYS799  TRP800  GLU811  SER814 

> <Gold.Protein.RotatedAtoms>
  151.5085  133.3490  159.2880 H   0  0  0  0  0  0  0  0  0  0  0  0  # atno 6907 bound_to 6896
  150.8727  134.8107  159.7178 H   0  0  0  0  0  0  0  0  0  0  0  0  # atno 6908 bound_to 6896
  152.4710  134.4971  159.9765 H   0  0  0  0  0  0  0  0  0  0  0  0  # atno 6909 bound_to 6896
  145.0118  140.7912  143.4434 H   0  0  0  0  0  0  0  0  0  0  0  0  # atno 7974 bound_to 7965
  155.0486  140.3177  155.4700 H   0  0  0  0  0  0  0  0  0  0  0  0  # atno 8008 bound_to 7997
  156.2839  140.2150  156.5555 H   0  0  0  0  0  0  0  0  0  0  0  0  # atno 8009 bound_to 7997
  154.7230  140.0488  157.0644 H   0  0  0  0  0  0  0  0  0  0  0  0  # atno 8010 bound_to 7997
  139.7587  144.6961  151.0324 H   0  0  0  0  0  0  0  0  0  0  0  0  # atno 10167 bound_to 10162
  155.9995  130.4955  150.5502 H   0  0  0  0  0  0  0  0  0  0  0  0  # atno 10718 bound_to 10713
  154.0786  135.6594  153.4834 H   0  0  0  0  0  0  0  0  0  0  0  0  # atno 10763 bound_to 10752
  153.0364  135.5174  154.7496 H   0  0  0  0  0  0  0  0  0  0  0  0  # atno 10764 bound_to 10752
  154.6584  135.3011  154.9866 H   0  0  0  0  0  0  0  0  0  0  0  0  # atno 10765 bound_to 10752
  140.6439  134.4522  157.5234 H   0  0  0  0  0  0  0  0  0  0  0  0  # atno 11005 bound_to 11000
  145.2013  139.2251  143.5191 LP  0  0  0  0  0  0  0  0  0  0  0  0  # atno 17320 bound_to 7965
  146.3471  140.1830  142.8589 LP  0  0  0  0  0  0  0  0  0  0  0  0  # atno 17321 bound_to 7965
  140.7805  143.4722  151.0130 LP  0  0  0  0  0  0  0  0  0  0  0  0  # atno 17342 bound_to 10162
  139.8409  143.7565  152.3180 LP  0  0  0  0  0  0  0  0  0  0  0  0  # atno 17343 bound_to 10162
  157.3426  131.0719  151.1776 LP  0  0  0  0  0  0  0  0  0  0  0  0  # atno 17370 bound_to 10713
  157.2619  130.6663  149.5978 LP  0  0  0  0  0  0  0  0  0  0  0  0  # atno 17371 bound_to 10713
  139.9070  134.8427  156.1669 LP  0  0  0  0  0  0  0  0  0  0  0  0  # atno 17394 bound_to 11000
  141.0586  133.6853  156.1909 LP  0  0  0  0  0  0  0  0  0  0  0  0  # atno 17395 bound_to 11000

$$$$
