AV-unprocessed.smi:13|AV-procd|sdf|76|dock6
  -GOLD-   2262015203D 1   1.00000     0.00000
 Structure written by MMmdl.
 54 58  0  0  0  0  0  0  0  0  1 V2000
  151.6300  143.5760  157.5256 C   0  0  0  0  0  0  0  0  0  0  0  0
  151.0313  142.1721  157.6139 C   0  0  0  0  0  0  0  0  0  0  0  0
  151.6611  141.5049  158.8443 C   0  0  0  0  0  0  0  0  0  0  0  0
  149.4996  142.0891  157.5296 C   0  0  0  0  0  0  0  0  0  0  0  0
  149.6809  140.9294  156.6750 N   0  0  0  0  0  0  0  0  0  0  0  0
  148.6884  140.8253  155.6607 C   0  0  0  0  0  0  0  0  0  0  0  0
  148.4857  141.8197  154.7541 N   0  0  0  0  0  0  0  0  0  0  0  0
  147.5507  141.7052  153.8065 C   0  0  0  0  0  0  0  0  0  0  0  0
  146.7113  140.6937  153.5825 N   0  0  0  0  0  0  0  0  0  0  0  0
  146.9037  139.6896  154.4840 C   0  0  0  0  0  0  0  0  0  0  0  0
  147.8550  139.6801  155.5429 C   0  0  0  0  0  0  0  0  0  0  0  0
  147.7533  138.4952  156.2605 N   0  0  0  0  0  0  0  0  0  0  0  0
  146.7977  137.8406  155.6595 C   0  0  0  0  0  0  0  0  0  0  0  0
  146.2391  138.4787  154.5743 N   0  0  0  0  0  0  0  0  0  0  0  0
  145.1678  137.9814  153.7240 C   0  0  0  0  0  0  0  0  0  0  0  0
  145.6137  136.8645  152.7500 C   0  0  2  0  0  0  0  0  0  0  0  0
  146.5925  137.3807  151.8650 O   0  0  0  0  0  0  0  0  0  0  0  0
  144.4623  136.3136  151.9175 C   0  0  0  0  0  0  0  0  0  0  0  0
  144.8919  134.8765  151.6560 C   0  0  0  0  0  0  0  0  0  0  0  0
  145.4720  134.4923  152.8906 O   0  0  0  0  0  0  0  0  0  0  0  0
  146.1853  135.6019  153.4287 C   0  0  0  0  0  0  0  0  0  0  0  0
  151.0203  141.3699  156.2930 C   0  0  2  0  0  0  0  0  0  0  0  0
  151.9802  140.1938  156.0690 C   0  0  1  0  0  0  0  0  0  0  0  0
  151.6870  138.9699  156.9443 C   0  0  0  0  0  0  0  0  0  0  0  0
  150.6645  138.2139  156.1284 C   0  0  0  0  0  0  0  0  0  0  0  0
  151.1865  138.4424  154.7160 C   0  0  0  0  0  0  0  0  0  0  0  0
  151.7771  139.7387  154.7305 O   0  0  0  0  0  0  0  0  0  0  0  0
  151.4192  144.1600  158.4220 H   0  0  0  0  0  0  0  0  0  0  0  0
  151.2258  144.1303  156.6780 H   0  0  0  0  0  0  0  0  0  0  0  0
  152.7127  143.5401  157.3999 H   0  0  0  0  0  0  0  0  0  0  0  0
  151.2606  140.5048  159.0113 H   0  0  0  0  0  0  0  0  0  0  0  0
  151.4696  142.0789  159.7515 H   0  0  0  0  0  0  0  0  0  0  0  0
  152.7422  141.4077  158.7392 H   0  0  0  0  0  0  0  0  0  0  0  0
  149.0022  141.8650  158.4736 H   0  0  0  0  0  0  0  0  0  0  0  0
  149.0441  142.9365  157.0129 H   0  0  0  0  0  0  0  0  0  0  0  0
  147.4640  142.5433  153.1311 H   0  0  0  0  0  0  0  0  0  0  0  0
  146.4743  136.8657  155.9938 H   0  0  0  0  0  0  0  0  0  0  0  0
  144.3663  137.6185  154.3683 H   0  0  0  0  0  0  0  0  0  0  0  0
  144.7532  138.8227  153.1668 H   0  0  0  0  0  0  0  0  0  0  0  0
  147.4331  137.0213  152.1039 H   0  0  0  0  0  0  0  0  0  0  0  0
  143.5409  136.3076  152.5019 H   0  0  0  0  0  0  0  0  0  0  0  0
  144.2712  136.8780  151.0037 H   0  0  0  0  0  0  0  0  0  0  0  0
  144.0591  134.2284  151.3830 H   0  0  0  0  0  0  0  0  0  0  0  0
  145.6431  134.8285  150.8659 H   0  0  0  0  0  0  0  0  0  0  0  0
  147.2551  135.4834  153.2482 H   0  0  0  0  0  0  0  0  0  0  0  0
  146.0353  135.6056  154.5077 H   0  0  0  0  0  0  0  0  0  0  0  0
  151.0068  142.0674  155.4541 H   0  0  0  0  0  0  0  0  0  0  0  0
  153.0176  140.5065  156.1928 H   0  0  0  0  0  0  0  0  0  0  0  0
  152.5899  138.3664  157.0459 H   0  0  0  0  0  0  0  0  0  0  0  0
  151.3418  139.2135  157.9484 H   0  0  0  0  0  0  0  0  0  0  0  0
  150.5968  137.1587  156.3940 H   0  0  0  0  0  0  0  0  0  0  0  0
  149.6776  138.6628  156.2484 H   0  0  0  0  0  0  0  0  0  0  0  0
  151.9586  137.7117  154.4728 H   0  0  0  0  0  0  0  0  0  0  0  0
  150.4013  138.3706  153.9631 H   0  0  0  0  0  0  0  0  0  0  0  0
  1  2  1  0  0  0  0
  1 28  1  0  0  0  0
  1 29  1  0  0  0  0
  1 30  1  0  0  0  0
  2 22  1  0  0  0  0
  2  3  1  0  0  0  0
  2  4  1  0  0  0  0
  3 31  1  0  0  0  0
  3 32  1  0  0  0  0
  3 33  1  0  0  0  0
  4  5  1  0  0  0  0
  4 34  1  0  0  0  0
  4 35  1  0  0  0  0
  5  6  1  0  0  0  0
  5 22  1  0  0  0  0
  6 11  1  0  0  0  0
  6  7  2  0  0  0  0
  7  8  1  0  0  0  0
  8  9  2  0  0  0  0
  8 36  1  0  0  0  0
  9 10  1  0  0  0  0
 10 14  1  0  0  0  0
 10 11  2  0  0  0  0
 11 12  1  0  0  0  0
 12 13  2  0  0  0  0
 13 14  1  0  0  0  0
 13 37  1  0  0  0  0
 14 15  1  0  0  0  0
 15 16  1  0  0  0  0
 15 38  1  0  0  0  0
 15 39  1  0  0  0  0
 16 21  1  0  0  0  0
 16 17  1  0  0  0  0
 16 18  1  0  0  0  0
 17 40  1  0  0  0  0
 18 19  1  0  0  0  0
 18 41  1  0  0  0  0
 18 42  1  0  0  0  0
 19 20  1  0  0  0  0
 19 43  1  0  0  0  0
 19 44  1  0  0  0  0
 20 21  1  0  0  0  0
 21 45  1  0  0  0  0
 21 46  1  0  0  0  0
 22 23  1  0  0  0  0
 22 47  1  0  0  0  0
 23 27  1  0  0  0  0
 23 24  1  0  0  0  0
 23 48  1  0  0  0  0
 24 25  1  0  0  0  0
 24 49  1  0  0  0  0
 24 50  1  0  0  0  0
 25 26  1  0  0  0  0
 25 51  1  0  0  0  0
 25 52  1  0  0  0  0
 26 27  1  0  0  0  0
 26 53  1  0  0  0  0
 26 54  1  0  0  0  0
M  END
> <s_m_source_file>
AV-unprocessed.smi

> <i_m_source_file_index>
13

> <i_lp_mmshare_version>
43012

> <i_f3d_flags>
0

> <s_epik_input>
TzFbQ0gyXVtDSDJdW0NIMl1bQ0BIXTFbQ0BASF0yTihbQ0gyXUMyKFtDSDNdKVtDSDNdKWMobltjSF1uMyljKGMzNCluW2NIXW40W0NIMl1bQ0BAXTUoW09IXSlbQ0gyXVtDSDJdT1tDSDJdNQ==

> <s_epik_cmdline>
J2VwaWtfcHl0aG9uJywgJy1waCcsICc3LjAnLCAnLXRuJywgJzgnLCAnLW1hJywgJzIwMCcsICctbWV0YWxfYmluZGluZycsICctaW1hZScsICc8aW5maWxlLm1hZT4nLCAnLW9tYWUnLCAnPG91dGZpbGUubWFlPic=

> <r_lp_tautomer_probability>
1

> <r_epik_Ionization_Penalty>
0.00202764

> <r_epik_Ionization_Penalty_Charging>
0

> <r_epik_Ionization_Penalty_Neutral>
0.00202764

> <r_epik_State_Penalty>
0.00134017

> <r_epik_Charging_Adjusted_Penalty>
0.00134017

> <i_epik_Tot_Q>
0

> <i_epik_Tot_abs_Q>
0

> <r_epik_Metal_State_Penalty>
-0

> <b_epik_Metal_Only>
0

> <s_lp_Force_Field>
OPLS_2005

> <r_lp_Energy>
64.8662

> <b_lp_Chiralities_Consistent>
1

> <s_lp_Variant>
AV-unprocessed.smi:13-8

> <Gold.Version>
5.8.1

> <Gold.Id.Protein>
6NUR|6NUR_protein|mol2

> <Gold.PLP.Fitness>
37.7659

> <Gold.PLP.PLP>
-32.6205

> <Gold.PLP.part.hbond>
-2.0000

> <Gold.PLP.part.metal>
0.0000

> <Gold.PLP.part.buried>
-7.0680

> <Gold.PLP.part.nonpolar>
-24.7010

> <Gold.PLP.part.repulsive>
0.8651

> <Gold.PLP.ligand.clash>
0.0000

> <Gold.PLP.ligand.torsion>
0.6451

> <Gold.PLP.Chemscore.Hbond>
2.0000

> <Gold.PLP.Chemscore.CHOScore>
0.0000

> <Gold.PLP.Chemscore.Metal>
0.0000

> <Gold.Chemscore.Hbonds>
donor molecule, donor type, donor heavy atom, donor atom, acceptor molecule, acceptor atom, score
      L1  H    17    40       P1  7948  1.00
      P1  H  7989  7998       L1    27  1.00

> <Gold.PLP.Chemscore.Internal.Correction>
0.4356

> <Gold.Rescore>
     Score         DG    S(hbond)    S(metal)    S(lipo)     H(rot)  DE(clash)    DE(int)     intcor
     12.46     -15.69       1.95        0.00      82.01       2.30       0.38       2.86       ----

> <Gold.Chemscore.Fitness>
12.4560

> <Gold.Chemscore.DG>
-15.6929

> <Gold.Chemscore.ZeroCoef>
-5.4800

> <Gold.Chemscore.Hbond>
1.9474

> <Gold.Chemscore.Metal>
0.0000

> <Gold.Chemscore.Lipo>
82.0146

> <Gold.Chemscore.Internal_Hbond>
0.0000

> <Gold.Chemscore.DEClash>
0.3791

> <Gold.Chemscore.DEInternal>
2.8578

> <Gold.Chemscore.Rot>
2.2996

> <Gold.Chemscore.Internal.Correction>
   9.000000E+99

> <Gold.Chemscore.Hbonds>
donor molecule, donor type, donor heavy atom, donor atom, acceptor molecule, acceptor atom, score
      L1  H    17    40       P1  7948  0.98
      P1  H  7989  7998       L1    27  0.93

> <Gold.Chemscore.Hbond.Weighted>
-6.5042

> <Gold.Chemscore.Metal.Weighted>
-0.0000

> <Gold.Chemscore.Lipo.Weighted>
-9.5957

> <Gold.Chemscore.Internal_Hbond.Weighted>
0.0000

> <Gold.Chemscore.DEClash.Weighted>
0.3791

> <Gold.Chemscore.DEInternal.Weighted>
2.8578

> <Gold.Chemscore.Rot.Weighted>
5.8869

> <Gold.Chemscore.Internal.Correction.Weighted>
   9.000000E+99

> <Gold.Protein.RotatedTorsions>
[ 6907 6896 6895 6894 ] final  104.46 input  -60.11 | X-H torsion
[ 7974 7965 7964 7962 ] final -127.47 input  175.53 | X-H torsion
[ 8008 7997 7996 7995 ] final  -92.20 input   59.86 | X-H torsion
[ 10167 10162 10161 10158 ] final  152.89 input  -65.29 | X-H torsion
[ 10718 10713 10712 10709 ] final -167.66 input   66.30 | X-H torsion
[ 10763 10752 10751 10750 ] final  -98.00 input  -60.55 | X-H torsion
[ 11005 11000 10999 10996 ] final  116.21 input  -57.11 | X-H torsion

> <Gold.Protein.ActiveResidues>
 VAL166  LYS551  ARG553  GLY616  TRP617  ASP618  TYR619  PRO620  LYS621  CYS622 
 ASP623  PHE694  ASN695  SER759  ASP760  ASP761  ALA762  ILE779  LEU786  VAL792 
 PHE793  MET794  SER795  GLU796  ALA797  LYS798  CYS799  TRP800  GLU811  SER814 

> <Gold.Protein.RotatedAtoms>
  152.5263  133.9673  159.7745 H   0  0  0  0  0  0  0  0  0  0  0  0  # atno 6907 bound_to 6896
  150.9952  133.6102  159.2709 H   0  0  0  0  0  0  0  0  0  0  0  0  # atno 6908 bound_to 6896
  151.3231  135.0829  159.9366 H   0  0  0  0  0  0  0  0  0  0  0  0  # atno 6909 bound_to 6896
  144.9768  140.7600  143.4637 H   0  0  0  0  0  0  0  0  0  0  0  0  # atno 7974 bound_to 7965
  154.7202  140.0511  157.0632 H   0  0  0  0  0  0  0  0  0  0  0  0  # atno 8008 bound_to 7997
  155.0437  140.3171  155.4696 H   0  0  0  0  0  0  0  0  0  0  0  0  # atno 8009 bound_to 7997
  156.2814  140.2128  156.5562 H   0  0  0  0  0  0  0  0  0  0  0  0  # atno 8010 bound_to 7997
  139.4830  144.5320  151.7707 H   0  0  0  0  0  0  0  0  0  0  0  0  # atno 10167 bound_to 10162
  156.6856  130.9139  151.3062 H   0  0  0  0  0  0  0  0  0  0  0  0  # atno 10718 bound_to 10713
  154.7377  135.5025  153.9069 H   0  0  0  0  0  0  0  0  0  0  0  0  # atno 10763 bound_to 10752
  153.1012  135.6685  153.9678 H   0  0  0  0  0  0  0  0  0  0  0  0  # atno 10764 bound_to 10752
  153.9464  135.3062  155.3420 H   0  0  0  0  0  0  0  0  0  0  0  0  # atno 10765 bound_to 10752
  139.9034  134.9595  156.7162 H   0  0  0  0  0  0  0  0  0  0  0  0  # atno 11005 bound_to 11000
  145.2479  139.2044  143.4958 LP  0  0  0  0  0  0  0  0  0  0  0  0  # atno 17320 bound_to 7965
  146.3397  140.2387  142.8595 LP  0  0  0  0  0  0  0  0  0  0  0  0  # atno 17321 bound_to 7965
  140.4847  144.1398  150.5939 LP  0  0  0  0  0  0  0  0  0  0  0  0  # atno 17342 bound_to 10162
  140.4238  143.2599  151.9682 LP  0  0  0  0  0  0  0  0  0  0  0  0  # atno 17343 bound_to 10162
  157.7027  130.9351  150.0836 LP  0  0  0  0  0  0  0  0  0  0  0  0  # atno 17370 bound_to 10713
  156.1835  130.3651  149.9004 LP  0  0  0  0  0  0  0  0  0  0  0  0  # atno 17371 bound_to 10713
  140.7036  133.9284  155.8040 LP  0  0  0  0  0  0  0  0  0  0  0  0  # atno 17394 bound_to 11000
  141.0353  134.0698  157.3966 LP  0  0  0  0  0  0  0  0  0  0  0  0  # atno 17395 bound_to 11000

$$$$
