AV-unprocessed.smi:350|AV-procd|sdf|2399|dock4
  -GOLD-   2262022333D 1   1.00000     0.00000
 Structure written by MMmdl.
 35 36  0  0  0  0  0  0  0  0  1 V2000
  150.8666  144.4290  160.4072 C   0  0  0  0  0  0  0  0  0  0  0  0
  151.6145  143.1896  159.9961 C   0  0  0  0  0  0  0  0  0  0  0  0
  151.2500  142.6319  158.8886 N   0  0  0  0  0  0  0  0  0  0  0  0
  151.8658  141.4877  158.4222 N   0  0  0  0  0  0  0  0  0  0  0  0
  151.3173  140.9919  157.1536 C   0  0  0  0  0  0  0  0  0  0  0  0
  150.1544  141.8661  156.6347 C   0  0  1  0  0  0  0  0  0  0  0  0
  150.6842  143.0815  156.1425 O   0  0  0  0  0  0  0  0  0  0  0  0
  149.3594  141.1365  155.5623 C   0  0  0  0  0  0  0  0  0  0  0  0
  149.7350  139.8402  155.1449 C   0  0  0  0  0  0  0  0  0  0  0  0
  148.9894  139.1679  154.1572 C   0  0  0  0  0  0  0  0  0  0  0  0
  147.8627  139.7866  153.5816 C   0  0  0  0  0  0  0  0  0  0  0  0
  146.9487  138.9634  152.3717 Cl  0  0  0  0  0  0  0  0  0  0  0  0
  147.4817  141.0774  153.9964 C   0  0  0  0  0  0  0  0  0  0  0  0
  148.2267  141.7495  154.9848 C   0  0  0  0  0  0  0  0  0  0  0  0
  152.8894  140.8443  159.0532 C   0  0  0  0  0  0  0  0  0  0  0  0
  153.4070  139.8211  158.6025 O   0  0  0  0  0  0  0  0  0  0  0  0
  153.3008  141.4831  160.3055 C   0  0  0  0  0  0  0  0  0  0  0  0
  154.3711  140.8417  160.9987 C   0  0  0  0  0  0  0  0  0  0  0  0
  155.2388  140.3363  161.5747 N   0  0  0  0  0  0  0  0  0  0  0  0
  152.7029  142.6072  160.7745 C   0  0  0  0  0  0  0  0  0  0  0  0
  153.0917  143.3093  162.0684 C   0  0  0  0  0  0  0  0  0  0  0  0
  150.3764  144.2832  161.3697 H   0  0  0  0  0  0  0  0  0  0  0  0
  150.0953  144.6974  159.6837 H   0  0  0  0  0  0  0  0  0  0  0  0
  151.5438  145.2787  160.4962 H   0  0  0  0  0  0  0  0  0  0  0  0
  152.0975  140.9039  156.3946 H   0  0  0  0  0  0  0  0  0  0  0  0
  150.9627  139.9713  157.3109 H   0  0  0  0  0  0  0  0  0  0  0  0
  149.4763  142.1127  157.4525 H   0  0  0  0  0  0  0  0  0  0  0  0
  149.9656  143.6630  155.9466 H   0  0  0  0  0  0  0  0  0  0  0  0
  150.5957  139.3562  155.5829 H   0  0  0  0  0  0  0  0  0  0  0  0
  149.2829  138.1770  153.8429 H   0  0  0  0  0  0  0  0  0  0  0  0
  146.6169  141.5534  153.5577 H   0  0  0  0  0  0  0  0  0  0  0  0
  147.9233  142.7378  155.2980 H   0  0  0  0  0  0  0  0  0  0  0  0
  153.8927  142.7913  162.5948 H   0  0  0  0  0  0  0  0  0  0  0  0
  152.2392  143.3659  162.7459 H   0  0  0  0  0  0  0  0  0  0  0  0
  153.4364  144.3233  161.8631 H   0  0  0  0  0  0  0  0  0  0  0  0
  1  2  1  0  0  0  0
  1 22  1  0  0  0  0
  1 23  1  0  0  0  0
  1 24  1  0  0  0  0
  2 20  1  0  0  0  0
  2  3  2  0  0  0  0
  3  4  1  0  0  0  0
  4  5  1  0  0  0  0
  4 15  1  0  0  0  0
  5  6  1  0  0  0  0
  5 25  1  0  0  0  0
  5 26  1  0  0  0  0
  6  7  1  0  0  0  0
  6  8  1  0  0  0  0
  6 27  1  0  0  0  0
  7 28  1  0  0  0  0
  8 14  1  0  0  0  0
  8  9  2  0  0  0  0
  9 10  1  0  0  0  0
  9 29  1  0  0  0  0
 10 11  2  0  0  0  0
 10 30  1  0  0  0  0
 11 12  1  0  0  0  0
 11 13  1  0  0  0  0
 13 14  2  0  0  0  0
 13 31  1  0  0  0  0
 14 32  1  0  0  0  0
 15 16  2  0  0  0  0
 15 17  1  0  0  0  0
 17 18  1  0  0  0  0
 17 20  2  0  0  0  0
 18 19  3  0  0  0  0
 20 21  1  0  0  0  0
 21 33  1  0  0  0  0
 21 34  1  0  0  0  0
 21 35  1  0  0  0  0
M  END
> <s_m_source_file>
AV-unprocessed.smi

> <i_m_source_file_index>
350

> <i_lp_mmshare_version>
43012

> <i_f3d_flags>
0

> <s_epik_input>
TiNDYyhjMVtDSDNdKWMoPU8pbihuYzFbQ0gzXSlbQ0gyXVtDQEhdKFtPSF0pYzJbY0hdW2NIXWMoQ2wpW2NIXVtjSF0y

> <s_epik_cmdline>
J2VwaWtfcHl0aG9uJywgJy1waCcsICc3LjAnLCAnLXRuJywgJzgnLCAnLW1hJywgJzIwMCcsICctbWV0YWxfYmluZGluZycsICctaW1hZScsICc8aW5maWxlLm1hZT4nLCAnLW9tYWUnLCAnPG91dGZpbGUubWFlPic=

> <r_lp_tautomer_probability>
1

> <r_epik_Ionization_Penalty>
1.17315e-07

> <r_epik_Ionization_Penalty_Charging>
1.40848e-10

> <r_epik_Ionization_Penalty_Neutral>
1.17174e-07

> <r_epik_State_Penalty>
-0

> <r_epik_Charging_Adjusted_Penalty>
1.40848e-10

> <i_epik_Tot_Q>
0

> <i_epik_Tot_abs_Q>
0

> <r_epik_Metal_State_Penalty>
-0

> <b_epik_Metal_Only>
0

> <s_lp_Force_Field>
OPLS_2005

> <r_lp_Energy>
28.138

> <b_lp_Chiralities_Consistent>
1

> <s_lp_Variant>
AV-unprocessed.smi:350-2

> <Gold.Version>
5.8.1

> <Gold.Id.Protein>
6NUR|6NUR_protein|mol2

> <Gold.PLP.Fitness>
48.7904

> <Gold.PLP.PLP>
-42.9976

> <Gold.PLP.part.hbond>
-2.2590

> <Gold.PLP.part.metal>
0.0000

> <Gold.PLP.part.buried>
-0.5499

> <Gold.PLP.part.nonpolar>
-39.6036

> <Gold.PLP.part.repulsive>
0.0245

> <Gold.PLP.ligand.clash>
0.0000

> <Gold.PLP.ligand.torsion>
0.1093

> <Gold.PLP.Chemscore.Hbond>
2.0000

> <Gold.PLP.Chemscore.CHOScore>
0.0000

> <Gold.PLP.Chemscore.Metal>
0.0000

> <Gold.Chemscore.Hbonds>
donor molecule, donor type, donor heavy atom, donor atom, acceptor molecule, acceptor atom, score
      L1  H     7    28       P1  8028  1.00
      P1  H  7997  8009       L1    16  1.00

> <Gold.PLP.Chemscore.Internal.Correction>
0.0114

> <Gold.Rescore>
     Score         DG    S(hbond)    S(metal)    S(lipo)     H(rot)  DE(clash)    DE(int)     intcor
     17.83     -19.41       1.82        0.00     108.75       1.90       1.43       0.15       ----

> <Gold.Chemscore.Fitness>
17.8316

> <Gold.Chemscore.DG>
-19.4141

> <Gold.Chemscore.ZeroCoef>
-5.4800

> <Gold.Chemscore.Hbond>
1.8223

> <Gold.Chemscore.Metal>
0.0000

> <Gold.Chemscore.Lipo>
108.7485

> <Gold.Chemscore.Internal_Hbond>
0.0000

> <Gold.Chemscore.DEClash>
1.4337

> <Gold.Chemscore.DEInternal>
0.1488

> <Gold.Chemscore.Rot>
1.9047

> <Gold.Chemscore.Internal.Correction>
   9.000000E+99

> <Gold.Chemscore.Hbonds>
donor molecule, donor type, donor heavy atom, donor atom, acceptor molecule, acceptor atom, score
      L1  H     7    28       P1  8028  0.93
      P1  H  7997  8009       L1    16  0.91

> <Gold.Chemscore.Hbond.Weighted>
-6.0866

> <Gold.Chemscore.Metal.Weighted>
-0.0000

> <Gold.Chemscore.Lipo.Weighted>
-12.7236

> <Gold.Chemscore.Internal_Hbond.Weighted>
0.0000

> <Gold.Chemscore.DEClash.Weighted>
1.4337

> <Gold.Chemscore.DEInternal.Weighted>
0.1488

> <Gold.Chemscore.Rot.Weighted>
4.8760

> <Gold.Chemscore.Internal.Correction.Weighted>
   9.000000E+99

> <Gold.Protein.RotatedTorsions>
[ 6907 6896 6895 6894 ] final -161.67 input  -60.11 | X-H torsion
[ 7974 7965 7964 7962 ] final  -24.99 input  175.53 | X-H torsion
[ 8008 7997 7996 7995 ] final  137.86 input   59.86 | X-H torsion
[ 10167 10162 10161 10158 ] final  176.18 input  -65.29 | X-H torsion
[ 10718 10713 10712 10709 ] final   82.23 input   66.30 | X-H torsion
[ 10763 10752 10751 10750 ] final  -92.88 input  -60.55 | X-H torsion
[ 11005 11000 10999 10996 ] final  161.87 input  -57.11 | X-H torsion

> <Gold.Protein.ActiveResidues>
 VAL166  LYS551  ARG553  GLY616  TRP617  ASP618  TYR619  PRO620  LYS621  CYS622 
 ASP623  PHE694  ASN695  SER759  ASP760  ASP761  ALA762  ILE779  LEU786  VAL792 
 PHE793  MET794  SER795  GLU796  ALA797  LYS798  CYS799  TRP800  GLU811  SER814 

> <Gold.Protein.RotatedAtoms>
  151.3683  133.3864  159.2696 H   0  0  0  0  0  0  0  0  0  0  0  0  # atno 6907 bound_to 6896
  150.9671  134.9051  159.7776 H   0  0  0  0  0  0  0  0  0  0  0  0  # atno 6908 bound_to 6896
  152.5171  134.3644  159.9348 H   0  0  0  0  0  0  0  0  0  0  0  0  # atno 6909 bound_to 6896
  146.1520  140.4826  142.8607 H   0  0  0  0  0  0  0  0  0  0  0  0  # atno 7974 bound_to 7965
  156.3000  140.2408  156.3979 H   0  0  0  0  0  0  0  0  0  0  0  0  # atno 8008 bound_to 7997
  154.8554  140.0422  157.1651 H   0  0  0  0  0  0  0  0  0  0  0  0  # atno 8009 bound_to 7997
  154.8953  140.2969  155.5351 H   0  0  0  0  0  0  0  0  0  0  0  0  # atno 8010 bound_to 7997
  139.5205  144.2945  152.0434 H   0  0  0  0  0  0  0  0  0  0  0  0  # atno 10167 bound_to 10162
  157.6852  131.0039  150.2344 H   0  0  0  0  0  0  0  0  0  0  0  0  # atno 10718 bound_to 10713
  154.6905  135.5215  153.8386 H   0  0  0  0  0  0  0  0  0  0  0  0  # atno 10763 bound_to 10752
  153.0629  135.6574  154.0431 H   0  0  0  0  0  0  0  0  0  0  0  0  # atno 10764 bound_to 10752
  154.0306  135.2985  155.3348 H   0  0  0  0  0  0  0  0  0  0  0  0  # atno 10765 bound_to 10752
  140.2201  134.8202  157.3211 H   0  0  0  0  0  0  0  0  0  0  0  0  # atno 11005 bound_to 11000
  144.7916  140.6042  143.6538 LP  0  0  0  0  0  0  0  0  0  0  0  0  # atno 17320 bound_to 7965
  145.4801  139.1496  143.3767 LP  0  0  0  0  0  0  0  0  0  0  0  0  # atno 17321 bound_to 7965
  140.2395  144.4285  150.6266 LP  0  0  0  0  0  0  0  0  0  0  0  0  # atno 17342 bound_to 10162
  140.6301  143.2186  151.6515 LP  0  0  0  0  0  0  0  0  0  0  0  0  # atno 17343 bound_to 10162
  156.2970  130.3753  149.7786 LP  0  0  0  0  0  0  0  0  0  0  0  0  # atno 17370 bound_to 10713
  156.5428  130.8307  151.3274 LP  0  0  0  0  0  0  0  0  0  0  0  0  # atno 17371 bound_to 10713
  140.1859  134.4432  155.7744 LP  0  0  0  0  0  0  0  0  0  0  0  0  # atno 17394 bound_to 11000
  141.2223  133.7004  156.7946 LP  0  0  0  0  0  0  0  0  0  0  0  0  # atno 17395 bound_to 11000

$$$$
