AV-unprocessed.smi:2499|AV-procd|sdf|9836|dock2
  -GOLD-   2272013463D 1   1.00000     0.00000
 Structure written by MMmdl.
 27 28  0  0  0  0  0  0  0  0  1 V2000
  152.8271  141.8034  160.2132 C   0  0  0  0  0  0  0  0  0  0  0  0
  152.7903  142.7593  159.0129 C   0  0  1  0  0  0  0  0  0  0  0  0
  151.8214  142.2542  158.0449 N   0  0  0  0  0  0  0  0  0  0  0  0
  151.8330  141.0353  157.4839 C   0  0  0  0  0  0  0  0  0  0  0  0
  152.6941  140.1967  157.7674 O   0  0  0  0  0  0  0  0  0  0  0  0
  150.7591  140.8968  156.6183 N   0  0  0  0  0  0  0  0  0  0  0  0
  150.8120  139.9906  155.6919 C   0  0  0  0  0  0  0  0  0  0  0  0
  149.8605  139.7116  154.7238 N   0  0  0  0  0  0  0  0  0  0  0  0
  150.3202  138.6725  153.9628 C   0  0  0  0  0  0  0  0  0  0  0  0
  151.5106  138.3102  154.4321 C   0  0  0  0  0  0  0  0  0  0  0  0
  151.8408  139.0983  155.4931 O   0  0  0  0  0  0  0  0  0  0  0  0
  152.5082  144.1830  159.4636 C   0  0  0  0  0  0  0  0  0  0  0  0
  151.1612  144.5817  160.0191 C   0  0  0  0  0  0  0  0  0  0  0  0
  151.5990  145.0857  158.6634 C   0  0  0  0  0  0  0  0  0  0  0  0
  153.5787  142.1136  160.9396 H   0  0  0  0  0  0  0  0  0  0  0  0
  153.0738  140.7881  159.9008 H   0  0  0  0  0  0  0  0  0  0  0  0
  151.8644  141.7706  160.7247 H   0  0  0  0  0  0  0  0  0  0  0  0
  153.7816  142.7395  158.5557 H   0  0  0  0  0  0  0  0  0  0  0  0
  151.0816  142.8861  157.7743 H   0  0  0  0  0  0  0  0  0  0  0  0
  148.9724  140.1670  154.5702 H   0  0  0  0  0  0  0  0  0  0  0  0
  149.7287  138.2919  153.1430 H   0  0  0  0  0  0  0  0  0  0  0  0
  152.2154  137.5473  154.1361 H   0  0  0  0  0  0  0  0  0  0  0  0
  153.3700  144.6726  159.9137 H   0  0  0  0  0  0  0  0  0  0  0  0
  150.3757  143.8289  160.0425 H   0  0  0  0  0  0  0  0  0  0  0  0
  151.1500  145.2924  160.8430 H   0  0  0  0  0  0  0  0  0  0  0  0
  151.8783  146.1341  158.5817 H   0  0  0  0  0  0  0  0  0  0  0  0
  151.1054  144.6645  157.7898 H   0  0  0  0  0  0  0  0  0  0  0  0
  1  2  1  0  0  0  0
  1 15  1  0  0  0  0
  1 16  1  0  0  0  0
  1 17  1  0  0  0  0
  2  3  1  0  0  0  0
  2 12  1  0  0  0  0
  2 18  1  0  0  0  0
  3 19  1  0  0  0  0
  3  4  1  0  0  0  0
  4  6  1  0  0  0  0
  4  5  2  0  0  0  0
  6  7  2  0  0  0  0
  7 11  1  0  0  0  0
  7  8  1  0  0  0  0
  8 20  1  0  0  0  0
  8  9  1  0  0  0  0
  9 21  1  0  0  0  0
  9 10  2  0  0  0  0
 10 22  1  0  0  0  0
 10 11  1  0  0  0  0
 12 14  1  0  0  0  0
 12 13  1  0  0  0  0
 12 23  1  0  0  0  0
 13 14  1  0  0  0  0
 13 24  1  0  0  0  0
 13 25  1  0  0  0  0
 14 26  1  0  0  0  0
 14 27  1  0  0  0  0
M  END
> <s_m_source_file>
AV-unprocessed.smi

> <i_m_source_file_index>
2499

> <i_lp_mmshare_version>
43012

> <i_f3d_flags>
0

> <s_epik_input>
W0NIMl0xW0NIMl1bQ0hdMVtDQEhdKFtDSDNdKVtOSF1DKD1PKVtOSF1jMm5bY0hdW2NIXW8y

> <s_epik_cmdline>
J2VwaWtfcHl0aG9uJywgJy1waCcsICc3LjAnLCAnLXRuJywgJzgnLCAnLW1hJywgJzIwMCcsICctbWV0YWxfYmluZGluZycsICctaW1hZScsICc8aW5maWxlLm1hZT4nLCAnLW9tYWUnLCAnPG91dGZpbGUubWFlPic=

> <r_lp_tautomer_probability>
0.107061

> <r_epik_Ionization_Penalty>
1.51515

> <r_epik_Ionization_Penalty_Charging>
1.51478

> <r_epik_Ionization_Penalty_Neutral>
0.000369309

> <r_epik_State_Penalty>
2.62718

> <r_epik_Charging_Adjusted_Penalty>
4.14196

> <i_epik_Tot_Q>
0

> <i_epik_Tot_abs_Q>
0

> <r_epik_Metal_State_Penalty>
3.5378

> <b_epik_Metal_Only>
0

> <s_lp_Force_Field>
OPLS_2005

> <r_lp_Energy>
35.9469

> <b_lp_Chiralities_Consistent>
1

> <s_lp_Variant>
AV-unprocessed.smi:2499-6

> <Gold.Version>
5.8.1

> <Gold.Id.Protein>
6NUR|6NUR_protein|mol2

> <Gold.PLP.Fitness>
39.1520

> <Gold.PLP.PLP>
-31.5566

> <Gold.PLP.part.hbond>
-1.0000

> <Gold.PLP.part.metal>
0.0000

> <Gold.PLP.part.buried>
-3.6014

> <Gold.PLP.part.nonpolar>
-24.9332

> <Gold.PLP.part.repulsive>
0.2132

> <Gold.PLP.ligand.clash>
0.0000

> <Gold.PLP.ligand.torsion>
0.7160

> <Gold.PLP.Chemscore.Hbond>
1.0000

> <Gold.PLP.Chemscore.CHOScore>
1.6552

> <Gold.PLP.Chemscore.Metal>
0.0000

> <Gold.Chemscore.Hbonds>
donor molecule, donor type, donor heavy atom, donor atom, acceptor molecule, acceptor atom, score
      P1  H  7997  8008       L1     5  1.00
      L1  C     9    21       P1  7948  1.00
      L1  C     9    21       P1  7957  0.48

> <Gold.PLP.Chemscore.Internal.Correction>
1.0619

> <Gold.Rescore>
     Score         DG    S(hbond)    S(metal)    S(lipo)     H(rot)  DE(clash)    DE(int)     intcor
     11.26     -14.56       0.96        0.00      78.41       1.29       0.19       3.11       ----

> <Gold.Chemscore.Fitness>
11.2618

> <Gold.Chemscore.DG>
-14.5566

> <Gold.Chemscore.ZeroCoef>
-5.4800

> <Gold.Chemscore.Hbond>
0.9606

> <Gold.Chemscore.Metal>
0.0000

> <Gold.Chemscore.Lipo>
78.4147

> <Gold.Chemscore.Internal_Hbond>
0.0000

> <Gold.Chemscore.DEClash>
0.1860

> <Gold.Chemscore.DEInternal>
3.1089

> <Gold.Chemscore.Rot>
1.2915

> <Gold.Chemscore.Internal.Correction>
   9.000000E+99

> <Gold.Chemscore.Hbonds>
donor molecule, donor type, donor heavy atom, donor atom, acceptor molecule, acceptor atom, score
      P1  H  7997  8008       L1     5  0.90

> <Gold.Chemscore.Hbond.Weighted>
-3.2083

> <Gold.Chemscore.Metal.Weighted>
-0.0000

> <Gold.Chemscore.Lipo.Weighted>
-9.1745

> <Gold.Chemscore.Internal_Hbond.Weighted>
0.0000

> <Gold.Chemscore.DEClash.Weighted>
0.1860

> <Gold.Chemscore.DEInternal.Weighted>
3.1089

> <Gold.Chemscore.Rot.Weighted>
3.3062

> <Gold.Chemscore.Internal.Correction.Weighted>
   9.000000E+99

> <Gold.Protein.RotatedTorsions>
[ 6907 6896 6895 6894 ] final  100.47 input  -60.11 | X-H torsion
[ 7974 7965 7964 7962 ] final -128.29 input  175.53 | X-H torsion
[ 8008 7997 7996 7995 ] final  -68.90 input   59.86 | X-H torsion
[ 10167 10162 10161 10158 ] final    5.25 input  -65.29 | X-H torsion
[ 10718 10713 10712 10709 ] final  -80.53 input   66.30 | X-H torsion
[ 10763 10752 10751 10750 ] final   21.94 input  -60.55 | X-H torsion
[ 11005 11000 10999 10996 ] final   98.81 input  -57.11 | X-H torsion

> <Gold.Protein.ActiveResidues>
 VAL166  LYS551  ARG553  GLY616  TRP617  ASP618  TYR619  PRO620  LYS621  CYS622 
 ASP623  PHE694  ASN695  SER759  ASP760  ASP761  ALA762  ILE779  LEU786  VAL792 
 PHE793  MET794  SER795  GLU796  ALA797  LYS798  CYS799  TRP800  GLU811  SER814 

> <Gold.Protein.RotatedAtoms>
  152.5371  134.0271  159.8007 H   0  0  0  0  0  0  0  0  0  0  0  0  # atno 6907 bound_to 6896
  151.0448  133.5667  159.2655 H   0  0  0  0  0  0  0  0  0  0  0  0  # atno 6908 bound_to 6896
  151.2623  135.0665  159.9156 H   0  0  0  0  0  0  0  0  0  0  0  0  # atno 6909 bound_to 6896
  144.9685  140.7521  143.4685 H   0  0  0  0  0  0  0  0  0  0  0  0  # atno 7974 bound_to 7965
  154.4900  140.0864  156.7573 H   0  0  0  0  0  0  0  0  0  0  0  0  # atno 8008 bound_to 7997
  155.4254  140.3447  155.4257 H   0  0  0  0  0  0  0  0  0  0  0  0  # atno 8009 bound_to 7997
  156.1316  140.1503  156.9044 H   0  0  0  0  0  0  0  0  0  0  0  0  # atno 8010 bound_to 7997
  140.6492  143.7587  150.7547 H   0  0  0  0  0  0  0  0  0  0  0  0  # atno 10167 bound_to 10162
  156.0068  130.4577  150.3815 H   0  0  0  0  0  0  0  0  0  0  0  0  # atno 10718 bound_to 10713
  153.0955  135.6658  153.9772 H   0  0  0  0  0  0  0  0  0  0  0  0  # atno 10763 bound_to 10752
  153.9357  135.2999  155.3445 H   0  0  0  0  0  0  0  0  0  0  0  0  # atno 10764 bound_to 10752
  154.7373  135.5096  153.9137 H   0  0  0  0  0  0  0  0  0  0  0  0  # atno 10765 bound_to 10752
  139.8771  134.9066  156.4512 H   0  0  0  0  0  0  0  0  0  0  0  0  # atno 11005 bound_to 11000
  145.2594  139.1998  143.4900 LP  0  0  0  0  0  0  0  0  0  0  0  0  # atno 17320 bound_to 7965
  146.3375  140.2521  142.8599 LP  0  0  0  0  0  0  0  0  0  0  0  0  # atno 17321 bound_to 7965
  140.1235  143.4591  152.2299 LP  0  0  0  0  0  0  0  0  0  0  0  0  # atno 17342 bound_to 10162
  139.5705  144.7460  151.3904 LP  0  0  0  0  0  0  0  0  0  0  0  0  # atno 17343 bound_to 10162
  157.1894  131.0411  151.2708 LP  0  0  0  0  0  0  0  0  0  0  0  0  # atno 17370 bound_to 10713
  157.4074  130.7366  149.6813 LP  0  0  0  0  0  0  0  0  0  0  0  0  # atno 17371 bound_to 10713
  140.8930  133.7834  155.9593 LP  0  0  0  0  0  0  0  0  0  0  0  0  # atno 17394 bound_to 11000
  140.8733  134.2700  157.5180 LP  0  0  0  0  0  0  0  0  0  0  0  0  # atno 17395 bound_to 11000

$$$$
