AV-unprocessed.smi:2782|AV-procd|sdf|10721|dock9
  -GOLD-   2272015163D 1   1.00000     0.00000
 Structure written by MMmdl.
 38 39  0  0  0  0  0  0  0  0  1 V2000
  151.1795  144.0589  158.0769 C   0  0  0  0  0  0  0  0  0  0  0  0
  151.8768  143.6927  159.3710 C   0  0  0  0  0  0  0  0  0  0  0  0
  151.8119  144.5548  160.4832 C   0  0  0  0  0  0  0  0  0  0  0  0
  152.4619  144.2050  161.6805 C   0  0  0  0  0  0  0  0  0  0  0  0
  153.1771  142.9951  161.7712 C   0  0  0  0  0  0  0  0  0  0  0  0
  153.9646  142.5892  163.2541 Cl  0  0  0  0  0  0  0  0  0  0  0  0
  153.2527  142.1204  160.6644 C   0  0  0  0  0  0  0  0  0  0  0  0
  153.9699  140.9539  160.8277 O   0  0  0  0  0  0  0  0  0  0  0  0
  154.2318  140.1490  159.6846 C   0  0  0  0  0  0  0  0  0  0  0  0
  155.0080  138.8879  160.1007 C   0  0  2  0  0  0  0  0  0  0  0  0
  155.6385  138.3657  158.9481 O   0  0  0  0  0  0  0  0  0  0  0  0
  154.1122  137.8140  160.7559 C   0  0  0  0  0  0  0  0  0  0  0  0
  154.7700  137.1674  161.8972 N   0  0  0  0  0  0  0  0  0  0  0  0
  155.1214  138.0402  162.9129 N   0  0  0  0  0  0  0  0  0  0  0  0
  155.7081  137.6155  163.9838 C   0  0  0  0  0  0  0  0  0  0  0  0
  156.0538  138.6283  165.0349 C   0  0  0  0  0  0  0  0  0  0  0  0
  156.0042  136.2023  164.1231 C   0  0  0  0  0  0  0  0  0  0  0  0
  155.6576  135.3530  163.1322 C   0  0  0  0  0  0  0  0  0  0  0  0
  154.9904  135.8199  161.9187 C   0  0  0  0  0  0  0  0  0  0  0  0
  154.6530  135.0703  161.0026 O   0  0  0  0  0  0  0  0  0  0  0  0
  152.5955  142.4831  159.4612 C   0  0  0  0  0  0  0  0  0  0  0  0
  150.5924  144.9715  158.1845 H   0  0  0  0  0  0  0  0  0  0  0  0
  150.5073  143.2573  157.7688 H   0  0  0  0  0  0  0  0  0  0  0  0
  151.9126  144.2161  157.2854 H   0  0  0  0  0  0  0  0  0  0  0  0
  151.2654  145.4846  160.4236 H   0  0  0  0  0  0  0  0  0  0  0  0
  152.4106  144.8673  162.5322 H   0  0  0  0  0  0  0  0  0  0  0  0
  153.3075  139.8758  159.1726 H   0  0  0  0  0  0  0  0  0  0  0  0
  154.8430  140.7197  158.9834 H   0  0  0  0  0  0  0  0  0  0  0  0
  155.7960  139.1949  160.7893 H   0  0  0  0  0  0  0  0  0  0  0  0
  155.3040  138.8232  158.1920 H   0  0  0  0  0  0  0  0  0  0  0  0
  153.1832  138.2725  161.1002 H   0  0  0  0  0  0  0  0  0  0  0  0
  153.8015  137.0733  160.0162 H   0  0  0  0  0  0  0  0  0  0  0  0
  156.4501  138.1482  165.9300 H   0  0  0  0  0  0  0  0  0  0  0  0
  155.1741  139.2029  165.3271 H   0  0  0  0  0  0  0  0  0  0  0  0
  156.8074  139.3254  164.6677 H   0  0  0  0  0  0  0  0  0  0  0  0
  156.4971  135.8413  165.0136 H   0  0  0  0  0  0  0  0  0  0  0  0
  155.8781  134.3009  163.2369 H   0  0  0  0  0  0  0  0  0  0  0  0
  152.6277  141.8461  158.5904 H   0  0  0  0  0  0  0  0  0  0  0  0
  1  2  1  0  0  0  0
  1 22  1  0  0  0  0
  1 23  1  0  0  0  0
  1 24  1  0  0  0  0
  2 21  1  0  0  0  0
  2  3  2  0  0  0  0
  3  4  1  0  0  0  0
  3 25  1  0  0  0  0
  4  5  2  0  0  0  0
  4 26  1  0  0  0  0
  5  6  1  0  0  0  0
  5  7  1  0  0  0  0
  7  8  1  0  0  0  0
  7 21  2  0  0  0  0
  8  9  1  0  0  0  0
  9 10  1  0  0  0  0
  9 27  1  0  0  0  0
  9 28  1  0  0  0  0
 10 11  1  0  0  0  0
 10 12  1  0  0  0  0
 10 29  1  0  0  0  0
 11 30  1  0  0  0  0
 12 13  1  0  0  0  0
 12 31  1  0  0  0  0
 12 32  1  0  0  0  0
 13 19  1  0  0  0  0
 13 14  1  0  0  0  0
 14 15  2  0  0  0  0
 15 16  1  0  0  0  0
 15 17  1  0  0  0  0
 16 33  1  0  0  0  0
 16 34  1  0  0  0  0
 16 35  1  0  0  0  0
 17 18  2  0  0  0  0
 17 36  1  0  0  0  0
 18 19  1  0  0  0  0
 18 37  1  0  0  0  0
 19 20  2  0  0  0  0
 21 38  1  0  0  0  0
M  END
> <s_m_source_file>
AV-unprocessed.smi

> <i_m_source_file_index>
2782

> <i_lp_mmshare_version>
43012

> <i_f3d_flags>
0

> <s_epik_input>
W0NIM11jMVtjSF1bY0hdYyhDbCljKFtjSF0xKU9bQ0gyXVtDQEhdKFtPSF0pW0NIMl1uMm5jKFtDSDNdKVtjSF1bY0hdYzI9Tw==

> <s_epik_cmdline>
J2VwaWtfcHl0aG9uJywgJy1waCcsICc3LjAnLCAnLXRuJywgJzgnLCAnLW1hJywgJzIwMCcsICctbWV0YWxfYmluZGluZycsICctaW1hZScsICc8aW5maWxlLm1hZT4nLCAnLW9tYWUnLCAnPG91dGZpbGUubWFlPic=

> <r_lp_tautomer_probability>
1

> <r_epik_Ionization_Penalty>
2.96353e-07

> <r_epik_Ionization_Penalty_Charging>
1.79179e-07

> <r_epik_Ionization_Penalty_Neutral>
1.17174e-07

> <r_epik_State_Penalty>
-0

> <r_epik_Charging_Adjusted_Penalty>
1.79179e-07

> <i_epik_Tot_Q>
0

> <i_epik_Tot_abs_Q>
0

> <r_epik_Metal_State_Penalty>
-0

> <b_epik_Metal_Only>
0

> <s_lp_Force_Field>
OPLS_2005

> <r_lp_Energy>
32.0669

> <b_lp_Chiralities_Consistent>
1

> <s_lp_Variant>
AV-unprocessed.smi:2782-1

> <Gold.Version>
5.8.1

> <Gold.Id.Protein>
6NUR|6NUR_protein|mol2

> <Gold.PLP.Fitness>
50.7176

> <Gold.PLP.PLP>
-49.2827

> <Gold.PLP.part.hbond>
-1.1598

> <Gold.PLP.part.metal>
0.0000

> <Gold.PLP.part.buried>
-6.4472

> <Gold.PLP.part.nonpolar>
-42.3084

> <Gold.PLP.part.repulsive>
0.0000

> <Gold.PLP.ligand.clash>
0.0000

> <Gold.PLP.ligand.torsion>
0.8060

> <Gold.PLP.Chemscore.Hbond>
1.0000

> <Gold.PLP.Chemscore.CHOScore>
0.0000

> <Gold.PLP.Chemscore.Metal>
0.0000

> <Gold.Chemscore.Hbonds>
donor molecule, donor type, donor heavy atom, donor atom, acceptor molecule, acceptor atom, score
      P1  H  6896  6908       L1    20  0.03

> <Gold.PLP.Chemscore.Internal.Correction>
0.0468

> <Gold.Rescore>
     Score         DG    S(hbond)    S(metal)    S(lipo)     H(rot)  DE(clash)    DE(int)     intcor
     18.12     -19.20       0.98        0.00     138.02       2.22       0.04       1.04       ----

> <Gold.Chemscore.Fitness>
18.1233

> <Gold.Chemscore.DG>
-19.2031

> <Gold.Chemscore.ZeroCoef>
-5.4800

> <Gold.Chemscore.Hbond>
0.9752

> <Gold.Chemscore.Metal>
0.0000

> <Gold.Chemscore.Lipo>
138.0232

> <Gold.Chemscore.Internal_Hbond>
0.0000

> <Gold.Chemscore.DEClash>
0.0359

> <Gold.Chemscore.DEInternal>
1.0438

> <Gold.Chemscore.Rot>
2.2199

> <Gold.Chemscore.Internal.Correction>
   9.000000E+99

> <Gold.Chemscore.Hbonds>
donor molecule, donor type, donor heavy atom, donor atom, acceptor molecule, acceptor atom, score
      P1  H  6896  6908       L1    20  0.08

> <Gold.Chemscore.Hbond.Weighted>
-3.2573

> <Gold.Chemscore.Metal.Weighted>
-0.0000

> <Gold.Chemscore.Lipo.Weighted>
-16.1487

> <Gold.Chemscore.Internal_Hbond.Weighted>
0.0000

> <Gold.Chemscore.DEClash.Weighted>
0.0359

> <Gold.Chemscore.DEInternal.Weighted>
1.0438

> <Gold.Chemscore.Rot.Weighted>
5.6829

> <Gold.Chemscore.Internal.Correction.Weighted>
   9.000000E+99

> <Gold.Protein.RotatedTorsions>
[ 6907 6896 6895 6894 ] final  -54.79 input  -60.11 | X-H torsion
[ 7974 7965 7964 7962 ] final -141.10 input  175.53 | X-H torsion
[ 8008 7997 7996 7995 ] final   97.89 input   59.86 | X-H torsion
[ 10167 10162 10161 10158 ] final -153.93 input  -65.29 | X-H torsion
[ 10718 10713 10712 10709 ] final  105.31 input   66.30 | X-H torsion
[ 10763 10752 10751 10750 ] final  -19.64 input  -60.55 | X-H torsion
[ 11005 11000 10999 10996 ] final   41.74 input  -57.11 | X-H torsion

> <Gold.Protein.ActiveResidues>
 VAL166  LYS551  ARG553  GLY616  TRP617  ASP618  TYR619  PRO620  LYS621  CYS622 
 ASP623  PHE694  ASN695  SER759  ASP760  ASP761  ALA762  ILE779  LEU786  VAL792 
 PHE793  MET794  SER795  GLU796  ALA797  LYS798  CYS799  TRP800  GLU811  SER814 

> <Gold.Protein.RotatedAtoms>
  150.8307  134.7559  159.6850 H   0  0  0  0  0  0  0  0  0  0  0  0  # atno 6907 bound_to 6896
  152.4412  134.5584  159.9897 H   0  0  0  0  0  0  0  0  0  0  0  0  # atno 6908 bound_to 6896
  151.5745  133.3348  159.3032 H   0  0  0  0  0  0  0  0  0  0  0  0  # atno 6909 bound_to 6896
  144.8545  140.6120  143.5368 H   0  0  0  0  0  0  0  0  0  0  0  0  # atno 7974 bound_to 7965
  156.0948  140.3252  155.7863 H   0  0  0  0  0  0  0  0  0  0  0  0  # atno 8008 bound_to 7997
  155.4936  140.0563  157.2967 H   0  0  0  0  0  0  0  0  0  0  0  0  # atno 8009 bound_to 7997
  154.4660  140.1989  156.0134 H   0  0  0  0  0  0  0  0  0  0  0  0  # atno 8010 bound_to 7997
  139.7055  143.9193  152.2447 H   0  0  0  0  0  0  0  0  0  0  0  0  # atno 10167 bound_to 10162
  157.6710  131.0824  150.5837 H   0  0  0  0  0  0  0  0  0  0  0  0  # atno 10718 bound_to 10713
  153.6079  135.6997  153.5358 H   0  0  0  0  0  0  0  0  0  0  0  0  # atno 10763 bound_to 10752
  153.3041  135.4120  155.1278 H   0  0  0  0  0  0  0  0  0  0  0  0  # atno 10764 bound_to 10752
  154.8569  135.3656  154.5617 H   0  0  0  0  0  0  0  0  0  0  0  0  # atno 10765 bound_to 10752
  140.1805  134.4109  155.8203 H   0  0  0  0  0  0  0  0  0  0  0  0  # atno 11005 bound_to 11000
  145.4433  139.1533  143.3958 LP  0  0  0  0  0  0  0  0  0  0  0  0  # atno 17320 bound_to 7965
  146.2812  140.4556  142.8775 LP  0  0  0  0  0  0  0  0  0  0  0  0  # atno 17321 bound_to 7965
  139.9047  144.6891  150.8627 LP  0  0  0  0  0  0  0  0  0  0  0  0  # atno 17342 bound_to 10162
  140.7720  143.3487  151.2058 LP  0  0  0  0  0  0  0  0  0  0  0  0  # atno 17343 bound_to 10162
  156.6137  130.4387  149.5849 LP  0  0  0  0  0  0  0  0  0  0  0  0  # atno 17370 bound_to 10713
  156.2410  130.6851  151.1555 LP  0  0  0  0  0  0  0  0  0  0  0  0  # atno 17371 bound_to 10713
  141.2223  133.6998  156.7922 LP  0  0  0  0  0  0  0  0  0  0  0  0  # atno 17394 bound_to 11000
  140.2273  134.8712  157.3440 LP  0  0  0  0  0  0  0  0  0  0  0  0  # atno 17395 bound_to 11000

$$$$
