AV-unprocessed.smi:992|AV-procd|sdf|4329|dock1
  -GOLD-   22720 2233D 1   1.00000     0.00000
 Structure written by MMmdl.
 32 33  0  0  0  0  0  0  0  0  1 V2000
  152.1600  145.2591  159.1682 C   0  0  0  0  0  0  0  0  0  0  0  0
  152.2712  143.7861  158.7616 C   0  0  2  0  0  0  0  0  0  0  0  0
  151.1645  143.3770  157.7730 C   0  0  0  0  0  0  0  0  0  0  0  0
  151.2476  141.9498  157.4957 N   0  0  0  0  0  0  0  0  0  0  0  0
  150.3779  141.5238  156.4820 C   0  0  0  0  0  0  0  0  0  0  0  0
  148.9866  141.6553  156.6758 C   0  0  0  0  0  0  0  0  0  0  0  0
  148.1166  141.2220  155.6568 C   0  0  0  0  0  0  0  0  0  0  0  0
  148.6680  140.6748  154.4816 C   0  0  0  0  0  0  0  0  0  0  0  0
  147.8467  140.2307  153.4462 N   0  0  0  0  0  0  0  0  0  0  0  0
  150.0714  140.5872  154.3790 C   0  0  0  0  0  0  0  0  0  0  0  0
  150.9118  140.9995  155.3523 N   0  0  0  0  0  0  0  0  0  0  0  0
  151.1631  141.1459  158.7084 C   0  0  0  0  0  0  0  0  0  0  0  0
  152.2370  141.5787  159.7271 C   0  0  1  0  0  0  0  0  0  0  0  0
  153.6579  141.1180  159.3565 C   0  0  0  0  0  0  0  0  0  0  0  0
  152.1695  142.9910  159.9437 O   0  0  0  0  0  0  0  0  0  0  0  0
  152.2374  145.9127  158.2990 H   0  0  0  0  0  0  0  0  0  0  0  0
  152.9551  145.5326  159.8622 H   0  0  0  0  0  0  0  0  0  0  0  0
  151.2067  145.4628  159.6568 H   0  0  0  0  0  0  0  0  0  0  0  0
  153.2477  143.6361  158.3007 H   0  0  0  0  0  0  0  0  0  0  0  0
  150.1846  143.6132  158.1910 H   0  0  0  0  0  0  0  0  0  0  0  0
  151.2634  143.9394  156.8435 H   0  0  0  0  0  0  0  0  0  0  0  0
  148.5919  142.0780  157.5882 H   0  0  0  0  0  0  0  0  0  0  0  0
  147.0468  141.3094  155.7791 H   0  0  0  0  0  0  0  0  0  0  0  0
  146.8404  140.2891  153.5110 H   0  0  0  0  0  0  0  0  0  0  0  0
  148.2302  139.9115  152.5681 H   0  0  0  0  0  0  0  0  0  0  0  0
  150.5346  140.1748  153.4944 H   0  0  0  0  0  0  0  0  0  0  0  0
  150.1738  141.2701  159.1512 H   0  0  0  0  0  0  0  0  0  0  0  0
  151.2723  140.0878  158.4665 H   0  0  0  0  0  0  0  0  0  0  0  0
  151.9943  141.1125  160.6822 H   0  0  0  0  0  0  0  0  0  0  0  0
  153.7124  140.0299  159.3171 H   0  0  0  0  0  0  0  0  0  0  0  0
  154.3813  141.4573  160.0980 H   0  0  0  0  0  0  0  0  0  0  0  0
  153.9743  141.4921  158.3832 H   0  0  0  0  0  0  0  0  0  0  0  0
  1  2  1  0  0  0  0
  1 16  1  0  0  0  0
  1 17  1  0  0  0  0
  1 18  1  0  0  0  0
  2 15  1  0  0  0  0
  2  3  1  0  0  0  0
  2 19  1  0  0  0  0
  3  4  1  0  0  0  0
  3 20  1  0  0  0  0
  3 21  1  0  0  0  0
  4  5  1  0  0  0  0
  4 12  1  0  0  0  0
  5 11  1  0  0  0  0
  5  6  2  0  0  0  0
  6  7  1  0  0  0  0
  6 22  1  0  0  0  0
  7  8  2  0  0  0  0
  7 23  1  0  0  0  0
  8  9  1  0  0  0  0
  8 10  1  0  0  0  0
  9 24  1  0  0  0  0
  9 25  1  0  0  0  0
 10 11  2  0  0  0  0
 10 26  1  0  0  0  0
 12 13  1  0  0  0  0
 12 27  1  0  0  0  0
 12 28  1  0  0  0  0
 13 14  1  0  0  0  0
 13 15  1  0  0  0  0
 13 29  1  0  0  0  0
 14 30  1  0  0  0  0
 14 31  1  0  0  0  0
 14 32  1  0  0  0  0
M  END
> <s_m_source_file>
AV-unprocessed.smi

> <i_m_source_file_index>
992

> <i_lp_mmshare_version>
43012

> <i_f3d_flags>
0

> <s_epik_input>
W0NIM11bQ0BASF0xW0NIMl1OKFtDSDJdW0NASF0oTzEpW0NIM10pYzJbY0hdW2NIXWMoW05IMl0pW2NIXW4y

> <s_epik_cmdline>
J2VwaWtfcHl0aG9uJywgJy1waCcsICc3LjAnLCAnLXRuJywgJzgnLCAnLW1hJywgJzIwMCcsICctbWV0YWxfYmluZGluZycsICctaW1hZScsICc8aW5maWxlLm1hZT4nLCAnLW9tYWUnLCAnPG91dGZpbGUubWFlPic=

> <r_lp_tautomer_probability>
1

> <r_epik_Ionization_Penalty>
0.0126232

> <r_epik_Ionization_Penalty_Charging>
0

> <r_epik_Ionization_Penalty_Neutral>
0.0126232

> <r_epik_State_Penalty>
0.00976577

> <r_epik_Charging_Adjusted_Penalty>
0.00976577

> <i_epik_Tot_Q>
0

> <i_epik_Tot_abs_Q>
0

> <r_epik_Metal_State_Penalty>
9.84661e-06

> <b_epik_Metal_Only>
0

> <s_lp_Force_Field>
OPLS_2005

> <r_lp_Energy>
23.4385

> <b_lp_Chiralities_Consistent>
1

> <s_lp_Variant>
AV-unprocessed.smi:992-1

> <Gold.Version>
5.8.1

> <Gold.Id.Protein>
6NUR|6NUR_protein|mol2

> <Gold.PLP.Fitness>
34.6652

> <Gold.PLP.PLP>
-28.8367

> <Gold.PLP.part.hbond>
-2.0000

> <Gold.PLP.part.metal>
0.0000

> <Gold.PLP.part.buried>
-0.3707

> <Gold.PLP.part.nonpolar>
-25.9487

> <Gold.PLP.part.repulsive>
0.1876

> <Gold.PLP.ligand.clash>
0.0000

> <Gold.PLP.ligand.torsion>
0.0566

> <Gold.PLP.Chemscore.Hbond>
0.9920

> <Gold.PLP.Chemscore.CHOScore>
0.9564

> <Gold.PLP.Chemscore.Metal>
0.0000

> <Gold.Chemscore.Hbonds>
donor molecule, donor type, donor heavy atom, donor atom, acceptor molecule, acceptor atom, score
      L1  H     9    25       P1  7957  1.00
      L1  C    10    26       P1  7957  0.98

> <Gold.PLP.Chemscore.Internal.Correction>
0.0964

> <Gold.Rescore>
     Score         DG    S(hbond)    S(metal)    S(lipo)     H(rot)  DE(clash)    DE(int)     intcor
     14.66     -16.22       0.93        0.00      87.06       1.00       1.52       0.05       ----

> <Gold.Chemscore.Fitness>
14.6580

> <Gold.Chemscore.DG>
-16.2240

> <Gold.Chemscore.ZeroCoef>
-5.4800

> <Gold.Chemscore.Hbond>
0.9337

> <Gold.Chemscore.Metal>
0.0000

> <Gold.Chemscore.Lipo>
87.0561

> <Gold.Chemscore.Internal_Hbond>
0.0000

> <Gold.Chemscore.DEClash>
1.5174

> <Gold.Chemscore.DEInternal>
0.0486

> <Gold.Chemscore.Rot>
1.0000

> <Gold.Chemscore.Internal.Correction>
   9.000000E+99

> <Gold.Chemscore.Hbonds>
donor molecule, donor type, donor heavy atom, donor atom, acceptor molecule, acceptor atom, score
      L1  H     9    25       P1  7957  0.94

> <Gold.Chemscore.Hbond.Weighted>
-3.1184

> <Gold.Chemscore.Metal.Weighted>
-0.0000

> <Gold.Chemscore.Lipo.Weighted>
-10.1856

> <Gold.Chemscore.Internal_Hbond.Weighted>
0.0000

> <Gold.Chemscore.DEClash.Weighted>
1.5174

> <Gold.Chemscore.DEInternal.Weighted>
0.0486

> <Gold.Chemscore.Rot.Weighted>
2.5600

> <Gold.Chemscore.Internal.Correction.Weighted>
   9.000000E+99

> <Gold.Protein.RotatedTorsions>
[ 6907 6896 6895 6894 ] final   18.97 input  -60.11 | X-H torsion
[ 7974 7965 7964 7962 ] final -165.52 input  175.53 | X-H torsion
[ 8008 7997 7996 7995 ] final  -98.95 input   59.86 | X-H torsion
[ 10167 10162 10161 10158 ] final -126.14 input  -65.29 | X-H torsion
[ 10718 10713 10712 10709 ] final   80.29 input   66.30 | X-H torsion
[ 10763 10752 10751 10750 ] final -172.62 input  -60.55 | X-H torsion
[ 11005 11000 10999 10996 ] final -167.66 input  -57.11 | X-H torsion

> <Gold.Protein.ActiveResidues>
 VAL166  LYS551  ARG553  GLY616  TRP617  ASP618  TYR619  PRO620  LYS621  CYS622 
 ASP623  PHE694  ASN695  SER759  ASP760  ASP761  ALA762  ILE779  LEU786  VAL792 
 PHE793  MET794  SER795  GLU796  ALA797  LYS798  CYS799  TRP800  GLU811  SER814 

> <Gold.Protein.RotatedAtoms>
  151.8736  135.0480  160.0481 H   0  0  0  0  0  0  0  0  0  0  0  0  # atno 6907 bound_to 6896
  152.2568  133.5258  159.5366 H   0  0  0  0  0  0  0  0  0  0  0  0  # atno 6908 bound_to 6896
  150.7102  134.0800  159.3937 H   0  0  0  0  0  0  0  0  0  0  0  0  # atno 6909 bound_to 6896
  144.7268  140.2802  143.6237 H   0  0  0  0  0  0  0  0  0  0  0  0  # atno 7974 bound_to 7965
  154.8082  140.0451  157.1323 H   0  0  0  0  0  0  0  0  0  0  0  0  # atno 8008 bound_to 7997
  154.9399  140.3051  155.5106 H   0  0  0  0  0  0  0  0  0  0  0  0  # atno 8009 bound_to 7997
  156.2969  140.2307  156.4467 H   0  0  0  0  0  0  0  0  0  0  0  0  # atno 8010 bound_to 7997
  139.9746  143.5808  152.2400 H   0  0  0  0  0  0  0  0  0  0  0  0  # atno 10167 bound_to 10162
  157.6802  130.9953  150.2058 H   0  0  0  0  0  0  0  0  0  0  0  0  # atno 10718 bound_to 10713
  154.6172  135.2871  155.0367 H   0  0  0  0  0  0  0  0  0  0  0  0  # atno 10763 bound_to 10752
  154.1575  135.6493  153.4982 H   0  0  0  0  0  0  0  0  0  0  0  0  # atno 10764 bound_to 10752
  153.0220  135.5370  154.6947 H   0  0  0  0  0  0  0  0  0  0  0  0  # atno 10765 bound_to 10752
  140.5507  134.5431  157.5122 H   0  0  0  0  0  0  0  0  0  0  0  0  # atno 11005 bound_to 11000
  145.7956  139.1944  143.2077 LP  0  0  0  0  0  0  0  0  0  0  0  0  # atno 17320 bound_to 7965
  146.0719  140.7859  142.9684 LP  0  0  0  0  0  0  0  0  0  0  0  0  # atno 17321 bound_to 7965
  139.6455  144.7658  151.2252 LP  0  0  0  0  0  0  0  0  0  0  0  0  # atno 17342 bound_to 10162
  140.7510  143.6246  150.8480 LP  0  0  0  0  0  0  0  0  0  0  0  0  # atno 17343 bound_to 10162
  156.2739  130.3725  149.8003 LP  0  0  0  0  0  0  0  0  0  0  0  0  # atno 17370 bound_to 10713
  156.5712  130.8425  151.3357 LP  0  0  0  0  0  0  0  0  0  0  0  0  # atno 17371 bound_to 10713
  139.9456  134.7707  156.0569 LP  0  0  0  0  0  0  0  0  0  0  0  0  # atno 17394 bound_to 11000
  141.1173  133.6623  156.3126 LP  0  0  0  0  0  0  0  0  0  0  0  0  # atno 17395 bound_to 11000

$$$$
