AV-unprocessed.smi:110|AV-procd|sdf|1073|dock3
  -GOLD-   2262018163D 1   1.00000     0.00000
 Structure written by MMmdl.
 46 50  0  0  0  0  0  0  0  0  1 V2000
  143.5904  138.5121  153.7745 O   0  0  0  0  0  0  0  0  0  0  0  0
  144.4916  137.9920  154.7286 C   0  0  0  0  0  0  0  0  0  0  0  0
  145.8370  138.7338  154.6439 C   0  0  1  0  0  0  0  0  0  0  0  0
  146.7998  138.1598  155.5273 O   0  0  0  0  0  0  0  0  0  0  0  0
  148.0927  138.3365  155.0280 C   0  0  2  0  0  0  0  0  0  0  0  0
  148.9021  139.1533  155.9914 N   0  0  0  0  0  0  0  0  0  0  0  0
  148.4218  139.9290  157.0216 C   0  0  0  0  0  0  0  0  0  0  0  0
  149.3284  140.5454  157.7289 N   0  0  0  0  0  0  0  0  0  0  0  0
  150.5316  140.1816  157.1364 C   0  0  0  0  0  0  0  0  0  0  0  0
  151.9008  140.4816  157.3921 C   0  0  0  0  0  0  0  0  0  0  0  0
  152.3397  141.2909  158.3844 N   0  0  0  0  0  0  0  0  0  0  0  0
  152.9688  140.6998  159.5742 C   0  0  0  0  0  0  0  0  0  0  0  0
  152.9495  141.7644  160.6872 C   0  0  0  0  0  0  0  0  0  0  0  0
  152.3988  142.9407  159.9476 C   0  0  0  0  0  0  0  0  0  0  0  0
  152.2203  144.2463  160.4367 C   0  0  0  0  0  0  0  0  0  0  0  0
  151.7049  145.2215  159.5560 C   0  0  0  0  0  0  0  0  0  0  0  0
  151.3912  144.8828  158.2190 C   0  0  0  0  0  0  0  0  0  0  0  0
  151.5815  143.5646  157.7490 C   0  0  0  0  0  0  0  0  0  0  0  0
  152.0748  142.5896  158.6406 C   0  0  0  0  0  0  0  0  0  0  0  0
  152.8333  139.8719  156.6171 N   0  0  0  0  0  0  0  0  0  0  0  0
  152.4559  139.0570  155.6291 C   0  0  0  0  0  0  0  0  0  0  0  0
  151.2219  138.7096  155.2618 N   0  0  0  0  0  0  0  0  0  0  0  0
  150.2759  139.2930  156.0525 C   0  0  0  0  0  0  0  0  0  0  0  0
  147.9804  138.9742  153.6285 C   0  0  2  0  0  0  0  0  0  0  0  0
  148.2440  140.3662  153.6077 O   0  0  0  0  0  0  0  0  0  0  0  0
  146.5276  138.6990  153.2737 C   0  0  1  0  0  0  0  0  0  0  0  0
  146.3962  137.4266  152.6651 O   0  0  0  0  0  0  0  0  0  0  0  0
  145.6946  139.7815  154.9115 H   0  0  0  0  0  0  0  0  0  0  0  0
  148.5917  137.3669  155.0078 H   0  0  0  0  0  0  0  0  0  0  0  0
  148.6785  138.4884  152.9455 H   0  0  0  0  0  0  0  0  0  0  0  0
  146.1158  139.4427  152.5900 H   0  0  0  0  0  0  0  0  0  0  0  0
  143.9162  139.3476  153.4769 H   0  0  0  0  0  0  0  0  0  0  0  0
  144.0618  138.0571  155.7286 H   0  0  0  0  0  0  0  0  0  0  0  0
  144.6307  136.9346  154.5016 H   0  0  0  0  0  0  0  0  0  0  0  0
  147.3673  140.0214  157.2378 H   0  0  0  0  0  0  0  0  0  0  0  0
  152.4404  139.7979  159.8863 H   0  0  0  0  0  0  0  0  0  0  0  0
  153.9949  140.4191  159.3338 H   0  0  0  0  0  0  0  0  0  0  0  0
  152.2864  141.4870  161.5069 H   0  0  0  0  0  0  0  0  0  0  0  0
  153.9455  141.9722  161.0794 H   0  0  0  0  0  0  0  0  0  0  0  0
  152.4753  144.4979  161.4556 H   0  0  0  0  0  0  0  0  0  0  0  0
  151.5577  146.2339  159.9022 H   0  0  0  0  0  0  0  0  0  0  0  0
  151.0080  145.6389  157.5501 H   0  0  0  0  0  0  0  0  0  0  0  0
  151.3560  143.3184  156.7221 H   0  0  0  0  0  0  0  0  0  0  0  0
  153.2562  138.6196  155.0509 H   0  0  0  0  0  0  0  0  0  0  0  0
  148.6297  140.5854  152.7732 H   0  0  0  0  0  0  0  0  0  0  0  0
  147.2525  137.0307  152.6087 H   0  0  0  0  0  0  0  0  0  0  0  0
  1  2  1  0  0  0  0
  1 32  1  0  0  0  0
  2  3  1  0  0  0  0
  2 33  1  0  0  0  0
  2 34  1  0  0  0  0
  3 28  1  0  0  0  0
  3 26  1  0  0  0  0
  3  4  1  0  0  0  0
  4  5  1  0  0  0  0
  5 29  1  0  0  0  0
  5  6  1  0  0  0  0
  5 24  1  0  0  0  0
  6 23  1  0  0  0  0
  6  7  1  0  0  0  0
  7  8  2  0  0  0  0
  7 35  1  0  0  0  0
  8  9  1  0  0  0  0
  9 23  2  0  0  0  0
  9 10  1  0  0  0  0
 10 11  1  0  0  0  0
 10 20  2  0  0  0  0
 11 19  1  0  0  0  0
 11 12  1  0  0  0  0
 12 13  1  0  0  0  0
 12 36  1  0  0  0  0
 12 37  1  0  0  0  0
 13 14  1  0  0  0  0
 13 38  1  0  0  0  0
 13 39  1  0  0  0  0
 14 19  2  0  0  0  0
 14 15  1  0  0  0  0
 15 16  2  0  0  0  0
 15 40  1  0  0  0  0
 16 17  1  0  0  0  0
 16 41  1  0  0  0  0
 17 18  2  0  0  0  0
 17 42  1  0  0  0  0
 18 19  1  0  0  0  0
 18 43  1  0  0  0  0
 20 21  1  0  0  0  0
 21 22  2  0  0  0  0
 21 44  1  0  0  0  0
 22 23  1  0  0  0  0
 24 30  1  0  0  0  0
 24 25  1  0  0  0  0
 24 26  1  0  0  0  0
 25 45  1  0  0  0  0
 26 31  1  0  0  0  0
 26 27  1  0  0  0  0
 27 46  1  0  0  0  0
M  END
> <s_m_source_file>
AV-unprocessed.smi

> <i_m_source_file_index>
110

> <i_lp_mmshare_version>
43012

> <i_f3d_flags>
0

> <s_epik_input>
W09IXVtDSDJdW0NASF0xT1tDQEhdKFtDQEhdKFtPSF0pW0NAQEhdMVtPSF0pbihbY0hdbjIpYyhjMjMpbltjSF1uYzNOKFtDSDJdW0NIMl00KWMoYzQ1KVtjSF1bY0hdW2NIXVtjSF01

> <s_epik_cmdline>
J2VwaWtfcHl0aG9uJywgJy1waCcsICc3LjAnLCAnLXRuJywgJzgnLCAnLW1hJywgJzIwMCcsICctbWV0YWxfYmluZGluZycsICctaW1hZScsICc8aW5maWxlLm1hZT4nLCAnLW9tYWUnLCAnPG91dGZpbGUubWFlPic=

> <r_lp_tautomer_probability>
1

> <r_epik_Ionization_Penalty>
0.00068475

> <r_epik_Ionization_Penalty_Charging>
0

> <r_epik_Ionization_Penalty_Neutral>
0.00068475

> <r_epik_State_Penalty>
0.000417442

> <r_epik_Charging_Adjusted_Penalty>
0.000417442

> <i_epik_Tot_Q>
0

> <i_epik_Tot_abs_Q>
0

> <r_epik_Metal_State_Penalty>
-0

> <b_epik_Metal_Only>
0

> <s_epik_Chemistry_Notes>
This compound contains an acetal/aminal-like group ( X-CH(R)-Y where X, Y are N, S, or O) that may be acid/base labile, releasing an aldehyde.

> <s_lp_Force_Field>
OPLS_2005

> <r_lp_Energy>
62.4803

> <b_lp_Chiralities_Consistent>
1

> <s_lp_Variant>
AV-unprocessed.smi:110-11

> <Gold.Version>
5.8.1

> <Gold.Id.Protein>
6NUR|6NUR_protein|mol2

> <Gold.PLP.Fitness>
52.6858

> <Gold.PLP.PLP>
-44.3270

> <Gold.PLP.part.hbond>
-3.3993

> <Gold.PLP.part.metal>
0.0000

> <Gold.PLP.part.buried>
-4.6888

> <Gold.PLP.part.nonpolar>
-35.8468

> <Gold.PLP.part.repulsive>
0.0737

> <Gold.PLP.ligand.clash>
0.0000

> <Gold.PLP.ligand.torsion>
1.6482

> <Gold.PLP.Chemscore.Hbond>
3.8640

> <Gold.PLP.Chemscore.CHOScore>
0.0000

> <Gold.PLP.Chemscore.Metal>
0.0000

> <Gold.Chemscore.Hbonds>
donor molecule, donor type, donor heavy atom, donor atom, acceptor molecule, acceptor atom, score
      L1  H     1    32       P1 10175  0.80
      L1  H    25    45       P1  7957  1.00
      L1  H    27    46       P1  7948  1.00
      P1  H  7997  8010       L1    20  1.00

> <Gold.PLP.Chemscore.Internal.Correction>
0.0633

> <Gold.Rescore>
     Score         DG    S(hbond)    S(metal)    S(lipo)     H(rot)  DE(clash)    DE(int)     intcor
     20.06     -22.08       3.89        0.00     104.79       3.38       0.47       1.55       ----

> <Gold.Chemscore.Fitness>
20.0567

> <Gold.Chemscore.DG>
-22.0825

> <Gold.Chemscore.ZeroCoef>
-5.4800

> <Gold.Chemscore.Hbond>
3.8933

> <Gold.Chemscore.Metal>
0.0000

> <Gold.Chemscore.Lipo>
104.7949

> <Gold.Chemscore.Internal_Hbond>
0.0000

> <Gold.Chemscore.DEClash>
0.4711

> <Gold.Chemscore.DEInternal>
1.5546

> <Gold.Chemscore.Rot>
3.3837

> <Gold.Chemscore.Internal.Correction>
   9.000000E+99

> <Gold.Chemscore.Hbonds>
donor molecule, donor type, donor heavy atom, donor atom, acceptor molecule, acceptor atom, score
      L1  H     1    32       P1 10175  0.75
      L1  H    25    45       P1  7957  0.93
      L1  H    27    46       P1  7948  0.94
      P1  H  7997  8010       L1    20  0.33

> <Gold.Chemscore.Hbond.Weighted>
-13.0037

> <Gold.Chemscore.Metal.Weighted>
-0.0000

> <Gold.Chemscore.Lipo.Weighted>
-12.2610

> <Gold.Chemscore.Internal_Hbond.Weighted>
0.0000

> <Gold.Chemscore.DEClash.Weighted>
0.4711

> <Gold.Chemscore.DEInternal.Weighted>
1.5546

> <Gold.Chemscore.Rot.Weighted>
8.6622

> <Gold.Chemscore.Internal.Correction.Weighted>
   9.000000E+99

> <Gold.Protein.RotatedTorsions>
[ 6907 6896 6895 6894 ] final -132.27 input  -60.11 | X-H torsion
[ 7974 7965 7964 7962 ] final -130.57 input  175.53 | X-H torsion
[ 8008 7997 7996 7995 ] final   83.93 input   59.86 | X-H torsion
[ 10167 10162 10161 10158 ] final  -86.32 input  -65.29 | X-H torsion
[ 10718 10713 10712 10709 ] final  -75.54 input   66.30 | X-H torsion
[ 10763 10752 10751 10750 ] final   20.91 input  -60.55 | X-H torsion
[ 11005 11000 10999 10996 ] final  -91.75 input  -57.11 | X-H torsion

> <Gold.Protein.ActiveResidues>
 VAL166  LYS551  ARG553  GLY616  TRP617  ASP618  TYR619  PRO620  LYS621  CYS622 
 ASP623  PHE694  ASN695  SER759  ASP760  ASP761  ALA762  ILE779  LEU786  VAL792 
 PHE793  MET794  SER795  GLU796  ALA797  LYS798  CYS799  TRP800  GLU811  SER814 

> <Gold.Protein.RotatedAtoms>
  150.9605  133.6451  159.2755 H   0  0  0  0  0  0  0  0  0  0  0  0  # atno 6907 bound_to 6896
  151.3775  135.0932  159.9495 H   0  0  0  0  0  0  0  0  0  0  0  0  # atno 6908 bound_to 6896
  152.5146  133.9146  159.7559 H   0  0  0  0  0  0  0  0  0  0  0  0  # atno 6909 bound_to 6896
  144.9462  140.7294  143.4816 H   0  0  0  0  0  0  0  0  0  0  0  0  # atno 7974 bound_to 7965
  155.9304  140.3415  155.6244 H   0  0  0  0  0  0  0  0  0  0  0  0  # atno 8008 bound_to 7997
  155.7165  140.0778  157.2367 H   0  0  0  0  0  0  0  0  0  0  0  0  # atno 8009 bound_to 7997
  154.4084  140.1613  156.2341 H   0  0  0  0  0  0  0  0  0  0  0  0  # atno 8010 bound_to 7997
  140.3953  143.2686  151.9212 H   0  0  0  0  0  0  0  0  0  0  0  0  # atno 10167 bound_to 10162
  156.0204  130.4443  150.3058 H   0  0  0  0  0  0  0  0  0  0  0  0  # atno 10718 bound_to 10713
  153.1038  135.6679  153.9624 H   0  0  0  0  0  0  0  0  0  0  0  0  # atno 10763 bound_to 10752
  153.9187  135.3017  155.3449 H   0  0  0  0  0  0  0  0  0  0  0  0  # atno 10764 bound_to 10752
  154.7459  135.5058  153.9279 H   0  0  0  0  0  0  0  0  0  0  0  0  # atno 10765 bound_to 10752
  141.1538  133.7775  156.9923 H   0  0  0  0  0  0  0  0  0  0  0  0  # atno 11005 bound_to 11000
  145.2915  139.1882  143.4738 LP  0  0  0  0  0  0  0  0  0  0  0  0  # atno 17320 bound_to 7965
  146.3304  140.2892  142.8614 LP  0  0  0  0  0  0  0  0  0  0  0  0  # atno 17321 bound_to 7965
  139.4787  144.5687  151.8122 LP  0  0  0  0  0  0  0  0  0  0  0  0  # atno 17342 bound_to 10162
  140.4797  144.1467  150.5930 LP  0  0  0  0  0  0  0  0  0  0  0  0  # atno 17343 bound_to 10162
  157.1160  131.0234  151.3028 LP  0  0  0  0  0  0  0  0  0  0  0  0  # atno 17370 bound_to 10713
  157.4666  130.7684  149.7285 LP  0  0  0  0  0  0  0  0  0  0  0  0  # atno 17371 bound_to 10713
  140.0995  134.9544  157.1901 LP  0  0  0  0  0  0  0  0  0  0  0  0  # atno 17394 bound_to 11000
  140.3338  134.2780  155.7223 LP  0  0  0  0  0  0  0  0  0  0  0  0  # atno 17395 bound_to 11000

$$$$
