AV-unprocessed.smi:2651|AV-procd|sdf|10293|dock5
  -GOLD-   2272014303D 1   1.00000     0.00000
 Structure written by MMmdl.
 43 44  0  0  0  0  0  0  0  0  1 V2000
  137.0828  137.9099  154.6910 C   0  0  0  0  0  0  0  0  0  0  0  0
  138.4921  137.4974  154.4373 C   0  0  0  0  0  0  0  0  0  0  0  0
  139.4416  137.9241  153.5518 C   0  0  0  0  0  0  0  0  0  0  0  0
  140.5559  137.0969  153.8542 C   0  0  0  0  0  0  0  0  0  0  0  0
  141.7718  137.2236  153.1351 N   0  0  0  0  0  0  0  0  0  0  0  0
  142.8921  136.4962  153.2821 C   0  0  0  0  0  0  0  0  0  0  0  0
  143.0454  135.6016  154.1128 O   0  0  0  0  0  0  0  0  0  0  0  0
  143.8312  136.8819  152.4011 N   0  0  0  0  0  0  0  0  0  0  0  0
  145.1888  136.3508  152.2030 C   0  0  2  0  0  0  0  0  0  0  0  0
  145.7113  136.1036  153.6377 C   0  0  0  0  0  0  0  0  0  0  0  0
  146.0894  137.4646  151.5862 C   0  0  0  0  0  0  0  0  0  0  0  0
  146.1350  137.4597  150.1736 O   0  0  0  0  0  0  0  0  0  0  0  0
  145.1791  135.0137  151.3751 C   0  0  0  0  0  0  0  0  0  0  0  0
  144.0491  134.0267  151.7686 C   0  0  0  0  0  0  0  0  0  0  0  0
  144.0187  132.8003  150.8416 C   0  0  0  0  0  0  0  0  0  0  0  0
  145.3727  132.0766  150.8283 C   0  0  0  0  0  0  0  0  0  0  0  0
  146.5067  133.0390  150.4470 C   0  0  0  0  0  0  0  0  0  0  0  0
  146.5347  134.2628  151.3768 C   0  0  0  0  0  0  0  0  0  0  0  0
  140.3093  136.2436  154.8361 N   0  0  0  0  0  0  0  0  0  0  0  0
  138.9854  136.4958  155.2148 O   0  0  0  0  0  0  0  0  0  0  0  0
  136.8021  138.7504  154.0561 H   0  0  0  0  0  0  0  0  0  0  0  0
  136.9491  138.2122  155.7298 H   0  0  0  0  0  0  0  0  0  0  0  0
  136.3971  137.0875  154.4864 H   0  0  0  0  0  0  0  0  0  0  0  0
  139.3499  138.7015  152.8080 H   0  0  0  0  0  0  0  0  0  0  0  0
  141.7862  137.9385  152.4230 H   0  0  0  0  0  0  0  0  0  0  0  0
  143.5757  137.6349  151.7797 H   0  0  0  0  0  0  0  0  0  0  0  0
  146.7366  135.7354  153.6465 H   0  0  0  0  0  0  0  0  0  0  0  0
  145.0991  135.3860  154.1831 H   0  0  0  0  0  0  0  0  0  0  0  0
  145.7074  137.0264  154.2198 H   0  0  0  0  0  0  0  0  0  0  0  0
  145.7816  138.4530  151.9304 H   0  0  0  0  0  0  0  0  0  0  0  0
  147.1204  137.3397  151.9193 H   0  0  0  0  0  0  0  0  0  0  0  0
  145.3458  137.8620  149.8451 H   0  0  0  0  0  0  0  0  0  0  0  0
  144.9857  135.2797  150.3357 H   0  0  0  0  0  0  0  0  0  0  0  0
  144.1823  133.6869  152.7955 H   0  0  0  0  0  0  0  0  0  0  0  0
  143.0750  134.5134  151.7292 H   0  0  0  0  0  0  0  0  0  0  0  0
  143.2346  132.1130  151.1605 H   0  0  0  0  0  0  0  0  0  0  0  0
  143.7608  133.1141  149.8293 H   0  0  0  0  0  0  0  0  0  0  0  0
  145.5699  131.6507  151.8129 H   0  0  0  0  0  0  0  0  0  0  0  0
  145.3420  131.2408  150.1289 H   0  0  0  0  0  0  0  0  0  0  0  0
  147.4639  132.5187  150.4884 H   0  0  0  0  0  0  0  0  0  0  0  0
  146.3780  133.3674  149.4148 H   0  0  0  0  0  0  0  0  0  0  0  0
  147.3430  134.9224  151.0628 H   0  0  0  0  0  0  0  0  0  0  0  0
  146.7835  133.9287  152.3838 H   0  0  0  0  0  0  0  0  0  0  0  0
  1  2  1  0  0  0  0
  1 21  1  0  0  0  0
  1 22  1  0  0  0  0
  1 23  1  0  0  0  0
  2 20  1  0  0  0  0
  2  3  2  0  0  0  0
  3  4  1  0  0  0  0
  3 24  1  0  0  0  0
  4  5  1  0  0  0  0
  4 19  2  0  0  0  0
  5  6  1  0  0  0  0
  5 25  1  0  0  0  0
  6  7  2  0  0  0  0
  6  8  1  0  0  0  0
  8  9  1  0  0  0  0
  8 26  1  0  0  0  0
  9 10  1  0  0  0  0
  9 11  1  0  0  0  0
  9 13  1  0  0  0  0
 10 27  1  0  0  0  0
 10 28  1  0  0  0  0
 10 29  1  0  0  0  0
 11 12  1  0  0  0  0
 11 30  1  0  0  0  0
 11 31  1  0  0  0  0
 12 32  1  0  0  0  0
 13 18  1  0  0  0  0
 13 14  1  0  0  0  0
 13 33  1  0  0  0  0
 14 15  1  0  0  0  0
 14 34  1  0  0  0  0
 14 35  1  0  0  0  0
 15 16  1  0  0  0  0
 15 36  1  0  0  0  0
 15 37  1  0  0  0  0
 16 17  1  0  0  0  0
 16 38  1  0  0  0  0
 16 39  1  0  0  0  0
 17 18  1  0  0  0  0
 17 40  1  0  0  0  0
 17 41  1  0  0  0  0
 18 42  1  0  0  0  0
 18 43  1  0  0  0  0
 19 20  1  0  0  0  0
M  END
> <s_m_source_file>
AV-unprocessed.smi

> <i_m_source_file_index>
2651

> <i_lp_mmshare_version>
43012

> <i_f3d_flags>
0

> <s_epik_input>
W0NIM11jMVtjSF1jKG5vMSlbTkhdQyg9TylbTkhdW0NAQF0oW0NIM10pKFtDSDJdW09IXSlbQ0hdMltDSDJdW0NIMl1bQ0gyXVtDSDJdW0NIMl0y

> <s_epik_cmdline>
J2VwaWtfcHl0aG9uJywgJy1waCcsICc3LjAnLCAnLXRuJywgJzgnLCAnLW1hJywgJzIwMCcsICctbWV0YWxfYmluZGluZycsICctaW1hZScsICc8aW5maWxlLm1hZT4nLCAnLW9tYWUnLCAnPG91dGZpbGUubWFlPic=

> <r_lp_tautomer_probability>
1

> <r_epik_Ionization_Penalty>
2.26451e-05

> <r_epik_Ionization_Penalty_Charging>
0

> <r_epik_Ionization_Penalty_Neutral>
2.26451e-05

> <r_epik_State_Penalty>
-0

> <r_epik_Charging_Adjusted_Penalty>
0

> <i_epik_Tot_Q>
0

> <i_epik_Tot_abs_Q>
0

> <r_epik_Metal_State_Penalty>
-0

> <b_epik_Metal_Only>
0

> <s_lp_Force_Field>
OPLS_2005

> <r_lp_Energy>
19.0521

> <b_lp_Chiralities_Consistent>
1

> <s_lp_Variant>
AV-unprocessed.smi:2651-2

> <Gold.Version>
5.8.1

> <Gold.Id.Protein>
6NUR|6NUR_protein|mol2

> <Gold.PLP.Fitness>
42.1780

> <Gold.PLP.PLP>
-35.8604

> <Gold.PLP.part.hbond>
-4.1433

> <Gold.PLP.part.metal>
0.0000

> <Gold.PLP.part.buried>
-3.1332

> <Gold.PLP.part.nonpolar>
-28.0035

> <Gold.PLP.part.repulsive>
0.2624

> <Gold.PLP.ligand.clash>
0.0000

> <Gold.PLP.ligand.torsion>
1.1692

> <Gold.PLP.Chemscore.Hbond>
2.8442

> <Gold.PLP.Chemscore.CHOScore>
0.0000

> <Gold.PLP.Chemscore.Metal>
0.0000

> <Gold.Chemscore.Hbonds>
donor molecule, donor type, donor heavy atom, donor atom, acceptor molecule, acceptor atom, score
      L1  H     8    26       P1 10171  0.56
      L1  H    12    32       P1 10171  1.00
      P1  H  7954  7966       L1    12  0.63
      P1  H 11000 11005       L1    19  0.29

> <Gold.PLP.Chemscore.Internal.Correction>
0.1234

> <Gold.Rescore>
     Score         DG    S(hbond)    S(metal)    S(lipo)     H(rot)  DE(clash)    DE(int)     intcor
     11.88     -16.09       2.28        0.00      71.28       2.09       0.09       4.11       ----

> <Gold.Chemscore.Fitness>
11.8827

> <Gold.Chemscore.DG>
-16.0900

> <Gold.Chemscore.ZeroCoef>
-5.4800

> <Gold.Chemscore.Hbond>
2.2843

> <Gold.Chemscore.Metal>
0.0000

> <Gold.Chemscore.Lipo>
71.2815

> <Gold.Chemscore.Internal_Hbond>
0.0000

> <Gold.Chemscore.DEClash>
0.0927

> <Gold.Chemscore.DEInternal>
4.1146

> <Gold.Chemscore.Rot>
2.0935

> <Gold.Chemscore.Internal.Correction>
   9.000000E+99

> <Gold.Chemscore.Hbonds>
donor molecule, donor type, donor heavy atom, donor atom, acceptor molecule, acceptor atom, score
      L1  H     8    26       P1 10171  0.53
      L1  H    12    32       P1 10171  0.99
      P1  H  7954  7966       L1    12  0.18
      P1  H 11000 11005       L1    19  0.01

> <Gold.Chemscore.Hbond.Weighted>
-7.6294

> <Gold.Chemscore.Metal.Weighted>
-0.0000

> <Gold.Chemscore.Lipo.Weighted>
-8.3399

> <Gold.Chemscore.Internal_Hbond.Weighted>
0.0000

> <Gold.Chemscore.DEClash.Weighted>
0.0927

> <Gold.Chemscore.DEInternal.Weighted>
4.1146

> <Gold.Chemscore.Rot.Weighted>
5.3594

> <Gold.Chemscore.Internal.Correction.Weighted>
   9.000000E+99

> <Gold.Protein.RotatedTorsions>
[ 6907 6896 6895 6894 ] final -119.30 input  -60.11 | X-H torsion
[ 7974 7965 7964 7962 ] final   99.99 input  175.53 | X-H torsion
[ 8008 7997 7996 7995 ] final  -56.64 input   59.86 | X-H torsion
[ 10167 10162 10161 10158 ] final  164.63 input  -65.29 | X-H torsion
[ 10718 10713 10712 10709 ] final -149.66 input   66.30 | X-H torsion
[ 10763 10752 10751 10750 ] final   32.39 input  -60.55 | X-H torsion
[ 11005 11000 10999 10996 ] final   42.90 input  -57.11 | X-H torsion

> <Gold.Protein.ActiveResidues>
 VAL166  LYS551  ARG553  GLY616  TRP617  ASP618  TYR619  PRO620  LYS621  CYS622 
 ASP623  PHE694  ASN695  SER759  ASP760  ASP761  ALA762  ILE779  LEU786  VAL792 
 PHE793  MET794  SER795  GLU796  ALA797  LYS798  CYS799  TRP800  GLU811  SER814 

> <Gold.Protein.RotatedAtoms>
  150.8294  133.8117  159.3104 H   0  0  0  0  0  0  0  0  0  0  0  0  # atno 6907 bound_to 6896
  151.5852  135.1055  160.0036 H   0  0  0  0  0  0  0  0  0  0  0  0  # atno 6908 bound_to 6896
  152.4375  133.7346  159.6663 H   0  0  0  0  0  0  0  0  0  0  0  0  # atno 6909 bound_to 6896
  145.3915  139.2362  143.3349 H   0  0  0  0  0  0  0  0  0  0  0  0  # atno 7974 bound_to 7965
  154.4238  140.1125  156.5670 H   0  0  0  0  0  0  0  0  0  0  0  0  # atno 8008 bound_to 7997
  155.6252  140.3495  155.4646 H   0  0  0  0  0  0  0  0  0  0  0  0  # atno 8009 bound_to 7997
  155.9992  140.1195  157.0553 H   0  0  0  0  0  0  0  0  0  0  0  0  # atno 8010 bound_to 7997
  139.4892  144.4215  151.9181 H   0  0  0  0  0  0  0  0  0  0  0  0  # atno 10167 bound_to 10162
  156.4360  130.8099  151.2327 H   0  0  0  0  0  0  0  0  0  0  0  0  # atno 10718 bound_to 10713
  153.0265  135.6414  154.1347 H   0  0  0  0  0  0  0  0  0  0  0  0  # atno 10763 bound_to 10752
  154.1075  135.2855  155.3239 H   0  0  0  0  0  0  0  0  0  0  0  0  # atno 10764 bound_to 10752
  154.6355  135.5478  153.7791 H   0  0  0  0  0  0  0  0  0  0  0  0  # atno 10765 bound_to 10752
  140.1695  134.4240  155.8266 H   0  0  0  0  0  0  0  0  0  0  0  0  # atno 11005 bound_to 11000
  146.2795  140.4599  142.8782 LP  0  0  0  0  0  0  0  0  0  0  0  0  # atno 17320 bound_to 7965
  144.8437  140.6896  143.6213 LP  0  0  0  0  0  0  0  0  0  0  0  0  # atno 17321 bound_to 7965
  140.3659  144.2915  150.5926 LP  0  0  0  0  0  0  0  0  0  0  0  0  # atno 17342 bound_to 10162
  140.5361  143.2233  151.8160 LP  0  0  0  0  0  0  0  0  0  0  0  0  # atno 17343 bound_to 10162
  157.7507  131.0183  150.3621 LP  0  0  0  0  0  0  0  0  0  0  0  0  # atno 17370 bound_to 10713
  156.3969  130.3908  149.6988 LP  0  0  0  0  0  0  0  0  0  0  0  0  # atno 17371 bound_to 10713
  141.2216  133.6949  156.7738 LP  0  0  0  0  0  0  0  0  0  0  0  0  # atno 17394 bound_to 11000
  140.2394  134.8625  157.3558 LP  0  0  0  0  0  0  0  0  0  0  0  0  # atno 17395 bound_to 11000

$$$$
