AV-unprocessed.smi:2553|AV-procd|sdf|10018|dock6
  -GOLD-   2272014 63D 1   1.00000     0.00000
 Structure written by MMmdl.
 28 29  0  0  0  0  0  0  0  0  2 V2000
  151.8659  135.8925  156.6309 O   0  0  0  0  0  0  0  0  0  0  0  0
  151.7947  137.1113  156.4798 C   0  0  0  0  0  0  0  0  0  0  0  0
  152.6128  137.7970  155.6284 N   0  5  0  0  0  0  0  0  0  0  0  0
  152.5476  139.1518  155.4451 C   0  0  0  0  0  0  0  0  0  0  0  0
  153.3067  139.7504  154.6824 O   0  0  0  0  0  0  0  0  0  0  0  0
  151.6092  139.8641  156.1362 N   0  0  0  0  0  0  0  0  0  0  0  0
  151.4778  141.3226  156.0144 C   0  0  0  0  0  0  0  0  0  0  0  0
  151.4525  142.0009  157.3926 C   0  0  0  0  0  0  0  0  0  0  0  0
  152.4129  141.3660  158.2257 O   0  0  0  0  0  0  0  0  0  0  0  0
  152.6619  141.8970  159.4725 C   0  0  0  0  0  0  0  0  0  0  0  0
  152.1422  143.1375  159.9215 C   0  0  0  0  0  0  0  0  0  0  0  0
  152.4401  143.6100  161.2143 C   0  0  0  0  0  0  0  0  0  0  0  0
  153.2582  142.8525  162.0722 C   0  0  0  0  0  0  0  0  0  0  0  0
  153.5434  143.3079  163.3151 F   0  0  0  0  0  0  0  0  0  0  0  0
  153.7784  141.6202  161.6363 C   0  0  0  0  0  0  0  0  0  0  0  0
  153.4819  141.1455  160.3436 C   0  0  0  0  0  0  0  0  0  0  0  0
  154.1353  139.6312  159.8287 Cl  0  0  0  0  0  0  0  0  0  0  0  0
  150.7478  139.2080  157.0316 C   0  0  0  0  0  0  0  0  0  0  0  0
  150.8026  137.8772  157.2319 C   0  0  0  0  0  0  0  0  0  0  0  0
  149.7383  137.1005  158.3493 Cl  0  0  0  0  0  0  0  0  0  0  0  0
  152.2968  141.7290  155.4191 H   0  0  0  0  0  0  0  0  0  0  0  0
  150.5726  141.5776  155.4614 H   0  0  0  0  0  0  0  0  0  0  0  0
  151.6668  143.0662  157.2923 H   0  0  0  0  0  0  0  0  0  0  0  0
  150.4583  141.8964  157.8290 H   0  0  0  0  0  0  0  0  0  0  0  0
  151.5088  143.7448  159.2930 H   0  0  0  0  0  0  0  0  0  0  0  0
  152.0389  144.5555  161.5480 H   0  0  0  0  0  0  0  0  0  0  0  0
  154.4063  141.0386  162.2949 H   0  0  0  0  0  0  0  0  0  0  0  0
  150.0524  139.8518  157.5506 H   0  0  0  0  0  0  0  0  0  0  0  0
  1  2  2  0  0  0  0
  2 19  1  0  0  0  0
  2  3  1  0  0  0  0
  3  4  1  0  0  0  0
  4  5  2  0  0  0  0
  4  6  1  0  0  0  0
  6  7  1  0  0  0  0
  6 18  1  0  0  0  0
  7  8  1  0  0  0  0
  7 21  1  0  0  0  0
  7 22  1  0  0  0  0
  8  9  1  0  0  0  0
  8 23  1  0  0  0  0
  8 24  1  0  0  0  0
  9 10  1  0  0  0  0
 10 16  1  0  0  0  0
 10 11  2  0  0  0  0
 11 12  1  0  0  0  0
 11 25  1  0  0  0  0
 12 13  2  0  0  0  0
 12 26  1  0  0  0  0
 13 14  1  0  0  0  0
 13 15  1  0  0  0  0
 15 16  2  0  0  0  0
 15 27  1  0  0  0  0
 16 17  1  0  0  0  0
 18 19  2  0  0  0  0
 18 28  1  0  0  0  0
 19 20  1  0  0  0  0
M  CHG  1   3  -1
M  END
> <s_m_source_file>
AV-unprocessed.smi

> <i_m_source_file_index>
2553

> <i_lp_mmshare_version>
43012

> <i_f3d_flags>
0

> <s_epik_input>
Tz1jMVtuSF1jKD1PKW4oW2NIXWMxQ2wpW0NIMl1bQ0gyXU9jMltjSF1bY0hdYyhGKVtjSF1jMkNs

> <s_epik_cmdline>
J2VwaWtfcHl0aG9uJywgJy1waCcsICc3LjAnLCAnLXRuJywgJzgnLCAnLW1hJywgJzIwMCcsICctbWV0YWxfYmluZGluZycsICctaW1hZScsICc8aW5maWxlLm1hZT4nLCAnLW9tYWUnLCAnPG91dGZpbGUubWFlPic=

> <r_lp_tautomer_probability>
1

> <r_epik_Ionization_Penalty>
1.51646

> <r_epik_Ionization_Penalty_Charging>
6.90068e-09

> <r_epik_Ionization_Penalty_Neutral>
1.51646

> <r_epik_State_Penalty>
1.60792

> <r_epik_Charging_Adjusted_Penalty>
1.60792

> <i_epik_Tot_Q>
-1

> <i_epik_Tot_abs_Q>
1

> <r_epik_Metal_State_Penalty>
0.00828827

> <b_epik_Metal_Only>
0

> <s_lp_Force_Field>
OPLS_2005

> <r_lp_Energy>
21.8883

> <b_lp_Chiralities_Consistent>
1

> <s_lp_Variant>
AV-unprocessed.smi:2553-2

> <Gold.Version>
5.8.1

> <Gold.Id.Protein>
6NUR|6NUR_protein|mol2

> <Gold.PLP.Fitness>
50.0138

> <Gold.PLP.PLP>
-43.4771

> <Gold.PLP.part.hbond>
-3.3599

> <Gold.PLP.part.metal>
0.0000

> <Gold.PLP.part.buried>
-4.2107

> <Gold.PLP.part.nonpolar>
-35.1628

> <Gold.PLP.part.repulsive>
0.0493

> <Gold.PLP.ligand.clash>
0.0000

> <Gold.PLP.ligand.torsion>
0.2649

> <Gold.PLP.Chemscore.Hbond>
2.3520

> <Gold.PLP.Chemscore.CHOScore>
0.0000

> <Gold.PLP.Chemscore.Metal>
0.0000

> <Gold.Chemscore.Hbonds>
donor molecule, donor type, donor heavy atom, donor atom, acceptor molecule, acceptor atom, score
      P1  H  7989  7998       L1     5  0.08
      P1  H  7997  8008       L1     5  0.95
      P1  H 10752 10763       L1     1  0.93

> <Gold.PLP.Chemscore.Internal.Correction>
0.0105

> <Gold.Rescore>
     Score         DG    S(hbond)    S(metal)    S(lipo)     H(rot)  DE(clash)    DE(int)     intcor
     16.16     -16.33       1.36        0.00      95.09       1.88       0.06       0.10       ----

> <Gold.Chemscore.Fitness>
16.1647

> <Gold.Chemscore.DG>
-16.3270

> <Gold.Chemscore.ZeroCoef>
-5.4800

> <Gold.Chemscore.Hbond>
1.3587

> <Gold.Chemscore.Metal>
0.0000

> <Gold.Chemscore.Lipo>
95.0871

> <Gold.Chemscore.Internal_Hbond>
0.0000

> <Gold.Chemscore.DEClash>
0.0578

> <Gold.Chemscore.DEInternal>
0.1046

> <Gold.Chemscore.Rot>
1.8814

> <Gold.Chemscore.Internal.Correction>
   9.000000E+99

> <Gold.Chemscore.Hbonds>
donor molecule, donor type, donor heavy atom, donor atom, acceptor molecule, acceptor atom, score
      P1  H  7989  7998       L1     5  0.02
      P1  H  7997  8008       L1     5  0.22
      P1  H 10752 10763       L1     1  0.23

> <Gold.Chemscore.Hbond.Weighted>
-4.5382

> <Gold.Chemscore.Metal.Weighted>
-0.0000

> <Gold.Chemscore.Lipo.Weighted>
-11.1252

> <Gold.Chemscore.Internal_Hbond.Weighted>
0.0000

> <Gold.Chemscore.DEClash.Weighted>
0.0578

> <Gold.Chemscore.DEInternal.Weighted>
0.1046

> <Gold.Chemscore.Rot.Weighted>
4.8163

> <Gold.Chemscore.Internal.Correction.Weighted>
   9.000000E+99

> <Gold.Protein.RotatedTorsions>
[ 6907 6896 6895 6894 ] final  166.69 input  -60.11 | X-H torsion
[ 7974 7965 7964 7962 ] final  -89.34 input  175.53 | X-H torsion
[ 8008 7997 7996 7995 ] final  -11.21 input   59.86 | X-H torsion
[ 10167 10162 10161 10158 ] final   22.39 input  -65.29 | X-H torsion
[ 10718 10713 10712 10709 ] final -119.31 input   66.30 | X-H torsion
[ 10763 10752 10751 10750 ] final   96.14 input  -60.55 | X-H torsion
[ 11005 11000 10999 10996 ] final   39.14 input  -57.11 | X-H torsion

> <Gold.Protein.ActiveResidues>
 VAL166  LYS551  ARG553  GLY616  TRP617  ASP618  TYR619  PRO620  LYS621  CYS622 
 ASP623  PHE694  ASN695  SER759  ASP760  ASP761  ALA762  ILE779  LEU786  VAL792 
 PHE793  MET794  SER795  GLU796  ALA797  LYS798  CYS799  TRP800  GLU811  SER814 

> <Gold.Protein.RotatedAtoms>
  151.8750  133.3483  159.3747 H   0  0  0  0  0  0  0  0  0  0  0  0  # atno 6907 bound_to 6896
  150.7142  134.5075  159.5600 H   0  0  0  0  0  0  0  0  0  0  0  0  # atno 6908 bound_to 6896
  152.2615  134.8029  160.0480 H   0  0  0  0  0  0  0  0  0  0  0  0  # atno 6909 bound_to 6896
  145.4412  140.9559  143.2074 H   0  0  0  0  0  0  0  0  0  0  0  0  # atno 7974 bound_to 7965
  154.5485  140.2308  155.8524 H   0  0  0  0  0  0  0  0  0  0  0  0  # atno 8008 bound_to 7997
  156.1925  140.3073  155.9322 H   0  0  0  0  0  0  0  0  0  0  0  0  # atno 8009 bound_to 7997
  155.3117  140.0436  157.3026 H   0  0  0  0  0  0  0  0  0  0  0  0  # atno 8010 bound_to 7997
  140.5352  143.9773  150.6487 H   0  0  0  0  0  0  0  0  0  0  0  0  # atno 10167 bound_to 10162
  156.1172  130.6295  150.9400 H   0  0  0  0  0  0  0  0  0  0  0  0  # atno 10718 bound_to 10713
  153.2614  135.4229  155.0897 H   0  0  0  0  0  0  0  0  0  0  0  0  # atno 10763 bound_to 10752
  154.8421  135.3450  154.6372 H   0  0  0  0  0  0  0  0  0  0  0  0  # atno 10764 bound_to 10752
  153.6793  135.7039  153.5180 H   0  0  0  0  0  0  0  0  0  0  0  0  # atno 10765 bound_to 10752
  140.2057  134.3816  155.8073 H   0  0  0  0  0  0  0  0  0  0  0  0  # atno 11005 bound_to 11000
  144.8121  139.5944  143.7025 LP  0  0  0  0  0  0  0  0  0  0  0  0  # atno 17320 bound_to 7965
  146.2555  139.6294  142.9397 LP  0  0  0  0  0  0  0  0  0  0  0  0  # atno 17321 bound_to 7965
  140.3159  143.3168  152.0833 LP  0  0  0  0  0  0  0  0  0  0  0  0  # atno 17342 bound_to 10162
  139.4968  144.6606  151.6473 LP  0  0  0  0  0  0  0  0  0  0  0  0  # atno 17343 bound_to 10162
  157.6355  131.0916  150.8357 LP  0  0  0  0  0  0  0  0  0  0  0  0  # atno 17370 bound_to 10713
  156.8459  130.5064  149.5316 LP  0  0  0  0  0  0  0  0  0  0  0  0  # atno 17371 bound_to 10713
  141.2227  133.7117  156.8334 LP  0  0  0  0  0  0  0  0  0  0  0  0  # atno 17394 bound_to 11000
  140.2005  134.8900  157.3163 LP  0  0  0  0  0  0  0  0  0  0  0  0  # atno 17395 bound_to 11000

$$$$
