AV-unprocessed.smi:1677|AV-procd|sdf|6724|dock10
  -GOLD-   22720 7473D 1   1.00000     0.00000
 Structure written by MMmdl.
 36 37  0  0  0  0  0  0  0  0  1 V2000
  152.1237  138.8858  155.9086 C   0  0  0  0  0  0  0  0  0  0  0  0
  150.8238  139.6997  155.8527 C   0  0  2  0  0  0  0  0  0  0  0  0
  150.4632  140.0855  154.4029 C   0  0  0  0  0  0  0  0  0  0  0  0
  149.0357  140.2681  154.2117 N   0  0  0  0  0  0  0  0  0  0  0  0
  148.1442  139.3667  153.6455 C   0  0  0  0  0  0  0  0  0  0  0  0
  146.9037  139.9617  153.6880 C   0  0  0  0  0  0  0  0  0  0  0  0
  147.0083  141.2241  154.2676 N   0  0  0  0  0  0  0  0  0  0  0  0
  148.2999  141.3364  154.5488 C   0  0  0  0  0  0  0  0  0  0  0  0
  150.9728  140.8934  156.6844 N   0  0  0  0  0  0  0  0  0  0  0  0
  151.3609  140.9095  157.9700 C   0  0  0  0  0  0  0  0  0  0  0  0
  151.6779  139.8966  158.5945 O   0  0  0  0  0  0  0  0  0  0  0  0
  151.3689  142.2769  158.6642 C   0  0  2  0  0  0  0  0  0  0  0  0
  151.4555  143.4292  157.6371 C   0  0  0  0  0  0  0  0  0  0  0  0
  151.7268  144.7679  158.3005 C   0  0  0  0  0  0  0  0  0  0  0  0
  152.1769  144.8906  159.5610 C   0  0  0  0  0  0  0  0  0  0  0  0
  152.4687  143.7049  160.4637 C   0  0  0  0  0  0  0  0  0  0  0  0
  152.5211  142.3772  159.6843 C   0  0  0  0  0  0  0  0  0  0  0  0
  152.0376  137.9691  155.3247 H   0  0  0  0  0  0  0  0  0  0  0  0
  152.3641  138.6003  156.9334 H   0  0  0  0  0  0  0  0  0  0  0  0
  152.9668  139.4538  155.5133 H   0  0  0  0  0  0  0  0  0  0  0  0
  150.0308  139.0643  156.2517 H   0  0  0  0  0  0  0  0  0  0  0  0
  150.9786  141.0012  154.1090 H   0  0  0  0  0  0  0  0  0  0  0  0
  150.7941  139.3066  153.7147 H   0  0  0  0  0  0  0  0  0  0  0  0
  148.4567  138.4010  153.2769 H   0  0  0  0  0  0  0  0  0  0  0  0
  145.9516  139.5812  153.3491 H   0  0  0  0  0  0  0  0  0  0  0  0
  148.7190  142.2127  155.0213 H   0  0  0  0  0  0  0  0  0  0  0  0
  150.7338  141.7759  156.2562 H   0  0  0  0  0  0  0  0  0  0  0  0
  150.4321  142.3854  159.2144 H   0  0  0  0  0  0  0  0  0  0  0  0
  152.2462  143.2522  156.9069 H   0  0  0  0  0  0  0  0  0  0  0  0
  150.5197  143.4995  157.0815 H   0  0  0  0  0  0  0  0  0  0  0  0
  151.5546  145.6512  157.7033 H   0  0  0  0  0  0  0  0  0  0  0  0
  152.3388  145.8730  159.9799 H   0  0  0  0  0  0  0  0  0  0  0  0
  153.4144  143.8693  160.9805 H   0  0  0  0  0  0  0  0  0  0  0  0
  151.6917  143.6629  161.2278 H   0  0  0  0  0  0  0  0  0  0  0  0
  152.4961  141.5395  160.3833 H   0  0  0  0  0  0  0  0  0  0  0  0
  153.4763  142.3098  159.1607 H   0  0  0  0  0  0  0  0  0  0  0  0
  1  2  1  0  0  0  0
  1 18  1  0  0  0  0
  1 19  1  0  0  0  0
  1 20  1  0  0  0  0
  2  3  1  0  0  0  0
  2  9  1  0  0  0  0
  2 21  1  0  0  0  0
  3  4  1  0  0  0  0
  3 22  1  0  0  0  0
  3 23  1  0  0  0  0
  4  8  1  0  0  0  0
  4  5  1  0  0  0  0
  5  6  2  0  0  0  0
  5 24  1  0  0  0  0
  6  7  1  0  0  0  0
  6 25  1  0  0  0  0
  7  8  2  0  0  0  0
  8 26  1  0  0  0  0
  9 10  1  0  0  0  0
  9 27  1  0  0  0  0
 10 11  2  0  0  0  0
 10 12  1  0  0  0  0
 12 17  1  0  0  0  0
 12 13  1  0  0  0  0
 12 28  1  0  0  0  0
 13 14  1  0  0  0  0
 13 29  1  0  0  0  0
 13 30  1  0  0  0  0
 14 15  2  0  0  0  0
 14 31  1  0  0  0  0
 15 16  1  0  0  0  0
 15 32  1  0  0  0  0
 16 17  1  0  0  0  0
 16 33  1  0  0  0  0
 16 34  1  0  0  0  0
 17 35  1  0  0  0  0
 17 36  1  0  0  0  0
M  END
> <s_m_source_file>
AV-unprocessed.smi

> <i_m_source_file_index>
1677

> <i_lp_mmshare_version>
43012

> <i_f3d_flags>
0

> <s_epik_input>
W2NIXTFuW2NIXVtjSF1uMVtDSDJdW0NAQEhdKFtDSDNdKVtOSF1DKD1PKVtDQEBIXTJbQ0gyXVtDSF09W0NIXVtDSDJdW0NIMl0y

> <s_epik_cmdline>
J2VwaWtfcHl0aG9uJywgJy1waCcsICc3LjAnLCAnLXRuJywgJzgnLCAnLW1hJywgJzIwMCcsICctbWV0YWxfYmluZGluZycsICctaW1hZScsICc8aW5maWxlLm1hZT4nLCAnLW9tYWUnLCAnPG91dGZpbGUubWFlPic=

> <r_lp_tautomer_probability>
1

> <r_epik_Ionization_Penalty>
0.640435

> <r_epik_Ionization_Penalty_Charging>
0.640435

> <r_epik_Ionization_Penalty_Neutral>
2.11108e-08

> <r_epik_State_Penalty>
0.658069

> <r_epik_Charging_Adjusted_Penalty>
1.2985

> <i_epik_Tot_Q>
0

> <i_epik_Tot_abs_Q>
0

> <r_epik_Metal_State_Penalty>
0.311689

> <b_epik_Metal_Only>
0

> <s_lp_Force_Field>
OPLS_2005

> <r_lp_Energy>
9.8402

> <b_lp_Chiralities_Consistent>
1

> <s_lp_Variant>
AV-unprocessed.smi:1677-5

> <Gold.Version>
5.8.1

> <Gold.Id.Protein>
6NUR|6NUR_protein|mol2

> <Gold.PLP.Fitness>
41.5956

> <Gold.PLP.PLP>
-36.3105

> <Gold.PLP.part.hbond>
0.0000

> <Gold.PLP.part.metal>
0.0000

> <Gold.PLP.part.buried>
0.3839

> <Gold.PLP.part.nonpolar>
-36.9599

> <Gold.PLP.part.repulsive>
0.2239

> <Gold.PLP.ligand.clash>
0.0000

> <Gold.PLP.ligand.torsion>
1.2610

> <Gold.PLP.Chemscore.Hbond>
0.0000

> <Gold.PLP.Chemscore.CHOScore>
2.5941

> <Gold.PLP.Chemscore.Metal>
0.0000

> <Gold.Chemscore.Hbonds>
donor molecule, donor type, donor heavy atom, donor atom, acceptor molecule, acceptor atom, score
      L1  C     5    24       P1  7948  0.78
      L1  C     6    25       P1 10175  0.85
      L1  C     8    26       P1  8028  0.88

> <Gold.PLP.Chemscore.Internal.Correction>
0.0248

> <Gold.Rescore>
     Score         DG    S(hbond)    S(metal)    S(lipo)     H(rot)  DE(clash)    DE(int)     intcor
     10.98     -12.48       0.00        0.00      98.08       1.75       0.25       1.25       ----

> <Gold.Chemscore.Fitness>
10.9815

> <Gold.Chemscore.DG>
-12.4816

> <Gold.Chemscore.ZeroCoef>
-5.4800

> <Gold.Chemscore.Hbond>
0.0000

> <Gold.Chemscore.Metal>
0.0000

> <Gold.Chemscore.Lipo>
98.0784

> <Gold.Chemscore.Internal_Hbond>
0.0000

> <Gold.Chemscore.DEClash>
0.2482

> <Gold.Chemscore.DEInternal>
1.2520

> <Gold.Chemscore.Rot>
1.7475

> <Gold.Chemscore.Internal.Correction>
   9.000000E+99

> <Gold.Chemscore.Hbond.Weighted>
-0.0000

> <Gold.Chemscore.Metal.Weighted>
-0.0000

> <Gold.Chemscore.Lipo.Weighted>
-11.4752

> <Gold.Chemscore.Internal_Hbond.Weighted>
0.0000

> <Gold.Chemscore.DEClash.Weighted>
0.2482

> <Gold.Chemscore.DEInternal.Weighted>
1.2520

> <Gold.Chemscore.Rot.Weighted>
4.4735

> <Gold.Chemscore.Internal.Correction.Weighted>
   9.000000E+99

> <Gold.Protein.RotatedTorsions>
[ 6907 6896 6895 6894 ] final -161.14 input  -60.11 | X-H torsion
[ 7974 7965 7964 7962 ] final   91.28 input  175.53 | X-H torsion
[ 8008 7997 7996 7995 ] final -134.41 input   59.86 | X-H torsion
[ 10167 10162 10161 10158 ] final   46.91 input  -65.29 | X-H torsion
[ 10718 10713 10712 10709 ] final -162.42 input   66.30 | X-H torsion
[ 10763 10752 10751 10750 ] final  -70.01 input  -60.55 | X-H torsion
[ 11005 11000 10999 10996 ] final -143.03 input  -57.11 | X-H torsion

> <Gold.Protein.ActiveResidues>
 VAL166  LYS551  ARG553  GLY616  TRP617  ASP618  TYR619  PRO620  LYS621  CYS622 
 ASP623  PHE694  ASN695  SER759  ASP760  ASP761  ALA762  ILE779  LEU786  VAL792 
 PHE793  MET794  SER795  GLU796  ALA797  LYS798  CYS799  TRP800  GLU811  SER814 

> <Gold.Protein.RotatedAtoms>
  151.3599  133.3893  159.2688 H   0  0  0  0  0  0  0  0  0  0  0  0  # atno 6907 bound_to 6896
  150.9734  134.9103  159.7812 H   0  0  0  0  0  0  0  0  0  0  0  0  # atno 6908 bound_to 6896
  152.5192  134.3562  159.9321 H   0  0  0  0  0  0  0  0  0  0  0  0  # atno 6909 bound_to 6896
  145.5078  139.2276  143.2741 H   0  0  0  0  0  0  0  0  0  0  0  0  # atno 7974 bound_to 7965
  155.3616  140.0483  157.3046 H   0  0  0  0  0  0  0  0  0  0  0  0  # atno 8008 bound_to 7997
  154.5175  140.2213  155.9002 H   0  0  0  0  0  0  0  0  0  0  0  0  # atno 8009 bound_to 7997
  156.1653  140.3108  155.8883 H   0  0  0  0  0  0  0  0  0  0  0  0  # atno 8010 bound_to 7997
  140.3090  144.2843  150.6203 H   0  0  0  0  0  0  0  0  0  0  0  0  # atno 10167 bound_to 10162
  156.6102  130.8847  151.2934 H   0  0  0  0  0  0  0  0  0  0  0  0  # atno 10718 bound_to 10713
  154.4115  135.6008  153.5955 H   0  0  0  0  0  0  0  0  0  0  0  0  # atno 10763 bound_to 10752
  152.9790  135.5930  154.4064 H   0  0  0  0  0  0  0  0  0  0  0  0  # atno 10764 bound_to 10752
  154.3877  135.2841  155.2152 H   0  0  0  0  0  0  0  0  0  0  0  0  # atno 10765 bound_to 10752
  140.8165  134.2682  157.4918 H   0  0  0  0  0  0  0  0  0  0  0  0  # atno 11005 bound_to 11000
  146.2186  140.5883  142.9027 LP  0  0  0  0  0  0  0  0  0  0  0  0  # atno 17320 bound_to 7965
  144.7744  140.5708  143.6648 LP  0  0  0  0  0  0  0  0  0  0  0  0  # atno 17321 bound_to 7965
  140.5585  143.2195  151.7806 LP  0  0  0  0  0  0  0  0  0  0  0  0  # atno 17342 bound_to 10162
  139.4898  144.4381  151.9796 LP  0  0  0  0  0  0  0  0  0  0  0  0  # atno 17343 bound_to 10162
  157.7256  130.9618  150.1622 LP  0  0  0  0  0  0  0  0  0  0  0  0  # atno 17370 bound_to 10713
  156.2396  130.3689  149.8352 LP  0  0  0  0  0  0  0  0  0  0  0  0  # atno 17371 bound_to 10713
  139.8711  134.9512  156.4078 LP  0  0  0  0  0  0  0  0  0  0  0  0  # atno 17394 bound_to 11000
  140.9143  133.7689  155.9829 LP  0  0  0  0  0  0  0  0  0  0  0  0  # atno 17395 bound_to 11000

$$$$
