AV-unprocessed.smi:2054|AV-procd|sdf|8332|dock6
  -GOLD-   2272011 03D 1   1.00000     0.00000
 Structure written by MMmdl.
 42 43  0  0  0  0  0  0  0  0  1 V2000
  150.5155  133.0268  156.2506 C   0  0  0  0  0  0  0  0  0  0  0  0
  149.0564  133.9728  156.8541 S   0  0  0  0  0  0  0  0  0  0  0  0
  147.9360  133.6894  155.9441 O   0  0  0  0  0  0  0  0  0  0  0  0
  148.9023  133.7515  158.3000 O   0  0  0  0  0  0  0  0  0  0  0  0
  149.5311  135.6250  156.6193 N   0  0  0  0  0  0  0  0  0  0  0  0
  148.5487  136.5319  155.9922 C   0  0  0  0  0  0  0  0  0  0  0  0
  148.9176  138.0071  156.2172 C   0  0  0  0  0  0  0  0  0  0  0  0
  150.3419  138.3056  155.7223 C   0  0  0  0  0  0  0  0  0  0  0  0
  150.7162  139.7758  155.9518 C   0  0  0  0  0  0  0  0  0  0  0  0
  150.9606  140.5123  154.9957 O   0  0  0  0  0  0  0  0  0  0  0  0
  150.7582  140.1899  157.2276 N   0  0  0  0  0  0  0  0  0  0  0  0
  151.0864  141.5435  157.6602 C   0  0  0  0  0  0  0  0  0  0  0  0
  152.4629  141.6039  158.3429 C   0  0  0  0  0  0  0  0  0  0  0  0
  152.4233  142.3863  159.6421 C   0  0  0  0  0  0  0  0  0  0  0  0
  151.9375  143.7112  159.6705 C   0  0  0  0  0  0  0  0  0  0  0  0
  151.9315  144.3974  160.9004 C   0  0  0  0  0  0  0  0  0  0  0  0
  152.4097  143.7365  162.0483 C   0  0  0  0  0  0  0  0  0  0  0  0
  152.8748  142.4130  161.9144 C   0  0  0  0  0  0  0  0  0  0  0  0
  152.8855  141.7463  160.7399 N   0  0  0  0  0  0  0  0  0  0  0  0
  151.3114  137.3624  156.4520 C   0  0  0  0  0  0  0  0  0  0  0  0
  150.9322  135.8882  156.2329 C   0  0  0  0  0  0  0  0  0  0  0  0
  150.2905  131.9611  156.2843 H   0  0  0  0  0  0  0  0  0  0  0  0
  151.3809  133.2267  156.8807 H   0  0  0  0  0  0  0  0  0  0  0  0
  150.7370  133.3158  155.2237 H   0  0  0  0  0  0  0  0  0  0  0  0
  148.4976  136.3136  154.9247 H   0  0  0  0  0  0  0  0  0  0  0  0
  147.5565  136.3414  156.3982 H   0  0  0  0  0  0  0  0  0  0  0  0
  148.1983  138.6437  155.7006 H   0  0  0  0  0  0  0  0  0  0  0  0
  148.8279  138.2404  157.2796 H   0  0  0  0  0  0  0  0  0  0  0  0
  150.3902  138.0955  154.6522 H   0  0  0  0  0  0  0  0  0  0  0  0
  150.5436  139.5192  157.9514 H   0  0  0  0  0  0  0  0  0  0  0  0
  151.0478  142.2288  156.8116 H   0  0  0  0  0  0  0  0  0  0  0  0
  150.3139  141.8696  158.3571 H   0  0  0  0  0  0  0  0  0  0  0  0
  152.8237  140.5942  158.5440 H   0  0  0  0  0  0  0  0  0  0  0  0
  153.1957  142.0638  157.6780 H   0  0  0  0  0  0  0  0  0  0  0  0
  151.5802  144.1929  158.7722 H   0  0  0  0  0  0  0  0  0  0  0  0
  151.5678  145.4124  160.9617 H   0  0  0  0  0  0  0  0  0  0  0  0
  152.4204  144.2319  163.0078 H   0  0  0  0  0  0  0  0  0  0  0  0
  153.2494  141.8763  162.7735 H   0  0  0  0  0  0  0  0  0  0  0  0
  152.3319  137.5297  156.1050 H   0  0  0  0  0  0  0  0  0  0  0  0
  151.3120  137.5756  157.5224 H   0  0  0  0  0  0  0  0  0  0  0  0
  151.6032  135.2596  156.8179 H   0  0  0  0  0  0  0  0  0  0  0  0
  151.0690  135.6103  155.1871 H   0  0  0  0  0  0  0  0  0  0  0  0
  1  2  1  0  0  0  0
  1 22  1  0  0  0  0
  1 23  1  0  0  0  0
  1 24  1  0  0  0  0
  2  3  2  0  0  0  0
  2  4  2  0  0  0  0
  2  5  1  0  0  0  0
  5 21  1  0  0  0  0
  5  6  1  0  0  0  0
  6  7  1  0  0  0  0
  6 25  1  0  0  0  0
  6 26  1  0  0  0  0
  7  8  1  0  0  0  0
  7 27  1  0  0  0  0
  7 28  1  0  0  0  0
  8  9  1  0  0  0  0
  8 20  1  0  0  0  0
  8 29  1  0  0  0  0
  9 10  2  0  0  0  0
  9 11  1  0  0  0  0
 11 12  1  0  0  0  0
 11 30  1  0  0  0  0
 12 13  1  0  0  0  0
 12 31  1  0  0  0  0
 12 32  1  0  0  0  0
 13 14  1  0  0  0  0
 13 33  1  0  0  0  0
 13 34  1  0  0  0  0
 14 19  1  0  0  0  0
 14 15  2  0  0  0  0
 15 16  1  0  0  0  0
 15 35  1  0  0  0  0
 16 17  2  0  0  0  0
 16 36  1  0  0  0  0
 17 18  1  0  0  0  0
 17 37  1  0  0  0  0
 18 19  2  0  0  0  0
 18 38  1  0  0  0  0
 20 21  1  0  0  0  0
 20 39  1  0  0  0  0
 20 40  1  0  0  0  0
 21 41  1  0  0  0  0
 21 42  1  0  0  0  0
M  END
> <s_m_source_file>
AV-unprocessed.smi

> <i_m_source_file_index>
2054

> <i_lp_mmshare_version>
43012

> <i_f3d_flags>
0

> <s_epik_input>
W0NIM11TKD1PKSg9TylOMVtDSDJdW0NIMl1bQ0hdKFtDSDJdW0NIMl0xKUMoPU8pW05IXVtDSDJdW0NIMl1jMltjSF1bY0hdW2NIXVtjSF1uMg==

> <s_epik_cmdline>
J2VwaWtfcHl0aG9uJywgJy1waCcsICc3LjAnLCAnLXRuJywgJzgnLCAnLW1hJywgJzIwMCcsICctbWV0YWxfYmluZGluZycsICctaW1hZScsICc8aW5maWxlLm1hZT4nLCAnLW9tYWUnLCAnPG91dGZpbGUubWFlPic=

> <r_epik_Ionization_Penalty>
0.0277532

> <r_epik_Ionization_Penalty_Charging>
0

> <r_epik_Ionization_Penalty_Neutral>
0.0277532

> <r_epik_State_Penalty>
0.022734

> <r_epik_Charging_Adjusted_Penalty>
0.022734

> <i_epik_Tot_Q>
0

> <i_epik_Tot_abs_Q>
0

> <r_epik_Metal_State_Penalty>
0.021713

> <b_epik_Metal_Only>
0

> <s_lp_Force_Field>
OPLS_2005

> <r_lp_Energy>
2.16831

> <b_lp_Chiralities_Consistent>
1

> <s_lp_Variant>
AV-unprocessed.smi:2054-1

> <Gold.Version>
5.8.1

> <Gold.Id.Protein>
6NUR|6NUR_protein|mol2

> <Gold.PLP.Fitness>
37.7215

> <Gold.PLP.PLP>
-32.5636

> <Gold.PLP.part.hbond>
-2.0000

> <Gold.PLP.part.metal>
0.0000

> <Gold.PLP.part.buried>
-5.5173

> <Gold.PLP.part.nonpolar>
-23.8896

> <Gold.PLP.part.repulsive>
0.1021

> <Gold.PLP.ligand.clash>
0.0000

> <Gold.PLP.ligand.torsion>
0.8077

> <Gold.PLP.Chemscore.Hbond>
2.0000

> <Gold.PLP.Chemscore.CHOScore>
0.0000

> <Gold.PLP.Chemscore.Metal>
0.0000

> <Gold.Chemscore.Hbonds>
donor molecule, donor type, donor heavy atom, donor atom, acceptor molecule, acceptor atom, score
      P1  H  6896  6909       L1     4  0.73
      P1  H  7989  7998       L1    10  1.00

> <Gold.PLP.Chemscore.Internal.Correction>
0.7732

> <Gold.Rescore>
     Score         DG    S(hbond)    S(metal)    S(lipo)     H(rot)  DE(clash)    DE(int)     intcor
     17.39     -18.27       1.97        0.00      93.33       1.84       0.07       0.81       ----

> <Gold.Chemscore.Fitness>
17.3903

> <Gold.Chemscore.DG>
-18.2651

> <Gold.Chemscore.ZeroCoef>
-5.4800

> <Gold.Chemscore.Hbond>
1.9701

> <Gold.Chemscore.Metal>
0.0000

> <Gold.Chemscore.Lipo>
93.3345

> <Gold.Chemscore.Internal_Hbond>
0.0000

> <Gold.Chemscore.DEClash>
0.0661

> <Gold.Chemscore.DEInternal>
0.8087

> <Gold.Chemscore.Rot>
1.8419

> <Gold.Chemscore.Internal.Correction>
   9.000000E+99

> <Gold.Chemscore.Hbonds>
donor molecule, donor type, donor heavy atom, donor atom, acceptor molecule, acceptor atom, score
      P1  H  6896  6909       L1     4  0.55
      P1  H  7989  7998       L1    10  0.95

> <Gold.Chemscore.Hbond.Weighted>
-6.5802

> <Gold.Chemscore.Metal.Weighted>
-0.0000

> <Gold.Chemscore.Lipo.Weighted>
-10.9201

> <Gold.Chemscore.Internal_Hbond.Weighted>
0.0000

> <Gold.Chemscore.DEClash.Weighted>
0.0661

> <Gold.Chemscore.DEInternal.Weighted>
0.8087

> <Gold.Chemscore.Rot.Weighted>
4.7153

> <Gold.Chemscore.Internal.Correction.Weighted>
   9.000000E+99

> <Gold.Protein.RotatedTorsions>
[ 6907 6896 6895 6894 ] final   -3.86 input  -60.11 | X-H torsion
[ 7974 7965 7964 7962 ] final  136.31 input  175.53 | X-H torsion
[ 8008 7997 7996 7995 ] final   -1.85 input   59.86 | X-H torsion
[ 10167 10162 10161 10158 ] final  179.36 input  -65.29 | X-H torsion
[ 10718 10713 10712 10709 ] final -151.32 input   66.30 | X-H torsion
[ 10763 10752 10751 10750 ] final   90.28 input  -60.55 | X-H torsion
[ 11005 11000 10999 10996 ] final    6.54 input  -57.11 | X-H torsion

> <Gold.Protein.ActiveResidues>
 VAL166  LYS551  ARG553  GLY616  TRP617  ASP618  TYR619  PRO620  LYS621  CYS622 
 ASP623  PHE694  ASN695  SER759  ASP760  ASP761  ALA762  ILE779  LEU786  VAL792 
 PHE793  MET794  SER795  GLU796  ALA797  LYS798  CYS799  TRP800  GLU811  SER814 

> <Gold.Protein.RotatedAtoms>
  151.5070  135.1064  159.9843 H   0  0  0  0  0  0  0  0  0  0  0  0  # atno 6907 bound_to 6896
  152.4678  133.7957  159.6936 H   0  0  0  0  0  0  0  0  0  0  0  0  # atno 6908 bound_to 6896
  150.8670  133.7496  159.2999 H   0  0  0  0  0  0  0  0  0  0  0  0  # atno 6909 bound_to 6896
  144.9577  139.4746  143.5495 H   0  0  0  0  0  0  0  0  0  0  0  0  # atno 7974 bound_to 7965
  154.6422  140.2549  155.7309 H   0  0  0  0  0  0  0  0  0  0  0  0  # atno 8008 bound_to 7997
  156.2534  140.2885  156.0741 H   0  0  0  0  0  0  0  0  0  0  0  0  # atno 8009 bound_to 7997
  155.1578  140.0383  157.2826 H   0  0  0  0  0  0  0  0  0  0  0  0  # atno 8010 bound_to 7997
  139.5333  144.2570  152.0738 H   0  0  0  0  0  0  0  0  0  0  0  0  # atno 10167 bound_to 10162
  156.4576  130.8198  151.2429 H   0  0  0  0  0  0  0  0  0  0  0  0  # atno 10718 bound_to 10713
  153.1959  135.4439  155.0207 H   0  0  0  0  0  0  0  0  0  0  0  0  # atno 10763 bound_to 10752
  154.8118  135.3298  154.7286 H   0  0  0  0  0  0  0  0  0  0  0  0  # atno 10764 bound_to 10752
  153.7735  135.6983  153.4957 H   0  0  0  0  0  0  0  0  0  0  0  0  # atno 10765 bound_to 10752
  140.5583  134.0216  155.7962 H   0  0  0  0  0  0  0  0  0  0  0  0  # atno 11005 bound_to 11000
  146.3343  139.8706  142.8841 LP  0  0  0  0  0  0  0  0  0  0  0  0  # atno 17320 bound_to 7965
  145.2747  141.0120  143.3751 LP  0  0  0  0  0  0  0  0  0  0  0  0  # atno 17321 bound_to 7965
  140.2036  144.4633  150.6419 LP  0  0  0  0  0  0  0  0  0  0  0  0  # atno 17342 bound_to 10162
  140.6525  143.2228  151.6045 LP  0  0  0  0  0  0  0  0  0  0  0  0  # atno 17343 bound_to 10162
  157.7499  131.0117  150.3357 LP  0  0  0  0  0  0  0  0  0  0  0  0  # atno 17370 bound_to 10713
  156.3750  130.3870  149.7146 LP  0  0  0  0  0  0  0  0  0  0  0  0  # atno 17371 bound_to 10713
  141.1130  133.9586  157.2875 LP  0  0  0  0  0  0  0  0  0  0  0  0  # atno 17394 bound_to 11000
  139.9420  135.0189  156.8738 LP  0  0  0  0  0  0  0  0  0  0  0  0  # atno 17395 bound_to 11000

$$$$
