AV-unprocessed.smi:867|AV-procd|sdf|4000|dock9
  -GOLD-   22720 1483D 1   1.00000     0.00000
 Structure written by MMmdl.
 54 57  0  0  0  0  0  0  0  0  3 V2000
  148.7702  138.5989  154.6591 O   0  0  0  0  0  0  0  0  0  0  0  0
  148.0353  139.4646  155.1357 C   0  0  0  0  0  0  0  0  0  0  0  0
  146.7631  139.2087  155.4855 N   0  0  0  0  0  0  0  0  0  0  0  0
  146.1053  137.9127  155.3672 C   0  0  0  0  0  0  0  0  0  0  0  0
  144.6540  138.0575  154.8813 C   0  0  0  0  0  0  0  0  0  0  0  0
  144.2137  136.8754  154.0403 C   0  0  0  0  0  0  0  0  0  0  0  0
  144.0846  137.0015  152.6393 C   0  0  0  0  0  0  0  0  0  0  0  0
  143.6688  135.8877  151.8803 C   0  0  0  0  0  0  0  0  0  0  0  0
  143.3906  134.6729  152.5397 C   0  0  0  0  0  0  0  0  0  0  0  0
  143.5244  134.5904  153.8819 N   0  3  0  0  0  0  0  0  0  0  0  0
  143.9202  135.6335  154.6443 C   0  0  0  0  0  0  0  0  0  0  0  0
  148.4146  140.7578  155.2876 N   0  0  0  0  0  0  0  0  0  0  0  0
  147.6909  141.7890  156.0399 C   0  0  0  0  0  0  0  0  0  0  0  0
  148.4245  142.0369  157.3699 C   0  0  0  0  0  0  0  0  0  0  0  0
  149.8529  142.4229  157.1616 N   0  3  0  0  0  0  0  0  0  0  0  0
  150.5595  142.6669  158.4575 C   0  0  2  0  0  0  0  0  0  0  0  0
  150.0225  143.9257  159.1910 C   0  0  0  0  0  0  0  0  0  0  0  0
  151.2863  144.7576  159.4622 C   0  0  1  0  0  0  0  0  0  0  0  0
  152.1529  144.0525  160.5186 C   0  0  0  0  0  0  0  0  0  0  0  0
  152.7202  142.8550  159.7369 C   0  0  0  0  0  0  0  0  0  0  0  0
  152.0731  143.0101  158.3459 C   0  0  2  0  0  0  0  0  0  0  0  0
  152.0775  144.5259  158.1821 C   0  0  0  0  0  0  0  0  0  0  0  0
  150.5559  141.4697  156.2523 C   0  0  0  0  0  0  0  0  0  0  0  0
  149.7638  141.2167  154.9561 C   0  0  0  0  0  0  0  0  0  0  0  0
  146.2068  139.9720  155.8427 H   0  0  0  0  0  0  0  0  0  0  0  0
  146.6754  137.3066  154.6625 H   0  0  0  0  0  0  0  0  0  0  0  0
  146.1399  137.3892  156.3243 H   0  0  0  0  0  0  0  0  0  0  0  0
  143.9768  138.1538  155.7312 H   0  0  0  0  0  0  0  0  0  0  0  0
  144.5446  138.9718  154.2968 H   0  0  0  0  0  0  0  0  0  0  0  0
  144.2996  137.9410  152.1505 H   0  0  0  0  0  0  0  0  0  0  0  0
  143.5639  135.9651  150.8079 H   0  0  0  0  0  0  0  0  0  0  0  0
  143.0667  133.7725  152.0384 H   0  0  0  0  0  0  0  0  0  0  0  0
  143.9869  135.4438  155.7059 H   0  0  0  0  0  0  0  0  0  0  0  0
  147.6614  142.7079  155.4523 H   0  0  0  0  0  0  0  0  0  0  0  0
  146.6490  141.5388  156.2402 H   0  0  0  0  0  0  0  0  0  0  0  0
  147.8886  142.8080  157.9214 H   0  0  0  0  0  0  0  0  0  0  0  0
  148.3831  141.1338  157.9813 H   0  0  0  0  0  0  0  0  0  0  0  0
  150.4323  141.7785  159.0787 H   0  0  0  0  0  0  0  0  0  0  0  0
  149.3508  144.5115  158.5625 H   0  0  0  0  0  0  0  0  0  0  0  0
  149.4847  143.6747  160.1061 H   0  0  0  0  0  0  0  0  0  0  0  0
  151.0798  145.8032  159.6932 H   0  0  0  0  0  0  0  0  0  0  0  0
  152.9584  144.7033  160.8614 H   0  0  0  0  0  0  0  0  0  0  0  0
  151.5741  143.7462  161.3909 H   0  0  0  0  0  0  0  0  0  0  0  0
  153.8065  142.9280  159.6665 H   0  0  0  0  0  0  0  0  0  0  0  0
  152.4831  141.8994  160.2057 H   0  0  0  0  0  0  0  0  0  0  0  0
  152.6394  142.4688  157.5919 H   0  0  0  0  0  0  0  0  0  0  0  0
  151.5617  144.8669  157.2829 H   0  0  0  0  0  0  0  0  0  0  0  0
  153.0778  144.9623  158.2086 H   0  0  0  0  0  0  0  0  0  0  0  0
  151.5295  141.8565  155.9602 H   0  0  0  0  0  0  0  0  0  0  0  0
  150.7252  140.5272  156.7754 H   0  0  0  0  0  0  0  0  0  0  0  0
  150.3024  140.5117  154.3207 H   0  0  0  0  0  0  0  0  0  0  0  0
  149.6950  142.1380  154.3755 H   0  0  0  0  0  0  0  0  0  0  0  0
  149.8384  143.3072  156.6740 H   0  0  0  0  0  0  0  0  0  0  0  0
  143.3167  133.7020  154.3392 H   0  0  0  0  0  0  0  0  0  0  0  0
  1  2  2  0  0  0  0
  2  3  1  0  0  0  0
  2 12  1  0  0  0  0
  3  4  1  0  0  0  0
  3 25  1  0  0  0  0
  4  5  1  0  0  0  0
  4 26  1  0  0  0  0
  4 27  1  0  0  0  0
  5  6  1  0  0  0  0
  5 28  1  0  0  0  0
  5 29  1  0  0  0  0
  6 11  1  0  0  0  0
  6  7  2  0  0  0  0
  7  8  1  0  0  0  0
  7 30  1  0  0  0  0
  8  9  2  0  0  0  0
  8 31  1  0  0  0  0
  9 10  1  0  0  0  0
  9 32  1  0  0  0  0
 10 11  2  0  0  0  0
 10 54  1  0  0  0  0
 11 33  1  0  0  0  0
 12 24  1  0  0  0  0
 12 13  1  0  0  0  0
 13 14  1  0  0  0  0
 13 34  1  0  0  0  0
 13 35  1  0  0  0  0
 14 15  1  0  0  0  0
 14 36  1  0  0  0  0
 14 37  1  0  0  0  0
 15 16  1  0  0  0  0
 15 23  1  0  0  0  0
 15 53  1  0  0  0  0
 16 21  1  0  0  0  0
 16 17  1  0  0  0  0
 16 38  1  0  0  0  0
 17 18  1  0  0  0  0
 17 39  1  0  0  0  0
 17 40  1  0  0  0  0
 18 22  1  0  0  0  0
 18 19  1  0  0  0  0
 18 41  1  0  0  0  0
 19 20  1  0  0  0  0
 19 42  1  0  0  0  0
 19 43  1  0  0  0  0
 20 21  1  0  0  0  0
 20 44  1  0  0  0  0
 20 45  1  0  0  0  0
 21 22  1  0  0  0  0
 21 46  1  0  0  0  0
 22 47  1  0  0  0  0
 22 48  1  0  0  0  0
 23 24  1  0  0  0  0
 23 49  1  0  0  0  0
 23 50  1  0  0  0  0
 24 51  1  0  0  0  0
 24 52  1  0  0  0  0
M  CHG  1  10   1
M  CHG  1  15   1
M  END
> <s_m_source_file>
AV-unprocessed.smi

> <i_m_source_file_index>
867

> <i_lp_mmshare_version>
43012

> <i_f3d_flags>
0

> <s_epik_input>
W0NIMl0xW0NIMl1bQ0BASF0oW0NIMl0yKVtDQEBIXShbQ0gyXVtDQEhdMTIpTihbQ0gyXVtDSDJdMylbQ0gyXVtDSDJdTjNDKD1PKVtOSF1bQ0gyXVtDSDJdYzRbY0hdW2NIXVtjSF1uW2NIXTQ=

> <s_epik_cmdline>
J2VwaWtfcHl0aG9uJywgJy1waCcsICc3LjAnLCAnLXRuJywgJzgnLCAnLW1hJywgJzIwMCcsICctbWV0YWxfYmluZGluZycsICctaW1hZScsICc8aW5maWxlLm1hZT4nLCAnLW9tYWUnLCAnPG91dGZpbGUubWFlPic=

> <r_epik_Ionization_Penalty>
2.25108

> <r_epik_Ionization_Penalty_Charging>
2.25105

> <r_epik_Ionization_Penalty_Neutral>
2.64641e-05

> <r_epik_State_Penalty>
2.39519

> <r_epik_Charging_Adjusted_Penalty>
4.64625

> <i_epik_Tot_Q>
2

> <i_epik_Tot_abs_Q>
2

> <r_epik_Metal_State_Penalty>
2.40865

> <b_epik_Metal_Only>
0

> <s_lp_Force_Field>
OPLS_2005

> <r_lp_Energy>
104.696

> <b_lp_Chiralities_Consistent>
1

> <s_lp_Variant>
AV-unprocessed.smi:867-7

> <Gold.Version>
5.8.1

> <Gold.Id.Protein>
6NUR|6NUR_protein|mol2

> <Gold.PLP.Fitness>
51.4810

> <Gold.PLP.PLP>
-40.6970

> <Gold.PLP.part.hbond>
-2.0000

> <Gold.PLP.part.metal>
0.0000

> <Gold.PLP.part.buried>
-5.1272

> <Gold.PLP.part.nonpolar>
-33.4574

> <Gold.PLP.part.repulsive>
0.1619

> <Gold.PLP.ligand.clash>
0.0000

> <Gold.PLP.ligand.torsion>
0.6636

> <Gold.PLP.Chemscore.Hbond>
4.0000

> <Gold.PLP.Chemscore.CHOScore>
0.0000

> <Gold.PLP.Chemscore.Metal>
0.0000

> <Gold.Chemscore.Hbonds>
donor molecule, donor type, donor heavy atom, donor atom, acceptor molecule, acceptor atom, score
      L1  H    10    54       P1 10957  1.69
      L1  H    15    53       P1  8028  2.00

> <Gold.PLP.Chemscore.Internal.Correction>
0.1112

> <Gold.Rescore>
     Score         DG    S(hbond)    S(metal)    S(lipo)     H(rot)  DE(clash)    DE(int)     intcor
     20.64     -21.59       1.95        0.00     113.93       1.46       0.23       0.72       ----

> <Gold.Chemscore.Fitness>
20.6417

> <Gold.Chemscore.DG>
-21.5890

> <Gold.Chemscore.ZeroCoef>
-5.4800

> <Gold.Chemscore.Hbond>
1.9489

> <Gold.Chemscore.Metal>
0.0000

> <Gold.Chemscore.Lipo>
113.9323

> <Gold.Chemscore.Internal_Hbond>
0.0000

> <Gold.Chemscore.DEClash>
0.2261

> <Gold.Chemscore.DEInternal>
0.7212

> <Gold.Chemscore.Rot>
1.4572

> <Gold.Chemscore.Internal.Correction>
   9.000000E+99

> <Gold.Chemscore.Hbonds>
donor molecule, donor type, donor heavy atom, donor atom, acceptor molecule, acceptor atom, score
      L1  H    10    54       P1 10957  0.82
      L1  H    15    53       P1  8028  0.94

> <Gold.Chemscore.Hbond.Weighted>
-6.5094

> <Gold.Chemscore.Metal.Weighted>
-0.0000

> <Gold.Chemscore.Lipo.Weighted>
-13.3301

> <Gold.Chemscore.Internal_Hbond.Weighted>
0.0000

> <Gold.Chemscore.DEClash.Weighted>
0.2261

> <Gold.Chemscore.DEInternal.Weighted>
0.7212

> <Gold.Chemscore.Rot.Weighted>
3.7305

> <Gold.Chemscore.Internal.Correction.Weighted>
   9.000000E+99

> <Gold.Protein.RotatedTorsions>
[ 6907 6896 6895 6894 ] final   95.28 input  -60.11 | X-H torsion
[ 7974 7965 7964 7962 ] final  106.04 input  175.53 | X-H torsion
[ 8008 7997 7996 7995 ] final  -72.48 input   59.86 | X-H torsion
[ 10167 10162 10161 10158 ] final -132.91 input  -65.29 | X-H torsion
[ 10718 10713 10712 10709 ] final   30.28 input   66.30 | X-H torsion
[ 10763 10752 10751 10750 ] final   99.00 input  -60.55 | X-H torsion
[ 11005 11000 10999 10996 ] final -139.08 input  -57.11 | X-H torsion

> <Gold.Protein.ActiveResidues>
 VAL166  LYS551  ARG553  GLY616  TRP617  ASP618  TYR619  PRO620  LYS621  CYS622 
 ASP623  PHE694  ASN695  SER759  ASP760  ASP761  ALA762  ILE779  LEU786  VAL792 
 PHE793  MET794  SER795  GLU796  ALA797  LYS798  CYS799  TRP800  GLU811  SER814 

> <Gold.Protein.RotatedAtoms>
  152.5444  134.1064  159.8339 H   0  0  0  0  0  0  0  0  0  0  0  0  # atno 6907 bound_to 6896
  151.1136  133.5148  159.2612 H   0  0  0  0  0  0  0  0  0  0  0  0  # atno 6908 bound_to 6896
  151.1857  135.0390  159.8866 H   0  0  0  0  0  0  0  0  0  0  0  0  # atno 6909 bound_to 6896
  145.3118  139.2538  143.3759 H   0  0  0  0  0  0  0  0  0  0  0  0  # atno 7974 bound_to 7965
  154.5170  140.0796  156.8099 H   0  0  0  0  0  0  0  0  0  0  0  0  # atno 8008 bound_to 7997
  155.3660  140.3420  155.4224 H   0  0  0  0  0  0  0  0  0  0  0  0  # atno 8009 bound_to 7997
  156.1638  140.1597  156.8554 H   0  0  0  0  0  0  0  0  0  0  0  0  # atno 8010 bound_to 7997
  139.9037  143.6577  152.2590 H   0  0  0  0  0  0  0  0  0  0  0  0  # atno 10167 bound_to 10162
  157.2575  130.7145  149.6437 H   0  0  0  0  0  0  0  0  0  0  0  0  # atno 10718 bound_to 10713
  153.2960  135.4129  155.1210 H   0  0  0  0  0  0  0  0  0  0  0  0  # atno 10763 bound_to 10752
  154.8535  135.3530  154.5917 H   0  0  0  0  0  0  0  0  0  0  0  0  # atno 10764 bound_to 10752
  153.6340  135.7059  153.5323 H   0  0  0  0  0  0  0  0  0  0  0  0  # atno 10765 bound_to 10752
  140.8554  134.2234  157.4737 H   0  0  0  0  0  0  0  0  0  0  0  0  # atno 11005 bound_to 11000
  146.3115  140.3656  142.8669 LP  0  0  0  0  0  0  0  0  0  0  0  0  # atno 17320 bound_to 7965
  144.9009  140.7642  143.5867 LP  0  0  0  0  0  0  0  0  0  0  0  0  # atno 17321 bound_to 7965
  139.7003  144.7636  151.1285 LP  0  0  0  0  0  0  0  0  0  0  0  0  # atno 17342 bound_to 10162
  140.7701  143.5467  150.9251 LP  0  0  0  0  0  0  0  0  0  0  0  0  # atno 17343 bound_to 10162
  155.9664  130.4408  150.5313 LP  0  0  0  0  0  0  0  0  0  0  0  0  # atno 17370 bound_to 10713
  157.3211  131.0682  151.1931 LP  0  0  0  0  0  0  0  0  0  0  0  0  # atno 17371 bound_to 10713
  139.8705  134.9704  156.4699 LP  0  0  0  0  0  0  0  0  0  0  0  0  # atno 17394 bound_to 11000
  140.8743  133.7965  155.9398 LP  0  0  0  0  0  0  0  0  0  0  0  0  # atno 17395 bound_to 11000

$$$$
