AV-unprocessed.smi:452|AV-procd|sdf|2610|dock3
  -GOLD-   2262023 03D 1   1.00000     0.00000
 Structure written by MMmdl.
 43 44  0  0  0  0  0  0  0  0  1 V2000
  152.8388  144.0200  158.7703 C   0  0  0  0  0  0  0  0  0  0  0  0
  152.0648  143.0910  159.7184 C   0  0  0  0  0  0  0  0  0  0  0  0
  152.6318  143.1963  161.1445 C   0  0  0  0  0  0  0  0  0  0  0  0
  152.0683  141.6431  159.1852 C   0  0  0  0  0  0  0  0  0  0  0  0
  151.2683  141.4503  157.8811 C   0  0  0  0  0  0  0  0  0  0  0  0
  151.4540  140.0552  157.2751 C   0  0  0  0  0  0  0  0  0  0  0  0
  152.5815  139.6660  156.9694 O   0  0  0  0  0  0  0  0  0  0  0  0
  150.3270  139.3365  157.1117 N   0  0  0  0  0  0  0  0  0  0  0  0
  150.1857  138.0230  156.5907 C   0  0  0  0  0  0  0  0  0  0  0  0
  151.2858  137.1678  156.8222 C   0  0  0  0  0  0  0  0  0  0  0  0
  151.2496  135.8457  156.3400 C   0  0  0  0  0  0  0  0  0  0  0  0
  150.1111  135.4040  155.6394 C   0  0  0  0  0  0  0  0  0  0  0  0
  150.0637  134.0944  155.1407 N   0  0  0  0  0  0  0  0  0  0  0  0
  148.9890  133.8941  154.1769 C   0  0  0  0  0  0  0  0  0  0  0  0
  149.0737  132.4788  153.5786 C   0  0  0  0  0  0  0  0  0  0  0  0
  149.0523  131.5135  154.6266 O   0  0  0  0  0  0  0  0  0  0  0  0
  150.1504  131.6714  155.5208 C   0  0  0  0  0  0  0  0  0  0  0  0
  150.0877  133.0642  156.1721 C   0  0  0  0  0  0  0  0  0  0  0  0
  149.0559  136.3252  155.4563 C   0  0  0  0  0  0  0  0  0  0  0  0
  149.0908  137.5934  155.9161 N   0  0  0  0  0  0  0  0  0  0  0  0
  153.8852  143.7226  158.6923 H   0  0  0  0  0  0  0  0  0  0  0  0
  152.8113  145.0523  159.1202 H   0  0  0  0  0  0  0  0  0  0  0  0
  152.4128  144.0044  157.7667 H   0  0  0  0  0  0  0  0  0  0  0  0
  151.0318  143.4410  159.7415 H   0  0  0  0  0  0  0  0  0  0  0  0
  153.6543  142.8205  161.1925 H   0  0  0  0  0  0  0  0  0  0  0  0
  152.0345  142.6342  161.8614 H   0  0  0  0  0  0  0  0  0  0  0  0
  152.6443  144.2325  161.4842 H   0  0  0  0  0  0  0  0  0  0  0  0
  153.1022  141.3427  159.0077 H   0  0  0  0  0  0  0  0  0  0  0  0
  151.6888  140.9699  159.9554 H   0  0  0  0  0  0  0  0  0  0  0  0
  150.2068  141.6207  158.0614 H   0  0  0  0  0  0  0  0  0  0  0  0
  151.5812  142.1877  157.1411 H   0  0  0  0  0  0  0  0  0  0  0  0
  149.4701  139.7795  157.4085 H   0  0  0  0  0  0  0  0  0  0  0  0
  152.1544  137.5185  157.3606 H   0  0  0  0  0  0  0  0  0  0  0  0
  152.0866  135.1832  156.5059 H   0  0  0  0  0  0  0  0  0  0  0  0
  148.0240  134.0318  154.6667 H   0  0  0  0  0  0  0  0  0  0  0  0
  149.0583  134.6395  153.3836 H   0  0  0  0  0  0  0  0  0  0  0  0
  148.2290  132.3009  152.9131 H   0  0  0  0  0  0  0  0  0  0  0  0
  149.9801  132.3629  152.9820 H   0  0  0  0  0  0  0  0  0  0  0  0
  150.1018  130.8955  156.2849 H   0  0  0  0  0  0  0  0  0  0  0  0
  151.0915  131.5337  154.9856 H   0  0  0  0  0  0  0  0  0  0  0  0
  150.9506  133.2120  156.8224 H   0  0  0  0  0  0  0  0  0  0  0  0
  149.1956  133.1376  156.7952 H   0  0  0  0  0  0  0  0  0  0  0  0
  148.1614  136.0444  154.9199 H   0  0  0  0  0  0  0  0  0  0  0  0
  1  2  1  0  0  0  0
  1 21  1  0  0  0  0
  1 22  1  0  0  0  0
  1 23  1  0  0  0  0
  2  3  1  0  0  0  0
  2  4  1  0  0  0  0
  2 24  1  0  0  0  0
  3 25  1  0  0  0  0
  3 26  1  0  0  0  0
  3 27  1  0  0  0  0
  4  5  1  0  0  0  0
  4 28  1  0  0  0  0
  4 29  1  0  0  0  0
  5  6  1  0  0  0  0
  5 30  1  0  0  0  0
  5 31  1  0  0  0  0
  6  7  2  0  0  0  0
  6  8  1  0  0  0  0
  8  9  1  0  0  0  0
  8 32  1  0  0  0  0
  9 20  1  0  0  0  0
  9 10  2  0  0  0  0
 10 11  1  0  0  0  0
 10 33  1  0  0  0  0
 11 12  2  0  0  0  0
 11 34  1  0  0  0  0
 12 13  1  0  0  0  0
 12 19  1  0  0  0  0
 13 18  1  0  0  0  0
 13 14  1  0  0  0  0
 14 15  1  0  0  0  0
 14 35  1  0  0  0  0
 14 36  1  0  0  0  0
 15 16  1  0  0  0  0
 15 37  1  0  0  0  0
 15 38  1  0  0  0  0
 16 17  1  0  0  0  0
 17 18  1  0  0  0  0
 17 39  1  0  0  0  0
 17 40  1  0  0  0  0
 18 41  1  0  0  0  0
 18 42  1  0  0  0  0
 19 20  2  0  0  0  0
 19 43  1  0  0  0  0
M  END
> <s_m_source_file>
AV-unprocessed.smi

> <i_m_source_file_index>
452

> <i_lp_mmshare_version>
43012

> <i_f3d_flags>
0

> <s_epik_input>
W0NIM11bQ0hdKFtDSDNdKVtDSDJdW0NIMl1DKD1PKVtOSF1jMVtjSF1bY0hdYyhbY0hdbjEpTjJbQ0gyXVtDSDJdT1tDSDJdW0NIMl0y

> <s_epik_cmdline>
J2VwaWtfcHl0aG9uJywgJy1waCcsICc3LjAnLCAnLXRuJywgJzgnLCAnLW1hJywgJzIwMCcsICctbWV0YWxfYmluZGluZycsICctaW1hZScsICc8aW5maWxlLm1hZT4nLCAnLW9tYWUnLCAnPG91dGZpbGUubWFlPic=

> <r_lp_tautomer_probability>
1

> <r_epik_Ionization_Penalty>
0.0030116

> <r_epik_Ionization_Penalty_Charging>
0

> <r_epik_Ionization_Penalty_Neutral>
0.0030116

> <r_epik_State_Penalty>
0.00263935

> <r_epik_Charging_Adjusted_Penalty>
0.00263935

> <i_epik_Tot_Q>
0

> <i_epik_Tot_abs_Q>
0

> <r_epik_Metal_State_Penalty>
-0

> <b_epik_Metal_Only>
0

> <s_lp_Force_Field>
OPLS_2005

> <r_lp_Energy>
28.4973

> <b_lp_Chiralities_Consistent>
1

> <s_lp_Variant>
AV-unprocessed.smi:452-1

> <Gold.Version>
5.8.1

> <Gold.Id.Protein>
6NUR|6NUR_protein|mol2

> <Gold.PLP.Fitness>
34.6145

> <Gold.PLP.PLP>
-32.4509

> <Gold.PLP.part.hbond>
-1.0000

> <Gold.PLP.part.metal>
0.0000

> <Gold.PLP.part.buried>
-3.6500

> <Gold.PLP.part.nonpolar>
-27.0937

> <Gold.PLP.part.repulsive>
0.1754

> <Gold.PLP.ligand.clash>
0.0731

> <Gold.PLP.ligand.torsion>
0.4350

> <Gold.PLP.Chemscore.Hbond>
1.0000

> <Gold.PLP.Chemscore.CHOScore>
0.0000

> <Gold.PLP.Chemscore.Metal>
0.0000

> <Gold.Chemscore.Hbonds>
donor molecule, donor type, donor heavy atom, donor atom, acceptor molecule, acceptor atom, score
      P1  H  7997  8008       L1     7  1.00

> <Gold.PLP.Chemscore.Internal.Correction>
0.1067

> <Gold.Rescore>
     Score         DG    S(hbond)    S(metal)    S(lipo)     H(rot)  DE(clash)    DE(int)     intcor
     14.41     -16.19       1.00        0.00      94.40       1.43       0.04       1.75       ----

> <Gold.Chemscore.Fitness>
14.4070

> <Gold.Chemscore.DG>
-16.1880

> <Gold.Chemscore.ZeroCoef>
-5.4800

> <Gold.Chemscore.Hbond>
0.9976

> <Gold.Chemscore.Metal>
0.0000

> <Gold.Chemscore.Lipo>
94.4031

> <Gold.Chemscore.Internal_Hbond>
0.0000

> <Gold.Chemscore.DEClash>
0.0360

> <Gold.Chemscore.DEInternal>
1.7450

> <Gold.Chemscore.Rot>
1.4332

> <Gold.Chemscore.Internal.Correction>
   9.000000E+99

> <Gold.Chemscore.Hbonds>
donor molecule, donor type, donor heavy atom, donor atom, acceptor molecule, acceptor atom, score
      P1  H  7997  8008       L1     7  1.00

> <Gold.Chemscore.Hbond.Weighted>
-3.3318

> <Gold.Chemscore.Metal.Weighted>
-0.0000

> <Gold.Chemscore.Lipo.Weighted>
-11.0452

> <Gold.Chemscore.Internal_Hbond.Weighted>
0.0000

> <Gold.Chemscore.DEClash.Weighted>
0.0360

> <Gold.Chemscore.DEInternal.Weighted>
1.7450

> <Gold.Chemscore.Rot.Weighted>
3.6689

> <Gold.Chemscore.Internal.Correction.Weighted>
   9.000000E+99

> <Gold.Protein.RotatedTorsions>
[ 6907 6896 6895 6894 ] final  131.13 input  -60.11 | X-H torsion
[ 7974 7965 7964 7962 ] final   74.37 input  175.53 | X-H torsion
[ 8008 7997 7996 7995 ] final  -54.66 input   59.86 | X-H torsion
[ 10167 10162 10161 10158 ] final   -9.95 input  -65.29 | X-H torsion
[ 10718 10713 10712 10709 ] final   65.94 input   66.30 | X-H torsion
[ 10763 10752 10751 10750 ] final -146.16 input  -60.55 | X-H torsion
[ 11005 11000 10999 10996 ] final   37.42 input  -57.11 | X-H torsion

> <Gold.Protein.ActiveResidues>
 VAL166  LYS551  ARG553  GLY616  TRP617  ASP618  TYR619  PRO620  LYS621  CYS622 
 ASP623  PHE694  ASN695  SER759  ASP760  ASP761  ALA762  ILE779  LEU786  VAL792 
 PHE793  MET794  SER795  GLU796  ALA797  LYS798  CYS799  TRP800  GLU811  SER814 

> <Gold.Protein.RotatedAtoms>
  152.3457  133.6120  159.5908 H   0  0  0  0  0  0  0  0  0  0  0  0  # atno 6907 bound_to 6896
  150.7506  133.9652  159.3537 H   0  0  0  0  0  0  0  0  0  0  0  0  # atno 6908 bound_to 6896
  151.7511  135.0833  160.0382 H   0  0  0  0  0  0  0  0  0  0  0  0  # atno 6909 bound_to 6896
  145.7291  139.2677  143.1551 H   0  0  0  0  0  0  0  0  0  0  0  0  # atno 7974 bound_to 7965
  154.4169  140.1171  156.5351 H   0  0  0  0  0  0  0  0  0  0  0  0  # atno 8008 bound_to 7997
  155.6566  140.3496  155.4748 H   0  0  0  0  0  0  0  0  0  0  0  0  # atno 8009 bound_to 7997
  155.9748  140.1148  157.0769 H   0  0  0  0  0  0  0  0  0  0  0  0  # atno 8010 bound_to 7997
  140.7101  143.5801  150.9000 H   0  0  0  0  0  0  0  0  0  0  0  0  # atno 10167 bound_to 10162
  157.6138  130.9241  150.0043 H   0  0  0  0  0  0  0  0  0  0  0  0  # atno 10718 bound_to 10713
  154.8349  135.3394  154.6617 H   0  0  0  0  0  0  0  0  0  0  0  0  # atno 10763 bound_to 10752
  153.7233  135.6957  153.5012 H   0  0  0  0  0  0  0  0  0  0  0  0  # atno 10764 bound_to 10752
  153.2365  135.4399  155.0605 H   0  0  0  0  0  0  0  0  0  0  0  0  # atno 10765 bound_to 10752
  140.2227  134.3621  155.7998 H   0  0  0  0  0  0  0  0  0  0  0  0  # atno 11005 bound_to 11000
  146.0554  140.8026  142.9761 LP  0  0  0  0  0  0  0  0  0  0  0  0  # atno 17320 bound_to 7965
  144.6897  140.3116  143.7247 LP  0  0  0  0  0  0  0  0  0  0  0  0  # atno 17321 bound_to 7965
  139.9527  143.6253  152.3024 LP  0  0  0  0  0  0  0  0  0  0  0  0  # atno 17342 bound_to 10162
  139.6778  144.7657  151.1664 LP  0  0  0  0  0  0  0  0  0  0  0  0  # atno 17343 bound_to 10162
  156.1251  130.3645  149.9823 LP  0  0  0  0  0  0  0  0  0  0  0  0  # atno 17370 bound_to 10713
  156.7895  130.9251  151.3646 LP  0  0  0  0  0  0  0  0  0  0  0  0  # atno 17371 bound_to 10713
  141.2222  133.7202  156.8603 LP  0  0  0  0  0  0  0  0  0  0  0  0  # atno 17394 bound_to 11000
  140.1832  134.9018  157.2973 LP  0  0  0  0  0  0  0  0  0  0  0  0  # atno 17395 bound_to 11000

$$$$
