AV-unprocessed.smi:1561|AV-procd|sdf|6283|dock9
  -GOLD-   22720 6483D 1   1.00000     0.00000
 Structure written by MMmdl.
 33 34  0  0  0  0  0  0  0  0  1 V2000
  150.8776  144.8007  159.1476 C   0  0  0  0  0  0  0  0  0  0  0  0
  151.6624  143.4960  158.8997 C   0  0  2  0  0  0  0  0  0  0  0  0
  150.7739  142.3589  158.3731 C   0  0  0  0  0  0  0  0  0  0  0  0
  150.7875  141.2500  158.9089 O   0  0  0  0  0  0  0  0  0  0  0  0
  150.0193  142.6477  157.3005 N   0  0  0  0  0  0  0  0  0  0  0  0
  149.1817  141.6994  156.5746 C   0  0  0  0  0  0  0  0  0  0  0  0
  149.9535  141.0378  155.4172 C   0  0  2  0  0  0  0  0  0  0  0  0
  149.1934  139.9094  154.7320 C   0  0  0  0  0  0  0  0  0  0  0  0
  150.2791  138.8977  154.3479 C   0  0  0  0  0  0  0  0  0  0  0  0
  151.5137  139.5003  154.7120 O   0  0  0  0  0  0  0  0  0  0  0  0
  151.2640  140.3578  155.8118 C   0  0  0  0  0  0  0  0  0  0  0  0
  152.3888  143.0506  160.0840 N   0  0  0  0  0  0  0  0  0  0  0  0
  152.3335  143.5761  161.3593 C   0  0  0  0  0  0  0  0  0  0  0  0
  153.2171  142.8774  162.1311 C   0  0  0  0  0  0  0  0  0  0  0  0
  153.7873  141.9398  161.2266 C   0  0  0  0  0  0  0  0  0  0  0  0
  153.2978  142.0508  160.0029 N   0  0  0  0  0  0  0  0  0  0  0  0
  150.3869  145.1422  158.2355 H   0  0  0  0  0  0  0  0  0  0  0  0
  151.5448  145.5978  159.4766 H   0  0  0  0  0  0  0  0  0  0  0  0
  150.1071  144.6796  159.9103 H   0  0  0  0  0  0  0  0  0  0  0  0
  152.4056  143.7112  158.1302 H   0  0  0  0  0  0  0  0  0  0  0  0
  150.0662  143.5859  156.9302 H   0  0  0  0  0  0  0  0  0  0  0  0
  148.7725  140.9431  157.2468 H   0  0  0  0  0  0  0  0  0  0  0  0
  148.3270  142.2468  156.1765 H   0  0  0  0  0  0  0  0  0  0  0  0
  150.1836  141.7937  154.6645 H   0  0  0  0  0  0  0  0  0  0  0  0
  148.4733  139.4428  155.4055 H   0  0  0  0  0  0  0  0  0  0  0  0
  148.6466  140.2730  153.8614 H   0  0  0  0  0  0  0  0  0  0  0  0
  150.1526  137.9697  154.9073 H   0  0  0  0  0  0  0  0  0  0  0  0
  150.2669  138.6574  153.2846 H   0  0  0  0  0  0  0  0  0  0  0  0
  152.0804  141.0653  155.9599 H   0  0  0  0  0  0  0  0  0  0  0  0
  151.1489  139.7656  156.7214 H   0  0  0  0  0  0  0  0  0  0  0  0
  151.6777  144.3970  161.6091 H   0  0  0  0  0  0  0  0  0  0  0  0
  153.4288  143.0191  163.1805 H   0  0  0  0  0  0  0  0  0  0  0  0
  154.5408  141.1905  161.4201 H   0  0  0  0  0  0  0  0  0  0  0  0
  1  2  1  0  0  0  0
  1 17  1  0  0  0  0
  1 18  1  0  0  0  0
  1 19  1  0  0  0  0
  2  3  1  0  0  0  0
  2 12  1  0  0  0  0
  2 20  1  0  0  0  0
  3  4  2  0  0  0  0
  3  5  1  0  0  0  0
  5  6  1  0  0  0  0
  5 21  1  0  0  0  0
  6  7  1  0  0  0  0
  6 22  1  0  0  0  0
  6 23  1  0  0  0  0
  7 11  1  0  0  0  0
  7  8  1  0  0  0  0
  7 24  1  0  0  0  0
  8  9  1  0  0  0  0
  8 25  1  0  0  0  0
  8 26  1  0  0  0  0
  9 10  1  0  0  0  0
  9 27  1  0  0  0  0
  9 28  1  0  0  0  0
 10 11  1  0  0  0  0
 11 29  1  0  0  0  0
 11 30  1  0  0  0  0
 12 16  1  0  0  0  0
 12 13  1  0  0  0  0
 13 14  2  0  0  0  0
 13 31  1  0  0  0  0
 14 15  1  0  0  0  0
 14 32  1  0  0  0  0
 15 16  2  0  0  0  0
 15 33  1  0  0  0  0
M  END
> <s_m_source_file>
AV-unprocessed.smi

> <i_m_source_file_index>
1561

> <i_lp_mmshare_version>
43012

> <i_f3d_flags>
0

> <s_epik_input>
bjFbY0hdW2NIXVtjSF1uMVtDQEhdKFtDSDNdKUMoPU8pW05IXVtDSDJdW0NAQEhdMltDSDJdW0NIMl1PW0NIMl0y

> <s_epik_cmdline>
J2VwaWtfcHl0aG9uJywgJy1waCcsICc3LjAnLCAnLXRuJywgJzgnLCAnLW1hJywgJzIwMCcsICctbWV0YWxfYmluZGluZycsICctaW1hZScsICc8aW5maWxlLm1hZT4nLCAnLW9tYWUnLCAnPG91dGZpbGUubWFlPic=

> <r_lp_tautomer_probability>
1

> <r_epik_Ionization_Penalty>
3.82077e-05

> <r_epik_Ionization_Penalty_Charging>
0

> <r_epik_Ionization_Penalty_Neutral>
3.82077e-05

> <r_epik_State_Penalty>
-0

> <r_epik_Charging_Adjusted_Penalty>
0

> <i_epik_Tot_Q>
0

> <i_epik_Tot_abs_Q>
0

> <r_epik_Metal_State_Penalty>
-0

> <b_epik_Metal_Only>
0

> <s_lp_Force_Field>
OPLS_2005

> <r_lp_Energy>
22.2594

> <b_lp_Chiralities_Consistent>
1

> <s_lp_Variant>
AV-unprocessed.smi:1561-1

> <Gold.Version>
5.8.1

> <Gold.Id.Protein>
6NUR|6NUR_protein|mol2

> <Gold.PLP.Fitness>
43.7498

> <Gold.PLP.PLP>
-40.2824

> <Gold.PLP.part.hbond>
-2.1738

> <Gold.PLP.part.metal>
0.0000

> <Gold.PLP.part.buried>
-4.5676

> <Gold.PLP.part.nonpolar>
-32.9424

> <Gold.PLP.part.repulsive>
0.0805

> <Gold.PLP.ligand.clash>
0.0000

> <Gold.PLP.ligand.torsion>
0.3665

> <Gold.PLP.Chemscore.Hbond>
1.3628

> <Gold.PLP.Chemscore.CHOScore>
0.0000

> <Gold.PLP.Chemscore.Metal>
0.0000

> <Gold.Chemscore.Hbonds>
donor molecule, donor type, donor heavy atom, donor atom, acceptor molecule, acceptor atom, score
      L1  H     5    21       P1  8028  0.67
      P1  H  7989  7998       L1    10  0.75

> <Gold.PLP.Chemscore.Internal.Correction>
0.1121

> <Gold.Rescore>
     Score         DG    S(hbond)    S(metal)    S(lipo)     H(rot)  DE(clash)    DE(int)     intcor
     13.37     -15.04       0.96        0.00      89.42       1.61       0.04       1.64       ----

> <Gold.Chemscore.Fitness>
13.3656

> <Gold.Chemscore.DG>
-15.0442

> <Gold.Chemscore.ZeroCoef>
-5.4800

> <Gold.Chemscore.Hbond>
0.9647

> <Gold.Chemscore.Metal>
0.0000

> <Gold.Chemscore.Lipo>
89.4196

> <Gold.Chemscore.Internal_Hbond>
0.0000

> <Gold.Chemscore.DEClash>
0.0358

> <Gold.Chemscore.DEInternal>
1.6428

> <Gold.Chemscore.Rot>
1.6094

> <Gold.Chemscore.Internal.Correction>
   9.000000E+99

> <Gold.Chemscore.Hbonds>
donor molecule, donor type, donor heavy atom, donor atom, acceptor molecule, acceptor atom, score
      L1  H     5    21       P1  8028  0.64
      P1  H  7989  7998       L1    10  0.03

> <Gold.Chemscore.Hbond.Weighted>
-3.2222

> <Gold.Chemscore.Metal.Weighted>
-0.0000

> <Gold.Chemscore.Lipo.Weighted>
-10.4621

> <Gold.Chemscore.Internal_Hbond.Weighted>
0.0000

> <Gold.Chemscore.DEClash.Weighted>
0.0358

> <Gold.Chemscore.DEInternal.Weighted>
1.6428

> <Gold.Chemscore.Rot.Weighted>
4.1201

> <Gold.Chemscore.Internal.Correction.Weighted>
   9.000000E+99

> <Gold.Protein.RotatedTorsions>
[ 6907 6896 6895 6894 ] final -151.41 input  -60.11 | X-H torsion
[ 7974 7965 7964 7962 ] final   69.11 input  175.53 | X-H torsion
[ 8008 7997 7996 7995 ] final   43.46 input   59.86 | X-H torsion
[ 10167 10162 10161 10158 ] final  -23.88 input  -65.29 | X-H torsion
[ 10718 10713 10712 10709 ] final  -39.96 input   66.30 | X-H torsion
[ 10763 10752 10751 10750 ] final -167.09 input  -60.55 | X-H torsion
[ 11005 11000 10999 10996 ] final   74.63 input  -57.11 | X-H torsion

> <Gold.Protein.ActiveResidues>
 VAL166  LYS551  ARG553  GLY616  TRP617  ASP618  TYR619  PRO620  LYS621  CYS622 
 ASP623  PHE694  ASN695  SER759  ASP760  ASP761  ALA762  ILE779  LEU786  VAL792 
 PHE793  MET794  SER795  GLU796  ALA797  LYS798  CYS799  TRP800  GLU811  SER814 

> <Gold.Protein.RotatedAtoms>
  151.2128  133.4546  159.2598 H   0  0  0  0  0  0  0  0  0  0  0  0  # atno 6907 bound_to 6896
  151.0960  134.9944  159.8436 H   0  0  0  0  0  0  0  0  0  0  0  0  # atno 6908 bound_to 6896
  152.5439  134.2058  159.8783 H   0  0  0  0  0  0  0  0  0  0  0  0  # atno 6909 bound_to 6896
  145.7944  139.2950  143.1191 H   0  0  0  0  0  0  0  0  0  0  0  0  # atno 7974 bound_to 7965
  155.3032  140.3386  155.4247 H   0  0  0  0  0  0  0  0  0  0  0  0  # atno 8008 bound_to 7997
  156.1991  140.1726  156.7975 H   0  0  0  0  0  0  0  0  0  0  0  0  # atno 8009 bound_to 7997
  154.5536  140.0700  156.8692 H   0  0  0  0  0  0  0  0  0  0  0  0  # atno 8010 bound_to 7997
  140.7288  143.4403  151.0666 H   0  0  0  0  0  0  0  0  0  0  0  0  # atno 10167 bound_to 10162
  156.2866  130.4223  149.8281 H   0  0  0  0  0  0  0  0  0  0  0  0  # atno 10718 bound_to 10713
  154.6767  135.2948  154.9668 H   0  0  0  0  0  0  0  0  0  0  0  0  # atno 10763 bound_to 10752
  154.0677  135.6622  153.4824 H   0  0  0  0  0  0  0  0  0  0  0  0  # atno 10764 bound_to 10752
  153.0521  135.5167  154.7790 H   0  0  0  0  0  0  0  0  0  0  0  0  # atno 10765 bound_to 10752
  139.9381  134.7449  156.1172 H   0  0  0  0  0  0  0  0  0  0  0  0  # atno 11005 bound_to 11000
  145.9944  140.8575  143.0050 LP  0  0  0  0  0  0  0  0  0  0  0  0  # atno 17320 bound_to 7965
  144.6777  140.2261  143.7361 LP  0  0  0  0  0  0  0  0  0  0  0  0  # atno 17321 bound_to 7965
  139.8070  143.8004  152.3168 LP  0  0  0  0  0  0  0  0  0  0  0  0  # atno 17342 bound_to 10162
  139.8040  144.7362  150.9786 LP  0  0  0  0  0  0  0  0  0  0  0  0  # atno 17343 bound_to 10162
  156.5710  130.8424  151.3356 LP  0  0  0  0  0  0  0  0  0  0  0  0  # atno 17370 bound_to 10713
  157.7330  130.9724  150.1957 LP  0  0  0  0  0  0  0  0  0  0  0  0  # atno 17371 bound_to 10713
  141.1005  133.6679  156.2742 LP  0  0  0  0  0  0  0  0  0  0  0  0  # atno 17394 bound_to 11000
  140.6021  134.5544  157.5519 LP  0  0  0  0  0  0  0  0  0  0  0  0  # atno 17395 bound_to 11000

$$$$
