AV-unprocessed.smi:950|AV-procd|sdf|4250|dock6
  -GOLD-   22720 2153D 1   1.00000     0.00000
 Structure written by MMmdl.
 34 35  0  0  0  0  0  0  0  0  1 V2000
  153.4239  142.5903  161.9945 C   0  0  0  0  0  0  0  0  0  0  0  0
  152.5523  143.8089  161.6727 C   0  0  0  0  0  0  0  0  0  0  0  0
  151.9318  143.7249  160.3189 C   0  0  0  0  0  0  0  0  0  0  0  0
  151.4093  142.6030  159.8185 N   0  0  0  0  0  0  0  0  0  0  0  0
  150.9349  142.7620  158.5121 C   0  0  0  0  0  0  0  0  0  0  0  0
  150.3225  141.5987  157.7846 C   0  0  0  0  0  0  0  0  0  0  0  0
  150.1625  141.8274  156.2672 C   0  0  0  0  0  0  0  0  0  0  0  0
  148.7844  141.6811  155.8086 N   0  0  0  0  0  0  0  0  0  0  0  0
  148.4058  141.5727  154.5270 C   0  0  0  0  0  0  0  0  0  0  0  0
  149.2035  141.5307  153.5894 O   0  0  0  0  0  0  0  0  0  0  0  0
  146.8933  141.5091  154.2799 C   0  0  0  0  0  0  0  0  0  0  0  0
  146.2567  142.8095  153.7557 C   0  0  0  0  0  0  0  0  0  0  0  0
  145.1216  142.6101  154.7645 C   0  0  0  0  0  0  0  0  0  0  0  0
  146.0473  141.6793  155.5529 C   0  0  0  0  0  0  0  0  0  0  0  0
  151.1102  144.0343  158.0270 C   0  0  0  0  0  0  0  0  0  0  0  0
  151.8846  145.0742  159.1909 S   0  0  0  0  0  0  0  0  0  0  0  0
  153.8564  142.6744  162.9914 H   0  0  0  0  0  0  0  0  0  0  0  0
  154.2437  142.4947  161.2818 H   0  0  0  0  0  0  0  0  0  0  0  0
  152.8413  141.6693  161.9599 H   0  0  0  0  0  0  0  0  0  0  0  0
  151.7619  143.9085  162.4176 H   0  0  0  0  0  0  0  0  0  0  0  0
  153.1498  144.7191  161.7277 H   0  0  0  0  0  0  0  0  0  0  0  0
  150.9243  140.7045  157.9515 H   0  0  0  0  0  0  0  0  0  0  0  0
  149.3447  141.3709  158.2102 H   0  0  0  0  0  0  0  0  0  0  0  0
  150.5459  142.8102  155.9895 H   0  0  0  0  0  0  0  0  0  0  0  0
  150.7659  141.0979  155.7265 H   0  0  0  0  0  0  0  0  0  0  0  0
  148.0634  141.7066  156.5151 H   0  0  0  0  0  0  0  0  0  0  0  0
  146.5845  140.6396  153.6965 H   0  0  0  0  0  0  0  0  0  0  0  0
  146.8378  143.7122  153.9522 H   0  0  0  0  0  0  0  0  0  0  0  0
  145.9355  142.7647  152.7148 H   0  0  0  0  0  0  0  0  0  0  0  0
  144.8221  143.5127  155.2980 H   0  0  0  0  0  0  0  0  0  0  0  0
  144.2644  142.0880  154.3367 H   0  0  0  0  0  0  0  0  0  0  0  0
  145.5658  140.7647  155.8993 H   0  0  0  0  0  0  0  0  0  0  0  0
  146.5654  142.1890  156.3676 H   0  0  0  0  0  0  0  0  0  0  0  0
  150.8382  144.4202  157.0559 H   0  0  0  0  0  0  0  0  0  0  0  0
  1  2  1  0  0  0  0
  1 17  1  0  0  0  0
  1 18  1  0  0  0  0
  1 19  1  0  0  0  0
  2  3  1  0  0  0  0
  2 20  1  0  0  0  0
  2 21  1  0  0  0  0
  3 16  1  0  0  0  0
  3  4  2  0  0  0  0
  4  5  1  0  0  0  0
  5  6  1  0  0  0  0
  5 15  2  0  0  0  0
  6  7  1  0  0  0  0
  6 22  1  0  0  0  0
  6 23  1  0  0  0  0
  7  8  1  0  0  0  0
  7 24  1  0  0  0  0
  7 25  1  0  0  0  0
  8  9  1  0  0  0  0
  8 26  1  0  0  0  0
  9 10  2  0  0  0  0
  9 11  1  0  0  0  0
 11 14  1  0  0  0  0
 11 12  1  0  0  0  0
 11 27  1  0  0  0  0
 12 13  1  0  0  0  0
 12 28  1  0  0  0  0
 12 29  1  0  0  0  0
 13 14  1  0  0  0  0
 13 30  1  0  0  0  0
 13 31  1  0  0  0  0
 14 32  1  0  0  0  0
 14 33  1  0  0  0  0
 15 16  1  0  0  0  0
 15 34  1  0  0  0  0
M  END
> <s_m_source_file>
AV-unprocessed.smi

> <i_m_source_file_index>
950

> <i_lp_mmshare_version>
43012

> <i_f3d_flags>
0

> <s_epik_input>
W0NIM11bQ0gyXWMxbmMoW2NIXXMxKVtDSDJdW0NIMl1bTkhdQyg9TylbQ0hdMltDSDJdW0NIMl1bQ0gyXTI=

> <s_epik_cmdline>
J2VwaWtfcHl0aG9uJywgJy1waCcsICc3LjAnLCAnLXRuJywgJzgnLCAnLW1hJywgJzIwMCcsICctbWV0YWxfYmluZGluZycsICctaW1hZScsICc8aW5maWxlLm1hZT4nLCAnLW9tYWUnLCAnPG91dGZpbGUubWFlPic=

> <r_epik_Ionization_Penalty>
0.00109666

> <r_epik_Ionization_Penalty_Charging>
0

> <r_epik_Ionization_Penalty_Neutral>
0.00109666

> <r_epik_State_Penalty>
0.000719322

> <r_epik_Charging_Adjusted_Penalty>
0.000719322

> <i_epik_Tot_Q>
0

> <i_epik_Tot_abs_Q>
0

> <r_epik_Metal_State_Penalty>
-0

> <b_epik_Metal_Only>
0

> <s_lp_Force_Field>
OPLS_2005

> <r_lp_Energy>
2.32113

> <b_lp_Chiralities_Consistent>
1

> <s_lp_Variant>
AV-unprocessed.smi:950-1

> <Gold.Version>
5.8.1

> <Gold.Id.Protein>
6NUR|6NUR_protein|mol2

> <Gold.PLP.Fitness>
45.1654

> <Gold.PLP.PLP>
-41.4264

> <Gold.PLP.part.hbond>
-4.0000

> <Gold.PLP.part.metal>
0.0000

> <Gold.PLP.part.buried>
-5.3766

> <Gold.PLP.part.nonpolar>
-33.5796

> <Gold.PLP.part.repulsive>
2.0336

> <Gold.PLP.ligand.clash>
0.0331

> <Gold.PLP.ligand.torsion>
1.0712

> <Gold.PLP.Chemscore.Hbond>
0.8480

> <Gold.PLP.Chemscore.CHOScore>
0.9865

> <Gold.PLP.Chemscore.Metal>
0.0000

> <Gold.Chemscore.Hbonds>
donor molecule, donor type, donor heavy atom, donor atom, acceptor molecule, acceptor atom, score
      P1  H  8011  8017       L1    10  0.80
      L1  C    15    34       P1  8028  1.00

> <Gold.PLP.Chemscore.Internal.Correction>
0.4109

> <Gold.Rescore>
     Score         DG    S(hbond)    S(metal)    S(lipo)     H(rot)  DE(clash)    DE(int)     intcor
     14.90     -17.68       1.10        0.00     105.85       1.51       1.83       0.95       ----

> <Gold.Chemscore.Fitness>
14.8989

> <Gold.Chemscore.DG>
-17.6811

> <Gold.Chemscore.ZeroCoef>
-5.4800

> <Gold.Chemscore.Hbond>
1.1022

> <Gold.Chemscore.Metal>
0.0000

> <Gold.Chemscore.Lipo>
105.8500

> <Gold.Chemscore.Internal_Hbond>
0.0000

> <Gold.Chemscore.DEClash>
1.8327

> <Gold.Chemscore.DEInternal>
0.9495

> <Gold.Chemscore.Rot>
1.5096

> <Gold.Chemscore.Internal.Correction>
   9.000000E+99

> <Gold.Chemscore.Hbonds>
donor molecule, donor type, donor heavy atom, donor atom, acceptor molecule, acceptor atom, score
      P1  H  8011  8017       L1    10  0.79

> <Gold.Chemscore.Hbond.Weighted>
-3.6812

> <Gold.Chemscore.Metal.Weighted>
-0.0000

> <Gold.Chemscore.Lipo.Weighted>
-12.3845

> <Gold.Chemscore.Internal_Hbond.Weighted>
0.0000

> <Gold.Chemscore.DEClash.Weighted>
1.8327

> <Gold.Chemscore.DEInternal.Weighted>
0.9495

> <Gold.Chemscore.Rot.Weighted>
3.8646

> <Gold.Chemscore.Internal.Correction.Weighted>
   9.000000E+99

> <Gold.Protein.RotatedTorsions>
[ 6907 6896 6895 6894 ] final   86.52 input  -60.11 | X-H torsion
[ 7974 7965 7964 7962 ] final -120.72 input  175.53 | X-H torsion
[ 8008 7997 7996 7995 ] final   -8.52 input   59.86 | X-H torsion
[ 10167 10162 10161 10158 ] final  -76.54 input  -65.29 | X-H torsion
[ 10718 10713 10712 10709 ] final -168.51 input   66.30 | X-H torsion
[ 10763 10752 10751 10750 ] final  -51.36 input  -60.55 | X-H torsion
[ 11005 11000 10999 10996 ] final  -67.27 input  -57.11 | X-H torsion

> <Gold.Protein.ActiveResidues>
 VAL166  LYS551  ARG553  GLY616  TRP617  ASP618  TYR619  PRO620  LYS621  CYS622 
 ASP623  PHE694  ASN695  SER759  ASP760  ASP761  ALA762  ILE779  LEU786  VAL792 
 PHE793  MET794  SER795  GLU796  ALA797  LYS798  CYS799  TRP800  GLU811  SER814 

> <Gold.Protein.RotatedAtoms>
  152.5396  134.2419  159.8864 H   0  0  0  0  0  0  0  0  0  0  0  0  # atno 6907 bound_to 6896
  151.2386  133.4405  159.2614 H   0  0  0  0  0  0  0  0  0  0  0  0  # atno 6908 bound_to 6896
  151.0648  134.9774  159.8335 H   0  0  0  0  0  0  0  0  0  0  0  0  # atno 6909 bound_to 6896
  145.0483  140.8198  143.4225 H   0  0  0  0  0  0  0  0  0  0  0  0  # atno 7974 bound_to 7965
  154.5733  140.2379  155.8159 H   0  0  0  0  0  0  0  0  0  0  0  0  # atno 8008 bound_to 7997
  156.2124  140.3022  155.9719 H   0  0  0  0  0  0  0  0  0  0  0  0  # atno 8009 bound_to 7997
  155.2672  140.0417  157.2994 H   0  0  0  0  0  0  0  0  0  0  0  0  # atno 8010 bound_to 7997
  140.4848  143.2394  151.8001 H   0  0  0  0  0  0  0  0  0  0  0  0  # atno 10167 bound_to 10162
  156.6979  130.9185  151.3076 H   0  0  0  0  0  0  0  0  0  0  0  0  # atno 10718 bound_to 10713
  154.1253  135.6528  153.4911 H   0  0  0  0  0  0  0  0  0  0  0  0  # atno 10763 bound_to 10752
  153.0212  135.5280  154.7056 H   0  0  0  0  0  0  0  0  0  0  0  0  # atno 10764 bound_to 10752
  154.6275  135.2972  155.0225 H   0  0  0  0  0  0  0  0  0  0  0  0  # atno 10765 bound_to 10752
  141.1504  133.6716  156.6268 H   0  0  0  0  0  0  0  0  0  0  0  0  # atno 11005 bound_to 11000
  145.1560  139.2486  143.5416 LP  0  0  0  0  0  0  0  0  0  0  0  0  # atno 17320 bound_to 7965
  146.3516  140.1275  142.8598 LP  0  0  0  0  0  0  0  0  0  0  0  0  # atno 17321 bound_to 7965
  139.4840  144.4726  151.9406 LP  0  0  0  0  0  0  0  0  0  0  0  0  # atno 17342 bound_to 10162
  140.3812  144.2733  150.5908 LP  0  0  0  0  0  0  0  0  0  0  0  0  # atno 17343 bound_to 10162
  157.6984  130.9306  150.0712 LP  0  0  0  0  0  0  0  0  0  0  0  0  # atno 17370 bound_to 10713
  156.1750  130.3648  149.9113 LP  0  0  0  0  0  0  0  0  0  0  0  0  # atno 17371 bound_to 10713
  140.3498  134.7778  157.4458 LP  0  0  0  0  0  0  0  0  0  0  0  0  # atno 17394 bound_to 11000
  140.0870  134.5653  155.8482 LP  0  0  0  0  0  0  0  0  0  0  0  0  # atno 17395 bound_to 11000

$$$$
