AV-unprocessed.smi:2470|AV-procd|sdf|9735|dock1
  -GOLD-   2272013373D 1   1.00000     0.00000
 Structure written by MMmdl.
 33 34  0  0  0  0  0  0  0  0  1 V2000
  153.1870  138.4059  154.7159 C   0  0  0  0  0  0  0  0  0  0  0  0
  152.8054  139.4141  155.6451 O   0  0  0  0  0  0  0  0  0  0  0  0
  151.5848  140.0325  155.4703 C   0  0  0  0  0  0  0  0  0  0  0  0
  151.2031  141.0681  156.3478 C   0  0  0  0  0  0  0  0  0  0  0  0
  149.9471  141.6779  156.1315 C   0  0  0  0  0  0  0  0  0  0  0  0
  149.6015  142.7160  157.0367 N   0  0  0  0  0  0  0  0  0  0  0  0
  149.9623  142.8466  158.3253 C   0  0  0  0  0  0  0  0  0  0  0  0
  150.6557  142.0456  158.9529 O   0  0  0  0  0  0  0  0  0  0  0  0
  149.4627  143.9735  158.8550 N   0  0  0  0  0  0  0  0  0  0  0  0
  149.6540  144.4328  160.2281 C   0  0  2  0  0  0  0  0  0  0  0  0
  148.4931  145.3598  160.6155 C   0  0  0  0  0  0  0  0  0  0  0  0
  150.9914  145.1189  160.4313 C   0  0  0  0  0  0  0  0  0  0  0  0
  152.1908  144.7501  159.5918 C   0  0  0  0  0  0  0  0  0  0  0  0
  152.1535  144.3873  161.0596 C   0  0  0  0  0  0  0  0  0  0  0  0
  149.1586  141.2590  155.1109 N   0  0  0  0  0  0  0  0  0  0  0  0
  149.6100  140.2701  154.3371 C   0  0  0  0  0  0  0  0  0  0  0  0
  150.7760  139.6345  154.4584 N   0  0  0  0  0  0  0  0  0  0  0  0
  154.1755  138.0292  154.9782 H   0  0  0  0  0  0  0  0  0  0  0  0
  153.2424  138.7995  153.6999 H   0  0  0  0  0  0  0  0  0  0  0  0
  152.4948  137.5630  154.7366 H   0  0  0  0  0  0  0  0  0  0  0  0
  151.8535  141.3791  157.1523 H   0  0  0  0  0  0  0  0  0  0  0  0
  149.0156  143.4451  156.6582 H   0  0  0  0  0  0  0  0  0  0  0  0
  148.9036  144.5658  158.2587 H   0  0  0  0  0  0  0  0  0  0  0  0
  149.6281  143.5781  160.9065 H   0  0  0  0  0  0  0  0  0  0  0  0
  148.5845  145.6910  161.6504 H   0  0  0  0  0  0  0  0  0  0  0  0
  147.5338  144.8502  160.5183 H   0  0  0  0  0  0  0  0  0  0  0  0
  148.4655  146.2480  159.9832 H   0  0  0  0  0  0  0  0  0  0  0  0
  150.9046  146.1720  160.6933 H   0  0  0  0  0  0  0  0  0  0  0  0
  152.0752  143.9430  158.8709 H   0  0  0  0  0  0  0  0  0  0  0  0
  152.8575  145.5548  159.2885 H   0  0  0  0  0  0  0  0  0  0  0  0
  152.7954  144.9498  161.7342 H   0  0  0  0  0  0  0  0  0  0  0  0
  152.0167  143.3377  161.3125 H   0  0  0  0  0  0  0  0  0  0  0  0
  148.9653  139.9522  153.5312 H   0  0  0  0  0  0  0  0  0  0  0  0
  1  2  1  0  0  0  0
  1 18  1  0  0  0  0
  1 19  1  0  0  0  0
  1 20  1  0  0  0  0
  2  3  1  0  0  0  0
  3 17  1  0  0  0  0
  3  4  2  0  0  0  0
  4  5  1  0  0  0  0
  4 21  1  0  0  0  0
  5  6  1  0  0  0  0
  5 15  2  0  0  0  0
  6  7  1  0  0  0  0
  6 22  1  0  0  0  0
  7  8  2  0  0  0  0
  7  9  1  0  0  0  0
  9 10  1  0  0  0  0
  9 23  1  0  0  0  0
 10 11  1  0  0  0  0
 10 12  1  0  0  0  0
 10 24  1  0  0  0  0
 11 25  1  0  0  0  0
 11 26  1  0  0  0  0
 11 27  1  0  0  0  0
 12 14  1  0  0  0  0
 12 13  1  0  0  0  0
 12 28  1  0  0  0  0
 13 14  1  0  0  0  0
 13 29  1  0  0  0  0
 13 30  1  0  0  0  0
 14 31  1  0  0  0  0
 14 32  1  0  0  0  0
 15 16  1  0  0  0  0
 16 17  2  0  0  0  0
 16 33  1  0  0  0  0
M  END
> <s_m_source_file>
AV-unprocessed.smi

> <i_m_source_file_index>
2470

> <i_lp_mmshare_version>
43012

> <i_f3d_flags>
0

> <s_epik_input>
W0NIM11PYzFbY0hdYyhuW2NIXW4xKVtOSF1DKD1PKVtOSF1bQ0BIXShbQ0gzXSlbQ0hdMltDSDJdW0NIMl0y

> <s_epik_cmdline>
J2VwaWtfcHl0aG9uJywgJy1waCcsICc3LjAnLCAnLXRuJywgJzgnLCAnLW1hJywgJzIwMCcsICctbWV0YWxfYmluZGluZycsICctaW1hZScsICc8aW5maWxlLm1hZT4nLCAnLW9tYWUnLCAnPG91dGZpbGUubWFlPic=

> <r_lp_tautomer_probability>
1

> <r_epik_Ionization_Penalty>
2.81207e-05

> <r_epik_Ionization_Penalty_Charging>
0

> <r_epik_Ionization_Penalty_Neutral>
2.81207e-05

> <r_epik_State_Penalty>
-0

> <r_epik_Charging_Adjusted_Penalty>
0

> <i_epik_Tot_Q>
0

> <i_epik_Tot_abs_Q>
0

> <r_epik_Metal_State_Penalty>
-0

> <b_epik_Metal_Only>
0

> <s_lp_Force_Field>
OPLS_2005

> <r_lp_Energy>
11.3699

> <b_lp_Chiralities_Consistent>
1

> <s_lp_Variant>
AV-unprocessed.smi:2470-1

> <Gold.Version>
5.8.1

> <Gold.Id.Protein>
6NUR|6NUR_protein|mol2

> <Gold.PLP.Fitness>
45.5306

> <Gold.PLP.PLP>
-35.3961

> <Gold.PLP.part.hbond>
-4.5164

> <Gold.PLP.part.metal>
0.0000

> <Gold.PLP.part.buried>
-2.0456

> <Gold.PLP.part.nonpolar>
-28.6707

> <Gold.PLP.part.repulsive>
0.3619

> <Gold.PLP.ligand.clash>
0.0000

> <Gold.PLP.ligand.torsion>
1.4780

> <Gold.PLP.Chemscore.Hbond>
3.1385

> <Gold.PLP.Chemscore.CHOScore>
0.8647

> <Gold.PLP.Chemscore.Metal>
0.0000

> <Gold.Chemscore.Hbonds>
donor molecule, donor type, donor heavy atom, donor atom, acceptor molecule, acceptor atom, score
      L1  H     6    22       P1  8028  0.96
      L1  H     9    23       P1  8029  1.00
      P1  H  7989  7998       L1    17  0.15
      P1  H  7997  8008       L1     2  1.00
      L1  C    16    33       P1  7957  0.87

> <Gold.PLP.Chemscore.Internal.Correction>
1.0809

> <Gold.Rescore>
     Score         DG    S(hbond)    S(metal)    S(lipo)     H(rot)  DE(clash)    DE(int)     intcor
     13.03     -15.96       2.10        0.00      64.84       1.61       0.09       2.84       ----

> <Gold.Chemscore.Fitness>
13.0275

> <Gold.Chemscore.DG>
-15.9624

> <Gold.Chemscore.ZeroCoef>
-5.4800

> <Gold.Chemscore.Hbond>
2.1018

> <Gold.Chemscore.Metal>
0.0000

> <Gold.Chemscore.Lipo>
64.8415

> <Gold.Chemscore.Internal_Hbond>
0.0000

> <Gold.Chemscore.DEClash>
0.0946

> <Gold.Chemscore.DEInternal>
2.8404

> <Gold.Chemscore.Rot>
1.6109

> <Gold.Chemscore.Internal.Correction>
   9.000000E+99

> <Gold.Chemscore.Hbonds>
donor molecule, donor type, donor heavy atom, donor atom, acceptor molecule, acceptor atom, score
      L1  H     6    22       P1  8028  0.83
      L1  H     9    23       P1  8029  0.39
      P1  H  7997  8008       L1     2  0.26

> <Gold.Chemscore.Hbond.Weighted>
-7.0199

> <Gold.Chemscore.Metal.Weighted>
-0.0000

> <Gold.Chemscore.Lipo.Weighted>
-7.5865

> <Gold.Chemscore.Internal_Hbond.Weighted>
0.0000

> <Gold.Chemscore.DEClash.Weighted>
0.0946

> <Gold.Chemscore.DEInternal.Weighted>
2.8404

> <Gold.Chemscore.Rot.Weighted>
4.1240

> <Gold.Chemscore.Internal.Correction.Weighted>
   9.000000E+99

> <Gold.Protein.RotatedTorsions>
[ 6907 6896 6895 6894 ] final -179.60 input  -60.11 | X-H torsion
[ 7974 7965 7964 7962 ] final  157.21 input  175.53 | X-H torsion
[ 8008 7997 7996 7995 ] final  -18.84 input   59.86 | X-H torsion
[ 10167 10162 10161 10158 ] final  115.79 input  -65.29 | X-H torsion
[ 10718 10713 10712 10709 ] final  102.42 input   66.30 | X-H torsion
[ 10763 10752 10751 10750 ] final  -50.36 input  -60.55 | X-H torsion
[ 11005 11000 10999 10996 ] final  -52.45 input  -57.11 | X-H torsion

> <Gold.Protein.ActiveResidues>
 VAL166  LYS551  ARG553  GLY616  TRP617  ASP618  TYR619  PRO620  LYS621  CYS622 
 ASP623  PHE694  ASN695  SER759  ASP760  ASP761  ALA762  ILE779  LEU786  VAL792 
 PHE793  MET794  SER795  GLU796  ALA797  LYS798  CYS799  TRP800  GLU811  SER814 

> <Gold.Protein.RotatedAtoms>
  151.6561  133.3319  159.3162 H   0  0  0  0  0  0  0  0  0  0  0  0  # atno 6907 bound_to 6896
  150.7936  134.6983  159.6545 H   0  0  0  0  0  0  0  0  0  0  0  0  # atno 6908 bound_to 6896
  152.4020  134.6274  160.0118 H   0  0  0  0  0  0  0  0  0  0  0  0  # atno 6909 bound_to 6896
  144.7917  139.7310  143.6219 H   0  0  0  0  0  0  0  0  0  0  0  0  # atno 7974 bound_to 7965
  154.4878  140.2105  155.9616 H   0  0  0  0  0  0  0  0  0  0  0  0  # atno 8008 bound_to 7997
  156.1262  140.3205  155.8249 H   0  0  0  0  0  0  0  0  0  0  0  0  # atno 8009 bound_to 7997
  155.4380  140.0508  157.3003 H   0  0  0  0  0  0  0  0  0  0  0  0  # atno 8010 bound_to 7997
  139.6292  144.7112  151.2467 H   0  0  0  0  0  0  0  0  0  0  0  0  # atno 10167 bound_to 10162
  157.6802  131.0752  150.5402 H   0  0  0  0  0  0  0  0  0  0  0  0  # atno 10718 bound_to 10713
  154.1091  135.6552  153.4882 H   0  0  0  0  0  0  0  0  0  0  0  0  # atno 10763 bound_to 10752
  153.0262  135.5243  154.7209 H   0  0  0  0  0  0  0  0  0  0  0  0  # atno 10764 bound_to 10752
  154.6384  135.2985  155.0102 H   0  0  0  0  0  0  0  0  0  0  0  0  # atno 10765 bound_to 10752
  141.0925  133.6630  156.4025 H   0  0  0  0  0  0  0  0  0  0  0  0  # atno 11005 bound_to 11000
  146.2171  139.5568  142.9643 LP  0  0  0  0  0  0  0  0  0  0  0  0  # atno 17320 bound_to 7965
  145.5778  141.0386  143.2138 LP  0  0  0  0  0  0  0  0  0  0  0  0  # atno 17321 bound_to 7965
  140.7429  143.6511  150.8248 LP  0  0  0  0  0  0  0  0  0  0  0  0  # atno 17342 bound_to 10162
  140.0133  143.5619  152.2830 LP  0  0  0  0  0  0  0  0  0  0  0  0  # atno 17343 bound_to 10162
  156.5709  130.4279  149.6020 LP  0  0  0  0  0  0  0  0  0  0  0  0  # atno 17370 bound_to 10713
  156.2741  130.7034  151.1840 LP  0  0  0  0  0  0  0  0  0  0  0  0  # atno 17371 bound_to 10713
  140.5219  134.6296  157.5321 LP  0  0  0  0  0  0  0  0  0  0  0  0  # atno 17394 bound_to 11000
  139.9753  134.7225  155.9961 LP  0  0  0  0  0  0  0  0  0  0  0  0  # atno 17395 bound_to 11000

$$$$
