AV-unprocessed.smi:1083|AV-procd|sdf|4715|dock4
  -GOLD-   22720 3243D 1   1.00000     0.00000
 Structure written by MMmdl.
 43 45  0  0  0  0  0  0  0  0  1 V2000
  145.1194  137.8604  153.4305 O   0  0  0  0  0  0  0  0  0  0  0  0
  146.1853  137.3342  153.1104 C   0  0  0  0  0  0  0  0  0  0  0  0
  147.3913  137.9195  153.1885 N   0  0  0  0  0  0  0  0  0  0  0  0
  147.6907  139.2478  153.6021 C   0  0  0  0  0  0  0  0  0  0  0  0
  146.7640  140.3079  153.4558 C   0  0  0  0  0  0  0  0  0  0  0  0
  147.1037  141.5864  153.9328 C   0  0  0  0  0  0  0  0  0  0  0  0
  148.3552  141.7576  154.5503 C   0  0  0  0  0  0  0  0  0  0  0  0
  149.2433  140.7551  154.7086 N   0  0  0  0  0  0  0  0  0  0  0  0
  148.9266  139.5200  154.2484 C   0  0  0  0  0  0  0  0  0  0  0  0
  149.8873  138.5013  154.4081 N   0  0  0  0  0  0  0  0  0  0  0  0
  151.2252  139.0007  154.7060 C   0  0  0  0  0  0  0  0  0  0  0  0
  152.2486  137.8571  154.6007 C   0  0  0  0  0  0  0  0  0  0  0  0
  151.8613  136.7858  155.4570 O   0  0  0  0  0  0  0  0  0  0  0  0
  150.5851  136.2553  155.1100 C   0  0  0  0  0  0  0  0  0  0  0  0
  149.5174  137.3558  155.2339 C   0  0  0  0  0  0  0  0  0  0  0  0
  146.2820  136.0949  152.6096 N   0  0  0  0  0  0  0  0  0  0  0  0
  145.1565  135.1995  152.3561 C   0  0  0  0  0  0  0  0  0  0  0  0
  145.6432  133.8661  151.7554 C   0  0  0  0  0  0  0  0  0  0  0  0
  144.7834  133.6180  150.5144 C   0  0  0  0  0  0  0  0  0  0  0  0
  144.3972  135.0133  150.0344 C   0  0  0  0  0  0  0  0  0  0  0  0
  144.1831  135.8039  151.3249 C   0  0  0  0  0  0  0  0  0  0  0  0
  148.1655  137.4017  152.7990 H   0  0  0  0  0  0  0  0  0  0  0  0
  145.7954  140.1556  153.0043 H   0  0  0  0  0  0  0  0  0  0  0  0
  146.4170  142.4142  153.8351 H   0  0  0  0  0  0  0  0  0  0  0  0
  148.6494  142.7238  154.9323 H   0  0  0  0  0  0  0  0  0  0  0  0
  151.5023  139.8076  154.0275 H   0  0  0  0  0  0  0  0  0  0  0  0
  151.2332  139.4175  155.7141 H   0  0  0  0  0  0  0  0  0  0  0  0
  152.3306  137.5031  153.5717 H   0  0  0  0  0  0  0  0  0  0  0  0
  153.2371  138.2087  154.8963 H   0  0  0  0  0  0  0  0  0  0  0  0
  150.6109  135.8502  154.0971 H   0  0  0  0  0  0  0  0  0  0  0  0
  150.3507  135.4271  155.7789 H   0  0  0  0  0  0  0  0  0  0  0  0
  149.4285  137.6656  156.2762 H   0  0  0  0  0  0  0  0  0  0  0  0
  148.5453  136.9714  154.9230 H   0  0  0  0  0  0  0  0  0  0  0  0
  147.1997  135.7482  152.3721 H   0  0  0  0  0  0  0  0  0  0  0  0
  144.6241  135.0043  153.2890 H   0  0  0  0  0  0  0  0  0  0  0  0
  146.6898  133.9364  151.4544 H   0  0  0  0  0  0  0  0  0  0  0  0
  145.5699  133.0443  152.4686 H   0  0  0  0  0  0  0  0  0  0  0  0
  145.3045  133.0398  149.7511 H   0  0  0  0  0  0  0  0  0  0  0  0
  143.8849  133.0662  150.7941 H   0  0  0  0  0  0  0  0  0  0  0  0
  145.2215  135.4491  149.4682 H   0  0  0  0  0  0  0  0  0  0  0  0
  143.5157  135.0092  149.3928 H   0  0  0  0  0  0  0  0  0  0  0  0
  143.1592  135.6553  151.6700 H   0  0  0  0  0  0  0  0  0  0  0  0
  144.3159  136.8764  151.1753 H   0  0  0  0  0  0  0  0  0  0  0  0
  1  2  2  0  0  0  0
  2  3  1  0  0  0  0
  2 16  1  0  0  0  0
  3  4  1  0  0  0  0
  3 22  1  0  0  0  0
  4  9  1  0  0  0  0
  4  5  2  0  0  0  0
  5  6  1  0  0  0  0
  5 23  1  0  0  0  0
  6  7  2  0  0  0  0
  6 24  1  0  0  0  0
  7  8  1  0  0  0  0
  7 25  1  0  0  0  0
  8  9  2  0  0  0  0
  9 10  1  0  0  0  0
 10 15  1  0  0  0  0
 10 11  1  0  0  0  0
 11 12  1  0  0  0  0
 11 26  1  0  0  0  0
 11 27  1  0  0  0  0
 12 13  1  0  0  0  0
 12 28  1  0  0  0  0
 12 29  1  0  0  0  0
 13 14  1  0  0  0  0
 14 15  1  0  0  0  0
 14 30  1  0  0  0  0
 14 31  1  0  0  0  0
 15 32  1  0  0  0  0
 15 33  1  0  0  0  0
 16 17  1  0  0  0  0
 16 34  1  0  0  0  0
 17 21  1  0  0  0  0
 17 18  1  0  0  0  0
 17 35  1  0  0  0  0
 18 19  1  0  0  0  0
 18 36  1  0  0  0  0
 18 37  1  0  0  0  0
 19 20  1  0  0  0  0
 19 38  1  0  0  0  0
 19 39  1  0  0  0  0
 20 21  1  0  0  0  0
 20 40  1  0  0  0  0
 20 41  1  0  0  0  0
 21 42  1  0  0  0  0
 21 43  1  0  0  0  0
M  END
> <s_m_source_file>
AV-unprocessed.smi

> <i_m_source_file_index>
1083

> <i_lp_mmshare_version>
43012

> <i_f3d_flags>
0

> <s_epik_input>
W0NIMl0xW0NIMl1bQ0gyXVtDSDJdW0NIXTFbTkhdQyg9TylbTkhdYzJbY0hdW2NIXVtjSF1uYzJOM1tDSDJdW0NIMl1PW0NIMl1bQ0gyXTM=

> <s_epik_cmdline>
J2VwaWtfcHl0aG9uJywgJy1waCcsICc3LjAnLCAnLXRuJywgJzgnLCAnLW1hJywgJzIwMCcsICctbWV0YWxfYmluZGluZycsICctaW1hZScsICc8aW5maWxlLm1hZT4nLCAnLW9tYWUnLCAnPG91dGZpbGUubWFlPic=

> <r_lp_tautomer_probability>
1

> <r_epik_Ionization_Penalty>
0.00217669

> <r_epik_Ionization_Penalty_Charging>
0

> <r_epik_Ionization_Penalty_Neutral>
0.00217669

> <r_epik_State_Penalty>
0.00146536

> <r_epik_Charging_Adjusted_Penalty>
0.00146536

> <i_epik_Tot_Q>
0

> <i_epik_Tot_abs_Q>
0

> <r_epik_Metal_State_Penalty>
-0

> <b_epik_Metal_Only>
0

> <s_lp_Force_Field>
OPLS_2005

> <r_lp_Energy>
35.5183

> <b_lp_Chiralities_Consistent>
1

> <s_lp_Variant>
AV-unprocessed.smi:1083-1

> <Gold.Version>
5.8.1

> <Gold.Id.Protein>
6NUR|6NUR_protein|mol2

> <Gold.PLP.Fitness>
43.5979

> <Gold.PLP.PLP>
-32.4820

> <Gold.PLP.part.hbond>
-3.0000

> <Gold.PLP.part.metal>
0.0000

> <Gold.PLP.part.buried>
-1.1175

> <Gold.PLP.part.nonpolar>
-28.9868

> <Gold.PLP.part.repulsive>
0.6188

> <Gold.PLP.ligand.clash>
0.0000

> <Gold.PLP.ligand.torsion>
0.4148

> <Gold.PLP.Chemscore.Hbond>
2.9120

> <Gold.PLP.Chemscore.CHOScore>
1.0000

> <Gold.PLP.Chemscore.Metal>
0.0000

> <Gold.Chemscore.Hbonds>
donor molecule, donor type, donor heavy atom, donor atom, acceptor molecule, acceptor atom, score
      L1  H     3    22       P1  7948  1.00
      L1  H    16    34       P1  7948  0.91
      P1  H 10752 10763       L1    13  0.80
      L1  C     7    25       P1  8028  1.00

> <Gold.PLP.Chemscore.Internal.Correction>
0.2095

> <Gold.Rescore>
     Score         DG    S(hbond)    S(metal)    S(lipo)     H(rot)  DE(clash)    DE(int)     intcor
     16.84     -19.63       2.37        0.00      79.45       1.19       0.15       2.64       ----

> <Gold.Chemscore.Fitness>
16.8387

> <Gold.Chemscore.DG>
-19.6259

> <Gold.Chemscore.ZeroCoef>
-5.4800

> <Gold.Chemscore.Hbond>
2.3651

> <Gold.Chemscore.Metal>
0.0000

> <Gold.Chemscore.Lipo>
79.4461

> <Gold.Chemscore.Internal_Hbond>
0.0000

> <Gold.Chemscore.DEClash>
0.1460

> <Gold.Chemscore.DEInternal>
2.6412

> <Gold.Chemscore.Rot>
1.1909

> <Gold.Chemscore.Internal.Correction>
   9.000000E+99

> <Gold.Chemscore.Hbonds>
donor molecule, donor type, donor heavy atom, donor atom, acceptor molecule, acceptor atom, score
      L1  H     3    22       P1  7948  0.99
      L1  H    16    34       P1  7948  0.90
      P1  H 10752 10763       L1    13  0.04

> <Gold.Chemscore.Hbond.Weighted>
-7.8994

> <Gold.Chemscore.Metal.Weighted>
-0.0000

> <Gold.Chemscore.Lipo.Weighted>
-9.2952

> <Gold.Chemscore.Internal_Hbond.Weighted>
0.0000

> <Gold.Chemscore.DEClash.Weighted>
0.1460

> <Gold.Chemscore.DEInternal.Weighted>
2.6412

> <Gold.Chemscore.Rot.Weighted>
3.0487

> <Gold.Chemscore.Internal.Correction.Weighted>
   9.000000E+99

> <Gold.Protein.RotatedTorsions>
[ 6907 6896 6895 6894 ] final   20.29 input  -60.11 | X-H torsion
[ 7974 7965 7964 7962 ] final -146.77 input  175.53 | X-H torsion
[ 8008 7997 7996 7995 ] final  -25.34 input   59.86 | X-H torsion
[ 10167 10162 10161 10158 ] final  173.82 input  -65.29 | X-H torsion
[ 10718 10713 10712 10709 ] final   66.87 input   66.30 | X-H torsion
[ 10763 10752 10751 10750 ] final   68.63 input  -60.55 | X-H torsion
[ 11005 11000 10999 10996 ] final  -79.50 input  -57.11 | X-H torsion

> <Gold.Protein.ActiveResidues>
 VAL166  LYS551  ARG553  GLY616  TRP617  ASP618  TYR619  PRO620  LYS621  CYS622 
 ASP623  PHE694  ASN695  SER759  ASP760  ASP761  ALA762  ILE779  LEU786  VAL792 
 PHE793  MET794  SER795  GLU796  ALA797  LYS798  CYS799  TRP800  GLU811  SER814 

> <Gold.Protein.RotatedAtoms>
  151.8940  135.0405  160.0500 H   0  0  0  0  0  0  0  0  0  0  0  0  # atno 6907 bound_to 6896
  152.2412  133.5133  159.5280 H   0  0  0  0  0  0  0  0  0  0  0  0  # atno 6908 bound_to 6896
  150.7054  134.1002  159.4005 H   0  0  0  0  0  0  0  0  0  0  0  0  # atno 6909 bound_to 6896
  144.8137  140.5414  143.5625 H   0  0  0  0  0  0  0  0  0  0  0  0  # atno 7974 bound_to 7965
  154.4481  140.1929  156.0604 H   0  0  0  0  0  0  0  0  0  0  0  0  # atno 8008 bound_to 7997
  156.0587  140.3299  155.7409 H   0  0  0  0  0  0  0  0  0  0  0  0  # atno 8009 bound_to 7997
  155.5445  140.0589  157.2854 H   0  0  0  0  0  0  0  0  0  0  0  0  # atno 8010 bound_to 7997
  139.5121  144.3217  152.0196 H   0  0  0  0  0  0  0  0  0  0  0  0  # atno 10167 bound_to 10162
  157.6195  130.9290  150.0166 H   0  0  0  0  0  0  0  0  0  0  0  0  # atno 10718 bound_to 10713
  153.0245  135.5240  154.7165 H   0  0  0  0  0  0  0  0  0  0  0  0  # atno 10763 bound_to 10752
  154.6232  135.2891  155.0304 H   0  0  0  0  0  0  0  0  0  0  0  0  # atno 10764 bound_to 10752
  154.1283  135.6597  153.4969 H   0  0  0  0  0  0  0  0  0  0  0  0  # atno 10765 bound_to 10752
  141.1667  133.7109  156.8132 H   0  0  0  0  0  0  0  0  0  0  0  0  # atno 11005 bound_to 11000
  145.5263  139.1476  143.3524 LP  0  0  0  0  0  0  0  0  0  0  0  0  # atno 17320 bound_to 7965
  146.2439  140.5404  142.8922 LP  0  0  0  0  0  0  0  0  0  0  0  0  # atno 17321 bound_to 7965
  140.2658  144.4017  150.6169 LP  0  0  0  0  0  0  0  0  0  0  0  0  # atno 17342 bound_to 10162
  140.6124  143.2170  151.6859 LP  0  0  0  0  0  0  0  0  0  0  0  0  # atno 17343 bound_to 10162
  156.1334  130.3643  149.9695 LP  0  0  0  0  0  0  0  0  0  0  0  0  # atno 17370 bound_to 10713
  156.7752  130.9201  151.3645 LP  0  0  0  0  0  0  0  0  0  0  0  0  # atno 17371 bound_to 10713
  140.2172  134.8784  157.3339 LP  0  0  0  0  0  0  0  0  0  0  0  0  # atno 17394 bound_to 11000
  140.2025  134.4237  155.7655 LP  0  0  0  0  0  0  0  0  0  0  0  0  # atno 17395 bound_to 11000

$$$$
