AV-unprocessed.smi:2597|AV-procd|sdf|10170|dock6
  -GOLD-   2272014183D 1   1.00000     0.00000
 Structure written by MMmdl.
 31 32  0  0  0  0  0  0  0  0  2 V2000
  147.3972  133.9215  152.3593 N   0  3  0  0  0  0  0  0  0  0  0  0
  146.4691  133.3987  151.3385 C   0  0  1  0  0  0  0  0  0  0  0  0
  145.8507  132.0588  151.7871 C   0  0  0  0  0  0  0  0  0  0  0  0
  144.8879  131.5057  150.7244 C   0  0  0  0  0  0  0  0  0  0  0  0
  143.7916  132.5215  150.3677 C   0  0  0  0  0  0  0  0  0  0  0  0
  144.3936  133.8671  149.9211 C   0  0  0  0  0  0  0  0  0  0  0  0
  145.4094  134.4571  150.9273 C   0  0  1  0  0  0  0  0  0  0  0  0
  144.7628  135.1259  152.0577 N   0  0  0  0  0  0  0  0  0  0  0  0
  143.8865  136.1920  152.0092 C   0  0  0  0  0  0  0  0  0  0  0  0
  143.6006  136.4394  153.3216 C   0  0  0  0  0  0  0  0  0  0  0  0
  142.7123  137.4872  153.9194 C   0  0  0  0  0  0  0  0  0  0  0  0
  142.2219  138.2622  152.8467 O   0  0  0  0  0  0  0  0  0  0  0  0
  144.2974  135.5246  154.1072 N   0  0  0  0  0  0  0  0  0  0  0  0
  144.9857  134.7416  153.3394 N   0  0  0  0  0  0  0  0  0  0  0  0
  147.0785  133.1909  150.4579 H   0  0  0  0  0  0  0  0  0  0  0  0
  145.9452  135.2445  150.3945 H   0  0  0  0  0  0  0  0  0  0  0  0
  148.1714  133.2817  152.4683 H   0  0  0  0  0  0  0  0  0  0  0  0
  146.9129  134.0142  153.2408 H   0  0  0  0  0  0  0  0  0  0  0  0
  146.6415  131.3299  151.9677 H   0  0  0  0  0  0  0  0  0  0  0  0
  145.3270  132.1699  152.7361 H   0  0  0  0  0  0  0  0  0  0  0  0
  145.4487  131.2472  149.8253 H   0  0  0  0  0  0  0  0  0  0  0  0
  144.4340  130.5803  151.0801 H   0  0  0  0  0  0  0  0  0  0  0  0
  143.1672  132.1194  149.5693 H   0  0  0  0  0  0  0  0  0  0  0  0
  143.1274  132.6635  151.2193 H   0  0  0  0  0  0  0  0  0  0  0  0
  144.9000  133.7148  148.9669 H   0  0  0  0  0  0  0  0  0  0  0  0
  143.5970  134.5856  149.7235 H   0  0  0  0  0  0  0  0  0  0  0  0
  143.5613  136.6648  151.0940 H   0  0  0  0  0  0  0  0  0  0  0  0
  141.8786  137.0376  154.4588 H   0  0  0  0  0  0  0  0  0  0  0  0
  143.2540  138.1277  154.6162 H   0  0  0  0  0  0  0  0  0  0  0  0
  142.8728  138.9099  152.6233 H   0  0  0  0  0  0  0  0  0  0  0  0
  147.7453  134.8243  152.0697 H   0  0  0  0  0  0  0  0  0  0  0  0
  1  2  1  0  0  0  0
  1 17  1  0  0  0  0
  1 18  1  0  0  0  0
  1 31  1  0  0  0  0
  2 15  1  0  0  0  0
  2  7  1  0  0  0  0
  2  3  1  0  0  0  0
  3  4  1  0  0  0  0
  3 19  1  0  0  0  0
  3 20  1  0  0  0  0
  4  5  1  0  0  0  0
  4 21  1  0  0  0  0
  4 22  1  0  0  0  0
  5  6  1  0  0  0  0
  5 23  1  0  0  0  0
  5 24  1  0  0  0  0
  6  7  1  0  0  0  0
  6 25  1  0  0  0  0
  6 26  1  0  0  0  0
  7 16  1  0  0  0  0
  7  8  1  0  0  0  0
  8 14  1  0  0  0  0
  8  9  1  0  0  0  0
  9 10  2  0  0  0  0
  9 27  1  0  0  0  0
 10 11  1  0  0  0  0
 10 13  1  0  0  0  0
 11 12  1  0  0  0  0
 11 28  1  0  0  0  0
 11 29  1  0  0  0  0
 12 30  1  0  0  0  0
 13 14  2  0  0  0  0
M  CHG  1   1   1
M  END
> <s_m_source_file>
AV-unprocessed.smi

> <i_m_source_file_index>
2597

> <i_lp_mmshare_version>
43012

> <i_f3d_flags>
0

> <s_epik_input>
W05IMl1bQ0BIXTFbQ0gyXVtDSDJdW0NIMl1bQ0gyXVtDQEhdMW4yW2NIXWMobm4yKVtDSDJdW09IXQ==

> <s_epik_cmdline>
J2VwaWtfcHl0aG9uJywgJy1waCcsICc3LjAnLCAnLXRuJywgJzgnLCAnLW1hJywgJzIwMCcsICctbWV0YWxfYmluZGluZycsICctaW1hZScsICc8aW5maWxlLm1hZT4nLCAnLW9tYWUnLCAnPG91dGZpbGUubWFlPic=

> <r_lp_tautomer_probability>
1

> <r_epik_Ionization_Penalty>
0.014346

> <r_epik_Ionization_Penalty_Charging>
0.014316

> <r_epik_Ionization_Penalty_Neutral>
3.00097e-05

> <r_epik_State_Penalty>
0.0111909

> <r_epik_Charging_Adjusted_Penalty>
0.0255069

> <i_epik_Tot_Q>
1

> <i_epik_Tot_abs_Q>
1

> <r_epik_Metal_State_Penalty>
0.011192

> <b_epik_Metal_Only>
0

> <s_lp_Force_Field>
OPLS_2005

> <r_lp_Energy>
16.1833

> <b_lp_Chiralities_Consistent>
1

> <s_lp_Variant>
AV-unprocessed.smi:2597-1

> <Gold.Version>
5.8.1

> <Gold.Id.Protein>
6NUR|6NUR_protein|mol2

> <Gold.PLP.Fitness>
36.3421

> <Gold.PLP.PLP>
-24.3798

> <Gold.PLP.part.hbond>
-2.0000

> <Gold.PLP.part.metal>
0.0000

> <Gold.PLP.part.buried>
-3.0579

> <Gold.PLP.part.nonpolar>
-18.9951

> <Gold.PLP.part.repulsive>
0.1390

> <Gold.PLP.ligand.clash>
0.0000

> <Gold.PLP.ligand.torsion>
0.0513

> <Gold.PLP.Chemscore.Hbond>
3.0000

> <Gold.PLP.Chemscore.CHOScore>
1.0000

> <Gold.PLP.Chemscore.Metal>
0.0000

> <Gold.Chemscore.Hbonds>
donor molecule, donor type, donor heavy atom, donor atom, acceptor molecule, acceptor atom, score
      L1  H     1    31       P1  7948  2.00
      L1  H    12    30       P1 10175  1.00
      L1  C     9    27       P1 10171  1.00

> <Gold.PLP.Chemscore.Internal.Correction>
0.0650

> <Gold.Rescore>
     Score         DG    S(hbond)    S(metal)    S(lipo)     H(rot)  DE(clash)    DE(int)     intcor
     11.08     -13.87       1.88        0.00      58.56       1.86       1.24       1.55       ----

> <Gold.Chemscore.Fitness>
11.0754

> <Gold.Chemscore.DG>
-13.8712

> <Gold.Chemscore.ZeroCoef>
-5.4800

> <Gold.Chemscore.Hbond>
1.8827

> <Gold.Chemscore.Metal>
0.0000

> <Gold.Chemscore.Lipo>
58.5623

> <Gold.Chemscore.Internal_Hbond>
0.0000

> <Gold.Chemscore.DEClash>
1.2428

> <Gold.Chemscore.DEInternal>
1.5530

> <Gold.Chemscore.Rot>
1.8551

> <Gold.Chemscore.Internal.Correction>
   9.000000E+99

> <Gold.Chemscore.Hbonds>
donor molecule, donor type, donor heavy atom, donor atom, acceptor molecule, acceptor atom, score
      L1  H     1    31       P1  7948  0.65
      L1  H    12    30       P1 10175  0.99

> <Gold.Chemscore.Hbond.Weighted>
-6.2883

> <Gold.Chemscore.Metal.Weighted>
-0.0000

> <Gold.Chemscore.Lipo.Weighted>
-6.8518

> <Gold.Chemscore.Internal_Hbond.Weighted>
0.0000

> <Gold.Chemscore.DEClash.Weighted>
1.2428

> <Gold.Chemscore.DEInternal.Weighted>
1.5530

> <Gold.Chemscore.Rot.Weighted>
4.7489

> <Gold.Chemscore.Internal.Correction.Weighted>
   9.000000E+99

> <Gold.Protein.RotatedTorsions>
[ 6907 6896 6895 6894 ] final   90.73 input  -60.11 | X-H torsion
[ 7974 7965 7964 7962 ] final  112.63 input  175.53 | X-H torsion
[ 8008 7997 7996 7995 ] final   90.89 input   59.86 | X-H torsion
[ 10167 10162 10161 10158 ] final  -33.40 input  -65.29 | X-H torsion
[ 10718 10713 10712 10709 ] final   38.64 input   66.30 | X-H torsion
[ 10763 10752 10751 10750 ] final   32.27 input  -60.55 | X-H torsion
[ 11005 11000 10999 10996 ] final    3.20 input  -57.11 | X-H torsion

> <Gold.Protein.ActiveResidues>
 VAL166  LYS551  ARG553  GLY616  TRP617  ASP618  TYR619  PRO620  LYS621  CYS622 
 ASP623  PHE694  ASN695  SER759  ASP760  ASP761  ALA762  ILE779  LEU786  VAL792 
 PHE793  MET794  SER795  GLU796  ALA797  LYS798  CYS799  TRP800  GLU811  SER814 

> <Gold.Protein.RotatedAtoms>
  152.5446  134.1766  159.8618 H   0  0  0  0  0  0  0  0  0  0  0  0  # atno 6907 bound_to 6896
  151.1772  133.4740  159.2601 H   0  0  0  0  0  0  0  0  0  0  0  0  # atno 6908 bound_to 6896
  151.1215  135.0093  159.8596 H   0  0  0  0  0  0  0  0  0  0  0  0  # atno 6909 bound_to 6896
  145.2271  139.2836  143.4188 H   0  0  0  0  0  0  0  0  0  0  0  0  # atno 7974 bound_to 7965
  156.0173  140.3344  155.7002 H   0  0  0  0  0  0  0  0  0  0  0  0  # atno 8008 bound_to 7997
  155.6073  140.0661  157.2734 H   0  0  0  0  0  0  0  0  0  0  0  0  # atno 8009 bound_to 7997
  154.4303  140.1800  156.1223 H   0  0  0  0  0  0  0  0  0  0  0  0  # atno 8010 bound_to 7997
  140.7205  143.3623  151.1938 H   0  0  0  0  0  0  0  0  0  0  0  0  # atno 10167 bound_to 10162
  157.3613  130.7651  149.7049 H   0  0  0  0  0  0  0  0  0  0  0  0  # atno 10718 bound_to 10713
  153.0271  135.6417  154.1328 H   0  0  0  0  0  0  0  0  0  0  0  0  # atno 10763 bound_to 10752
  154.1056  135.2856  155.3243 H   0  0  0  0  0  0  0  0  0  0  0  0  # atno 10764 bound_to 10752
  154.6368  135.5473  153.7806 H   0  0  0  0  0  0  0  0  0  0  0  0  # atno 10765 bound_to 10752
  140.5958  133.9882  155.8109 H   0  0  0  0  0  0  0  0  0  0  0  0  # atno 11005 bound_to 11000
  146.3362  140.2595  142.8601 LP  0  0  0  0  0  0  0  0  0  0  0  0  # atno 17320 bound_to 7965
  144.9711  140.8369  143.5455 LP  0  0  0  0  0  0  0  0  0  0  0  0  # atno 17321 bound_to 7965
  139.7178  143.9272  152.2973 LP  0  0  0  0  0  0  0  0  0  0  0  0  # atno 17342 bound_to 10162
  139.9019  144.6907  150.8656 LP  0  0  0  0  0  0  0  0  0  0  0  0  # atno 17343 bound_to 10162
  155.9738  130.4113  150.3974 LP  0  0  0  0  0  0  0  0  0  0  0  0  # atno 17370 bound_to 10713
  157.2052  131.0447  151.2629 LP  0  0  0  0  0  0  0  0  0  0  0  0  # atno 17371 bound_to 10713
  141.0905  133.9924  157.3244 LP  0  0  0  0  0  0  0  0  0  0  0  0  # atno 17394 bound_to 11000
  139.9254  135.0201  156.8215 LP  0  0  0  0  0  0  0  0  0  0  0  0  # atno 17395 bound_to 11000

$$$$
