AV-unprocessed.smi:232|AV-procd|sdf|1779|dock3
  -GOLD-   2262020323D 1   1.00000     0.00000
 Structure written by MMmdl.
 52 55  0  0  0  0  0  0  0  0  1 V2000
  151.2345  140.2962  155.4296 C   0  0  0  0  0  0  0  0  0  0  0  0
  151.3859  141.6180  156.1947 C   0  0  0  0  0  0  0  0  0  0  0  0
  151.2373  141.4616  157.7191 C   0  0  2  0  0  0  0  0  0  0  0  0
  151.0618  142.8047  158.4505 C   0  0  0  0  0  0  0  0  0  0  0  0
  151.8294  142.6180  159.7554 C   0  0  0  0  0  0  0  0  0  0  0  0
  152.9905  141.7430  159.2948 C   0  0  1  0  0  0  0  0  0  0  0  0
  153.8238  141.1219  160.4338 C   0  0  0  0  0  0  0  0  0  0  0  0
  152.4058  140.8123  158.3265 N   0  0  0  0  0  0  0  0  0  0  0  0
  152.2426  139.5224  158.7079 C   0  0  0  0  0  0  0  0  0  0  0  0
  153.3100  138.7748  159.0959 N   0  0  0  0  0  0  0  0  0  0  0  0
  153.1346  137.5018  159.4643 C   0  0  0  0  0  0  0  0  0  0  0  0
  152.0033  136.7941  159.5125 N   0  0  0  0  0  0  0  0  0  0  0  0
  150.9350  137.5419  159.1126 C   0  0  0  0  0  0  0  0  0  0  0  0
  150.9673  138.9007  158.6940 C   0  0  0  0  0  0  0  0  0  0  0  0
  149.6898  139.3284  158.3562 N   0  0  0  0  0  0  0  0  0  0  0  0
  148.9408  138.2805  158.5692 C   0  0  0  0  0  0  0  0  0  0  0  0
  149.6068  137.1665  159.0288 N   0  0  0  0  0  0  0  0  0  0  0  0
  149.0263  135.8777  159.3594 C   0  0  0  0  0  0  0  0  0  0  0  0
  147.4859  135.9149  159.3562 C   0  0  1  0  0  0  0  0  0  0  0  0
  146.9625  134.8240  158.6221 O   0  0  0  0  0  0  0  0  0  0  0  0
  146.8846  135.9475  160.7755 C   0  0  1  0  0  0  0  0  0  0  0  0
  147.1938  134.7464  161.6735 C   0  0  0  0  0  0  0  0  0  0  0  0
  147.0050  135.3493  163.0474 C   0  0  0  0  0  0  0  0  0  0  0  0
  147.5775  136.7509  162.8529 C   0  0  0  0  0  0  0  0  0  0  0  0
  147.2961  137.1040  161.5011 O   0  0  0  0  0  0  0  0  0  0  0  0
  151.2846  140.4640  154.3537 H   0  0  0  0  0  0  0  0  0  0  0  0
  150.2772  139.8224  155.6480 H   0  0  0  0  0  0  0  0  0  0  0  0
  152.0246  139.5917  155.6893 H   0  0  0  0  0  0  0  0  0  0  0  0
  152.3486  142.0722  155.9574 H   0  0  0  0  0  0  0  0  0  0  0  0
  150.6243  142.3107  155.8348 H   0  0  0  0  0  0  0  0  0  0  0  0
  150.3368  140.8754  157.9050 H   0  0  0  0  0  0  0  0  0  0  0  0
  151.5197  143.6129  157.8781 H   0  0  0  0  0  0  0  0  0  0  0  0
  150.0147  143.0633  158.6101 H   0  0  0  0  0  0  0  0  0  0  0  0
  152.1545  143.5608  160.1956 H   0  0  0  0  0  0  0  0  0  0  0  0
  151.2149  142.0893  160.4857 H   0  0  0  0  0  0  0  0  0  0  0  0
  153.6698  142.3708  158.7163 H   0  0  0  0  0  0  0  0  0  0  0  0
  154.2670  141.9022  161.0527 H   0  0  0  0  0  0  0  0  0  0  0  0
  154.6397  140.5144  160.0411 H   0  0  0  0  0  0  0  0  0  0  0  0
  153.2184  140.4942  161.0885 H   0  0  0  0  0  0  0  0  0  0  0  0
  154.0287  136.9755  159.7645 H   0  0  0  0  0  0  0  0  0  0  0  0
  147.8735  138.2933  158.4027 H   0  0  0  0  0  0  0  0  0  0  0  0
  149.3954  135.1371  158.6488 H   0  0  0  0  0  0  0  0  0  0  0  0
  149.3951  135.5797  160.3417 H   0  0  0  0  0  0  0  0  0  0  0  0
  147.1647  136.8193  158.8377 H   0  0  0  0  0  0  0  0  0  0  0  0
  146.6792  134.1626  159.2348 H   0  0  0  0  0  0  0  0  0  0  0  0
  145.7995  136.0230  160.6858 H   0  0  0  0  0  0  0  0  0  0  0  0
  146.5393  133.8951  161.4848 H   0  0  0  0  0  0  0  0  0  0  0  0
  148.2261  134.4134  161.5613 H   0  0  0  0  0  0  0  0  0  0  0  0
  145.9428  135.4062  163.2894 H   0  0  0  0  0  0  0  0  0  0  0  0
  147.5074  134.7885  163.8360 H   0  0  0  0  0  0  0  0  0  0  0  0
  147.1565  137.4748  163.5508 H   0  0  0  0  0  0  0  0  0  0  0  0
  148.6597  136.7395  162.9881 H   0  0  0  0  0  0  0  0  0  0  0  0
  1  2  1  0  0  0  0
  1 26  1  0  0  0  0
  1 27  1  0  0  0  0
  1 28  1  0  0  0  0
  2  3  1  0  0  0  0
  2 29  1  0  0  0  0
  2 30  1  0  0  0  0
  3  8  1  0  0  0  0
  3  4  1  0  0  0  0
  3 31  1  0  0  0  0
  4  5  1  0  0  0  0
  4 32  1  0  0  0  0
  4 33  1  0  0  0  0
  5  6  1  0  0  0  0
  5 34  1  0  0  0  0
  5 35  1  0  0  0  0
  6  7  1  0  0  0  0
  6  8  1  0  0  0  0
  6 36  1  0  0  0  0
  7 37  1  0  0  0  0
  7 38  1  0  0  0  0
  7 39  1  0  0  0  0
  8  9  1  0  0  0  0
  9 14  1  0  0  0  0
  9 10  2  0  0  0  0
 10 11  1  0  0  0  0
 11 12  2  0  0  0  0
 11 40  1  0  0  0  0
 12 13  1  0  0  0  0
 13 17  1  0  0  0  0
 13 14  2  0  0  0  0
 14 15  1  0  0  0  0
 15 16  2  0  0  0  0
 16 17  1  0  0  0  0
 16 41  1  0  0  0  0
 17 18  1  0  0  0  0
 18 19  1  0  0  0  0
 18 42  1  0  0  0  0
 18 43  1  0  0  0  0
 19 20  1  0  0  0  0
 19 21  1  0  0  0  0
 19 44  1  0  0  0  0
 20 45  1  0  0  0  0
 21 25  1  0  0  0  0
 21 22  1  0  0  0  0
 21 46  1  0  0  0  0
 22 23  1  0  0  0  0
 22 47  1  0  0  0  0
 22 48  1  0  0  0  0
 23 24  1  0  0  0  0
 23 49  1  0  0  0  0
 23 50  1  0  0  0  0
 24 25  1  0  0  0  0
 24 51  1  0  0  0  0
 24 52  1  0  0  0  0
M  END
> <s_m_source_file>
AV-unprocessed.smi

> <i_m_source_file_index>
232

> <i_lp_mmshare_version>
43012

> <i_f3d_flags>
0

> <s_epik_input>
W0NIM11bQ0gyXVtDQEBIXTFbQ0gyXVtDSDJdW0NAQEhdKFtDSDNdKU4xYyhuW2NIXW4yKWMoYzIzKW5bY0hdbjNbQ0gyXVtDQEhdKFtPSF0pW0NAQEhdNFtDSDJdW0NIMl1bQ0gyXU80

> <s_epik_cmdline>
J2VwaWtfcHl0aG9uJywgJy1waCcsICc3LjAnLCAnLXRuJywgJzgnLCAnLW1hJywgJzIwMCcsICctbWV0YWxfYmluZGluZycsICctaW1hZScsICc8aW5maWxlLm1hZT4nLCAnLW9tYWUnLCAnPG91dGZpbGUubWFlPic=

> <r_lp_tautomer_probability>
1

> <r_epik_Ionization_Penalty>
0.00258048

> <r_epik_Ionization_Penalty_Charging>
0

> <r_epik_Ionization_Penalty_Neutral>
0.00258048

> <r_epik_State_Penalty>
0.00168551

> <r_epik_Charging_Adjusted_Penalty>
0.00168551

> <i_epik_Tot_Q>
0

> <i_epik_Tot_abs_Q>
0

> <r_epik_Metal_State_Penalty>
-0

> <b_epik_Metal_Only>
0

> <s_lp_Force_Field>
OPLS_2005

> <r_lp_Energy>
58.3384

> <b_lp_Chiralities_Consistent>
1

> <s_lp_Variant>
AV-unprocessed.smi:232-13

> <Gold.Version>
5.8.1

> <Gold.Id.Protein>
6NUR|6NUR_protein|mol2

> <Gold.PLP.Fitness>
44.9795

> <Gold.PLP.PLP>
-42.2956

> <Gold.PLP.part.hbond>
-3.0000

> <Gold.PLP.part.metal>
0.0000

> <Gold.PLP.part.buried>
-2.4782

> <Gold.PLP.part.nonpolar>
-35.7901

> <Gold.PLP.part.repulsive>
0.0000

> <Gold.PLP.ligand.clash>
1.3976

> <Gold.PLP.ligand.torsion>
0.9113

> <Gold.PLP.Chemscore.Hbond>
1.8960

> <Gold.PLP.Chemscore.CHOScore>
0.0000

> <Gold.PLP.Chemscore.Metal>
0.0000

> <Gold.Chemscore.Hbonds>
donor molecule, donor type, donor heavy atom, donor atom, acceptor molecule, acceptor atom, score
      P1  H  6896  6907       L1    12  1.00
      P1  H  6934  6947       L1    25  0.96

> <Gold.PLP.Chemscore.Internal.Correction>
0.2160

> <Gold.Rescore>
     Score         DG    S(hbond)    S(metal)    S(lipo)     H(rot)  DE(clash)    DE(int)     intcor
     13.78     -17.89       1.87        0.00     105.62       2.43       0.12       3.99       ----

> <Gold.Chemscore.Fitness>
13.7800

> <Gold.Chemscore.DG>
-17.8866

> <Gold.Chemscore.ZeroCoef>
-5.4800

> <Gold.Chemscore.Hbond>
1.8742

> <Gold.Chemscore.Metal>
0.0000

> <Gold.Chemscore.Lipo>
105.6180

> <Gold.Chemscore.Internal_Hbond>
0.0000

> <Gold.Chemscore.DEClash>
0.1203

> <Gold.Chemscore.DEInternal>
3.9863

> <Gold.Chemscore.Rot>
2.4260

> <Gold.Chemscore.Internal.Correction>
   9.000000E+99

> <Gold.Chemscore.Hbonds>
donor molecule, donor type, donor heavy atom, donor atom, acceptor molecule, acceptor atom, score
      P1  H  6896  6907       L1    12  0.95
      P1  H  6934  6947       L1    25  0.87

> <Gold.Chemscore.Hbond.Weighted>
-6.2600

> <Gold.Chemscore.Metal.Weighted>
-0.0000

> <Gold.Chemscore.Lipo.Weighted>
-12.3573

> <Gold.Chemscore.Internal_Hbond.Weighted>
0.0000

> <Gold.Chemscore.DEClash.Weighted>
0.1203

> <Gold.Chemscore.DEInternal.Weighted>
3.9863

> <Gold.Chemscore.Rot.Weighted>
6.2107

> <Gold.Chemscore.Internal.Correction.Weighted>
   9.000000E+99

> <Gold.Protein.RotatedTorsions>
[ 6907 6896 6895 6894 ] final    8.09 input  -60.11 | X-H torsion
[ 7974 7965 7964 7962 ] final  -79.48 input  175.53 | X-H torsion
[ 8008 7997 7996 7995 ] final   52.57 input   59.86 | X-H torsion
[ 10167 10162 10161 10158 ] final   -2.81 input  -65.29 | X-H torsion
[ 10718 10713 10712 10709 ] final   53.20 input   66.30 | X-H torsion
[ 10763 10752 10751 10750 ] final  108.66 input  -60.55 | X-H torsion
[ 11005 11000 10999 10996 ] final  -69.82 input  -57.11 | X-H torsion

> <Gold.Protein.ActiveResidues>
 VAL166  LYS551  ARG553  GLY616  TRP617  ASP618  TYR619  PRO620  LYS621  CYS622 
 ASP623  PHE694  ASN695  SER759  ASP760  ASP761  ALA762  ILE779  LEU786  VAL792 
 PHE793  MET794  SER795  GLU796  ALA797  LYS798  CYS799  TRP800  GLU811  SER814 

> <Gold.Protein.RotatedAtoms>
  151.7004  135.0931  160.0249 H   0  0  0  0  0  0  0  0  0  0  0  0  # atno 6907 bound_to 6896
  152.3724  133.6432  159.6106 H   0  0  0  0  0  0  0  0  0  0  0  0  # atno 6908 bound_to 6896
  150.7683  133.9165  159.3426 H   0  0  0  0  0  0  0  0  0  0  0  0  # atno 6909 bound_to 6896
  145.5726  140.9463  143.1387 H   0  0  0  0  0  0  0  0  0  0  0  0  # atno 7974 bound_to 7965
  155.4540  140.3459  155.4304 H   0  0  0  0  0  0  0  0  0  0  0  0  # atno 8008 bound_to 7997
  156.1202  140.1485  156.9244 H   0  0  0  0  0  0  0  0  0  0  0  0  # atno 8009 bound_to 7997
  154.4818  140.0867  156.7374 H   0  0  0  0  0  0  0  0  0  0  0  0  # atno 8010 bound_to 7997
  140.6866  143.6613  150.8264 H   0  0  0  0  0  0  0  0  0  0  0  0  # atno 10167 bound_to 10162
  157.5145  130.8523  149.8477 H   0  0  0  0  0  0  0  0  0  0  0  0  # atno 10718 bound_to 10713
  153.4238  135.3805  155.2128 H   0  0  0  0  0  0  0  0  0  0  0  0  # atno 10763 bound_to 10752
  154.8746  135.3823  154.4351 H   0  0  0  0  0  0  0  0  0  0  0  0  # atno 10764 bound_to 10752
  153.4875  135.7088  153.5966 H   0  0  0  0  0  0  0  0  0  0  0  0  # atno 10765 bound_to 10752
  141.1562  133.6774  156.6658 H   0  0  0  0  0  0  0  0  0  0  0  0  # atno 11005 bound_to 11000
  144.7431  139.7395  143.7303 LP  0  0  0  0  0  0  0  0  0  0  0  0  # atno 17320 bound_to 7965
  146.1773  139.4950  142.9889 LP  0  0  0  0  0  0  0  0  0  0  0  0  # atno 17321 bound_to 7965
  140.0320  143.5433  152.2756 LP  0  0  0  0  0  0  0  0  0  0  0  0  # atno 17342 bound_to 10162
  139.6230  144.7632  151.2700 LP  0  0  0  0  0  0  0  0  0  0  0  0  # atno 17343 bound_to 10162
  156.0311  130.3764  150.1686 LP  0  0  0  0  0  0  0  0  0  0  0  0  # atno 17370 bound_to 10713
  156.9875  130.9883  151.3423 LP  0  0  0  0  0  0  0  0  0  0  0  0  # atno 17371 bound_to 10713
  140.3213  134.8006  157.4254 LP  0  0  0  0  0  0  0  0  0  0  0  0  # atno 17394 bound_to 11000
  140.1095  134.5365  155.8279 LP  0  0  0  0  0  0  0  0  0  0  0  0  # atno 17395 bound_to 11000

$$$$
