AV-unprocessed.smi:1565|AV-procd|sdf|6299|dock8
  -GOLD-   22720 6503D 1   1.00000     0.00000
 Structure written by MMmdl.
 40 41  0  0  0  0  0  0  0  0  1 V2000
  144.5181  135.9094  150.6831 C   0  0  0  0  0  0  0  0  0  0  0  0
  145.2306  134.5538  150.7342 C   0  0  1  0  0  0  0  0  0  0  0  0
  145.9351  134.3275  152.0838 C   0  0  0  0  0  0  0  0  0  0  0  0
  146.4906  132.9797  152.1468 N   0  0  0  0  0  0  0  0  0  0  0  0
  147.4324  132.7542  153.1734 C   0  0  0  0  0  0  0  0  0  0  0  0
  147.7118  133.7710  154.1164 C   0  0  0  0  0  0  0  0  0  0  0  0
  148.6510  133.5240  155.1359 C   0  0  0  0  0  0  0  0  0  0  0  0
  149.2863  132.2662  155.1963 C   0  0  0  0  0  0  0  0  0  0  0  0
  150.3086  131.9756  156.2569 C   0  0  0  0  0  0  0  0  0  0  0  0
  150.2479  132.5239  157.3574 O   0  0  0  0  0  0  0  0  0  0  0  0
  151.2295  131.0518  155.9387 N   0  0  0  0  0  0  0  0  0  0  0  0
  152.2816  130.5731  156.8294 C   0  0  0  0  0  0  0  0  0  0  0  0
  153.3041  129.6922  156.0917 C   0  0  0  0  0  0  0  0  0  0  0  0
  152.6543  128.7858  155.3629 F   0  0  0  0  0  0  0  0  0  0  0  0
  154.0657  130.4240  155.2789 F   0  0  0  0  0  0  0  0  0  0  0  0
  154.0820  129.0567  156.9684 F   0  0  0  0  0  0  0  0  0  0  0  0
  148.9571  131.3202  154.2001 C   0  0  0  0  0  0  0  0  0  0  0  0
  148.0580  131.5524  153.2208 N   0  0  0  0  0  0  0  0  0  0  0  0
  145.5019  131.9375  151.8793 C   0  0  0  0  0  0  0  0  0  0  0  0
  144.7672  132.2000  150.5504 C   0  0  2  0  0  0  0  0  0  0  0  0
  145.6164  131.8798  149.3071 C   0  0  0  0  0  0  0  0  0  0  0  0
  144.2543  133.5339  150.5256 O   0  0  0  0  0  0  0  0  0  0  0  0
  145.2228  136.7287  150.8272 H   0  0  0  0  0  0  0  0  0  0  0  0
  143.7546  135.9833  151.4582 H   0  0  0  0  0  0  0  0  0  0  0  0
  144.0300  136.0565  149.7193 H   0  0  0  0  0  0  0  0  0  0  0  0
  145.9656  134.5300  149.9293 H   0  0  0  0  0  0  0  0  0  0  0  0
  146.7030  135.0882  152.2173 H   0  0  0  0  0  0  0  0  0  0  0  0
  145.2251  134.4491  152.9031 H   0  0  0  0  0  0  0  0  0  0  0  0
  147.2308  134.7363  154.0612 H   0  0  0  0  0  0  0  0  0  0  0  0
  148.8735  134.2953  155.8590 H   0  0  0  0  0  0  0  0  0  0  0  0
  151.1868  130.6349  155.0202 H   0  0  0  0  0  0  0  0  0  0  0  0
  152.7849  131.4446  157.2495 H   0  0  0  0  0  0  0  0  0  0  0  0
  151.8526  130.0317  157.6743 H   0  0  0  0  0  0  0  0  0  0  0  0
  149.4253  130.3469  154.1771 H   0  0  0  0  0  0  0  0  0  0  0  0
  145.9769  130.9558  151.8475 H   0  0  0  0  0  0  0  0  0  0  0  0
  144.7812  131.9203  152.6983 H   0  0  0  0  0  0  0  0  0  0  0  0
  143.8996  131.5404  150.5163 H   0  0  0  0  0  0  0  0  0  0  0  0
  145.8794  130.8222  149.2821 H   0  0  0  0  0  0  0  0  0  0  0  0
  146.5484  132.4439  149.2857 H   0  0  0  0  0  0  0  0  0  0  0  0
  145.0670  132.1042  148.3927 H   0  0  0  0  0  0  0  0  0  0  0  0
  1  2  1  0  0  0  0
  1 23  1  0  0  0  0
  1 24  1  0  0  0  0
  1 25  1  0  0  0  0
  2 22  1  0  0  0  0
  2  3  1  0  0  0  0
  2 26  1  0  0  0  0
  3  4  1  0  0  0  0
  3 27  1  0  0  0  0
  3 28  1  0  0  0  0
  4  5  1  0  0  0  0
  4 19  1  0  0  0  0
  5 18  1  0  0  0  0
  5  6  2  0  0  0  0
  6  7  1  0  0  0  0
  6 29  1  0  0  0  0
  7  8  2  0  0  0  0
  7 30  1  0  0  0  0
  8  9  1  0  0  0  0
  8 17  1  0  0  0  0
  9 10  2  0  0  0  0
  9 11  1  0  0  0  0
 11 12  1  0  0  0  0
 11 31  1  0  0  0  0
 12 13  1  0  0  0  0
 12 32  1  0  0  0  0
 12 33  1  0  0  0  0
 13 14  1  0  0  0  0
 13 15  1  0  0  0  0
 13 16  1  0  0  0  0
 17 18  2  0  0  0  0
 17 34  1  0  0  0  0
 19 20  1  0  0  0  0
 19 35  1  0  0  0  0
 19 36  1  0  0  0  0
 20 21  1  0  0  0  0
 20 22  1  0  0  0  0
 20 37  1  0  0  0  0
 21 38  1  0  0  0  0
 21 39  1  0  0  0  0
 21 40  1  0  0  0  0
M  END
> <s_m_source_file>
AV-unprocessed.smi

> <i_m_source_file_index>
1565

> <i_lp_mmshare_version>
43012

> <i_f3d_flags>
0

> <s_epik_input>
W0NIM11bQ0BASF0xW0NIMl1OKFtDSDJdW0NASF0oTzEpW0NIM10pYzJbY0hdW2NIXWMoW2NIXW4yKUMoPU8pW05IXVtDSDJdQyhGKShGKUY=

> <s_epik_cmdline>
J2VwaWtfcHl0aG9uJywgJy1waCcsICc3LjAnLCAnLXRuJywgJzgnLCAnLW1hJywgJzIwMCcsICctbWV0YWxfYmluZGluZycsICctaW1hZScsICc8aW5maWxlLm1hZT4nLCAnLW9tYWUnLCAnPG91dGZpbGUubWFlPic=

> <r_lp_tautomer_probability>
1

> <r_epik_Ionization_Penalty>
1.48031e-05

> <r_epik_Ionization_Penalty_Charging>
0

> <r_epik_Ionization_Penalty_Neutral>
1.48031e-05

> <r_epik_State_Penalty>
-0

> <r_epik_Charging_Adjusted_Penalty>
0

> <i_epik_Tot_Q>
0

> <i_epik_Tot_abs_Q>
0

> <r_epik_Metal_State_Penalty>
0.00620302

> <b_epik_Metal_Only>
0

> <s_lp_Force_Field>
OPLS_2005

> <r_lp_Energy>
19.4369

> <b_lp_Chiralities_Consistent>
1

> <s_lp_Variant>
AV-unprocessed.smi:1565-3

> <Gold.Version>
5.8.1

> <Gold.Id.Protein>
6NUR|6NUR_protein|mol2

> <Gold.PLP.Fitness>
37.7729

> <Gold.PLP.PLP>
-36.8846

> <Gold.PLP.part.hbond>
-0.7310

> <Gold.PLP.part.metal>
0.0000

> <Gold.PLP.part.buried>
-3.4040

> <Gold.PLP.part.nonpolar>
-32.3043

> <Gold.PLP.part.repulsive>
0.9091

> <Gold.PLP.ligand.clash>
0.0000

> <Gold.PLP.ligand.torsion>
0.6509

> <Gold.PLP.Chemscore.Hbond>
0.6175

> <Gold.PLP.Chemscore.CHOScore>
0.0000

> <Gold.PLP.Chemscore.Metal>
0.0000

> <Gold.Chemscore.Hbonds>
donor molecule, donor type, donor heavy atom, donor atom, acceptor molecule, acceptor atom, score
      P1  H  6896  6909       L1    10  0.28

> <Gold.PLP.Chemscore.Internal.Correction>
0.3375

> <Gold.Rescore>
     Score         DG    S(hbond)    S(metal)    S(lipo)     H(rot)  DE(clash)    DE(int)     intcor
     12.11     -12.96       0.90        0.00      66.84       1.31       0.00       0.86       ----

> <Gold.Chemscore.Fitness>
12.1074

> <Gold.Chemscore.DG>
-12.9646

> <Gold.Chemscore.ZeroCoef>
-5.4800

> <Gold.Chemscore.Hbond>
0.9000

> <Gold.Chemscore.Metal>
0.0000

> <Gold.Chemscore.Lipo>
66.8389

> <Gold.Chemscore.Internal_Hbond>
0.0000

> <Gold.Chemscore.DEClash>
0.0021

> <Gold.Chemscore.DEInternal>
0.8551

> <Gold.Chemscore.Rot>
1.3052

> <Gold.Chemscore.Internal.Correction>
   9.000000E+99

> <Gold.Chemscore.Hbonds>
donor molecule, donor type, donor heavy atom, donor atom, acceptor molecule, acceptor atom, score
      P1  H  6896  6909       L1    10  0.28

> <Gold.Chemscore.Hbond.Weighted>
-3.0059

> <Gold.Chemscore.Metal.Weighted>
-0.0000

> <Gold.Chemscore.Lipo.Weighted>
-7.8202

> <Gold.Chemscore.Internal_Hbond.Weighted>
0.0000

> <Gold.Chemscore.DEClash.Weighted>
0.0021

> <Gold.Chemscore.DEInternal.Weighted>
0.8551

> <Gold.Chemscore.Rot.Weighted>
3.3414

> <Gold.Chemscore.Internal.Correction.Weighted>
   9.000000E+99

> <Gold.Protein.RotatedTorsions>
[ 6907 6896 6895 6894 ] final  -42.97 input  -60.11 | X-H torsion
[ 7974 7965 7964 7962 ] final  122.95 input  175.53 | X-H torsion
[ 8008 7997 7996 7995 ] final -173.45 input   59.86 | X-H torsion
[ 10167 10162 10161 10158 ] final -154.30 input  -65.29 | X-H torsion
[ 10718 10713 10712 10709 ] final  145.02 input   66.30 | X-H torsion
[ 10763 10752 10751 10750 ] final    3.05 input  -60.55 | X-H torsion
[ 11005 11000 10999 10996 ] final   91.40 input  -57.11 | X-H torsion

> <Gold.Protein.ActiveResidues>
 VAL166  LYS551  ARG553  GLY616  TRP617  ASP618  TYR619  PRO620  LYS621  CYS622 
 ASP623  PHE694  ASN695  SER759  ASP760  ASP761  ALA762  ILE779  LEU786  VAL792 
 PHE793  MET794  SER795  GLU796  ALA797  LYS798  CYS799  TRP800  GLU811  SER814 

> <Gold.Protein.RotatedAtoms>
  150.9492  134.8893  159.7660 H   0  0  0  0  0  0  0  0  0  0  0  0  # atno 6907 bound_to 6896
  152.5112  134.3831  159.9368 H   0  0  0  0  0  0  0  0  0  0  0  0  # atno 6908 bound_to 6896
  151.3848  133.3768  159.2749 H   0  0  0  0  0  0  0  0  0  0  0  0  # atno 6909 bound_to 6896
  145.1016  139.3515  143.4809 H   0  0  0  0  0  0  0  0  0  0  0  0  # atno 7974 bound_to 7965
  155.9576  140.1138  157.0923 H   0  0  0  0  0  0  0  0  0  0  0  0  # atno 8008 bound_to 7997
  154.4124  140.1188  156.5203 H   0  0  0  0  0  0  0  0  0  0  0  0  # atno 8009 bound_to 7997
  155.6762  140.3473  155.4839 H   0  0  0  0  0  0  0  0  0  0  0  0  # atno 8010 bound_to 7997
  139.7025  143.9240  152.2434 H   0  0  0  0  0  0  0  0  0  0  0  0  # atno 10167 bound_to 10162
  157.3502  131.0949  151.1006 H   0  0  0  0  0  0  0  0  0  0  0  0  # atno 10718 bound_to 10713
  153.2880  135.6946  153.7320 H   0  0  0  0  0  0  0  0  0  0  0  0  # atno 10763 bound_to 10752
  153.6282  135.3415  155.3034 H   0  0  0  0  0  0  0  0  0  0  0  0  # atno 10764 bound_to 10752
  154.8515  135.4402  154.1955 H   0  0  0  0  0  0  0  0  0  0  0  0  # atno 10765 bound_to 10752
  139.8839  134.8672  156.3423 H   0  0  0  0  0  0  0  0  0  0  0  0  # atno 11005 bound_to 11000
  146.3529  140.0895  142.8613 LP  0  0  0  0  0  0  0  0  0  0  0  0  # atno 17320 bound_to 7965
  145.0949  140.9308  143.4747 LP  0  0  0  0  0  0  0  0  0  0  0  0  # atno 17321 bound_to 7965
  139.9086  144.6869  150.8586 LP  0  0  0  0  0  0  0  0  0  0  0  0  # atno 17342 bound_to 10162
  140.7713  143.3460  151.2111 LP  0  0  0  0  0  0  0  0  0  0  0  0  # atno 17343 bound_to 10162
  157.2185  130.6470  149.5802 LP  0  0  0  0  0  0  0  0  0  0  0  0  # atno 17370 bound_to 10713
  155.9720  130.4637  150.6191 LP  0  0  0  0  0  0  0  0  0  0  0  0  # atno 17371 bound_to 10713
  140.9650  133.7364  156.0455 LP  0  0  0  0  0  0  0  0  0  0  0  0  # atno 17394 bound_to 11000
  140.7942  134.3583  157.5457 LP  0  0  0  0  0  0  0  0  0  0  0  0  # atno 17395 bound_to 11000

$$$$
