AV-unprocessed.smi:2212|AV-procd|sdf|8953|dock9
  -GOLD-   2272012173D 1   1.00000     0.00000
 Structure written by MMmdl.
 31 32  0  0  0  0  0  0  0  0  1 V2000
  153.7072  141.8973  160.2458 C   0  0  0  0  0  0  0  0  0  0  0  0
  153.4586  142.7270  159.1186 O   0  0  0  0  0  0  0  0  0  0  0  0
  152.1359  143.2547  159.0090 C   0  0  0  0  0  0  0  0  0  0  0  0
  151.0828  142.1450  158.8808 C   0  0  0  0  0  0  0  0  0  0  0  0
  150.8948  141.7698  157.4853 N   0  0  0  0  0  0  0  0  0  0  0  0
  149.7072  141.5654  156.8997 C   0  0  0  0  0  0  0  0  0  0  0  0
  148.6495  141.6628  157.5301 O   0  0  0  0  0  0  0  0  0  0  0  0
  149.8804  141.2226  155.5679 N   0  0  0  0  0  0  0  0  0  0  0  0
  148.8425  140.8891  154.8655 C   0  0  0  0  0  0  0  0  0  0  0  0
  148.8025  140.5427  153.5245 N   0  0  0  0  0  0  0  0  0  0  0  0
  147.5063  140.2529  153.1986 C   0  0  0  0  0  0  0  0  0  0  0  0
  146.7606  140.4085  154.2888 C   0  0  0  0  0  0  0  0  0  0  0  0
  147.5497  140.7976  155.3286 O   0  0  0  0  0  0  0  0  0  0  0  0
  151.9450  144.2961  160.1279 C   0  0  0  0  0  0  0  0  0  0  0  0
  151.3377  145.2430  159.0911 C   0  0  0  0  0  0  0  0  0  0  0  0
  152.0862  144.4410  158.0254 C   0  0  0  0  0  0  0  0  0  0  0  0
  154.7078  141.4737  160.1634 H   0  0  0  0  0  0  0  0  0  0  0  0
  153.0013  141.0688  160.3061 H   0  0  0  0  0  0  0  0  0  0  0  0
  153.6699  142.4597  161.1786 H   0  0  0  0  0  0  0  0  0  0  0  0
  151.3956  141.2638  159.4431 H   0  0  0  0  0  0  0  0  0  0  0  0
  150.1286  142.4521  159.3095 H   0  0  0  0  0  0  0  0  0  0  0  0
  151.7282  141.6699  156.9237 H   0  0  0  0  0  0  0  0  0  0  0  0
  149.5680  140.4978  152.8673 H   0  0  0  0  0  0  0  0  0  0  0  0
  147.2488  139.9577  152.1921 H   0  0  0  0  0  0  0  0  0  0  0  0
  145.7045  140.2867  154.4795 H   0  0  0  0  0  0  0  0  0  0  0  0
  151.2594  143.9985  160.9219 H   0  0  0  0  0  0  0  0  0  0  0  0
  152.8863  144.6709  160.5345 H   0  0  0  0  0  0  0  0  0  0  0  0
  150.2534  145.1477  159.0115 H   0  0  0  0  0  0  0  0  0  0  0  0
  151.6494  146.2836  159.1840 H   0  0  0  0  0  0  0  0  0  0  0  0
  153.0685  144.8623  157.8042 H   0  0  0  0  0  0  0  0  0  0  0  0
  151.5153  144.2568  157.1150 H   0  0  0  0  0  0  0  0  0  0  0  0
  1  2  1  0  0  0  0
  1 17  1  0  0  0  0
  1 18  1  0  0  0  0
  1 19  1  0  0  0  0
  2  3  1  0  0  0  0
  3 16  1  0  0  0  0
  3  4  1  0  0  0  0
  3 14  1  0  0  0  0
  4  5  1  0  0  0  0
  4 20  1  0  0  0  0
  4 21  1  0  0  0  0
  5 22  1  0  0  0  0
  5  6  1  0  0  0  0
  6  8  1  0  0  0  0
  6  7  2  0  0  0  0
  8  9  2  0  0  0  0
  9 13  1  0  0  0  0
  9 10  1  0  0  0  0
 10 23  1  0  0  0  0
 10 11  1  0  0  0  0
 11 24  1  0  0  0  0
 11 12  2  0  0  0  0
 12 25  1  0  0  0  0
 12 13  1  0  0  0  0
 14 15  1  0  0  0  0
 14 26  1  0  0  0  0
 14 27  1  0  0  0  0
 15 16  1  0  0  0  0
 15 28  1  0  0  0  0
 15 29  1  0  0  0  0
 16 30  1  0  0  0  0
 16 31  1  0  0  0  0
M  END
> <s_m_source_file>
AV-unprocessed.smi

> <i_m_source_file_index>
2212

> <i_lp_mmshare_version>
43012

> <i_f3d_flags>
0

> <s_epik_input>
W0NIMl0xW0NIMl1bQ0gyXUMxKE9bQ0gzXSlbQ0gyXVtOSF1DKD1PKVtOSF1jMm5bY0hdW2NIXW8y

> <s_epik_cmdline>
J2VwaWtfcHl0aG9uJywgJy1waCcsICc3LjAnLCAnLXRuJywgJzgnLCAnLW1hJywgJzIwMCcsICctbWV0YWxfYmluZGluZycsICctaW1hZScsICc8aW5maWxlLm1hZT4nLCAnLW9tYWUnLCAnPG91dGZpbGUubWFlPic=

> <r_lp_tautomer_probability>
0.107061

> <r_epik_Ionization_Penalty>
1.29244

> <r_epik_Ionization_Penalty_Charging>
1.29208

> <r_epik_Ionization_Penalty_Neutral>
0.000357989

> <r_epik_State_Penalty>
2.59896

> <r_epik_Charging_Adjusted_Penalty>
3.89105

> <i_epik_Tot_Q>
0

> <i_epik_Tot_abs_Q>
0

> <r_epik_Metal_State_Penalty>
3.62496

> <b_epik_Metal_Only>
0

> <s_lp_Force_Field>
OPLS_2005

> <r_lp_Energy>
40.2308

> <b_lp_Chiralities_Consistent>
1

> <s_lp_Variant>
AV-unprocessed.smi:2212-3

> <Gold.Version>
5.8.1

> <Gold.Id.Protein>
6NUR|6NUR_protein|mol2

> <Gold.PLP.Fitness>
36.3517

> <Gold.PLP.PLP>
-32.3666

> <Gold.PLP.part.hbond>
-1.0000

> <Gold.PLP.part.metal>
0.0000

> <Gold.PLP.part.buried>
-3.4707

> <Gold.PLP.part.nonpolar>
-28.9059

> <Gold.PLP.part.repulsive>
0.5692

> <Gold.PLP.ligand.clash>
0.0000

> <Gold.PLP.ligand.torsion>
0.6483

> <Gold.PLP.Chemscore.Hbond>
0.6240

> <Gold.PLP.Chemscore.CHOScore>
1.0485

> <Gold.PLP.Chemscore.Metal>
0.0000

> <Gold.Chemscore.Hbonds>
donor molecule, donor type, donor heavy atom, donor atom, acceptor molecule, acceptor atom, score
      L1  H    10    23       P1  7957  0.62
      L1  C    11    24       P1  7957  0.37
      L1  C    12    25       P1 10175  0.18

> <Gold.PLP.Chemscore.Internal.Correction>
0.2642

> <Gold.Rescore>
     Score         DG    S(hbond)    S(metal)    S(lipo)     H(rot)  DE(clash)    DE(int)     intcor
     11.14     -13.45       0.93        0.00      77.59       1.64       0.03       2.27       ----

> <Gold.Chemscore.Fitness>
11.1428

> <Gold.Chemscore.DG>
-13.4501

> <Gold.Chemscore.ZeroCoef>
-5.4800

> <Gold.Chemscore.Hbond>
0.9260

> <Gold.Chemscore.Metal>
0.0000

> <Gold.Chemscore.Lipo>
77.5919

> <Gold.Chemscore.Internal_Hbond>
0.0000

> <Gold.Chemscore.DEClash>
0.0324

> <Gold.Chemscore.DEInternal>
2.2749

> <Gold.Chemscore.Rot>
1.6411

> <Gold.Chemscore.Internal.Correction>
   9.000000E+99

> <Gold.Chemscore.Hbonds>
donor molecule, donor type, donor heavy atom, donor atom, acceptor molecule, acceptor atom, score
      L1  H    10    23       P1  7957  0.64

> <Gold.Chemscore.Hbond.Weighted>
-3.0930

> <Gold.Chemscore.Metal.Weighted>
-0.0000

> <Gold.Chemscore.Lipo.Weighted>
-9.0783

> <Gold.Chemscore.Internal_Hbond.Weighted>
0.0000

> <Gold.Chemscore.DEClash.Weighted>
0.0324

> <Gold.Chemscore.DEInternal.Weighted>
2.2749

> <Gold.Chemscore.Rot.Weighted>
4.2011

> <Gold.Chemscore.Internal.Correction.Weighted>
   9.000000E+99

> <Gold.Protein.RotatedTorsions>
[ 6907 6896 6895 6894 ] final  177.67 input  -60.11 | X-H torsion
[ 7974 7965 7964 7962 ] final  -79.47 input  175.53 | X-H torsion
[ 8008 7997 7996 7995 ] final -138.98 input   59.86 | X-H torsion
[ 10167 10162 10161 10158 ] final  -68.08 input  -65.29 | X-H torsion
[ 10718 10713 10712 10709 ] final   -2.70 input   66.30 | X-H torsion
[ 10763 10752 10751 10750 ] final  -91.06 input  -60.55 | X-H torsion
[ 11005 11000 10999 10996 ] final   48.94 input  -57.11 | X-H torsion

> <Gold.Protein.ActiveResidues>
 VAL166  LYS551  ARG553  GLY616  TRP617  ASP618  TYR619  PRO620  LYS621  CYS622 
 ASP623  PHE694  ASN695  SER759  ASP760  ASP761  ALA762  ILE779  LEU786  VAL792 
 PHE793  MET794  SER795  GLU796  ALA797  LYS798  CYS799  TRP800  GLU811  SER814 

> <Gold.Protein.RotatedAtoms>
  151.7002  133.3311  159.3264 H   0  0  0  0  0  0  0  0  0  0  0  0  # atno 6907 bound_to 6896
  150.7739  134.6622  159.6355 H   0  0  0  0  0  0  0  0  0  0  0  0  # atno 6908 bound_to 6896
  152.3774  134.6645  160.0207 H   0  0  0  0  0  0  0  0  0  0  0  0  # atno 6909 bound_to 6896
  145.5728  140.9463  143.1386 H   0  0  0  0  0  0  0  0  0  0  0  0  # atno 7974 bound_to 7965
  155.4373  140.0529  157.3013 H   0  0  0  0  0  0  0  0  0  0  0  0  # atno 8008 bound_to 7997
  154.4833  140.2090  155.9669 H   0  0  0  0  0  0  0  0  0  0  0  0  # atno 8009 bound_to 7997
  156.1238  140.3183  155.8253 H   0  0  0  0  0  0  0  0  0  0  0  0  # atno 8010 bound_to 7997
  140.5535  143.2312  151.6866 H   0  0  0  0  0  0  0  0  0  0  0  0  # atno 10167 bound_to 10162
  156.7869  130.5349  149.5742 H   0  0  0  0  0  0  0  0  0  0  0  0  # atno 10718 bound_to 10713
  154.6722  135.5282  153.8153 H   0  0  0  0  0  0  0  0  0  0  0  0  # atno 10763 bound_to 10752
  153.0509  135.6532  154.0707 H   0  0  0  0  0  0  0  0  0  0  0  0  # atno 10764 bound_to 10752
  154.0605  135.2962  155.3305 H   0  0  0  0  0  0  0  0  0  0  0  0  # atno 10765 bound_to 10752
  140.1146  134.4909  155.8648 H   0  0  0  0  0  0  0  0  0  0  0  0  # atno 11005 bound_to 11000
  144.7430  139.7398  143.7303 LP  0  0  0  0  0  0  0  0  0  0  0  0  # atno 17320 bound_to 7965
  146.1772  139.4947  142.9890 LP  0  0  0  0  0  0  0  0  0  0  0  0  # atno 17321 bound_to 7965
  139.5037  144.3780  152.0405 LP  0  0  0  0  0  0  0  0  0  0  0  0  # atno 17342 bound_to 10162
  140.2899  144.3765  150.6092 LP  0  0  0  0  0  0  0  0  0  0  0  0  # atno 17343 bound_to 10162
  156.1183  130.6091  151.0155 LP  0  0  0  0  0  0  0  0  0  0  0  0  # atno 17370 bound_to 10713
  157.6619  131.0879  150.7818 LP  0  0  0  0  0  0  0  0  0  0  0  0  # atno 17371 bound_to 10713
  141.2138  133.6739  156.6772 LP  0  0  0  0  0  0  0  0  0  0  0  0  # atno 17394 bound_to 11000
  140.3045  134.8136  157.4125 LP  0  0  0  0  0  0  0  0  0  0  0  0  # atno 17395 bound_to 11000

$$$$
