AV-unprocessed.smi:2381|AV-procd|sdf|9457|dock3
  -GOLD-   2272013 83D 1   1.00000     0.00000
 Structure written by MMmdl.
 30 31  0  0  0  0  0  0  0  0  1 V2000
  152.1881  145.7707  160.3715 C   0  0  0  0  0  0  0  0  0  0  0  0
  152.0901  144.3997  159.7357 C   0  0  0  0  0  0  0  0  0  0  0  0
  152.7971  143.3036  160.2660 C   0  0  0  0  0  0  0  0  0  0  0  0
  152.6636  142.0563  159.6288 C   0  0  0  0  0  0  0  0  0  0  0  0
  151.8934  141.8624  158.5378 N   0  0  0  0  0  0  0  0  0  0  0  0
  151.2077  142.9107  158.0170 C   0  0  0  0  0  0  0  0  0  0  0  0
  150.3738  142.8164  156.8708 N   0  0  0  0  0  0  0  0  0  0  0  0
  150.1115  141.7314  156.1207 C   0  0  0  0  0  0  0  0  0  0  0  0
  150.5528  140.5999  156.3251 O   0  0  0  0  0  0  0  0  0  0  0  0
  149.2947  142.0318  155.1005 N   0  0  0  0  0  0  0  0  0  0  0  0
  148.8288  141.0824  154.0977 C   0  0  0  0  0  0  0  0  0  0  0  0
  147.3393  141.1307  153.8131 C   0  0  0  0  0  0  0  0  0  0  0  0
  146.5911  142.4432  153.7927 C   0  0  0  0  0  0  0  0  0  0  0  0
  146.3592  141.4593  154.9145 C   0  0  0  0  0  0  0  0  0  0  0  0
  151.2857  144.1977  158.5960 C   0  0  0  0  0  0  0  0  0  0  0  0
  152.8260  145.7532  161.2556 H   0  0  0  0  0  0  0  0  0  0  0  0
  151.1996  146.1199  160.6711 H   0  0  0  0  0  0  0  0  0  0  0  0
  152.6059  146.4862  159.6631 H   0  0  0  0  0  0  0  0  0  0  0  0
  153.4262  143.4102  161.1375 H   0  0  0  0  0  0  0  0  0  0  0  0
  153.1894  141.1913  160.0048 H   0  0  0  0  0  0  0  0  0  0  0  0
  149.9325  143.6773  156.5835 H   0  0  0  0  0  0  0  0  0  0  0  0
  148.9779  142.9854  155.0061 H   0  0  0  0  0  0  0  0  0  0  0  0
  149.3679  141.2470  153.1633 H   0  0  0  0  0  0  0  0  0  0  0  0
  149.0979  140.0795  154.4309 H   0  0  0  0  0  0  0  0  0  0  0  0
  147.0029  140.3752  153.1055 H   0  0  0  0  0  0  0  0  0  0  0  0
  147.1470  143.3491  154.0264 H   0  0  0  0  0  0  0  0  0  0  0  0
  145.8014  142.5590  153.0532 H   0  0  0  0  0  0  0  0  0  0  0  0
  145.4146  140.9191  154.9228 H   0  0  0  0  0  0  0  0  0  0  0  0
  146.7608  141.7119  155.8938 H   0  0  0  0  0  0  0  0  0  0  0  0
  150.7348  145.0250  158.1719 H   0  0  0  0  0  0  0  0  0  0  0  0
  1  2  1  0  0  0  0
  1 16  1  0  0  0  0
  1 17  1  0  0  0  0
  1 18  1  0  0  0  0
  2 15  1  0  0  0  0
  2  3  2  0  0  0  0
  3  4  1  0  0  0  0
  3 19  1  0  0  0  0
  4  5  2  0  0  0  0
  4 20  1  0  0  0  0
  5  6  1  0  0  0  0
  6  7  1  0  0  0  0
  6 15  2  0  0  0  0
  7  8  1  0  0  0  0
  7 21  1  0  0  0  0
  8  9  2  0  0  0  0
  8 10  1  0  0  0  0
 10 11  1  0  0  0  0
 10 22  1  0  0  0  0
 11 12  1  0  0  0  0
 11 23  1  0  0  0  0
 11 24  1  0  0  0  0
 12 14  1  0  0  0  0
 12 13  1  0  0  0  0
 12 25  1  0  0  0  0
 13 14  1  0  0  0  0
 13 26  1  0  0  0  0
 13 27  1  0  0  0  0
 14 28  1  0  0  0  0
 14 29  1  0  0  0  0
 15 30  1  0  0  0  0
M  END
> <s_m_source_file>
AV-unprocessed.smi

> <i_m_source_file_index>
2381

> <i_lp_mmshare_version>
43012

> <i_f3d_flags>
0

> <s_epik_input>
W0NIM11jMVtjSF1bY0hdbmMoW2NIXTEpW05IXUMoPU8pW05IXVtDSDJdW0NIXTJbQ0gyXVtDSDJdMg==

> <s_epik_cmdline>
J2VwaWtfcHl0aG9uJywgJy1waCcsICc3LjAnLCAnLXRuJywgJzgnLCAnLW1hJywgJzIwMCcsICctbWV0YWxfYmluZGluZycsICctaW1hZScsICc8aW5maWxlLm1hZT4nLCAnLW9tYWUnLCAnPG91dGZpbGUubWFlPic=

> <r_lp_tautomer_probability>
1

> <r_epik_Ionization_Penalty>
9.40607e-05

> <r_epik_Ionization_Penalty_Charging>
0

> <r_epik_Ionization_Penalty_Neutral>
9.40607e-05

> <r_epik_State_Penalty>
-0

> <r_epik_Charging_Adjusted_Penalty>
0

> <i_epik_Tot_Q>
0

> <i_epik_Tot_abs_Q>
0

> <r_epik_Metal_State_Penalty>
-0

> <b_epik_Metal_Only>
0

> <s_lp_Force_Field>
OPLS_2005

> <r_lp_Energy>
14.347

> <b_lp_Chiralities_Consistent>
1

> <s_lp_Variant>
AV-unprocessed.smi:2381-1

> <Gold.Version>
5.8.1

> <Gold.Id.Protein>
6NUR|6NUR_protein|mol2

> <Gold.PLP.Fitness>
42.9240

> <Gold.PLP.PLP>
-37.0705

> <Gold.PLP.part.hbond>
-2.0000

> <Gold.PLP.part.metal>
0.0000

> <Gold.PLP.part.buried>
-5.6126

> <Gold.PLP.part.nonpolar>
-29.7896

> <Gold.PLP.part.repulsive>
0.2576

> <Gold.PLP.ligand.clash>
0.0000

> <Gold.PLP.ligand.torsion>
0.3411

> <Gold.PLP.Chemscore.Hbond>
2.0000

> <Gold.PLP.Chemscore.CHOScore>
0.0000

> <Gold.PLP.Chemscore.Metal>
0.0000

> <Gold.Chemscore.Hbonds>
donor molecule, donor type, donor heavy atom, donor atom, acceptor molecule, acceptor atom, score
      L1  H     7    21       P1  8028  1.00
      L1  H    10    22       P1  8028  1.00

> <Gold.PLP.Chemscore.Internal.Correction>
0.5357

> <Gold.Rescore>
     Score         DG    S(hbond)    S(metal)    S(lipo)     H(rot)  DE(clash)    DE(int)     intcor
     17.33     -18.98       1.94        0.00      86.21       1.20       0.04       1.61       ----

> <Gold.Chemscore.Fitness>
17.3268

> <Gold.Chemscore.DG>
-18.9758

> <Gold.Chemscore.ZeroCoef>
-5.4800

> <Gold.Chemscore.Hbond>
1.9377

> <Gold.Chemscore.Metal>
0.0000

> <Gold.Chemscore.Lipo>
86.2056

> <Gold.Chemscore.Internal_Hbond>
0.0000

> <Gold.Chemscore.DEClash>
0.0423

> <Gold.Chemscore.DEInternal>
1.6067

> <Gold.Chemscore.Rot>
1.1962

> <Gold.Chemscore.Internal.Correction>
   9.000000E+99

> <Gold.Chemscore.Hbonds>
donor molecule, donor type, donor heavy atom, donor atom, acceptor molecule, acceptor atom, score
      L1  H     7    21       P1  8028  0.99
      L1  H    10    22       P1  8028  0.95

> <Gold.Chemscore.Hbond.Weighted>
-6.4719

> <Gold.Chemscore.Metal.Weighted>
-0.0000

> <Gold.Chemscore.Lipo.Weighted>
-10.0861

> <Gold.Chemscore.Internal_Hbond.Weighted>
0.0000

> <Gold.Chemscore.DEClash.Weighted>
0.0423

> <Gold.Chemscore.DEInternal.Weighted>
1.6067

> <Gold.Chemscore.Rot.Weighted>
3.0622

> <Gold.Chemscore.Internal.Correction.Weighted>
   9.000000E+99

> <Gold.Protein.RotatedTorsions>
[ 6907 6896 6895 6894 ] final  157.55 input  -60.11 | X-H torsion
[ 7974 7965 7964 7962 ] final  152.27 input  175.53 | X-H torsion
[ 8008 7997 7996 7995 ] final  -99.28 input   59.86 | X-H torsion
[ 10167 10162 10161 10158 ] final   27.47 input  -65.29 | X-H torsion
[ 10718 10713 10712 10709 ] final  -52.56 input   66.30 | X-H torsion
[ 10763 10752 10751 10750 ] final -130.67 input  -60.55 | X-H torsion
[ 11005 11000 10999 10996 ] final  162.61 input  -57.11 | X-H torsion

> <Gold.Protein.ActiveResidues>
 VAL166  LYS551  ARG553  GLY616  TRP617  ASP618  TYR619  PRO620  LYS621  CYS622 
 ASP623  PHE694  ASN695  SER759  ASP760  ASP761  ALA762  ILE779  LEU786  VAL792 
 PHE793  MET794  SER795  GLU796  ALA797  LYS798  CYS799  TRP800  GLU811  SER814 

> <Gold.Protein.RotatedAtoms>
  152.0135  133.3870  159.4228 H   0  0  0  0  0  0  0  0  0  0  0  0  # atno 6907 bound_to 6896
  150.6897  134.3704  159.4999 H   0  0  0  0  0  0  0  0  0  0  0  0  # atno 6908 bound_to 6896
  152.1468  134.9019  160.0601 H   0  0  0  0  0  0  0  0  0  0  0  0  # atno 6909 bound_to 6896
  144.8234  139.6647  143.6091 H   0  0  0  0  0  0  0  0  0  0  0  0  # atno 7974 bound_to 7965
  154.8126  140.0449  157.1353 H   0  0  0  0  0  0  0  0  0  0  0  0  # atno 8008 bound_to 7997
  154.9351  140.3045  155.5128 H   0  0  0  0  0  0  0  0  0  0  0  0  # atno 8009 bound_to 7997
  156.2973  140.2316  156.4414 H   0  0  0  0  0  0  0  0  0  0  0  0  # atno 8010 bound_to 7997
  140.4935  144.0428  150.6306 H   0  0  0  0  0  0  0  0  0  0  0  0  # atno 10167 bound_to 10162
  156.1611  130.4149  149.9791 H   0  0  0  0  0  0  0  0  0  0  0  0  # atno 10718 bound_to 10713
  154.8754  135.3855  154.4120 H   0  0  0  0  0  0  0  0  0  0  0  0  # atno 10763 bound_to 10752
  153.4833  135.7030  153.5931 H   0  0  0  0  0  0  0  0  0  0  0  0  # atno 10764 bound_to 10752
  153.4336  135.3872  155.2153 H   0  0  0  0  0  0  0  0  0  0  0  0  # atno 10765 bound_to 10752
  140.2275  134.8149  157.3283 H   0  0  0  0  0  0  0  0  0  0  0  0  # atno 11005 bound_to 11000
  146.2539  139.6260  142.9408 LP  0  0  0  0  0  0  0  0  0  0  0  0  # atno 17320 bound_to 7965
  145.5055  141.0437  143.2517 LP  0  0  0  0  0  0  0  0  0  0  0  0  # atno 17321 bound_to 7965
  140.3704  143.2857  152.0284 LP  0  0  0  0  0  0  0  0  0  0  0  0  # atno 17342 bound_to 10162
  139.4856  144.6234  151.7211 LP  0  0  0  0  0  0  0  0  0  0  0  0  # atno 17343 bound_to 10162
  156.7620  130.9154  151.3641 LP  0  0  0  0  0  0  0  0  0  0  0  0  # atno 17370 bound_to 10713
  157.6733  130.9071  150.0091 LP  0  0  0  0  0  0  0  0  0  0  0  0  # atno 17371 bound_to 10713
  140.1785  134.4519  155.7786 LP  0  0  0  0  0  0  0  0  0  0  0  0  # atno 17394 bound_to 11000
  141.2220  133.6973  156.7829 LP  0  0  0  0  0  0  0  0  0  0  0  0  # atno 17395 bound_to 11000

$$$$
