AV-unprocessed.smi:2973|AV-procd|sdf|11350|dock8
  -GOLD-   2272016263D 1   1.00000     0.00000
 Structure written by MMmdl.
 49 51  0  0  0  0  0  0  0  0  3 V2000
  152.4496  138.0907  159.1495 C   0  0  0  0  0  0  0  0  0  0  0  0
  151.9893  139.5578  159.2946 C   0  0  1  0  0  0  0  0  0  0  0  0
  153.1055  140.4234  159.9188 C   0  0  0  0  0  0  0  0  0  0  0  0
  152.6360  141.8629  160.1756 C   0  0  0  0  0  0  0  0  0  0  0  0
  152.1204  142.5151  158.8863 C   0  0  0  0  0  0  0  0  0  0  0  0
  150.9997  141.6762  158.2484 C   0  0  0  0  0  0  0  0  0  0  0  0
  151.4241  140.2067  157.9892 C   0  0  1  0  0  0  0  0  0  0  0  0
  152.3798  140.1480  156.8943 N   0  5  0  0  0  0  0  0  0  0  0  0
  151.8301  139.4641  155.8645 C   0  0  0  0  0  0  0  0  0  0  0  0
  152.3472  139.2403  154.7709 O   0  0  0  0  0  0  0  0  0  0  0  0
  150.5884  139.0436  156.1726 N   0  0  0  0  0  0  0  0  0  0  0  0
  149.6895  138.3151  155.2636 C   0  0  0  0  0  0  0  0  0  0  0  0
  148.5721  139.1739  154.6444 C   0  0  0  0  0  0  0  0  0  0  0  0
  148.4108  140.3269  155.0437 O   0  0  0  0  0  0  0  0  0  0  0  0
  147.8182  138.6314  153.6729 N   0  0  0  0  0  0  0  0  0  0  0  0
  146.7518  139.3115  152.9513 C   0  0  0  0  0  0  0  0  0  0  0  0
  146.3229  138.5136  151.7092 C   0  0  0  0  0  0  0  0  0  0  0  0
  145.2867  137.4565  152.0345 C   0  0  0  0  0  0  0  0  0  0  0  0
  145.4204  136.1170  151.6095 C   0  0  0  0  0  0  0  0  0  0  0  0
  144.4197  135.1831  151.9509 C   0  0  0  0  0  0  0  0  0  0  0  0
  143.3096  135.6074  152.7103 C   0  0  0  0  0  0  0  0  0  0  0  0
  143.2272  136.9574  153.1086 C   0  0  0  0  0  0  0  0  0  0  0  0
  144.2057  137.8218  152.7610 N   0  3  0  0  0  0  0  0  0  0  0  0
  150.2521  139.4287  157.4089 C   0  0  0  0  0  0  0  0  0  0  0  0
  149.1872  139.2248  157.9938 O   0  0  0  0  0  0  0  0  0  0  0  0
  153.2804  137.9980  158.4495 H   0  0  0  0  0  0  0  0  0  0  0  0
  151.6453  137.4439  158.7997 H   0  0  0  0  0  0  0  0  0  0  0  0
  152.7851  137.6932  160.1076 H   0  0  0  0  0  0  0  0  0  0  0  0
  151.1733  139.5449  160.0195 H   0  0  0  0  0  0  0  0  0  0  0  0
  153.4362  139.9817  160.8592 H   0  0  0  0  0  0  0  0  0  0  0  0
  153.9777  140.4347  159.2639 H   0  0  0  0  0  0  0  0  0  0  0  0
  151.8455  141.8618  160.9270 H   0  0  0  0  0  0  0  0  0  0  0  0
  153.4549  142.4528  160.5876 H   0  0  0  0  0  0  0  0  0  0  0  0
  151.7547  143.5197  159.0994 H   0  0  0  0  0  0  0  0  0  0  0  0
  152.9430  142.6318  158.1798 H   0  0  0  0  0  0  0  0  0  0  0  0
  150.1365  141.6942  158.9157 H   0  0  0  0  0  0  0  0  0  0  0  0
  150.6706  142.1524  157.3230 H   0  0  0  0  0  0  0  0  0  0  0  0
  150.2621  137.8604  154.4540 H   0  0  0  0  0  0  0  0  0  0  0  0
  149.2279  137.4820  155.7959 H   0  0  0  0  0  0  0  0  0  0  0  0
  148.0111  137.6747  153.4105 H   0  0  0  0  0  0  0  0  0  0  0  0
  145.9062  139.4258  153.6301 H   0  0  0  0  0  0  0  0  0  0  0  0
  147.0700  140.3184  152.6763 H   0  0  0  0  0  0  0  0  0  0  0  0
  145.9131  139.1825  150.9508 H   0  0  0  0  0  0  0  0  0  0  0  0
  147.1926  138.0347  151.2570 H   0  0  0  0  0  0  0  0  0  0  0  0
  146.2786  135.8072  151.0305 H   0  0  0  0  0  0  0  0  0  0  0  0
  144.5031  134.1535  151.6349 H   0  0  0  0  0  0  0  0  0  0  0  0
  142.5326  134.9078  152.9822 H   0  0  0  0  0  0  0  0  0  0  0  0
  142.4147  137.3688  153.6897 H   0  0  0  0  0  0  0  0  0  0  0  0
  144.1268  138.7942  153.0602 H   0  0  0  0  0  0  0  0  0  0  0  0
  1  2  1  0  0  0  0
  1 26  1  0  0  0  0
  1 27  1  0  0  0  0
  1 28  1  0  0  0  0
  2  7  1  0  0  0  0
  2  3  1  0  0  0  0
  2 29  1  0  0  0  0
  3  4  1  0  0  0  0
  3 30  1  0  0  0  0
  3 31  1  0  0  0  0
  4  5  1  0  0  0  0
  4 32  1  0  0  0  0
  4 33  1  0  0  0  0
  5  6  1  0  0  0  0
  5 34  1  0  0  0  0
  5 35  1  0  0  0  0
  6  7  1  0  0  0  0
  6 36  1  0  0  0  0
  6 37  1  0  0  0  0
  7 24  1  0  0  0  0
  7  8  1  0  0  0  0
  8  9  1  0  0  0  0
  9 10  2  0  0  0  0
  9 11  1  0  0  0  0
 11 12  1  0  0  0  0
 11 24  1  0  0  0  0
 12 13  1  0  0  0  0
 12 38  1  0  0  0  0
 12 39  1  0  0  0  0
 13 14  2  0  0  0  0
 13 15  1  0  0  0  0
 15 16  1  0  0  0  0
 15 40  1  0  0  0  0
 16 17  1  0  0  0  0
 16 41  1  0  0  0  0
 16 42  1  0  0  0  0
 17 18  1  0  0  0  0
 17 43  1  0  0  0  0
 17 44  1  0  0  0  0
 18 23  1  0  0  0  0
 18 19  2  0  0  0  0
 19 20  1  0  0  0  0
 19 45  1  0  0  0  0
 20 21  2  0  0  0  0
 20 46  1  0  0  0  0
 21 22  1  0  0  0  0
 21 47  1  0  0  0  0
 22 23  2  0  0  0  0
 22 48  1  0  0  0  0
 23 49  1  0  0  0  0
 24 25  2  0  0  0  0
M  CHG  1   8  -1
M  CHG  1  23   1
M  END
> <s_m_source_file>
AV-unprocessed.smi

> <i_m_source_file_index>
2973

> <i_lp_mmshare_version>
43012

> <i_f3d_flags>
0

> <s_epik_input>
W0NIMl0xW0NIMl1bQ0gyXVtDSDJdW0NAQEhdKFtDSDNdKVtDQF0xMltOSF1DKD1PKU4oQzI9TylbQ0gyXUMoPU8pW05IXVtDSDJdW0NIMl1jM1tjSF1bY0hdW2NIXVtjSF1uMw==

> <s_epik_cmdline>
J2VwaWtfcHl0aG9uJywgJy1waCcsICc3LjAnLCAnLXRuJywgJzgnLCAnLW1hJywgJzIwMCcsICctbWV0YWxfYmluZGluZycsICctaW1hZScsICc8aW5maWxlLm1hZT4nLCAnLW9tYWUnLCAnPG91dGZpbGUubWFlPic=

> <r_lp_tautomer_probability>
1

> <r_epik_Ionization_Penalty>
7.89073

> <r_epik_Ionization_Penalty_Charging>
7.89073

> <r_epik_Ionization_Penalty_Neutral>
1.56557e-07

> <r_epik_State_Penalty>
8.01193

> <r_epik_Charging_Adjusted_Penalty>
15.9027

> <i_epik_Tot_Q>
0

> <i_epik_Tot_abs_Q>
2

> <r_epik_Metal_State_Penalty>
3.98737

> <b_epik_Metal_Only>
1

> <s_lp_Force_Field>
OPLS_2005

> <r_lp_Energy>
20.3817

> <b_lp_Chiralities_Consistent>
1

> <s_lp_Variant>
AV-unprocessed.smi:2973-14

> <Gold.Version>
5.8.1

> <Gold.Id.Protein>
6NUR|6NUR_protein|mol2

> <Gold.PLP.Fitness>
59.0393

> <Gold.PLP.PLP>
-43.7182

> <Gold.PLP.part.hbond>
-6.0000

> <Gold.PLP.part.metal>
0.0000

> <Gold.PLP.part.buried>
2.9879

> <Gold.PLP.part.nonpolar>
-40.6176

> <Gold.PLP.part.repulsive>
0.1855

> <Gold.PLP.ligand.clash>
0.0000

> <Gold.PLP.ligand.torsion>
0.5879

> <Gold.PLP.Chemscore.Hbond>
5.4865

> <Gold.PLP.Chemscore.CHOScore>
0.0000

> <Gold.PLP.Chemscore.Metal>
0.0000

> <Gold.Chemscore.Hbonds>
donor molecule, donor type, donor heavy atom, donor atom, acceptor molecule, acceptor atom, score
      L1  H    15    40       P1  7948  0.29
      L1  H    23    49       P1 10175  1.66
      P1  H  7989  7998       L1    10  0.50
      P1  H  7997  8008       L1     8  2.00

> <Gold.PLP.Chemscore.Internal.Correction>
0.0373

> <Gold.Rescore>
     Score         DG    S(hbond)    S(metal)    S(lipo)     H(rot)  DE(clash)    DE(int)     intcor
     16.77     -17.65       1.95        0.00      90.22       1.92       0.17       0.71       ----

> <Gold.Chemscore.Fitness>
16.7667

> <Gold.Chemscore.DG>
-17.6509

> <Gold.Chemscore.ZeroCoef>
-5.4800

> <Gold.Chemscore.Hbond>
1.9533

> <Gold.Chemscore.Metal>
0.0000

> <Gold.Chemscore.Lipo>
90.2200

> <Gold.Chemscore.Internal_Hbond>
0.0000

> <Gold.Chemscore.DEClash>
0.1719

> <Gold.Chemscore.DEInternal>
0.7123

> <Gold.Chemscore.Rot>
1.9175

> <Gold.Chemscore.Internal.Correction>
   9.000000E+99

> <Gold.Chemscore.Hbonds>
donor molecule, donor type, donor heavy atom, donor atom, acceptor molecule, acceptor atom, score
      L1  H    15    40       P1  7948  0.28
      L1  H    23    49       P1 10175  0.83
      P1  H  7989  7998       L1    10  0.25
      P1  H  7997  8008       L1     8  0.59

> <Gold.Chemscore.Hbond.Weighted>
-6.5239

> <Gold.Chemscore.Metal.Weighted>
-0.0000

> <Gold.Chemscore.Lipo.Weighted>
-10.5557

> <Gold.Chemscore.Internal_Hbond.Weighted>
0.0000

> <Gold.Chemscore.DEClash.Weighted>
0.1719

> <Gold.Chemscore.DEInternal.Weighted>
0.7123

> <Gold.Chemscore.Rot.Weighted>
4.9087

> <Gold.Chemscore.Internal.Correction.Weighted>
   9.000000E+99

> <Gold.Protein.RotatedTorsions>
[ 6907 6896 6895 6894 ] final  111.02 input  -60.11 | X-H torsion
[ 7974 7965 7964 7962 ] final   90.08 input  175.53 | X-H torsion
[ 8008 7997 7996 7995 ] final  -63.56 input   59.86 | X-H torsion
[ 10167 10162 10161 10158 ] final   33.69 input  -65.29 | X-H torsion
[ 10718 10713 10712 10709 ] final   61.58 input   66.30 | X-H torsion
[ 10763 10752 10751 10750 ] final    4.39 input  -60.55 | X-H torsion
[ 11005 11000 10999 10996 ] final  179.53 input  -57.11 | X-H torsion

> <Gold.Protein.ActiveResidues>
 VAL166  LYS551  ARG553  GLY616  TRP617  ASP618  TYR619  PRO620  LYS621  CYS622 
 ASP623  PHE694  ASN695  SER759  ASP760  ASP761  ALA762  ILE779  LEU786  VAL792 
 PHE793  MET794  SER795  GLU796  ALA797  LYS798  CYS799  TRP800  GLU811  SER814 

> <Gold.Protein.RotatedAtoms>
  152.4990  133.8717  159.7301 H   0  0  0  0  0  0  0  0  0  0  0  0  # atno 6907 bound_to 6896
  150.9202  133.6881  159.2840 H   0  0  0  0  0  0  0  0  0  0  0  0  # atno 6908 bound_to 6896
  151.4261  135.1008  159.9681 H   0  0  0  0  0  0  0  0  0  0  0  0  # atno 6909 bound_to 6896
  145.5237  139.2280  143.2657 H   0  0  0  0  0  0  0  0  0  0  0  0  # atno 7974 bound_to 7965
  154.4561  140.0972  156.6761 H   0  0  0  0  0  0  0  0  0  0  0  0  # atno 8008 bound_to 7997
  155.5134  140.3477  155.4374 H   0  0  0  0  0  0  0  0  0  0  0  0  # atno 8009 bound_to 7997
  156.0780  140.1366  156.9737 H   0  0  0  0  0  0  0  0  0  0  0  0  # atno 8010 bound_to 7997
  140.4384  144.1223  150.6170 H   0  0  0  0  0  0  0  0  0  0  0  0  # atno 10167 bound_to 10162
  157.5839  130.9003  149.9479 H   0  0  0  0  0  0  0  0  0  0  0  0  # atno 10718 bound_to 10713
  153.2719  135.6933  153.7472 H   0  0  0  0  0  0  0  0  0  0  0  0  # atno 10763 bound_to 10752
  153.6492  135.3379  155.3096 H   0  0  0  0  0  0  0  0  0  0  0  0  # atno 10764 bound_to 10752
  154.8466  135.4450  154.1744 H   0  0  0  0  0  0  0  0  0  0  0  0  # atno 10765 bound_to 10752
  140.4072  134.6724  157.4594 H   0  0  0  0  0  0  0  0  0  0  0  0  # atno 11005 bound_to 11000
  146.2089  140.6051  142.9068 LP  0  0  0  0  0  0  0  0  0  0  0  0  # atno 17320 bound_to 7965
  144.7662  140.5536  143.6701 LP  0  0  0  0  0  0  0  0  0  0  0  0  # atno 17321 bound_to 7965
  140.4347  143.2553  151.9551 LP  0  0  0  0  0  0  0  0  0  0  0  0  # atno 17342 bound_to 10162
  139.4788  144.5711  151.8086 LP  0  0  0  0  0  0  0  0  0  0  0  0  # atno 17343 bound_to 10162
  156.0886  130.3665  150.0439 LP  0  0  0  0  0  0  0  0  0  0  0  0  # atno 17370 bound_to 10713
  156.8573  130.9479  151.3621 LP  0  0  0  0  0  0  0  0  0  0  0  0  # atno 17371 bound_to 10713
  140.0293  134.6430  155.9128 LP  0  0  0  0  0  0  0  0  0  0  0  0  # atno 17394 bound_to 11000
  141.1835  133.6551  156.5117 LP  0  0  0  0  0  0  0  0  0  0  0  0  # atno 17395 bound_to 11000

$$$$
