AV-unprocessed.smi:1940|AV-procd|sdf|7844|dock1
  -GOLD-   22720 9583D 1   1.00000     0.00000
 Structure written by MMmdl.
 50 52  0  0  0  0  0  0  0  0  2 V2000
  144.5089  137.2148  152.9069 C   0  0  0  0  0  0  0  0  0  0  0  0
  145.5647  137.2814  151.7894 C   0  0  1  0  0  0  0  0  0  0  0  0
  146.8657  137.6202  152.3606 N   0  0  0  0  0  0  0  0  0  0  0  0
  147.1070  138.6425  153.1932 C   0  0  0  0  0  0  0  0  0  0  0  0
  146.2349  139.4132  153.5927 O   0  0  0  0  0  0  0  0  0  0  0  0
  148.4117  138.7114  153.5094 N   0  0  0  0  0  0  0  0  0  0  0  0
  149.0744  139.6359  154.3621 C   0  0  0  0  0  0  0  0  0  0  0  0
  150.2405  139.1978  155.0228 C   0  0  0  0  0  0  0  0  0  0  0  0
  150.9293  140.0714  155.8887 C   0  0  0  0  0  0  0  0  0  0  0  0
  150.4423  141.3860  156.1001 C   0  0  0  0  0  0  0  0  0  0  0  0
  151.0685  142.3338  156.9414 N   0  0  0  0  0  0  0  0  0  0  0  0
  151.0035  143.7337  156.5083 C   0  0  0  0  0  0  0  0  0  0  0  0
  152.0499  144.5975  157.2326 C   0  0  0  0  0  0  0  0  0  0  0  0
  151.9418  144.4386  158.7553 C   0  0  0  0  0  0  0  0  0  0  0  0
  152.0574  142.9556  159.1322 C   0  0  0  0  0  0  0  0  0  0  0  0
  151.0111  142.1090  158.3874 C   0  0  0  0  0  0  0  0  0  0  0  0
  149.3120  141.7561  155.4505 N   0  3  0  0  0  0  0  0  0  0  0  0
  148.6221  140.9533  154.6118 C   0  0  0  0  0  0  0  0  0  0  0  0
  145.6848  135.9524  151.0189 C   0  0  1  0  0  0  0  0  0  0  0  0
  146.1562  134.7657  151.8602 C   0  0  0  0  0  0  0  0  0  0  0  0
  145.6234  133.5969  151.0646 C   0  0  0  0  0  0  0  0  0  0  0  0
  144.2762  134.1294  150.5865 C   0  0  0  0  0  0  0  0  0  0  0  0
  144.4106  135.5471  150.5220 O   0  0  0  0  0  0  0  0  0  0  0  0
  143.5176  137.0069  152.5049 H   0  0  0  0  0  0  0  0  0  0  0  0
  144.4442  138.1596  153.4476 H   0  0  0  0  0  0  0  0  0  0  0  0
  144.7451  136.4337  153.6300 H   0  0  0  0  0  0  0  0  0  0  0  0
  145.2753  138.0599  151.0808 H   0  0  0  0  0  0  0  0  0  0  0  0
  147.6438  137.0428  152.0774 H   0  0  0  0  0  0  0  0  0  0  0  0
  149.0107  138.0420  153.0490 H   0  0  0  0  0  0  0  0  0  0  0  0
  150.6120  138.1952  154.8676 H   0  0  0  0  0  0  0  0  0  0  0  0
  151.8166  139.7071  156.3836 H   0  0  0  0  0  0  0  0  0  0  0  0
  151.1615  143.8318  155.4345 H   0  0  0  0  0  0  0  0  0  0  0  0
  150.0022  144.1139  156.7140 H   0  0  0  0  0  0  0  0  0  0  0  0
  153.0502  144.3101  156.9056 H   0  0  0  0  0  0  0  0  0  0  0  0
  151.9237  145.6447  156.9564 H   0  0  0  0  0  0  0  0  0  0  0  0
  152.7223  145.0162  159.2514 H   0  0  0  0  0  0  0  0  0  0  0  0
  150.9873  144.8360  159.1030 H   0  0  0  0  0  0  0  0  0  0  0  0
  153.0577  142.5956  158.8883 H   0  0  0  0  0  0  0  0  0  0  0  0
  151.9385  142.8319  160.2088 H   0  0  0  0  0  0  0  0  0  0  0  0
  150.0094  142.3492  158.7462 H   0  0  0  0  0  0  0  0  0  0  0  0
  151.1970  141.0591  158.6152 H   0  0  0  0  0  0  0  0  0  0  0  0
  147.7363  141.4014  154.1881 H   0  0  0  0  0  0  0  0  0  0  0  0
  146.3521  136.0694  150.1631 H   0  0  0  0  0  0  0  0  0  0  0  0
  147.2388  134.7345  151.9860 H   0  0  0  0  0  0  0  0  0  0  0  0
  145.6955  134.7856  152.8489 H   0  0  0  0  0  0  0  0  0  0  0  0
  146.2739  133.3991  150.2116 H   0  0  0  0  0  0  0  0  0  0  0  0
  145.5372  132.6810  151.6497 H   0  0  0  0  0  0  0  0  0  0  0  0
  143.9878  133.7132  149.6210 H   0  0  0  0  0  0  0  0  0  0  0  0
  143.4927  133.8895  151.3060 H   0  0  0  0  0  0  0  0  0  0  0  0
  148.9596  142.7015  155.6019 H   0  0  0  0  0  0  0  0  0  0  0  0
  1  2  1  0  0  0  0
  1 24  1  0  0  0  0
  1 25  1  0  0  0  0
  1 26  1  0  0  0  0
  2  3  1  0  0  0  0
  2 19  1  0  0  0  0
  2 27  1  0  0  0  0
  3  4  1  0  0  0  0
  3 28  1  0  0  0  0
  4  5  2  0  0  0  0
  4  6  1  0  0  0  0
  6  7  1  0  0  0  0
  6 29  1  0  0  0  0
  7 18  1  0  0  0  0
  7  8  2  0  0  0  0
  8  9  1  0  0  0  0
  8 30  1  0  0  0  0
  9 10  2  0  0  0  0
  9 31  1  0  0  0  0
 10 11  1  0  0  0  0
 10 17  1  0  0  0  0
 11 16  1  0  0  0  0
 11 12  1  0  0  0  0
 12 13  1  0  0  0  0
 12 32  1  0  0  0  0
 12 33  1  0  0  0  0
 13 14  1  0  0  0  0
 13 34  1  0  0  0  0
 13 35  1  0  0  0  0
 14 15  1  0  0  0  0
 14 36  1  0  0  0  0
 14 37  1  0  0  0  0
 15 16  1  0  0  0  0
 15 38  1  0  0  0  0
 15 39  1  0  0  0  0
 16 40  1  0  0  0  0
 16 41  1  0  0  0  0
 17 18  2  0  0  0  0
 17 50  1  0  0  0  0
 18 42  1  0  0  0  0
 19 23  1  0  0  0  0
 19 20  1  0  0  0  0
 19 43  1  0  0  0  0
 20 21  1  0  0  0  0
 20 44  1  0  0  0  0
 20 45  1  0  0  0  0
 21 22  1  0  0  0  0
 21 46  1  0  0  0  0
 21 47  1  0  0  0  0
 22 23  1  0  0  0  0
 22 48  1  0  0  0  0
 22 49  1  0  0  0  0
M  CHG  1  17   1
M  END
> <s_m_source_file>
AV-unprocessed.smi

> <i_m_source_file_index>
1940

> <i_lp_mmshare_version>
43012

> <i_f3d_flags>
0

> <s_epik_input>
TzFbQ0gyXVtDSDJdW0NIMl1bQ0BIXTFbQ0BIXShbQ0gzXSlbTkhdQyg9TylbTkhdYzJbY0hdW2NIXWMobltjSF0yKU4zW0NIMl1bQ0gyXVtDSDJdW0NIMl1bQ0gyXTM=

> <s_epik_cmdline>
J2VwaWtfcHl0aG9uJywgJy1waCcsICc3LjAnLCAnLXRuJywgJzgnLCAnLW1hJywgJzIwMCcsICctbWV0YWxfYmluZGluZycsICctaW1hZScsICc8aW5maWxlLm1hZT4nLCAnLW9tYWUnLCAnPG91dGZpbGUubWFlPic=

> <r_lp_tautomer_probability>
0.999994

> <r_epik_Ionization_Penalty>
1.10603

> <r_epik_Ionization_Penalty_Charging>
1.10601

> <r_epik_Ionization_Penalty_Neutral>
1.929e-05

> <r_epik_State_Penalty>
1.16358

> <r_epik_Charging_Adjusted_Penalty>
2.26959

> <i_epik_Tot_Q>
1

> <i_epik_Tot_abs_Q>
1

> <r_epik_Metal_State_Penalty>
1.25013

> <b_epik_Metal_Only>
0

> <s_lp_Force_Field>
OPLS_2005

> <r_lp_Energy>
39.2756

> <b_lp_Chiralities_Consistent>
1

> <s_lp_Variant>
AV-unprocessed.smi:1940-8

> <Gold.Version>
5.8.1

> <Gold.Id.Protein>
6NUR|6NUR_protein|mol2

> <Gold.PLP.Fitness>
51.5320

> <Gold.PLP.PLP>
-42.6485

> <Gold.PLP.part.hbond>
-4.0000

> <Gold.PLP.part.metal>
0.0000

> <Gold.PLP.part.buried>
-0.6078

> <Gold.PLP.part.nonpolar>
-42.2820

> <Gold.PLP.part.repulsive>
1.4780

> <Gold.PLP.ligand.clash>
0.0000

> <Gold.PLP.ligand.torsion>
1.1588

> <Gold.PLP.Chemscore.Hbond>
3.6283

> <Gold.PLP.Chemscore.CHOScore>
0.0000

> <Gold.PLP.Chemscore.Metal>
0.0000

> <Gold.Chemscore.Hbonds>
donor molecule, donor type, donor heavy atom, donor atom, acceptor molecule, acceptor atom, score
      L1  H     3    28       P1  7948  1.00
      L1  H     6    29       P1  7948  0.63
      L1  H    17    50       P1  8028  2.00

> <Gold.PLP.Chemscore.Internal.Correction>
0.3160

> <Gold.Rescore>
     Score         DG    S(hbond)    S(metal)    S(lipo)     H(rot)  DE(clash)    DE(int)     intcor
     18.99     -24.61       2.54        0.00     116.85       1.18       2.67       2.94       ----

> <Gold.Chemscore.Fitness>
18.9948

> <Gold.Chemscore.DG>
-24.6092

> <Gold.Chemscore.ZeroCoef>
-5.4800

> <Gold.Chemscore.Hbond>
2.5375

> <Gold.Chemscore.Metal>
0.0000

> <Gold.Chemscore.Lipo>
116.8473

> <Gold.Chemscore.Internal_Hbond>
0.0000

> <Gold.Chemscore.DEClash>
2.6720

> <Gold.Chemscore.DEInternal>
2.9423

> <Gold.Chemscore.Rot>
1.1786

> <Gold.Chemscore.Internal.Correction>
   9.000000E+99

> <Gold.Chemscore.Hbonds>
donor molecule, donor type, donor heavy atom, donor atom, acceptor molecule, acceptor atom, score
      L1  H     3    28       P1  7948  0.93
      L1  H     6    29       P1  7948  0.62
      L1  H    17    50       P1  8028  0.94

> <Gold.Chemscore.Hbond.Weighted>
-8.4754

> <Gold.Chemscore.Metal.Weighted>
-0.0000

> <Gold.Chemscore.Lipo.Weighted>
-13.6711

> <Gold.Chemscore.Internal_Hbond.Weighted>
0.0000

> <Gold.Chemscore.DEClash.Weighted>
2.6720

> <Gold.Chemscore.DEInternal.Weighted>
2.9423

> <Gold.Chemscore.Rot.Weighted>
3.0173

> <Gold.Chemscore.Internal.Correction.Weighted>
   9.000000E+99

> <Gold.Protein.RotatedTorsions>
[ 6907 6896 6895 6894 ] final -157.12 input  -60.11 | X-H torsion
[ 7974 7965 7964 7962 ] final  -95.22 input  175.53 | X-H torsion
[ 8008 7997 7996 7995 ] final   35.36 input   59.86 | X-H torsion
[ 10167 10162 10161 10158 ] final  145.63 input  -65.29 | X-H torsion
[ 10718 10713 10712 10709 ] final  -31.55 input   66.30 | X-H torsion
[ 10763 10752 10751 10750 ] final   98.53 input  -60.55 | X-H torsion
[ 11005 11000 10999 10996 ] final -123.85 input  -57.11 | X-H torsion

> <Gold.Protein.ActiveResidues>
 VAL166  LYS551  ARG553  GLY616  TRP617  ASP618  TYR619  PRO620  LYS621  CYS622 
 ASP623  PHE694  ASN695  SER759  ASP760  ASP761  ALA762  ILE779  LEU786  VAL792 
 PHE793  MET794  SER795  GLU796  ALA797  LYS798  CYS799  TRP800  GLU811  SER814 

> <Gold.Protein.RotatedAtoms>
  151.2981  133.4135  159.2637 H   0  0  0  0  0  0  0  0  0  0  0  0  # atno 6907 bound_to 6896
  151.0219  134.9476  159.8074 H   0  0  0  0  0  0  0  0  0  0  0  0  # atno 6908 bound_to 6896
  152.5326  134.2944  159.9107 H   0  0  0  0  0  0  0  0  0  0  0  0  # atno 6909 bound_to 6896
  145.3629  140.9494  143.2490 H   0  0  0  0  0  0  0  0  0  0  0  0  # atno 7974 bound_to 7965
  155.1697  140.3290  155.4395 H   0  0  0  0  0  0  0  0  0  0  0  0  # atno 8008 bound_to 7997
  156.2514  140.1945  156.6752 H   0  0  0  0  0  0  0  0  0  0  0  0  # atno 8009 bound_to 7997
  154.6346  140.0578  156.9759 H   0  0  0  0  0  0  0  0  0  0  0  0  # atno 8010 bound_to 7997
  139.4922  144.5887  151.6724 H   0  0  0  0  0  0  0  0  0  0  0  0  # atno 10167 bound_to 10162
  156.3859  130.4364  149.7432 H   0  0  0  0  0  0  0  0  0  0  0  0  # atno 10718 bound_to 10713
  153.2902  135.4145  155.1160 H   0  0  0  0  0  0  0  0  0  0  0  0  # atno 10763 bound_to 10752
  154.8518  135.3516  154.5991 H   0  0  0  0  0  0  0  0  0  0  0  0  # atno 10764 bound_to 10752
  153.6414  135.7056  153.5298 H   0  0  0  0  0  0  0  0  0  0  0  0  # atno 10765 bound_to 10752
  140.9887  134.0570  157.3680 H   0  0  0  0  0  0  0  0  0  0  0  0  # atno 11005 bound_to 11000
  144.8633  139.5145  143.6802 LP  0  0  0  0  0  0  0  0  0  0  0  0  # atno 17320 bound_to 7965
  146.2919  139.7165  142.9154 LP  0  0  0  0  0  0  0  0  0  0  0  0  # atno 17321 bound_to 7965
  140.5509  144.0426  150.6127 LP  0  0  0  0  0  0  0  0  0  0  0  0  # atno 17342 bound_to 10162
  140.3480  143.2980  152.0518 LP  0  0  0  0  0  0  0  0  0  0  0  0  # atno 17343 bound_to 10162
  156.4505  130.7904  151.2925 LP  0  0  0  0  0  0  0  0  0  0  0  0  # atno 17370 bound_to 10713
  157.7496  131.0097  150.3277 LP  0  0  0  0  0  0  0  0  0  0  0  0  # atno 17371 bound_to 10713
  139.8982  135.0153  156.7138 LP  0  0  0  0  0  0  0  0  0  0  0  0  # atno 17394 bound_to 11000
  140.7074  133.9253  155.8062 LP  0  0  0  0  0  0  0  0  0  0  0  0  # atno 17395 bound_to 11000

$$$$
