AV-unprocessed.smi:1323|AV-procd|sdf|5468|dock2
  -GOLD-   22720 5 33D 1   1.00000     0.00000
 Structure written by MMmdl.
 45 46  0  0  0  0  0  0  0  0  1 V2000
  152.9584  142.4416  161.0573 C   0  0  0  0  0  0  0  0  0  0  0  0
  151.9595  143.1402  160.1211 C   0  0  1  0  0  0  0  0  0  0  0  0
  152.3262  144.6281  159.9469 C   0  0  0  0  0  0  0  0  0  0  0  0
  151.3501  145.3513  159.0064 C   0  0  0  0  0  0  0  0  0  0  0  0
  151.2863  144.6540  157.6411 C   0  0  0  0  0  0  0  0  0  0  0  0
  150.9086  143.1759  157.8013 C   0  0  0  0  0  0  0  0  0  0  0  0
  151.8732  142.4323  158.7501 C   0  0  2  0  0  0  0  0  0  0  0  0
  151.3709  141.1193  158.9622 O   0  0  0  0  0  0  0  0  0  0  0  0
  151.0281  140.4233  157.7723 C   0  0  0  0  0  0  0  0  0  0  0  0
  151.0802  138.9117  158.0470 C   0  0  0  0  0  0  0  0  0  0  0  0
  149.7455  138.3460  158.2240 N   0  0  0  0  0  0  0  0  0  0  0  0
  149.4076  137.4214  159.1361 C   0  0  0  0  0  0  0  0  0  0  0  0
  150.1904  136.9863  159.9805 O   0  0  0  0  0  0  0  0  0  0  0  0
  147.9603  136.9171  159.0965 C   0  0  0  0  0  0  0  0  0  0  0  0
  147.7287  135.8389  160.0720 N   0  0  0  0  0  0  0  0  0  0  0  0
  147.7079  134.5229  159.5671 C   0  0  0  0  0  0  0  0  0  0  0  0
  147.5230  133.4579  160.3631 C   0  0  0  0  0  0  0  0  0  0  0  0
  147.3451  133.6857  161.7772 C   0  0  0  0  0  0  0  0  0  0  0  0
  147.3574  134.9397  162.2708 C   0  0  0  0  0  0  0  0  0  0  0  0
  147.5474  136.1077  161.4028 C   0  0  0  0  0  0  0  0  0  0  0  0
  147.5442  137.2559  161.8467 O   0  0  0  0  0  0  0  0  0  0  0  0
  153.9628  142.4380  160.6327 H   0  0  0  0  0  0  0  0  0  0  0  0
  152.6724  141.4059  161.2417 H   0  0  0  0  0  0  0  0  0  0  0  0
  153.0077  142.9436  162.0238 H   0  0  0  0  0  0  0  0  0  0  0  0
  150.9751  143.0930  160.5897 H   0  0  0  0  0  0  0  0  0  0  0  0
  152.3322  145.1263  160.9170 H   0  0  0  0  0  0  0  0  0  0  0  0
  153.3390  144.7140  159.5509 H   0  0  0  0  0  0  0  0  0  0  0  0
  150.3557  145.3729  159.4545 H   0  0  0  0  0  0  0  0  0  0  0  0
  151.6553  146.3903  158.8794 H   0  0  0  0  0  0  0  0  0  0  0  0
  150.5603  145.1552  157.0003 H   0  0  0  0  0  0  0  0  0  0  0  0
  152.2519  144.7340  157.1401 H   0  0  0  0  0  0  0  0  0  0  0  0
  149.8977  143.1076  158.2000 H   0  0  0  0  0  0  0  0  0  0  0  0
  150.8819  142.7011  156.8206 H   0  0  0  0  0  0  0  0  0  0  0  0
  152.8728  142.3928  158.3122 H   0  0  0  0  0  0  0  0  0  0  0  0
  150.0383  140.7007  157.4095 H   0  0  0  0  0  0  0  0  0  0  0  0
  151.7339  140.6943  156.9863 H   0  0  0  0  0  0  0  0  0  0  0  0
  151.5943  138.3963  157.2346 H   0  0  0  0  0  0  0  0  0  0  0  0
  151.6554  138.7202  158.9532 H   0  0  0  0  0  0  0  0  0  0  0  0
  149.0350  138.6516  157.5751 H   0  0  0  0  0  0  0  0  0  0  0  0
  147.2900  137.7560  159.2909 H   0  0  0  0  0  0  0  0  0  0  0  0
  147.7129  136.5876  158.0860 H   0  0  0  0  0  0  0  0  0  0  0  0
  147.8598  134.4361  158.5011 H   0  0  0  0  0  0  0  0  0  0  0  0
  147.5162  132.4568  159.9580 H   0  0  0  0  0  0  0  0  0  0  0  0
  147.2045  132.8469  162.4429 H   0  0  0  0  0  0  0  0  0  0  0  0
  147.2251  135.0910  163.3321 H   0  0  0  0  0  0  0  0  0  0  0  0
  1  2  1  0  0  0  0
  1 22  1  0  0  0  0
  1 23  1  0  0  0  0
  1 24  1  0  0  0  0
  2  7  1  0  0  0  0
  2  3  1  0  0  0  0
  2 25  1  0  0  0  0
  3  4  1  0  0  0  0
  3 26  1  0  0  0  0
  3 27  1  0  0  0  0
  4  5  1  0  0  0  0
  4 28  1  0  0  0  0
  4 29  1  0  0  0  0
  5  6  1  0  0  0  0
  5 30  1  0  0  0  0
  5 31  1  0  0  0  0
  6  7  1  0  0  0  0
  6 32  1  0  0  0  0
  6 33  1  0  0  0  0
  7  8  1  0  0  0  0
  7 34  1  0  0  0  0
  8  9  1  0  0  0  0
  9 10  1  0  0  0  0
  9 35  1  0  0  0  0
  9 36  1  0  0  0  0
 10 11  1  0  0  0  0
 10 37  1  0  0  0  0
 10 38  1  0  0  0  0
 11 12  1  0  0  0  0
 11 39  1  0  0  0  0
 12 13  2  0  0  0  0
 12 14  1  0  0  0  0
 14 15  1  0  0  0  0
 14 40  1  0  0  0  0
 14 41  1  0  0  0  0
 15 20  1  0  0  0  0
 15 16  1  0  0  0  0
 16 17  2  0  0  0  0
 16 42  1  0  0  0  0
 17 18  1  0  0  0  0
 17 43  1  0  0  0  0
 18 19  2  0  0  0  0
 18 44  1  0  0  0  0
 19 20  1  0  0  0  0
 19 45  1  0  0  0  0
 20 21  2  0  0  0  0
M  END
> <s_m_source_file>
AV-unprocessed.smi

> <i_m_source_file_index>
1323

> <i_lp_mmshare_version>
43012

> <i_f3d_flags>
0

> <s_epik_input>
W0NIM11bQ0BASF0xW0NIMl1bQ0gyXVtDSDJdW0NIMl1bQ0BIXTFPW0NIMl1bQ0gyXVtOSF1DKD1PKVtDSDJdbjJbY0hdW2NIXVtjSF1bY0hdYzI9Tw==

> <s_epik_cmdline>
J2VwaWtfcHl0aG9uJywgJy1waCcsICc3LjAnLCAnLXRuJywgJzgnLCAnLW1hJywgJzIwMCcsICctbWV0YWxfYmluZGluZycsICctaW1hZScsICc8aW5maWxlLm1hZT4nLCAnLW9tYWUnLCAnPG91dGZpbGUubWFlPic=

> <r_lp_tautomer_probability>
1

> <r_epik_Ionization_Penalty>
4.02412e-07

> <r_epik_Ionization_Penalty_Charging>
3.74552e-07

> <r_epik_Ionization_Penalty_Neutral>
2.78599e-08

> <r_epik_State_Penalty>
-0

> <r_epik_Charging_Adjusted_Penalty>
3.74552e-07

> <i_epik_Tot_Q>
0

> <i_epik_Tot_abs_Q>
0

> <r_epik_Metal_State_Penalty>
-0

> <b_epik_Metal_Only>
0

> <s_lp_Force_Field>
OPLS_2005

> <r_lp_Energy>
20.2591

> <b_lp_Chiralities_Consistent>
1

> <s_lp_Variant>
AV-unprocessed.smi:1323-4

> <Gold.Version>
5.8.1

> <Gold.Id.Protein>
6NUR|6NUR_protein|mol2

> <Gold.PLP.Fitness>
53.9926

> <Gold.PLP.PLP>
-47.6092

> <Gold.PLP.part.hbond>
-3.9413

> <Gold.PLP.part.metal>
0.0000

> <Gold.PLP.part.buried>
-4.2972

> <Gold.PLP.part.nonpolar>
-39.7009

> <Gold.PLP.part.repulsive>
0.1269

> <Gold.PLP.ligand.clash>
0.0000

> <Gold.PLP.ligand.torsion>
0.8887

> <Gold.PLP.Chemscore.Hbond>
2.6960

> <Gold.PLP.Chemscore.CHOScore>
0.0000

> <Gold.PLP.Chemscore.Metal>
0.0000

> <Gold.Chemscore.Hbonds>
donor molecule, donor type, donor heavy atom, donor atom, acceptor molecule, acceptor atom, score
      P1  H  6896  6908       L1    13  0.76
      P1  H  6931  6943       L1    21  0.93
      P1  H  6934  6947       L1    21  0.70

> <Gold.PLP.Chemscore.Internal.Correction>
0.0728

> <Gold.Rescore>
     Score         DG    S(hbond)    S(metal)    S(lipo)     H(rot)  DE(clash)    DE(int)     intcor
     22.25     -23.06       2.73        0.00     114.93       1.94       0.01       0.81       ----

> <Gold.Chemscore.Fitness>
22.2451

> <Gold.Chemscore.DG>
-23.0646

> <Gold.Chemscore.ZeroCoef>
-5.4800

> <Gold.Chemscore.Hbond>
2.7256

> <Gold.Chemscore.Metal>
0.0000

> <Gold.Chemscore.Lipo>
114.9306

> <Gold.Chemscore.Internal_Hbond>
0.0000

> <Gold.Chemscore.DEClash>
0.0137

> <Gold.Chemscore.DEInternal>
0.8058

> <Gold.Chemscore.Rot>
1.9398

> <Gold.Chemscore.Internal.Correction>
   9.000000E+99

> <Gold.Chemscore.Hbonds>
donor molecule, donor type, donor heavy atom, donor atom, acceptor molecule, acceptor atom, score
      P1  H  6896  6908       L1    13  0.77
      P1  H  6931  6943       L1    21  0.89
      P1  H  6934  6947       L1    21  0.67

> <Gold.Chemscore.Hbond.Weighted>
-9.1036

> <Gold.Chemscore.Metal.Weighted>
-0.0000

> <Gold.Chemscore.Lipo.Weighted>
-13.4469

> <Gold.Chemscore.Internal_Hbond.Weighted>
0.0000

> <Gold.Chemscore.DEClash.Weighted>
0.0137

> <Gold.Chemscore.DEInternal.Weighted>
0.8058

> <Gold.Chemscore.Rot.Weighted>
4.9659

> <Gold.Chemscore.Internal.Correction.Weighted>
   9.000000E+99

> <Gold.Protein.RotatedTorsions>
[ 6907 6896 6895 6894 ] final -143.26 input  -60.11 | X-H torsion
[ 7974 7965 7964 7962 ] final  -23.21 input  175.53 | X-H torsion
[ 8008 7997 7996 7995 ] final  -32.25 input   59.86 | X-H torsion
[ 10167 10162 10161 10158 ] final   -0.79 input  -65.29 | X-H torsion
[ 10718 10713 10712 10709 ] final -148.73 input   66.30 | X-H torsion
[ 10763 10752 10751 10750 ] final  -58.72 input  -60.55 | X-H torsion
[ 11005 11000 10999 10996 ] final  -96.70 input  -57.11 | X-H torsion

> <Gold.Protein.ActiveResidues>
 VAL166  LYS551  ARG553  GLY616  TRP617  ASP618  TYR619  PRO620  LYS621  CYS622 
 ASP623  PHE694  ASN695  SER759  ASP760  ASP761  ALA762  ILE779  LEU786  VAL792 
 PHE793  MET794  SER795  GLU796  ALA797  LYS798  CYS799  TRP800  GLU811  SER814 

> <Gold.Protein.RotatedAtoms>
  151.0981  133.5264  159.2611 H   0  0  0  0  0  0  0  0  0  0  0  0  # atno 6907 bound_to 6896
  151.2105  135.0479  159.8919 H   0  0  0  0  0  0  0  0  0  0  0  0  # atno 6908 bound_to 6896
  152.5440  134.0797  159.8284 H   0  0  0  0  0  0  0  0  0  0  0  0  # atno 6909 bound_to 6896
  146.1630  140.4585  142.8563 H   0  0  0  0  0  0  0  0  0  0  0  0  # atno 7974 bound_to 7965
  154.4186  140.1742  156.1697 H   0  0  0  0  0  0  0  0  0  0  0  0  # atno 8008 bound_to 7997
  155.9771  140.3381  155.6604 H   0  0  0  0  0  0  0  0  0  0  0  0  # atno 8009 bound_to 7997
  155.6550  140.0694  157.2565 H   0  0  0  0  0  0  0  0  0  0  0  0  # atno 8010 bound_to 7997
  140.6782  143.6852  150.8072 H   0  0  0  0  0  0  0  0  0  0  0  0  # atno 10167 bound_to 10162
  156.4240  130.8042  151.2267 H   0  0  0  0  0  0  0  0  0  0  0  0  # atno 10718 bound_to 10713
  154.2425  135.6341  153.5212 H   0  0  0  0  0  0  0  0  0  0  0  0  # atno 10763 bound_to 10752
  152.9927  135.5545  154.5895 H   0  0  0  0  0  0  0  0  0  0  0  0  # atno 10764 bound_to 10752
  154.5404  135.2894  155.1075 H   0  0  0  0  0  0  0  0  0  0  0  0  # atno 10765 bound_to 10752
  141.1403  133.8117  157.0607 H   0  0  0  0  0  0  0  0  0  0  0  0  # atno 11005 bound_to 11000
  144.8053  140.6288  143.6451 LP  0  0  0  0  0  0  0  0  0  0  0  0  # atno 17320 bound_to 7965
  145.4540  139.1520  143.3902 LP  0  0  0  0  0  0  0  0  0  0  0  0  # atno 17321 bound_to 7965
  140.0549  143.5213  152.2656 LP  0  0  0  0  0  0  0  0  0  0  0  0  # atno 17342 bound_to 10162
  139.6088  144.7603  151.3000 LP  0  0  0  0  0  0  0  0  0  0  0  0  # atno 17343 bound_to 10162
  157.7508  131.0219  150.3770 LP  0  0  0  0  0  0  0  0  0  0  0  0  # atno 17370 bound_to 10713
  156.4094  130.3931  149.6902 LP  0  0  0  0  0  0  0  0  0  0  0  0  # atno 17371 bound_to 10713
  140.0573  134.9773  157.1243 LP  0  0  0  0  0  0  0  0  0  0  0  0  # atno 17394 bound_to 11000
  140.3900  134.2195  155.7166 LP  0  0  0  0  0  0  0  0  0  0  0  0  # atno 17395 bound_to 11000

$$$$
