AV-unprocessed.smi:810|AV-procd|sdf|3809|dock3
  -GOLD-   22720 1253D 1   1.00000     0.00000
 Structure written by MMmdl.
 34 35  0  0  0  0  0  0  0  0  1 V2000
  150.0073  140.8951  157.5970 O   0  0  0  0  0  0  0  0  0  0  0  0
  149.6493  141.9579  157.0901 C   0  0  0  0  0  0  0  0  0  0  0  0
  149.9671  143.1818  157.5451 N   0  0  0  0  0  0  0  0  0  0  0  0
  150.7708  143.5279  158.6649 C   0  0  0  0  0  0  0  0  0  0  0  0
  151.7851  142.7004  159.2050 C   0  0  0  0  0  0  0  0  0  0  0  0
  152.5249  143.1657  160.3092 C   0  0  0  0  0  0  0  0  0  0  0  0
  152.2300  144.4413  160.8279 C   0  0  0  0  0  0  0  0  0  0  0  0
  151.2762  145.2464  160.3143 N   0  0  0  0  0  0  0  0  0  0  0  0
  150.5714  144.7940  159.2555 C   0  0  0  0  0  0  0  0  0  0  0  0
  148.8626  142.0346  156.0072 N   0  0  0  0  0  0  0  0  0  0  0  0
  148.3092  140.8950  155.2795 C   0  0  2  0  0  0  0  0  0  0  0  0
  149.4146  140.2362  154.4316 C   0  0  0  0  0  0  0  0  0  0  0  0
  149.2321  138.7206  154.2461 C   0  0  0  0  0  0  0  0  0  0  0  0
  150.2880  138.2059  153.4640 O   0  0  0  0  0  0  0  0  0  0  0  0
  147.1178  141.2706  154.4143 C   0  0  0  0  0  0  0  0  0  0  0  0
  146.8449  142.7062  154.0324 C   0  0  0  0  0  0  0  0  0  0  0  0
  145.9277  141.9934  154.9997 C   0  0  0  0  0  0  0  0  0  0  0  0
  149.5303  143.9585  157.0706 H   0  0  0  0  0  0  0  0  0  0  0  0
  152.0190  141.7320  158.7914 H   0  0  0  0  0  0  0  0  0  0  0  0
  153.3040  142.5591  160.7466 H   0  0  0  0  0  0  0  0  0  0  0  0
  152.7789  144.8277  161.6740 H   0  0  0  0  0  0  0  0  0  0  0  0
  149.8183  145.4656  158.8696 H   0  0  0  0  0  0  0  0  0  0  0  0
  148.6159  142.9517  155.6653 H   0  0  0  0  0  0  0  0  0  0  0  0
  147.9698  140.1490  156.0013 H   0  0  0  0  0  0  0  0  0  0  0  0
  149.4340  140.7071  153.4476 H   0  0  0  0  0  0  0  0  0  0  0  0
  150.3887  140.4356  154.8807 H   0  0  0  0  0  0  0  0  0  0  0  0
  149.2231  138.2027  155.2055 H   0  0  0  0  0  0  0  0  0  0  0  0
  148.2855  138.5060  153.7494 H   0  0  0  0  0  0  0  0  0  0  0  0
  149.9198  137.6963  152.7583 H   0  0  0  0  0  0  0  0  0  0  0  0
  146.8844  140.5276  153.6538 H   0  0  0  0  0  0  0  0  0  0  0  0
  147.5004  143.4746  154.4378 H   0  0  0  0  0  0  0  0  0  0  0  0
  146.4712  142.8950  153.0282 H   0  0  0  0  0  0  0  0  0  0  0  0
  144.9407  141.7088  154.6412 H   0  0  0  0  0  0  0  0  0  0  0  0
  145.9768  142.2889  156.0460 H   0  0  0  0  0  0  0  0  0  0  0  0
  1  2  2  0  0  0  0
  2  3  1  0  0  0  0
  2 10  1  0  0  0  0
  3  4  1  0  0  0  0
  3 18  1  0  0  0  0
  4  9  1  0  0  0  0
  4  5  2  0  0  0  0
  5  6  1  0  0  0  0
  5 19  1  0  0  0  0
  6  7  2  0  0  0  0
  6 20  1  0  0  0  0
  7  8  1  0  0  0  0
  7 21  1  0  0  0  0
  8  9  2  0  0  0  0
  9 22  1  0  0  0  0
 10 11  1  0  0  0  0
 10 23  1  0  0  0  0
 11 12  1  0  0  0  0
 11 15  1  0  0  0  0
 11 24  1  0  0  0  0
 12 13  1  0  0  0  0
 12 25  1  0  0  0  0
 12 26  1  0  0  0  0
 13 14  1  0  0  0  0
 13 27  1  0  0  0  0
 13 28  1  0  0  0  0
 14 29  1  0  0  0  0
 15 17  1  0  0  0  0
 15 16  1  0  0  0  0
 15 30  1  0  0  0  0
 16 17  1  0  0  0  0
 16 31  1  0  0  0  0
 16 32  1  0  0  0  0
 17 33  1  0  0  0  0
 17 34  1  0  0  0  0
M  END
> <s_m_source_file>
AV-unprocessed.smi

> <i_m_source_file_index>
810

> <i_lp_mmshare_version>
43012

> <i_f3d_flags>
0

> <s_epik_input>
W09IXVtDSDJdW0NIMl1bQ0BIXShbQ0hdMVtDSDJdW0NIMl0xKVtOSF1DKD1PKVtOSF1jMltjSF1bY0hdW2NIXW5bY0hdMg==

> <s_epik_cmdline>
J2VwaWtfcHl0aG9uJywgJy1waCcsICc3LjAnLCAnLXRuJywgJzgnLCAnLW1hJywgJzIwMCcsICctbWV0YWxfYmluZGluZycsICctaW1hZScsICc8aW5maWxlLm1hZT4nLCAnLW9tYWUnLCAnPG91dGZpbGUubWFlPic=

> <r_epik_Ionization_Penalty>
0.00486911

> <r_epik_Ionization_Penalty_Charging>
0

> <r_epik_Ionization_Penalty_Neutral>
0.00486911

> <r_epik_State_Penalty>
0.00350304

> <r_epik_Charging_Adjusted_Penalty>
0.00350304

> <i_epik_Tot_Q>
0

> <i_epik_Tot_abs_Q>
0

> <r_epik_Metal_State_Penalty>
-0

> <b_epik_Metal_Only>
0

> <s_lp_Force_Field>
OPLS_2005

> <r_lp_Energy>
17.5915

> <b_lp_Chiralities_Consistent>
1

> <s_lp_Variant>
AV-unprocessed.smi:810-1

> <Gold.Version>
5.8.1

> <Gold.Id.Protein>
6NUR|6NUR_protein|mol2

> <Gold.PLP.Fitness>
44.9795

> <Gold.PLP.PLP>
-34.5486

> <Gold.PLP.part.hbond>
-4.7240

> <Gold.PLP.part.metal>
0.0000

> <Gold.PLP.part.buried>
-5.3724

> <Gold.PLP.part.nonpolar>
-25.2619

> <Gold.PLP.part.repulsive>
0.3227

> <Gold.PLP.ligand.clash>
0.0000

> <Gold.PLP.ligand.torsion>
1.3359

> <Gold.PLP.Chemscore.Hbond>
3.0000

> <Gold.PLP.Chemscore.CHOScore>
1.0000

> <Gold.PLP.Chemscore.Metal>
0.0000

> <Gold.Chemscore.Hbonds>
donor molecule, donor type, donor heavy atom, donor atom, acceptor molecule, acceptor atom, score
      L1  H     3    18       P1  8028  1.00
      L1  H    10    23       P1  8028  1.00
      L1  H    14    29       P1  7948  0.95
      L1  C     9    22       P1  8029  1.00

> <Gold.PLP.Chemscore.Internal.Correction>
1.1027

> <Gold.Rescore>
     Score         DG    S(hbond)    S(metal)    S(lipo)     H(rot)  DE(clash)    DE(int)     intcor
     17.64     -19.18       2.80        0.00      87.60       2.31       0.13       1.41       ----

> <Gold.Chemscore.Fitness>
17.6445

> <Gold.Chemscore.DG>
-19.1781

> <Gold.Chemscore.ZeroCoef>
-5.4800

> <Gold.Chemscore.Hbond>
2.8029

> <Gold.Chemscore.Metal>
0.0000

> <Gold.Chemscore.Lipo>
87.5990

> <Gold.Chemscore.Internal_Hbond>
0.0000

> <Gold.Chemscore.DEClash>
0.1280

> <Gold.Chemscore.DEInternal>
1.4056

> <Gold.Chemscore.Rot>
2.3097

> <Gold.Chemscore.Internal.Correction>
   9.000000E+99

> <Gold.Chemscore.Hbonds>
donor molecule, donor type, donor heavy atom, donor atom, acceptor molecule, acceptor atom, score
      L1  H     3    18       P1  8028  0.68
      L1  H    10    23       P1  8028  0.95
      L1  H    14    29       P1  7948  0.21

> <Gold.Chemscore.Hbond.Weighted>
-9.3617

> <Gold.Chemscore.Metal.Weighted>
-0.0000

> <Gold.Chemscore.Lipo.Weighted>
-10.2491

> <Gold.Chemscore.Internal_Hbond.Weighted>
0.0000

> <Gold.Chemscore.DEClash.Weighted>
0.1280

> <Gold.Chemscore.DEInternal.Weighted>
1.4056

> <Gold.Chemscore.Rot.Weighted>
5.9127

> <Gold.Chemscore.Internal.Correction.Weighted>
   9.000000E+99

> <Gold.Protein.RotatedTorsions>
[ 6907 6896 6895 6894 ] final  -24.86 input  -60.11 | X-H torsion
[ 7974 7965 7964 7962 ] final   51.65 input  175.53 | X-H torsion
[ 8008 7997 7996 7995 ] final   25.91 input   59.86 | X-H torsion
[ 10167 10162 10161 10158 ] final  105.89 input  -65.29 | X-H torsion
[ 10718 10713 10712 10709 ] final  100.92 input   66.30 | X-H torsion
[ 10763 10752 10751 10750 ] final  -86.60 input  -60.55 | X-H torsion
[ 11005 11000 10999 10996 ] final  -83.29 input  -57.11 | X-H torsion

> <Gold.Protein.ActiveResidues>
 VAL166  LYS551  ARG553  GLY616  TRP617  ASP618  TYR619  PRO620  LYS621  CYS622 
 ASP623  PHE694  ASN695  SER759  ASP760  ASP761  ALA762  ILE779  LEU786  VAL792 
 PHE793  MET794  SER795  GLU796  ALA797  LYS798  CYS799  TRP800  GLU811  SER814 

> <Gold.Protein.RotatedAtoms>
  151.1835  135.0371  159.8802 H   0  0  0  0  0  0  0  0  0  0  0  0  # atno 6907 bound_to 6896
  152.5443  134.1036  159.8338 H   0  0  0  0  0  0  0  0  0  0  0  0  # atno 6908 bound_to 6896
  151.1156  133.5094  159.2636 H   0  0  0  0  0  0  0  0  0  0  0  0  # atno 6909 bound_to 6896
  145.9892  139.4321  143.0084 H   0  0  0  0  0  0  0  0  0  0  0  0  # atno 7974 bound_to 7965
  155.0190  140.3145  155.4800 H   0  0  0  0  0  0  0  0  0  0  0  0  # atno 8008 bound_to 7997
  156.2895  140.2201  156.5249 H   0  0  0  0  0  0  0  0  0  0  0  0  # atno 8009 bound_to 7997
  154.7468  140.0469  157.0847 H   0  0  0  0  0  0  0  0  0  0  0  0  # atno 8010 bound_to 7997
  139.7054  144.7087  151.1115 H   0  0  0  0  0  0  0  0  0  0  0  0  # atno 10167 bound_to 10162
  157.6842  131.0712  150.5174 H   0  0  0  0  0  0  0  0  0  0  0  0  # atno 10718 bound_to 10713
  154.6243  135.5443  153.7609 H   0  0  0  0  0  0  0  0  0  0  0  0  # atno 10763 bound_to 10752
  153.0253  135.6420  154.1395 H   0  0  0  0  0  0  0  0  0  0  0  0  # atno 10764 bound_to 10752
  154.1328  135.2913  155.3161 H   0  0  0  0  0  0  0  0  0  0  0  0  # atno 10765 bound_to 10752
  141.1658  133.7287  156.8698 H   0  0  0  0  0  0  0  0  0  0  0  0  # atno 11005 bound_to 11000
  145.7655  140.9918  143.1177 LP  0  0  0  0  0  0  0  0  0  0  0  0  # atno 17320 bound_to 7965
  144.6884  139.9383  143.7474 LP  0  0  0  0  0  0  0  0  0  0  0  0  # atno 17321 bound_to 7965
  140.7720  143.5365  150.9362 LP  0  0  0  0  0  0  0  0  0  0  0  0  # atno 17342 bound_to 10162
  139.9048  143.6791  152.3125 LP  0  0  0  0  0  0  0  0  0  0  0  0  # atno 17343 bound_to 10162
  156.5488  130.4226  149.6118 LP  0  0  0  0  0  0  0  0  0  0  0  0  # atno 17370 bound_to 10713
  156.2920  130.7129  151.1981 LP  0  0  0  0  0  0  0  0  0  0  0  0  # atno 17371 bound_to 10713
  140.1790  134.9047  157.2925 LP  0  0  0  0  0  0  0  0  0  0  0  0  # atno 17394 bound_to 11000
  140.2417  134.3788  155.7478 LP  0  0  0  0  0  0  0  0  0  0  0  0  # atno 17395 bound_to 11000

$$$$
