AV-unprocessed.smi:209|AV-procd|sdf|1610|dock5
  -GOLD-   2262019533D 1   1.00000     0.00000
 Structure written by MMmdl.
 48 52  0  0  0  0  0  0  0  0  1 V2000
  151.1980  139.7682  154.6881 O   0  0  0  0  0  0  0  0  0  0  0  0
  150.1488  139.2882  155.1123 C   0  0  0  0  0  0  0  0  0  0  0  0
  149.9816  138.0447  155.5597 N   0  0  0  0  0  0  0  0  0  0  0  0
  148.6040  137.7457  155.9125 C   0  0  0  0  0  0  0  0  0  0  0  0
  147.7871  138.9245  155.3272 C   0  0  1  0  0  0  0  0  0  0  0  0
  148.8403  140.0559  155.2345 C   0  0  2  0  0  0  0  0  0  0  0  0
  148.5714  141.1292  154.1586 C   0  0  0  0  0  0  0  0  0  0  0  0
  148.0730  140.5201  152.8454 C   0  0  0  0  0  0  0  0  0  0  0  0
  146.8525  139.6357  153.1158 C   0  0  0  0  0  0  0  0  0  0  0  0
  147.2066  138.5486  154.0243 N   0  0  0  0  0  0  0  0  0  0  0  0
  146.2838  137.5523  154.0074 C   0  0  0  0  0  0  0  0  0  0  0  0
  145.6640  137.1754  155.1577 N   0  0  0  0  0  0  0  0  0  0  0  0
  144.7451  136.2056  155.1413 C   0  0  0  0  0  0  0  0  0  0  0  0
  144.3032  135.4925  154.1036 N   0  0  0  0  0  0  0  0  0  0  0  0
  144.9262  135.8618  152.9479 C   0  0  0  0  0  0  0  0  0  0  0  0
  145.9181  136.8731  152.8121 C   0  0  0  0  0  0  0  0  0  0  0  0
  146.3235  136.9638  151.4864 N   0  0  0  0  0  0  0  0  0  0  0  0
  145.6063  136.0627  150.8720 C   0  0  0  0  0  0  0  0  0  0  0  0
  144.7461  135.3471  151.6752 N   0  0  0  0  0  0  0  0  0  0  0  0
  143.8293  134.2957  151.2586 C   0  0  0  0  0  0  0  0  0  0  0  0
  144.5147  132.9861  150.8183 C   0  0  0  0  0  0  0  0  0  0  0  0
  145.7751  132.7709  151.6803 C   0  0  0  0  0  0  0  0  0  0  0  0
  146.3322  131.4815  151.5208 O   0  0  0  0  0  0  0  0  0  0  0  0
  143.5477  131.7993  150.6865 C   0  0  0  0  0  0  0  0  0  0  0  0
  143.5640  131.8692  149.2438 O   0  0  0  0  0  0  0  0  0  0  0  0
  144.6712  132.7954  149.3020 C   0  0  0  0  0  0  0  0  0  0  0  0
  146.9880  139.2203  156.0082 H   0  0  0  0  0  0  0  0  0  0  0  0
  148.8970  140.5584  156.2012 H   0  0  0  0  0  0  0  0  0  0  0  0
  150.7128  137.3487  155.5830 H   0  0  0  0  0  0  0  0  0  0  0  0
  148.3095  136.7639  155.5409 H   0  0  0  0  0  0  0  0  0  0  0  0
  148.5228  137.7269  156.9997 H   0  0  0  0  0  0  0  0  0  0  0  0
  147.8168  141.8210  154.5347 H   0  0  0  0  0  0  0  0  0  0  0  0
  149.4635  141.7301  153.9787 H   0  0  0  0  0  0  0  0  0  0  0  0
  147.8121  141.3128  152.1437 H   0  0  0  0  0  0  0  0  0  0  0  0
  148.8635  139.9330  152.3762 H   0  0  0  0  0  0  0  0  0  0  0  0
  146.0479  140.2252  153.5576 H   0  0  0  0  0  0  0  0  0  0  0  0
  146.4763  139.2498  152.1680 H   0  0  0  0  0  0  0  0  0  0  0  0
  144.2999  135.9672  156.0958 H   0  0  0  0  0  0  0  0  0  0  0  0
  145.6853  135.8992  149.8072 H   0  0  0  0  0  0  0  0  0  0  0  0
  143.1360  134.1033  152.0785 H   0  0  0  0  0  0  0  0  0  0  0  0
  143.2177  134.6947  150.4480 H   0  0  0  0  0  0  0  0  0  0  0  0
  146.5548  133.4882  151.4242 H   0  0  0  0  0  0  0  0  0  0  0  0
  145.5487  132.9108  152.7377 H   0  0  0  0  0  0  0  0  0  0  0  0
  147.2085  131.5725  151.1789 H   0  0  0  0  0  0  0  0  0  0  0  0
  143.9360  130.8467  151.0490 H   0  0  0  0  0  0  0  0  0  0  0  0
  142.5564  131.9880  151.1002 H   0  0  0  0  0  0  0  0  0  0  0  0
  144.4886  133.6923  148.7116 H   0  0  0  0  0  0  0  0  0  0  0  0
  145.6079  132.3241  149.0013 H   0  0  0  0  0  0  0  0  0  0  0  0
  1  2  2  0  0  0  0
  2  6  1  0  0  0  0
  2  3  1  0  0  0  0
  3  4  1  0  0  0  0
  3 29  1  0  0  0  0
  4  5  1  0  0  0  0
  4 30  1  0  0  0  0
  4 31  1  0  0  0  0
  5 27  1  0  0  0  0
  5 10  1  0  0  0  0
  5  6  1  0  0  0  0
  6 28  1  0  0  0  0
  6  7  1  0  0  0  0
  7  8  1  0  0  0  0
  7 32  1  0  0  0  0
  7 33  1  0  0  0  0
  8  9  1  0  0  0  0
  8 34  1  0  0  0  0
  8 35  1  0  0  0  0
  9 10  1  0  0  0  0
  9 36  1  0  0  0  0
  9 37  1  0  0  0  0
 10 11  1  0  0  0  0
 11 16  1  0  0  0  0
 11 12  2  0  0  0  0
 12 13  1  0  0  0  0
 13 14  2  0  0  0  0
 13 38  1  0  0  0  0
 14 15  1  0  0  0  0
 15 19  1  0  0  0  0
 15 16  2  0  0  0  0
 16 17  1  0  0  0  0
 17 18  2  0  0  0  0
 18 19  1  0  0  0  0
 18 39  1  0  0  0  0
 19 20  1  0  0  0  0
 20 21  1  0  0  0  0
 20 40  1  0  0  0  0
 20 41  1  0  0  0  0
 21 26  1  0  0  0  0
 21 22  1  0  0  0  0
 21 24  1  0  0  0  0
 22 23  1  0  0  0  0
 22 42  1  0  0  0  0
 22 43  1  0  0  0  0
 23 44  1  0  0  0  0
 24 25  1  0  0  0  0
 24 45  1  0  0  0  0
 24 46  1  0  0  0  0
 25 26  1  0  0  0  0
 26 47  1  0  0  0  0
 26 48  1  0  0  0  0
M  END
> <s_m_source_file>
AV-unprocessed.smi

> <i_m_source_file_index>
209

> <i_lp_mmshare_version>
43012

> <i_f3d_flags>
0

> <s_epik_input>
W0NIMl0xW05IXUMoPU8pW0NAQEhdKFtDQEBIXTEyKVtDSDJdW0NIMl1bQ0gyXU4yYyhuW2NIXW4zKWMoYzM0KW5bY0hdbjRbQ0gyXUM1KFtDSDJdW09IXSlbQ0gyXU9bQ0gyXTU=

> <s_epik_cmdline>
J2VwaWtfcHl0aG9uJywgJy1waCcsICc3LjAnLCAnLXRuJywgJzgnLCAnLW1hJywgJzIwMCcsICctbWV0YWxfYmluZGluZycsICctaW1hZScsICc8aW5maWxlLm1hZT4nLCAnLW9tYWUnLCAnPG91dGZpbGUubWFlPic=

> <r_lp_tautomer_probability>
1

> <r_epik_Ionization_Penalty>
0.00113306

> <r_epik_Ionization_Penalty_Charging>
0

> <r_epik_Ionization_Penalty_Neutral>
0.00113306

> <r_epik_State_Penalty>
0.000624042

> <r_epik_Charging_Adjusted_Penalty>
0.000624042

> <i_epik_Tot_Q>
0

> <i_epik_Tot_abs_Q>
0

> <r_epik_Metal_State_Penalty>
-0

> <b_epik_Metal_Only>
0

> <s_lp_Force_Field>
OPLS_2005

> <r_lp_Energy>
50.5129

> <b_lp_Chiralities_Consistent>
1

> <s_lp_Variant>
AV-unprocessed.smi:209-4

> <Gold.Version>
5.8.1

> <Gold.Id.Protein>
6NUR|6NUR_protein|mol2

> <Gold.PLP.Fitness>
38.7210

> <Gold.PLP.PLP>
-28.0177

> <Gold.PLP.part.hbond>
-3.0000

> <Gold.PLP.part.metal>
0.0000

> <Gold.PLP.part.buried>
-0.3516

> <Gold.PLP.part.nonpolar>
-28.8645

> <Gold.PLP.part.repulsive>
2.9310

> <Gold.PLP.ligand.clash>
0.0000

> <Gold.PLP.ligand.torsion>
0.9064

> <Gold.PLP.Chemscore.Hbond>
2.9360

> <Gold.PLP.Chemscore.CHOScore>
1.0000

> <Gold.PLP.Chemscore.Metal>
0.0000

> <Gold.Chemscore.Hbonds>
donor molecule, donor type, donor heavy atom, donor atom, acceptor molecule, acceptor atom, score
      L1  H    23    44       P1 10747  0.80
      P1  H  7989  7998       L1     1  1.00
      P1  H 10785 10796       L1    25  0.93
      L1  C    18    39       P1  7921  1.00

> <Gold.PLP.Chemscore.Internal.Correction>
0.7081

> <Gold.Rescore>
     Score         DG    S(hbond)    S(metal)    S(lipo)     H(rot)  DE(clash)    DE(int)     intcor
     11.21     -15.86       2.58        0.00      73.38       2.66       3.04       1.61       ----

> <Gold.Chemscore.Fitness>
11.2052

> <Gold.Chemscore.DG>
-15.8572

> <Gold.Chemscore.ZeroCoef>
-5.4800

> <Gold.Chemscore.Hbond>
2.5770

> <Gold.Chemscore.Metal>
0.0000

> <Gold.Chemscore.Lipo>
73.3751

> <Gold.Chemscore.Internal_Hbond>
0.0000

> <Gold.Chemscore.DEClash>
3.0429

> <Gold.Chemscore.DEInternal>
1.6091

> <Gold.Chemscore.Rot>
2.6620

> <Gold.Chemscore.Internal.Correction>
   9.000000E+99

> <Gold.Chemscore.Hbonds>
donor molecule, donor type, donor heavy atom, donor atom, acceptor molecule, acceptor atom, score
      L1  H    23    44       P1 10747  0.77
      P1  H  7989  7998       L1     1  1.00
      P1  H 10785 10796       L1    25  0.36

> <Gold.Chemscore.Hbond.Weighted>
-8.6072

> <Gold.Chemscore.Metal.Weighted>
-0.0000

> <Gold.Chemscore.Lipo.Weighted>
-8.5849

> <Gold.Chemscore.Internal_Hbond.Weighted>
0.0000

> <Gold.Chemscore.DEClash.Weighted>
3.0429

> <Gold.Chemscore.DEInternal.Weighted>
1.6091

> <Gold.Chemscore.Rot.Weighted>
6.8148

> <Gold.Chemscore.Internal.Correction.Weighted>
   9.000000E+99

> <Gold.Protein.RotatedTorsions>
[ 6907 6896 6895 6894 ] final  -93.32 input  -60.11 | X-H torsion
[ 7974 7965 7964 7962 ] final   24.68 input  175.53 | X-H torsion
[ 8008 7997 7996 7995 ] final -159.76 input   59.86 | X-H torsion
[ 10167 10162 10161 10158 ] final  -64.42 input  -65.29 | X-H torsion
[ 10718 10713 10712 10709 ] final  -81.17 input   66.30 | X-H torsion
[ 10763 10752 10751 10750 ] final -178.91 input  -60.55 | X-H torsion
[ 11005 11000 10999 10996 ] final -110.27 input  -57.11 | X-H torsion

> <Gold.Protein.ActiveResidues>
 VAL166  LYS551  ARG553  GLY616  TRP617  ASP618  TYR619  PRO620  LYS621  CYS622 
 ASP623  PHE694  ASN695  SER759  ASP760  ASP761  ALA762  ILE779  LEU786  VAL792 
 PHE793  MET794  SER795  GLU796  ALA797  LYS798  CYS799  TRP800  GLU811  SER814 

> <Gold.Protein.RotatedAtoms>
  150.6920  134.1985  159.4312 H   0  0  0  0  0  0  0  0  0  0  0  0  # atno 6907 bound_to 6896
  151.9952  134.9955  160.0572 H   0  0  0  0  0  0  0  0  0  0  0  0  # atno 6908 bound_to 6896
  152.1630  133.4559  159.4907 H   0  0  0  0  0  0  0  0  0  0  0  0  # atno 6909 bound_to 6896
  146.1926  139.7571  142.8821 H   0  0  0  0  0  0  0  0  0  0  0  0  # atno 7974 bound_to 7965
  155.7674  140.0847  157.2125 H   0  0  0  0  0  0  0  0  0  0  0  0  # atno 8008 bound_to 7997
  154.3999  140.1531  156.2959 H   0  0  0  0  0  0  0  0  0  0  0  0  # atno 8009 bound_to 7997
  155.8781  140.3422  155.5871 H   0  0  0  0  0  0  0  0  0  0  0  0  # atno 8010 bound_to 7997
  140.5802  143.2326  151.6359 H   0  0  0  0  0  0  0  0  0  0  0  0  # atno 10167 bound_to 10162
  156.0055  130.4596  150.3912 H   0  0  0  0  0  0  0  0  0  0  0  0  # atno 10718 bound_to 10713
  154.5418  135.2806  155.1089 H   0  0  0  0  0  0  0  0  0  0  0  0  # atno 10763 bound_to 10752
  154.2568  135.6329  153.5264 H   0  0  0  0  0  0  0  0  0  0  0  0  # atno 10764 bound_to 10752
  152.9981  135.5596  154.5959 H   0  0  0  0  0  0  0  0  0  0  0  0  # atno 10765 bound_to 10752
  141.0801  133.9234  157.2306 H   0  0  0  0  0  0  0  0  0  0  0  0  # atno 11005 bound_to 11000
  145.3746  141.0348  143.3212 LP  0  0  0  0  0  0  0  0  0  0  0  0  # atno 17320 bound_to 7965
  144.8516  139.5313  143.6854 LP  0  0  0  0  0  0  0  0  0  0  0  0  # atno 17321 bound_to 7965
  139.5165  144.3344  152.0797 LP  0  0  0  0  0  0  0  0  0  0  0  0  # atno 17342 bound_to 10162
  140.2493  144.4186  150.6228 LP  0  0  0  0  0  0  0  0  0  0  0  0  # atno 17343 bound_to 10162
  157.1987  131.0433  151.2662 LP  0  0  0  0  0  0  0  0  0  0  0  0  # atno 17370 bound_to 10713
  157.3995  130.7326  149.6757 LP  0  0  0  0  0  0  0  0  0  0  0  0  # atno 17371 bound_to 10713
  139.9615  135.0153  156.9272 LP  0  0  0  0  0  0  0  0  0  0  0  0  # atno 17394 bound_to 11000
  140.5487  134.0648  155.7362 LP  0  0  0  0  0  0  0  0  0  0  0  0  # atno 17395 bound_to 11000

$$$$
