AV-unprocessed.smi:2519|AV-procd|sdf|9905|dock3
  -GOLD-   2272013543D 1   1.00000     0.00000
 Structure written by MMmdl.
 43 44  0  0  0  0  0  0  0  0  1 V2000
  142.9016  137.6873  155.2441 C   0  0  0  0  0  0  0  0  0  0  0  0
  143.9988  138.5359  154.8069 N   0  0  0  0  0  0  0  0  0  0  0  0
  145.2005  138.5932  155.4040 C   0  0  0  0  0  0  0  0  0  0  0  0
  145.4872  137.9263  156.3993 O   0  0  0  0  0  0  0  0  0  0  0  0
  146.1942  139.5504  154.7980 C   0  0  0  0  0  0  0  0  0  0  0  0
  146.4192  139.5484  153.4034 C   0  0  0  0  0  0  0  0  0  0  0  0
  147.3475  140.4582  152.8669 C   0  0  0  0  0  0  0  0  0  0  0  0
  148.0183  141.3381  153.7361 C   0  0  0  0  0  0  0  0  0  0  0  0
  147.7431  141.2858  155.1192 C   0  0  0  0  0  0  0  0  0  0  0  0
  148.4683  142.2112  155.9142 N   0  0  0  0  0  0  0  0  0  0  0  0
  149.0183  142.0191  157.1301 C   0  0  0  0  0  0  0  0  0  0  0  0
  148.9802  140.9614  157.7569 O   0  0  0  0  0  0  0  0  0  0  0  0
  149.6392  143.1022  157.6332 N   0  0  0  0  0  0  0  0  0  0  0  0
  150.3344  143.2409  158.9148 C   0  0  2  0  0  0  0  0  0  0  0  0
  150.8777  144.6738  159.0872 C   0  0  0  0  0  0  0  0  0  0  0  0
  151.6777  144.8128  160.3905 C   0  0  0  0  0  0  0  0  0  0  0  0
  152.8136  143.7805  160.4617 C   0  0  0  0  0  0  0  0  0  0  0  0
  152.2838  142.3400  160.3010 C   0  0  2  0  0  0  0  0  0  0  0  0
  153.4138  141.2941  160.3900 C   0  0  0  0  0  0  0  0  0  0  0  0
  152.9834  140.0954  159.9952 F   0  0  0  0  0  0  0  0  0  0  0  0
  154.4367  141.6609  159.6181 F   0  0  0  0  0  0  0  0  0  0  0  0
  153.8527  141.2028  161.6454 F   0  0  0  0  0  0  0  0  0  0  0  0
  151.4803  142.2144  158.9884 C   0  0  0  0  0  0  0  0  0  0  0  0
  146.8455  140.4052  155.6238 N   0  0  0  0  0  0  0  0  0  0  0  0
  142.0443  137.8195  154.5840 H   0  0  0  0  0  0  0  0  0  0  0  0
  142.5935  137.9421  156.2588 H   0  0  0  0  0  0  0  0  0  0  0  0
  143.1911  136.6360  155.2206 H   0  0  0  0  0  0  0  0  0  0  0  0
  143.8450  139.1175  153.9952 H   0  0  0  0  0  0  0  0  0  0  0  0
  145.8954  138.8659  152.7500 H   0  0  0  0  0  0  0  0  0  0  0  0
  147.5421  140.4809  151.8049 H   0  0  0  0  0  0  0  0  0  0  0  0
  148.7350  142.0433  153.3407 H   0  0  0  0  0  0  0  0  0  0  0  0
  148.5810  143.1312  155.5151 H   0  0  0  0  0  0  0  0  0  0  0  0
  149.6259  143.9300  157.0548 H   0  0  0  0  0  0  0  0  0  0  0  0
  149.6446  143.0199  159.7314 H   0  0  0  0  0  0  0  0  0  0  0  0
  151.5174  144.9303  158.2414 H   0  0  0  0  0  0  0  0  0  0  0  0
  150.0599  145.3952  159.0845 H   0  0  0  0  0  0  0  0  0  0  0  0
  152.0864  145.8207  160.4680 H   0  0  0  0  0  0  0  0  0  0  0  0
  151.0113  144.6834  161.2441 H   0  0  0  0  0  0  0  0  0  0  0  0
  153.5467  143.9943  159.6831 H   0  0  0  0  0  0  0  0  0  0  0  0
  153.3362  143.8848  161.4130 H   0  0  0  0  0  0  0  0  0  0  0  0
  151.5980  142.1469  161.1276 H   0  0  0  0  0  0  0  0  0  0  0  0
  151.0700  141.2076  158.9012 H   0  0  0  0  0  0  0  0  0  0  0  0
  152.1484  142.3480  158.1363 H   0  0  0  0  0  0  0  0  0  0  0  0
  1  2  1  0  0  0  0
  1 25  1  0  0  0  0
  1 26  1  0  0  0  0
  1 27  1  0  0  0  0
  2  3  1  0  0  0  0
  2 28  1  0  0  0  0
  3  4  2  0  0  0  0
  3  5  1  0  0  0  0
  5 24  1  0  0  0  0
  5  6  2  0  0  0  0
  6  7  1  0  0  0  0
  6 29  1  0  0  0  0
  7  8  2  0  0  0  0
  7 30  1  0  0  0  0
  8  9  1  0  0  0  0
  8 31  1  0  0  0  0
  9 10  1  0  0  0  0
  9 24  2  0  0  0  0
 10 11  1  0  0  0  0
 10 32  1  0  0  0  0
 11 12  2  0  0  0  0
 11 13  1  0  0  0  0
 13 14  1  0  0  0  0
 13 33  1  0  0  0  0
 14 23  1  0  0  0  0
 14 15  1  0  0  0  0
 14 34  1  0  0  0  0
 15 16  1  0  0  0  0
 15 35  1  0  0  0  0
 15 36  1  0  0  0  0
 16 17  1  0  0  0  0
 16 37  1  0  0  0  0
 16 38  1  0  0  0  0
 17 18  1  0  0  0  0
 17 39  1  0  0  0  0
 17 40  1  0  0  0  0
 18 19  1  0  0  0  0
 18 23  1  0  0  0  0
 18 41  1  0  0  0  0
 19 20  1  0  0  0  0
 19 21  1  0  0  0  0
 19 22  1  0  0  0  0
 23 42  1  0  0  0  0
 23 43  1  0  0  0  0
M  END
> <s_m_source_file>
AV-unprocessed.smi

> <i_m_source_file_index>
2519

> <i_lp_mmshare_version>
43012

> <i_f3d_flags>
0

> <s_epik_input>
W0NIM11bTkhdQyg9TyljMVtjSF1bY0hdW2NIXWMobjEpW05IXUMoPU8pW05IXVtDQEBIXTJbQ0gyXVtDSDJdW0NIMl1bQ0BASF0oQyhGKShGKUYpW0NIMl0y

> <s_epik_cmdline>
J2VwaWtfcHl0aG9uJywgJy1waCcsICc3LjAnLCAnLXRuJywgJzgnLCAnLW1hJywgJzIwMCcsICctbWV0YWxfYmluZGluZycsICctaW1hZScsICc8aW5maWxlLm1hZT4nLCAnLW9tYWUnLCAnPG91dGZpbGUubWFlPic=

> <r_lp_tautomer_probability>
1

> <r_epik_Ionization_Penalty>
3.74915e-05

> <r_epik_Ionization_Penalty_Charging>
0

> <r_epik_Ionization_Penalty_Neutral>
3.74915e-05

> <r_epik_State_Penalty>
-0

> <r_epik_Charging_Adjusted_Penalty>
0

> <i_epik_Tot_Q>
0

> <i_epik_Tot_abs_Q>
0

> <r_epik_Metal_State_Penalty>
-0

> <b_epik_Metal_Only>
0

> <s_lp_Force_Field>
OPLS_2005

> <r_lp_Energy>
27.0484

> <b_lp_Chiralities_Consistent>
1

> <s_lp_Variant>
AV-unprocessed.smi:2519-3

> <Gold.Version>
5.8.1

> <Gold.Id.Protein>
6NUR|6NUR_protein|mol2

> <Gold.PLP.Fitness>
42.2994

> <Gold.PLP.PLP>
-36.3190

> <Gold.PLP.part.hbond>
-3.0000

> <Gold.PLP.part.metal>
0.0000

> <Gold.PLP.part.buried>
-0.2993

> <Gold.PLP.part.nonpolar>
-32.7404

> <Gold.PLP.part.repulsive>
0.1787

> <Gold.PLP.ligand.clash>
0.0000

> <Gold.PLP.ligand.torsion>
1.4367

> <Gold.PLP.Chemscore.Hbond>
2.9440

> <Gold.PLP.Chemscore.CHOScore>
0.0000

> <Gold.PLP.Chemscore.Metal>
0.0000

> <Gold.Chemscore.Hbonds>
donor molecule, donor type, donor heavy atom, donor atom, acceptor molecule, acceptor atom, score
      L1  H     2    28       P1 10175  1.00
      L1  H    10    32       P1  8028  1.00
      L1  H    13    33       P1  8028  0.93

> <Gold.PLP.Chemscore.Internal.Correction>
0.0218

> <Gold.Rescore>
     Score         DG    S(hbond)    S(metal)    S(lipo)     H(rot)  DE(clash)    DE(int)     intcor
     19.51     -23.33       2.73        0.00      96.54       1.00       1.65       2.17       ----

> <Gold.Chemscore.Fitness>
19.5058

> <Gold.Chemscore.DG>
-23.3265

> <Gold.Chemscore.ZeroCoef>
-5.4800

> <Gold.Chemscore.Hbond>
2.7279

> <Gold.Chemscore.Metal>
0.0000

> <Gold.Chemscore.Lipo>
96.5417

> <Gold.Chemscore.Internal_Hbond>
0.0000

> <Gold.Chemscore.DEClash>
1.6529

> <Gold.Chemscore.DEInternal>
2.1679

> <Gold.Chemscore.Rot>
1.0000

> <Gold.Chemscore.Internal.Correction>
   9.000000E+99

> <Gold.Chemscore.Hbonds>
donor molecule, donor type, donor heavy atom, donor atom, acceptor molecule, acceptor atom, score
      L1  H     2    28       P1 10175  0.94
      L1  H    10    32       P1  8028  0.95
      L1  H    13    33       P1  8028  0.71

> <Gold.Chemscore.Hbond.Weighted>
-9.1112

> <Gold.Chemscore.Metal.Weighted>
-0.0000

> <Gold.Chemscore.Lipo.Weighted>
-11.2954

> <Gold.Chemscore.Internal_Hbond.Weighted>
0.0000

> <Gold.Chemscore.DEClash.Weighted>
1.6529

> <Gold.Chemscore.DEInternal.Weighted>
2.1679

> <Gold.Chemscore.Rot.Weighted>
2.5600

> <Gold.Chemscore.Internal.Correction.Weighted>
   9.000000E+99

> <Gold.Protein.RotatedTorsions>
[ 6907 6896 6895 6894 ] final  -77.54 input  -60.11 | X-H torsion
[ 7974 7965 7964 7962 ] final -146.21 input  175.53 | X-H torsion
[ 8008 7997 7996 7995 ] final  130.69 input   59.86 | X-H torsion
[ 10167 10162 10161 10158 ] final  -72.94 input  -65.29 | X-H torsion
[ 10718 10713 10712 10709 ] final   86.30 input   66.30 | X-H torsion
[ 10763 10752 10751 10750 ] final  -67.18 input  -60.55 | X-H torsion
[ 11005 11000 10999 10996 ] final -101.74 input  -57.11 | X-H torsion

> <Gold.Protein.ActiveResidues>
 VAL166  LYS551  ARG553  GLY616  TRP617  ASP618  TYR619  PRO620  LYS621  CYS622 
 ASP623  PHE694  ASN695  SER759  ASP760  ASP761  ALA762  ILE779  LEU786  VAL792 
 PHE793  MET794  SER795  GLU796  ALA797  LYS798  CYS799  TRP800  GLU811  SER814 

> <Gold.Protein.RotatedAtoms>
  150.6996  134.4407  159.5290 H   0  0  0  0  0  0  0  0  0  0  0  0  # atno 6907 bound_to 6896
  152.2117  134.8492  160.0505 H   0  0  0  0  0  0  0  0  0  0  0  0  # atno 6908 bound_to 6896
  151.9375  133.3593  159.3990 H   0  0  0  0  0  0  0  0  0  0  0  0  # atno 6909 bound_to 6896
  144.8175  140.5485  143.5601 H   0  0  0  0  0  0  0  0  0  0  0  0  # atno 7974 bound_to 7965
  156.2958  140.2589  156.2804 H   0  0  0  0  0  0  0  0  0  0  0  0  # atno 8008 bound_to 7997
  154.9608  140.0392  157.2207 H   0  0  0  0  0  0  0  0  0  0  0  0  # atno 8009 bound_to 7997
  154.7949  140.2818  155.5969 H   0  0  0  0  0  0  0  0  0  0  0  0  # atno 8010 bound_to 7997
  140.5151  143.2339  151.7527 H   0  0  0  0  0  0  0  0  0  0  0  0  # atno 10167 bound_to 10162
  157.6927  131.0210  150.2952 H   0  0  0  0  0  0  0  0  0  0  0  0  # atno 10718 bound_to 10713
  154.3707  135.6096  153.5738 H   0  0  0  0  0  0  0  0  0  0  0  0  # atno 10763 bound_to 10752
  152.9790  135.5837  154.4525 H   0  0  0  0  0  0  0  0  0  0  0  0  # atno 10764 bound_to 10752
  154.4279  135.2847  155.1910 H   0  0  0  0  0  0  0  0  0  0  0  0  # atno 10765 bound_to 10752
  141.1218  133.8502  157.1270 H   0  0  0  0  0  0  0  0  0  0  0  0  # atno 11005 bound_to 11000
  145.5181  139.1477  143.3567 LP  0  0  0  0  0  0  0  0  0  0  0  0  # atno 17320 bound_to 7965
  146.2479  140.5322  142.8906 LP  0  0  0  0  0  0  0  0  0  0  0  0  # atno 17321 bound_to 7965
  139.4907  144.4335  151.9845 LP  0  0  0  0  0  0  0  0  0  0  0  0  # atno 17342 bound_to 10162
  140.3429  144.3181  150.5963 LP  0  0  0  0  0  0  0  0  0  0  0  0  # atno 17343 bound_to 10162
  156.3477  130.3825  149.7355 LP  0  0  0  0  0  0  0  0  0  0  0  0  # atno 17370 bound_to 10713
  156.4844  130.8056  151.3069 LP  0  0  0  0  0  0  0  0  0  0  0  0  # atno 17371 bound_to 10713
  140.0182  134.9958  157.0538 LP  0  0  0  0  0  0  0  0  0  0  0  0  # atno 17394 bound_to 11000
  140.4484  134.1608  155.7179 LP  0  0  0  0  0  0  0  0  0  0  0  0  # atno 17395 bound_to 11000

$$$$
