AV-unprocessed.smi:48|AV-procd|sdf|450|dock9
  -GOLD-   2262016323D 1   1.00000     0.00000
 Structure written by MMmdl.
 30 32  0  0  0  0  0  0  0  0  1 V2000
  148.2430  138.6445  153.0607 O   0  0  0  0  0  0  0  0  0  0  0  0
  149.4661  138.8757  153.7270 C   0  0  0  0  0  0  0  0  0  0  0  0
  149.3578  140.1212  154.6248 C   0  0  2  0  0  0  0  0  0  0  0  0
  150.6219  140.4598  155.1790 O   0  0  0  0  0  0  0  0  0  0  0  0
  150.4286  141.3133  156.2634 C   0  0  2  0  0  0  0  0  0  0  0  0
  151.4505  140.9888  157.3087 N   0  0  0  0  0  0  0  0  0  0  0  0
  152.1291  139.8322  157.4531 C   0  0  0  0  0  0  0  0  0  0  0  0
  153.0020  139.7526  158.4565 N   0  0  0  0  0  0  0  0  0  0  0  0
  152.8757  141.0061  159.0317 C   0  0  0  0  0  0  0  0  0  0  0  0
  153.5050  141.6191  160.1424 C   0  0  0  0  0  0  0  0  0  0  0  0
  154.6879  140.7737  161.0722 Cl  0  0  0  0  0  0  0  0  0  0  0  0
  153.1577  142.8886  160.4615 N   0  0  0  0  0  0  0  0  0  0  0  0
  152.2362  143.5207  159.7244 C   0  0  0  0  0  0  0  0  0  0  0  0
  151.5618  143.0742  158.6590 N   0  0  0  0  0  0  0  0  0  0  0  0
  151.9143  141.7945  158.3367 C   0  0  0  0  0  0  0  0  0  0  0  0
  148.9756  141.1296  156.7546 C   0  0  2  0  0  0  0  0  0  0  0  0
  148.8225  140.8527  158.1364 O   0  0  0  0  0  0  0  0  0  0  0  0
  148.4338  140.0251  155.8485 C   0  0  2  0  0  0  0  0  0  0  0  0
  148.5022  138.7426  156.4483 O   0  0  0  0  0  0  0  0  0  0  0  0
  149.0425  140.9712  154.0166 H   0  0  0  0  0  0  0  0  0  0  0  0
  150.6461  142.3428  155.9749 H   0  0  0  0  0  0  0  0  0  0  0  0
  148.4490  142.0594  156.5353 H   0  0  0  0  0  0  0  0  0  0  0  0
  147.3937  140.2087  155.5765 H   0  0  0  0  0  0  0  0  0  0  0  0
  148.2689  137.7812  152.6765 H   0  0  0  0  0  0  0  0  0  0  0  0
  149.7498  137.9908  154.2974 H   0  0  0  0  0  0  0  0  0  0  0  0
  150.2415  139.0283  152.9760 H   0  0  0  0  0  0  0  0  0  0  0  0
  151.9757  139.0010  156.7804 H   0  0  0  0  0  0  0  0  0  0  0  0
  152.0049  144.5296  160.0324 H   0  0  0  0  0  0  0  0  0  0  0  0
  149.6690  140.6126  158.4824 H   0  0  0  0  0  0  0  0  0  0  0  0
  149.4125  138.5116  156.5540 H   0  0  0  0  0  0  0  0  0  0  0  0
  1  2  1  0  0  0  0
  1 24  1  0  0  0  0
  2  3  1  0  0  0  0
  2 25  1  0  0  0  0
  2 26  1  0  0  0  0
  3 20  1  0  0  0  0
  3 18  1  0  0  0  0
  3  4  1  0  0  0  0
  4  5  1  0  0  0  0
  5 21  1  0  0  0  0
  5  6  1  0  0  0  0
  5 16  1  0  0  0  0
  6 15  1  0  0  0  0
  6  7  1  0  0  0  0
  7  8  2  0  0  0  0
  7 27  1  0  0  0  0
  8  9  1  0  0  0  0
  9 15  2  0  0  0  0
  9 10  1  0  0  0  0
 10 11  1  0  0  0  0
 10 12  2  0  0  0  0
 12 13  1  0  0  0  0
 13 14  2  0  0  0  0
 13 28  1  0  0  0  0
 14 15  1  0  0  0  0
 16 22  1  0  0  0  0
 16 17  1  0  0  0  0
 16 18  1  0  0  0  0
 17 29  1  0  0  0  0
 18 23  1  0  0  0  0
 18 19  1  0  0  0  0
 19 30  1  0  0  0  0
M  END
> <s_m_source_file>
AV-unprocessed.smi

> <i_m_source_file_index>
48

> <i_lp_mmshare_version>
43012

> <i_f3d_flags>
0

> <s_epik_input>
W09IXVtDSDJdW0NASF0xT1tDQEhdKFtDQEhdKFtPSF0pW0NAQEhdMVtPSF0pbihbY0hdbjIpYyhjMjMpbltjSF1uYzNDbA==

> <s_epik_cmdline>
J2VwaWtfcHl0aG9uJywgJy1waCcsICc3LjAnLCAnLXRuJywgJzgnLCAnLW1hJywgJzIwMCcsICctbWV0YWxfYmluZGluZycsICctaW1hZScsICc8aW5maWxlLm1hZT4nLCAnLW9tYWUnLCAnPG91dGZpbGUubWFlPic=

> <r_lp_tautomer_probability>
1

> <r_epik_Ionization_Penalty>
3.45505e-06

> <r_epik_Ionization_Penalty_Charging>
0

> <r_epik_Ionization_Penalty_Neutral>
3.45505e-06

> <r_epik_State_Penalty>
-0

> <r_epik_Charging_Adjusted_Penalty>
0

> <i_epik_Tot_Q>
0

> <i_epik_Tot_abs_Q>
0

> <r_epik_Metal_State_Penalty>
-0

> <b_epik_Metal_Only>
0

> <s_epik_Chemistry_Notes>
This compound contains an acetal/aminal-like group ( X-CH(R)-Y where X, Y are N, S, or O) that may be acid/base labile, releasing an aldehyde.

> <s_lp_Force_Field>
OPLS_2005

> <r_lp_Energy>
43.6519

> <b_lp_Chiralities_Consistent>
1

> <s_lp_Variant>
AV-unprocessed.smi:48-4

> <Gold.Version>
5.8.1

> <Gold.Id.Protein>
6NUR|6NUR_protein|mol2

> <Gold.PLP.Fitness>
36.8229

> <Gold.PLP.PLP>
-29.2312

> <Gold.PLP.part.hbond>
-4.3020

> <Gold.PLP.part.metal>
0.0000

> <Gold.PLP.part.buried>
-1.5016

> <Gold.PLP.part.nonpolar>
-24.0831

> <Gold.PLP.part.repulsive>
0.0999

> <Gold.PLP.ligand.clash>
0.0000

> <Gold.PLP.ligand.torsion>
0.6564

> <Gold.PLP.Chemscore.Hbond>
2.9680

> <Gold.PLP.Chemscore.CHOScore>
0.0000

> <Gold.PLP.Chemscore.Metal>
0.0000

> <Gold.Chemscore.Hbonds>
donor molecule, donor type, donor heavy atom, donor atom, acceptor molecule, acceptor atom, score
      L1  H     1    24       P1  7948  1.00
      P1  H  7989  7998       L1     4  1.00
      P1  H  7997  8010       L1     8  0.43

> <Gold.PLP.Chemscore.Internal.Correction>
0.0006

> <Gold.Rescore>
     Score         DG    S(hbond)    S(metal)    S(lipo)     H(rot)  DE(clash)    DE(int)     intcor
      7.41      -9.56       2.43        0.00      48.65       3.80       1.78       0.37       ----

> <Gold.Chemscore.Fitness>
7.4088

> <Gold.Chemscore.DG>
-9.5590

> <Gold.Chemscore.ZeroCoef>
-5.4800

> <Gold.Chemscore.Hbond>
2.4310

> <Gold.Chemscore.Metal>
0.0000

> <Gold.Chemscore.Lipo>
48.6478

> <Gold.Chemscore.Internal_Hbond>
0.0000

> <Gold.Chemscore.DEClash>
1.7849

> <Gold.Chemscore.DEInternal>
0.3653

> <Gold.Chemscore.Rot>
3.8017

> <Gold.Chemscore.Internal.Correction>
   9.000000E+99

> <Gold.Chemscore.Hbonds>
donor molecule, donor type, donor heavy atom, donor atom, acceptor molecule, acceptor atom, score
      L1  H     1    24       P1  7948  0.99
      P1  H  7989  7998       L1     4  0.23
      P1  H  7997  8010       L1     8  0.02

> <Gold.Chemscore.Hbond.Weighted>
-8.1196

> <Gold.Chemscore.Metal.Weighted>
-0.0000

> <Gold.Chemscore.Lipo.Weighted>
-5.6918

> <Gold.Chemscore.Internal_Hbond.Weighted>
0.0000

> <Gold.Chemscore.DEClash.Weighted>
1.7849

> <Gold.Chemscore.DEInternal.Weighted>
0.3653

> <Gold.Chemscore.Rot.Weighted>
9.7324

> <Gold.Chemscore.Internal.Correction.Weighted>
   9.000000E+99

> <Gold.Protein.RotatedTorsions>
[ 6907 6896 6895 6894 ] final -148.38 input  -60.11 | X-H torsion
[ 7974 7965 7964 7962 ] final -147.78 input  175.53 | X-H torsion
[ 8008 7997 7996 7995 ] final   18.93 input   59.86 | X-H torsion
[ 10167 10162 10161 10158 ] final  -24.91 input  -65.29 | X-H torsion
[ 10718 10713 10712 10709 ] final  -50.61 input   66.30 | X-H torsion
[ 10763 10752 10751 10750 ] final  168.15 input  -60.55 | X-H torsion
[ 11005 11000 10999 10996 ] final   21.65 input  -57.11 | X-H torsion

> <Gold.Protein.ActiveResidues>
 VAL166  LYS551  ARG553  GLY616  TRP617  ASP618  TYR619  PRO620  LYS621  CYS622 
 ASP623  PHE694  ASN695  SER759  ASP760  ASP761  ALA762  ILE779  LEU786  VAL792 
 PHE793  MET794  SER795  GLU796  ALA797  LYS798  CYS799  TRP800  GLU811  SER814 

> <Gold.Protein.RotatedAtoms>
  151.1690  133.4796  159.2593 H   0  0  0  0  0  0  0  0  0  0  0  0  # atno 6907 bound_to 6896
  151.1375  135.0162  159.8621 H   0  0  0  0  0  0  0  0  0  0  0  0  # atno 6908 bound_to 6896
  152.5461  134.1587  159.8602 H   0  0  0  0  0  0  0  0  0  0  0  0  # atno 6909 bound_to 6896
  144.8071  140.5282  143.5667 H   0  0  0  0  0  0  0  0  0  0  0  0  # atno 7974 bound_to 7965
  154.9132  140.3017  155.5255 H   0  0  0  0  0  0  0  0  0  0  0  0  # atno 8008 bound_to 7997
  156.3014  140.2385  156.4110 H   0  0  0  0  0  0  0  0  0  0  0  0  # atno 8009 bound_to 7997
  154.8404  140.0414  157.1526 H   0  0  0  0  0  0  0  0  0  0  0  0  # atno 8010 bound_to 7997
  140.7287  143.4311  151.0800 H   0  0  0  0  0  0  0  0  0  0  0  0  # atno 10167 bound_to 10162
  156.1785  130.4150  149.9542 H   0  0  0  0  0  0  0  0  0  0  0  0  # atno 10718 bound_to 10713
  154.3643  135.2753  155.2302 H   0  0  0  0  0  0  0  0  0  0  0  0  # atno 10763 bound_to 10752
  154.4477  135.5938  153.6174 H   0  0  0  0  0  0  0  0  0  0  0  0  # atno 10764 bound_to 10752
  152.9841  135.6034  154.3867 H   0  0  0  0  0  0  0  0  0  0  0  0  # atno 10765 bound_to 10752
  140.3893  134.1836  155.7662 H   0  0  0  0  0  0  0  0  0  0  0  0  # atno 11005 bound_to 11000
  145.5412  139.1475  143.3446 LP  0  0  0  0  0  0  0  0  0  0  0  0  # atno 17320 bound_to 7965
  146.2364  140.5552  142.8953 LP  0  0  0  0  0  0  0  0  0  0  0  0  # atno 17321 bound_to 7965
  139.7968  143.8140  152.3158 LP  0  0  0  0  0  0  0  0  0  0  0  0  # atno 17342 bound_to 10162
  139.8143  144.7323  150.9656 LP  0  0  0  0  0  0  0  0  0  0  0  0  # atno 17343 bound_to 10162
  156.7320  130.9047  151.3626 LP  0  0  0  0  0  0  0  0  0  0  0  0  # atno 17370 bound_to 10713
  157.6852  130.9178  150.0368 LP  0  0  0  0  0  0  0  0  0  0  0  0  # atno 17371 bound_to 10713
  141.1896  133.8234  157.0949 LP  0  0  0  0  0  0  0  0  0  0  0  0  # atno 17394 bound_to 11000
  140.0419  134.9850  157.0977 LP  0  0  0  0  0  0  0  0  0  0  0  0  # atno 17395 bound_to 11000

$$$$
