AV-unprocessed.smi:888|AV-procd|sdf|4055|dock2
  -GOLD-   22720 1543D 1   1.00000     0.00000
 Structure written by MMmdl.
 45 46  0  0  0  0  0  0  0  0  1 V2000
  149.0465  141.0881  154.8084 C   0  0  0  0  0  0  0  0  0  0  0  0
  149.4502  139.7184  154.2524 C   0  0  0  0  0  0  0  0  0  0  0  0
  150.7535  139.2323  154.8070 C   0  0  0  0  0  0  0  0  0  0  0  0
  151.9007  139.9129  154.6949 N   0  0  0  0  0  0  0  0  0  0  0  0
  152.8521  139.1490  155.3413 N   0  0  0  0  0  0  0  0  0  0  0  0
  152.1825  138.0870  155.7869 C   0  0  0  0  0  0  0  0  0  0  0  0
  150.8730  138.0770  155.4947 N   0  0  0  0  0  0  0  0  0  0  0  0
  149.8822  137.0745  155.8405 C   0  0  0  0  0  0  0  0  0  0  0  0
  150.1874  136.4259  157.1970 C   0  0  0  0  0  0  0  0  0  0  0  0
  149.1017  136.6800  158.1394 N   0  0  0  0  0  0  0  0  0  0  0  0
  148.5230  135.7946  158.9684 C   0  0  0  0  0  0  0  0  0  0  0  0
  148.8726  134.6166  159.0061 O   0  0  0  0  0  0  0  0  0  0  0  0
  147.5410  136.3068  159.7305 N   0  0  0  0  0  0  0  0  0  0  0  0
  146.7455  135.5721  160.7158 C   0  0  1  0  0  0  0  0  0  0  0  0
  147.6933  134.9214  161.7403 C   0  0  0  0  0  0  0  0  0  0  0  0
  147.6459  135.7888  163.0058 C   0  0  0  0  0  0  0  0  0  0  0  0
  146.7263  136.9697  162.6808 C   0  0  0  0  0  0  0  0  0  0  0  0
  145.8091  136.4914  161.5437 C   0  0  0  0  0  0  0  0  0  0  0  0
  145.2147  137.6815  160.7596 C   0  0  0  0  0  0  0  0  0  0  0  0
  144.6418  135.6630  162.1233 C   0  0  0  0  0  0  0  0  0  0  0  0
  148.0981  141.4154  154.3821 H   0  0  0  0  0  0  0  0  0  0  0  0
  149.7965  141.8441  154.5739 H   0  0  0  0  0  0  0  0  0  0  0  0
  148.9311  141.0552  155.8919 H   0  0  0  0  0  0  0  0  0  0  0  0
  148.6678  138.9869  154.4532 H   0  0  0  0  0  0  0  0  0  0  0  0
  149.5370  139.7771  153.1670 H   0  0  0  0  0  0  0  0  0  0  0  0
  152.6607  137.2948  156.3444 H   0  0  0  0  0  0  0  0  0  0  0  0
  148.9016  137.5523  155.8612 H   0  0  0  0  0  0  0  0  0  0  0  0
  149.8478  136.3237  155.0503 H   0  0  0  0  0  0  0  0  0  0  0  0
  150.3199  135.3495  157.0761 H   0  0  0  0  0  0  0  0  0  0  0  0
  151.1199  136.8256  157.5990 H   0  0  0  0  0  0  0  0  0  0  0  0
  148.7475  137.6254  158.1653 H   0  0  0  0  0  0  0  0  0  0  0  0
  147.3258  137.2868  159.6205 H   0  0  0  0  0  0  0  0  0  0  0  0
  146.1722  134.7949  160.2067 H   0  0  0  0  0  0  0  0  0  0  0  0
  147.3483  133.9145  161.9785 H   0  0  0  0  0  0  0  0  0  0  0  0
  148.7111  134.8205  161.3599 H   0  0  0  0  0  0  0  0  0  0  0  0
  147.2362  135.2106  163.8347 H   0  0  0  0  0  0  0  0  0  0  0  0
  148.6379  136.1279  163.3055 H   0  0  0  0  0  0  0  0  0  0  0  0
  146.1747  137.3186  163.5545 H   0  0  0  0  0  0  0  0  0  0  0  0
  147.3377  137.8046  162.3351 H   0  0  0  0  0  0  0  0  0  0  0  0
  144.5476  138.2713  161.3891 H   0  0  0  0  0  0  0  0  0  0  0  0
  144.6374  137.3377  159.9007 H   0  0  0  0  0  0  0  0  0  0  0  0
  145.9848  138.3599  160.3914 H   0  0  0  0  0  0  0  0  0  0  0  0
  144.0177  136.2656  162.7841 H   0  0  0  0  0  0  0  0  0  0  0  0
  144.9914  134.8059  162.6994 H   0  0  0  0  0  0  0  0  0  0  0  0
  144.0005  135.2796  161.3290 H   0  0  0  0  0  0  0  0  0  0  0  0
  1  2  1  0  0  0  0
  1 21  1  0  0  0  0
  1 22  1  0  0  0  0
  1 23  1  0  0  0  0
  2  3  1  0  0  0  0
  2 24  1  0  0  0  0
  2 25  1  0  0  0  0
  3  7  1  0  0  0  0
  3  4  2  0  0  0  0
  4  5  1  0  0  0  0
  5  6  2  0  0  0  0
  6  7  1  0  0  0  0
  6 26  1  0  0  0  0
  7  8  1  0  0  0  0
  8  9  1  0  0  0  0
  8 27  1  0  0  0  0
  8 28  1  0  0  0  0
  9 10  1  0  0  0  0
  9 29  1  0  0  0  0
  9 30  1  0  0  0  0
 10 11  1  0  0  0  0
 10 31  1  0  0  0  0
 11 12  2  0  0  0  0
 11 13  1  0  0  0  0
 13 14  1  0  0  0  0
 13 32  1  0  0  0  0
 14 18  1  0  0  0  0
 14 15  1  0  0  0  0
 14 33  1  0  0  0  0
 15 16  1  0  0  0  0
 15 34  1  0  0  0  0
 15 35  1  0  0  0  0
 16 17  1  0  0  0  0
 16 36  1  0  0  0  0
 16 37  1  0  0  0  0
 17 18  1  0  0  0  0
 17 38  1  0  0  0  0
 17 39  1  0  0  0  0
 18 19  1  0  0  0  0
 18 20  1  0  0  0  0
 19 40  1  0  0  0  0
 19 41  1  0  0  0  0
 19 42  1  0  0  0  0
 20 43  1  0  0  0  0
 20 44  1  0  0  0  0
 20 45  1  0  0  0  0
M  END
> <s_m_source_file>
AV-unprocessed.smi

> <i_m_source_file_index>
888

> <i_lp_mmshare_version>
43012

> <i_f3d_flags>
0

> <s_epik_input>
W0NIM11bQ0gyXWMxbm5bY0hdbjFbQ0gyXVtDSDJdW05IXUMoPU8pW05IXVtDQEBIXShDMihbQ0gzXSlbQ0gzXSlbQ0gyXVtDSDJdW0NIMl0y

> <s_epik_cmdline>
J2VwaWtfcHl0aG9uJywgJy1waCcsICc3LjAnLCAnLXRuJywgJzgnLCAnLW1hJywgJzIwMCcsICctbWV0YWxfYmluZGluZycsICctaW1hZScsICc8aW5maWxlLm1hZT4nLCAnLW9tYWUnLCAnPG91dGZpbGUubWFlPic=

> <r_lp_tautomer_probability>
1

> <r_epik_Ionization_Penalty>
0.000379534

> <r_epik_Ionization_Penalty_Charging>
0

> <r_epik_Ionization_Penalty_Neutral>
0.000379534

> <r_epik_State_Penalty>
-0

> <r_epik_Charging_Adjusted_Penalty>
0

> <i_epik_Tot_Q>
0

> <i_epik_Tot_abs_Q>
0

> <r_epik_Metal_State_Penalty>
-0

> <b_epik_Metal_Only>
0

> <s_lp_Force_Field>
OPLS_2005

> <r_lp_Energy>
32.1677

> <b_lp_Chiralities_Consistent>
1

> <s_lp_Variant>
AV-unprocessed.smi:888-2

> <Gold.Version>
5.8.1

> <Gold.Id.Protein>
6NUR|6NUR_protein|mol2

> <Gold.PLP.Fitness>
39.7104

> <Gold.PLP.PLP>
-32.7428

> <Gold.PLP.part.hbond>
-2.7569

> <Gold.PLP.part.metal>
0.0000

> <Gold.PLP.part.buried>
-2.9398

> <Gold.PLP.part.nonpolar>
-26.4197

> <Gold.PLP.part.repulsive>
0.3109

> <Gold.PLP.ligand.clash>
0.0000

> <Gold.PLP.ligand.torsion>
0.8647

> <Gold.PLP.Chemscore.Hbond>
2.8800

> <Gold.PLP.Chemscore.CHOScore>
0.0000

> <Gold.PLP.Chemscore.Metal>
0.0000

> <Gold.Chemscore.Hbonds>
donor molecule, donor type, donor heavy atom, donor atom, acceptor molecule, acceptor atom, score
      P1  H  6896  6909       L1    12  1.00
      P1  H  7989  7998       L1     4  0.93
      P1  H  7997  8008       L1     5  1.00

> <Gold.PLP.Chemscore.Internal.Correction>
0.0570

> <Gold.Rescore>
     Score         DG    S(hbond)    S(metal)    S(lipo)     H(rot)  DE(clash)    DE(int)     intcor
     15.56     -17.73       2.81        0.00      68.93       2.03       0.08       2.09       ----

> <Gold.Chemscore.Fitness>
15.5581

> <Gold.Chemscore.DG>
-17.7276

> <Gold.Chemscore.ZeroCoef>
-5.4800

> <Gold.Chemscore.Hbond>
2.8076

> <Gold.Chemscore.Metal>
0.0000

> <Gold.Chemscore.Lipo>
68.9332

> <Gold.Chemscore.Internal_Hbond>
0.0000

> <Gold.Chemscore.DEClash>
0.0807

> <Gold.Chemscore.DEInternal>
2.0888

> <Gold.Chemscore.Rot>
2.0293

> <Gold.Chemscore.Internal.Correction>
   9.000000E+99

> <Gold.Chemscore.Hbonds>
donor molecule, donor type, donor heavy atom, donor atom, acceptor molecule, acceptor atom, score
      P1  H  6896  6909       L1    12  0.93
      P1  H  7989  7998       L1     4  0.43
      P1  H  7997  8008       L1     5  0.90

> <Gold.Chemscore.Hbond.Weighted>
-9.3774

> <Gold.Chemscore.Metal.Weighted>
-0.0000

> <Gold.Chemscore.Lipo.Weighted>
-8.0652

> <Gold.Chemscore.Internal_Hbond.Weighted>
0.0000

> <Gold.Chemscore.DEClash.Weighted>
0.0807

> <Gold.Chemscore.DEInternal.Weighted>
2.0888

> <Gold.Chemscore.Rot.Weighted>
5.1950

> <Gold.Chemscore.Internal.Correction.Weighted>
   9.000000E+99

> <Gold.Protein.RotatedTorsions>
[ 6907 6896 6895 6894 ] final   34.01 input  -60.11 | X-H torsion
[ 7974 7965 7964 7962 ] final   74.10 input  175.53 | X-H torsion
[ 8008 7997 7996 7995 ] final  -34.01 input   59.86 | X-H torsion
[ 10167 10162 10161 10158 ] final   78.36 input  -65.29 | X-H torsion
[ 10718 10713 10712 10709 ] final  -41.13 input   66.30 | X-H torsion
[ 10763 10752 10751 10750 ] final -136.51 input  -60.55 | X-H torsion
[ 11005 11000 10999 10996 ] final -129.65 input  -57.11 | X-H torsion

> <Gold.Protein.ActiveResidues>
 VAL166  LYS551  ARG553  GLY616  TRP617  ASP618  TYR619  PRO620  LYS621  CYS622 
 ASP623  PHE694  ASN695  SER759  ASP760  ASP761  ALA762  ILE779  LEU786  VAL792 
 PHE793  MET794  SER795  GLU796  ALA797  LYS798  CYS799  TRP800  GLU811  SER814 

> <Gold.Protein.RotatedAtoms>
  152.0965  134.9371  160.0570 H   0  0  0  0  0  0  0  0  0  0  0  0  # atno 6907 bound_to 6896
  152.0602  133.4054  159.4423 H   0  0  0  0  0  0  0  0  0  0  0  0  # atno 6908 bound_to 6896
  150.6838  134.3129  159.4797 H   0  0  0  0  0  0  0  0  0  0  0  0  # atno 6909 bound_to 6896
  145.7325  139.2689  143.1533 H   0  0  0  0  0  0  0  0  0  0  0  0  # atno 7974 bound_to 7965
  154.4132  140.1695  156.1980 H   0  0  0  0  0  0  0  0  0  0  0  0  # atno 8008 bound_to 7997
  155.9547  140.3398  155.6415 H   0  0  0  0  0  0  0  0  0  0  0  0  # atno 8009 bound_to 7997
  155.6825  140.0724  157.2470 H   0  0  0  0  0  0  0  0  0  0  0  0  # atno 8010 bound_to 7997
  139.9717  144.5889  150.7979 H   0  0  0  0  0  0  0  0  0  0  0  0  # atno 10167 bound_to 10162
  156.2737  130.4209  149.8410 H   0  0  0  0  0  0  0  0  0  0  0  0  # atno 10718 bound_to 10713
  154.8682  135.3670  154.5073 H   0  0  0  0  0  0  0  0  0  0  0  0  # atno 10763 bound_to 10752
  153.5710  135.7020  153.5509 H   0  0  0  0  0  0  0  0  0  0  0  0  # atno 10764 bound_to 10752
  153.3542  135.4064  155.1632 H   0  0  0  0  0  0  0  0  0  0  0  0  # atno 10765 bound_to 10752
  140.9414  134.1188  157.4147 H   0  0  0  0  0  0  0  0  0  0  0  0  # atno 11005 bound_to 11000
  146.0524  140.8055  142.9775 LP  0  0  0  0  0  0  0  0  0  0  0  0  # atno 17320 bound_to 7965
  144.6889  140.3073  143.7254 LP  0  0  0  0  0  0  0  0  0  0  0  0  # atno 17321 bound_to 7965
  140.7519  143.2982  151.3150 LP  0  0  0  0  0  0  0  0  0  0  0  0  # atno 17342 bound_to 10162
  139.6476  144.0422  152.2602 LP  0  0  0  0  0  0  0  0  0  0  0  0  # atno 17343 bound_to 10162
  156.5883  130.8495  151.3401 LP  0  0  0  0  0  0  0  0  0  0  0  0  # atno 17370 bound_to 10713
  157.7292  130.9668  150.1777 LP  0  0  0  0  0  0  0  0  0  0  0  0  # atno 17371 bound_to 10713
  139.8821  135.0037  156.6207 LP  0  0  0  0  0  0  0  0  0  0  0  0  # atno 17394 bound_to 11000
  140.7729  133.8723  155.8506 LP  0  0  0  0  0  0  0  0  0  0  0  0  # atno 17395 bound_to 11000

$$$$
