AV-unprocessed.smi:878|AV-procd|sdf|4031|dock8
  -GOLD-   22720 1523D 1   1.00000     0.00000
 Structure written by MMmdl.
 33 34  0  0  0  0  0  0  0  0  1 V2000
  153.5415  141.8508  160.8769 C   0  0  0  0  0  0  0  0  0  0  0  0
  152.3782  142.8915  159.9540 S   0  0  0  0  0  0  0  0  0  0  0  0
  151.9546  142.0505  158.4553 C   0  0  0  0  0  0  0  0  0  0  0  0
  152.4193  140.7466  158.1833 C   0  0  0  0  0  0  0  0  0  0  0  0
  152.0644  140.1054  156.9801 C   0  0  0  0  0  0  0  0  0  0  0  0
  151.2373  140.7596  156.0329 C   0  0  0  0  0  0  0  0  0  0  0  0
  150.8371  140.2045  154.8371 O   0  0  0  0  0  0  0  0  0  0  0  0
  151.0327  138.8111  154.6389 C   0  0  0  0  0  0  0  0  0  0  0  0
  149.7497  138.0471  155.0059 C   0  0  0  0  0  0  0  0  0  0  0  0
  150.0071  136.7563  155.5985 N   0  0  0  0  0  0  0  0  0  0  0  0
  150.2021  135.6194  154.8297 C   0  0  0  0  0  0  0  0  0  0  0  0
  150.4294  134.3933  155.3596 C   0  0  0  0  0  0  0  0  0  0  0  0
  150.6624  133.0235  154.3336 Cl  0  0  0  0  0  0  0  0  0  0  0  0
  150.4765  134.2208  156.8109 C   0  0  0  0  0  0  0  0  0  0  0  0
  150.6790  133.1585  157.3959 O   0  0  0  0  0  0  0  0  0  0  0  0
  150.2661  135.3911  157.5464 N   0  0  0  0  0  0  0  0  0  0  0  0
  150.0282  136.6568  157.0096 C   0  0  0  0  0  0  0  0  0  0  0  0
  149.8485  137.6149  157.7613 O   0  0  0  0  0  0  0  0  0  0  0  0
  150.7809  142.0628  156.3157 C   0  0  0  0  0  0  0  0  0  0  0  0
  151.1374  142.7069  157.5156 C   0  0  0  0  0  0  0  0  0  0  0  0
  150.2859  135.3136  158.5529 H   0  0  0  0  0  0  0  0  0  0  0  0
  153.7693  142.3101  161.8387 H   0  0  0  0  0  0  0  0  0  0  0  0
  154.4743  141.7326  160.3257 H   0  0  0  0  0  0  0  0  0  0  0  0
  153.1106  140.8664  161.0600 H   0  0  0  0  0  0  0  0  0  0  0  0
  153.0502  140.2220  158.8835 H   0  0  0  0  0  0  0  0  0  0  0  0
  152.4386  139.1077  156.8089 H   0  0  0  0  0  0  0  0  0  0  0  0
  151.3071  138.6046  153.6029 H   0  0  0  0  0  0  0  0  0  0  0  0
  151.8456  138.4617  155.2770 H   0  0  0  0  0  0  0  0  0  0  0  0
  149.1831  138.6025  155.7549 H   0  0  0  0  0  0  0  0  0  0  0  0
  149.0753  137.9185  154.1569 H   0  0  0  0  0  0  0  0  0  0  0  0
  150.1696  135.7119  153.7532 H   0  0  0  0  0  0  0  0  0  0  0  0
  150.1509  142.5748  155.6032 H   0  0  0  0  0  0  0  0  0  0  0  0
  150.7787  143.7063  157.7136 H   0  0  0  0  0  0  0  0  0  0  0  0
  1  2  1  0  0  0  0
  1 22  1  0  0  0  0
  1 23  1  0  0  0  0
  1 24  1  0  0  0  0
  2  3  1  0  0  0  0
  3 20  1  0  0  0  0
  3  4  2  0  0  0  0
  4  5  1  0  0  0  0
  4 25  1  0  0  0  0
  5  6  2  0  0  0  0
  5 26  1  0  0  0  0
  6  7  1  0  0  0  0
  6 19  1  0  0  0  0
  7  8  1  0  0  0  0
  8  9  1  0  0  0  0
  8 27  1  0  0  0  0
  8 28  1  0  0  0  0
  9 10  1  0  0  0  0
  9 29  1  0  0  0  0
  9 30  1  0  0  0  0
 10 17  1  0  0  0  0
 10 11  1  0  0  0  0
 11 12  2  0  0  0  0
 11 31  1  0  0  0  0
 12 13  1  0  0  0  0
 12 14  1  0  0  0  0
 14 15  2  0  0  0  0
 14 16  1  0  0  0  0
 16 21  1  0  0  0  0
 16 17  1  0  0  0  0
 17 18  2  0  0  0  0
 19 20  2  0  0  0  0
 19 32  1  0  0  0  0
 20 33  1  0  0  0  0
M  END
> <s_m_source_file>
AV-unprocessed.smi

> <i_m_source_file_index>
878

> <i_lp_mmshare_version>
43012

> <i_f3d_flags>
0

> <s_epik_input>
W0NIM11TYzFbY0hdW2NIXWMoW2NIXVtjSF0xKU9bQ0gyXVtDSDJdbjJbY0hdYyhDbCljKD1PKVtuSF1jMj1P

> <s_epik_cmdline>
J2VwaWtfcHl0aG9uJywgJy1waCcsICc3LjAnLCAnLXRuJywgJzgnLCAnLW1hJywgJzIwMCcsICctbWV0YWxfYmluZGluZycsICctaW1hZScsICc8aW5maWxlLm1hZT4nLCAnLW9tYWUnLCAnPG91dGZpbGUubWFlPic=

> <r_lp_tautomer_probability>
0.999537

> <r_epik_Ionization_Penalty>
0.037527

> <r_epik_Ionization_Penalty_Charging>
0.037527

> <r_epik_Ionization_Penalty_Neutral>
0

> <r_epik_State_Penalty>
0.0314158

> <r_epik_Charging_Adjusted_Penalty>
0.0689428

> <i_epik_Tot_Q>
0

> <i_epik_Tot_abs_Q>
0

> <r_epik_Metal_State_Penalty>
2.37917

> <b_epik_Metal_Only>
0

> <s_lp_Force_Field>
OPLS_2005

> <r_lp_Energy>
14.7844

> <b_lp_Chiralities_Consistent>
1

> <s_lp_Variant>
AV-unprocessed.smi:878-1

> <Gold.Version>
5.8.1

> <Gold.Id.Protein>
6NUR|6NUR_protein|mol2

> <Gold.PLP.Fitness>
41.8993

> <Gold.PLP.PLP>
-34.8714

> <Gold.PLP.part.hbond>
-2.0000

> <Gold.PLP.part.metal>
0.0000

> <Gold.PLP.part.buried>
-5.2294

> <Gold.PLP.part.nonpolar>
-27.6653

> <Gold.PLP.part.repulsive>
0.1559

> <Gold.PLP.ligand.clash>
0.0000

> <Gold.PLP.ligand.torsion>
0.9973

> <Gold.PLP.Chemscore.Hbond>
2.0000

> <Gold.PLP.Chemscore.CHOScore>
1.0000

> <Gold.PLP.Chemscore.Metal>
0.0000

> <Gold.Chemscore.Hbonds>
donor molecule, donor type, donor heavy atom, donor atom, acceptor molecule, acceptor atom, score
      P1  H  6896  6908       L1    15  1.00
      P1  H  7989  7998       L1     7  1.00
      L1  C    11    31       P1  7948  0.40

> <Gold.PLP.Chemscore.Internal.Correction>
0.0226

> <Gold.Rescore>
     Score         DG    S(hbond)    S(metal)    S(lipo)     H(rot)  DE(clash)    DE(int)     intcor
     15.93     -17.16       1.59        0.00      97.65       1.98       0.07       1.17       ----

> <Gold.Chemscore.Fitness>
15.9254

> <Gold.Chemscore.DG>
-17.1615

> <Gold.Chemscore.ZeroCoef>
-5.4800

> <Gold.Chemscore.Hbond>
1.5909

> <Gold.Chemscore.Metal>
0.0000

> <Gold.Chemscore.Lipo>
97.6530

> <Gold.Chemscore.Internal_Hbond>
0.0000

> <Gold.Chemscore.DEClash>
0.0703

> <Gold.Chemscore.DEInternal>
1.1657

> <Gold.Chemscore.Rot>
1.9755

> <Gold.Chemscore.Internal.Correction>
   9.000000E+99

> <Gold.Chemscore.Hbonds>
donor molecule, donor type, donor heavy atom, donor atom, acceptor molecule, acceptor atom, score
      P1  H  6896  6908       L1    15  0.62
      P1  H  7989  7998       L1     7  0.30

> <Gold.Chemscore.Hbond.Weighted>
-5.3135

> <Gold.Chemscore.Metal.Weighted>
-0.0000

> <Gold.Chemscore.Lipo.Weighted>
-11.4254

> <Gold.Chemscore.Internal_Hbond.Weighted>
0.0000

> <Gold.Chemscore.DEClash.Weighted>
0.0703

> <Gold.Chemscore.DEInternal.Weighted>
1.1657

> <Gold.Chemscore.Rot.Weighted>
5.0574

> <Gold.Chemscore.Internal.Correction.Weighted>
   9.000000E+99

> <Gold.Protein.RotatedTorsions>
[ 6907 6896 6895 6894 ] final  100.19 input  -60.11 | X-H torsion
[ 7974 7965 7964 7962 ] final  124.73 input  175.53 | X-H torsion
[ 8008 7997 7996 7995 ] final -143.17 input   59.86 | X-H torsion
[ 10167 10162 10161 10158 ] final  -75.01 input  -65.29 | X-H torsion
[ 10718 10713 10712 10709 ] final   19.04 input   66.30 | X-H torsion
[ 10763 10752 10751 10750 ] final  123.50 input  -60.55 | X-H torsion
[ 11005 11000 10999 10996 ] final  148.16 input  -57.11 | X-H torsion

> <Gold.Protein.ActiveResidues>
 VAL166  LYS551  ARG553  GLY616  TRP617  ASP618  TYR619  PRO620  LYS621  CYS622 
 ASP623  PHE694  ASN695  SER759  ASP760  ASP761  ALA762  ILE779  LEU786  VAL792 
 PHE793  MET794  SER795  GLU796  ALA797  LYS798  CYS799  TRP800  GLU811  SER814 

> <Gold.Protein.RotatedAtoms>
  152.5377  134.0314  159.8025 H   0  0  0  0  0  0  0  0  0  0  0  0  # atno 6907 bound_to 6896
  151.0484  133.5638  159.2652 H   0  0  0  0  0  0  0  0  0  0  0  0  # atno 6908 bound_to 6896
  151.2581  135.0652  159.9141 H   0  0  0  0  0  0  0  0  0  0  0  0  # atno 6909 bound_to 6896
  145.0810  139.3657  143.4909 H   0  0  0  0  0  0  0  0  0  0  0  0  # atno 7974 bound_to 7965
  155.5062  140.0579  157.2931 H   0  0  0  0  0  0  0  0  0  0  0  0  # atno 8008 bound_to 7997
  154.4568  140.1977  156.0305 H   0  0  0  0  0  0  0  0  0  0  0  0  # atno 8009 bound_to 7997
  156.0815  140.3246  155.7704 H   0  0  0  0  0  0  0  0  0  0  0  0  # atno 8010 bound_to 7997
  140.4979  143.2367  151.7801 H   0  0  0  0  0  0  0  0  0  0  0  0  # atno 10167 bound_to 10162
  157.1048  130.6483  149.5882 H   0  0  0  0  0  0  0  0  0  0  0  0  # atno 10718 bound_to 10713
  153.6465  135.3370  155.3087 H   0  0  0  0  0  0  0  0  0  0  0  0  # atno 10763 bound_to 10752
  154.8547  135.4331  154.1949 H   0  0  0  0  0  0  0  0  0  0  0  0  # atno 10764 bound_to 10752
  153.2881  135.7014  153.7394 H   0  0  0  0  0  0  0  0  0  0  0  0  # atno 10765 bound_to 10752
  140.0936  134.9026  157.1689 H   0  0  0  0  0  0  0  0  0  0  0  0  # atno 11005 bound_to 11000
  146.3531  140.0601  142.8630 LP  0  0  0  0  0  0  0  0  0  0  0  0  # atno 17320 bound_to 7965
  145.1178  140.9444  143.4618 LP  0  0  0  0  0  0  0  0  0  0  0  0  # atno 17321 bound_to 7965
  139.4865  144.4562  151.9595 LP  0  0  0  0  0  0  0  0  0  0  0  0  # atno 17342 bound_to 10162
  140.3650  144.2926  150.5928 LP  0  0  0  0  0  0  0  0  0  0  0  0  # atno 17343 bound_to 10162
  155.9864  130.4899  150.7080 LP  0  0  0  0  0  0  0  0  0  0  0  0  # atno 17370 bound_to 10713
  157.4609  131.0883  151.0746 LP  0  0  0  0  0  0  0  0  0  0  0  0  # atno 17371 bound_to 10713
  140.3318  134.2802  155.7227 LP  0  0  0  0  0  0  0  0  0  0  0  0  # atno 17394 bound_to 11000
  141.2085  133.7775  157.0053 LP  0  0  0  0  0  0  0  0  0  0  0  0  # atno 17395 bound_to 11000

$$$$
