AV-unprocessed.smi:1602|AV-procd|sdf|6440|dock1
  -GOLD-   22720 7 83D 1   1.00000     0.00000
 Structure written by MMmdl.
 36 37  0  0  0  0  0  0  0  0  1 V2000
  154.9380  138.4667  160.0344 C   0  0  0  0  0  0  0  0  0  0  0  0
  154.1505  139.5209  159.2462 C   0  0  1  0  0  0  0  0  0  0  0  0
  154.5655  140.9571  159.6203 C   0  0  0  0  0  0  0  0  0  0  0  0
  153.4801  141.7130  160.2190 N   0  0  0  0  0  0  0  0  0  0  0  0
  152.3172  142.1593  159.6269 C   0  0  0  0  0  0  0  0  0  0  0  0
  151.5982  142.8126  160.5865 C   0  0  0  0  0  0  0  0  0  0  0  0
  152.4156  142.7132  161.7472 C   0  0  0  0  0  0  0  0  0  0  0  0
  153.5430  142.0575  161.5232 N   0  0  0  0  0  0  0  0  0  0  0  0
  154.3494  139.2932  157.8128 N   0  0  0  0  0  0  0  0  0  0  0  0
  153.8040  137.8222  157.0973 S   0  0  0  0  0  0  0  0  0  0  0  0
  154.8658  137.3076  156.2192 O   0  0  0  0  0  0  0  0  0  0  0  0
  153.2290  136.9813  158.1583 O   0  0  0  0  0  0  0  0  0  0  0  0
  152.5203  138.4421  156.1160 N   0  0  0  0  0  0  0  0  0  0  0  0
  152.0286  139.7991  156.4155 C   0  0  0  0  0  0  0  0  0  0  0  0
  150.7451  140.1086  155.6284 C   0  0  0  0  0  0  0  0  0  0  0  0
  150.9593  139.8949  154.2419 O   0  0  0  0  0  0  0  0  0  0  0  0
  151.2768  138.5386  153.9699 C   0  0  0  0  0  0  0  0  0  0  0  0
  152.5861  138.1492  154.6752 C   0  0  0  0  0  0  0  0  0  0  0  0
  154.7845  138.5850  161.1074 H   0  0  0  0  0  0  0  0  0  0  0  0
  156.0085  138.5426  159.8406 H   0  0  0  0  0  0  0  0  0  0  0  0
  154.6205  137.4585  159.7661 H   0  0  0  0  0  0  0  0  0  0  0  0
  153.0925  139.3870  159.4782 H   0  0  0  0  0  0  0  0  0  0  0  0
  155.3943  140.9356  160.3294 H   0  0  0  0  0  0  0  0  0  0  0  0
  154.9236  141.4949  158.7413 H   0  0  0  0  0  0  0  0  0  0  0  0
  152.0983  141.9721  158.5860 H   0  0  0  0  0  0  0  0  0  0  0  0
  150.6344  143.2871  160.4772 H   0  0  0  0  0  0  0  0  0  0  0  0
  152.2247  143.0959  162.7388 H   0  0  0  0  0  0  0  0  0  0  0  0
  154.1645  140.1117  157.2340 H   0  0  0  0  0  0  0  0  0  0  0  0
  151.8391  139.9037  157.4834 H   0  0  0  0  0  0  0  0  0  0  0  0
  152.8060  140.5195  156.1581 H   0  0  0  0  0  0  0  0  0  0  0  0
  149.9164  139.4921  155.9804 H   0  0  0  0  0  0  0  0  0  0  0  0
  150.4538  141.1476  155.7839 H   0  0  0  0  0  0  0  0  0  0  0  0
  150.4583  137.8906  154.2875 H   0  0  0  0  0  0  0  0  0  0  0  0
  151.3809  138.4099  152.8925 H   0  0  0  0  0  0  0  0  0  0  0  0
  153.4238  138.6975  154.2425 H   0  0  0  0  0  0  0  0  0  0  0  0
  152.7844  137.0883  154.5229 H   0  0  0  0  0  0  0  0  0  0  0  0
  1  2  1  0  0  0  0
  1 19  1  0  0  0  0
  1 20  1  0  0  0  0
  1 21  1  0  0  0  0
  2  3  1  0  0  0  0
  2  9  1  0  0  0  0
  2 22  1  0  0  0  0
  3  4  1  0  0  0  0
  3 23  1  0  0  0  0
  3 24  1  0  0  0  0
  4  8  1  0  0  0  0
  4  5  1  0  0  0  0
  5  6  2  0  0  0  0
  5 25  1  0  0  0  0
  6  7  1  0  0  0  0
  6 26  1  0  0  0  0
  7  8  2  0  0  0  0
  7 27  1  0  0  0  0
  9 10  1  0  0  0  0
  9 28  1  0  0  0  0
 10 11  2  0  0  0  0
 10 12  2  0  0  0  0
 10 13  1  0  0  0  0
 13 18  1  0  0  0  0
 13 14  1  0  0  0  0
 14 15  1  0  0  0  0
 14 29  1  0  0  0  0
 14 30  1  0  0  0  0
 15 16  1  0  0  0  0
 15 31  1  0  0  0  0
 15 32  1  0  0  0  0
 16 17  1  0  0  0  0
 17 18  1  0  0  0  0
 17 33  1  0  0  0  0
 17 34  1  0  0  0  0
 18 35  1  0  0  0  0
 18 36  1  0  0  0  0
M  END
> <s_m_source_file>
AV-unprocessed.smi

> <i_m_source_file_index>
1602

> <i_lp_mmshare_version>
43012

> <i_f3d_flags>
0

> <s_epik_input>
bjFbY0hdW2NIXVtjSF1uMVtDSDJdW0NAQEhdKFtDSDNdKVtOSF1TKD1PKSg9TylOMltDSDJdW0NIMl1PW0NIMl1bQ0gyXTI=

> <s_epik_cmdline>
J2VwaWtfcHl0aG9uJywgJy1waCcsICc3LjAnLCAnLXRuJywgJzgnLCAnLW1hJywgJzIwMCcsICctbWV0YWxfYmluZGluZycsICctaW1hZScsICc8aW5maWxlLm1hZT4nLCAnLW9tYWUnLCAnPG91dGZpbGUubWFlPic=

> <r_lp_tautomer_probability>
1

> <r_epik_Ionization_Penalty>
0.114248

> <r_epik_Ionization_Penalty_Charging>
0

> <r_epik_Ionization_Penalty_Neutral>
0.114248

> <r_epik_State_Penalty>
0.103909

> <r_epik_Charging_Adjusted_Penalty>
0.103909

> <i_epik_Tot_Q>
0

> <i_epik_Tot_abs_Q>
0

> <r_epik_Metal_State_Penalty>
0.436178

> <b_epik_Metal_Only>
0

> <s_lp_Force_Field>
OPLS_2005

> <r_lp_Energy>
8.02202

> <b_lp_Chiralities_Consistent>
1

> <s_lp_Variant>
AV-unprocessed.smi:1602-2

> <Gold.Version>
5.8.1

> <Gold.Id.Protein>
6NUR|6NUR_protein|mol2

> <Gold.PLP.Fitness>
43.3003

> <Gold.PLP.PLP>
-36.2441

> <Gold.PLP.part.hbond>
-3.0730

> <Gold.PLP.part.metal>
0.0000

> <Gold.PLP.part.buried>
-6.3030

> <Gold.PLP.part.nonpolar>
-27.7544

> <Gold.PLP.part.repulsive>
0.0884

> <Gold.PLP.ligand.clash>
0.0000

> <Gold.PLP.ligand.torsion>
1.3287

> <Gold.PLP.Chemscore.Hbond>
2.9673

> <Gold.PLP.Chemscore.CHOScore>
0.0000

> <Gold.PLP.Chemscore.Metal>
0.0000

> <Gold.Chemscore.Hbonds>
donor molecule, donor type, donor heavy atom, donor atom, acceptor molecule, acceptor atom, score
      P1  H  7989  7998       L1    16  0.67

> <Gold.PLP.Chemscore.Internal.Correction>
0.8119

> <Gold.Rescore>
     Score         DG    S(hbond)    S(metal)    S(lipo)     H(rot)  DE(clash)    DE(int)     intcor
     17.64     -19.22       2.90        0.00      77.60       1.97       0.05       1.53       ----

> <Gold.Chemscore.Fitness>
17.6446

> <Gold.Chemscore.DG>
-19.2221

> <Gold.Chemscore.ZeroCoef>
-5.4800

> <Gold.Chemscore.Hbond>
2.9024

> <Gold.Chemscore.Metal>
0.0000

> <Gold.Chemscore.Lipo>
77.6034

> <Gold.Chemscore.Internal_Hbond>
0.0000

> <Gold.Chemscore.DEClash>
0.0456

> <Gold.Chemscore.DEInternal>
1.5318

> <Gold.Chemscore.Rot>
1.9654

> <Gold.Chemscore.Internal.Correction>
   9.000000E+99

> <Gold.Chemscore.Hbonds>
donor molecule, donor type, donor heavy atom, donor atom, acceptor molecule, acceptor atom, score
      P1  H  7989  7998       L1    16  0.62

> <Gold.Chemscore.Hbond.Weighted>
-9.6940

> <Gold.Chemscore.Metal.Weighted>
-0.0000

> <Gold.Chemscore.Lipo.Weighted>
-9.0796

> <Gold.Chemscore.Internal_Hbond.Weighted>
0.0000

> <Gold.Chemscore.DEClash.Weighted>
0.0456

> <Gold.Chemscore.DEInternal.Weighted>
1.5318

> <Gold.Chemscore.Rot.Weighted>
5.0315

> <Gold.Chemscore.Internal.Correction.Weighted>
   9.000000E+99

> <Gold.Protein.RotatedTorsions>
[ 6907 6896 6895 6894 ] final  -10.93 input  -60.11 | X-H torsion
[ 7974 7965 7964 7962 ] final  -21.33 input  175.53 | X-H torsion
[ 8008 7997 7996 7995 ] final   32.47 input   59.86 | X-H torsion
[ 10167 10162 10161 10158 ] final   37.18 input  -65.29 | X-H torsion
[ 10718 10713 10712 10709 ] final  -26.82 input   66.30 | X-H torsion
[ 10763 10752 10751 10750 ] final    3.24 input  -60.55 | X-H torsion
[ 11005 11000 10999 10996 ] final   14.21 input  -57.11 | X-H torsion

> <Gold.Protein.ActiveResidues>
 VAL166  LYS551  ARG553  GLY616  TRP617  ASP618  TYR619  PRO620  LYS621  CYS622 
 ASP623  PHE694  ASN695  SER759  ASP760  ASP761  ALA762  ILE779  LEU786  VAL792 
 PHE793  MET794  SER795  GLU796  ALA797  LYS798  CYS799  TRP800  GLU811  SER814 

> <Gold.Protein.RotatedAtoms>
  151.3942  135.0961  159.9535 H   0  0  0  0  0  0  0  0  0  0  0  0  # atno 6907 bound_to 6896
  152.5070  133.8950  159.7423 H   0  0  0  0  0  0  0  0  0  0  0  0  # atno 6908 bound_to 6896
  150.9410  133.6600  159.2819 H   0  0  0  0  0  0  0  0  0  0  0  0  # atno 6909 bound_to 6896
  146.1739  140.4326  142.8521 H   0  0  0  0  0  0  0  0  0  0  0  0  # atno 7974 bound_to 7965
  155.1229  140.3250  155.4493 H   0  0  0  0  0  0  0  0  0  0  0  0  # atno 8008 bound_to 7997
  156.2657  140.2024  156.6299 H   0  0  0  0  0  0  0  0  0  0  0  0  # atno 8009 bound_to 7997
  154.6670  140.0541  157.0111 H   0  0  0  0  0  0  0  0  0  0  0  0  # atno 8010 bound_to 7997
  140.4057  144.1662  150.6136 H   0  0  0  0  0  0  0  0  0  0  0  0  # atno 10167 bound_to 10162
  156.4462  130.4474  149.7020 H   0  0  0  0  0  0  0  0  0  0  0  0  # atno 10718 bound_to 10713
  153.2857  135.6944  153.7341 H   0  0  0  0  0  0  0  0  0  0  0  0  # atno 10763 bound_to 10752
  153.6312  135.3410  155.3043 H   0  0  0  0  0  0  0  0  0  0  0  0  # atno 10764 bound_to 10752
  154.8509  135.4409  154.1924 H   0  0  0  0  0  0  0  0  0  0  0  0  # atno 10765 bound_to 10752
  140.4721  134.1021  155.7734 H   0  0  0  0  0  0  0  0  0  0  0  0  # atno 11005 bound_to 11000
  144.8205  140.6542  143.6356 LP  0  0  0  0  0  0  0  0  0  0  0  0  # atno 17320 bound_to 7965
  145.4265  139.1555  143.4045 LP  0  0  0  0  0  0  0  0  0  0  0  0  # atno 17321 bound_to 7965
  140.4692  143.2419  151.9113 LP  0  0  0  0  0  0  0  0  0  0  0  0  # atno 17342 bound_to 10162
  139.4783  144.5388  151.8559 LP  0  0  0  0  0  0  0  0  0  0  0  0  # atno 17343 bound_to 10162
  156.3865  130.7605  151.2603 LP  0  0  0  0  0  0  0  0  0  0  0  0  # atno 17370 bound_to 10713
  157.7504  131.0280  150.4032 LP  0  0  0  0  0  0  0  0  0  0  0  0  # atno 17371 bound_to 10713
  141.1572  133.8860  157.1945 LP  0  0  0  0  0  0  0  0  0  0  0  0  # atno 17394 bound_to 11000
  139.9879  135.0075  156.9906 LP  0  0  0  0  0  0  0  0  0  0  0  0  # atno 17395 bound_to 11000

$$$$
