AV-unprocessed.smi:577|AV-procd|sdf|2980|dock1
  -GOLD-   2262023493D 1   1.00000     0.00000
 Structure written by MMmdl.
 41 42  0  0  0  0  0  0  0  0  1 V2000
  146.4940  142.8729  153.7325 C   0  0  0  0  0  0  0  0  0  0  0  0
  146.9955  141.4482  153.5697 C   0  0  0  0  0  0  0  0  0  0  0  0
  146.7667  140.6605  152.5138 C   0  0  0  0  0  0  0  0  0  0  0  0
  147.5338  139.0979  152.6568 S   0  0  0  0  0  0  0  0  0  0  0  0
  148.2081  139.5662  154.2588 C   0  0  0  0  0  0  0  0  0  0  0  0
  148.9127  138.8147  154.9310 O   0  0  0  0  0  0  0  0  0  0  0  0
  147.7936  140.8626  154.5628 N   0  0  0  0  0  0  0  0  0  0  0  0
  148.1599  141.5392  155.8142 C   0  0  0  0  0  0  0  0  0  0  0  0
  149.6755  141.6210  156.0410 C   0  0  0  0  0  0  0  0  0  0  0  0
  150.4648  141.1044  155.2488 O   0  0  0  0  0  0  0  0  0  0  0  0
  150.0607  142.2909  157.1381 N   0  0  0  0  0  0  0  0  0  0  0  0
  151.4381  142.5203  157.5718 C   0  0  0  0  0  0  0  0  0  0  0  0
  151.6211  141.9294  158.9852 C   0  0  0  0  0  0  0  0  0  0  0  0
  152.9469  142.3078  159.6715 C   0  0  0  0  0  0  0  0  0  0  0  0
  152.7925  143.1973  160.9192 C   0  0  0  0  0  0  0  0  0  0  0  0
  151.7985  144.3742  160.8273 C   0  0  0  0  0  0  0  0  0  0  0  0
  151.9836  145.3343  159.6388 C   0  0  0  0  0  0  0  0  0  0  0  0
  151.1462  145.0039  158.3840 C   0  0  0  0  0  0  0  0  0  0  0  0
  151.7993  144.0149  157.4002 C   0  0  0  0  0  0  0  0  0  0  0  0
  146.2269  143.2914  152.7619 H   0  0  0  0  0  0  0  0  0  0  0  0
  147.2509  143.5244  154.1685 H   0  0  0  0  0  0  0  0  0  0  0  0
  145.6067  142.8918  154.3650 H   0  0  0  0  0  0  0  0  0  0  0  0
  146.1899  140.9159  151.6371 H   0  0  0  0  0  0  0  0  0  0  0  0
  147.7315  142.5409  155.8520 H   0  0  0  0  0  0  0  0  0  0  0  0
  147.7166  141.0059  156.6571 H   0  0  0  0  0  0  0  0  0  0  0  0
  149.3372  142.6817  157.7239 H   0  0  0  0  0  0  0  0  0  0  0  0
  152.1189  141.9735  156.9173 H   0  0  0  0  0  0  0  0  0  0  0  0
  150.7713  142.1836  159.6175 H   0  0  0  0  0  0  0  0  0  0  0  0
  151.5761  140.8426  158.8999 H   0  0  0  0  0  0  0  0  0  0  0  0
  153.4573  141.3928  159.9745 H   0  0  0  0  0  0  0  0  0  0  0  0
  153.6326  142.7765  158.9675 H   0  0  0  0  0  0  0  0  0  0  0  0
  152.4863  142.5687  161.7563 H   0  0  0  0  0  0  0  0  0  0  0  0
  153.7767  143.5819  161.1894 H   0  0  0  0  0  0  0  0  0  0  0  0
  150.7689  144.0191  160.8629 H   0  0  0  0  0  0  0  0  0  0  0  0
  151.9165  144.9538  161.7437 H   0  0  0  0  0  0  0  0  0  0  0  0
  151.6597  146.3191  159.9782 H   0  0  0  0  0  0  0  0  0  0  0  0
  153.0394  145.4521  159.3925 H   0  0  0  0  0  0  0  0  0  0  0  0
  150.1373  144.6893  158.6524 H   0  0  0  0  0  0  0  0  0  0  0  0
  151.0151  145.9416  157.8428 H   0  0  0  0  0  0  0  0  0  0  0  0
  152.8804  144.1518  157.4065 H   0  0  0  0  0  0  0  0  0  0  0  0
  151.5051  144.3040  156.3901 H   0  0  0  0  0  0  0  0  0  0  0  0
  1  2  1  0  0  0  0
  1 20  1  0  0  0  0
  1 21  1  0  0  0  0
  1 22  1  0  0  0  0
  2  7  1  0  0  0  0
  2  3  2  0  0  0  0
  3  4  1  0  0  0  0
  3 23  1  0  0  0  0
  4  5  1  0  0  0  0
  5  6  2  0  0  0  0
  5  7  1  0  0  0  0
  7  8  1  0  0  0  0
  8  9  1  0  0  0  0
  8 24  1  0  0  0  0
  8 25  1  0  0  0  0
  9 10  2  0  0  0  0
  9 11  1  0  0  0  0
 11 12  1  0  0  0  0
 11 26  1  0  0  0  0
 12 19  1  0  0  0  0
 12 13  1  0  0  0  0
 12 27  1  0  0  0  0
 13 14  1  0  0  0  0
 13 28  1  0  0  0  0
 13 29  1  0  0  0  0
 14 15  1  0  0  0  0
 14 30  1  0  0  0  0
 14 31  1  0  0  0  0
 15 16  1  0  0  0  0
 15 32  1  0  0  0  0
 15 33  1  0  0  0  0
 16 17  1  0  0  0  0
 16 34  1  0  0  0  0
 16 35  1  0  0  0  0
 17 18  1  0  0  0  0
 17 36  1  0  0  0  0
 17 37  1  0  0  0  0
 18 19  1  0  0  0  0
 18 38  1  0  0  0  0
 18 39  1  0  0  0  0
 19 40  1  0  0  0  0
 19 41  1  0  0  0  0
M  END
> <s_m_source_file>
AV-unprocessed.smi

> <i_m_source_file_index>
577

> <i_lp_mmshare_version>
43012

> <i_f3d_flags>
0

> <s_epik_input>
W0NIM11jMVtjSF1zYyg9TyluMVtDSDJdQyg9TylbTkhdW0NIXTJbQ0gyXVtDSDJdW0NIMl1bQ0gyXVtDSDJdW0NIMl1bQ0gyXTI=

> <s_epik_cmdline>
J2VwaWtfcHl0aG9uJywgJy1waCcsICc3LjAnLCAnLXRuJywgJzgnLCAnLW1hJywgJzIwMCcsICctbWV0YWxfYmluZGluZycsICctaW1hZScsICc8aW5maWxlLm1hZT4nLCAnLW9tYWUnLCAnPG91dGZpbGUubWFlPic=

> <r_lp_tautomer_probability>
1

> <r_epik_Ionization_Penalty>
1.32564e-06

> <r_epik_Ionization_Penalty_Charging>
1.22505e-06

> <r_epik_Ionization_Penalty_Neutral>
1.00582e-07

> <r_epik_State_Penalty>
-0

> <r_epik_Charging_Adjusted_Penalty>
1.22505e-06

> <i_epik_Tot_Q>
0

> <i_epik_Tot_abs_Q>
0

> <r_epik_Metal_State_Penalty>
-0

> <b_epik_Metal_Only>
0

> <s_lp_Force_Field>
OPLS_2005

> <r_lp_Energy>
25.6493

> <b_lp_Chiralities_Consistent>
1

> <s_lp_Variant>
AV-unprocessed.smi:577-1

> <Gold.Version>
5.8.1

> <Gold.Id.Protein>
6NUR|6NUR_protein|mol2

> <Gold.PLP.Fitness>
43.7335

> <Gold.PLP.PLP>
-41.5083

> <Gold.PLP.part.hbond>
-1.6728

> <Gold.PLP.part.metal>
0.0000

> <Gold.PLP.part.buried>
-0.6895

> <Gold.PLP.part.nonpolar>
-39.1201

> <Gold.PLP.part.repulsive>
0.2042

> <Gold.PLP.ligand.clash>
0.0000

> <Gold.PLP.ligand.torsion>
0.0705

> <Gold.PLP.Chemscore.Hbond>
0.5262

> <Gold.PLP.Chemscore.CHOScore>
0.2502

> <Gold.PLP.Chemscore.Metal>
0.0000

> <Gold.Chemscore.Hbonds>
donor molecule, donor type, donor heavy atom, donor atom, acceptor molecule, acceptor atom, score
      P1  H  7989  7998       L1    10  0.55
      L1  C     3    23       P1 10175  0.10

> <Gold.PLP.Chemscore.Internal.Correction>
0.0370

> <Gold.Rescore>
     Score         DG    S(hbond)    S(metal)    S(lipo)     H(rot)  DE(clash)    DE(int)     intcor
     16.88     -18.54       0.61        0.00     124.57       1.39       0.71       0.95       ----

> <Gold.Chemscore.Fitness>
16.8832

> <Gold.Chemscore.DG>
-18.5420

> <Gold.Chemscore.ZeroCoef>
-5.4800

> <Gold.Chemscore.Hbond>
0.6093

> <Gold.Chemscore.Metal>
0.0000

> <Gold.Chemscore.Lipo>
124.5690

> <Gold.Chemscore.Internal_Hbond>
0.0000

> <Gold.Chemscore.DEClash>
0.7122

> <Gold.Chemscore.DEInternal>
0.9465

> <Gold.Chemscore.Rot>
1.3858

> <Gold.Chemscore.Internal.Correction>
   9.000000E+99

> <Gold.Chemscore.Hbonds>
donor molecule, donor type, donor heavy atom, donor atom, acceptor molecule, acceptor atom, score
      P1  H  7989  7998       L1    10  0.55

> <Gold.Chemscore.Hbond.Weighted>
-2.0350

> <Gold.Chemscore.Metal.Weighted>
-0.0000

> <Gold.Chemscore.Lipo.Weighted>
-14.5746

> <Gold.Chemscore.Internal_Hbond.Weighted>
0.0000

> <Gold.Chemscore.DEClash.Weighted>
0.7122

> <Gold.Chemscore.DEInternal.Weighted>
0.9465

> <Gold.Chemscore.Rot.Weighted>
3.5476

> <Gold.Chemscore.Internal.Correction.Weighted>
   9.000000E+99

> <Gold.Protein.RotatedTorsions>
[ 6907 6896 6895 6894 ] final  130.40 input  -60.11 | X-H torsion
[ 7974 7965 7964 7962 ] final   19.28 input  175.53 | X-H torsion
[ 8008 7997 7996 7995 ] final  -81.09 input   59.86 | X-H torsion
[ 10167 10162 10161 10158 ] final  -34.56 input  -65.29 | X-H torsion
[ 10718 10713 10712 10709 ] final  136.78 input   66.30 | X-H torsion
[ 10763 10752 10751 10750 ] final   57.06 input  -60.55 | X-H torsion
[ 11005 11000 10999 10996 ] final -155.05 input  -57.11 | X-H torsion

> <Gold.Protein.ActiveResidues>
 VAL166  LYS551  ARG553  GLY616  TRP617  ASP618  TYR619  PRO620  LYS621  CYS622 
 ASP623  PHE694  ASN695  SER759  ASP760  ASP761  ALA762  ILE779  LEU786  VAL792 
 PHE793  MET794  SER795  GLU796  ALA797  LYS798  CYS799  TRP800  GLU811  SER814 

> <Gold.Protein.RotatedAtoms>
  152.3530  133.6203  159.5958 H   0  0  0  0  0  0  0  0  0  0  0  0  # atno 6907 bound_to 6896
  150.7550  133.9544  159.3505 H   0  0  0  0  0  0  0  0  0  0  0  0  # atno 6908 bound_to 6896
  151.7393  135.0858  160.0364 H   0  0  0  0  0  0  0  0  0  0  0  0  # atno 6909 bound_to 6896
  146.2155  139.8335  142.8655 H   0  0  0  0  0  0  0  0  0  0  0  0  # atno 7974 bound_to 7965
  154.5948  140.0653  156.9288 H   0  0  0  0  0  0  0  0  0  0  0  0  # atno 8008 bound_to 7997
  155.2233  140.3332  155.4294 H   0  0  0  0  0  0  0  0  0  0  0  0  # atno 8009 bound_to 7997
  156.2280  140.1828  156.7299 H   0  0  0  0  0  0  0  0  0  0  0  0  # atno 8010 bound_to 7997
  140.7183  143.3539  151.2099 H   0  0  0  0  0  0  0  0  0  0  0  0  # atno 10167 bound_to 10162
  157.4431  131.1059  151.0120 H   0  0  0  0  0  0  0  0  0  0  0  0  # atno 10718 bound_to 10713
  152.9843  135.5654  154.5330 H   0  0  0  0  0  0  0  0  0  0  0  0  # atno 10763 bound_to 10752
  154.4798  135.2788  155.1581 H   0  0  0  0  0  0  0  0  0  0  0  0  # atno 10764 bound_to 10752
  154.3094  135.6291  153.5512 H   0  0  0  0  0  0  0  0  0  0  0  0  # atno 10765 bound_to 10752
  140.6906  134.4045  157.5219 H   0  0  0  0  0  0  0  0  0  0  0  0  # atno 11005 bound_to 11000
  145.2973  141.0184  143.3629 LP  0  0  0  0  0  0  0  0  0  0  0  0  # atno 17320 bound_to 7965
  144.9032  139.4622  143.6622 LP  0  0  0  0  0  0  0  0  0  0  0  0  # atno 17321 bound_to 7965
  139.7076  143.9430  152.2933 LP  0  0  0  0  0  0  0  0  0  0  0  0  # atno 17342 bound_to 10162
  139.9144  144.6837  150.8528 LP  0  0  0  0  0  0  0  0  0  0  0  0  # atno 17343 bound_to 10162
  157.0977  130.5968  149.5453 LP  0  0  0  0  0  0  0  0  0  0  0  0  # atno 17370 bound_to 10713
  155.9956  130.5024  150.7467 LP  0  0  0  0  0  0  0  0  0  0  0  0  # atno 17371 bound_to 10713
  139.8924  134.8755  156.2271 LP  0  0  0  0  0  0  0  0  0  0  0  0  # atno 17394 bound_to 11000
  141.0244  133.7023  156.1323 LP  0  0  0  0  0  0  0  0  0  0  0  0  # atno 17395 bound_to 11000

$$$$
