AV-unprocessed.smi:1|AV-procd|sdf|10|dock1
  -GOLD-   2262015 93D 1   1.00000     0.00000
 Structure written by MMmdl.
 57 62  0  0  0  0  0  0  0  0  1 V2000
  152.8273  141.0269  161.9890 O   0  0  0  0  0  0  0  0  0  0  0  0
  152.8240  141.1807  160.7647 C   0  0  0  0  0  0  0  0  0  0  0  0
  153.1754  140.2755  159.7724 N   0  0  0  0  0  0  0  0  0  0  0  0
  153.3990  139.0324  160.0736 C   0  0  0  0  0  0  0  0  0  0  0  0
  153.3760  138.3320  161.2864 N   0  0  0  0  0  0  0  0  0  0  0  0
  153.6428  136.9643  161.4523 C   0  0  0  0  0  0  0  0  0  0  0  0
  153.9488  136.1404  160.4858 N   0  0  0  0  0  0  0  0  0  0  0  0
  153.9691  136.7829  159.2559 C   0  0  0  0  0  0  0  0  0  0  0  0
  153.7333  138.1095  158.9685 C   0  0  0  0  0  0  0  0  0  0  0  0
  153.8306  138.3425  157.6028 N   0  0  0  0  0  0  0  0  0  0  0  0
  154.1157  137.1359  157.1221 C   0  0  0  0  0  0  0  0  0  0  0  0
  154.2212  136.1516  158.0412 N   0  0  0  0  0  0  0  0  0  0  0  0
  154.5324  134.6915  157.8565 C   0  0  1  0  0  0  0  0  0  0  0  0
  155.6613  134.6152  157.0362 O   0  0  0  0  0  0  0  0  0  0  0  0
  156.8302  134.3141  157.7981 C   0  0  1  0  0  0  0  0  0  0  0  0
  158.0082  135.2444  157.4654 C   0  0  0  0  0  0  0  0  0  0  0  0
  158.5844  134.9534  156.1977 O   0  0  0  0  0  0  0  0  0  0  0  0
  157.9950  135.3794  155.0573 C   0  0  0  0  0  0  0  0  0  0  0  0
  156.8539  135.8421  155.0062 O   0  0  0  0  0  0  0  0  0  0  0  0
  158.8723  135.2387  153.8608 C   0  0  0  0  0  0  0  0  0  0  0  0
  160.2151  134.8291  154.0323 C   0  0  0  0  0  0  0  0  0  0  0  0
  161.0647  134.6722  152.9205 C   0  0  0  0  0  0  0  0  0  0  0  0
  160.5799  134.9189  151.6229 C   0  0  0  0  0  0  0  0  0  0  0  0
  159.2462  135.3272  151.4393 C   0  0  0  0  0  0  0  0  0  0  0  0
  158.3966  135.4903  152.5506 C   0  0  0  0  0  0  0  0  0  0  0  0
  156.4142  134.2670  159.2746 C   0  0  2  0  0  0  0  0  0  0  0  0
  156.9988  133.1707  159.9601 O   0  0  0  0  0  0  0  0  0  0  0  0
  155.9827  131.8482  159.8201 S   0  0  0  0  0  0  0  0  0  0  0  0
  156.5793  130.9017  158.8653 O   0  0  0  0  0  0  0  0  0  0  0  0
  155.5592  131.4504  161.1712 O   0  0  0  0  0  0  0  0  0  0  0  0
  154.6993  132.6101  159.0706 O   0  0  0  0  0  0  0  0  0  0  0  0
  154.9077  134.0060  159.1731 C   0  0  2  0  0  0  0  0  0  0  0  0
  152.3659  142.4962  160.2256 C   0  0  0  0  0  0  0  0  0  0  0  0
  152.1527  142.6576  158.8402 C   0  0  0  0  0  0  0  0  0  0  0  0
  151.7104  143.8953  158.3336 C   0  0  0  0  0  0  0  0  0  0  0  0
  151.4757  144.9728  159.2100 C   0  0  0  0  0  0  0  0  0  0  0  0
  151.6858  144.8137  160.5936 C   0  0  0  0  0  0  0  0  0  0  0  0
  152.1309  143.5775  161.1012 C   0  0  0  0  0  0  0  0  0  0  0  0
  153.5758  136.6218  162.4857 H   0  0  0  0  0  0  0  0  0  0  0  0
  154.2427  136.9811  156.0619 H   0  0  0  0  0  0  0  0  0  0  0  0
  153.6399  134.2850  157.3796 H   0  0  0  0  0  0  0  0  0  0  0  0
  157.1146  133.3073  157.4906 H   0  0  0  0  0  0  0  0  0  0  0  0
  157.6504  136.2735  157.4385 H   0  0  0  0  0  0  0  0  0  0  0  0
  158.7546  135.2084  158.2601 H   0  0  0  0  0  0  0  0  0  0  0  0
  160.6066  134.6245  155.0183 H   0  0  0  0  0  0  0  0  0  0  0  0
  162.0868  134.3537  153.0632 H   0  0  0  0  0  0  0  0  0  0  0  0
  161.2292  134.7926  150.7691 H   0  0  0  0  0  0  0  0  0  0  0  0
  158.8723  135.5133  150.4431 H   0  0  0  0  0  0  0  0  0  0  0  0
  157.3764  135.7974  152.3743 H   0  0  0  0  0  0  0  0  0  0  0  0
  156.6163  135.2095  159.7839 H   0  0  0  0  0  0  0  0  0  0  0  0
  154.3285  134.3716  160.0206 H   0  0  0  0  0  0  0  0  0  0  0  0
  152.3268  141.8344  158.1621 H   0  0  0  0  0  0  0  0  0  0  0  0
  151.5494  144.0176  157.2727 H   0  0  0  0  0  0  0  0  0  0  0  0
  151.1348  145.9207  158.8207 H   0  0  0  0  0  0  0  0  0  0  0  0
  151.5053  145.6398  161.2657 H   0  0  0  0  0  0  0  0  0  0  0  0
  152.2891  143.4632  162.1636 H   0  0  0  0  0  0  0  0  0  0  0  0
  153.1489  138.8607  162.1162 H   0  0  0  0  0  0  0  0  0  0  0  0
  1  2  2  0  0  0  0
  2  3  1  0  0  0  0
  2 33  1  0  0  0  0
  3  4  2  0  0  0  0
  4  9  1  0  0  0  0
  4  5  1  0  0  0  0
  5  6  1  0  0  0  0
  5 57  1  0  0  0  0
  6  7  2  0  0  0  0
  6 39  1  0  0  0  0
  7  8  1  0  0  0  0
  8 12  1  0  0  0  0
  8  9  2  0  0  0  0
  9 10  1  0  0  0  0
 10 11  2  0  0  0  0
 11 12  1  0  0  0  0
 11 40  1  0  0  0  0
 12 13  1  0  0  0  0
 13 32  1  0  0  0  0
 13 14  1  0  0  0  0
 13 41  1  0  0  0  0
 14 15  1  0  0  0  0
 15 16  1  0  0  0  0
 15 26  1  0  0  0  0
 15 42  1  0  0  0  0
 16 17  1  0  0  0  0
 16 43  1  0  0  0  0
 16 44  1  0  0  0  0
 17 18  1  0  0  0  0
 18 19  2  0  0  0  0
 18 20  1  0  0  0  0
 20 25  1  0  0  0  0
 20 21  2  0  0  0  0
 21 22  1  0  0  0  0
 21 45  1  0  0  0  0
 22 23  2  0  0  0  0
 22 46  1  0  0  0  0
 23 24  1  0  0  0  0
 23 47  1  0  0  0  0
 24 25  2  0  0  0  0
 24 48  1  0  0  0  0
 25 49  1  0  0  0  0
 26 32  1  0  0  0  0
 26 27  1  0  0  0  0
 26 50  1  0  0  0  0
 27 28  1  0  0  0  0
 28 29  2  0  0  0  0
 28 30  2  0  0  0  0
 28 31  1  0  0  0  0
 31 32  1  0  0  0  0
 32 51  1  0  0  0  0
 33 38  1  0  0  0  0
 33 34  2  0  0  0  0
 34 35  1  0  0  0  0
 34 52  1  0  0  0  0
 35 36  2  0  0  0  0
 35 53  1  0  0  0  0
 36 37  1  0  0  0  0
 36 54  1  0  0  0  0
 37 38  2  0  0  0  0
 37 55  1  0  0  0  0
 38 56  1  0  0  0  0
M  END
> <s_m_source_file>
AV-unprocessed.smi

> <i_m_source_file_index>
1

> <i_lp_mmshare_version>
43012

> <i_f3d_flags>
0

> <s_epik_input>
W2NIXTFbY0hdW2NIXVtjSF1bY0hdYzFDKD1PKVtOSF1jKG5bY0hdbjIpYyhjMjMpbltjSF1uM1tDQEBIXShbQ0BIXShbQ0BIXTQ1KU9TKE81KSg9Tyk9TylPW0NASF00W0NIMl1PQyg9TyljNltjSF1bY0hdW2NIXVtjSF1bY0hdNg==

> <s_epik_cmdline>
J2VwaWtfcHl0aG9uJywgJy1waCcsICc3LjAnLCAnLXRuJywgJzgnLCAnLW1hJywgJzIwMCcsICctbWV0YWxfYmluZGluZycsICctaW1hZScsICc8aW5maWxlLm1hZT4nLCAnLW9tYWUnLCAnPG91dGZpbGUubWFlPic=

> <r_epik_Ionization_Penalty>
0.122545

> <r_epik_Ionization_Penalty_Charging>
0.122545

> <r_epik_Ionization_Penalty_Neutral>
7.8935e-16

> <r_epik_State_Penalty>
2.69178

> <r_epik_Charging_Adjusted_Penalty>
2.81433

> <i_epik_Tot_Q>
0

> <i_epik_Tot_abs_Q>
0

> <r_epik_Metal_State_Penalty>
3.02665

> <b_epik_Metal_Only>
0

> <s_epik_Chemistry_Notes>
This compound has an ester and may undergo hydrolysis at high or low pH. This compound contains an acetal/aminal-like group ( X-CH(R)-Y where X, Y are N, S, or O) that may be acid/base labile, releasing an aldehyde.

> <s_lp_Force_Field>
OPLS_2005

> <r_lp_Energy>
55.0636

> <b_lp_Chiralities_Consistent>
1

> <s_lp_Variant>
AV-unprocessed.smi:1-10

> <Gold.Version>
5.8.1

> <Gold.Id.Protein>
6NUR|6NUR_protein|mol2

> <Gold.PLP.Fitness>
57.6353

> <Gold.PLP.PLP>
-55.3769

> <Gold.PLP.part.hbond>
-2.0000

> <Gold.PLP.part.metal>
0.0000

> <Gold.PLP.part.buried>
-9.2847

> <Gold.PLP.part.nonpolar>
-44.3239

> <Gold.PLP.part.repulsive>
0.1051

> <Gold.PLP.ligand.clash>
2.4087

> <Gold.PLP.ligand.torsion>
0.7054

> <Gold.PLP.Chemscore.Hbond>
1.8640

> <Gold.PLP.Chemscore.CHOScore>
0.0000

> <Gold.PLP.Chemscore.Metal>
0.0000

> <Gold.Chemscore.Hbonds>
donor molecule, donor type, donor heavy atom, donor atom, acceptor molecule, acceptor atom, score
      P1  H  6896  6907       L1     7  0.53
      P1  H  7997  8010       L1    10  0.86
      P1  H 10752 10763       L1    19  1.00

> <Gold.PLP.Chemscore.Internal.Correction>
0.4859

> <Gold.Rescore>
     Score         DG    S(hbond)    S(metal)    S(lipo)     H(rot)  DE(clash)    DE(int)     intcor
     17.72     -21.66       1.53        0.00     141.32       2.13       0.04       3.89       ----

> <Gold.Chemscore.Fitness>
17.7215

> <Gold.Chemscore.DG>
-21.6571

> <Gold.Chemscore.ZeroCoef>
-5.4800

> <Gold.Chemscore.Hbond>
1.5282

> <Gold.Chemscore.Metal>
0.0000

> <Gold.Chemscore.Lipo>
141.3195

> <Gold.Chemscore.Internal_Hbond>
0.0000

> <Gold.Chemscore.DEClash>
0.0419

> <Gold.Chemscore.DEInternal>
3.8937

> <Gold.Chemscore.Rot>
2.1333

> <Gold.Chemscore.Internal.Correction>
   9.000000E+99

> <Gold.Chemscore.Hbonds>
donor molecule, donor type, donor heavy atom, donor atom, acceptor molecule, acceptor atom, score
      P1  H  6896  6907       L1     7  0.10
      P1  H  7997  8010       L1    10  0.85
      P1  H 10752 10763       L1    19  0.93

> <Gold.Chemscore.Hbond.Weighted>
-5.1041

> <Gold.Chemscore.Metal.Weighted>
-0.0000

> <Gold.Chemscore.Lipo.Weighted>
-16.5344

> <Gold.Chemscore.Internal_Hbond.Weighted>
0.0000

> <Gold.Chemscore.DEClash.Weighted>
0.0419

> <Gold.Chemscore.DEInternal.Weighted>
3.8937

> <Gold.Chemscore.Rot.Weighted>
5.4614

> <Gold.Chemscore.Internal.Correction.Weighted>
   9.000000E+99

> <Gold.Protein.RotatedTorsions>
[ 6907 6896 6895 6894 ] final   68.90 input  -60.11 | X-H torsion
[ 7974 7965 7964 7962 ] final  112.11 input  175.53 | X-H torsion
[ 8008 7997 7996 7995 ] final   47.91 input   59.86 | X-H torsion
[ 10167 10162 10161 10158 ] final   10.12 input  -65.29 | X-H torsion
[ 10718 10713 10712 10709 ] final  177.40 input   66.30 | X-H torsion
[ 10763 10752 10751 10750 ] final -140.37 input  -60.55 | X-H torsion
[ 11005 11000 10999 10996 ] final   39.22 input  -57.11 | X-H torsion

> <Gold.Protein.ActiveResidues>
 VAL166  LYS551  ARG553  GLY616  TRP617  ASP618  TYR619  PRO620  LYS621  CYS622 
 ASP623  PHE694  ASN695  SER759  ASP760  ASP761  ALA762  ILE779  LEU786  VAL792 
 PHE793  MET794  SER795  GLU796  ALA797  LYS798  CYS799  TRP800  GLU811  SER814 

> <Gold.Protein.RotatedAtoms>
  152.4651  134.5095  159.9749 H   0  0  0  0  0  0  0  0  0  0  0  0  # atno 6907 bound_to 6896
  151.5135  133.3474  159.2897 H   0  0  0  0  0  0  0  0  0  0  0  0  # atno 6908 bound_to 6896
  150.8631  134.8016  159.7160 H   0  0  0  0  0  0  0  0  0  0  0  0  # atno 6909 bound_to 6896
  145.2337  139.2808  143.4154 H   0  0  0  0  0  0  0  0  0  0  0  0  # atno 7974 bound_to 7965
  155.3770  140.3426  155.4245 H   0  0  0  0  0  0  0  0  0  0  0  0  # atno 8008 bound_to 7997
  156.1631  140.1607  156.8611 H   0  0  0  0  0  0  0  0  0  0  0  0  # atno 8009 bound_to 7997
  154.5159  140.0778  156.8062 H   0  0  0  0  0  0  0  0  0  0  0  0  # atno 8010 bound_to 7997
  140.6213  143.8197  150.7179 H   0  0  0  0  0  0  0  0  0  0  0  0  # atno 10167 bound_to 10162
  156.9058  130.9894  151.3028 H   0  0  0  0  0  0  0  0  0  0  0  0  # atno 10718 bound_to 10713
  154.8581  135.3555  154.5696 H   0  0  0  0  0  0  0  0  0  0  0  0  # atno 10763 bound_to 10752
  153.6309  135.7002  153.5280 H   0  0  0  0  0  0  0  0  0  0  0  0  # atno 10764 bound_to 10752
  153.3050  135.4195  155.1245 H   0  0  0  0  0  0  0  0  0  0  0  0  # atno 10765 bound_to 10752
  140.2049  134.3825  155.8077 H   0  0  0  0  0  0  0  0  0  0  0  0  # atno 11005 bound_to 11000
  146.3346  140.2680  142.8604 LP  0  0  0  0  0  0  0  0  0  0  0  0  # atno 17320 bound_to 7965
  144.9652  140.8315  143.5489 LP  0  0  0  0  0  0  0  0  0  0  0  0  # atno 17321 bound_to 7965
  140.1788  143.4132  152.1948 LP  0  0  0  0  0  0  0  0  0  0  0  0  # atno 17342 bound_to 10162
  139.5441  144.7283  151.4638 LP  0  0  0  0  0  0  0  0  0  0  0  0  # atno 17343 bound_to 10162
  157.5998  130.8504  149.8784 LP  0  0  0  0  0  0  0  0  0  0  0  0  # atno 17370 bound_to 10713
  156.0559  130.3708  150.1091 LP  0  0  0  0  0  0  0  0  0  0  0  0  # atno 17371 bound_to 10713
  141.2227  133.7113  156.8321 LP  0  0  0  0  0  0  0  0  0  0  0  0  # atno 17394 bound_to 11000
  140.2013  134.8895  157.3172 LP  0  0  0  0  0  0  0  0  0  0  0  0  # atno 17395 bound_to 11000

$$$$
