AV-unprocessed.smi:3323|AV-procd|sdf|12778|dock2
  -GOLD-   2272019123D 1   1.00000     0.00000
 Structure written by MMmdl.
 37 38  0  0  0  0  0  0  0  0  1 V2000
  144.6424  144.3508  153.9373 C   0  0  0  0  0  0  0  0  0  0  0  0
  145.1078  142.8945  154.0456 C   0  0  1  0  0  0  0  0  0  0  0  0
  146.6354  142.7624  153.9000 C   0  0  0  0  0  0  0  0  0  0  0  0
  147.0812  141.3005  154.0873 C   0  0  1  0  0  0  0  0  0  0  0  0
  148.6131  141.1278  154.0256 C   0  0  0  0  0  0  0  0  0  0  0  0
  149.3123  142.0057  154.9584 N   0  0  0  0  0  0  0  0  0  0  0  0
  150.1017  141.5954  155.9606 C   0  0  0  0  0  0  0  0  0  0  0  0
  150.3159  140.4101  156.2124 O   0  0  0  0  0  0  0  0  0  0  0  0
  150.6026  142.6426  156.6384 N   0  0  0  0  0  0  0  0  0  0  0  0
  151.4537  142.6475  157.7772 C   0  0  0  0  0  0  0  0  0  0  0  0
  152.0152  143.8108  158.3581 C   0  0  0  0  0  0  0  0  0  0  0  0
  152.8370  143.6744  159.4936 C   0  0  0  0  0  0  0  0  0  0  0  0
  153.0619  142.3842  160.0112 C   0  0  0  0  0  0  0  0  0  0  0  0
  152.5228  141.2685  159.4766 N   0  0  0  0  0  0  0  0  0  0  0  0
  151.7363  141.4072  158.3882 C   0  0  0  0  0  0  0  0  0  0  0  0
  146.5142  140.7786  155.4167 C   0  0  0  0  0  0  0  0  0  0  0  0
  144.9969  141.0110  155.4933 C   0  0  0  0  0  0  0  0  0  0  0  0
  144.7073  142.3936  155.3177 O   0  0  0  0  0  0  0  0  0  0  0  0
  144.9162  144.7796  152.9730 H   0  0  0  0  0  0  0  0  0  0  0  0
  145.0891  144.9677  154.7176 H   0  0  0  0  0  0  0  0  0  0  0  0
  143.5590  144.4218  154.0356 H   0  0  0  0  0  0  0  0  0  0  0  0
  144.6143  142.3147  153.2635 H   0  0  0  0  0  0  0  0  0  0  0  0
  146.9401  143.1304  152.9197 H   0  0  0  0  0  0  0  0  0  0  0  0
  147.1303  143.3947  154.6385 H   0  0  0  0  0  0  0  0  0  0  0  0
  146.6395  140.7080  153.2846 H   0  0  0  0  0  0  0  0  0  0  0  0
  148.8815  140.0993  154.2684 H   0  0  0  0  0  0  0  0  0  0  0  0
  148.9745  141.3067  153.0116 H   0  0  0  0  0  0  0  0  0  0  0  0
  149.1883  142.9989  154.8267 H   0  0  0  0  0  0  0  0  0  0  0  0
  150.2875  143.5526  156.3358 H   0  0  0  0  0  0  0  0  0  0  0  0
  151.8283  144.7995  157.9698 H   0  0  0  0  0  0  0  0  0  0  0  0
  153.2827  144.5408  159.9592 H   0  0  0  0  0  0  0  0  0  0  0  0
  153.6879  142.2449  160.8803 H   0  0  0  0  0  0  0  0  0  0  0  0
  151.3217  140.4934  157.9877 H   0  0  0  0  0  0  0  0  0  0  0  0
  146.7321  139.7160  155.5287 H   0  0  0  0  0  0  0  0  0  0  0  0
  146.9989  141.2866  156.2516 H   0  0  0  0  0  0  0  0  0  0  0  0
  144.4732  140.4192  154.7410 H   0  0  0  0  0  0  0  0  0  0  0  0
  144.6192  140.6943  156.4656 H   0  0  0  0  0  0  0  0  0  0  0  0
  1  2  1  0  0  0  0
  1 19  1  0  0  0  0
  1 20  1  0  0  0  0
  1 21  1  0  0  0  0
  2 18  1  0  0  0  0
  2  3  1  0  0  0  0
  2 22  1  0  0  0  0
  3  4  1  0  0  0  0
  3 23  1  0  0  0  0
  3 24  1  0  0  0  0
  4  5  1  0  0  0  0
  4 16  1  0  0  0  0
  4 25  1  0  0  0  0
  5  6  1  0  0  0  0
  5 26  1  0  0  0  0
  5 27  1  0  0  0  0
  6  7  1  0  0  0  0
  6 28  1  0  0  0  0
  7  8  2  0  0  0  0
  7  9  1  0  0  0  0
  9 10  1  0  0  0  0
  9 29  1  0  0  0  0
 10 15  1  0  0  0  0
 10 11  2  0  0  0  0
 11 12  1  0  0  0  0
 11 30  1  0  0  0  0
 12 13  2  0  0  0  0
 12 31  1  0  0  0  0
 13 14  1  0  0  0  0
 13 32  1  0  0  0  0
 14 15  2  0  0  0  0
 15 33  1  0  0  0  0
 16 17  1  0  0  0  0
 16 34  1  0  0  0  0
 16 35  1  0  0  0  0
 17 18  1  0  0  0  0
 17 36  1  0  0  0  0
 17 37  1  0  0  0  0
M  END
> <s_m_source_file>
AV-unprocessed.smi

> <i_m_source_file_index>
3323

> <i_lp_mmshare_version>
43012

> <i_f3d_flags>
0

> <s_epik_input>
W0NIM11bQ0BASF0xW0NIMl1bQ0BIXShbQ0gyXVtDSDJdTzEpW0NIMl1bTkhdQyg9TylbTkhdYzJbY0hdW2NIXVtjSF1uW2NIXTI=

> <s_epik_cmdline>
J2VwaWtfcHl0aG9uJywgJy1waCcsICc3LjAnLCAnLXRuJywgJzgnLCAnLW1hJywgJzIwMCcsICctbWV0YWxfYmluZGluZycsICctaW1hZScsICc8aW5maWxlLm1hZT4nLCAnLW9tYWUnLCAnPG91dGZpbGUubWFlPic=

> <r_epik_Ionization_Penalty>
0.00485293

> <r_epik_Ionization_Penalty_Charging>
0

> <r_epik_Ionization_Penalty_Neutral>
0.00485293

> <r_epik_State_Penalty>
0.00349083

> <r_epik_Charging_Adjusted_Penalty>
0.00349083

> <i_epik_Tot_Q>
0

> <i_epik_Tot_abs_Q>
0

> <r_epik_Metal_State_Penalty>
-0

> <b_epik_Metal_Only>
0

> <s_lp_Force_Field>
OPLS_2005

> <r_lp_Energy>
10.9361

> <b_lp_Chiralities_Consistent>
1

> <s_lp_Variant>
AV-unprocessed.smi:3323-2

> <Gold.Version>
5.8.1

> <Gold.Id.Protein>
6NUR|6NUR_protein|mol2

> <Gold.PLP.Fitness>
43.1640

> <Gold.PLP.PLP>
-37.3095

> <Gold.PLP.part.hbond>
-2.0000

> <Gold.PLP.part.metal>
0.0000

> <Gold.PLP.part.buried>
-6.0443

> <Gold.PLP.part.nonpolar>
-29.9071

> <Gold.PLP.part.repulsive>
0.4253

> <Gold.PLP.ligand.clash>
0.0000

> <Gold.PLP.ligand.torsion>
0.0384

> <Gold.PLP.Chemscore.Hbond>
1.9760

> <Gold.PLP.Chemscore.CHOScore>
0.0000

> <Gold.PLP.Chemscore.Metal>
0.0000

> <Gold.Chemscore.Hbonds>
donor molecule, donor type, donor heavy atom, donor atom, acceptor molecule, acceptor atom, score
      L1  H     6    28       P1  8028  0.96
      L1  H     9    29       P1  8028  1.00

> <Gold.PLP.Chemscore.Internal.Correction>
0.0033

> <Gold.Rescore>
     Score         DG    S(hbond)    S(metal)    S(lipo)     H(rot)  DE(clash)    DE(int)     intcor
     18.06     -19.64       1.94        0.00      92.46       1.23       0.07       1.51       ----

> <Gold.Chemscore.Fitness>
18.0563

> <Gold.Chemscore.DG>
-19.6429

> <Gold.Chemscore.ZeroCoef>
-5.4800

> <Gold.Chemscore.Hbond>
1.9423

> <Gold.Chemscore.Metal>
0.0000

> <Gold.Chemscore.Lipo>
92.4568

> <Gold.Chemscore.Internal_Hbond>
0.0000

> <Gold.Chemscore.DEClash>
0.0729

> <Gold.Chemscore.DEInternal>
1.5137

> <Gold.Chemscore.Rot>
1.2273

> <Gold.Chemscore.Internal.Correction>
   9.000000E+99

> <Gold.Chemscore.Hbonds>
donor molecule, donor type, donor heavy atom, donor atom, acceptor molecule, acceptor atom, score
      L1  H     6    28       P1  8028  0.92
      L1  H     9    29       P1  8028  0.95

> <Gold.Chemscore.Hbond.Weighted>
-6.4873

> <Gold.Chemscore.Metal.Weighted>
-0.0000

> <Gold.Chemscore.Lipo.Weighted>
-10.8174

> <Gold.Chemscore.Internal_Hbond.Weighted>
0.0000

> <Gold.Chemscore.DEClash.Weighted>
0.0729

> <Gold.Chemscore.DEInternal.Weighted>
1.5137

> <Gold.Chemscore.Rot.Weighted>
3.1418

> <Gold.Chemscore.Internal.Correction.Weighted>
   9.000000E+99

> <Gold.Protein.RotatedTorsions>
[ 6907 6896 6895 6894 ] final -125.41 input  -60.11 | X-H torsion
[ 7974 7965 7964 7962 ] final   71.57 input  175.53 | X-H torsion
[ 8008 7997 7996 7995 ] final  -67.82 input   59.86 | X-H torsion
[ 10167 10162 10161 10158 ] final  -63.01 input  -65.29 | X-H torsion
[ 10718 10713 10712 10709 ] final  -83.66 input   66.30 | X-H torsion
[ 10763 10752 10751 10750 ] final -144.60 input  -60.55 | X-H torsion
[ 11005 11000 10999 10996 ] final  -34.28 input  -57.11 | X-H torsion

> <Gold.Protein.ActiveResidues>
 VAL166  LYS551  ARG553  GLY616  TRP617  ASP618  TYR619  PRO620  LYS621  CYS622 
 ASP623  PHE694  ASN695  SER759  ASP760  ASP761  ALA762  ILE779  LEU786  VAL792 
 PHE793  MET794  SER795  GLU796  ALA797  LYS798  CYS799  TRP800  GLU811  SER814 

> <Gold.Protein.RotatedAtoms>
  150.8865  133.7301  159.2916 H   0  0  0  0  0  0  0  0  0  0  0  0  # atno 6907 bound_to 6896
  151.4865  135.1054  159.9801 H   0  0  0  0  0  0  0  0  0  0  0  0  # atno 6908 bound_to 6896
  152.4793  133.8168  159.7088 H   0  0  0  0  0  0  0  0  0  0  0  0  # atno 6909 bound_to 6896
  145.7642  139.2814  143.1359 H   0  0  0  0  0  0  0  0  0  0  0  0  # atno 7974 bound_to 7965
  154.4825  140.0885  156.7411 H   0  0  0  0  0  0  0  0  0  0  0  0  # atno 8008 bound_to 7997
  155.4433  140.3454  155.4274 H   0  0  0  0  0  0  0  0  0  0  0  0  # atno 8009 bound_to 7997
  156.1213  140.1475  156.9188 H   0  0  0  0  0  0  0  0  0  0  0  0  # atno 8010 bound_to 7997
  140.5900  143.2340  151.6160 H   0  0  0  0  0  0  0  0  0  0  0  0  # atno 10167 bound_to 10162
  156.0015  130.4672  150.4290 H   0  0  0  0  0  0  0  0  0  0  0  0  # atno 10718 bound_to 10713
  154.8421  135.3436  154.6372 H   0  0  0  0  0  0  0  0  0  0  0  0  # atno 10763 bound_to 10752
  153.6982  135.6971  153.5075 H   0  0  0  0  0  0  0  0  0  0  0  0  # atno 10764 bound_to 10752
  153.2543  135.4343  155.0784 H   0  0  0  0  0  0  0  0  0  0  0  0  # atno 10765 bound_to 10752
  140.9703  133.7113  156.1513 H   0  0  0  0  0  0  0  0  0  0  0  0  # atno 11005 bound_to 11000
  146.0234  140.8326  142.9912 LP  0  0  0  0  0  0  0  0  0  0  0  0  # atno 17320 bound_to 7965
  144.6824  140.2662  143.7312 LP  0  0  0  0  0  0  0  0  0  0  0  0  # atno 17321 bound_to 7965
  139.5221  144.3171  152.0942 LP  0  0  0  0  0  0  0  0  0  0  0  0  # atno 17342 bound_to 10162
  140.2334  144.4344  150.6290 LP  0  0  0  0  0  0  0  0  0  0  0  0  # atno 17343 bound_to 10162
  157.2341  131.0510  151.2475 LP  0  0  0  0  0  0  0  0  0  0  0  0  # atno 17370 bound_to 10713
  157.3683  130.7167  149.6548 LP  0  0  0  0  0  0  0  0  0  0  0  0  # atno 17371 bound_to 10713
  140.7339  134.4225  157.5563 LP  0  0  0  0  0  0  0  0  0  0  0  0  # atno 17394 bound_to 11000
  139.8910  134.8791  156.2343 LP  0  0  0  0  0  0  0  0  0  0  0  0  # atno 17395 bound_to 11000

$$$$
