AV-unprocessed.smi:2879|AV-procd|sdf|11050|dock7
  -GOLD-   2272015513D 1   1.00000     0.00000
 Structure written by MMmdl.
 44 45  0  0  0  0  0  0  0  0  1 V2000
  146.3018  142.3820  154.4969 C   0  0  0  0  0  0  0  0  0  0  0  0
  147.3602  141.3833  154.8622 C   0  0  0  0  0  0  0  0  0  0  0  0
  148.4105  140.8735  154.0438 C   0  0  0  0  0  0  0  0  0  0  0  0
  149.0813  140.0029  154.8563 C   0  0  0  0  0  0  0  0  0  0  0  0
  150.2833  139.1471  154.6073 C   0  0  0  0  0  0  0  0  0  0  0  0
  151.4278  139.4702  155.5725 C   0  0  0  0  0  0  0  0  0  0  0  0
  152.5931  139.4873  155.1742 O   0  0  0  0  0  0  0  0  0  0  0  0
  151.0773  139.7340  156.8412 N   0  0  0  0  0  0  0  0  0  0  0  0
  151.9961  140.0517  157.9308 C   0  0  0  0  0  0  0  0  0  0  0  0
  151.6255  141.3643  158.6535 C   0  0  0  0  0  0  0  0  0  0  0  0
  150.8561  142.3515  157.7503 C   0  0  0  0  0  0  0  0  0  0  0  0
  150.5313  143.6679  158.4791 C   0  0  0  0  0  0  0  0  0  0  0  0
  151.7765  144.3674  159.0748 C   0  0  0  0  0  0  0  0  0  0  0  0
  152.6769  144.9376  157.9570 C   0  0  0  0  0  0  0  0  0  0  0  0
  151.3152  145.5442  159.9563 C   0  0  0  0  0  0  0  0  0  0  0  0
  152.5538  143.3568  159.9522 C   0  0  0  0  0  0  0  0  0  0  0  0
  152.8861  142.0440  159.2208 C   0  0  0  0  0  0  0  0  0  0  0  0
  148.4314  140.0356  156.0702 N   0  0  0  0  0  0  0  0  0  0  0  0
  147.3779  140.8729  156.0845 N   0  0  0  0  0  0  0  0  0  0  0  0
  148.6885  139.4952  156.8839 H   0  0  0  0  0  0  0  0  0  0  0  0
  146.4503  142.7613  153.4857 H   0  0  0  0  0  0  0  0  0  0  0  0
  146.3145  143.2348  155.1759 H   0  0  0  0  0  0  0  0  0  0  0  0
  145.3086  141.9344  154.5412 H   0  0  0  0  0  0  0  0  0  0  0  0
  148.6363  141.1117  153.0147 H   0  0  0  0  0  0  0  0  0  0  0  0
  150.6146  139.2729  153.5753 H   0  0  0  0  0  0  0  0  0  0  0  0
  150.0209  138.0952  154.7236 H   0  0  0  0  0  0  0  0  0  0  0  0
  150.0952  139.7045  157.0738 H   0  0  0  0  0  0  0  0  0  0  0  0
  151.9514  139.2219  158.6369 H   0  0  0  0  0  0  0  0  0  0  0  0
  153.0280  140.0891  157.5771 H   0  0  0  0  0  0  0  0  0  0  0  0
  150.9811  141.1099  159.4966 H   0  0  0  0  0  0  0  0  0  0  0  0
  151.4319  142.5553  156.8472 H   0  0  0  0  0  0  0  0  0  0  0  0
  149.9206  141.9041  157.4152 H   0  0  0  0  0  0  0  0  0  0  0  0
  150.0110  144.3430  157.7985 H   0  0  0  0  0  0  0  0  0  0  0  0
  149.8231  143.4484  159.2793 H   0  0  0  0  0  0  0  0  0  0  0  0
  153.5491  145.4432  158.3730 H   0  0  0  0  0  0  0  0  0  0  0  0
  152.1377  145.6658  157.3500 H   0  0  0  0  0  0  0  0  0  0  0  0
  153.0445  144.1666  157.2814 H   0  0  0  0  0  0  0  0  0  0  0  0
  152.1646  146.0620  160.4034 H   0  0  0  0  0  0  0  0  0  0  0  0
  150.6728  145.2073  160.7707 H   0  0  0  0  0  0  0  0  0  0  0  0
  150.7515  146.2768  159.3775 H   0  0  0  0  0  0  0  0  0  0  0  0
  153.4733  143.8107  160.3241 H   0  0  0  0  0  0  0  0  0  0  0  0
  151.9618  143.1154  160.8363 H   0  0  0  0  0  0  0  0  0  0  0  0
  153.3869  141.3676  159.9143 H   0  0  0  0  0  0  0  0  0  0  0  0
  153.6001  142.2330  158.4189 H   0  0  0  0  0  0  0  0  0  0  0  0
  1 21  1  0  0  0  0
  1 22  1  0  0  0  0
  1 23  1  0  0  0  0
  1  2  1  0  0  0  0
  2 19  2  0  0  0  0
  2  3  1  0  0  0  0
  3  4  2  0  0  0  0
  3 24  1  0  0  0  0
  4 18  1  0  0  0  0
  4  5  1  0  0  0  0
  5  6  1  0  0  0  0
  5 25  1  0  0  0  0
  5 26  1  0  0  0  0
  6  7  2  0  0  0  0
  6  8  1  0  0  0  0
  8  9  1  0  0  0  0
  8 27  1  0  0  0  0
  9 10  1  0  0  0  0
  9 28  1  0  0  0  0
  9 29  1  0  0  0  0
 10 17  1  0  0  0  0
 10 11  1  0  0  0  0
 10 30  1  0  0  0  0
 11 12  1  0  0  0  0
 11 31  1  0  0  0  0
 11 32  1  0  0  0  0
 12 13  1  0  0  0  0
 12 33  1  0  0  0  0
 12 34  1  0  0  0  0
 13 14  1  0  0  0  0
 13 15  1  0  0  0  0
 13 16  1  0  0  0  0
 14 35  1  0  0  0  0
 14 36  1  0  0  0  0
 14 37  1  0  0  0  0
 15 38  1  0  0  0  0
 15 39  1  0  0  0  0
 15 40  1  0  0  0  0
 16 17  1  0  0  0  0
 16 41  1  0  0  0  0
 16 42  1  0  0  0  0
 17 43  1  0  0  0  0
 17 44  1  0  0  0  0
 18 19  1  0  0  0  0
 18 20  1  0  0  0  0
M  END
> <s_m_source_file>
AV-unprocessed.smi

> <i_m_source_file_index>
2879

> <i_lp_mmshare_version>
43012

> <i_f3d_flags>
0

> <s_epik_input>
W0NIM11jMVtjSF1jKG5bbkhdMSlbQ0gyXUMoPU8pW05IXVtDSDJdW0NIXShbQ0gyXVtDSDJdMilbQ0gyXVtDSDJdQzIoW0NIM10pW0NIM10=

> <s_epik_cmdline>
J2VwaWtfcHl0aG9uJywgJy1waCcsICc3LjAnLCAnLXRuJywgJzgnLCAnLW1hJywgJzIwMCcsICctbWV0YWxfYmluZGluZycsICctaW1hZScsICc8aW5maWxlLm1hZT4nLCAnLW9tYWUnLCAnPG91dGZpbGUubWFlPic=

> <r_lp_tautomer_probability>
0.5

> <r_epik_Ionization_Penalty>
0.000119486

> <r_epik_Ionization_Penalty_Charging>
0

> <r_epik_Ionization_Penalty_Neutral>
0.000119486

> <r_epik_State_Penalty>
0.41068

> <r_epik_Charging_Adjusted_Penalty>
0.41068

> <i_epik_Tot_Q>
0

> <i_epik_Tot_abs_Q>
0

> <r_epik_Metal_State_Penalty>
0.41066

> <b_epik_Metal_Only>
0

> <s_lp_Force_Field>
OPLS_2005

> <r_lp_Energy>
12.3825

> <b_lp_Chiralities_Consistent>
1

> <s_lp_Variant>
AV-unprocessed.smi:2879-2

> <Gold.Version>
5.8.1

> <Gold.Id.Protein>
6NUR|6NUR_protein|mol2

> <Gold.PLP.Fitness>
49.1426

> <Gold.PLP.PLP>
-47.5748

> <Gold.PLP.part.hbond>
-1.9723

> <Gold.PLP.part.metal>
0.0000

> <Gold.PLP.part.buried>
-3.0604

> <Gold.PLP.part.nonpolar>
-42.0921

> <Gold.PLP.part.repulsive>
0.1504

> <Gold.PLP.ligand.clash>
0.0000

> <Gold.PLP.ligand.torsion>
0.7186

> <Gold.PLP.Chemscore.Hbond>
1.0000

> <Gold.PLP.Chemscore.CHOScore>
0.0000

> <Gold.PLP.Chemscore.Metal>
0.0000

> <Gold.Chemscore.Hbonds>
donor molecule, donor type, donor heavy atom, donor atom, acceptor molecule, acceptor atom, score
      P1  H  7989  7998       L1     7  0.02
      P1  H  7997  8008       L1     7  0.81

> <Gold.PLP.Chemscore.Internal.Correction>
0.0051

> <Gold.Rescore>
     Score         DG    S(hbond)    S(metal)    S(lipo)     H(rot)  DE(clash)    DE(int)     intcor
     17.71     -19.93       1.00        0.00     128.87       1.55       0.13       2.09       ----

> <Gold.Chemscore.Fitness>
17.7082

> <Gold.Chemscore.DG>
-19.9267

> <Gold.Chemscore.ZeroCoef>
-5.4800

> <Gold.Chemscore.Hbond>
0.9983

> <Gold.Chemscore.Metal>
0.0000

> <Gold.Chemscore.Lipo>
128.8693

> <Gold.Chemscore.Internal_Hbond>
0.0000

> <Gold.Chemscore.DEClash>
0.1261

> <Gold.Chemscore.DEInternal>
2.0924

> <Gold.Chemscore.Rot>
1.5489

> <Gold.Chemscore.Internal.Correction>
   9.000000E+99

> <Gold.Chemscore.Hbonds>
donor molecule, donor type, donor heavy atom, donor atom, acceptor molecule, acceptor atom, score
      P1  H  7997  8008       L1     7  0.80

> <Gold.Chemscore.Hbond.Weighted>
-3.3342

> <Gold.Chemscore.Metal.Weighted>
-0.0000

> <Gold.Chemscore.Lipo.Weighted>
-15.0777

> <Gold.Chemscore.Internal_Hbond.Weighted>
0.0000

> <Gold.Chemscore.DEClash.Weighted>
0.1261

> <Gold.Chemscore.DEInternal.Weighted>
2.0924

> <Gold.Chemscore.Rot.Weighted>
3.9652

> <Gold.Chemscore.Internal.Correction.Weighted>
   9.000000E+99

> <Gold.Protein.RotatedTorsions>
[ 6907 6896 6895 6894 ] final   65.20 input  -60.11 | X-H torsion
[ 7974 7965 7964 7962 ] final  148.71 input  175.53 | X-H torsion
[ 8008 7997 7996 7995 ] final  -18.18 input   59.86 | X-H torsion
[ 10167 10162 10161 10158 ] final   22.34 input  -65.29 | X-H torsion
[ 10718 10713 10712 10709 ] final -173.29 input   66.30 | X-H torsion
[ 10763 10752 10751 10750 ] final  156.75 input  -60.55 | X-H torsion
[ 11005 11000 10999 10996 ] final  137.31 input  -57.11 | X-H torsion

> <Gold.Protein.ActiveResidues>
 VAL166  LYS551  ARG553  GLY616  TRP617  ASP618  TYR619  PRO620  LYS621  CYS622 
 ASP623  PHE694  ASN695  SER759  ASP760  ASP761  ALA762  ILE779  LEU786  VAL792 
 PHE793  MET794  SER795  GLU796  ALA797  LYS798  CYS799  TRP800  GLU811  SER814 

> <Gold.Protein.RotatedAtoms>
  152.4389  134.5630  159.9899 H   0  0  0  0  0  0  0  0  0  0  0  0  # atno 6907 bound_to 6896
  151.5733  133.3381  159.3002 H   0  0  0  0  0  0  0  0  0  0  0  0  # atno 6908 bound_to 6896
  150.8292  134.7571  159.6903 H   0  0  0  0  0  0  0  0  0  0  0  0  # atno 6909 bound_to 6896
  144.8493  139.6189  143.5981 H   0  0  0  0  0  0  0  0  0  0  0  0  # atno 7974 bound_to 7965
  154.4925  140.2123  155.9518 H   0  0  0  0  0  0  0  0  0  0  0  0  # atno 8008 bound_to 7997
  156.1325  140.3194  155.8338 H   0  0  0  0  0  0  0  0  0  0  0  0  # atno 8009 bound_to 7997
  155.4271  140.0501  157.3012 H   0  0  0  0  0  0  0  0  0  0  0  0  # atno 8010 bound_to 7997
  140.5356  143.9766  150.6490 H   0  0  0  0  0  0  0  0  0  0  0  0  # atno 10167 bound_to 10162
  156.7681  130.9438  151.3119 H   0  0  0  0  0  0  0  0  0  0  0  0  # atno 10718 bound_to 10713
  154.1893  135.2795  155.3027 H   0  0  0  0  0  0  0  0  0  0  0  0  # atno 10763 bound_to 10752
  154.5942  135.5550  153.7312 H   0  0  0  0  0  0  0  0  0  0  0  0  # atno 10764 bound_to 10752
  153.0117  135.6375  154.2031 H   0  0  0  0  0  0  0  0  0  0  0  0  # atno 10765 bound_to 10752
  140.0106  134.9440  157.0268 H   0  0  0  0  0  0  0  0  0  0  0  0  # atno 11005 bound_to 11000
  146.2771  139.6780  142.9255 LP  0  0  0  0  0  0  0  0  0  0  0  0  # atno 17320 bound_to 7965
  145.4533  141.0429  143.2792 LP  0  0  0  0  0  0  0  0  0  0  0  0  # atno 17321 bound_to 7965
  140.3153  143.3172  152.0838 LP  0  0  0  0  0  0  0  0  0  0  0  0  # atno 17342 bound_to 10162
  139.4970  144.6609  151.6466 LP  0  0  0  0  0  0  0  0  0  0  0  0  # atno 17343 bound_to 10162
  157.6704  130.9045  150.0026 LP  0  0  0  0  0  0  0  0  0  0  0  0  # atno 17370 bound_to 10713
  156.1295  130.3643  149.9754 LP  0  0  0  0  0  0  0  0  0  0  0  0  # atno 17371 bound_to 10713
  140.4562  134.1531  155.7186 LP  0  0  0  0  0  0  0  0  0  0  0  0  # atno 17394 bound_to 11000
  141.1708  133.8613  157.1577 LP  0  0  0  0  0  0  0  0  0  0  0  0  # atno 17395 bound_to 11000

$$$$
