AV-unprocessed.smi:1975|AV-procd|sdf|7982|dock2
  -GOLD-   2272010163D 1   1.00000     0.00000
 Structure written by MMmdl.
 33 34  0  0  0  0  0  0  0  0  1 V2000
  153.7318  142.8731  163.6391 C   0  0  0  0  0  0  0  0  0  0  0  0
  152.8257  143.1604  162.4326 C   0  0  0  0  0  0  0  0  0  0  0  0
  152.9908  142.2074  161.3659 N   0  0  0  0  0  0  0  0  0  0  0  0
  153.9055  141.1782  161.4469 C   0  0  0  0  0  0  0  0  0  0  0  0
  154.0868  140.2877  160.4501 C   0  0  0  0  0  0  0  0  0  0  0  0
  155.0388  139.2315  160.5509 C   0  0  0  0  0  0  0  0  0  0  0  0
  155.8187  138.3784  160.6088 N   0  0  0  0  0  0  0  0  0  0  0  0
  153.3119  140.3712  159.2144 C   0  0  0  0  0  0  0  0  0  0  0  0
  153.4496  139.5890  158.2723 O   0  0  0  0  0  0  0  0  0  0  0  0
  152.3752  141.4343  159.1511 N   0  0  0  0  0  0  0  0  0  0  0  0
  151.5722  141.6022  157.9196 C   0  0  0  0  0  0  0  0  0  0  0  0
  150.9227  140.2986  157.4290 C   0  0  0  0  0  0  0  0  0  0  0  0
  150.0823  139.7118  158.1126 O   0  0  0  0  0  0  0  0  0  0  0  0
  151.3273  139.8645  156.2267 N   0  0  0  0  0  0  0  0  0  0  0  0
  150.8628  138.6852  155.5708 C   0  0  0  0  0  0  0  0  0  0  0  0
  151.6220  138.2153  154.3486 C   0  0  0  0  0  0  0  0  0  0  0  0
  150.2638  138.8407  154.1899 C   0  0  0  0  0  0  0  0  0  0  0  0
  152.2026  142.3668  160.2027 C   0  0  0  0  0  0  0  0  0  0  0  0
  151.3938  143.2930  160.0999 O   0  0  0  0  0  0  0  0  0  0  0  0
  153.5520  143.5947  164.4362 H   0  0  0  0  0  0  0  0  0  0  0  0
  154.7876  142.9324  163.3735 H   0  0  0  0  0  0  0  0  0  0  0  0
  153.5438  141.8781  164.0433 H   0  0  0  0  0  0  0  0  0  0  0  0
  151.7747  143.1087  162.7200 H   0  0  0  0  0  0  0  0  0  0  0  0
  152.9864  144.1555  162.0135 H   0  0  0  0  0  0  0  0  0  0  0  0
  154.5031  141.0823  162.3422 H   0  0  0  0  0  0  0  0  0  0  0  0
  150.7855  142.3454  158.0578 H   0  0  0  0  0  0  0  0  0  0  0  0
  152.1834  142.0143  157.1147 H   0  0  0  0  0  0  0  0  0  0  0  0
  152.0194  140.4126  155.7365 H   0  0  0  0  0  0  0  0  0  0  0  0
  150.4274  137.9046  156.1932 H   0  0  0  0  0  0  0  0  0  0  0  0
  152.4839  138.7981  154.0291 H   0  0  0  0  0  0  0  0  0  0  0  0
  151.7024  137.1418  154.1905 H   0  0  0  0  0  0  0  0  0  0  0  0
  149.4373  138.1843  153.9249 H   0  0  0  0  0  0  0  0  0  0  0  0
  150.2187  139.8410  153.7635 H   0  0  0  0  0  0  0  0  0  0  0  0
  1  2  1  0  0  0  0
  1 20  1  0  0  0  0
  1 21  1  0  0  0  0
  1 22  1  0  0  0  0
  2  3  1  0  0  0  0
  2 23  1  0  0  0  0
  2 24  1  0  0  0  0
  3 18  1  0  0  0  0
  3  4  1  0  0  0  0
  4  5  2  0  0  0  0
  4 25  1  0  0  0  0
  5  6  1  0  0  0  0
  5  8  1  0  0  0  0
  6  7  3  0  0  0  0
  8  9  2  0  0  0  0
  8 10  1  0  0  0  0
 10 11  1  0  0  0  0
 10 18  1  0  0  0  0
 11 12  1  0  0  0  0
 11 26  1  0  0  0  0
 11 27  1  0  0  0  0
 12 13  2  0  0  0  0
 12 14  1  0  0  0  0
 14 15  1  0  0  0  0
 14 28  1  0  0  0  0
 15 17  1  0  0  0  0
 15 16  1  0  0  0  0
 15 29  1  0  0  0  0
 16 17  1  0  0  0  0
 16 30  1  0  0  0  0
 16 31  1  0  0  0  0
 17 32  1  0  0  0  0
 17 33  1  0  0  0  0
 18 19  2  0  0  0  0
M  END
> <s_m_source_file>
AV-unprocessed.smi

> <i_m_source_file_index>
1975

> <i_lp_mmshare_version>
43012

> <i_f3d_flags>
0

> <s_epik_input>
W0NIM11bQ0gyXW4xW2NIXWMoQyNOKWMoPU8pbihjMT1PKVtDSDJdQyg9TylbTkhdW0NIXTJbQ0gyXVtDSDJdMg==

> <s_epik_cmdline>
J2VwaWtfcHl0aG9uJywgJy1waCcsICc3LjAnLCAnLXRuJywgJzgnLCAnLW1hJywgJzIwMCcsICctbWV0YWxfYmluZGluZycsICctaW1hZScsICc8aW5maWxlLm1hZT4nLCAnLW9tYWUnLCAnPG91dGZpbGUubWFlPic=

> <r_lp_tautomer_probability>
1

> <r_epik_Ionization_Penalty>
2.07081e-08

> <r_epik_Ionization_Penalty_Charging>
3.77987e-11

> <r_epik_Ionization_Penalty_Neutral>
2.06703e-08

> <r_epik_State_Penalty>
-0

> <r_epik_Charging_Adjusted_Penalty>
3.77987e-11

> <i_epik_Tot_Q>
0

> <i_epik_Tot_abs_Q>
0

> <r_epik_Metal_State_Penalty>
-0

> <b_epik_Metal_Only>
0

> <s_lp_Force_Field>
OPLS_2005

> <r_lp_Energy>
17.9293

> <b_lp_Chiralities_Consistent>
1

> <s_lp_Variant>
AV-unprocessed.smi:1975-1

> <Gold.Version>
5.8.1

> <Gold.Id.Protein>
6NUR|6NUR_protein|mol2

> <Gold.PLP.Fitness>
43.5565

> <Gold.PLP.PLP>
-40.9410

> <Gold.PLP.part.hbond>
-1.2377

> <Gold.PLP.part.metal>
0.0000

> <Gold.PLP.part.buried>
-5.6945

> <Gold.PLP.part.nonpolar>
-34.1288

> <Gold.PLP.part.repulsive>
0.1650

> <Gold.PLP.ligand.clash>
0.0000

> <Gold.PLP.ligand.torsion>
0.2180

> <Gold.PLP.Chemscore.Hbond>
1.0000

> <Gold.PLP.Chemscore.CHOScore>
0.0000

> <Gold.PLP.Chemscore.Metal>
0.0000

> <Gold.Chemscore.Hbonds>
donor molecule, donor type, donor heavy atom, donor atom, acceptor molecule, acceptor atom, score
      P1  H  7997  8008       L1     9  0.99

> <Gold.PLP.Chemscore.Internal.Correction>
0.0515

> <Gold.Rescore>
     Score         DG    S(hbond)    S(metal)    S(lipo)     H(rot)  DE(clash)    DE(int)     intcor
     10.69     -12.31       0.95        0.00      72.73       1.89       0.00       1.63       ----

> <Gold.Chemscore.Fitness>
10.6872

> <Gold.Chemscore.DG>
-12.3146

> <Gold.Chemscore.ZeroCoef>
-5.4800

> <Gold.Chemscore.Hbond>
0.9452

> <Gold.Chemscore.Metal>
0.0000

> <Gold.Chemscore.Lipo>
72.7337

> <Gold.Chemscore.Internal_Hbond>
0.0000

> <Gold.Chemscore.DEClash>
0.0004

> <Gold.Chemscore.DEInternal>
1.6269

> <Gold.Chemscore.Rot>
1.8876

> <Gold.Chemscore.Internal.Correction>
   9.000000E+99

> <Gold.Chemscore.Hbonds>
donor molecule, donor type, donor heavy atom, donor atom, acceptor molecule, acceptor atom, score
      P1  H  7997  8008       L1     9  0.78

> <Gold.Chemscore.Hbond.Weighted>
-3.1570

> <Gold.Chemscore.Metal.Weighted>
-0.0000

> <Gold.Chemscore.Lipo.Weighted>
-8.5098

> <Gold.Chemscore.Internal_Hbond.Weighted>
0.0000

> <Gold.Chemscore.DEClash.Weighted>
0.0004

> <Gold.Chemscore.DEInternal.Weighted>
1.6269

> <Gold.Chemscore.Rot.Weighted>
4.8323

> <Gold.Chemscore.Internal.Correction.Weighted>
   9.000000E+99

> <Gold.Protein.RotatedTorsions>
[ 6907 6896 6895 6894 ] final   74.02 input  -60.11 | X-H torsion
[ 7974 7965 7964 7962 ] final   67.64 input  175.53 | X-H torsion
[ 8008 7997 7996 7995 ] final -108.40 input   59.86 | X-H torsion
[ 10167 10162 10161 10158 ] final -102.24 input  -65.29 | X-H torsion
[ 10718 10713 10712 10709 ] final -161.48 input   66.30 | X-H torsion
[ 10763 10752 10751 10750 ] final   49.37 input  -60.55 | X-H torsion
[ 11005 11000 10999 10996 ] final   11.20 input  -57.11 | X-H torsion

> <Gold.Protein.ActiveResidues>
 VAL166  LYS551  ARG553  GLY616  TRP617  ASP618  TYR619  PRO620  LYS621  CYS622 
 ASP623  PHE694  ASN695  SER759  ASP760  ASP761  ALA762  ILE779  LEU786  VAL792 
 PHE793  MET794  SER795  GLU796  ALA797  LYS798  CYS799  TRP800  GLU811  SER814 

> <Gold.Protein.RotatedAtoms>
  152.4954  134.4334  159.9519 H   0  0  0  0  0  0  0  0  0  0  0  0  # atno 6907 bound_to 6896
  151.4313  133.3663  159.2777 H   0  0  0  0  0  0  0  0  0  0  0  0  # atno 6908 bound_to 6896
  150.9152  134.8593  159.7512 H   0  0  0  0  0  0  0  0  0  0  0  0  # atno 6909 bound_to 6896
  145.8121  139.3038  143.1093 H   0  0  0  0  0  0  0  0  0  0  0  0  # atno 7974 bound_to 7965
  154.9437  140.0402  157.2110 H   0  0  0  0  0  0  0  0  0  0  0  0  # atno 8008 bound_to 7997
  154.8044  140.2857  155.5876 H   0  0  0  0  0  0  0  0  0  0  0  0  # atno 8009 bound_to 7997
  156.2965  140.2549  156.2919 H   0  0  0  0  0  0  0  0  0  0  0  0  # atno 8010 bound_to 7997
  140.2327  143.3595  152.0872 H   0  0  0  0  0  0  0  0  0  0  0  0  # atno 10167 bound_to 10162
  156.5969  130.8794  151.2904 H   0  0  0  0  0  0  0  0  0  0  0  0  # atno 10718 bound_to 10713
  152.9787  135.5914  154.4079 H   0  0  0  0  0  0  0  0  0  0  0  0  # atno 10763 bound_to 10752
  154.3717  135.2767  155.2264 H   0  0  0  0  0  0  0  0  0  0  0  0  # atno 10764 bound_to 10752
  154.4217  135.6057  153.6068 H   0  0  0  0  0  0  0  0  0  0  0  0  # atno 10765 bound_to 10752
  140.5059  134.0699  155.7805 H   0  0  0  0  0  0  0  0  0  0  0  0  # atno 11005 bound_to 11000
  145.9765  140.8717  143.0136 LP  0  0  0  0  0  0  0  0  0  0  0  0  # atno 17320 bound_to 7965
  144.6756  140.2020  143.7386 LP  0  0  0  0  0  0  0  0  0  0  0  0  # atno 17321 bound_to 7965
  139.5104  144.6884  151.5827 LP  0  0  0  0  0  0  0  0  0  0  0  0  # atno 17342 bound_to 10162
  140.6173  143.9325  150.6498 LP  0  0  0  0  0  0  0  0  0  0  0  0  # atno 17343 bound_to 10162
  157.7289  130.9664  150.1765 LP  0  0  0  0  0  0  0  0  0  0  0  0  # atno 17370 bound_to 10713
  156.2502  130.3700  149.8240 LP  0  0  0  0  0  0  0  0  0  0  0  0  # atno 17371 bound_to 10713
  141.1411  133.9137  157.2324 LP  0  0  0  0  0  0  0  0  0  0  0  0  # atno 17394 bound_to 11000
  139.9686  135.0135  156.9453 LP  0  0  0  0  0  0  0  0  0  0  0  0  # atno 17395 bound_to 11000

$$$$
