AV-unprocessed.smi:1586|AV-procd|sdf|6376|dock4
  -GOLD-   22720 7 03D 1   1.00000     0.00000
 Structure written by MMmdl.
 47 48  0  0  0  0  0  0  0  0  2 V2000
  150.9233  141.1170  156.3616 C   0  0  0  0  0  0  0  0  0  0  0  0
  151.6343  140.0936  155.4643 C   0  0  0  0  0  0  0  0  0  0  0  0
  150.7688  139.6163  154.3831 N   0  0  0  0  0  0  0  0  0  0  0  0
  151.4406  138.8319  153.3461 C   0  0  0  0  0  0  0  0  0  0  0  0
  151.9214  137.4602  153.8627 C   0  0  0  0  0  0  0  0  0  0  0  0
  150.7973  136.6552  154.4203 N   0  3  0  0  0  0  0  0  0  0  0  0
  151.2037  135.2975  154.9179 C   0  0  1  0  0  0  0  0  0  0  0  0
  150.1752  134.7336  155.9300 C   0  0  0  0  0  0  0  0  0  0  0  0
  151.4249  134.2846  153.7621 C   0  0  0  0  0  0  0  0  0  0  0  0
  150.2481  134.1513  152.9087 N   0  0  0  0  0  0  0  0  0  0  0  0
  149.5204  133.0336  152.7770 C   0  0  0  0  0  0  0  0  0  0  0  0
  149.7646  131.9894  153.3821 O   0  0  0  0  0  0  0  0  0  0  0  0
  148.5092  133.2099  151.9098 N   0  0  0  0  0  0  0  0  0  0  0  0
  147.5504  132.2518  151.4927 C   0  0  0  0  0  0  0  0  0  0  0  0
  146.3292  132.6581  150.8921 C   0  0  0  0  0  0  0  0  0  0  0  0
  145.7025  131.4711  150.6364 C   0  0  0  0  0  0  0  0  0  0  0  0
  144.3906  131.1299  150.0167 C   0  0  0  0  0  0  0  0  0  0  0  0
  146.4760  130.4289  151.0461 O   0  0  0  0  0  0  0  0  0  0  0  0
  147.6596  130.9362  151.5954 N   0  0  0  0  0  0  0  0  0  0  0  0
  150.0683  137.4663  155.4370 C   0  0  0  0  0  0  0  0  0  0  0  0
  149.6349  138.8361  154.8746 C   0  0  0  0  0  0  0  0  0  0  0  0
  151.5400  141.3557  157.2282 H   0  0  0  0  0  0  0  0  0  0  0  0
  149.9735  140.7285  156.7307 H   0  0  0  0  0  0  0  0  0  0  0  0
  150.7283  142.0534  155.8397 H   0  0  0  0  0  0  0  0  0  0  0  0
  152.5649  140.5120  155.0828 H   0  0  0  0  0  0  0  0  0  0  0  0
  151.9115  139.2391  156.0831 H   0  0  0  0  0  0  0  0  0  0  0  0
  150.7417  138.6817  152.5219 H   0  0  0  0  0  0  0  0  0  0  0  0
  152.2755  139.3919  152.9262 H   0  0  0  0  0  0  0  0  0  0  0  0
  152.3642  136.9549  153.0067 H   0  0  0  0  0  0  0  0  0  0  0  0
  152.7110  137.5719  154.6066 H   0  0  0  0  0  0  0  0  0  0  0  0
  152.1553  135.4128  155.4398 H   0  0  0  0  0  0  0  0  0  0  0  0
  150.4145  133.7174  156.2412 H   0  0  0  0  0  0  0  0  0  0  0  0
  149.1716  134.7146  155.5038 H   0  0  0  0  0  0  0  0  0  0  0  0
  150.1414  135.3104  156.8531 H   0  0  0  0  0  0  0  0  0  0  0  0
  152.2931  134.5856  153.1726 H   0  0  0  0  0  0  0  0  0  0  0  0
  151.6206  133.2819  154.1394 H   0  0  0  0  0  0  0  0  0  0  0  0
  149.9729  134.9645  152.3773 H   0  0  0  0  0  0  0  0  0  0  0  0
  148.4214  134.1247  151.4930 H   0  0  0  0  0  0  0  0  0  0  0  0
  145.9697  133.6542  150.6806 H   0  0  0  0  0  0  0  0  0  0  0  0
  143.7350  132.0005  149.9896 H   0  0  0  0  0  0  0  0  0  0  0  0
  143.8866  130.3453  150.5813 H   0  0  0  0  0  0  0  0  0  0  0  0
  144.5272  130.7776  148.9942 H   0  0  0  0  0  0  0  0  0  0  0  0
  149.1566  136.9605  155.7483 H   0  0  0  0  0  0  0  0  0  0  0  0
  150.6811  137.5851  156.3314 H   0  0  0  0  0  0  0  0  0  0  0  0
  149.1016  139.4059  155.6365 H   0  0  0  0  0  0  0  0  0  0  0  0
  148.9291  138.6886  154.0557 H   0  0  0  0  0  0  0  0  0  0  0  0
  150.1523  136.5039  153.6578 H   0  0  0  0  0  0  0  0  0  0  0  0
  1  2  1  0  0  0  0
  1 22  1  0  0  0  0
  1 23  1  0  0  0  0
  1 24  1  0  0  0  0
  2  3  1  0  0  0  0
  2 25  1  0  0  0  0
  2 26  1  0  0  0  0
  3 21  1  0  0  0  0
  3  4  1  0  0  0  0
  4  5  1  0  0  0  0
  4 27  1  0  0  0  0
  4 28  1  0  0  0  0
  5  6  1  0  0  0  0
  5 29  1  0  0  0  0
  5 30  1  0  0  0  0
  6  7  1  0  0  0  0
  6 20  1  0  0  0  0
  6 47  1  0  0  0  0
  7  8  1  0  0  0  0
  7  9  1  0  0  0  0
  7 31  1  0  0  0  0
  8 32  1  0  0  0  0
  8 33  1  0  0  0  0
  8 34  1  0  0  0  0
  9 10  1  0  0  0  0
  9 35  1  0  0  0  0
  9 36  1  0  0  0  0
 10 11  1  0  0  0  0
 10 37  1  0  0  0  0
 11 12  2  0  0  0  0
 11 13  1  0  0  0  0
 13 14  1  0  0  0  0
 13 38  1  0  0  0  0
 14 19  2  0  0  0  0
 14 15  1  0  0  0  0
 15 16  2  0  0  0  0
 15 39  1  0  0  0  0
 16 17  1  0  0  0  0
 16 18  1  0  0  0  0
 17 40  1  0  0  0  0
 17 41  1  0  0  0  0
 17 42  1  0  0  0  0
 18 19  1  0  0  0  0
 20 21  1  0  0  0  0
 20 43  1  0  0  0  0
 20 44  1  0  0  0  0
 21 45  1  0  0  0  0
 21 46  1  0  0  0  0
M  CHG  1   6   1
M  END
> <s_m_source_file>
AV-unprocessed.smi

> <i_m_source_file_index>
1586

> <i_lp_mmshare_version>
43012

> <i_f3d_flags>
0

> <s_epik_input>
W0NIM11bQ0gyXU4xW0NIMl1bQ0gyXU4oW0NIMl1bQ0gyXTEpW0NASF0oW0NIM10pW0NIMl1bTkhdQyg9TylbTkhdYzJbY0hdYyhbQ0gzXSlvbjI=

> <s_epik_cmdline>
J2VwaWtfcHl0aG9uJywgJy1waCcsICc3LjAnLCAnLXRuJywgJzgnLCAnLW1hJywgJzIwMCcsICctbWV0YWxfYmluZGluZycsICctaW1hZScsICc8aW5maWxlLm1hZT4nLCAnLW9tYWUnLCAnPG91dGZpbGUubWFlPic=

> <r_epik_Ionization_Penalty>
0.153363

> <r_epik_Ionization_Penalty_Charging>
0.151842

> <r_epik_Ionization_Penalty_Neutral>
0.00152029

> <r_epik_State_Penalty>
0.985235

> <r_epik_Charging_Adjusted_Penalty>
1.13708

> <i_epik_Tot_Q>
1

> <i_epik_Tot_abs_Q>
1

> <r_epik_Metal_State_Penalty>
0.996168

> <b_epik_Metal_Only>
0

> <s_lp_Force_Field>
OPLS_2005

> <r_lp_Energy>
21.483

> <b_lp_Chiralities_Consistent>
1

> <s_lp_Variant>
AV-unprocessed.smi:1586-4

> <Gold.Version>
5.8.1

> <Gold.Id.Protein>
6NUR|6NUR_protein|mol2

> <Gold.PLP.Fitness>
41.3649

> <Gold.PLP.PLP>
-32.3456

> <Gold.PLP.part.hbond>
-3.6859

> <Gold.PLP.part.metal>
0.0000

> <Gold.PLP.part.buried>
-2.7153

> <Gold.PLP.part.nonpolar>
-25.7508

> <Gold.PLP.part.repulsive>
0.4826

> <Gold.PLP.ligand.clash>
0.0000

> <Gold.PLP.ligand.torsion>
0.6034

> <Gold.PLP.Chemscore.Hbond>
3.3859

> <Gold.PLP.Chemscore.CHOScore>
0.0000

> <Gold.PLP.Chemscore.Metal>
0.0000

> <Gold.Chemscore.Hbonds>
donor molecule, donor type, donor heavy atom, donor atom, acceptor molecule, acceptor atom, score
      L1  H     6    47       P1  7948  1.05

> <Gold.PLP.Chemscore.Internal.Correction>
0.0686

> <Gold.Rescore>
     Score         DG    S(hbond)    S(metal)    S(lipo)     H(rot)  DE(clash)    DE(int)     intcor
     12.80     -14.52       1.59        0.00      70.47       1.76       0.05       1.67       ----

> <Gold.Chemscore.Fitness>
12.8003

> <Gold.Chemscore.DG>
-14.5210

> <Gold.Chemscore.ZeroCoef>
-5.4800

> <Gold.Chemscore.Hbond>
1.5900

> <Gold.Chemscore.Metal>
0.0000

> <Gold.Chemscore.Lipo>
70.4727

> <Gold.Chemscore.Internal_Hbond>
0.0000

> <Gold.Chemscore.DEClash>
0.0473

> <Gold.Chemscore.DEInternal>
1.6734

> <Gold.Chemscore.Rot>
1.7637

> <Gold.Chemscore.Internal.Correction>
   9.000000E+99

> <Gold.Chemscore.Hbonds>
donor molecule, donor type, donor heavy atom, donor atom, acceptor molecule, acceptor atom, score
      L1  H     6    47       P1  7948  0.05

> <Gold.Chemscore.Hbond.Weighted>
-5.3107

> <Gold.Chemscore.Metal.Weighted>
-0.0000

> <Gold.Chemscore.Lipo.Weighted>
-8.2453

> <Gold.Chemscore.Internal_Hbond.Weighted>
0.0000

> <Gold.Chemscore.DEClash.Weighted>
0.0473

> <Gold.Chemscore.DEInternal.Weighted>
1.6734

> <Gold.Chemscore.Rot.Weighted>
4.5150

> <Gold.Chemscore.Internal.Correction.Weighted>
   9.000000E+99

> <Gold.Protein.RotatedTorsions>
[ 6907 6896 6895 6894 ] final  119.91 input  -60.11 | X-H torsion
[ 7974 7965 7964 7962 ] final -170.95 input  175.53 | X-H torsion
[ 8008 7997 7996 7995 ] final -109.30 input   59.86 | X-H torsion
[ 10167 10162 10161 10158 ] final  -50.32 input  -65.29 | X-H torsion
[ 10718 10713 10712 10709 ] final -145.74 input   66.30 | X-H torsion
[ 10763 10752 10751 10750 ] final -108.94 input  -60.55 | X-H torsion
[ 11005 11000 10999 10996 ] final  108.30 input  -57.11 | X-H torsion

> <Gold.Protein.ActiveResidues>
 VAL166  LYS551  ARG553  GLY616  TRP617  ASP618  TYR619  PRO620  LYS621  CYS622 
 ASP623  PHE694  ASN695  SER759  ASP760  ASP761  ALA762  ILE779  LEU786  VAL792 
 PHE793  MET794  SER795  GLU796  ALA797  LYS798  CYS799  TRP800  GLU811  SER814 

> <Gold.Protein.RotatedAtoms>
  152.4437  133.7496  159.6686 H   0  0  0  0  0  0  0  0  0  0  0  0  # atno 6907 bound_to 6896
  150.8333  133.8045  159.3096 H   0  0  0  0  0  0  0  0  0  0  0  0  # atno 6908 bound_to 6896
  151.5693  135.1065  160.0043 H   0  0  0  0  0  0  0  0  0  0  0  0  # atno 6909 bound_to 6896
  144.7163  140.1996  143.6340 H   0  0  0  0  0  0  0  0  0  0  0  0  # atno 7974 bound_to 7965
  154.9573  140.0399  157.2173 H   0  0  0  0  0  0  0  0  0  0  0  0  # atno 8008 bound_to 7997
  154.7922  140.2837  155.5961 H   0  0  0  0  0  0  0  0  0  0  0  0  # atno 8009 bound_to 7997
  156.2951  140.2571  156.2771 H   0  0  0  0  0  0  0  0  0  0  0  0  # atno 8010 bound_to 7997
  140.6643  143.2662  151.4342 H   0  0  0  0  0  0  0  0  0  0  0  0  # atno 10167 bound_to 10162
  156.3862  130.7862  151.2060 H   0  0  0  0  0  0  0  0  0  0  0  0  # atno 10718 bound_to 10713
  154.8165  135.4619  154.0657 H   0  0  0  0  0  0  0  0  0  0  0  0  # atno 10763 bound_to 10752
  153.2046  135.6873  153.8195 H   0  0  0  0  0  0  0  0  0  0  0  0  # atno 10764 bound_to 10752
  153.7668  135.3276  155.3323 H   0  0  0  0  0  0  0  0  0  0  0  0  # atno 10765 bound_to 10752
  139.8842  134.9426  156.5951 H   0  0  0  0  0  0  0  0  0  0  0  0  # atno 11005 bound_to 11000
  145.8693  139.2263  143.1671 LP  0  0  0  0  0  0  0  0  0  0  0  0  # atno 17320 bound_to 7965
  146.0100  140.8444  142.9975 LP  0  0  0  0  0  0  0  0  0  0  0  0  # atno 17321 bound_to 7965
  139.5887  144.1547  152.2061 LP  0  0  0  0  0  0  0  0  0  0  0  0  # atno 17342 bound_to 10162
  140.0895  144.5633  150.7065 LP  0  0  0  0  0  0  0  0  0  0  0  0  # atno 17343 bound_to 10162
  157.7496  131.0329  150.4248 LP  0  0  0  0  0  0  0  0  0  0  0  0  # atno 17370 bound_to 10713
  156.4501  130.4010  149.6641 LP  0  0  0  0  0  0  0  0  0  0  0  0  # atno 17371 bound_to 10713
  140.7926  133.8570  155.8659 LP  0  0  0  0  0  0  0  0  0  0  0  0  # atno 17394 bound_to 11000
  140.9663  134.1589  157.4613 LP  0  0  0  0  0  0  0  0  0  0  0  0  # atno 17395 bound_to 11000

$$$$
