AV-unprocessed.smi:1116|AV-procd|sdf|4812|dock10
  -GOLD-   22720 3363D 1   1.00000     0.00000
 Structure written by MMmdl.
 35 36  0  0  0  0  0  0  0  0  2 V2000
  152.4888  143.0499  161.7736 C   0  0  0  0  0  0  0  0  0  0  0  0
  152.0155  143.2350  160.3728 C   0  0  0  0  0  0  0  0  0  0  0  0
  151.4150  142.2762  159.6629 N   0  0  0  0  0  0  0  0  0  0  0  0
  151.0705  142.6963  158.3741 C   0  0  0  0  0  0  0  0  0  0  0  0
  150.3960  141.7461  157.4317 C   0  0  0  0  0  0  0  0  0  0  0  0
  151.2852  140.5384  157.0919 C   0  0  0  0  0  0  0  0  0  0  0  0
  150.5022  139.4176  156.5837 N   0  0  0  0  0  0  0  0  0  0  0  0
  150.6514  138.8612  155.3717 C   0  0  0  0  0  0  0  0  0  0  0  0
  151.4729  139.2582  154.5449 O   0  0  0  0  0  0  0  0  0  0  0  0
  149.7256  137.6863  155.0436 C   0  0  0  0  0  0  0  0  0  0  0  0
  150.1983  136.3616  155.6729 C   0  0  0  0  0  0  0  0  0  0  0  0
  149.1142  135.2661  155.6526 C   0  0  1  0  0  0  0  0  0  0  0  0
  148.9722  134.6970  154.3297 N   0  0  0  0  0  0  0  0  0  0  0  0
  149.1897  133.3833  154.3403 C   0  0  0  0  0  0  0  0  0  0  0  0
  149.1013  132.7057  153.3189 O   0  0  0  0  0  0  0  0  0  0  0  0
  149.5038  132.9745  155.5849 N   0  5  0  0  0  0  0  0  0  0  0  0
  149.4957  134.0157  156.4450 C   0  0  0  0  0  0  0  0  0  0  0  0
  149.7267  134.0517  157.6526 O   0  0  0  0  0  0  0  0  0  0  0  0
  151.4179  143.9996  158.1189 C   0  0  0  0  0  0  0  0  0  0  0  0
  152.1934  144.7459  159.4888 S   0  0  0  0  0  0  0  0  0  0  0  0
  152.4653  141.9956  162.0510 H   0  0  0  0  0  0  0  0  0  0  0  0
  151.8503  143.6074  162.4589 H   0  0  0  0  0  0  0  0  0  0  0  0
  153.5119  143.4131  161.8728 H   0  0  0  0  0  0  0  0  0  0  0  0
  149.4579  141.3977  157.8661 H   0  0  0  0  0  0  0  0  0  0  0  0
  150.1232  142.2704  156.5149 H   0  0  0  0  0  0  0  0  0  0  0  0
  152.0505  140.8200  156.3666 H   0  0  0  0  0  0  0  0  0  0  0  0
  151.8141  140.2032  157.9847 H   0  0  0  0  0  0  0  0  0  0  0  0
  149.8015  139.0325  157.2003 H   0  0  0  0  0  0  0  0  0  0  0  0
  148.7144  137.9117  155.3863 H   0  0  0  0  0  0  0  0  0  0  0  0
  149.6734  137.5902  153.9587 H   0  0  0  0  0  0  0  0  0  0  0  0
  151.0949  136.0010  155.1651 H   0  0  0  0  0  0  0  0  0  0  0  0
  150.4914  136.5501  156.7072 H   0  0  0  0  0  0  0  0  0  0  0  0
  148.1544  135.6463  156.0054 H   0  0  0  0  0  0  0  0  0  0  0  0
  148.7213  135.2351  153.5137 H   0  0  0  0  0  0  0  0  0  0  0  0
  151.2668  144.5634  157.2100 H   0  0  0  0  0  0  0  0  0  0  0  0
  1  2  1  0  0  0  0
  1 21  1  0  0  0  0
  1 22  1  0  0  0  0
  1 23  1  0  0  0  0
  2 20  1  0  0  0  0
  2  3  2  0  0  0  0
  3  4  1  0  0  0  0
  4  5  1  0  0  0  0
  4 19  2  0  0  0  0
  5  6  1  0  0  0  0
  5 24  1  0  0  0  0
  5 25  1  0  0  0  0
  6  7  1  0  0  0  0
  6 26  1  0  0  0  0
  6 27  1  0  0  0  0
  7  8  1  0  0  0  0
  7 28  1  0  0  0  0
  8  9  2  0  0  0  0
  8 10  1  0  0  0  0
 10 11  1  0  0  0  0
 10 29  1  0  0  0  0
 10 30  1  0  0  0  0
 11 12  1  0  0  0  0
 11 31  1  0  0  0  0
 11 32  1  0  0  0  0
 12 17  1  0  0  0  0
 12 13  1  0  0  0  0
 12 33  1  0  0  0  0
 13 14  1  0  0  0  0
 13 34  1  0  0  0  0
 14 15  2  0  0  0  0
 14 16  1  0  0  0  0
 16 17  1  0  0  0  0
 17 18  2  0  0  0  0
 19 20  1  0  0  0  0
 19 35  1  0  0  0  0
M  CHG  1  16  -1
M  END
> <s_m_source_file>
AV-unprocessed.smi

> <i_m_source_file_index>
1116

> <i_lp_mmshare_version>
43012

> <i_f3d_flags>
0

> <s_epik_input>
W0NIM11jMW5jKFtjSF1zMSlbQ0gyXVtDSDJdW05IXUMoPU8pW0NIMl1bQ0gyXVtDQEBIXTJbTkhdQyg9TylbTkhdQzI9Tw==

> <s_epik_cmdline>
J2VwaWtfcHl0aG9uJywgJy1waCcsICc3LjAnLCAnLXRuJywgJzgnLCAnLW1hJywgJzIwMCcsICctbWV0YWxfYmluZGluZycsICctaW1hZScsICc8aW5maWxlLm1hZT4nLCAnLW9tYWUnLCAnPG91dGZpbGUubWFlPic=

> <r_lp_tautomer_probability>
1

> <r_epik_Ionization_Penalty>
2.5713

> <r_epik_Ionization_Penalty_Charging>
2.57023

> <r_epik_Ionization_Penalty_Neutral>
0.00106405

> <r_epik_State_Penalty>
2.56828

> <r_epik_Charging_Adjusted_Penalty>
5.13851

> <i_epik_Tot_Q>
-1

> <i_epik_Tot_abs_Q>
1

> <r_epik_Metal_State_Penalty>
0.44525

> <b_epik_Metal_Only>
1

> <s_lp_Force_Field>
OPLS_2005

> <r_lp_Energy>
2.19092

> <b_lp_Chiralities_Consistent>
1

> <s_lp_Variant>
AV-unprocessed.smi:1116-6

> <Gold.Version>
5.8.1

> <Gold.Id.Protein>
6NUR|6NUR_protein|mol2

> <Gold.PLP.Fitness>
46.5757

> <Gold.PLP.PLP>
-35.7569

> <Gold.PLP.part.hbond>
-3.0000

> <Gold.PLP.part.metal>
0.0000

> <Gold.PLP.part.buried>
-5.2097

> <Gold.PLP.part.nonpolar>
-28.4191

> <Gold.PLP.part.repulsive>
0.3536

> <Gold.PLP.ligand.clash>
0.0000

> <Gold.PLP.ligand.torsion>
0.5060

> <Gold.PLP.Chemscore.Hbond>
2.9920

> <Gold.PLP.Chemscore.CHOScore>
0.9328

> <Gold.PLP.Chemscore.Metal>
0.0000

> <Gold.Chemscore.Hbonds>
donor molecule, donor type, donor heavy atom, donor atom, acceptor molecule, acceptor atom, score
      L1  H    13    34       P1  7948  1.00
      P1  H  6896  6907       L1    18  1.00
      P1  H  7989  7998       L1     9  1.00
      L1  C    19    35       P1  8028  0.29

> <Gold.PLP.Chemscore.Internal.Correction>
0.0566

> <Gold.Rescore>
     Score         DG    S(hbond)    S(metal)    S(lipo)     H(rot)  DE(clash)    DE(int)     intcor
     16.91     -17.34       2.89        0.00      79.46       2.77       0.06       0.38       ----

> <Gold.Chemscore.Fitness>
16.9109

> <Gold.Chemscore.DG>
-17.3440

> <Gold.Chemscore.ZeroCoef>
-5.4800

> <Gold.Chemscore.Hbond>
2.8911

> <Gold.Chemscore.Metal>
0.0000

> <Gold.Chemscore.Lipo>
79.4580

> <Gold.Chemscore.Internal_Hbond>
0.0000

> <Gold.Chemscore.DEClash>
0.0580

> <Gold.Chemscore.DEInternal>
0.3752

> <Gold.Chemscore.Rot>
2.7691

> <Gold.Chemscore.Internal.Correction>
   9.000000E+99

> <Gold.Chemscore.Hbonds>
donor molecule, donor type, donor heavy atom, donor atom, acceptor molecule, acceptor atom, score
      L1  H    13    34       P1  7948  0.81
      P1  H  6896  6907       L1    18  0.99
      P1  H  7989  7998       L1     9  0.99

> <Gold.Chemscore.Hbond.Weighted>
-9.6564

> <Gold.Chemscore.Metal.Weighted>
-0.0000

> <Gold.Chemscore.Lipo.Weighted>
-9.2966

> <Gold.Chemscore.Internal_Hbond.Weighted>
0.0000

> <Gold.Chemscore.DEClash.Weighted>
0.0580

> <Gold.Chemscore.DEInternal.Weighted>
0.3752

> <Gold.Chemscore.Rot.Weighted>
7.0889

> <Gold.Chemscore.Internal.Correction.Weighted>
   9.000000E+99

> <Gold.Protein.RotatedTorsions>
[ 6907 6896 6895 6894 ] final -107.92 input  -60.11 | X-H torsion
[ 7974 7965 7964 7962 ] final   30.62 input  175.53 | X-H torsion
[ 8008 7997 7996 7995 ] final  -52.78 input   59.86 | X-H torsion
[ 10167 10162 10161 10158 ] final  -43.06 input  -65.29 | X-H torsion
[ 10718 10713 10712 10709 ] final  155.33 input   66.30 | X-H torsion
[ 10763 10752 10751 10750 ] final   85.53 input  -60.55 | X-H torsion
[ 11005 11000 10999 10996 ] final  -52.06 input  -57.11 | X-H torsion

> <Gold.Protein.ActiveResidues>
 VAL166  LYS551  ARG553  GLY616  TRP617  ASP618  TYR619  PRO620  LYS621  CYS622 
 ASP623  PHE694  ASN695  SER759  ASP760  ASP761  ALA762  ILE779  LEU786  VAL792 
 PHE793  MET794  SER795  GLU796  ALA797  LYS798  CYS799  TRP800  GLU811  SER814 

> <Gold.Protein.RotatedAtoms>
  150.7472  133.9754  159.3558 H   0  0  0  0  0  0  0  0  0  0  0  0  # atno 6907 bound_to 6896
  151.7691  135.0789  160.0366 H   0  0  0  0  0  0  0  0  0  0  0  0  # atno 6908 bound_to 6896
  152.3351  133.5965  159.5873 H   0  0  0  0  0  0  0  0  0  0  0  0  # atno 6909 bound_to 6896
  146.1600  139.6764  142.9040 H   0  0  0  0  0  0  0  0  0  0  0  0  # atno 7974 bound_to 7965
  154.4115  140.1215  156.5048 H   0  0  0  0  0  0  0  0  0  0  0  0  # atno 8008 bound_to 7997
  155.6859  140.3496  155.4854 H   0  0  0  0  0  0  0  0  0  0  0  0  # atno 8009 bound_to 7997
  155.9511  140.1105  157.0965 H   0  0  0  0  0  0  0  0  0  0  0  0  # atno 8010 bound_to 7997
  140.6947  143.3004  151.3297 H   0  0  0  0  0  0  0  0  0  0  0  0  # atno 10167 bound_to 10162
  157.2198  131.0716  151.1919 H   0  0  0  0  0  0  0  0  0  0  0  0  # atno 10718 bound_to 10713
  153.1483  135.4614  154.9599 H   0  0  0  0  0  0  0  0  0  0  0  0  # atno 10763 bound_to 10752
  154.7804  135.3187  154.8004 H   0  0  0  0  0  0  0  0  0  0  0  0  # atno 10764 bound_to 10752
  153.8513  135.6921  153.4846 H   0  0  0  0  0  0  0  0  0  0  0  0  # atno 10765 bound_to 10752
  141.0904  133.6634  156.3969 H   0  0  0  0  0  0  0  0  0  0  0  0  # atno 11005 bound_to 11000
  145.4611  141.0433  143.2751 LP  0  0  0  0  0  0  0  0  0  0  0  0  # atno 17320 bound_to 7965
  144.8015  139.6132  143.7070 LP  0  0  0  0  0  0  0  0  0  0  0  0  # atno 17321 bound_to 7965
  139.6389  144.0577  152.2538 LP  0  0  0  0  0  0  0  0  0  0  0  0  # atno 17342 bound_to 10162
  140.0076  144.6248  150.7675 LP  0  0  0  0  0  0  0  0  0  0  0  0  # atno 17343 bound_to 10162
  157.3588  130.7120  149.6488 LP  0  0  0  0  0  0  0  0  0  0  0  0  # atno 17370 bound_to 10713
  155.9683  130.4231  150.4549 LP  0  0  0  0  0  0  0  0  0  0  0  0  # atno 17371 bound_to 10713
  140.5265  134.6254  157.5335 LP  0  0  0  0  0  0  0  0  0  0  0  0  # atno 17394 bound_to 11000
  139.9729  134.7263  156.0006 LP  0  0  0  0  0  0  0  0  0  0  0  0  # atno 17395 bound_to 11000

$$$$
