AV-unprocessed.smi:2539|AV-procd|sdf|9985|dock7
  -GOLD-   2272014 33D 1   1.00000     0.00000
 Structure written by MMmdl.
 40 41  0  0  0  0  0  0  0  0  1 V2000
  150.3126  142.1296  156.9829 O   0  0  0  0  0  0  0  0  0  0  0  0
  150.7685  141.1189  156.4461 C   0  0  0  0  0  0  0  0  0  0  0  0
  151.7450  140.3856  157.0095 N   0  0  0  0  0  0  0  0  0  0  0  0
  152.3154  140.6005  158.3371 C   0  0  0  0  0  0  0  0  0  0  0  0
  152.6345  142.0868  158.5950 C   0  0  0  0  0  0  0  0  0  0  0  0
  152.8780  142.4121  160.0589 C   0  0  0  0  0  0  0  0  0  0  0  0
  152.2961  143.5487  160.6588 C   0  0  0  0  0  0  0  0  0  0  0  0
  152.5817  143.8233  162.0099 C   0  0  0  0  0  0  0  0  0  0  0  0
  153.4368  142.9462  162.7062 C   0  0  0  0  0  0  0  0  0  0  0  0
  153.9946  141.8524  162.1445 N   0  0  0  0  0  0  0  0  0  0  0  0
  153.7171  141.5968  160.8480 C   0  0  0  0  0  0  0  0  0  0  0  0
  150.2862  140.6170  155.2817 N   0  0  0  0  0  0  0  0  0  0  0  0
  150.5373  139.2735  154.7391 C   0  0  0  0  0  0  0  0  0  0  0  0
  149.2749  138.4158  154.9498 C   0  0  0  0  0  0  0  0  0  0  0  0
  148.0109  139.0675  154.3291 C   0  0  0  0  0  0  0  0  0  0  0  0
  148.1329  138.9845  152.9198 O   0  0  0  0  0  0  0  0  0  0  0  0
  146.7257  138.2992  154.7204 C   0  0  0  0  0  0  0  0  0  0  0  0
  145.6914  138.7394  154.0037 F   0  0  0  0  0  0  0  0  0  0  0  0
  146.8690  136.9942  154.4849 F   0  0  0  0  0  0  0  0  0  0  0  0
  146.4424  138.4810  156.0111 F   0  0  0  0  0  0  0  0  0  0  0  0
  147.9168  140.5708  154.7035 C   0  0  0  0  0  0  0  0  0  0  0  0
  149.2548  141.3109  154.5046 C   0  0  0  0  0  0  0  0  0  0  0  0
  152.0642  139.5699  156.5079 H   0  0  0  0  0  0  0  0  0  0  0  0
  151.5972  140.2481  159.0774 H   0  0  0  0  0  0  0  0  0  0  0  0
  153.2126  139.9944  158.4736 H   0  0  0  0  0  0  0  0  0  0  0  0
  153.5117  142.3789  158.0161 H   0  0  0  0  0  0  0  0  0  0  0  0
  151.8135  142.7059  158.2318 H   0  0  0  0  0  0  0  0  0  0  0  0
  151.6526  144.2063  160.0932 H   0  0  0  0  0  0  0  0  0  0  0  0
  152.1580  144.6866  162.5008 H   0  0  0  0  0  0  0  0  0  0  0  0
  153.6783  143.1274  163.7431 H   0  0  0  0  0  0  0  0  0  0  0  0
  154.1877  140.7218  160.4242 H   0  0  0  0  0  0  0  0  0  0  0  0
  150.7633  139.3526  153.6748 H   0  0  0  0  0  0  0  0  0  0  0  0
  151.4060  138.7806  155.1757 H   0  0  0  0  0  0  0  0  0  0  0  0
  149.4306  137.4187  154.5363 H   0  0  0  0  0  0  0  0  0  0  0  0
  149.1254  138.2784  156.0214 H   0  0  0  0  0  0  0  0  0  0  0  0
  148.2778  138.0803  152.6858 H   0  0  0  0  0  0  0  0  0  0  0  0
  147.1325  141.0602  154.1251 H   0  0  0  0  0  0  0  0  0  0  0  0
  147.6226  140.6662  155.7497 H   0  0  0  0  0  0  0  0  0  0  0  0
  149.1441  142.3583  154.7889 H   0  0  0  0  0  0  0  0  0  0  0  0
  149.5333  141.3213  153.4499 H   0  0  0  0  0  0  0  0  0  0  0  0
  1  2  2  0  0  0  0
  2  3  1  0  0  0  0
  2 12  1  0  0  0  0
  3  4  1  0  0  0  0
  3 23  1  0  0  0  0
  4  5  1  0  0  0  0
  4 24  1  0  0  0  0
  4 25  1  0  0  0  0
  5  6  1  0  0  0  0
  5 26  1  0  0  0  0
  5 27  1  0  0  0  0
  6 11  1  0  0  0  0
  6  7  2  0  0  0  0
  7  8  1  0  0  0  0
  7 28  1  0  0  0  0
  8  9  2  0  0  0  0
  8 29  1  0  0  0  0
  9 10  1  0  0  0  0
  9 30  1  0  0  0  0
 10 11  2  0  0  0  0
 11 31  1  0  0  0  0
 12 22  1  0  0  0  0
 12 13  1  0  0  0  0
 13 14  1  0  0  0  0
 13 32  1  0  0  0  0
 13 33  1  0  0  0  0
 14 15  1  0  0  0  0
 14 34  1  0  0  0  0
 14 35  1  0  0  0  0
 15 16  1  0  0  0  0
 15 17  1  0  0  0  0
 15 21  1  0  0  0  0
 16 36  1  0  0  0  0
 17 18  1  0  0  0  0
 17 19  1  0  0  0  0
 17 20  1  0  0  0  0
 21 22  1  0  0  0  0
 21 37  1  0  0  0  0
 21 38  1  0  0  0  0
 22 39  1  0  0  0  0
 22 40  1  0  0  0  0
M  END
> <s_m_source_file>
AV-unprocessed.smi

> <i_m_source_file_index>
2539

> <i_lp_mmshare_version>
43012

> <i_f3d_flags>
0

> <s_epik_input>
RkMoRikoRilDMShbT0hdKVtDSDJdW0NIMl1OKFtDSDJdW0NIMl0xKUMoPU8pW05IXVtDSDJdW0NIMl1jMltjSF1bY0hdW2NIXW5bY0hdMg==

> <s_epik_cmdline>
J2VwaWtfcHl0aG9uJywgJy1waCcsICc3LjAnLCAnLXRuJywgJzgnLCAnLW1hJywgJzIwMCcsICctbWV0YWxfYmluZGluZycsICctaW1hZScsICc8aW5maWxlLm1hZT4nLCAnLW9tYWUnLCAnPG91dGZpbGUubWFlPic=

> <r_epik_Ionization_Penalty>
0.0144431

> <r_epik_Ionization_Penalty_Charging>
0

> <r_epik_Ionization_Penalty_Neutral>
0.0144431

> <r_epik_State_Penalty>
0.0112443

> <r_epik_Charging_Adjusted_Penalty>
0.0112443

> <i_epik_Tot_Q>
0

> <i_epik_Tot_abs_Q>
0

> <r_epik_Metal_State_Penalty>
0.0109773

> <b_epik_Metal_Only>
0

> <s_lp_Force_Field>
OPLS_2005

> <r_lp_Energy>
34.3491

> <b_lp_Chiralities_Consistent>
1

> <s_lp_Variant>
AV-unprocessed.smi:2539-1

> <Gold.Version>
5.8.1

> <Gold.Id.Protein>
6NUR|6NUR_protein|mol2

> <Gold.PLP.Fitness>
45.1779

> <Gold.PLP.PLP>
-43.1530

> <Gold.PLP.part.hbond>
-2.7440

> <Gold.PLP.part.metal>
0.0000

> <Gold.PLP.part.buried>
-4.0633

> <Gold.PLP.part.nonpolar>
-34.9180

> <Gold.PLP.part.repulsive>
0.2387

> <Gold.PLP.ligand.clash>
0.0000

> <Gold.PLP.ligand.torsion>
0.5121

> <Gold.PLP.Chemscore.Hbond>
1.0000

> <Gold.PLP.Chemscore.CHOScore>
0.0000

> <Gold.PLP.Chemscore.Metal>
0.0000

> <Gold.Chemscore.Hbonds>
donor molecule, donor type, donor heavy atom, donor atom, acceptor molecule, acceptor atom, score
      L1  H    16    36       P1  7948  0.80

> <Gold.PLP.Chemscore.Internal.Correction>
0.0492

> <Gold.Rescore>
     Score         DG    S(hbond)    S(metal)    S(lipo)     H(rot)  DE(clash)    DE(int)     intcor
     13.94     -15.97       1.00        0.00     104.33       1.97       0.31       1.71       ----

> <Gold.Chemscore.Fitness>
13.9446

> <Gold.Chemscore.DG>
-15.9686

> <Gold.Chemscore.ZeroCoef>
-5.4800

> <Gold.Chemscore.Hbond>
0.9983

> <Gold.Chemscore.Metal>
0.0000

> <Gold.Chemscore.Lipo>
104.3349

> <Gold.Chemscore.Internal_Hbond>
0.0000

> <Gold.Chemscore.DEClash>
0.3104

> <Gold.Chemscore.DEInternal>
1.7136

> <Gold.Chemscore.Rot>
1.9737

> <Gold.Chemscore.Internal.Correction>
   9.000000E+99

> <Gold.Chemscore.Hbonds>
donor molecule, donor type, donor heavy atom, donor atom, acceptor molecule, acceptor atom, score
      L1  H    16    36       P1  7948  0.79

> <Gold.Chemscore.Hbond.Weighted>
-3.3342

> <Gold.Chemscore.Metal.Weighted>
-0.0000

> <Gold.Chemscore.Lipo.Weighted>
-12.2072

> <Gold.Chemscore.Internal_Hbond.Weighted>
0.0000

> <Gold.Chemscore.DEClash.Weighted>
0.3104

> <Gold.Chemscore.DEInternal.Weighted>
1.7136

> <Gold.Chemscore.Rot.Weighted>
5.0528

> <Gold.Chemscore.Internal.Correction.Weighted>
   9.000000E+99

> <Gold.Protein.RotatedTorsions>
[ 6907 6896 6895 6894 ] final   -5.43 input  -60.11 | X-H torsion
[ 7974 7965 7964 7962 ] final   39.38 input  175.53 | X-H torsion
[ 8008 7997 7996 7995 ] final   67.96 input   59.86 | X-H torsion
[ 10167 10162 10161 10158 ] final -168.21 input  -65.29 | X-H torsion
[ 10718 10713 10712 10709 ] final  144.42 input   66.30 | X-H torsion
[ 10763 10752 10751 10750 ] final  -32.52 input  -60.55 | X-H torsion
[ 11005 11000 10999 10996 ] final -164.42 input  -57.11 | X-H torsion

> <Gold.Protein.ActiveResidues>
 VAL166  LYS551  ARG553  GLY616  TRP617  ASP618  TYR619  PRO620  LYS621  CYS622 
 ASP623  PHE694  ASN695  SER759  ASP760  ASP761  ALA762  ILE779  LEU786  VAL792 
 PHE793  MET794  SER795  GLU796  ALA797  LYS798  CYS799  TRP800  GLU811  SER814 

> <Gold.Protein.RotatedAtoms>
  151.4817  135.1052  159.9779 H   0  0  0  0  0  0  0  0  0  0  0  0  # atno 6907 bound_to 6896
  152.4777  133.8173  159.7045 H   0  0  0  0  0  0  0  0  0  0  0  0  # atno 6908 bound_to 6896
  150.8826  133.7290  159.2954 H   0  0  0  0  0  0  0  0  0  0  0  0  # atno 6909 bound_to 6896
  146.0989  139.5659  142.9427 H   0  0  0  0  0  0  0  0  0  0  0  0  # atno 7974 bound_to 7965
  155.7009  140.3495  155.4933 H   0  0  0  0  0  0  0  0  0  0  0  0  # atno 8008 bound_to 7997
  155.9441  140.1107  157.1053 H   0  0  0  0  0  0  0  0  0  0  0  0  # atno 8009 bound_to 7997
  154.4108  140.1207  156.4952 H   0  0  0  0  0  0  0  0  0  0  0  0  # atno 8010 bound_to 7997
  139.6000  144.1031  152.1732 H   0  0  0  0  0  0  0  0  0  0  0  0  # atno 10167 bound_to 10162
  157.3574  131.0960  151.0946 H   0  0  0  0  0  0  0  0  0  0  0  0  # atno 10718 bound_to 10713
  153.8151  135.6879  153.4835 H   0  0  0  0  0  0  0  0  0  0  0  0  # atno 10763 bound_to 10752
  153.1604  135.4582  154.9762 H   0  0  0  0  0  0  0  0  0  0  0  0  # atno 10764 bound_to 10752
  154.7951  135.3316  154.7628 H   0  0  0  0  0  0  0  0  0  0  0  0  # atno 10765 bound_to 10752
  140.5871  134.5083  157.5187 H   0  0  0  0  0  0  0  0  0  0  0  0  # atno 11005 bound_to 11000
  145.5894  141.0371  143.2078 LP  0  0  0  0  0  0  0  0  0  0  0  0  # atno 17320 bound_to 7965
  144.7417  139.7431  143.7308 LP  0  0  0  0  0  0  0  0  0  0  0  0  # atno 17321 bound_to 7965
  140.0625  144.5845  150.7252 LP  0  0  0  0  0  0  0  0  0  0  0  0  # atno 17342 bound_to 10162
  140.7242  143.2619  151.4177 LP  0  0  0  0  0  0  0  0  0  0  0  0  # atno 17343 bound_to 10162
  157.2098  130.6433  149.5770 LP  0  0  0  0  0  0  0  0  0  0  0  0  # atno 17370 bound_to 10713
  155.9731  130.4663  150.6286 LP  0  0  0  0  0  0  0  0  0  0  0  0  # atno 17371 bound_to 10713
  139.9291  134.7998  156.0982 LP  0  0  0  0  0  0  0  0  0  0  0  0  # atno 17394 bound_to 11000
  141.0959  133.6696  156.2644 LP  0  0  0  0  0  0  0  0  0  0  0  0  # atno 17395 bound_to 11000

$$$$
