AV-unprocessed.smi:1258|AV-procd|sdf|5288|dock6
  -GOLD-   22720 4403D 1   1.00000     0.00000
 Structure written by MMmdl.
 33 34  0  0  0  0  0  0  0  0  1 V2000
  151.4598  144.9536  159.2550 C   0  0  0  0  0  0  0  0  0  0  0  0
  152.1725  143.6173  159.0030 C   0  0  1  0  0  0  0  0  0  0  0  0
  152.5027  142.8969  160.3242 C   0  0  0  0  0  0  0  0  0  0  0  0
  153.2140  141.5580  160.0731 C   0  0  0  0  0  0  0  0  0  0  0  0
  152.3845  140.6507  159.1518 C   0  0  0  0  0  0  0  0  0  0  0  0
  152.0522  141.3553  157.8240 C   0  0  1  0  0  0  0  0  0  0  0  0
  151.2185  140.4821  157.0042 N   0  0  0  0  0  0  0  0  0  0  0  0
  151.6722  139.5536  156.1476 C   0  0  0  0  0  0  0  0  0  0  0  0
  152.8672  139.3427  155.9424 O   0  0  0  0  0  0  0  0  0  0  0  0
  150.6151  138.7338  155.4084 C   0  0  0  0  0  0  0  0  0  0  0  0
  149.6945  139.5983  154.6951 N   0  0  0  0  0  0  0  0  0  0  0  0
  148.5131  139.3436  154.1286 C   0  0  0  0  0  0  0  0  0  0  0  0
  147.9888  140.4305  153.5831 N   0  0  0  0  0  0  0  0  0  0  0  0
  148.9365  141.4050  153.8487 N   0  0  0  0  0  0  0  0  0  0  0  0
  149.9508  140.9173  154.5089 N   0  0  0  0  0  0  0  0  0  0  0  0
  151.3438  142.7018  158.0808 C   0  0  0  0  0  0  0  0  0  0  0  0
  150.5058  144.8049  159.7616 H   0  0  0  0  0  0  0  0  0  0  0  0
  151.2617  145.4758  158.3187 H   0  0  0  0  0  0  0  0  0  0  0  0
  152.0678  145.6118  159.8764 H   0  0  0  0  0  0  0  0  0  0  0  0
  153.1135  143.8384  158.4970 H   0  0  0  0  0  0  0  0  0  0  0  0
  153.1316  143.5322  160.9489 H   0  0  0  0  0  0  0  0  0  0  0  0
  151.5858  142.7206  160.8883 H   0  0  0  0  0  0  0  0  0  0  0  0
  154.1903  141.7411  159.6228 H   0  0  0  0  0  0  0  0  0  0  0  0
  153.4008  141.0530  161.0213 H   0  0  0  0  0  0  0  0  0  0  0  0
  152.9304  139.7263  158.9587 H   0  0  0  0  0  0  0  0  0  0  0  0
  151.4628  140.3650  159.6613 H   0  0  0  0  0  0  0  0  0  0  0  0
  152.9902  141.5451  157.2985 H   0  0  0  0  0  0  0  0  0  0  0  0
  150.2187  140.5827  157.1066 H   0  0  0  0  0  0  0  0  0  0  0  0
  151.0918  138.0482  154.7059 H   0  0  0  0  0  0  0  0  0  0  0  0
  150.0485  138.1285  156.1170 H   0  0  0  0  0  0  0  0  0  0  0  0
  148.0413  138.3721  154.1196 H   0  0  0  0  0  0  0  0  0  0  0  0
  150.3654  142.5216  158.5290 H   0  0  0  0  0  0  0  0  0  0  0  0
  151.1592  143.2096  157.1331 H   0  0  0  0  0  0  0  0  0  0  0  0
  1  2  1  0  0  0  0
  1 17  1  0  0  0  0
  1 18  1  0  0  0  0
  1 19  1  0  0  0  0
  2 16  1  0  0  0  0
  2  3  1  0  0  0  0
  2 20  1  0  0  0  0
  3  4  1  0  0  0  0
  3 21  1  0  0  0  0
  3 22  1  0  0  0  0
  4  5  1  0  0  0  0
  4 23  1  0  0  0  0
  4 24  1  0  0  0  0
  5  6  1  0  0  0  0
  5 25  1  0  0  0  0
  5 26  1  0  0  0  0
  6  7  1  0  0  0  0
  6 16  1  0  0  0  0
  6 27  1  0  0  0  0
  7  8  1  0  0  0  0
  7 28  1  0  0  0  0
  8  9  2  0  0  0  0
  8 10  1  0  0  0  0
 10 11  1  0  0  0  0
 10 29  1  0  0  0  0
 10 30  1  0  0  0  0
 11 15  1  0  0  0  0
 11 12  1  0  0  0  0
 12 13  2  0  0  0  0
 12 31  1  0  0  0  0
 13 14  1  0  0  0  0
 14 15  2  0  0  0  0
 16 32  1  0  0  0  0
 16 33  1  0  0  0  0
M  END
> <s_m_source_file>
AV-unprocessed.smi

> <i_m_source_file_index>
1258

> <i_lp_mmshare_version>
43012

> <i_f3d_flags>
0

> <s_epik_input>
W0NIM11bQ0BASF0xW0NIMl1bQ0gyXVtDSDJdW0NASF0oW0NIMl0xKVtOSF1DKD1PKVtDSDJdbjJbY0hdbm5uMg==

> <s_epik_cmdline>
J2VwaWtfcHl0aG9uJywgJy1waCcsICc3LjAnLCAnLXRuJywgJzgnLCAnLW1hJywgJzIwMCcsICctbWV0YWxfYmluZGluZycsICctaW1hZScsICc8aW5maWxlLm1hZT4nLCAnLW9tYWUnLCAnPG91dGZpbGUubWFlPic=

> <r_lp_tautomer_probability>
1

> <r_epik_Ionization_Penalty>
5.03816e-07

> <r_epik_Ionization_Penalty_Charging>
0

> <r_epik_Ionization_Penalty_Neutral>
5.03816e-07

> <r_epik_State_Penalty>
-0

> <r_epik_Charging_Adjusted_Penalty>
0

> <i_epik_Tot_Q>
0

> <i_epik_Tot_abs_Q>
0

> <r_epik_Metal_State_Penalty>
-0

> <b_epik_Metal_Only>
0

> <s_lp_Force_Field>
OPLS_2005

> <r_lp_Energy>
10.5543

> <b_lp_Chiralities_Consistent>
1

> <s_lp_Variant>
AV-unprocessed.smi:1258-2

> <Gold.Version>
5.8.1

> <Gold.Id.Protein>
6NUR|6NUR_protein|mol2

> <Gold.PLP.Fitness>
39.6632

> <Gold.PLP.PLP>
-33.4681

> <Gold.PLP.part.hbond>
-3.3190

> <Gold.PLP.part.metal>
0.0000

> <Gold.PLP.part.buried>
-6.0988

> <Gold.PLP.part.nonpolar>
-25.9206

> <Gold.PLP.part.repulsive>
2.1425

> <Gold.PLP.ligand.clash>
0.0000

> <Gold.PLP.ligand.torsion>
0.5409

> <Gold.PLP.Chemscore.Hbond>
2.4240

> <Gold.PLP.Chemscore.CHOScore>
0.0000

> <Gold.PLP.Chemscore.Metal>
0.0000

> <Gold.Chemscore.Hbonds>
donor molecule, donor type, donor heavy atom, donor atom, acceptor molecule, acceptor atom, score
      P1  H  7989  7998       L1    15  0.66
      P1  H  7997  8009       L1     9  1.00
      P1  H  8011  8017       L1    14  0.77

> <Gold.PLP.Chemscore.Internal.Correction>
0.0050

> <Gold.Rescore>
     Score         DG    S(hbond)    S(metal)    S(lipo)     H(rot)  DE(clash)    DE(int)     intcor
     14.17     -16.19       1.94        0.00      78.19       1.92       0.17       1.84       ----

> <Gold.Chemscore.Fitness>
14.1719

> <Gold.Chemscore.DG>
-16.1851

> <Gold.Chemscore.ZeroCoef>
-5.4800

> <Gold.Chemscore.Hbond>
1.9352

> <Gold.Chemscore.Metal>
0.0000

> <Gold.Chemscore.Lipo>
78.1941

> <Gold.Chemscore.Internal_Hbond>
0.0000

> <Gold.Chemscore.DEClash>
0.1694

> <Gold.Chemscore.DEInternal>
1.8438

> <Gold.Chemscore.Rot>
1.9169

> <Gold.Chemscore.Internal.Correction>
   9.000000E+99

> <Gold.Chemscore.Hbonds>
donor molecule, donor type, donor heavy atom, donor atom, acceptor molecule, acceptor atom, score
      P1  H  7989  7998       L1    15  0.22
      P1  H  7997  8009       L1     9  1.00
      P1  H  8011  8017       L1    14  0.32

> <Gold.Chemscore.Hbond.Weighted>
-6.4636

> <Gold.Chemscore.Metal.Weighted>
-0.0000

> <Gold.Chemscore.Lipo.Weighted>
-9.1487

> <Gold.Chemscore.Internal_Hbond.Weighted>
0.0000

> <Gold.Chemscore.DEClash.Weighted>
0.1694

> <Gold.Chemscore.DEInternal.Weighted>
1.8438

> <Gold.Chemscore.Rot.Weighted>
4.9073

> <Gold.Chemscore.Internal.Correction.Weighted>
   9.000000E+99

> <Gold.Protein.RotatedTorsions>
[ 6907 6896 6895 6894 ] final  -16.95 input  -60.11 | X-H torsion
[ 7974 7965 7964 7962 ] final   26.83 input  175.53 | X-H torsion
[ 8008 7997 7996 7995 ] final -150.65 input   59.86 | X-H torsion
[ 10167 10162 10161 10158 ] final  -43.14 input  -65.29 | X-H torsion
[ 10718 10713 10712 10709 ] final  -68.55 input   66.30 | X-H torsion
[ 10763 10752 10751 10750 ] final  -46.76 input  -60.55 | X-H torsion
[ 11005 11000 10999 10996 ] final   91.18 input  -57.11 | X-H torsion

> <Gold.Protein.ActiveResidues>
 VAL166  LYS551  ARG553  GLY616  TRP617  ASP618  TYR619  PRO620  LYS621  CYS622 
 ASP623  PHE694  ASN695  SER759  ASP760  ASP761  ALA762  ILE779  LEU786  VAL792 
 PHE793  MET794  SER795  GLU796  ALA797  LYS798  CYS799  TRP800  GLU811  SER814 

> <Gold.Protein.RotatedAtoms>
  151.3008  135.0768  159.9237 H   0  0  0  0  0  0  0  0  0  0  0  0  # atno 6907 bound_to 6896
  152.5298  133.9835  159.7828 H   0  0  0  0  0  0  0  0  0  0  0  0  # atno 6908 bound_to 6896
  151.0121  133.5904  159.2712 H   0  0  0  0  0  0  0  0  0  0  0  0  # atno 6909 bound_to 6896
  146.1817  139.7274  142.8896 H   0  0  0  0  0  0  0  0  0  0  0  0  # atno 7974 bound_to 7965
  155.6270  140.0687  157.2661 H   0  0  0  0  0  0  0  0  0  0  0  0  # atno 8008 bound_to 7997
  154.4215  140.1774  156.1480 H   0  0  0  0  0  0  0  0  0  0  0  0  # atno 8009 bound_to 7997
  155.9964  140.3340  155.6806 H   0  0  0  0  0  0  0  0  0  0  0  0  # atno 8010 bound_to 7997
  140.6944  143.2999  151.3310 H   0  0  0  0  0  0  0  0  0  0  0  0  # atno 10167 bound_to 10162
  156.0499  130.4297  150.2018 H   0  0  0  0  0  0  0  0  0  0  0  0  # atno 10718 bound_to 10713
  154.0502  135.6632  153.4799 H   0  0  0  0  0  0  0  0  0  0  0  0  # atno 10763 bound_to 10752
  153.0466  135.5110  154.7758 H   0  0  0  0  0  0  0  0  0  0  0  0  # atno 10764 bound_to 10752
  154.6762  135.3037  154.9642 H   0  0  0  0  0  0  0  0  0  0  0  0  # atno 10765 bound_to 10752
  139.8843  134.8658  156.3391 H   0  0  0  0  0  0  0  0  0  0  0  0  # atno 11005 bound_to 11000
  145.4058  141.0390  143.3045 LP  0  0  0  0  0  0  0  0  0  0  0  0  # atno 17320 bound_to 7965
  144.8326  139.5603  143.6937 LP  0  0  0  0  0  0  0  0  0  0  0  0  # atno 17321 bound_to 7965
  139.6383  144.0589  152.2533 LP  0  0  0  0  0  0  0  0  0  0  0  0  # atno 17342 bound_to 10162
  140.0086  144.6241  150.7667 LP  0  0  0  0  0  0  0  0  0  0  0  0  # atno 17343 bound_to 10162
  157.0102  130.9949  151.3368 LP  0  0  0  0  0  0  0  0  0  0  0  0  # atno 17370 bound_to 10713
  157.5415  130.8123  149.8034 LP  0  0  0  0  0  0  0  0  0  0  0  0  # atno 17371 bound_to 10713
  140.9671  133.7351  156.0482 LP  0  0  0  0  0  0  0  0  0  0  0  0  # atno 17394 bound_to 11000
  140.7917  134.3610  157.5463 LP  0  0  0  0  0  0  0  0  0  0  0  0  # atno 17395 bound_to 11000

$$$$
