AV-unprocessed.smi:2198|AV-procd|sdf|8920|dock10
  -GOLD-   2272012133D 1   1.00000     0.00000
 Structure written by MMmdl.
 42 43  0  0  0  0  0  0  0  0  2 V2000
  148.5874  139.6801  153.6389 C   0  0  0  0  0  0  0  0  0  0  0  0
  149.6066  139.3693  154.7141 C   0  0  0  0  0  0  0  0  0  0  0  0
  149.2074  138.9114  155.8389 N   0  0  0  0  0  0  0  0  0  0  0  0
  150.1483  138.6292  156.8438 C   0  0  0  0  0  0  0  0  0  0  0  0
  149.5847  138.0971  158.1497 C   0  0  0  0  0  0  0  0  0  0  0  0
  151.4815  138.8332  156.6400 C   0  0  0  0  0  0  0  0  0  0  0  0
  152.5434  138.5553  157.7047 C   0  0  0  0  0  0  0  0  0  0  0  0
  153.1047  139.7732  158.4429 C   0  0  0  0  0  0  0  0  0  0  0  0
  154.2447  139.7595  158.9081 O   0  0  0  0  0  0  0  0  0  0  0  0
  152.2776  140.8240  158.5525 N   0  0  0  0  0  0  0  0  0  0  0  0
  152.5882  142.0716  159.2434 C   0  0  1  0  0  0  0  0  0  0  0  0
  151.4219  143.0622  159.0756 C   0  0  0  0  0  0  0  0  0  0  0  0
  151.6902  144.3700  159.8361 C   0  0  0  0  0  0  0  0  0  0  0  0
  151.9711  144.1023  161.3230 C   0  0  0  0  0  0  0  0  0  0  0  0
  153.1386  143.1147  161.5092 C   0  0  1  0  0  0  0  0  0  0  0  0
  153.4106  142.8423  162.9955 C   0  0  0  0  0  0  0  0  0  0  0  0
  152.8695  141.8081  160.7377 C   0  0  0  0  0  0  0  0  0  0  0  0
  151.9012  139.3492  155.3249 C   0  0  0  0  0  0  0  0  0  0  0  0
  153.0937  139.5291  155.0806 O   0  0  0  0  0  0  0  0  0  0  0  0
  150.9271  139.6088  154.4065 N   0  5  0  0  0  0  0  0  0  0  0  0
  147.6141  139.2537  153.8858 H   0  0  0  0  0  0  0  0  0  0  0  0
  148.9056  139.2686  152.6805 H   0  0  0  0  0  0  0  0  0  0  0  0
  148.4729  140.7589  153.5320 H   0  0  0  0  0  0  0  0  0  0  0  0
  149.7306  138.8225  158.9501 H   0  0  0  0  0  0  0  0  0  0  0  0
  150.0732  137.1640  158.4308 H   0  0  0  0  0  0  0  0  0  0  0  0
  148.5154  137.8992  158.0657 H   0  0  0  0  0  0  0  0  0  0  0  0
  152.1686  137.8449  158.4424 H   0  0  0  0  0  0  0  0  0  0  0  0
  153.3788  138.0428  157.2275 H   0  0  0  0  0  0  0  0  0  0  0  0
  151.3605  140.7485  158.1371 H   0  0  0  0  0  0  0  0  0  0  0  0
  153.4761  142.5160  158.7893 H   0  0  0  0  0  0  0  0  0  0  0  0
  151.2625  143.2783  158.0185 H   0  0  0  0  0  0  0  0  0  0  0  0
  150.4978  142.6134  159.4430 H   0  0  0  0  0  0  0  0  0  0  0  0
  152.5423  144.8840  159.3895 H   0  0  0  0  0  0  0  0  0  0  0  0
  150.8366  145.0409  159.7346 H   0  0  0  0  0  0  0  0  0  0  0  0
  152.1939  145.0433  161.8272 H   0  0  0  0  0  0  0  0  0  0  0  0
  151.0723  143.7045  161.7960 H   0  0  0  0  0  0  0  0  0  0  0  0
  154.0358  143.5722  161.0897 H   0  0  0  0  0  0  0  0  0  0  0  0
  152.5454  142.3889  163.4800 H   0  0  0  0  0  0  0  0  0  0  0  0
  153.6445  143.7652  163.5271 H   0  0  0  0  0  0  0  0  0  0  0  0
  154.2561  142.1658  163.1228 H   0  0  0  0  0  0  0  0  0  0  0  0
  152.0201  141.2887  161.1844 H   0  0  0  0  0  0  0  0  0  0  0  0
  153.7259  141.1404  160.8412 H   0  0  0  0  0  0  0  0  0  0  0  0
  1  2  1  0  0  0  0
  1 21  1  0  0  0  0
  1 22  1  0  0  0  0
  1 23  1  0  0  0  0
  2 20  1  0  0  0  0
  2  3  2  0  0  0  0
  3  4  1  0  0  0  0
  4  5  1  0  0  0  0
  4  6  2  0  0  0  0
  5 24  1  0  0  0  0
  5 25  1  0  0  0  0
  5 26  1  0  0  0  0
  6  7  1  0  0  0  0
  6 18  1  0  0  0  0
  7  8  1  0  0  0  0
  7 27  1  0  0  0  0
  7 28  1  0  0  0  0
  8  9  2  0  0  0  0
  8 10  1  0  0  0  0
 10 11  1  0  0  0  0
 10 29  1  0  0  0  0
 11 17  1  0  0  0  0
 11 12  1  0  0  0  0
 11 30  1  0  0  0  0
 12 13  1  0  0  0  0
 12 31  1  0  0  0  0
 12 32  1  0  0  0  0
 13 14  1  0  0  0  0
 13 33  1  0  0  0  0
 13 34  1  0  0  0  0
 14 15  1  0  0  0  0
 14 35  1  0  0  0  0
 14 36  1  0  0  0  0
 15 16  1  0  0  0  0
 15 17  1  0  0  0  0
 15 37  1  0  0  0  0
 16 38  1  0  0  0  0
 16 39  1  0  0  0  0
 16 40  1  0  0  0  0
 17 41  1  0  0  0  0
 17 42  1  0  0  0  0
 18 19  2  0  0  0  0
 18 20  1  0  0  0  0
M  CHG  1  20  -1
M  END
> <s_m_source_file>
AV-unprocessed.smi

> <i_m_source_file_index>
2198

> <i_lp_mmshare_version>
43012

> <i_f3d_flags>
0

> <s_epik_input>
W0NIM11jMW5jKFtDSDNdKWMoYyg9TylbbkhdMSlbQ0gyXUMoPU8pW05IXVtDQEBIXTJbQ0gyXVtDSDJdW0NIMl1bQ0BASF0oW0NIM10pW0NIMl0y

> <s_epik_cmdline>
J2VwaWtfcHl0aG9uJywgJy1waCcsICc3LjAnLCAnLXRuJywgJzgnLCAnLW1hJywgJzIwMCcsICctbWV0YWxfYmluZGluZycsICctaW1hZScsICc8aW5maWxlLm1hZT4nLCAnLW9tYWUnLCAnPG91dGZpbGUubWFlPic=

> <r_lp_tautomer_probability>
0.839158

> <r_epik_Ionization_Penalty>
6.67193

> <r_epik_Ionization_Penalty_Charging>
7.66837e-08

> <r_epik_Ionization_Penalty_Neutral>
6.67193

> <r_epik_State_Penalty>
4.51643

> <r_epik_Charging_Adjusted_Penalty>
4.51643

> <i_epik_Tot_Q>
-1

> <i_epik_Tot_abs_Q>
1

> <r_epik_Metal_State_Penalty>
0.851582

> <b_epik_Metal_Only>
1

> <s_lp_Force_Field>
OPLS_2005

> <r_lp_Energy>
13.5939

> <b_lp_Chiralities_Consistent>
1

> <s_lp_Variant>
AV-unprocessed.smi:2198-10

> <Gold.Version>
5.8.1

> <Gold.Id.Protein>
6NUR|6NUR_protein|mol2

> <Gold.PLP.Fitness>
45.4876

> <Gold.PLP.PLP>
-37.7144

> <Gold.PLP.part.hbond>
-3.7023

> <Gold.PLP.part.metal>
0.0000

> <Gold.PLP.part.buried>
-1.6296

> <Gold.PLP.part.nonpolar>
-31.4757

> <Gold.PLP.part.repulsive>
0.2520

> <Gold.PLP.ligand.clash>
0.0000

> <Gold.PLP.ligand.torsion>
0.6153

> <Gold.PLP.Chemscore.Hbond>
3.0000

> <Gold.PLP.Chemscore.CHOScore>
0.0000

> <Gold.PLP.Chemscore.Metal>
0.0000

> <Gold.Chemscore.Hbonds>
donor molecule, donor type, donor heavy atom, donor atom, acceptor molecule, acceptor atom, score
      P1  H  7989  7998       L1    20  1.00
      P1  H  7997  8009       L1     9  0.85
      P1  H  7997  8010       L1    19  1.00

> <Gold.PLP.Chemscore.Internal.Correction>
0.0037

> <Gold.Rescore>
     Score         DG    S(hbond)    S(metal)    S(lipo)     H(rot)  DE(clash)    DE(int)     intcor
     17.42     -20.01       1.88        0.00     102.12       1.45       1.94       0.65       ----

> <Gold.Chemscore.Fitness>
17.4178

> <Gold.Chemscore.DG>
-20.0109

> <Gold.Chemscore.ZeroCoef>
-5.4800

> <Gold.Chemscore.Hbond>
1.8808

> <Gold.Chemscore.Metal>
0.0000

> <Gold.Chemscore.Lipo>
102.1233

> <Gold.Chemscore.Internal_Hbond>
0.0000

> <Gold.Chemscore.DEClash>
1.9396

> <Gold.Chemscore.DEInternal>
0.6535

> <Gold.Chemscore.Rot>
1.4450

> <Gold.Chemscore.Internal.Correction>
   9.000000E+99

> <Gold.Chemscore.Hbonds>
donor molecule, donor type, donor heavy atom, donor atom, acceptor molecule, acceptor atom, score
      P1  H  7989  7998       L1    20  0.35
      P1  H  7997  8009       L1     9  0.14
      P1  H  7997  8010       L1    19  0.99

> <Gold.Chemscore.Hbond.Weighted>
-6.2817

> <Gold.Chemscore.Metal.Weighted>
-0.0000

> <Gold.Chemscore.Lipo.Weighted>
-11.9484

> <Gold.Chemscore.Internal_Hbond.Weighted>
0.0000

> <Gold.Chemscore.DEClash.Weighted>
1.9396

> <Gold.Chemscore.DEInternal.Weighted>
0.6535

> <Gold.Chemscore.Rot.Weighted>
3.6992

> <Gold.Chemscore.Internal.Correction.Weighted>
   9.000000E+99

> <Gold.Protein.RotatedTorsions>
[ 6907 6896 6895 6894 ] final -179.58 input  -60.11 | X-H torsion
[ 7974 7965 7964 7962 ] final   57.24 input  175.53 | X-H torsion
[ 8008 7997 7996 7995 ] final  118.33 input   59.86 | X-H torsion
[ 10167 10162 10161 10158 ] final -156.78 input  -65.29 | X-H torsion
[ 10718 10713 10712 10709 ] final   74.48 input   66.30 | X-H torsion
[ 10763 10752 10751 10750 ] final   78.34 input  -60.55 | X-H torsion
[ 11005 11000 10999 10996 ] final  157.45 input  -57.11 | X-H torsion

> <Gold.Protein.ActiveResidues>
 VAL166  LYS551  ARG553  GLY616  TRP617  ASP618  TYR619  PRO620  LYS621  CYS622 
 ASP623  PHE694  ASN695  SER759  ASP760  ASP761  ALA762  ILE779  LEU786  VAL792 
 PHE793  MET794  SER795  GLU796  ALA797  LYS798  CYS799  TRP800  GLU811  SER814 

> <Gold.Protein.RotatedAtoms>
  151.6557  133.3319  159.3161 H   0  0  0  0  0  0  0  0  0  0  0  0  # atno 6907 bound_to 6896
  150.7938  134.6986  159.6547 H   0  0  0  0  0  0  0  0  0  0  0  0  # atno 6908 bound_to 6896
  152.4022  134.6271  160.0117 H   0  0  0  0  0  0  0  0  0  0  0  0  # atno 6909 bound_to 6896
  145.9312  139.3809  143.0420 H   0  0  0  0  0  0  0  0  0  0  0  0  # atno 7974 bound_to 7965
  156.2541  140.2877  156.0817 H   0  0  0  0  0  0  0  0  0  0  0  0  # atno 8008 bound_to 7997
  155.1559  140.0398  157.2849 H   0  0  0  0  0  0  0  0  0  0  0  0  # atno 8009 bound_to 7997
  154.6427  140.2526  155.7310 H   0  0  0  0  0  0  0  0  0  0  0  0  # atno 8010 bound_to 7997
  139.6823  143.9561  152.2343 H   0  0  0  0  0  0  0  0  0  0  0  0  # atno 10167 bound_to 10162
  157.6594  130.9679  150.1216 H   0  0  0  0  0  0  0  0  0  0  0  0  # atno 10718 bound_to 10713
  153.0867  135.4880  154.8610 H   0  0  0  0  0  0  0  0  0  0  0  0  # atno 10763 bound_to 10752
  154.7219  135.3041  154.9036 H   0  0  0  0  0  0  0  0  0  0  0  0  # atno 10764 bound_to 10752
  153.9697  135.6802  153.4800 H   0  0  0  0  0  0  0  0  0  0  0  0  # atno 10765 bound_to 10752
  140.1771  134.8502  157.2759 H   0  0  0  0  0  0  0  0  0  0  0  0  # atno 11005 bound_to 11000
  145.8424  140.9573  143.0792 LP  0  0  0  0  0  0  0  0  0  0  0  0  # atno 17320 bound_to 7965
  144.6765  140.0301  143.7482 LP  0  0  0  0  0  0  0  0  0  0  0  0  # atno 17321 bound_to 7965
  139.9354  144.6715  150.8320 LP  0  0  0  0  0  0  0  0  0  0  0  0  # atno 17342 bound_to 10162
  140.7656  143.3280  151.2472 LP  0  0  0  0  0  0  0  0  0  0  0  0  # atno 17343 bound_to 10162
  156.2086  130.3665  149.8698 LP  0  0  0  0  0  0  0  0  0  0  0  0  # atno 17370 bound_to 10713
  156.6583  130.8771  151.3543 LP  0  0  0  0  0  0  0  0  0  0  0  0  # atno 17371 bound_to 10713
  140.2310  134.3909  155.7522 LP  0  0  0  0  0  0  0  0  0  0  0  0  # atno 17394 bound_to 11000
  141.2221  133.7215  156.8641 LP  0  0  0  0  0  0  0  0  0  0  0  0  # atno 17395 bound_to 11000

$$$$
