AV-unprocessed.smi:1503|AV-procd|sdf|6069|dock2
  -GOLD-   22720 6183D 1   1.00000     0.00000
 Structure written by MMmdl.
 44 45  0  0  0  0  0  0  0  0  1 V2000
  149.9957  132.5124  153.8862 C   0  0  0  0  0  0  0  0  0  0  0  0
  150.2976  133.7244  154.3754 C   0  0  0  0  0  0  0  0  0  0  0  0
  149.3220  134.6172  155.1160 C   0  0  0  0  0  0  0  0  0  0  0  0
  149.2383  135.9379  154.5053 N   0  0  0  0  0  0  0  0  0  0  0  0
  149.4643  137.0971  155.1421 C   0  0  0  0  0  0  0  0  0  0  0  0
  149.7794  137.1623  156.3311 O   0  0  0  0  0  0  0  0  0  0  0  0
  149.3112  138.3642  154.2946 C   0  0  0  0  0  0  0  0  0  0  0  0
  150.6254  139.1465  154.1059 C   0  0  0  0  0  0  0  0  0  0  0  0
  150.8383  140.1853  155.2033 C   0  0  0  0  0  0  0  0  0  0  0  0
  150.0602  141.2849  155.3426 C   0  0  0  0  0  0  0  0  0  0  0  0
  148.8746  141.6153  154.4529 C   0  0  0  0  0  0  0  0  0  0  0  0
  150.2978  142.2044  156.3474 N   0  0  0  0  0  0  0  0  0  0  0  0
  151.3658  142.0037  157.2136 C   0  0  0  0  0  0  0  0  0  0  0  0
  151.5183  142.9958  158.1814 N   0  0  0  0  0  0  0  0  0  0  0  0
  151.4864  144.4052  157.7901 C   0  0  0  0  0  0  0  0  0  0  0  0
  151.1713  145.3103  158.9929 C   0  0  0  0  0  0  0  0  0  0  0  0
  152.1140  145.0735  160.0299 O   0  0  0  0  0  0  0  0  0  0  0  0
  152.0589  143.7282  160.4856 C   0  0  0  0  0  0  0  0  0  0  0  0
  152.3996  142.7752  159.3278 C   0  0  0  0  0  0  0  0  0  0  0  0
  152.1533  140.9693  157.1400 N   0  0  0  0  0  0  0  0  0  0  0  0
  151.9559  139.9946  156.1507 C   0  0  0  0  0  0  0  0  0  0  0  0
  152.6937  139.0123  156.0866 O   0  0  0  0  0  0  0  0  0  0  0  0
  149.6825  143.0021  156.4136 H   0  0  0  0  0  0  0  0  0  0  0  0
  149.0057  132.0944  153.9947 H   0  0  0  0  0  0  0  0  0  0  0  0
  150.7376  131.9224  153.3689 H   0  0  0  0  0  0  0  0  0  0  0  0
  151.2992  134.1092  154.2493 H   0  0  0  0  0  0  0  0  0  0  0  0
  148.3354  134.1527  155.1659 H   0  0  0  0  0  0  0  0  0  0  0  0
  149.6694  134.7345  156.1424 H   0  0  0  0  0  0  0  0  0  0  0  0
  148.9854  135.9743  153.5283 H   0  0  0  0  0  0  0  0  0  0  0  0
  148.9091  138.0787  153.3220 H   0  0  0  0  0  0  0  0  0  0  0  0
  148.5658  139.0067  154.7652 H   0  0  0  0  0  0  0  0  0  0  0  0
  151.4751  138.4620  154.0825 H   0  0  0  0  0  0  0  0  0  0  0  0
  150.6272  139.6370  153.1326 H   0  0  0  0  0  0  0  0  0  0  0  0
  148.1643  140.7881  154.4422 H   0  0  0  0  0  0  0  0  0  0  0  0
  149.2062  141.7993  153.4309 H   0  0  0  0  0  0  0  0  0  0  0  0
  148.3473  142.5050  154.7992 H   0  0  0  0  0  0  0  0  0  0  0  0
  150.7476  144.5820  157.0080 H   0  0  0  0  0  0  0  0  0  0  0  0
  152.4568  144.6730  157.3696 H   0  0  0  0  0  0  0  0  0  0  0  0
  151.2255  146.3583  158.6982 H   0  0  0  0  0  0  0  0  0  0  0  0
  150.1578  145.1335  159.3572 H   0  0  0  0  0  0  0  0  0  0  0  0
  152.7727  143.6000  161.2992 H   0  0  0  0  0  0  0  0  0  0  0  0
  151.0699  143.5094  160.8913 H   0  0  0  0  0  0  0  0  0  0  0  0
  153.4337  142.9245  159.0142 H   0  0  0  0  0  0  0  0  0  0  0  0
  152.3178  141.7443  159.6752 H   0  0  0  0  0  0  0  0  0  0  0  0
  1  2  2  0  0  0  0
  1 24  1  0  0  0  0
  1 25  1  0  0  0  0
  2  3  1  0  0  0  0
  2 26  1  0  0  0  0
  3  4  1  0  0  0  0
  3 27  1  0  0  0  0
  3 28  1  0  0  0  0
  4  5  1  0  0  0  0
  4 29  1  0  0  0  0
  5  6  2  0  0  0  0
  5  7  1  0  0  0  0
  7  8  1  0  0  0  0
  7 30  1  0  0  0  0
  7 31  1  0  0  0  0
  8 32  1  0  0  0  0
  8 33  1  0  0  0  0
  8  9  1  0  0  0  0
  9 21  1  0  0  0  0
  9 10  2  0  0  0  0
 10 12  1  0  0  0  0
 10 11  1  0  0  0  0
 11 34  1  0  0  0  0
 11 35  1  0  0  0  0
 11 36  1  0  0  0  0
 12 23  1  0  0  0  0
 12 13  1  0  0  0  0
 13 14  1  0  0  0  0
 13 20  2  0  0  0  0
 14 19  1  0  0  0  0
 14 15  1  0  0  0  0
 15 16  1  0  0  0  0
 15 37  1  0  0  0  0
 15 38  1  0  0  0  0
 16 17  1  0  0  0  0
 16 39  1  0  0  0  0
 16 40  1  0  0  0  0
 17 18  1  0  0  0  0
 18 19  1  0  0  0  0
 18 41  1  0  0  0  0
 18 42  1  0  0  0  0
 19 43  1  0  0  0  0
 19 44  1  0  0  0  0
 20 21  1  0  0  0  0
 21 22  2  0  0  0  0
M  END
> <s_m_source_file>
AV-unprocessed.smi

> <i_m_source_file_index>
1503

> <i_lp_mmshare_version>
43012

> <i_f3d_flags>
0

> <s_epik_input>
W0NIMl09W0NIXVtDSDJdW05IXUMoPU8pW0NIMl1bQ0gyXWMxYyhbQ0gzXSluYyhbbkhdYzE9TylOMltDSDJdW0NIMl1PW0NIMl1bQ0gyXTI=

> <s_epik_cmdline>
J2VwaWtfcHl0aG9uJywgJy1waCcsICc3LjAnLCAnLXRuJywgJzgnLCAnLW1hJywgJzIwMCcsICctbWV0YWxfYmluZGluZycsICctaW1hZScsICc8aW5maWxlLm1hZT4nLCAnLW9tYWUnLCAnPG91dGZpbGUubWFlPic=

> <r_lp_tautomer_probability>
0.108306

> <r_epik_Ionization_Penalty>
0.0745381

> <r_epik_Ionization_Penalty_Charging>
0.0625831

> <r_epik_Ionization_Penalty_Neutral>
0.0119549

> <r_epik_State_Penalty>
1.70762

> <r_epik_Charging_Adjusted_Penalty>
1.7702

> <i_epik_Tot_Q>
0

> <i_epik_Tot_abs_Q>
0

> <r_epik_Metal_State_Penalty>
2.68249

> <b_epik_Metal_Only>
0

> <s_lp_Force_Field>
OPLS_2005

> <r_lp_Energy>
25.2683

> <b_lp_Chiralities_Consistent>
1

> <s_lp_Variant>
AV-unprocessed.smi:1503-2

> <Gold.Version>
5.8.1

> <Gold.Id.Protein>
6NUR|6NUR_protein|mol2

> <Gold.PLP.Fitness>
49.5138

> <Gold.PLP.PLP>
-44.5293

> <Gold.PLP.part.hbond>
-2.2841

> <Gold.PLP.part.metal>
0.0000

> <Gold.PLP.part.buried>
-0.9807

> <Gold.PLP.part.nonpolar>
-39.4262

> <Gold.PLP.part.repulsive>
0.1807

> <Gold.PLP.ligand.clash>
0.0000

> <Gold.PLP.ligand.torsion>
0.7319

> <Gold.PLP.Chemscore.Hbond>
2.0000

> <Gold.PLP.Chemscore.CHOScore>
0.0000

> <Gold.PLP.Chemscore.Metal>
0.0000

> <Gold.Chemscore.Hbonds>
donor molecule, donor type, donor heavy atom, donor atom, acceptor molecule, acceptor atom, score
      L1  H     4    29       P1  7948  1.00
      L1  H    12    23       P1  8028  0.98
      P1  H  7997  8009       L1    22  0.34

> <Gold.PLP.Chemscore.Internal.Correction>
0.4482

> <Gold.Rescore>
     Score         DG    S(hbond)    S(metal)    S(lipo)     H(rot)  DE(clash)    DE(int)     intcor
     17.49     -18.95       1.98        0.00     100.52       1.92       0.61       0.85       ----

> <Gold.Chemscore.Fitness>
17.4871

> <Gold.Chemscore.DG>
-18.9503

> <Gold.Chemscore.ZeroCoef>
-5.4800

> <Gold.Chemscore.Hbond>
1.9826

> <Gold.Chemscore.Metal>
0.0000

> <Gold.Chemscore.Lipo>
100.5162

> <Gold.Chemscore.Internal_Hbond>
0.0000

> <Gold.Chemscore.DEClash>
0.6112

> <Gold.Chemscore.DEInternal>
0.8520

> <Gold.Chemscore.Rot>
1.9187

> <Gold.Chemscore.Internal.Correction>
   9.000000E+99

> <Gold.Chemscore.Hbonds>
donor molecule, donor type, donor heavy atom, donor atom, acceptor molecule, acceptor atom, score
      L1  H     4    29       P1  7948  0.96
      L1  H    12    23       P1  8028  0.89
      P1  H  7997  8009       L1    22  0.03

> <Gold.Chemscore.Hbond.Weighted>
-6.6218

> <Gold.Chemscore.Metal.Weighted>
-0.0000

> <Gold.Chemscore.Lipo.Weighted>
-11.7604

> <Gold.Chemscore.Internal_Hbond.Weighted>
0.0000

> <Gold.Chemscore.DEClash.Weighted>
0.6112

> <Gold.Chemscore.DEInternal.Weighted>
0.8520

> <Gold.Chemscore.Rot.Weighted>
4.9119

> <Gold.Chemscore.Internal.Correction.Weighted>
   9.000000E+99

> <Gold.Protein.RotatedTorsions>
[ 6907 6896 6895 6894 ] final  -92.31 input  -60.11 | X-H torsion
[ 7974 7965 7964 7962 ] final -102.31 input  175.53 | X-H torsion
[ 8008 7997 7996 7995 ] final -130.11 input   59.86 | X-H torsion
[ 10167 10162 10161 10158 ] final  -28.39 input  -65.29 | X-H torsion
[ 10718 10713 10712 10709 ] final  -98.33 input   66.30 | X-H torsion
[ 10763 10752 10751 10750 ] final  139.92 input  -60.55 | X-H torsion
[ 11005 11000 10999 10996 ] final  132.22 input  -57.11 | X-H torsion

> <Gold.Protein.ActiveResidues>
 VAL166  LYS551  ARG553  GLY616  TRP617  ASP618  TYR619  PRO620  LYS621  CYS622 
 ASP623  PHE694  ASN695  SER759  ASP760  ASP761  ALA762  ILE779  LEU786  VAL792 
 PHE793  MET794  SER795  GLU796  ALA797  LYS798  CYS799  TRP800  GLU811  SER814 

> <Gold.Protein.RotatedAtoms>
  150.6904  134.2142  159.4370 H   0  0  0  0  0  0  0  0  0  0  0  0  # atno 6907 bound_to 6896
  152.0101  134.9878  160.0577 H   0  0  0  0  0  0  0  0  0  0  0  0  # atno 6908 bound_to 6896
  152.1496  133.4479  159.4844 H   0  0  0  0  0  0  0  0  0  0  0  0  # atno 6909 bound_to 6896
  145.2704  140.9297  143.2989 H   0  0  0  0  0  0  0  0  0  0  0  0  # atno 7974 bound_to 7965
  155.2904  140.0448  157.3022 H   0  0  0  0  0  0  0  0  0  0  0  0  # atno 8008 bound_to 7997
  154.5545  140.2327  155.8400 H   0  0  0  0  0  0  0  0  0  0  0  0  # atno 8009 bound_to 7997
  156.1995  140.3029  155.9504 H   0  0  0  0  0  0  0  0  0  0  0  0  # atno 8010 bound_to 7997
  140.7270  143.4014  151.1259 H   0  0  0  0  0  0  0  0  0  0  0  0  # atno 10167 bound_to 10162
  156.0105  130.5233  150.6506 H   0  0  0  0  0  0  0  0  0  0  0  0  # atno 10718 bound_to 10713
  153.9141  135.3008  155.3448 H   0  0  0  0  0  0  0  0  0  0  0  0  # atno 10763 bound_to 10752
  154.7609  135.4934  153.9465 H   0  0  0  0  0  0  0  0  0  0  0  0  # atno 10764 bound_to 10752
  153.1177  135.6774  153.9492 H   0  0  0  0  0  0  0  0  0  0  0  0  # atno 10765 bound_to 10752
  139.9777  134.9558  156.9551 H   0  0  0  0  0  0  0  0  0  0  0  0  # atno 11005 bound_to 11000
  144.9340  139.4265  143.6481 LP  0  0  0  0  0  0  0  0  0  0  0  0  # atno 17320 bound_to 7965
  146.3248  139.8265  142.8916 LP  0  0  0  0  0  0  0  0  0  0  0  0  # atno 17321 bound_to 7965
  139.7634  143.8601  152.3105 LP  0  0  0  0  0  0  0  0  0  0  0  0  # atno 17342 bound_to 10162
  139.8495  144.7171  150.9232 LP  0  0  0  0  0  0  0  0  0  0  0  0  # atno 17343 bound_to 10162
  157.4268  131.0844  151.1077 LP  0  0  0  0  0  0  0  0  0  0  0  0  # atno 17370 bound_to 10713
  157.1662  130.6247  149.5626 LP  0  0  0  0  0  0  0  0  0  0  0  0  # atno 17371 bound_to 10713
  140.5160  134.0955  155.7281 LP  0  0  0  0  0  0  0  0  0  0  0  0  # atno 17394 bound_to 11000
  141.1453  133.9067  157.2231 LP  0  0  0  0  0  0  0  0  0  0  0  0  # atno 17395 bound_to 11000

$$$$
