AV-unprocessed.smi:3217|AV-procd|sdf|12290|dock2
  -GOLD-   2272018133D 1   1.00000     0.00000
 Structure written by MMmdl.
 34 35  0  0  0  0  0  0  0  0  1 V2000
  145.1812  134.0500  153.6062 C   0  0  0  0  0  0  0  0  0  0  0  0
  145.0484  135.0872  152.4817 C   0  0  1  0  0  0  0  0  0  0  0  0
  146.1715  136.0200  152.5654 N   0  0  0  0  0  0  0  0  0  0  0  0
  146.1264  137.2646  153.0626 C   0  0  0  0  0  0  0  0  0  0  0  0
  145.1035  137.7840  153.5077 O   0  0  0  0  0  0  0  0  0  0  0  0
  147.3382  137.8443  153.0160 N   0  0  0  0  0  0  0  0  0  0  0  0
  147.7302  139.1345  153.4667 C   0  0  0  0  0  0  0  0  0  0  0  0
  148.9641  139.4261  154.0984 C   0  0  0  0  0  0  0  0  0  0  0  0
  149.2234  140.7489  154.5060 C   0  0  0  0  0  0  0  0  0  0  0  0
  148.2393  141.7295  154.2761 C   0  0  0  0  0  0  0  0  0  0  0  0
  147.0543  141.4640  153.6877 N   0  0  0  0  0  0  0  0  0  0  0  0
  146.8132  140.1939  153.2984 C   0  0  0  0  0  0  0  0  0  0  0  0
  145.0022  134.4264  151.0890 C   0  0  2  0  0  0  0  0  0  0  0  0
  143.8916  133.3884  150.9058 C   0  0  0  0  0  0  0  0  0  0  0  0
  144.4616  132.5140  149.8133 C   0  0  0  0  0  0  0  0  0  0  0  0
  145.9365  132.4693  150.1967 C   0  0  0  0  0  0  0  0  0  0  0  0
  146.2121  133.7144  150.8332 O   0  0  0  0  0  0  0  0  0  0  0  0
  144.3413  133.3548  153.6025 H   0  0  0  0  0  0  0  0  0  0  0  0
  145.2013  134.5331  154.5838 H   0  0  0  0  0  0  0  0  0  0  0  0
  146.0967  133.4664  153.5042 H   0  0  0  0  0  0  0  0  0  0  0  0
  144.1078  135.6191  152.6353 H   0  0  0  0  0  0  0  0  0  0  0  0
  147.0596  135.6825  152.2247 H   0  0  0  0  0  0  0  0  0  0  0  0
  148.0889  137.2648  152.6704 H   0  0  0  0  0  0  0  0  0  0  0  0
  149.7093  138.6705  154.2896 H   0  0  0  0  0  0  0  0  0  0  0  0
  150.1555  141.0050  154.9874 H   0  0  0  0  0  0  0  0  0  0  0  0
  148.4064  142.7530  154.5776 H   0  0  0  0  0  0  0  0  0  0  0  0
  145.8545  140.0194  152.8317 H   0  0  0  0  0  0  0  0  0  0  0  0
  144.9016  135.1890  150.3147 H   0  0  0  0  0  0  0  0  0  0  0  0
  143.7560  132.8035  151.8170 H   0  0  0  0  0  0  0  0  0  0  0  0
  142.9324  133.8330  150.6394 H   0  0  0  0  0  0  0  0  0  0  0  0
  144.0019  131.5264  149.7684 H   0  0  0  0  0  0  0  0  0  0  0  0
  144.3375  132.9962  148.8426 H   0  0  0  0  0  0  0  0  0  0  0  0
  146.1189  131.6675  150.9132 H   0  0  0  0  0  0  0  0  0  0  0  0
  146.5860  132.3082  149.3361 H   0  0  0  0  0  0  0  0  0  0  0  0
  1  2  1  0  0  0  0
  1 18  1  0  0  0  0
  1 19  1  0  0  0  0
  1 20  1  0  0  0  0
  2  3  1  0  0  0  0
  2 13  1  0  0  0  0
  2 21  1  0  0  0  0
  3  4  1  0  0  0  0
  3 22  1  0  0  0  0
  4  5  2  0  0  0  0
  4  6  1  0  0  0  0
  6  7  1  0  0  0  0
  6 23  1  0  0  0  0
  7 12  1  0  0  0  0
  7  8  2  0  0  0  0
  8  9  1  0  0  0  0
  8 24  1  0  0  0  0
  9 10  2  0  0  0  0
  9 25  1  0  0  0  0
 10 11  1  0  0  0  0
 10 26  1  0  0  0  0
 11 12  2  0  0  0  0
 12 27  1  0  0  0  0
 13 17  1  0  0  0  0
 13 14  1  0  0  0  0
 13 28  1  0  0  0  0
 14 15  1  0  0  0  0
 14 29  1  0  0  0  0
 14 30  1  0  0  0  0
 15 16  1  0  0  0  0
 15 31  1  0  0  0  0
 15 32  1  0  0  0  0
 16 17  1  0  0  0  0
 16 33  1  0  0  0  0
 16 34  1  0  0  0  0
M  END
> <s_m_source_file>
AV-unprocessed.smi

> <i_m_source_file_index>
3217

> <i_lp_mmshare_version>
43012

> <i_f3d_flags>
0

> <s_epik_input>
TzFbQ0gyXVtDSDJdW0NIMl1bQ0BIXTFbQ0BIXShbQ0gzXSlbTkhdQyg9TylbTkhdYzJbY0hdW2NIXVtjSF1uW2NIXTI=

> <s_epik_cmdline>
J2VwaWtfcHl0aG9uJywgJy1waCcsICc3LjAnLCAnLXRuJywgJzgnLCAnLW1hJywgJzIwMCcsICctbWV0YWxfYmluZGluZycsICctaW1hZScsICc8aW5maWxlLm1hZT4nLCAnLW9tYWUnLCAnPG91dGZpbGUubWFlPic=

> <r_epik_Ionization_Penalty>
0.00475451

> <r_epik_Ionization_Penalty_Charging>
0

> <r_epik_Ionization_Penalty_Neutral>
0.00475451

> <r_epik_State_Penalty>
0.00341814

> <r_epik_Charging_Adjusted_Penalty>
0.00341814

> <i_epik_Tot_Q>
0

> <i_epik_Tot_abs_Q>
0

> <r_epik_Metal_State_Penalty>
-0

> <b_epik_Metal_Only>
0

> <s_lp_Force_Field>
OPLS_2005

> <r_lp_Energy>
20.7148

> <b_lp_Chiralities_Consistent>
1

> <s_lp_Variant>
AV-unprocessed.smi:3217-2

> <Gold.Version>
5.8.1

> <Gold.Id.Protein>
6NUR|6NUR_protein|mol2

> <Gold.PLP.Fitness>
38.4553

> <Gold.PLP.PLP>
-27.7277

> <Gold.PLP.part.hbond>
-2.0000

> <Gold.PLP.part.metal>
0.0000

> <Gold.PLP.part.buried>
-3.0052

> <Gold.PLP.part.nonpolar>
-23.7305

> <Gold.PLP.part.repulsive>
0.5953

> <Gold.PLP.ligand.clash>
0.0000

> <Gold.PLP.ligand.torsion>
0.4852

> <Gold.PLP.Chemscore.Hbond>
1.8960

> <Gold.PLP.Chemscore.CHOScore>
2.0000

> <Gold.PLP.Chemscore.Metal>
0.0000

> <Gold.Chemscore.Hbonds>
donor molecule, donor type, donor heavy atom, donor atom, acceptor molecule, acceptor atom, score
      L1  H     3    22       P1  7948  0.88
      L1  H     6    23       P1  7948  1.00
      L1  C    10    26       P1  8028  1.00
      L1  C    12    27       P1 10175  1.00

> <Gold.PLP.Chemscore.Internal.Correction>
0.0099

> <Gold.Rescore>
     Score         DG    S(hbond)    S(metal)    S(lipo)     H(rot)  DE(clash)    DE(int)     intcor
     15.68     -17.46       1.91        0.00      74.62       1.22       0.26       1.53       ----

> <Gold.Chemscore.Fitness>
15.6783

> <Gold.Chemscore.DG>
-17.4619

> <Gold.Chemscore.ZeroCoef>
-5.4800

> <Gold.Chemscore.Hbond>
1.9115

> <Gold.Chemscore.Metal>
0.0000

> <Gold.Chemscore.Lipo>
74.6164

> <Gold.Chemscore.Internal_Hbond>
0.0000

> <Gold.Chemscore.DEClash>
0.2583

> <Gold.Chemscore.DEInternal>
1.5252

> <Gold.Chemscore.Rot>
1.2236

> <Gold.Chemscore.Internal.Correction>
   9.000000E+99

> <Gold.Chemscore.Hbonds>
donor molecule, donor type, donor heavy atom, donor atom, acceptor molecule, acceptor atom, score
      L1  H     3    22       P1  7948  0.84
      L1  H     6    23       P1  7948  0.96

> <Gold.Chemscore.Hbond.Weighted>
-6.3843

> <Gold.Chemscore.Metal.Weighted>
-0.0000

> <Gold.Chemscore.Lipo.Weighted>
-8.7301

> <Gold.Chemscore.Internal_Hbond.Weighted>
0.0000

> <Gold.Chemscore.DEClash.Weighted>
0.2583

> <Gold.Chemscore.DEInternal.Weighted>
1.5252

> <Gold.Chemscore.Rot.Weighted>
3.1325

> <Gold.Chemscore.Internal.Correction.Weighted>
   9.000000E+99

> <Gold.Protein.RotatedTorsions>
[ 6907 6896 6895 6894 ] final -125.43 input  -60.11 | X-H torsion
[ 7974 7965 7964 7962 ] final  135.76 input  175.53 | X-H torsion
[ 8008 7997 7996 7995 ] final   25.77 input   59.86 | X-H torsion
[ 10167 10162 10161 10158 ] final -125.34 input  -65.29 | X-H torsion
[ 10718 10713 10712 10709 ] final   42.13 input   66.30 | X-H torsion
[ 10763 10752 10751 10750 ] final -157.08 input  -60.55 | X-H torsion
[ 11005 11000 10999 10996 ] final -130.76 input  -57.11 | X-H torsion

> <Gold.Protein.ActiveResidues>
 VAL166  LYS551  ARG553  GLY616  TRP617  ASP618  TYR619  PRO620  LYS621  CYS622 
 ASP623  PHE694  ASN695  SER759  ASP760  ASP761  ALA762  ILE779  LEU786  VAL792 
 PHE793  MET794  SER795  GLU796  ALA797  LYS798  CYS799  TRP800  GLU811  SER814 

> <Gold.Protein.RotatedAtoms>
  150.8867  133.7299  159.2916 H   0  0  0  0  0  0  0  0  0  0  0  0  # atno 6907 bound_to 6896
  151.4862  135.1053  159.9801 H   0  0  0  0  0  0  0  0  0  0  0  0  # atno 6908 bound_to 6896
  152.4794  133.8171  159.7089 H   0  0  0  0  0  0  0  0  0  0  0  0  # atno 6909 bound_to 6896
  144.9632  139.4687  143.5469 H   0  0  0  0  0  0  0  0  0  0  0  0  # atno 7974 bound_to 7965
  155.0168  140.3143  155.4808 H   0  0  0  0  0  0  0  0  0  0  0  0  # atno 8008 bound_to 7997
  156.2899  140.2204  156.5226 H   0  0  0  0  0  0  0  0  0  0  0  0  # atno 8009 bound_to 7997
  154.7486  140.0468  157.0862 H   0  0  0  0  0  0  0  0  0  0  0  0  # atno 8010 bound_to 7997
  139.9832  143.5720  152.2370 H   0  0  0  0  0  0  0  0  0  0  0  0  # atno 10167 bound_to 10162
  157.4014  130.7862  149.7351 H   0  0  0  0  0  0  0  0  0  0  0  0  # atno 10718 bound_to 10713
  154.7664  135.3132  154.8278 H   0  0  0  0  0  0  0  0  0  0  0  0  # atno 10763 bound_to 10752
  153.9025  135.6814  153.4759 H   0  0  0  0  0  0  0  0  0  0  0  0  # atno 10764 bound_to 10752
  153.1271  135.4797  154.9222 H   0  0  0  0  0  0  0  0  0  0  0  0  # atno 10765 bound_to 10752
  140.9318  134.1309  157.4228 H   0  0  0  0  0  0  0  0  0  0  0  0  # atno 11005 bound_to 11000
  146.3359  139.8795  142.8826 LP  0  0  0  0  0  0  0  0  0  0  0  0  # atno 17320 bound_to 7965
  145.2669  141.0096  143.3794 LP  0  0  0  0  0  0  0  0  0  0  0  0  # atno 17321 bound_to 7965
  139.6394  144.7653  151.2369 LP  0  0  0  0  0  0  0  0  0  0  0  0  # atno 17342 bound_to 10162
  140.7481  143.6342  150.8394 LP  0  0  0  0  0  0  0  0  0  0  0  0  # atno 17343 bound_to 10162
  155.9824  130.4010  150.3418 LP  0  0  0  0  0  0  0  0  0  0  0  0  # atno 17370 bound_to 10713
  157.1546  131.0329  151.2869 LP  0  0  0  0  0  0  0  0  0  0  0  0  # atno 17371 bound_to 10713
  139.8798  135.0007  156.6028 LP  0  0  0  0  0  0  0  0  0  0  0  0  # atno 17394 bound_to 11000
  140.7852  133.8627  155.8600 LP  0  0  0  0  0  0  0  0  0  0  0  0  # atno 17395 bound_to 11000

$$$$
