AV-unprocessed.smi:1419|AV-procd|sdf|5784|dock5
  -GOLD-   22720 5433D 1   1.00000     0.00000
 Structure written by MMmdl.
 41 42  0  0  0  0  0  0  0  0  1 V2000
  151.6496  140.1629  155.8755 C   0  0  0  0  0  0  0  0  0  0  0  0
  150.6863  141.2380  156.3966 C   0  0  2  0  0  0  0  0  0  0  0  0
  150.1005  142.0723  155.2375 C   0  0  0  0  0  0  0  0  0  0  0  0
  149.0473  141.3791  154.5178 N   0  0  0  0  0  0  0  0  0  0  0  0
  147.8504  141.9138  154.0589 C   0  0  0  0  0  0  0  0  0  0  0  0
  147.1760  140.8895  153.4339 C   0  0  0  0  0  0  0  0  0  0  0  0
  147.9262  139.7185  153.5110 N   0  0  0  0  0  0  0  0  0  0  0  0
  149.0160  140.0848  154.1724 C   0  0  0  0  0  0  0  0  0  0  0  0
  151.3995  142.0916  157.3460 N   0  0  0  0  0  0  0  0  0  0  0  0
  152.1740  141.6722  158.3624 C   0  0  0  0  0  0  0  0  0  0  0  0
  152.3695  140.4781  158.5918 O   0  0  0  0  0  0  0  0  0  0  0  0
  152.6935  142.6667  159.1235 N   0  0  0  0  0  0  0  0  0  0  0  0
  152.6088  144.1118  158.8724 C   0  0  0  0  0  0  0  0  0  0  0  0
  151.7340  144.7628  159.9637 C   0  0  1  0  0  0  0  0  0  0  0  0
  150.2385  144.4187  159.8506 C   0  0  0  0  0  0  0  0  0  0  0  0
  152.2500  144.4321  161.2573 O   0  0  0  0  0  0  0  0  0  0  0  0
  152.4341  143.0373  161.5158 C   0  0  2  0  0  0  0  0  0  0  0  0
  153.0508  142.8925  162.9111 C   0  0  0  0  0  0  0  0  0  0  0  0
  153.3273  142.4226  160.4204 C   0  0  0  0  0  0  0  0  0  0  0  0
  151.1447  139.4865  155.1854 H   0  0  0  0  0  0  0  0  0  0  0  0
  152.0475  139.5607  156.6930 H   0  0  0  0  0  0  0  0  0  0  0  0
  152.4938  140.6073  155.3467 H   0  0  0  0  0  0  0  0  0  0  0  0
  149.8714  140.7189  156.9039 H   0  0  0  0  0  0  0  0  0  0  0  0
  149.7102  143.0212  155.6092 H   0  0  0  0  0  0  0  0  0  0  0  0
  150.8843  142.3172  154.5194 H   0  0  0  0  0  0  0  0  0  0  0  0
  147.5904  142.9523  154.2009 H   0  0  0  0  0  0  0  0  0  0  0  0
  146.2144  140.9044  152.9424 H   0  0  0  0  0  0  0  0  0  0  0  0
  149.8133  139.3951  154.4068 H   0  0  0  0  0  0  0  0  0  0  0  0
  151.2851  143.0879  157.2299 H   0  0  0  0  0  0  0  0  0  0  0  0
  153.6154  144.5308  158.9123 H   0  0  0  0  0  0  0  0  0  0  0  0
  152.2308  144.3727  157.8840 H   0  0  0  0  0  0  0  0  0  0  0  0
  151.8231  145.8449  159.8639 H   0  0  0  0  0  0  0  0  0  0  0  0
  149.8364  144.7462  158.8917 H   0  0  0  0  0  0  0  0  0  0  0  0
  149.6662  144.9135  160.6354 H   0  0  0  0  0  0  0  0  0  0  0  0
  150.0548  143.3485  159.9315 H   0  0  0  0  0  0  0  0  0  0  0  0
  151.4654  142.5362  161.5202 H   0  0  0  0  0  0  0  0  0  0  0  0
  153.2055  141.8435  163.1650 H   0  0  0  0  0  0  0  0  0  0  0  0
  152.3999  143.3254  163.6711 H   0  0  0  0  0  0  0  0  0  0  0  0
  154.0151  143.3975  162.9712 H   0  0  0  0  0  0  0  0  0  0  0  0
  153.4834  141.3617  160.6210 H   0  0  0  0  0  0  0  0  0  0  0  0
  154.3179  142.8796  160.4335 H   0  0  0  0  0  0  0  0  0  0  0  0
  1  2  1  0  0  0  0
  1 20  1  0  0  0  0
  1 21  1  0  0  0  0
  1 22  1  0  0  0  0
  2  3  1  0  0  0  0
  2  9  1  0  0  0  0
  2 23  1  0  0  0  0
  3  4  1  0  0  0  0
  3 24  1  0  0  0  0
  3 25  1  0  0  0  0
  4  8  1  0  0  0  0
  4  5  1  0  0  0  0
  5  6  2  0  0  0  0
  5 26  1  0  0  0  0
  6  7  1  0  0  0  0
  6 27  1  0  0  0  0
  7  8  2  0  0  0  0
  8 28  1  0  0  0  0
  9 10  1  0  0  0  0
  9 29  1  0  0  0  0
 10 11  2  0  0  0  0
 10 12  1  0  0  0  0
 12 19  1  0  0  0  0
 12 13  1  0  0  0  0
 13 14  1  0  0  0  0
 13 30  1  0  0  0  0
 13 31  1  0  0  0  0
 14 15  1  0  0  0  0
 14 16  1  0  0  0  0
 14 32  1  0  0  0  0
 15 33  1  0  0  0  0
 15 34  1  0  0  0  0
 15 35  1  0  0  0  0
 16 17  1  0  0  0  0
 17 18  1  0  0  0  0
 17 19  1  0  0  0  0
 17 36  1  0  0  0  0
 18 37  1  0  0  0  0
 18 38  1  0  0  0  0
 18 39  1  0  0  0  0
 19 40  1  0  0  0  0
 19 41  1  0  0  0  0
M  END
> <s_m_source_file>
AV-unprocessed.smi

> <i_m_source_file_index>
1419

> <i_lp_mmshare_version>
43012

> <i_f3d_flags>
0

> <s_epik_input>
W2NIXTFuW2NIXVtjSF1uMVtDSDJdW0NAQEhdKFtDSDNdKVtOSF1DKD1PKU4yW0NIMl1bQ0BASF0oW0NIM10pT1tDQEBIXShbQ0gzXSlbQ0gyXTI=

> <s_epik_cmdline>
J2VwaWtfcHl0aG9uJywgJy1waCcsICc3LjAnLCAnLXRuJywgJzgnLCAnLW1hJywgJzIwMCcsICctbWV0YWxfYmluZGluZycsICctaW1hZScsICc8aW5maWxlLm1hZT4nLCAnLW9tYWUnLCAnPG91dGZpbGUubWFlPic=

> <r_lp_tautomer_probability>
1

> <r_epik_Ionization_Penalty>
0.625124

> <r_epik_Ionization_Penalty_Charging>
0.625093

> <r_epik_Ionization_Penalty_Neutral>
3.17415e-05

> <r_epik_State_Penalty>
0.641455

> <r_epik_Charging_Adjusted_Penalty>
1.26655

> <i_epik_Tot_Q>
0

> <i_epik_Tot_abs_Q>
0

> <r_epik_Metal_State_Penalty>
0.307717

> <b_epik_Metal_Only>
0

> <s_lp_Force_Field>
OPLS_2005

> <r_lp_Energy>
30.2714

> <b_lp_Chiralities_Consistent>
1

> <s_lp_Variant>
AV-unprocessed.smi:1419-11

> <Gold.Version>
5.8.1

> <Gold.Id.Protein>
6NUR|6NUR_protein|mol2

> <Gold.PLP.Fitness>
50.9073

> <Gold.PLP.PLP>
-46.2059

> <Gold.PLP.part.hbond>
0.0000

> <Gold.PLP.part.metal>
0.0000

> <Gold.PLP.part.buried>
-1.7745

> <Gold.PLP.part.nonpolar>
-44.4408

> <Gold.PLP.part.repulsive>
0.4129

> <Gold.PLP.ligand.clash>
0.0000

> <Gold.PLP.ligand.torsion>
0.5663

> <Gold.PLP.Chemscore.Hbond>
0.0000

> <Gold.PLP.Chemscore.CHOScore>
1.9390

> <Gold.PLP.Chemscore.Metal>
0.0000

> <Gold.Chemscore.Hbonds>
donor molecule, donor type, donor heavy atom, donor atom, acceptor molecule, acceptor atom, score
      L1  C     5    26       P1  8028  0.83
      L1  C     6    27       P1 10175  0.83

> <Gold.PLP.Chemscore.Internal.Correction>
0.0170

> <Gold.Rescore>
     Score         DG    S(hbond)    S(metal)    S(lipo)     H(rot)  DE(clash)    DE(int)     intcor
     11.59     -13.79       0.00        0.00     105.55       1.58       0.45       1.75       ----

> <Gold.Chemscore.Fitness>
11.5930

> <Gold.Chemscore.DG>
-13.7926

> <Gold.Chemscore.ZeroCoef>
-5.4800

> <Gold.Chemscore.Hbond>
0.0000

> <Gold.Chemscore.Metal>
0.0000

> <Gold.Chemscore.Lipo>
105.5516

> <Gold.Chemscore.Internal_Hbond>
0.0000

> <Gold.Chemscore.DEClash>
0.4455

> <Gold.Chemscore.DEInternal>
1.7542

> <Gold.Chemscore.Rot>
1.5769

> <Gold.Chemscore.Internal.Correction>
   9.000000E+99

> <Gold.Chemscore.Hbond.Weighted>
-0.0000

> <Gold.Chemscore.Metal.Weighted>
-0.0000

> <Gold.Chemscore.Lipo.Weighted>
-12.3495

> <Gold.Chemscore.Internal_Hbond.Weighted>
0.0000

> <Gold.Chemscore.DEClash.Weighted>
0.4455

> <Gold.Chemscore.DEInternal.Weighted>
1.7542

> <Gold.Chemscore.Rot.Weighted>
4.0369

> <Gold.Chemscore.Internal.Correction.Weighted>
   9.000000E+99

> <Gold.Protein.RotatedTorsions>
[ 6907 6896 6895 6894 ] final -168.39 input  -60.11 | X-H torsion
[ 7974 7965 7964 7962 ] final  171.24 input  175.53 | X-H torsion
[ 8008 7997 7996 7995 ] final   65.91 input   59.86 | X-H torsion
[ 10167 10162 10161 10158 ] final  -31.78 input  -65.29 | X-H torsion
[ 10718 10713 10712 10709 ] final  -82.16 input   66.30 | X-H torsion
[ 10763 10752 10751 10750 ] final -128.72 input  -60.55 | X-H torsion
[ 11005 11000 10999 10996 ] final -105.31 input  -57.11 | X-H torsion

> <Gold.Protein.ActiveResidues>
 VAL166  LYS551  ARG553  GLY616  TRP617  ASP618  TYR619  PRO620  LYS621  CYS622 
 ASP623  PHE694  ASN695  SER759  ASP760  ASP761  ALA762  ILE779  LEU786  VAL792 
 PHE793  MET794  SER795  GLU796  ALA797  LYS798  CYS799  TRP800  GLU811  SER814 

> <Gold.Protein.RotatedAtoms>
  151.4749  133.3560  159.2828 H   0  0  0  0  0  0  0  0  0  0  0  0  # atno 6907 bound_to 6896
  150.8936  134.8344  159.7322 H   0  0  0  0  0  0  0  0  0  0  0  0  # atno 6908 bound_to 6896
  152.4838  134.4661  159.9672 H   0  0  0  0  0  0  0  0  0  0  0  0  # atno 6909 bound_to 6896
  144.7300  139.9321  143.6425 H   0  0  0  0  0  0  0  0  0  0  0  0  # atno 7974 bound_to 7965
  155.6692  140.3497  155.4812 H   0  0  0  0  0  0  0  0  0  0  0  0  # atno 8008 bound_to 7997
  155.9703  140.1154  157.0841 H   0  0  0  0  0  0  0  0  0  0  0  0  # atno 8009 bound_to 7997
  154.4164  140.1158  156.5283 H   0  0  0  0  0  0  0  0  0  0  0  0  # atno 8010 bound_to 7997
  140.7231  143.3744  151.1717 H   0  0  0  0  0  0  0  0  0  0  0  0  # atno 10167 bound_to 10162
  156.0038  130.4626  150.4063 H   0  0  0  0  0  0  0  0  0  0  0  0  # atno 10718 bound_to 10713
  154.8757  135.3919  154.3803 H   0  0  0  0  0  0  0  0  0  0  0  0  # atno 10763 bound_to 10752
  153.4551  135.7028  153.6090 H   0  0  0  0  0  0  0  0  0  0  0  0  # atno 10764 bound_to 10752
  153.4613  135.3811  155.2308 H   0  0  0  0  0  0  0  0  0  0  0  0  # atno 10765 bound_to 10752
  141.1059  133.8797  157.1718 H   0  0  0  0  0  0  0  0  0  0  0  0  # atno 11005 bound_to 11000
  146.0849  139.3837  143.0441 LP  0  0  0  0  0  0  0  0  0  0  0  0  # atno 17320 bound_to 7965
  145.7790  140.9864  143.1109 LP  0  0  0  0  0  0  0  0  0  0  0  0  # atno 17321 bound_to 7965
  139.7321  143.9055  152.3023 LP  0  0  0  0  0  0  0  0  0  0  0  0  # atno 17342 bound_to 10162
  139.8848  144.6998  150.8837 LP  0  0  0  0  0  0  0  0  0  0  0  0  # atno 17343 bound_to 10162
  157.2129  131.0464  151.2589 LP  0  0  0  0  0  0  0  0  0  0  0  0  # atno 17370 bound_to 10713
  157.3872  130.7263  149.6672 LP  0  0  0  0  0  0  0  0  0  0  0  0  # atno 17371 bound_to 10713
  139.9930  135.0057  157.0018 LP  0  0  0  0  0  0  0  0  0  0  0  0  # atno 17394 bound_to 11000
  140.4902  134.1200  155.7231 LP  0  0  0  0  0  0  0  0  0  0  0  0  # atno 17395 bound_to 11000

$$$$
