AV-unprocessed.smi:768|AV-procd|sdf|3673|dock1
  -GOLD-   22720 1 83D 1   1.00000     0.00000
 Structure written by MMmdl.
 48 49  0  0  0  0  0  0  0  0  1 V2000
  152.7466  142.1091  161.6436 C   0  0  0  0  0  0  0  0  0  0  0  0
  152.3550  143.1579  160.6176 C   0  0  0  0  0  0  0  0  0  0  0  0
  152.0508  144.4221  160.9835 C   0  0  0  0  0  0  0  0  0  0  0  0
  151.6844  145.4148  160.0028 C   0  0  0  0  0  0  0  0  0  0  0  0
  151.6513  145.0494  158.7135 C   0  0  0  0  0  0  0  0  0  0  0  0
  151.9617  143.7389  158.3056 N   0  0  0  0  0  0  0  0  0  0  0  0
  151.8973  143.4571  156.8590 C   0  0  0  0  0  0  0  0  0  0  0  0
  150.9151  142.3416  156.4600 C   0  0  0  0  0  0  0  0  0  0  0  0
  151.3436  141.2000  156.2977 O   0  0  0  0  0  0  0  0  0  0  0  0
  149.6236  142.6700  156.2885 N   0  0  0  0  0  0  0  0  0  0  0  0
  148.5689  141.7846  155.8075 C   0  0  0  0  0  0  0  0  0  0  0  0
  147.5334  141.5232  156.9132 C   0  0  0  0  0  0  0  0  0  0  0  0
  146.8270  142.7961  157.4031 C   0  0  0  0  0  0  0  0  0  0  0  0
  146.0407  142.4760  158.5409 O   0  0  0  0  0  0  0  0  0  0  0  0
  145.5264  143.6054  159.2358 C   0  0  0  0  0  0  0  0  0  0  0  0
  144.8116  143.1761  160.5353 C   0  0  0  0  0  0  0  0  0  0  0  0
  144.1312  144.3696  161.2246 C   0  0  0  0  0  0  0  0  0  0  0  0
  143.1603  145.0864  160.2733 C   0  0  0  0  0  0  0  0  0  0  0  0
  143.8682  145.5160  158.9788 C   0  0  0  0  0  0  0  0  0  0  0  0
  144.5425  144.3179  158.2910 C   0  0  0  0  0  0  0  0  0  0  0  0
  152.3190  142.7622  159.1973 C   0  0  0  0  0  0  0  0  0  0  0  0
  152.5988  141.6218  158.8235 O   0  0  0  0  0  0  0  0  0  0  0  0
  152.6931  142.5050  162.6582 H   0  0  0  0  0  0  0  0  0  0  0  0
  153.7674  141.7701  161.4696 H   0  0  0  0  0  0  0  0  0  0  0  0
  152.0820  141.2466  161.5840 H   0  0  0  0  0  0  0  0  0  0  0  0
  152.0819  144.7030  162.0260 H   0  0  0  0  0  0  0  0  0  0  0  0
  151.4464  146.4257  160.2994 H   0  0  0  0  0  0  0  0  0  0  0  0
  151.3934  145.7323  157.9169 H   0  0  0  0  0  0  0  0  0  0  0  0
  151.6326  144.3646  156.3130 H   0  0  0  0  0  0  0  0  0  0  0  0
  152.8839  143.1835  156.4828 H   0  0  0  0  0  0  0  0  0  0  0  0
  149.3607  143.6305  156.4561 H   0  0  0  0  0  0  0  0  0  0  0  0
  148.0688  142.1930  154.9280 H   0  0  0  0  0  0  0  0  0  0  0  0
  149.0253  140.8441  155.4986 H   0  0  0  0  0  0  0  0  0  0  0  0
  146.7871  140.8190  156.5437 H   0  0  0  0  0  0  0  0  0  0  0  0
  148.0213  141.0340  157.7571 H   0  0  0  0  0  0  0  0  0  0  0  0
  147.5641  143.5576  157.6547 H   0  0  0  0  0  0  0  0  0  0  0  0
  146.1940  143.2008  156.6121 H   0  0  0  0  0  0  0  0  0  0  0  0
  146.3373  144.2976  159.4711 H   0  0  0  0  0  0  0  0  0  0  0  0
  144.0648  142.4149  160.3062 H   0  0  0  0  0  0  0  0  0  0  0  0
  145.5142  142.7208  161.2320 H   0  0  0  0  0  0  0  0  0  0  0  0
  143.5984  144.0297  162.1132 H   0  0  0  0  0  0  0  0  0  0  0  0
  144.8908  145.0723  161.5694 H   0  0  0  0  0  0  0  0  0  0  0  0
  142.3285  144.4231  160.0321 H   0  0  0  0  0  0  0  0  0  0  0  0
  142.7284  145.9564  160.7685 H   0  0  0  0  0  0  0  0  0  0  0  0
  143.1521  145.9795  158.2996 H   0  0  0  0  0  0  0  0  0  0  0  0
  144.6167  146.2766  159.2056 H   0  0  0  0  0  0  0  0  0  0  0  0
  145.0652  144.6530  157.3948 H   0  0  0  0  0  0  0  0  0  0  0  0
  143.7785  143.6141  157.9576 H   0  0  0  0  0  0  0  0  0  0  0  0
  1  2  1  0  0  0  0
  1 23  1  0  0  0  0
  1 24  1  0  0  0  0
  1 25  1  0  0  0  0
  2 21  1  0  0  0  0
  2  3  2  0  0  0  0
  3  4  1  0  0  0  0
  3 26  1  0  0  0  0
  4  5  2  0  0  0  0
  4 27  1  0  0  0  0
  5  6  1  0  0  0  0
  5 28  1  0  0  0  0
  6  7  1  0  0  0  0
  6 21  1  0  0  0  0
  7  8  1  0  0  0  0
  7 29  1  0  0  0  0
  7 30  1  0  0  0  0
  8  9  2  0  0  0  0
  8 10  1  0  0  0  0
 10 11  1  0  0  0  0
 10 31  1  0  0  0  0
 11 12  1  0  0  0  0
 11 32  1  0  0  0  0
 11 33  1  0  0  0  0
 12 13  1  0  0  0  0
 12 34  1  0  0  0  0
 12 35  1  0  0  0  0
 13 14  1  0  0  0  0
 13 36  1  0  0  0  0
 13 37  1  0  0  0  0
 14 15  1  0  0  0  0
 15 20  1  0  0  0  0
 15 16  1  0  0  0  0
 15 38  1  0  0  0  0
 16 17  1  0  0  0  0
 16 39  1  0  0  0  0
 16 40  1  0  0  0  0
 17 18  1  0  0  0  0
 17 41  1  0  0  0  0
 17 42  1  0  0  0  0
 18 19  1  0  0  0  0
 18 43  1  0  0  0  0
 18 44  1  0  0  0  0
 19 20  1  0  0  0  0
 19 45  1  0  0  0  0
 19 46  1  0  0  0  0
 20 47  1  0  0  0  0
 20 48  1  0  0  0  0
 21 22  2  0  0  0  0
M  END
> <s_m_source_file>
AV-unprocessed.smi

> <i_m_source_file_index>
768

> <i_lp_mmshare_version>
43012

> <i_f3d_flags>
0

> <s_epik_input>
W0NIM11jMVtjSF1bY0hdW2NIXW4oYzE9TylbQ0gyXUMoPU8pW05IXVtDSDJdW0NIMl1bQ0gyXU9bQ0hdMltDSDJdW0NIMl1bQ0gyXVtDSDJdW0NIMl0y

> <s_epik_cmdline>
J2VwaWtfcHl0aG9uJywgJy1waCcsICc3LjAnLCAnLXRuJywgJzgnLCAnLW1hJywgJzIwMCcsICctbWV0YWxfYmluZGluZycsICctaW1hZScsICc8aW5maWxlLm1hZT4nLCAnLW9tYWUnLCAnPG91dGZpbGUubWFlPic=

> <r_lp_tautomer_probability>
1

> <r_epik_Ionization_Penalty>
7.81262e-07

> <r_epik_Ionization_Penalty_Charging>
7.6198e-07

> <r_epik_Ionization_Penalty_Neutral>
1.92812e-08

> <r_epik_State_Penalty>
-0

> <r_epik_Charging_Adjusted_Penalty>
7.6198e-07

> <i_epik_Tot_Q>
0

> <i_epik_Tot_abs_Q>
0

> <r_epik_Metal_State_Penalty>
-0

> <b_epik_Metal_Only>
0

> <s_lp_Force_Field>
OPLS_2005

> <r_lp_Energy>
20.2971

> <b_lp_Chiralities_Consistent>
1

> <s_lp_Variant>
AV-unprocessed.smi:768-1

> <Gold.Version>
5.8.1

> <Gold.Id.Protein>
6NUR|6NUR_protein|mol2

> <Gold.PLP.Fitness>
51.6651

> <Gold.PLP.PLP>
-47.5832

> <Gold.PLP.part.hbond>
-2.0000

> <Gold.PLP.part.metal>
0.0000

> <Gold.PLP.part.buried>
-8.0668

> <Gold.PLP.part.nonpolar>
-38.5387

> <Gold.PLP.part.repulsive>
0.0605

> <Gold.PLP.ligand.clash>
0.0000

> <Gold.PLP.ligand.torsion>
0.4210

> <Gold.PLP.Chemscore.Hbond>
1.6080

> <Gold.PLP.Chemscore.CHOScore>
0.0000

> <Gold.PLP.Chemscore.Metal>
0.0000

> <Gold.Chemscore.Hbonds>
donor molecule, donor type, donor heavy atom, donor atom, acceptor molecule, acceptor atom, score
      L1  H    10    31       P1  8028  0.55

> <Gold.PLP.Chemscore.Internal.Correction>
0.0999

> <Gold.Rescore>
     Score         DG    S(hbond)    S(metal)    S(lipo)     H(rot)  DE(clash)    DE(int)     intcor
     13.65     -16.96       1.22        0.00     106.40       1.97       0.41       2.90       ----

> <Gold.Chemscore.Fitness>
13.6515

> <Gold.Chemscore.DG>
-16.9640

> <Gold.Chemscore.ZeroCoef>
-5.4800

> <Gold.Chemscore.Hbond>
1.2189

> <Gold.Chemscore.Metal>
0.0000

> <Gold.Chemscore.Lipo>
106.4003

> <Gold.Chemscore.Internal_Hbond>
0.0000

> <Gold.Chemscore.DEClash>
0.4103

> <Gold.Chemscore.DEInternal>
2.9021

> <Gold.Chemscore.Rot>
1.9671

> <Gold.Chemscore.Internal.Correction>
   9.000000E+99

> <Gold.Chemscore.Hbonds>
donor molecule, donor type, donor heavy atom, donor atom, acceptor molecule, acceptor atom, score
      L1  H    10    31       P1  8028  0.54

> <Gold.Chemscore.Hbond.Weighted>
-4.0710

> <Gold.Chemscore.Metal.Weighted>
-0.0000

> <Gold.Chemscore.Lipo.Weighted>
-12.4488

> <Gold.Chemscore.Internal_Hbond.Weighted>
0.0000

> <Gold.Chemscore.DEClash.Weighted>
0.4103

> <Gold.Chemscore.DEInternal.Weighted>
2.9021

> <Gold.Chemscore.Rot.Weighted>
5.0359

> <Gold.Chemscore.Internal.Correction.Weighted>
   9.000000E+99

> <Gold.Protein.RotatedTorsions>
[ 6907 6896 6895 6894 ] final   92.46 input  -60.11 | X-H torsion
[ 7974 7965 7964 7962 ] final  -71.21 input  175.53 | X-H torsion
[ 8008 7997 7996 7995 ] final   47.58 input   59.86 | X-H torsion
[ 10167 10162 10161 10158 ] final    0.80 input  -65.29 | X-H torsion
[ 10718 10713 10712 10709 ] final  -89.47 input   66.30 | X-H torsion
[ 10763 10752 10751 10750 ] final  117.37 input  -60.55 | X-H torsion
[ 11005 11000 10999 10996 ] final   31.17 input  -57.11 | X-H torsion

> <Gold.Protein.ActiveResidues>
 VAL166  LYS551  ARG553  GLY616  TRP617  ASP618  TYR619  PRO620  LYS621  CYS622 
 ASP623  PHE694  ASN695  SER759  ASP760  ASP761  ALA762  ILE779  LEU786  VAL792 
 PHE793  MET794  SER795  GLU796  ALA797  LYS798  CYS799  TRP800  GLU811  SER814 

> <Gold.Protein.RotatedAtoms>
  152.5452  134.1499  159.8513 H   0  0  0  0  0  0  0  0  0  0  0  0  # atno 6907 bound_to 6896
  151.1527  133.4889  159.2602 H   0  0  0  0  0  0  0  0  0  0  0  0  # atno 6908 bound_to 6896
  151.1455  135.0212  159.8700 H   0  0  0  0  0  0  0  0  0  0  0  0  # atno 6909 bound_to 6896
  145.6810  140.9188  143.0832 H   0  0  0  0  0  0  0  0  0  0  0  0  # atno 7974 bound_to 7965
  155.3714  140.3424  155.4243 H   0  0  0  0  0  0  0  0  0  0  0  0  # atno 8008 bound_to 7997
  156.1660  140.1616  156.8564 H   0  0  0  0  0  0  0  0  0  0  0  0  # atno 8009 bound_to 7997
  154.5186  140.0772  156.8110 H   0  0  0  0  0  0  0  0  0  0  0  0  # atno 8010 bound_to 7997
  140.6712  143.7042  150.7927 H   0  0  0  0  0  0  0  0  0  0  0  0  # atno 10167 bound_to 10162
  155.9984  130.4873  150.5176 H   0  0  0  0  0  0  0  0  0  0  0  0  # atno 10718 bound_to 10713
  153.5514  135.3539  155.2761 H   0  0  0  0  0  0  0  0  0  0  0  0  # atno 10763 bound_to 10752
  154.8706  135.4114  154.2933 H   0  0  0  0  0  0  0  0  0  0  0  0  # atno 10764 bound_to 10752
  153.3660  135.7062  153.6743 H   0  0  0  0  0  0  0  0  0  0  0  0  # atno 10765 bound_to 10752
  140.2867  134.2911  155.7786 H   0  0  0  0  0  0  0  0  0  0  0  0  # atno 11005 bound_to 11000
  144.7026  139.8696  143.7439 LP  0  0  0  0  0  0  0  0  0  0  0  0  # atno 17320 bound_to 7965
  146.0964  139.3957  143.0374 LP  0  0  0  0  0  0  0  0  0  0  0  0  # atno 17321 bound_to 7965
  140.0728  143.5044  152.2571 LP  0  0  0  0  0  0  0  0  0  0  0  0  # atno 17342 bound_to 10162
  139.5982  144.7574  151.3236 LP  0  0  0  0  0  0  0  0  0  0  0  0  # atno 17343 bound_to 10162
  157.3142  131.0669  151.1979 LP  0  0  0  0  0  0  0  0  0  0  0  0  # atno 17370 bound_to 10713
  157.2915  130.6798  149.6116 LP  0  0  0  0  0  0  0  0  0  0  0  0  # atno 17371 bound_to 10713
  141.2153  133.7559  156.9562 LP  0  0  0  0  0  0  0  0  0  0  0  0  # atno 17394 bound_to 11000
  140.1233  134.9403  157.2234 LP  0  0  0  0  0  0  0  0  0  0  0  0  # atno 17395 bound_to 11000

$$$$
