AV-unprocessed.smi:639|AV-procd|sdf|3149|dock8
  -GOLD-   22720 0 73D 1   1.00000     0.00000
 Structure written by MMmdl.
 23 24  0  0  0  0  0  0  0  0  2 V2000
  152.0211  145.4830  158.8860 C   0  0  0  0  0  0  0  0  0  0  0  0
  152.1721  144.0527  159.0453 N   0  0  0  0  0  0  0  0  0  0  0  0
  151.6825  143.0417  158.2478 C   0  0  0  0  0  0  0  0  0  0  0  0
  152.0802  141.8499  158.7917 C   0  0  0  0  0  0  0  0  0  0  0  0
  151.8206  140.4332  158.3095 C   0  0  2  0  0  0  0  0  0  0  0  0
  152.2259  139.3994  159.3783 C   0  0  0  0  0  0  0  0  0  0  0  0
  152.4923  140.1319  157.0530 N   0  5  0  0  0  0  0  0  0  0  0  0
  151.5567  139.8846  156.1056 C   0  0  0  0  0  0  0  0  0  0  0  0
  151.7388  139.6061  154.9226 O   0  0  0  0  0  0  0  0  0  0  0  0
  150.3275  139.9772  156.6217 N   0  0  0  0  0  0  0  0  0  0  0  0
  150.3580  140.2791  157.9161 C   0  0  0  0  0  0  0  0  0  0  0  0
  149.3948  140.4094  158.6715 O   0  0  0  0  0  0  0  0  0  0  0  0
  152.8240  142.2577  159.9391 C   0  0  0  0  0  0  0  0  0  0  0  0
  152.8750  143.5711  160.0895 N   0  0  0  0  0  0  0  0  0  0  0  0
  151.4175  145.6991  158.0040 H   0  0  0  0  0  0  0  0  0  0  0  0
  153.0011  145.9460  158.7667 H   0  0  0  0  0  0  0  0  0  0  0  0
  151.5293  145.9029  159.7638 H   0  0  0  0  0  0  0  0  0  0  0  0
  151.0964  143.2488  157.3644 H   0  0  0  0  0  0  0  0  0  0  0  0
  151.6836  139.5552  160.3116 H   0  0  0  0  0  0  0  0  0  0  0  0
  153.2908  139.4665  159.6043 H   0  0  0  0  0  0  0  0  0  0  0  0
  152.0244  138.3785  159.0501 H   0  0  0  0  0  0  0  0  0  0  0  0
  149.4809  139.8227  156.0951 H   0  0  0  0  0  0  0  0  0  0  0  0
  153.3251  141.6350  160.6654 H   0  0  0  0  0  0  0  0  0  0  0  0
  1  2  1  0  0  0  0
  1 15  1  0  0  0  0
  1 16  1  0  0  0  0
  1 17  1  0  0  0  0
  2 14  1  0  0  0  0
  2  3  1  0  0  0  0
  3  4  2  0  0  0  0
  3 18  1  0  0  0  0
  4  5  1  0  0  0  0
  4 13  1  0  0  0  0
  5 11  1  0  0  0  0
  5  6  1  0  0  0  0
  5  7  1  0  0  0  0
  6 19  1  0  0  0  0
  6 20  1  0  0  0  0
  6 21  1  0  0  0  0
  7  8  1  0  0  0  0
  8  9  2  0  0  0  0
  8 10  1  0  0  0  0
 10 11  1  0  0  0  0
 10 22  1  0  0  0  0
 11 12  2  0  0  0  0
 13 14  2  0  0  0  0
 13 23  1  0  0  0  0
M  CHG  1   7  -1
M  END
> <s_m_source_file>
AV-unprocessed.smi

> <i_m_source_file_index>
639

> <i_lp_mmshare_version>
43012

> <i_f3d_flags>
0

> <s_epik_input>
W0NIM11uMVtjSF1jKFtjSF1uMSlbQ0BAXTIoW0NIM10pW05IXUMoPU8pW05IXUMyPU8=

> <s_epik_cmdline>
J2VwaWtfcHl0aG9uJywgJy1waCcsICc3LjAnLCAnLXRuJywgJzgnLCAnLW1hJywgJzIwMCcsICctbWV0YWxfYmluZGluZycsICctaW1hZScsICc8aW5maWxlLm1hZT4nLCAnLW9tYWUnLCAnPG91dGZpbGUubWFlPic=

> <r_lp_tautomer_probability>
1

> <r_epik_Ionization_Penalty>
4.83415

> <r_epik_Ionization_Penalty_Charging>
4.8337

> <r_epik_Ionization_Penalty_Neutral>
0.000449923

> <r_epik_State_Penalty>
4.85653

> <r_epik_Charging_Adjusted_Penalty>
9.69023

> <i_epik_Tot_Q>
-1

> <i_epik_Tot_abs_Q>
1

> <r_epik_Metal_State_Penalty>
1.31841

> <b_epik_Metal_Only>
1

> <s_lp_Force_Field>
OPLS_2005

> <r_lp_Energy>
8.78459

> <b_lp_Chiralities_Consistent>
1

> <s_lp_Variant>
AV-unprocessed.smi:639-6

> <Gold.Version>
5.8.1

> <Gold.Id.Protein>
6NUR|6NUR_protein|mol2

> <Gold.PLP.Fitness>
35.9148

> <Gold.PLP.PLP>
-27.6051

> <Gold.PLP.part.hbond>
-2.2809

> <Gold.PLP.part.metal>
0.0000

> <Gold.PLP.part.buried>
-2.3923

> <Gold.PLP.part.nonpolar>
-21.4340

> <Gold.PLP.part.repulsive>
0.1117

> <Gold.PLP.ligand.clash>
0.0000

> <Gold.PLP.ligand.torsion>
0.3621

> <Gold.PLP.Chemscore.Hbond>
2.9920

> <Gold.PLP.Chemscore.CHOScore>
0.0000

> <Gold.PLP.Chemscore.Metal>
0.0000

> <Gold.Chemscore.Hbonds>
donor molecule, donor type, donor heavy atom, donor atom, acceptor molecule, acceptor atom, score
      P1  H  7989  7998       L1     9  1.00
      P1  H  7997  8010       L1     7  2.00

> <Gold.PLP.Chemscore.Internal.Correction>
0.0578

> <Gold.Rescore>
     Score         DG    S(hbond)    S(metal)    S(lipo)     H(rot)  DE(clash)    DE(int)     intcor
     15.49     -15.91       1.95        0.00      55.39       1.00       0.11       0.30       ----

> <Gold.Chemscore.Fitness>
15.4921

> <Gold.Chemscore.DG>
-15.9051

> <Gold.Chemscore.ZeroCoef>
-5.4800

> <Gold.Chemscore.Hbond>
1.9474

> <Gold.Chemscore.Metal>
0.0000

> <Gold.Chemscore.Lipo>
55.3911

> <Gold.Chemscore.Internal_Hbond>
0.0000

> <Gold.Chemscore.DEClash>
0.1113

> <Gold.Chemscore.DEInternal>
0.3017

> <Gold.Chemscore.Rot>
1.0000

> <Gold.Chemscore.Internal.Correction>
   9.000000E+99

> <Gold.Chemscore.Hbonds>
donor molecule, donor type, donor heavy atom, donor atom, acceptor molecule, acceptor atom, score
      P1  H  7989  7998       L1     9  0.96
      P1  H  7997  8010       L1     7  0.88

> <Gold.Chemscore.Hbond.Weighted>
-6.5044

> <Gold.Chemscore.Metal.Weighted>
-0.0000

> <Gold.Chemscore.Lipo.Weighted>
-6.4808

> <Gold.Chemscore.Internal_Hbond.Weighted>
0.0000

> <Gold.Chemscore.DEClash.Weighted>
0.1113

> <Gold.Chemscore.DEInternal.Weighted>
0.3017

> <Gold.Chemscore.Rot.Weighted>
2.5600

> <Gold.Chemscore.Internal.Correction.Weighted>
   9.000000E+99

> <Gold.Protein.RotatedTorsions>
[ 6907 6896 6895 6894 ] final   36.22 input  -60.11 | X-H torsion
[ 7974 7965 7964 7962 ] final  134.29 input  175.53 | X-H torsion
[ 8008 7997 7996 7995 ] final   71.71 input   59.86 | X-H torsion
[ 10167 10162 10161 10158 ] final  144.14 input  -65.29 | X-H torsion
[ 10718 10713 10712 10709 ] final  169.63 input   66.30 | X-H torsion
[ 10763 10752 10751 10750 ] final   30.52 input  -60.55 | X-H torsion
[ 11005 11000 10999 10996 ] final -134.06 input  -57.11 | X-H torsion

> <Gold.Protein.ActiveResidues>
 VAL166  LYS551  ARG553  GLY616  TRP617  ASP618  TYR619  PRO620  LYS621  CYS622 
 ASP623  PHE694  ASN695  SER759  ASP760  ASP761  ALA762  ILE779  LEU786  VAL792 
 PHE793  MET794  SER795  GLU796  ALA797  LYS798  CYS799  TRP800  GLU811  SER814 

> <Gold.Protein.RotatedAtoms>
  152.1268  134.9165  160.0560 H   0  0  0  0  0  0  0  0  0  0  0  0  # atno 6907 bound_to 6896
  152.0285  133.3922  159.4295 H   0  0  0  0  0  0  0  0  0  0  0  0  # atno 6908 bound_to 6896
  150.6853  134.3469  159.4935 H   0  0  0  0  0  0  0  0  0  0  0  0  # atno 6909 bound_to 6896
  144.9779  139.4535  143.5401 H   0  0  0  0  0  0  0  0  0  0  0  0  # atno 7974 bound_to 7965
  155.7580  140.3487  155.5183 H   0  0  0  0  0  0  0  0  0  0  0  0  # atno 8008 bound_to 7997
  155.8941  140.1023  157.1418 H   0  0  0  0  0  0  0  0  0  0  0  0  # atno 8009 bound_to 7997
  154.4036  140.1298  156.4340 H   0  0  0  0  0  0  0  0  0  0  0  0  # atno 8010 bound_to 7997
  139.4953  144.5992  151.6517 H   0  0  0  0  0  0  0  0  0  0  0  0  # atno 10167 bound_to 10162
  157.0198  131.0228  151.2778 H   0  0  0  0  0  0  0  0  0  0  0  0  # atno 10718 bound_to 10713
  153.0367  135.6462  154.1058 H   0  0  0  0  0  0  0  0  0  0  0  0  # atno 10763 bound_to 10752
  154.0771  135.2876  155.3299 H   0  0  0  0  0  0  0  0  0  0  0  0  # atno 10764 bound_to 10752
  154.6555  135.5410  153.8018 H   0  0  0  0  0  0  0  0  0  0  0  0  # atno 10765 bound_to 10752
  140.9025  134.1672  157.4450 H   0  0  0  0  0  0  0  0  0  0  0  0  # atno 11005 bound_to 11000
  146.3400  139.9033  142.8791 LP  0  0  0  0  0  0  0  0  0  0  0  0  # atno 17320 bound_to 7965
  145.2463  141.0028  143.3906 LP  0  0  0  0  0  0  0  0  0  0  0  0  # atno 17321 bound_to 7965
  140.5638  144.0224  150.6182 LP  0  0  0  0  0  0  0  0  0  0  0  0  # atno 17342 bound_to 10162
  140.3319  143.3072  152.0678 LP  0  0  0  0  0  0  0  0  0  0  0  0  # atno 17343 bound_to 10162
  157.5258  130.8027  149.7860 LP  0  0  0  0  0  0  0  0  0  0  0  0  # atno 17370 bound_to 10713
  156.0106  130.3835  150.2277 LP  0  0  0  0  0  0  0  0  0  0  0  0  # atno 17371 bound_to 10713
  139.8744  134.9903  156.5499 LP  0  0  0  0  0  0  0  0  0  0  0  0  # atno 17394 bound_to 11000
  140.8212  133.8352  155.8898 LP  0  0  0  0  0  0  0  0  0  0  0  0  # atno 17395 bound_to 11000

$$$$
