AV-unprocessed.smi:310|AV-procd|sdf|2295|dock3
  -GOLD-   2262022193D 1   1.00000     0.00000
 Structure written by MMmdl.
 41 43  0  0  0  0  0  0  0  0  1 V2000
  144.3431  132.0478  150.1917 C   0  0  0  0  0  0  0  0  0  0  0  0
  144.6479  133.3073  150.9279 C   0  0  0  0  0  0  0  0  0  0  0  0
  145.7547  134.1067  150.9867 C   0  0  0  0  0  0  0  0  0  0  0  0
  145.3569  135.1391  151.8774 C   0  0  0  0  0  0  0  0  0  0  0  0
  146.2437  136.1948  152.2103 N   0  0  0  0  0  0  0  0  0  0  0  0
  145.9344  137.3853  152.7522 C   0  0  0  0  0  0  0  0  0  0  0  0
  144.7998  137.7508  153.0606 O   0  0  0  0  0  0  0  0  0  0  0  0
  147.0284  138.1428  152.9204 N   0  0  0  0  0  0  0  0  0  0  0  0
  147.0408  139.4945  153.4721 C   0  0  0  0  0  0  0  0  0  0  0  0
  148.4871  140.0353  153.4857 C   0  0  0  0  0  0  0  0  0  0  0  0
  148.5661  141.3794  154.2299 C   0  0  0  0  0  0  0  0  0  0  0  0
  148.0466  141.1945  155.5918 N   0  0  0  0  0  0  0  0  0  0  0  0
  148.7770  141.2114  156.7350 C   0  0  0  0  0  0  0  0  0  0  0  0
  148.2550  141.1112  157.8465 O   0  0  0  0  0  0  0  0  0  0  0  0
  150.2652  141.3299  156.5948 C   0  0  0  0  0  0  0  0  0  0  0  0
  150.9903  140.3326  155.7085 C   0  0  0  0  0  0  0  0  0  0  0  0
  151.1008  140.2255  157.2071 C   0  0  0  0  0  0  0  0  0  0  0  0
  146.6128  140.8795  155.5724 C   0  0  0  0  0  0  0  0  0  0  0  0
  146.4153  139.5144  154.8868 C   0  0  0  0  0  0  0  0  0  0  0  0
  144.1195  134.9836  152.3227 N   0  0  0  0  0  0  0  0  0  0  0  0
  143.6590  133.8086  151.7166 O   0  0  0  0  0  0  0  0  0  0  0  0
  145.1674  131.7708  149.5342 H   0  0  0  0  0  0  0  0  0  0  0  0
  143.4479  132.1644  149.5806 H   0  0  0  0  0  0  0  0  0  0  0  0
  144.1741  131.2255  150.8871 H   0  0  0  0  0  0  0  0  0  0  0  0
  146.6952  133.9725  150.4734 H   0  0  0  0  0  0  0  0  0  0  0  0
  147.2181  136.0274  152.0084 H   0  0  0  0  0  0  0  0  0  0  0  0
  147.9195  137.7597  152.6409 H   0  0  0  0  0  0  0  0  0  0  0  0
  146.4516  140.1499  152.8275 H   0  0  0  0  0  0  0  0  0  0  0  0
  149.1502  139.3176  153.9714 H   0  0  0  0  0  0  0  0  0  0  0  0
  148.8517  140.1527  152.4647 H   0  0  0  0  0  0  0  0  0  0  0  0
  149.5790  141.7780  154.1950 H   0  0  0  0  0  0  0  0  0  0  0  0
  147.9555  142.1215  153.7136 H   0  0  0  0  0  0  0  0  0  0  0  0
  150.6780  142.3370  156.5955 H   0  0  0  0  0  0  0  0  0  0  0  0
  150.4201  139.5587  155.1979 H   0  0  0  0  0  0  0  0  0  0  0  0
  151.8545  140.7002  155.1591 H   0  0  0  0  0  0  0  0  0  0  0  0
  152.0386  140.5180  157.6746 H   0  0  0  0  0  0  0  0  0  0  0  0
  150.5841  139.3968  157.6889 H   0  0  0  0  0  0  0  0  0  0  0  0
  146.1679  140.8575  156.5680 H   0  0  0  0  0  0  0  0  0  0  0  0
  146.0761  141.6563  155.0258 H   0  0  0  0  0  0  0  0  0  0  0  0
  145.3520  139.2784  154.8318 H   0  0  0  0  0  0  0  0  0  0  0  0
  146.8717  138.7383  155.5031 H   0  0  0  0  0  0  0  0  0  0  0  0
  1  2  1  0  0  0  0
  1 22  1  0  0  0  0
  1 23  1  0  0  0  0
  1 24  1  0  0  0  0
  2 21  1  0  0  0  0
  2  3  2  0  0  0  0
  3  4  1  0  0  0  0
  3 25  1  0  0  0  0
  4  5  1  0  0  0  0
  4 20  2  0  0  0  0
  5  6  1  0  0  0  0
  5 26  1  0  0  0  0
  6  7  2  0  0  0  0
  6  8  1  0  0  0  0
  8  9  1  0  0  0  0
  8 27  1  0  0  0  0
  9 19  1  0  0  0  0
  9 10  1  0  0  0  0
  9 28  1  0  0  0  0
 10 11  1  0  0  0  0
 10 29  1  0  0  0  0
 10 30  1  0  0  0  0
 11 12  1  0  0  0  0
 11 31  1  0  0  0  0
 11 32  1  0  0  0  0
 12 13  1  0  0  0  0
 12 18  1  0  0  0  0
 13 14  2  0  0  0  0
 13 15  1  0  0  0  0
 15 17  1  0  0  0  0
 15 16  1  0  0  0  0
 15 33  1  0  0  0  0
 16 17  1  0  0  0  0
 16 34  1  0  0  0  0
 16 35  1  0  0  0  0
 17 36  1  0  0  0  0
 17 37  1  0  0  0  0
 18 19  1  0  0  0  0
 18 38  1  0  0  0  0
 18 39  1  0  0  0  0
 19 40  1  0  0  0  0
 19 41  1  0  0  0  0
 20 21  1  0  0  0  0
M  END
> <s_m_source_file>
AV-unprocessed.smi

> <i_m_source_file_index>
310

> <i_lp_mmshare_version>
43012

> <i_f3d_flags>
0

> <s_epik_input>
W0NIM11jMVtjSF1jKG5vMSlbTkhdQyg9TylbTkhdW0NIXTJbQ0gyXVtDSDJdTihbQ0gyXVtDSDJdMilDKD1PKVtDSF0zW0NIMl1bQ0gyXTM=

> <s_epik_cmdline>
J2VwaWtfcHl0aG9uJywgJy1waCcsICc3LjAnLCAnLXRuJywgJzgnLCAnLW1hJywgJzIwMCcsICctbWV0YWxfYmluZGluZycsICctaW1hZScsICc8aW5maWxlLm1hZT4nLCAnLW9tYWUnLCAnPG91dGZpbGUubWFlPic=

> <r_lp_tautomer_probability>
1

> <r_epik_Ionization_Penalty>
2.91812e-05

> <r_epik_Ionization_Penalty_Charging>
0

> <r_epik_Ionization_Penalty_Neutral>
2.91812e-05

> <r_epik_State_Penalty>
-0

> <r_epik_Charging_Adjusted_Penalty>
0

> <i_epik_Tot_Q>
0

> <i_epik_Tot_abs_Q>
0

> <r_epik_Metal_State_Penalty>
0.00922567

> <b_epik_Metal_Only>
0

> <s_lp_Force_Field>
OPLS_2005

> <r_lp_Energy>
27.9216

> <b_lp_Chiralities_Consistent>
1

> <s_lp_Variant>
AV-unprocessed.smi:310-1

> <Gold.Version>
5.8.1

> <Gold.Id.Protein>
6NUR|6NUR_protein|mol2

> <Gold.PLP.Fitness>
34.6327

> <Gold.PLP.PLP>
-28.8005

> <Gold.PLP.part.hbond>
-2.0000

> <Gold.PLP.part.metal>
0.0000

> <Gold.PLP.part.buried>
-2.4748

> <Gold.PLP.part.nonpolar>
-26.7885

> <Gold.PLP.part.repulsive>
1.8623

> <Gold.PLP.ligand.clash>
0.0000

> <Gold.PLP.ligand.torsion>
0.1326

> <Gold.PLP.Chemscore.Hbond>
1.9920

> <Gold.PLP.Chemscore.CHOScore>
0.0000

> <Gold.PLP.Chemscore.Metal>
0.0000

> <Gold.Chemscore.Hbonds>
donor molecule, donor type, donor heavy atom, donor atom, acceptor molecule, acceptor atom, score
      L1  H     5    26       P1  7948  1.00
      L1  H     8    27       P1  7948  0.98

> <Gold.PLP.Chemscore.Internal.Correction>
0.1214

> <Gold.Rescore>
     Score         DG    S(hbond)    S(metal)    S(lipo)     H(rot)  DE(clash)    DE(int)     intcor
     12.49     -16.80       1.94        0.00      69.00       1.26       1.50       2.81       ----

> <Gold.Chemscore.Fitness>
12.4851

> <Gold.Chemscore.DG>
-16.7982

> <Gold.Chemscore.ZeroCoef>
-5.4800

> <Gold.Chemscore.Hbond>
1.9386

> <Gold.Chemscore.Metal>
0.0000

> <Gold.Chemscore.Lipo>
68.9980

> <Gold.Chemscore.Internal_Hbond>
0.0000

> <Gold.Chemscore.DEClash>
1.5035

> <Gold.Chemscore.DEInternal>
2.8096

> <Gold.Chemscore.Rot>
1.2615

> <Gold.Chemscore.Internal.Correction>
   9.000000E+99

> <Gold.Chemscore.Hbonds>
donor molecule, donor type, donor heavy atom, donor atom, acceptor molecule, acceptor atom, score
      L1  H     5    26       P1  7948  1.00
      L1  H     8    27       P1  7948  0.91

> <Gold.Chemscore.Hbond.Weighted>
-6.4750

> <Gold.Chemscore.Metal.Weighted>
-0.0000

> <Gold.Chemscore.Lipo.Weighted>
-8.0728

> <Gold.Chemscore.Internal_Hbond.Weighted>
0.0000

> <Gold.Chemscore.DEClash.Weighted>
1.5035

> <Gold.Chemscore.DEInternal.Weighted>
2.8096

> <Gold.Chemscore.Rot.Weighted>
3.2295

> <Gold.Chemscore.Internal.Correction.Weighted>
   9.000000E+99

> <Gold.Protein.RotatedTorsions>
[ 6907 6896 6895 6894 ] final  -58.35 input  -60.11 | X-H torsion
[ 7974 7965 7964 7962 ] final  -72.31 input  175.53 | X-H torsion
[ 8008 7997 7996 7995 ] final   71.88 input   59.86 | X-H torsion
[ 10167 10162 10161 10158 ] final -103.97 input  -65.29 | X-H torsion
[ 10718 10713 10712 10709 ] final   41.72 input   66.30 | X-H torsion
[ 10763 10752 10751 10750 ] final   42.28 input  -60.55 | X-H torsion
[ 11005 11000 10999 10996 ] final  -54.89 input  -57.11 | X-H torsion

> <Gold.Protein.ActiveResidues>
 VAL166  LYS551  ARG553  GLY616  TRP617  ASP618  TYR619  PRO620  LYS621  CYS622 
 ASP623  PHE694  ASN695  SER759  ASP760  ASP761  ALA762  ILE779  LEU786  VAL792 
 PHE793  MET794  SER795  GLU796  ALA797  LYS798  CYS799  TRP800  GLU811  SER814 

> <Gold.Protein.RotatedAtoms>
  150.8014  134.7109  159.6603 H   0  0  0  0  0  0  0  0  0  0  0  0  # atno 6907 bound_to 6896
  152.4131  134.6087  160.0029 H   0  0  0  0  0  0  0  0  0  0  0  0  # atno 6908 bound_to 6896
  151.6324  133.3294  159.3148 H   0  0  0  0  0  0  0  0  0  0  0  0  # atno 6909 bound_to 6896
  145.6668  140.9234  143.0904 H   0  0  0  0  0  0  0  0  0  0  0  0  # atno 7974 bound_to 7965
  155.7604  140.3486  155.5195 H   0  0  0  0  0  0  0  0  0  0  0  0  # atno 8008 bound_to 7997
  155.8919  140.1019  157.1433 H   0  0  0  0  0  0  0  0  0  0  0  0  # atno 8009 bound_to 7997
  154.4034  140.1302  156.4313 H   0  0  0  0  0  0  0  0  0  0  0  0  # atno 8010 bound_to 7997
  140.2143  143.3723  152.1024 H   0  0  0  0  0  0  0  0  0  0  0  0  # atno 10167 bound_to 10162
  157.3968  130.7837  149.7315 H   0  0  0  0  0  0  0  0  0  0  0  0  # atno 10718 bound_to 10713
  152.9887  135.6136  154.2923 H   0  0  0  0  0  0  0  0  0  0  0  0  # atno 10763 bound_to 10752
  154.2648  135.2781  155.2765 H   0  0  0  0  0  0  0  0  0  0  0  0  # atno 10764 bound_to 10752
  154.5174  135.5824  153.6710 H   0  0  0  0  0  0  0  0  0  0  0  0  # atno 10765 bound_to 10752
  141.1047  133.6614  156.4387 H   0  0  0  0  0  0  0  0  0  0  0  0  # atno 11005 bound_to 11000
  144.7070  139.8520  143.7427 LP  0  0  0  0  0  0  0  0  0  0  0  0  # atno 17320 bound_to 7965
  146.1079  139.4081  143.0306 LP  0  0  0  0  0  0  0  0  0  0  0  0  # atno 17321 bound_to 7965
  139.5168  144.6982  151.5568 LP  0  0  0  0  0  0  0  0  0  0  0  0  # atno 17342 bound_to 10162
  140.6301  143.9093  150.6598 LP  0  0  0  0  0  0  0  0  0  0  0  0  # atno 17343 bound_to 10162
  155.9812  130.4021  150.3483 LP  0  0  0  0  0  0  0  0  0  0  0  0  # atno 17370 bound_to 10713
  157.1606  131.0344  151.2843 LP  0  0  0  0  0  0  0  0  0  0  0  0  # atno 17371 bound_to 10713
  140.4932  134.6556  157.5219 LP  0  0  0  0  0  0  0  0  0  0  0  0  # atno 17394 bound_to 11000
  139.9913  134.6981  155.9685 LP  0  0  0  0  0  0  0  0  0  0  0  0  # atno 17395 bound_to 11000

$$$$
