AV-unprocessed.smi:37|AV-procd|sdf|305|dock5
  -GOLD-   2262016113D 1   1.00000     0.00000
 Structure written by MMmdl.
 44 45  0  0  0  0  0  0  0  0  1 V2000
  148.5500  137.0210  158.8007 C   0  0  0  0  0  0  0  0  0  0  0  0
  147.2045  137.0948  158.0662 C   0  0  0  0  0  0  0  0  0  0  0  0
  146.2533  138.1109  158.6954 C   0  0  0  0  0  0  0  0  0  0  0  0
  145.8484  137.9806  159.8504 O   0  0  0  0  0  0  0  0  0  0  0  0
  145.9253  139.1041  157.8548 O   0  0  0  0  0  0  0  0  0  0  0  0
  144.7453  139.8572  158.0806 C   0  0  0  0  0  0  0  0  0  0  0  0
  144.6801  141.0057  157.0666 C   0  0  2  0  0  0  0  0  0  0  0  0
  145.0486  140.5618  155.7603 O   0  0  0  0  0  0  0  0  0  0  0  0
  145.8131  141.5362  155.1064 C   0  0  2  0  0  0  0  0  0  0  0  0
  147.2270  141.0271  154.9083 N   0  0  0  0  0  0  0  0  0  0  0  0
  148.3301  141.6412  155.4902 C   0  0  0  0  0  0  0  0  0  0  0  0
  149.5982  141.2007  155.3123 C   0  0  0  0  0  0  0  0  0  0  0  0
  150.6146  141.8478  155.9074 F   0  0  0  0  0  0  0  0  0  0  0  0
  149.8724  140.0333  154.4800 C   0  0  0  0  0  0  0  0  0  0  0  0
  150.9855  139.5605  154.2595 O   0  0  0  0  0  0  0  0  0  0  0  0
  148.7357  139.4495  153.9136 N   0  0  0  0  0  0  0  0  0  0  0  0
  147.4243  139.8939  154.0876 C   0  0  0  0  0  0  0  0  0  0  0  0
  146.4967  139.3074  153.5314 O   0  0  0  0  0  0  0  0  0  0  0  0
  145.8237  142.7798  156.0012 C   0  0  1  0  0  0  0  0  0  0  0  0
  144.2811  143.9487  155.5127 Br  0  0  0  0  0  0  0  0  0  0  0  0
  145.6272  142.1639  157.3758 C   0  0  1  0  0  0  0  0  0  0  0  0
  145.0619  143.0701  158.3130 O   0  0  0  0  0  0  0  0  0  0  0  0
  145.2481  142.8847  159.6307 C   0  0  0  0  0  0  0  0  0  0  0  0
  145.9026  141.9792  160.1478 O   0  0  0  0  0  0  0  0  0  0  0  0
  144.5528  143.9486  160.4759 C   0  0  0  0  0  0  0  0  0  0  0  0
  144.8585  143.7870  161.9713 C   0  0  0  0  0  0  0  0  0  0  0  0
  148.8765  138.6397  153.3269 H   0  0  0  0  0  0  0  0  0  0  0  0
  149.1876  136.2568  158.3561 H   0  0  0  0  0  0  0  0  0  0  0  0
  148.4146  136.7676  159.8526 H   0  0  0  0  0  0  0  0  0  0  0  0
  149.0881  137.9681  158.7485 H   0  0  0  0  0  0  0  0  0  0  0  0
  147.3622  137.3605  157.0210 H   0  0  0  0  0  0  0  0  0  0  0  0
  146.7265  136.1150  158.0731 H   0  0  0  0  0  0  0  0  0  0  0  0
  143.8671  139.2164  157.9959 H   0  0  0  0  0  0  0  0  0  0  0  0
  144.7646  140.2581  159.0947 H   0  0  0  0  0  0  0  0  0  0  0  0
  143.6555  141.3744  156.9930 H   0  0  0  0  0  0  0  0  0  0  0  0
  145.4198  141.7076  154.1025 H   0  0  0  0  0  0  0  0  0  0  0  0
  148.1984  142.5103  156.1148 H   0  0  0  0  0  0  0  0  0  0  0  0
  146.7393  143.3643  155.9053 H   0  0  0  0  0  0  0  0  0  0  0  0
  146.5739  141.7563  157.7357 H   0  0  0  0  0  0  0  0  0  0  0  0
  144.8725  144.9341  160.1362 H   0  0  0  0  0  0  0  0  0  0  0  0
  143.4777  143.8876  160.3049 H   0  0  0  0  0  0  0  0  0  0  0  0
  144.3862  144.5817  162.5485 H   0  0  0  0  0  0  0  0  0  0  0  0
  145.9311  143.8316  162.1635 H   0  0  0  0  0  0  0  0  0  0  0  0
  144.4868  142.8362  162.3548 H   0  0  0  0  0  0  0  0  0  0  0  0
  1  2  1  0  0  0  0
  1 28  1  0  0  0  0
  1 29  1  0  0  0  0
  1 30  1  0  0  0  0
  2  3  1  0  0  0  0
  2 31  1  0  0  0  0
  2 32  1  0  0  0  0
  3  4  2  0  0  0  0
  3  5  1  0  0  0  0
  5  6  1  0  0  0  0
  6  7  1  0  0  0  0
  6 33  1  0  0  0  0
  6 34  1  0  0  0  0
  7 21  1  0  0  0  0
  7  8  1  0  0  0  0
  7 35  1  0  0  0  0
  8  9  1  0  0  0  0
  9 10  1  0  0  0  0
  9 19  1  0  0  0  0
  9 36  1  0  0  0  0
 10 17  1  0  0  0  0
 10 11  1  0  0  0  0
 11 12  2  0  0  0  0
 11 37  1  0  0  0  0
 12 13  1  0  0  0  0
 12 14  1  0  0  0  0
 14 15  2  0  0  0  0
 14 16  1  0  0  0  0
 16 27  1  0  0  0  0
 16 17  1  0  0  0  0
 17 18  2  0  0  0  0
 19 20  1  0  0  0  0
 19 21  1  0  0  0  0
 19 38  1  0  0  0  0
 21 22  1  0  0  0  0
 21 39  1  0  0  0  0
 22 23  1  0  0  0  0
 23 24  2  0  0  0  0
 23 25  1  0  0  0  0
 25 26  1  0  0  0  0
 25 40  1  0  0  0  0
 25 41  1  0  0  0  0
 26 42  1  0  0  0  0
 26 43  1  0  0  0  0
 26 44  1  0  0  0  0
M  END
> <s_m_source_file>
AV-unprocessed.smi

> <i_m_source_file_index>
37

> <i_lp_mmshare_version>
43012

> <i_f3d_flags>
0

> <s_epik_input>
W0NIM11bQ0gyXUMoPU8pT1tDSDJdW0NAQEhdMU9bQ0BASF0objJbY0hdYyhGKWMoPU8pW25IXWMyPU8pW0NAQEhdKEJyKVtDQEhdMU9DKD1PKVtDSDJdW0NIM10=

> <s_epik_cmdline>
J2VwaWtfcHl0aG9uJywgJy1waCcsICc3LjAnLCAnLXRuJywgJzgnLCAnLW1hJywgJzIwMCcsICctbWV0YWxfYmluZGluZycsICctaW1hZScsICc8aW5maWxlLm1hZT4nLCAnLW9tYWUnLCAnPG91dGZpbGUubWFlPic=

> <r_lp_tautomer_probability>
0.999537

> <r_epik_Ionization_Penalty>
0.104106

> <r_epik_Ionization_Penalty_Charging>
0.104106

> <r_epik_Ionization_Penalty_Neutral>
3.94675e-16

> <r_epik_State_Penalty>
0.0940182

> <r_epik_Charging_Adjusted_Penalty>
0.198124

> <i_epik_Tot_Q>
0

> <i_epik_Tot_abs_Q>
0

> <r_epik_Metal_State_Penalty>
3.05314

> <b_epik_Metal_Only>
0

> <s_epik_Chemistry_Notes>
This compound has an ester and may undergo hydrolysis at high or low pH. This compound contains an acetal/aminal-like group ( X-CH(R)-Y where X, Y are N, S, or O) that may be acid/base labile, releasing an aldehyde.

> <s_lp_Force_Field>
OPLS_2005

> <r_lp_Energy>
22.9743

> <b_lp_Chiralities_Consistent>
1

> <s_lp_Variant>
AV-unprocessed.smi:37-3

> <Gold.Version>
5.8.1

> <Gold.Id.Protein>
6NUR|6NUR_protein|mol2

> <Gold.PLP.Fitness>
37.6676

> <Gold.PLP.PLP>
-27.9676

> <Gold.PLP.part.hbond>
-4.0000

> <Gold.PLP.part.metal>
0.0000

> <Gold.PLP.part.buried>
-3.3455

> <Gold.PLP.part.nonpolar>
-20.8696

> <Gold.PLP.part.repulsive>
0.5764

> <Gold.PLP.ligand.clash>
0.0000

> <Gold.PLP.ligand.torsion>
0.7708

> <Gold.PLP.Chemscore.Hbond>
2.7320

> <Gold.PLP.Chemscore.CHOScore>
0.9474

> <Gold.PLP.Chemscore.Metal>
0.0000

> <Gold.Chemscore.Hbonds>
donor molecule, donor type, donor heavy atom, donor atom, acceptor molecule, acceptor atom, score
      P1  H  6934  6946       L1    24  1.00
      P1  H  6934  6947       L1     4  0.85
      P1  H  7989  7998       L1    15  0.90
      L1  C    11    37       P1  8028  0.95

> <Gold.PLP.Chemscore.Internal.Correction>
0.2034

> <Gold.Rescore>
     Score         DG    S(hbond)    S(metal)    S(lipo)     H(rot)  DE(clash)    DE(int)     intcor
      8.00      -9.53       2.60        0.00      33.11       3.33       0.30       1.23       ----

> <Gold.Chemscore.Fitness>
7.9978

> <Gold.Chemscore.DG>
-9.5281

> <Gold.Chemscore.ZeroCoef>
-5.4800

> <Gold.Chemscore.Hbond>
2.6047

> <Gold.Chemscore.Metal>
0.0000

> <Gold.Chemscore.Lipo>
33.1101

> <Gold.Chemscore.Internal_Hbond>
0.0000

> <Gold.Chemscore.DEClash>
0.2956

> <Gold.Chemscore.DEInternal>
1.2347

> <Gold.Chemscore.Rot>
3.3303

> <Gold.Chemscore.Internal.Correction>
   9.000000E+99

> <Gold.Chemscore.Hbonds>
donor molecule, donor type, donor heavy atom, donor atom, acceptor molecule, acceptor atom, score
      P1  H  6934  6946       L1    24  0.99
      P1  H  6934  6947       L1     4  0.32
      P1  H  7989  7998       L1    15  0.18

> <Gold.Chemscore.Hbond.Weighted>
-8.6998

> <Gold.Chemscore.Metal.Weighted>
-0.0000

> <Gold.Chemscore.Lipo.Weighted>
-3.8739

> <Gold.Chemscore.Internal_Hbond.Weighted>
0.0000

> <Gold.Chemscore.DEClash.Weighted>
0.2956

> <Gold.Chemscore.DEInternal.Weighted>
1.2347

> <Gold.Chemscore.Rot.Weighted>
8.5256

> <Gold.Chemscore.Internal.Correction.Weighted>
   9.000000E+99

> <Gold.Protein.RotatedTorsions>
[ 6907 6896 6895 6894 ] final   73.12 input  -60.11 | X-H torsion
[ 7974 7965 7964 7962 ] final   39.22 input  175.53 | X-H torsion
[ 8008 7997 7996 7995 ] final  -61.40 input   59.86 | X-H torsion
[ 10167 10162 10161 10158 ] final  -27.45 input  -65.29 | X-H torsion
[ 10718 10713 10712 10709 ] final  137.64 input   66.30 | X-H torsion
[ 10763 10752 10751 10750 ] final  -22.76 input  -60.55 | X-H torsion
[ 11005 11000 10999 10996 ] final   73.49 input  -57.11 | X-H torsion

> <Gold.Protein.ActiveResidues>
 VAL166  LYS551  ARG553  GLY616  TRP617  ASP618  TYR619  PRO620  LYS621  CYS622 
 ASP623  PHE694  ASN695  SER759  ASP760  ASP761  ALA762  ILE779  LEU786  VAL792 
 PHE793  MET794  SER795  GLU796  ALA797  LYS798  CYS799  TRP800  GLU811  SER814 

> <Gold.Protein.RotatedAtoms>
  152.4906  134.4470  159.9561 H   0  0  0  0  0  0  0  0  0  0  0  0  # atno 6907 bound_to 6896
  151.4458  133.3625  159.2796 H   0  0  0  0  0  0  0  0  0  0  0  0  # atno 6908 bound_to 6896
  150.9056  134.8495  159.7450 H   0  0  0  0  0  0  0  0  0  0  0  0  # atno 6909 bound_to 6896
  146.1001  139.5678  142.9420 H   0  0  0  0  0  0  0  0  0  0  0  0  # atno 7974 bound_to 7965
  154.4446  140.1018  156.6424 H   0  0  0  0  0  0  0  0  0  0  0  0  # atno 8008 bound_to 7997
  155.5487  140.3485  155.4445 H   0  0  0  0  0  0  0  0  0  0  0  0  # atno 8009 bound_to 7997
  156.0545  140.1311  157.0002 H   0  0  0  0  0  0  0  0  0  0  0  0  # atno 8010 bound_to 7997
  140.7277  143.4092  151.1133 H   0  0  0  0  0  0  0  0  0  0  0  0  # atno 10167 bound_to 10162
  157.4339  131.1051  151.0220 H   0  0  0  0  0  0  0  0  0  0  0  0  # atno 10718 bound_to 10713
  153.6571  135.6978  153.5190 H   0  0  0  0  0  0  0  0  0  0  0  0  # atno 10763 bound_to 10752
  153.2661  135.4229  155.0941 H   0  0  0  0  0  0  0  0  0  0  0  0  # atno 10764 bound_to 10752
  154.8461  135.3567  154.6115 H   0  0  0  0  0  0  0  0  0  0  0  0  # atno 10765 bound_to 10752
  139.9437  134.7351  156.1033 H   0  0  0  0  0  0  0  0  0  0  0  0  # atno 11005 bound_to 11000
  145.5871  141.0375  143.2090 LP  0  0  0  0  0  0  0  0  0  0  0  0  # atno 17320 bound_to 7965
  144.7426  139.7407  143.7305 LP  0  0  0  0  0  0  0  0  0  0  0  0  # atno 17321 bound_to 7965
  139.7723  143.8476  152.3123 LP  0  0  0  0  0  0  0  0  0  0  0  0  # atno 17342 bound_to 10162
  139.8398  144.7215  150.9345 LP  0  0  0  0  0  0  0  0  0  0  0  0  # atno 17343 bound_to 10162
  157.1107  130.6020  149.5481 LP  0  0  0  0  0  0  0  0  0  0  0  0  # atno 17370 bound_to 10713
  155.9923  130.4980  150.7335 LP  0  0  0  0  0  0  0  0  0  0  0  0  # atno 17371 bound_to 10713
  141.1081  133.6653  156.2912 LP  0  0  0  0  0  0  0  0  0  0  0  0  # atno 17394 bound_to 11000
  140.5887  134.5673  157.5495 LP  0  0  0  0  0  0  0  0  0  0  0  0  # atno 17395 bound_to 11000

$$$$
