AV-unprocessed.smi:2083|AV-procd|sdf|8498|dock1
  -GOLD-   2272011203D 1   1.00000     0.00000
 Structure written by MMmdl.
 44 45  0  0  0  0  0  0  0  0  3 V2000
  146.7009  133.8602  162.5814 C   0  0  0  0  0  0  0  0  0  0  0  0
  147.1284  134.9744  161.6882 C   0  0  0  0  0  0  0  0  0  0  0  0
  147.7549  135.0022  160.4746 C   0  0  0  0  0  0  0  0  0  0  0  0
  147.8535  136.3918  160.1911 C   0  0  0  0  0  0  0  0  0  0  0  0
  148.4167  136.9397  159.1032 N   0  5  0  0  0  0  0  0  0  0  0  0
  148.6818  136.1812  158.0156 C   0  0  0  0  0  0  0  0  0  0  0  0
  149.4067  135.1847  157.9737 O   0  0  0  0  0  0  0  0  0  0  0  0
  148.0668  136.6050  156.9041 N   0  0  0  0  0  0  0  0  0  0  0  0
  148.1606  135.9738  155.5932 C   0  0  0  0  0  0  0  0  0  0  0  0
  146.8971  136.2283  154.7372 C   0  0  2  0  0  0  0  0  0  0  0  0
  145.6232  136.0782  155.6055 C   0  0  0  0  0  0  0  0  0  0  0  0
  146.9199  135.3429  153.5262 N   0  3  1  0  0  0  0  0  0  0  0  0
  147.2378  133.9055  153.7704 C   0  0  0  0  0  0  0  0  0  0  0  0
  147.3675  133.1244  152.4523 C   0  0  0  0  0  0  0  0  0  0  0  0
  146.1024  133.2556  151.5997 C   0  0  0  0  0  0  0  0  0  0  0  0
  145.7817  134.7390  151.3655 C   0  0  1  0  0  0  0  0  0  0  0  0
  144.5058  134.9090  150.5286 C   0  0  0  0  0  0  0  0  0  0  0  0
  145.6750  135.4759  152.7152 C   0  0  0  0  0  0  0  0  0  0  0  0
  147.3457  137.1413  161.1548 N   0  0  0  0  0  0  0  0  0  0  0  0
  146.8733  136.2399  162.1161 O   0  0  0  0  0  0  0  0  0  0  0  0
  147.5602  133.2688  162.8979 H   0  0  0  0  0  0  0  0  0  0  0  0
  146.0057  133.1981  162.0653 H   0  0  0  0  0  0  0  0  0  0  0  0
  146.2050  134.2399  163.4750 H   0  0  0  0  0  0  0  0  0  0  0  0
  148.0869  134.1633  159.8818 H   0  0  0  0  0  0  0  0  0  0  0  0
  147.4820  137.4243  156.9815 H   0  0  0  0  0  0  0  0  0  0  0  0
  149.0588  136.3577  155.1113 H   0  0  0  0  0  0  0  0  0  0  0  0
  148.3060  134.8988  155.7146 H   0  0  0  0  0  0  0  0  0  0  0  0
  146.9146  137.2636  154.3920 H   0  0  0  0  0  0  0  0  0  0  0  0
  145.6514  136.7290  156.4794 H   0  0  0  0  0  0  0  0  0  0  0  0
  145.5046  135.0566  155.9683 H   0  0  0  0  0  0  0  0  0  0  0  0
  144.7214  136.3573  155.0606 H   0  0  0  0  0  0  0  0  0  0  0  0
  148.1874  133.7990  154.2933 H   0  0  0  0  0  0  0  0  0  0  0  0
  146.4661  133.4607  154.4010 H   0  0  0  0  0  0  0  0  0  0  0  0
  148.2267  133.4950  151.8915 H   0  0  0  0  0  0  0  0  0  0  0  0
  147.5666  132.0729  152.6613 H   0  0  0  0  0  0  0  0  0  0  0  0
  146.2409  132.7410  150.6481 H   0  0  0  0  0  0  0  0  0  0  0  0
  145.2670  132.7657  152.1020 H   0  0  0  0  0  0  0  0  0  0  0  0
  146.6051  135.1812  150.8024 H   0  0  0  0  0  0  0  0  0  0  0  0
  143.6372  134.4904  151.0381 H   0  0  0  0  0  0  0  0  0  0  0  0
  144.5989  134.4079  149.5646 H   0  0  0  0  0  0  0  0  0  0  0  0
  144.3013  135.9620  150.3332 H   0  0  0  0  0  0  0  0  0  0  0  0
  144.8306  135.0867  153.2867 H   0  0  0  0  0  0  0  0  0  0  0  0
  145.4562  136.5248  152.5207 H   0  0  0  0  0  0  0  0  0  0  0  0
  147.6767  135.6896  152.9541 H   0  0  0  0  0  0  0  0  0  0  0  0
  1  2  1  0  0  0  0
  1 21  1  0  0  0  0
  1 22  1  0  0  0  0
  1 23  1  0  0  0  0
  2 20  1  0  0  0  0
  2  3  2  0  0  0  0
  3  4  1  0  0  0  0
  3 24  1  0  0  0  0
  4  5  1  0  0  0  0
  4 19  2  0  0  0  0
  5  6  1  0  0  0  0
  6  7  2  0  0  0  0
  6  8  1  0  0  0  0
  8  9  1  0  0  0  0
  8 25  1  0  0  0  0
  9 10  1  0  0  0  0
  9 26  1  0  0  0  0
  9 27  1  0  0  0  0
 10 11  1  0  0  0  0
 10 12  1  0  0  0  0
 10 28  1  0  0  0  0
 11 29  1  0  0  0  0
 11 30  1  0  0  0  0
 11 31  1  0  0  0  0
 12 18  1  0  0  0  0
 12 13  1  0  0  0  0
 12 44  1  0  0  0  0
 13 14  1  0  0  0  0
 13 32  1  0  0  0  0
 13 33  1  0  0  0  0
 14 15  1  0  0  0  0
 14 34  1  0  0  0  0
 14 35  1  0  0  0  0
 15 16  1  0  0  0  0
 15 36  1  0  0  0  0
 15 37  1  0  0  0  0
 16 17  1  0  0  0  0
 16 18  1  0  0  0  0
 16 38  1  0  0  0  0
 17 39  1  0  0  0  0
 17 40  1  0  0  0  0
 17 41  1  0  0  0  0
 18 42  1  0  0  0  0
 18 43  1  0  0  0  0
 19 20  1  0  0  0  0
M  CHG  1   5  -1
M  CHG  1  12   1
M  END
> <s_m_source_file>
AV-unprocessed.smi

> <i_m_source_file_index>
2083

> <i_lp_mmshare_version>
43012

> <i_f3d_flags>
0

> <s_epik_input>
W0NIM11jMVtjSF1jKG5vMSlbTkhdQyg9TylbTkhdW0NIMl1bQ0BIXShbQ0gzXSlOMltDSDJdW0NIMl1bQ0gyXVtDQEBIXShbQ0gzXSlbQ0gyXTI=

> <s_epik_cmdline>
J2VwaWtfcHl0aG9uJywgJy1waCcsICc3LjAnLCAnLXRuJywgJzgnLCAnLW1hJywgJzIwMCcsICctbWV0YWxfYmluZGluZycsICctaW1hZScsICc8aW5maWxlLm1hZT4nLCAnLW9tYWUnLCAnPG91dGZpbGUubWFlPic=

> <r_epik_Ionization_Penalty>
6.22434

> <r_epik_Ionization_Penalty_Charging>
6.22425

> <r_epik_Ionization_Penalty_Neutral>
9.62407e-05

> <r_epik_State_Penalty>
6.22423

> <r_epik_Charging_Adjusted_Penalty>
12.4485

> <i_epik_Tot_Q>
0

> <i_epik_Tot_abs_Q>
2

> <r_epik_Metal_State_Penalty>
2.16764

> <b_epik_Metal_Only>
1

> <s_lp_Force_Field>
OPLS_2005

> <r_lp_Energy>
12.4443

> <b_lp_Chiralities_Consistent>
1

> <s_lp_Variant>
AV-unprocessed.smi:2083-9

> <Gold.Version>
5.8.1

> <Gold.Id.Protein>
6NUR|6NUR_protein|mol2

> <Gold.PLP.Fitness>
42.1578

> <Gold.PLP.PLP>
-29.5315

> <Gold.PLP.part.hbond>
-4.0000

> <Gold.PLP.part.metal>
0.0000

> <Gold.PLP.part.buried>
-3.5107

> <Gold.PLP.part.nonpolar>
-21.5575

> <Gold.PLP.part.repulsive>
0.0000

> <Gold.PLP.ligand.clash>
0.0000

> <Gold.PLP.ligand.torsion>
1.0187

> <Gold.PLP.Chemscore.Hbond>
4.8240

> <Gold.PLP.Chemscore.CHOScore>
0.0000

> <Gold.PLP.Chemscore.Metal>
0.0000

> <Gold.Chemscore.Hbonds>
donor molecule, donor type, donor heavy atom, donor atom, acceptor molecule, acceptor atom, score
      L1  H    12    44       P1  7948  2.00
      P1  H  6896  6907       L1     7  0.69
      P1  H  6931  6943       L1    19  0.61
      P1  H  6934  6947       L1    19  1.00

> <Gold.PLP.Chemscore.Internal.Correction>
0.1918

> <Gold.Rescore>
     Score         DG    S(hbond)    S(metal)    S(lipo)     H(rot)  DE(clash)    DE(int)     intcor
     16.83     -18.13       2.96        0.00      56.85       1.52       0.01       1.29       ----

> <Gold.Chemscore.Fitness>
16.8250

> <Gold.Chemscore.DG>
-18.1274

> <Gold.Chemscore.ZeroCoef>
-5.4800

> <Gold.Chemscore.Hbond>
2.9595

> <Gold.Chemscore.Metal>
0.0000

> <Gold.Chemscore.Lipo>
56.8487

> <Gold.Chemscore.Internal_Hbond>
0.0000

> <Gold.Chemscore.DEClash>
0.0126

> <Gold.Chemscore.DEInternal>
1.2897

> <Gold.Chemscore.Rot>
1.5190

> <Gold.Chemscore.Internal.Correction>
   9.000000E+99

> <Gold.Chemscore.Hbonds>
donor molecule, donor type, donor heavy atom, donor atom, acceptor molecule, acceptor atom, score
      L1  H    12    44       P1  7948  1.00
      P1  H  6896  6907       L1     7  0.65
      P1  H  6931  6943       L1    19  0.23
      P1  H  6934  6947       L1    19  0.95

> <Gold.Chemscore.Hbond.Weighted>
-9.8847

> <Gold.Chemscore.Metal.Weighted>
-0.0000

> <Gold.Chemscore.Lipo.Weighted>
-6.6513

> <Gold.Chemscore.Internal_Hbond.Weighted>
0.0000

> <Gold.Chemscore.DEClash.Weighted>
0.0126

> <Gold.Chemscore.DEInternal.Weighted>
1.2897

> <Gold.Chemscore.Rot.Weighted>
3.8886

> <Gold.Chemscore.Internal.Correction.Weighted>
   9.000000E+99

> <Gold.Protein.RotatedTorsions>
[ 6907 6896 6895 6894 ] final  -99.57 input  -60.11 | X-H torsion
[ 7974 7965 7964 7962 ] final   61.73 input  175.53 | X-H torsion
[ 8008 7997 7996 7995 ] final  153.98 input   59.86 | X-H torsion
[ 10167 10162 10161 10158 ] final   65.78 input  -65.29 | X-H torsion
[ 10718 10713 10712 10709 ] final  131.37 input   66.30 | X-H torsion
[ 10763 10752 10751 10750 ] final  -65.90 input  -60.55 | X-H torsion
[ 11005 11000 10999 10996 ] final   36.37 input  -57.11 | X-H torsion

> <Gold.Protein.ActiveResidues>
 VAL166  LYS551  ARG553  GLY616  TRP617  ASP618  TYR619  PRO620  LYS621  CYS622 
 ASP623  PHE694  ASN695  SER759  ASP760  ASP761  ALA762  ILE779  LEU786  VAL792 
 PHE793  MET794  SER795  GLU796  ALA797  LYS798  CYS799  TRP800  GLU811  SER814 

> <Gold.Protein.RotatedAtoms>
  150.7084  134.1021  159.3969 H   0  0  0  0  0  0  0  0  0  0  0  0  # atno 6907 bound_to 6896
  151.9007  135.0377  160.0515 H   0  0  0  0  0  0  0  0  0  0  0  0  # atno 6908 bound_to 6896
  152.2416  133.5105  159.5310 H   0  0  0  0  0  0  0  0  0  0  0  0  # atno 6909 bound_to 6896
  145.8815  139.3446  143.0703 H   0  0  0  0  0  0  0  0  0  0  0  0  # atno 7974 bound_to 7965
  156.2555  140.1979  156.6574 H   0  0  0  0  0  0  0  0  0  0  0  0  # atno 8008 bound_to 7997
  154.6490  140.0574  156.9959 H   0  0  0  0  0  0  0  0  0  0  0  0  # atno 8009 bound_to 7997
  155.1447  140.3246  155.4447 H   0  0  0  0  0  0  0  0  0  0  0  0  # atno 8010 bound_to 7997
  140.1075  144.4848  150.6998 H   0  0  0  0  0  0  0  0  0  0  0  0  # atno 10167 bound_to 10162
  157.4973  131.1093  150.9475 H   0  0  0  0  0  0  0  0  0  0  0  0  # atno 10718 bound_to 10713
  154.3519  135.6134  153.5647 H   0  0  0  0  0  0  0  0  0  0  0  0  # atno 10763 bound_to 10752
  152.9798  135.5794  154.4733 H   0  0  0  0  0  0  0  0  0  0  0  0  # atno 10764 bound_to 10752
  154.4455  135.2851  155.1795 H   0  0  0  0  0  0  0  0  0  0  0  0  # atno 10765 bound_to 10752
  140.2332  134.3502  155.7955 H   0  0  0  0  0  0  0  0  0  0  0  0  # atno 11005 bound_to 11000
  145.9018  140.9238  143.0499 LP  0  0  0  0  0  0  0  0  0  0  0  0  # atno 17320 bound_to 7965
  144.6727  140.1043  143.7459 LP  0  0  0  0  0  0  0  0  0  0  0  0  # atno 17321 bound_to 7965
  140.6944  143.2395  151.5043 LP  0  0  0  0  0  0  0  0  0  0  0  0  # atno 17342 bound_to 10162
  139.5637  144.2094  152.1732 LP  0  0  0  0  0  0  0  0  0  0  0  0  # atno 17343 bound_to 10162
  157.0157  130.5654  149.5325 LP  0  0  0  0  0  0  0  0  0  0  0  0  # atno 17370 bound_to 10713
  156.0208  130.5303  150.8270 LP  0  0  0  0  0  0  0  0  0  0  0  0  # atno 17371 bound_to 10713
  141.2216  133.7257  156.8766 LP  0  0  0  0  0  0  0  0  0  0  0  0  # atno 17394 bound_to 11000
  140.1728  134.9088  157.2855 LP  0  0  0  0  0  0  0  0  0  0  0  0  # atno 17395 bound_to 11000

$$$$
