AV-unprocessed.smi:1005|AV-procd|sdf|4369|dock10
  -GOLD-   22720 2283D 1   1.00000     0.00000
 Structure written by MMmdl.
 57 59  0  0  0  0  0  0  0  0  3 V2000
  153.5475  143.2707  162.8107 C   0  0  0  0  0  0  0  0  0  0  0  0
  153.0713  142.8159  161.4424 C   0  0  0  0  0  0  0  0  0  0  0  0
  152.3551  143.7219  160.6282 C   0  0  0  0  0  0  0  0  0  0  0  0
  151.8941  143.3381  159.3501 C   0  0  0  0  0  0  0  0  0  0  0  0
  151.1883  144.0524  158.3971 N   0  0  0  0  0  0  0  0  0  0  0  0
  151.0598  143.1521  157.4274 C   0  0  0  0  0  0  0  0  0  0  0  0
  151.6021  141.9374  157.6378 N   0  0  0  0  0  0  0  0  0  0  0  0
  151.5883  140.8066  156.7271 C   0  0  0  0  0  0  0  0  0  0  0  0
  150.5332  140.9607  155.6153 C   0  0  1  0  0  0  0  0  0  0  0  0
  150.7360  139.9625  154.6335 O   0  0  0  0  0  0  0  0  0  0  0  0
  149.0997  140.8224  156.1646 C   0  0  0  0  0  0  0  0  0  0  0  0
  148.1376  140.3606  155.1277 N   0  3  2  0  0  0  0  0  0  0  0  0
  148.0956  141.1976  153.9018 C   0  0  0  0  0  0  0  0  0  0  0  0
  147.2714  142.4803  154.1224 C   0  0  0  0  0  0  0  0  0  0  0  0
  145.9722  142.1432  154.5940 O   0  0  0  0  0  0  0  0  0  0  0  0
  146.0011  141.4538  155.8400 C   0  0  1  0  0  0  0  0  0  0  0  0
  144.5450  141.2063  156.2787 C   0  0  0  0  0  0  0  0  0  0  0  0
  143.5557  141.5212  155.2154 N   0  3  0  0  0  0  0  0  0  0  0  0
  143.3710  142.9741  154.9918 C   0  0  0  0  0  0  0  0  0  0  0  0
  142.2612  140.8409  155.4439 C   0  0  0  0  0  0  0  0  0  0  0  0
  146.7663  140.1272  155.6440 C   0  0  0  0  0  0  0  0  0  0  0  0
  152.1689  142.0117  158.9059 C   0  0  0  0  0  0  0  0  0  0  0  0
  152.8806  141.1012  159.7067 C   0  0  0  0  0  0  0  0  0  0  0  0
  153.3360  141.5017  160.9802 C   0  0  0  0  0  0  0  0  0  0  0  0
  154.1064  140.5122  161.8363 C   0  0  0  0  0  0  0  0  0  0  0  0
  153.2950  144.3155  162.9935 H   0  0  0  0  0  0  0  0  0  0  0  0
  154.6299  143.1703  162.8930 H   0  0  0  0  0  0  0  0  0  0  0  0
  153.0828  142.6716  163.5942 H   0  0  0  0  0  0  0  0  0  0  0  0
  152.1538  144.7232  160.9797 H   0  0  0  0  0  0  0  0  0  0  0  0
  150.5436  143.3902  156.5086 H   0  0  0  0  0  0  0  0  0  0  0  0
  152.5853  140.6881  156.3004 H   0  0  0  0  0  0  0  0  0  0  0  0
  151.3913  139.9058  157.3098 H   0  0  0  0  0  0  0  0  0  0  0  0
  150.6687  141.9336  155.1433 H   0  0  0  0  0  0  0  0  0  0  0  0
  149.9091  139.7823  154.2112 H   0  0  0  0  0  0  0  0  0  0  0  0
  149.1180  140.1119  156.9927 H   0  0  0  0  0  0  0  0  0  0  0  0
  148.7640  141.7682  156.5900 H   0  0  0  0  0  0  0  0  0  0  0  0
  149.0983  141.4422  153.5532 H   0  0  0  0  0  0  0  0  0  0  0  0
  147.6336  140.6098  153.1074 H   0  0  0  0  0  0  0  0  0  0  0  0
  147.7622  143.1564  154.8233 H   0  0  0  0  0  0  0  0  0  0  0  0
  147.1716  143.0241  153.1828 H   0  0  0  0  0  0  0  0  0  0  0  0
  146.5175  142.0589  156.5852 H   0  0  0  0  0  0  0  0  0  0  0  0
  144.4487  140.1569  156.5618 H   0  0  0  0  0  0  0  0  0  0  0  0
  144.3100  141.7868  157.1721 H   0  0  0  0  0  0  0  0  0  0  0  0
  143.0045  143.4658  155.8938 H   0  0  0  0  0  0  0  0  0  0  0  0
  142.6474  143.1494  154.1949 H   0  0  0  0  0  0  0  0  0  0  0  0
  144.3005  143.4564  154.6925 H   0  0  0  0  0  0  0  0  0  0  0  0
  141.7996  141.1797  156.3726 H   0  0  0  0  0  0  0  0  0  0  0  0
  142.3949  139.7603  155.5018 H   0  0  0  0  0  0  0  0  0  0  0  0
  141.5688  141.0413  154.6255 H   0  0  0  0  0  0  0  0  0  0  0  0
  146.2350  139.5033  154.9238 H   0  0  0  0  0  0  0  0  0  0  0  0
  146.8016  139.5551  156.5721 H   0  0  0  0  0  0  0  0  0  0  0  0
  153.0769  140.1036  159.3431 H   0  0  0  0  0  0  0  0  0  0  0  0
  154.2040  139.5467  161.3391 H   0  0  0  0  0  0  0  0  0  0  0  0
  153.5966  140.3493  162.7862 H   0  0  0  0  0  0  0  0  0  0  0  0
  155.1100  140.8858  162.0410 H   0  0  0  0  0  0  0  0  0  0  0  0
  143.9217  141.1349  154.3565 H   0  0  0  0  0  0  0  0  0  0  0  0
  148.4839  139.4531  154.8477 H   0  0  0  0  0  0  0  0  0  0  0  0
  1  2  1  0  0  0  0
  1 26  1  0  0  0  0
  1 27  1  0  0  0  0
  1 28  1  0  0  0  0
  2 24  1  0  0  0  0
  2  3  2  0  0  0  0
  3  4  1  0  0  0  0
  3 29  1  0  0  0  0
  4 22  2  0  0  0  0
  4  5  1  0  0  0  0
  5  6  2  0  0  0  0
  6  7  1  0  0  0  0
  6 30  1  0  0  0  0
  7  8  1  0  0  0  0
  7 22  1  0  0  0  0
  8  9  1  0  0  0  0
  8 31  1  0  0  0  0
  8 32  1  0  0  0  0
  9 10  1  0  0  0  0
  9 11  1  0  0  0  0
  9 33  1  0  0  0  0
 10 34  1  0  0  0  0
 11 12  1  0  0  0  0
 11 35  1  0  0  0  0
 11 36  1  0  0  0  0
 12 21  1  0  0  0  0
 12 13  1  0  0  0  0
 12 57  1  0  0  0  0
 13 14  1  0  0  0  0
 13 37  1  0  0  0  0
 13 38  1  0  0  0  0
 14 15  1  0  0  0  0
 14 39  1  0  0  0  0
 14 40  1  0  0  0  0
 15 16  1  0  0  0  0
 16 17  1  0  0  0  0
 16 21  1  0  0  0  0
 16 41  1  0  0  0  0
 17 18  1  0  0  0  0
 17 42  1  0  0  0  0
 17 43  1  0  0  0  0
 18 19  1  0  0  0  0
 18 20  1  0  0  0  0
 18 56  1  0  0  0  0
 19 44  1  0  0  0  0
 19 45  1  0  0  0  0
 19 46  1  0  0  0  0
 20 47  1  0  0  0  0
 20 48  1  0  0  0  0
 20 49  1  0  0  0  0
 21 50  1  0  0  0  0
 21 51  1  0  0  0  0
 22 23  1  0  0  0  0
 23 24  2  0  0  0  0
 23 52  1  0  0  0  0
 24 25  1  0  0  0  0
 25 53  1  0  0  0  0
 25 54  1  0  0  0  0
 25 55  1  0  0  0  0
M  CHG  1  12   1
M  CHG  1  18   1
M  END
> <s_m_source_file>
AV-unprocessed.smi

> <i_m_source_file_index>
1005

> <i_lp_mmshare_version>
43012

> <i_f3d_flags>
0

> <s_epik_input>
W0NIM11jKFtjSF0xKWMoW0NIM10pW2NIXWMoYzEyKW4oW2NIXW4yKVtDSDJdW0NASF0oW09IXSlbQ0gyXU4zW0NIMl1bQ0gyXU9bQ0BIXShbQ0gyXTMpW0NIMl1OKFtDSDNdKVtDSDNd

> <s_epik_cmdline>
J2VwaWtfcHl0aG9uJywgJy1waCcsICc3LjAnLCAnLXRuJywgJzgnLCAnLW1hJywgJzIwMCcsICctbWV0YWxfYmluZGluZycsICctaW1hZScsICc8aW5maWxlLm1hZT4nLCAnLW9tYWUnLCAnPG91dGZpbGUubWFlPic=

> <r_epik_Ionization_Penalty>
1.0968

> <r_epik_Ionization_Penalty_Charging>
1.0096

> <r_epik_Ionization_Penalty_Neutral>
0.0871956

> <r_epik_State_Penalty>
1.31185

> <r_epik_Charging_Adjusted_Penalty>
2.32145

> <i_epik_Tot_Q>
2

> <i_epik_Tot_abs_Q>
2

> <r_epik_Metal_State_Penalty>
1.22442

> <b_epik_Metal_Only>
0

> <s_lp_Force_Field>
OPLS_2005

> <r_lp_Energy>
34.9346

> <b_lp_Chiralities_Consistent>
1

> <s_lp_Variant>
AV-unprocessed.smi:1005-8

> <Gold.Version>
5.8.1

> <Gold.Id.Protein>
6NUR|6NUR_protein|mol2

> <Gold.PLP.Fitness>
54.7006

> <Gold.PLP.PLP>
-45.5078

> <Gold.PLP.part.hbond>
-2.0000

> <Gold.PLP.part.metal>
0.0000

> <Gold.PLP.part.buried>
-5.3501

> <Gold.PLP.part.nonpolar>
-37.7936

> <Gold.PLP.part.repulsive>
0.3109

> <Gold.PLP.ligand.clash>
0.0000

> <Gold.PLP.ligand.torsion>
1.4276

> <Gold.PLP.Chemscore.Hbond>
2.9840

> <Gold.PLP.Chemscore.CHOScore>
1.0000

> <Gold.PLP.Chemscore.Metal>
0.0000

> <Gold.Chemscore.Hbonds>
donor molecule, donor type, donor heavy atom, donor atom, acceptor molecule, acceptor atom, score
      L1  H    18    56       P1 10175  1.98
      P1  H  7989  7998       L1    10  0.95
      L1  C     6    30       P1  8028  1.00

> <Gold.PLP.Chemscore.Internal.Correction>
0.0960

> <Gold.Rescore>
     Score         DG    S(hbond)    S(metal)    S(lipo)     H(rot)  DE(clash)    DE(int)     intcor
     15.20     -18.31       1.55        0.00     119.67       2.48       0.15       2.96       ----

> <Gold.Chemscore.Fitness>
15.2025

> <Gold.Chemscore.DG>
-18.3123

> <Gold.Chemscore.ZeroCoef>
-5.4800

> <Gold.Chemscore.Hbond>
1.5520

> <Gold.Chemscore.Metal>
0.0000

> <Gold.Chemscore.Lipo>
119.6672

> <Gold.Chemscore.Internal_Hbond>
0.0000

> <Gold.Chemscore.DEClash>
0.1537

> <Gold.Chemscore.DEInternal>
2.9561

> <Gold.Chemscore.Rot>
2.4814

> <Gold.Chemscore.Internal.Correction>
   9.000000E+99

> <Gold.Chemscore.Hbonds>
donor molecule, donor type, donor heavy atom, donor atom, acceptor molecule, acceptor atom, score
      L1  H    18    56       P1 10175  0.69
      P1  H  7989  7998       L1    10  0.11

> <Gold.Chemscore.Hbond.Weighted>
-5.1836

> <Gold.Chemscore.Metal.Weighted>
-0.0000

> <Gold.Chemscore.Lipo.Weighted>
-14.0011

> <Gold.Chemscore.Internal_Hbond.Weighted>
0.0000

> <Gold.Chemscore.DEClash.Weighted>
0.1537

> <Gold.Chemscore.DEInternal.Weighted>
2.9561

> <Gold.Chemscore.Rot.Weighted>
6.3524

> <Gold.Chemscore.Internal.Correction.Weighted>
   9.000000E+99

> <Gold.Protein.RotatedTorsions>
[ 6907 6896 6895 6894 ] final -152.36 input  -60.11 | X-H torsion
[ 7974 7965 7964 7962 ] final -135.09 input  175.53 | X-H torsion
[ 8008 7997 7996 7995 ] final  -74.07 input   59.86 | X-H torsion
[ 10167 10162 10161 10158 ] final  149.19 input  -65.29 | X-H torsion
[ 10718 10713 10712 10709 ] final   83.23 input   66.30 | X-H torsion
[ 10763 10752 10751 10750 ] final   27.81 input  -60.55 | X-H torsion
[ 11005 11000 10999 10996 ] final   12.83 input  -57.11 | X-H torsion

> <Gold.Protein.ActiveResidues>
 VAL166  LYS551  ARG553  GLY616  TRP617  ASP618  TYR619  PRO620  LYS621  CYS622 
 ASP623  PHE694  ASN695  SER759  ASP760  ASP761  ALA762  ILE779  LEU786  VAL792 
 PHE793  MET794  SER795  GLU796  ALA797  LYS798  CYS799  TRP800  GLU811  SER814 

> <Gold.Protein.RotatedAtoms>
  151.2266  133.4473  159.2602 H   0  0  0  0  0  0  0  0  0  0  0  0  # atno 6907 bound_to 6896
  151.0834  134.9872  159.8377 H   0  0  0  0  0  0  0  0  0  0  0  0  # atno 6908 bound_to 6896
  152.5427  134.2204  159.8838 H   0  0  0  0  0  0  0  0  0  0  0  0  # atno 6909 bound_to 6896
  144.9045  140.6814  143.5064 H   0  0  0  0  0  0  0  0  0  0  0  0  # atno 7974 bound_to 7965
  154.5300  140.0768  156.8327 H   0  0  0  0  0  0  0  0  0  0  0  0  # atno 8008 bound_to 7997
  155.3396  140.3406  155.4221 H   0  0  0  0  0  0  0  0  0  0  0  0  # atno 8009 bound_to 7997
  156.1771  140.1639  156.8329 H   0  0  0  0  0  0  0  0  0  0  0  0  # atno 8010 bound_to 7997
  139.4865  144.5621  151.7212 H   0  0  0  0  0  0  0  0  0  0  0  0  # atno 10167 bound_to 10162
  157.6874  131.0082  150.2493 H   0  0  0  0  0  0  0  0  0  0  0  0  # atno 10718 bound_to 10713
  153.0532  135.6528  154.0642 H   0  0  0  0  0  0  0  0  0  0  0  0  # atno 10763 bound_to 10752
  154.0326  135.2910  155.3368 H   0  0  0  0  0  0  0  0  0  0  0  0  # atno 10764 bound_to 10752
  154.6832  135.5311  153.8358 H   0  0  0  0  0  0  0  0  0  0  0  0  # atno 10765 bound_to 10752
  140.4875  134.0873  155.7764 H   0  0  0  0  0  0  0  0  0  0  0  0  # atno 11005 bound_to 11000
  145.3560  139.1694  143.4409 LP  0  0  0  0  0  0  0  0  0  0  0  0  # atno 17320 bound_to 7965
  146.3126  140.3617  142.8665 LP  0  0  0  0  0  0  0  0  0  0  0  0  # atno 17321 bound_to 7965
  140.5193  144.0904  150.6017 LP  0  0  0  0  0  0  0  0  0  0  0  0  # atno 17342 bound_to 10162
  140.3857  143.2779  152.0119 LP  0  0  0  0  0  0  0  0  0  0  0  0  # atno 17343 bound_to 10162
  156.3093  130.3769  149.7677 LP  0  0  0  0  0  0  0  0  0  0  0  0  # atno 17370 bound_to 10713
  156.5282  130.8246  151.3228 LP  0  0  0  0  0  0  0  0  0  0  0  0  # atno 17371 bound_to 10713
  141.1500  133.8985  157.2120 LP  0  0  0  0  0  0  0  0  0  0  0  0  # atno 17394 bound_to 11000
  139.9789  135.0105  156.9700 LP  0  0  0  0  0  0  0  0  0  0  0  0  # atno 17395 bound_to 11000

$$$$
