AV-unprocessed.smi:618|AV-procd|sdf|3076|dock4
  -GOLD-   22720 0 03D 1   1.00000     0.00000
 Structure written by MMmdl.
 41 43  0  0  0  0  0  0  0  0  2 V2000
  145.6280  138.3669  153.4224 O   0  0  0  0  0  0  0  0  0  0  0  0
  146.5980  137.6606  153.1486 C   0  0  0  0  0  0  0  0  0  0  0  0
  146.4888  136.4318  152.6249 N   0  0  0  0  0  0  0  0  0  0  0  0
  145.2300  135.7708  152.2972 C   0  0  0  0  0  0  0  0  0  0  0  0
  145.3692  134.2381  152.3016 C   0  0  2  0  0  0  0  0  0  0  0  0
  146.7235  133.7814  151.7269 C   0  0  0  0  0  0  0  0  0  0  0  0
  146.8045  132.3063  151.6122 N   0  3  1  0  0  0  0  0  0  0  0  0
  147.1252  131.5651  152.8521 C   0  0  0  0  0  0  0  0  0  0  0  0
  146.4280  130.2008  152.7319 C   0  0  0  0  0  0  0  0  0  0  0  0
  145.7773  130.1949  151.3445 C   0  0  0  0  0  0  0  0  0  0  0  0
  145.6167  131.6763  150.9999 C   0  0  1  0  0  0  0  0  0  0  0  0
  144.3072  132.2697  151.5676 C   0  0  0  0  0  0  0  0  0  0  0  0
  144.3356  133.6879  151.4927 O   0  0  0  0  0  0  0  0  0  0  0  0
  147.8855  137.9950  153.3381 N   0  0  0  0  0  0  0  0  0  0  0  0
  148.4200  139.2096  153.8466 C   0  0  0  0  0  0  0  0  0  0  0  0
  147.5830  140.3445  153.8597 C   0  0  0  0  0  0  0  0  0  0  0  0
  148.0784  141.5576  154.3741 C   0  0  0  0  0  0  0  0  0  0  0  0
  149.3971  141.5865  154.8673 C   0  0  0  0  0  0  0  0  0  0  0  0
  150.2072  140.5070  154.8768 N   0  0  0  0  0  0  0  0  0  0  0  0
  149.7261  139.3471  154.3796 C   0  0  0  0  0  0  0  0  0  0  0  0
  147.3365  135.9177  152.4334 H   0  0  0  0  0  0  0  0  0  0  0  0
  144.4790  136.0823  153.0237 H   0  0  0  0  0  0  0  0  0  0  0  0
  144.8807  136.1172  151.3229 H   0  0  0  0  0  0  0  0  0  0  0  0
  145.2663  133.8753  153.3256 H   0  0  0  0  0  0  0  0  0  0  0  0
  146.8517  134.2001  150.7279 H   0  0  0  0  0  0  0  0  0  0  0  0
  147.5524  134.1528  152.3305 H   0  0  0  0  0  0  0  0  0  0  0  0
  148.2062  131.4623  152.9506 H   0  0  0  0  0  0  0  0  0  0  0  0
  146.7616  132.0933  153.7345 H   0  0  0  0  0  0  0  0  0  0  0  0
  147.1227  129.3697  152.8565 H   0  0  0  0  0  0  0  0  0  0  0  0
  145.6641  130.1070  153.5048 H   0  0  0  0  0  0  0  0  0  0  0  0
  146.4551  129.7271  150.6289 H   0  0  0  0  0  0  0  0  0  0  0  0
  144.8377  129.6418  151.3175 H   0  0  0  0  0  0  0  0  0  0  0  0
  145.6414  131.8327  149.9207 H   0  0  0  0  0  0  0  0  0  0  0  0
  143.4543  131.9034  150.9961 H   0  0  0  0  0  0  0  0  0  0  0  0
  144.1420  131.9628  152.6018 H   0  0  0  0  0  0  0  0  0  0  0  0
  148.5645  137.2751  153.1391 H   0  0  0  0  0  0  0  0  0  0  0  0
  146.5740  140.2903  153.4771 H   0  0  0  0  0  0  0  0  0  0  0  0
  147.4624  142.4445  154.3911 H   0  0  0  0  0  0  0  0  0  0  0  0
  149.8104  142.4993  155.2702 H   0  0  0  0  0  0  0  0  0  0  0  0
  150.4111  138.5160  154.4392 H   0  0  0  0  0  0  0  0  0  0  0  0
  147.5728  132.1072  150.9871 H   0  0  0  0  0  0  0  0  0  0  0  0
  1  2  2  0  0  0  0
  2  3  1  0  0  0  0
  2 14  1  0  0  0  0
  3  4  1  0  0  0  0
  3 21  1  0  0  0  0
  4  5  1  0  0  0  0
  4 22  1  0  0  0  0
  4 23  1  0  0  0  0
  5 13  1  0  0  0  0
  5  6  1  0  0  0  0
  5 24  1  0  0  0  0
  6  7  1  0  0  0  0
  6 25  1  0  0  0  0
  6 26  1  0  0  0  0
  7 11  1  0  0  0  0
  7  8  1  0  0  0  0
  7 41  1  0  0  0  0
  8  9  1  0  0  0  0
  8 27  1  0  0  0  0
  8 28  1  0  0  0  0
  9 10  1  0  0  0  0
  9 29  1  0  0  0  0
  9 30  1  0  0  0  0
 10 11  1  0  0  0  0
 10 31  1  0  0  0  0
 10 32  1  0  0  0  0
 11 12  1  0  0  0  0
 11 33  1  0  0  0  0
 12 13  1  0  0  0  0
 12 34  1  0  0  0  0
 12 35  1  0  0  0  0
 14 15  1  0  0  0  0
 14 36  1  0  0  0  0
 15 20  1  0  0  0  0
 15 16  2  0  0  0  0
 16 17  1  0  0  0  0
 16 37  1  0  0  0  0
 17 18  2  0  0  0  0
 17 38  1  0  0  0  0
 18 19  1  0  0  0  0
 18 39  1  0  0  0  0
 19 20  2  0  0  0  0
 20 40  1  0  0  0  0
M  CHG  1   7   1
M  END
> <s_m_source_file>
AV-unprocessed.smi

> <i_m_source_file_index>
618

> <i_lp_mmshare_version>
43012

> <i_f3d_flags>
0

> <s_epik_input>
W2NIXTFuW2NIXVtjSF1bY0hdYzFbTkhdQyg9TylbTkhdW0NIMl1bQ0BIXShbQ0gyXTIpT1tDSDJdW0NAQEhdKE4yMylbQ0gyXVtDSDJdW0NIMl0z

> <s_epik_cmdline>
J2VwaWtfcHl0aG9uJywgJy1waCcsICc3LjAnLCAnLXRuJywgJzgnLCAnLW1hJywgJzIwMCcsICctbWV0YWxfYmluZGluZycsICctaW1hZScsICc8aW5maWxlLm1hZT4nLCAnLW9tYWUnLCAnPG91dGZpbGUubWFlPic=

> <r_epik_Ionization_Penalty>
0.111044

> <r_epik_Ionization_Penalty_Charging>
0.10673

> <r_epik_Ionization_Penalty_Neutral>
0.00431361

> <r_epik_State_Penalty>
0.0978747

> <r_epik_Charging_Adjusted_Penalty>
0.204605

> <i_epik_Tot_Q>
1

> <i_epik_Tot_abs_Q>
1

> <r_epik_Metal_State_Penalty>
0.0947591

> <b_epik_Metal_Only>
0

> <s_lp_Force_Field>
OPLS_2005

> <r_lp_Energy>
38.5016

> <b_lp_Chiralities_Consistent>
1

> <s_lp_Variant>
AV-unprocessed.smi:618-3

> <Gold.Version>
5.8.1

> <Gold.Id.Protein>
6NUR|6NUR_protein|mol2

> <Gold.PLP.Fitness>
44.5650

> <Gold.PLP.PLP>
-31.9915

> <Gold.PLP.part.hbond>
-3.9054

> <Gold.PLP.part.metal>
0.0000

> <Gold.PLP.part.buried>
-2.2468

> <Gold.PLP.part.nonpolar>
-27.4842

> <Gold.PLP.part.repulsive>
1.3435

> <Gold.PLP.ligand.clash>
0.0000

> <Gold.PLP.ligand.torsion>
0.4816

> <Gold.PLP.Chemscore.Hbond>
3.5120

> <Gold.PLP.Chemscore.CHOScore>
1.0000

> <Gold.PLP.Chemscore.Metal>
0.0000

> <Gold.Chemscore.Hbonds>
donor molecule, donor type, donor heavy atom, donor atom, acceptor molecule, acceptor atom, score
      L1  H     3    21       P1  7948  0.78
      L1  H     7    41       P1 10747  1.00
      L1  H    14    36       P1  7948  0.77
      P1  H  7989  7998       L1    19  0.91
      L1  C    18    39       P1  8028  1.00

> <Gold.PLP.Chemscore.Internal.Correction>
0.0007

> <Gold.Rescore>
     Score         DG    S(hbond)    S(metal)    S(lipo)     H(rot)  DE(clash)    DE(int)     intcor
     19.45     -21.54       2.88        0.00      82.81       1.27       0.24       1.85       ----

> <Gold.Chemscore.Fitness>
19.4517

> <Gold.Chemscore.DG>
-21.5371

> <Gold.Chemscore.ZeroCoef>
-5.4800

> <Gold.Chemscore.Hbond>
2.8766

> <Gold.Chemscore.Metal>
0.0000

> <Gold.Chemscore.Lipo>
82.8123

> <Gold.Chemscore.Internal_Hbond>
0.0000

> <Gold.Chemscore.DEClash>
0.2351

> <Gold.Chemscore.DEInternal>
1.8503

> <Gold.Chemscore.Rot>
1.2656

> <Gold.Chemscore.Internal.Correction>
   9.000000E+99

> <Gold.Chemscore.Hbonds>
donor molecule, donor type, donor heavy atom, donor atom, acceptor molecule, acceptor atom, score
      L1  H     3    21       P1  7948  0.78
      L1  H     7    41       P1 10747  0.91
      L1  H    14    36       P1  7948  0.76
      P1  H  7989  7998       L1    19  0.09

> <Gold.Chemscore.Hbond.Weighted>
-9.6079

> <Gold.Chemscore.Metal.Weighted>
-0.0000

> <Gold.Chemscore.Lipo.Weighted>
-9.6890

> <Gold.Chemscore.Internal_Hbond.Weighted>
0.0000

> <Gold.Chemscore.DEClash.Weighted>
0.2351

> <Gold.Chemscore.DEInternal.Weighted>
1.8503

> <Gold.Chemscore.Rot.Weighted>
3.2399

> <Gold.Chemscore.Internal.Correction.Weighted>
   9.000000E+99

> <Gold.Protein.RotatedTorsions>
[ 6907 6896 6895 6894 ] final   -5.07 input  -60.11 | X-H torsion
[ 7974 7965 7964 7962 ] final  -74.92 input  175.53 | X-H torsion
[ 8008 7997 7996 7995 ] final   35.70 input   59.86 | X-H torsion
[ 10167 10162 10161 10158 ] final   -1.48 input  -65.29 | X-H torsion
[ 10718 10713 10712 10709 ] final -104.74 input   66.30 | X-H torsion
[ 10763 10752 10751 10750 ] final -112.15 input  -60.55 | X-H torsion
[ 11005 11000 10999 10996 ] final   99.32 input  -57.11 | X-H torsion

> <Gold.Protein.ActiveResidues>
 VAL166  LYS551  ARG553  GLY616  TRP617  ASP618  TYR619  PRO620  LYS621  CYS622 
 ASP623  PHE694  ASN695  SER759  ASP760  ASP761  ALA762  ILE779  LEU786  VAL792 
 PHE793  MET794  SER795  GLU796  ALA797  LYS798  CYS799  TRP800  GLU811  SER814 

> <Gold.Protein.RotatedAtoms>
  151.4874  135.1055  159.9794 H   0  0  0  0  0  0  0  0  0  0  0  0  # atno 6907 bound_to 6896
  152.4755  133.8124  159.7021 H   0  0  0  0  0  0  0  0  0  0  0  0  # atno 6908 bound_to 6896
  150.8790  133.7337  159.2964 H   0  0  0  0  0  0  0  0  0  0  0  0  # atno 6909 bound_to 6896
  145.6328  140.9333  143.1077 H   0  0  0  0  0  0  0  0  0  0  0  0  # atno 7974 bound_to 7965
  155.1754  140.3295  155.4385 H   0  0  0  0  0  0  0  0  0  0  0  0  # atno 8008 bound_to 7997
  156.2495  140.1936  156.6805 H   0  0  0  0  0  0  0  0  0  0  0  0  # atno 8009 bound_to 7997
  154.6308  140.0583  156.9716 H   0  0  0  0  0  0  0  0  0  0  0  0  # atno 8010 bound_to 7997
  140.6811  143.6771  150.8136 H   0  0  0  0  0  0  0  0  0  0  0  0  # atno 10167 bound_to 10162
  156.0317  130.5530  150.7440 H   0  0  0  0  0  0  0  0  0  0  0  0  # atno 10718 bound_to 10713
  154.8335  135.4501  154.1148 H   0  0  0  0  0  0  0  0  0  0  0  0  # atno 10763 bound_to 10752
  153.2401  135.6915  153.7799 H   0  0  0  0  0  0  0  0  0  0  0  0  # atno 10764 bound_to 10752
  153.7150  135.3350  155.3230 H   0  0  0  0  0  0  0  0  0  0  0  0  # atno 10765 bound_to 10752
  139.8771  134.9090  156.4588 H   0  0  0  0  0  0  0  0  0  0  0  0  # atno 11005 bound_to 11000
  144.7187  139.8106  143.7390 LP  0  0  0  0  0  0  0  0  0  0  0  0  # atno 17320 bound_to 7965
  146.1343  139.4385  143.0149 LP  0  0  0  0  0  0  0  0  0  0  0  0  # atno 17321 bound_to 7965
  140.0471  143.5287  152.2691 LP  0  0  0  0  0  0  0  0  0  0  0  0  # atno 17342 bound_to 10162
  139.6135  144.7614  151.2898 LP  0  0  0  0  0  0  0  0  0  0  0  0  # atno 17343 bound_to 10162
  157.5001  131.0918  151.0324 LP  0  0  0  0  0  0  0  0  0  0  0  0  # atno 17370 bound_to 10713
  157.0707  130.5863  149.5402 LP  0  0  0  0  0  0  0  0  0  0  0  0  # atno 17371 bound_to 10713
  140.8879  133.7870  155.9538 LP  0  0  0  0  0  0  0  0  0  0  0  0  # atno 17394 bound_to 11000
  140.8785  134.2640  157.5156 LP  0  0  0  0  0  0  0  0  0  0  0  0  # atno 17395 bound_to 11000

$$$$
