AV-unprocessed.smi:148|AV-procd|sdf|1212|dock10
  -GOLD-   2262018393D 1   1.00000     0.00000
 Structure written by MMmdl.
 63 67  0  0  0  0  0  0  0  0  1 V2000
  153.1667  136.0108  156.8168 O   0  0  0  0  0  0  0  0  0  0  0  0
  152.0416  136.7718  157.2063 C   0  0  0  0  0  0  0  0  0  0  0  0
  151.0358  136.9341  156.0370 C   0  0  2  0  0  0  0  0  0  0  0  0
  150.6033  135.5550  155.4702 C   0  0  0  0  0  0  0  0  0  0  0  0
  149.1878  135.4891  155.1504 N   0  0  0  0  0  0  0  0  0  0  0  0
  148.2932  136.5345  155.1804 C   0  0  0  0  0  0  0  0  0  0  0  0
  147.0658  136.2256  154.8627 N   0  0  0  0  0  0  0  0  0  0  0  0
  147.1214  134.8648  154.5856 C   0  0  0  0  0  0  0  0  0  0  0  0
  146.1636  133.8905  154.1851 C   0  0  0  0  0  0  0  0  0  0  0  0
  144.8501  134.1384  153.9898 N   0  0  0  0  0  0  0  0  0  0  0  0
  144.4108  135.1306  154.9741 C   0  0  0  0  0  0  0  0  0  0  0  0
  142.8869  135.2750  154.9904 C   0  0  0  0  0  0  0  0  0  0  0  0
  142.3865  135.6154  153.5870 C   0  0  0  0  0  0  0  0  0  0  0  0
  142.8587  134.5446  152.5966 C   0  0  0  0  0  0  0  0  0  0  0  0
  144.4016  134.3587  152.5978 C   0  0  2  0  0  0  0  0  0  0  0  0
  144.8044  133.2071  151.6114 C   0  0  2  0  0  0  0  0  0  0  0  0
  146.2915  133.1112  151.2051 C   0  0  0  0  0  0  0  0  0  0  0  0
  146.3449  132.3752  149.8584 C   0  0  0  0  0  0  0  0  0  0  0  0
  144.8936  132.2266  149.3945 C   0  0  0  0  0  0  0  0  0  0  0  0
  144.0968  133.2212  150.2394 C   0  0  2  0  0  0  0  0  0  0  0  0
  144.1779  134.4973  149.6285 O   0  0  0  0  0  0  0  0  0  0  0  0
  146.5847  132.6127  154.0168 N   0  0  0  0  0  0  0  0  0  0  0  0
  147.8712  132.3049  154.2070 C   0  0  0  0  0  0  0  0  0  0  0  0
  148.8769  133.1043  154.5701 N   0  0  0  0  0  0  0  0  0  0  0  0
  148.4509  134.3870  154.7540 C   0  0  0  0  0  0  0  0  0  0  0  0
  151.5453  137.8837  154.9093 C   0  0  2  0  0  0  0  0  0  0  0  0
  152.3946  139.0612  155.3769 C   0  0  0  0  0  0  0  0  0  0  0  0
  151.3592  140.0984  155.8056 C   0  0  0  0  0  0  0  0  0  0  0  0
  150.1852  139.8029  155.0564 O   0  0  0  0  0  0  0  0  0  0  0  0
  150.4239  138.6759  154.2216 C   0  0  0  0  0  0  0  0  0  0  0  0
  153.3591  135.3865  157.4997 H   0  0  0  0  0  0  0  0  0  0  0  0
  151.5757  136.2862  158.0631 H   0  0  0  0  0  0  0  0  0  0  0  0
  152.3779  137.7368  157.5813 H   0  0  0  0  0  0  0  0  0  0  0  0
  150.1439  137.3924  156.4667 H   0  0  0  0  0  0  0  0  0  0  0  0
  151.1442  135.3098  154.5584 H   0  0  0  0  0  0  0  0  0  0  0  0
  150.8386  134.7629  156.1820 H   0  0  0  0  0  0  0  0  0  0  0  0
  148.5817  137.5390  155.4542 H   0  0  0  0  0  0  0  0  0  0  0  0
  144.7544  134.8475  155.9706 H   0  0  0  0  0  0  0  0  0  0  0  0
  144.8632  136.0968  154.7461 H   0  0  0  0  0  0  0  0  0  0  0  0
  142.4291  134.3467  155.3353 H   0  0  0  0  0  0  0  0  0  0  0  0
  142.5916  136.0527  155.6951 H   0  0  0  0  0  0  0  0  0  0  0  0
  141.2982  135.6822  153.5807 H   0  0  0  0  0  0  0  0  0  0  0  0
  142.7641  136.5927  153.2843 H   0  0  0  0  0  0  0  0  0  0  0  0
  142.3772  133.5962  152.8393 H   0  0  0  0  0  0  0  0  0  0  0  0
  142.4978  134.8272  151.6089 H   0  0  0  0  0  0  0  0  0  0  0  0
  144.8475  135.2894  152.2454 H   0  0  0  0  0  0  0  0  0  0  0  0
  144.5377  132.2613  152.0867 H   0  0  0  0  0  0  0  0  0  0  0  0
  146.7121  134.1099  151.0832 H   0  0  0  0  0  0  0  0  0  0  0  0
  146.8947  132.5874  151.9453 H   0  0  0  0  0  0  0  0  0  0  0  0
  146.9233  132.9552  149.1385 H   0  0  0  0  0  0  0  0  0  0  0  0
  146.8232  131.3998  149.9519 H   0  0  0  0  0  0  0  0  0  0  0  0
  144.7739  132.3812  148.3215 H   0  0  0  0  0  0  0  0  0  0  0  0
  144.5508  131.2148  149.6154 H   0  0  0  0  0  0  0  0  0  0  0  0
  143.0504  132.9227  150.3084 H   0  0  0  0  0  0  0  0  0  0  0  0
  144.6516  134.4113  148.8155 H   0  0  0  0  0  0  0  0  0  0  0  0
  148.1327  131.2691  154.0472 H   0  0  0  0  0  0  0  0  0  0  0  0
  152.0970  137.2929  154.1767 H   0  0  0  0  0  0  0  0  0  0  0  0
  153.1262  138.8388  156.1508 H   0  0  0  0  0  0  0  0  0  0  0  0
  152.9554  139.4516  154.5260 H   0  0  0  0  0  0  0  0  0  0  0  0
  151.1307  140.0024  156.8676 H   0  0  0  0  0  0  0  0  0  0  0  0
  151.7008  141.1173  155.6225 H   0  0  0  0  0  0  0  0  0  0  0  0
  150.7674  139.0381  153.2513 H   0  0  0  0  0  0  0  0  0  0  0  0
  149.5063  138.1180  154.0470 H   0  0  0  0  0  0  0  0  0  0  0  0
  1  2  1  0  0  0  0
  1 31  1  0  0  0  0
  2  3  1  0  0  0  0
  2 32  1  0  0  0  0
  2 33  1  0  0  0  0
  3  4  1  0  0  0  0
  3 26  1  0  0  0  0
  3 34  1  0  0  0  0
  4  5  1  0  0  0  0
  4 35  1  0  0  0  0
  4 36  1  0  0  0  0
  5 25  1  0  0  0  0
  5  6  1  0  0  0  0
  6  7  2  0  0  0  0
  6 37  1  0  0  0  0
  7  8  1  0  0  0  0
  8 25  2  0  0  0  0
  8  9  1  0  0  0  0
  9 10  1  0  0  0  0
  9 22  2  0  0  0  0
 10 15  1  0  0  0  0
 10 11  1  0  0  0  0
 11 12  1  0  0  0  0
 11 38  1  0  0  0  0
 11 39  1  0  0  0  0
 12 13  1  0  0  0  0
 12 40  1  0  0  0  0
 12 41  1  0  0  0  0
 13 14  1  0  0  0  0
 13 42  1  0  0  0  0
 13 43  1  0  0  0  0
 14 15  1  0  0  0  0
 14 44  1  0  0  0  0
 14 45  1  0  0  0  0
 15 16  1  0  0  0  0
 15 46  1  0  0  0  0
 16 20  1  0  0  0  0
 16 17  1  0  0  0  0
 16 47  1  0  0  0  0
 17 18  1  0  0  0  0
 17 48  1  0  0  0  0
 17 49  1  0  0  0  0
 18 19  1  0  0  0  0
 18 50  1  0  0  0  0
 18 51  1  0  0  0  0
 19 20  1  0  0  0  0
 19 52  1  0  0  0  0
 19 53  1  0  0  0  0
 20 21  1  0  0  0  0
 20 54  1  0  0  0  0
 21 55  1  0  0  0  0
 22 23  1  0  0  0  0
 23 24  2  0  0  0  0
 23 56  1  0  0  0  0
 24 25  1  0  0  0  0
 26 30  1  0  0  0  0
 26 27  1  0  0  0  0
 26 57  1  0  0  0  0
 27 28  1  0  0  0  0
 27 58  1  0  0  0  0
 27 59  1  0  0  0  0
 28 29  1  0  0  0  0
 28 60  1  0  0  0  0
 28 61  1  0  0  0  0
 29 30  1  0  0  0  0
 30 62  1  0  0  0  0
 30 63  1  0  0  0  0
M  END
> <s_m_source_file>
AV-unprocessed.smi

> <i_m_source_file_index>
148

> <i_lp_mmshare_version>
43012

> <i_f3d_flags>
0

> <s_epik_input>
W0NIMl0xT1tDSDJdW0NIMl1bQ0BIXTFbQ0BIXShbQ0gyXVtPSF0pW0NIMl1uKFtjSF1uMiljKGMyMyluW2NIXW5jM040W0NIMl1bQ0gyXVtDSDJdW0NIMl1bQ0BIXTRbQ0BASF01W0NIMl1bQ0gyXVtDSDJdW0NASF01W09IXQ==

> <s_epik_cmdline>
J2VwaWtfcHl0aG9uJywgJy1waCcsICc3LjAnLCAnLXRuJywgJzgnLCAnLW1hJywgJzIwMCcsICctbWV0YWxfYmluZGluZycsICctaW1hZScsICc8aW5maWxlLm1hZT4nLCAnLW9tYWUnLCAnPG91dGZpbGUubWFlPic=

> <r_lp_tautomer_probability>
1

> <r_epik_Ionization_Penalty>
0.00556303

> <r_epik_Ionization_Penalty_Charging>
0

> <r_epik_Ionization_Penalty_Neutral>
0.00556303

> <r_epik_State_Penalty>
0.00401767

> <r_epik_Charging_Adjusted_Penalty>
0.00401767

> <i_epik_Tot_Q>
0

> <i_epik_Tot_abs_Q>
0

> <r_epik_Metal_State_Penalty>
-0

> <b_epik_Metal_Only>
0

> <s_lp_Force_Field>
OPLS_2005

> <r_lp_Energy>
72.8369

> <b_lp_Chiralities_Consistent>
1

> <s_lp_Variant>
AV-unprocessed.smi:148-11

> <Gold.Version>
5.8.1

> <Gold.Id.Protein>
6NUR|6NUR_protein|mol2

> <Gold.PLP.Fitness>
46.0044

> <Gold.PLP.PLP>
-43.4269

> <Gold.PLP.part.hbond>
-3.0654

> <Gold.PLP.part.metal>
0.0000

> <Gold.PLP.part.buried>
-6.2119

> <Gold.PLP.part.nonpolar>
-35.5270

> <Gold.PLP.part.repulsive>
0.3952

> <Gold.PLP.ligand.clash>
0.0000

> <Gold.PLP.ligand.torsion>
2.0269

> <Gold.PLP.Chemscore.Hbond>
2.0000

> <Gold.PLP.Chemscore.CHOScore>
0.0000

> <Gold.PLP.Chemscore.Metal>
0.0000

> <Gold.Chemscore.Hbonds>
donor molecule, donor type, donor heavy atom, donor atom, acceptor molecule, acceptor atom, score
      L1  H    21    55       P1  7921  1.00
      P1  H 10752 10763       L1     1  1.00

> <Gold.PLP.Chemscore.Internal.Correction>
0.6313

> <Gold.Rescore>
     Score         DG    S(hbond)    S(metal)    S(lipo)     H(rot)  DE(clash)    DE(int)     intcor
     11.96     -16.44       1.98        0.00     109.70       3.32       0.08       4.40       ----

> <Gold.Chemscore.Fitness>
11.9564

> <Gold.Chemscore.DG>
-16.4404

> <Gold.Chemscore.ZeroCoef>
-5.4800

> <Gold.Chemscore.Hbond>
1.9837

> <Gold.Chemscore.Metal>
0.0000

> <Gold.Chemscore.Lipo>
109.7004

> <Gold.Chemscore.Internal_Hbond>
0.0000

> <Gold.Chemscore.DEClash>
0.0793

> <Gold.Chemscore.DEInternal>
4.4047

> <Gold.Chemscore.Rot>
3.3203

> <Gold.Chemscore.Internal.Correction>
   9.000000E+99

> <Gold.Chemscore.Hbonds>
donor molecule, donor type, donor heavy atom, donor atom, acceptor molecule, acceptor atom, score
      L1  H    21    55       P1  7921  0.96
      P1  H 10752 10763       L1     1  0.84

> <Gold.Chemscore.Hbond.Weighted>
-6.6254

> <Gold.Chemscore.Metal.Weighted>
-0.0000

> <Gold.Chemscore.Lipo.Weighted>
-12.8349

> <Gold.Chemscore.Internal_Hbond.Weighted>
0.0000

> <Gold.Chemscore.DEClash.Weighted>
0.0793

> <Gold.Chemscore.DEInternal.Weighted>
4.4047

> <Gold.Chemscore.Rot.Weighted>
8.5000

> <Gold.Chemscore.Internal.Correction.Weighted>
   9.000000E+99

> <Gold.Protein.RotatedTorsions>
[ 6907 6896 6895 6894 ] final  165.96 input  -60.11 | X-H torsion
[ 7974 7965 7964 7962 ] final    9.07 input  175.53 | X-H torsion
[ 8008 7997 7996 7995 ] final  -16.32 input   59.86 | X-H torsion
[ 10167 10162 10161 10158 ] final -122.37 input  -65.29 | X-H torsion
[ 10718 10713 10712 10709 ] final   87.53 input   66.30 | X-H torsion
[ 10763 10752 10751 10750 ] final  108.21 input  -60.55 | X-H torsion
[ 11005 11000 10999 10996 ] final  132.24 input  -57.11 | X-H torsion

> <Gold.Protein.ActiveResidues>
 VAL166  LYS551  ARG553  GLY616  TRP617  ASP618  TYR619  PRO620  LYS621  CYS622 
 ASP623  PHE694  ASN695  SER759  ASP760  ASP761  ALA762  ILE779  LEU786  VAL792 
 PHE793  MET794  SER795  GLU796  ALA797  LYS798  CYS799  TRP800  GLU811  SER814 

> <Gold.Protein.RotatedAtoms>
  151.8863  133.3506  159.3783 H   0  0  0  0  0  0  0  0  0  0  0  0  # atno 6907 bound_to 6896
  150.7114  134.4968  159.5551 H   0  0  0  0  0  0  0  0  0  0  0  0  # atno 6908 bound_to 6896
  152.2529  134.8114  160.0494 H   0  0  0  0  0  0  0  0  0  0  0  0  # atno 6909 bound_to 6896
  146.2408  139.9839  142.8433 H   0  0  0  0  0  0  0  0  0  0  0  0  # atno 7974 bound_to 7965
  154.5062  140.2172  155.9247 H   0  0  0  0  0  0  0  0  0  0  0  0  # atno 8008 bound_to 7997
  156.1496  140.3164  155.8593 H   0  0  0  0  0  0  0  0  0  0  0  0  # atno 8009 bound_to 7997
  155.3965  140.0481  157.3029 H   0  0  0  0  0  0  0  0  0  0  0  0  # atno 8010 bound_to 7997
  140.0150  143.5402  152.2246 H   0  0  0  0  0  0  0  0  0  0  0  0  # atno 10167 bound_to 10162
  157.6941  131.0259  150.3138 H   0  0  0  0  0  0  0  0  0  0  0  0  # atno 10718 bound_to 10713
  153.4175  135.3819  155.2090 H   0  0  0  0  0  0  0  0  0  0  0  0  # atno 10763 bound_to 10752
  154.8742  135.3809  154.4424 H   0  0  0  0  0  0  0  0  0  0  0  0  # atno 10764 bound_to 10752
  153.4940  135.7088  153.5931 H   0  0  0  0  0  0  0  0  0  0  0  0  # atno 10765 bound_to 10752
  139.9778  134.9558  156.9554 H   0  0  0  0  0  0  0  0  0  0  0  0  # atno 11005 bound_to 11000
  145.1566  140.9651  143.4401 LP  0  0  0  0  0  0  0  0  0  0  0  0  # atno 17320 bound_to 7965
  145.0155  139.3471  143.6098 LP  0  0  0  0  0  0  0  0  0  0  0  0  # atno 17321 bound_to 7965
  139.6179  144.7623  151.2806 LP  0  0  0  0  0  0  0  0  0  0  0  0  # atno 17342 bound_to 10162
  140.7366  143.6703  150.8087 LP  0  0  0  0  0  0  0  0  0  0  0  0  # atno 17343 bound_to 10162
  156.3635  130.3851  149.7232 LP  0  0  0  0  0  0  0  0  0  0  0  0  # atno 17370 bound_to 10713
  156.4670  130.7979  151.2998 LP  0  0  0  0  0  0  0  0  0  0  0  0  # atno 17371 bound_to 10713
  140.5158  134.0957  155.7280 LP  0  0  0  0  0  0  0  0  0  0  0  0  # atno 17394 bound_to 11000
  141.1454  133.9065  157.2228 LP  0  0  0  0  0  0  0  0  0  0  0  0  # atno 17395 bound_to 11000

$$$$
