AV-unprocessed.smi:3076|AV-procd|sdf|11727|dock2
  -GOLD-   2272017123D 1   1.00000     0.00000
 Structure written by MMmdl.
 20 20  0  0  0  0  0  0  0  0  1 V2000
  147.6298  138.9822  152.6688 N   0  0  0  0  0  0  0  0  0  0  0  0
  147.7719  139.4234  154.0649 C   0  0  0  0  0  0  0  0  0  0  0  0
  149.0369  140.2673  154.2989 C   0  0  2  0  0  0  0  0  0  0  0  0
  149.2183  141.1178  153.1839 O   0  0  0  0  0  0  0  0  0  0  0  0
  150.2504  139.3774  154.5154 C   0  0  0  0  0  0  0  0  0  0  0  0
  151.1084  139.5605  155.6219 C   0  0  0  0  0  0  0  0  0  0  0  0
  152.2249  138.7145  155.7653 C   0  0  0  0  0  0  0  0  0  0  0  0
  152.4403  137.7181  154.7931 C   0  0  0  0  0  0  0  0  0  0  0  0
  151.6300  137.5337  153.7289 N   0  0  0  0  0  0  0  0  0  0  0  0
  150.5615  138.3495  153.5988 C   0  0  0  0  0  0  0  0  0  0  0  0
  148.1069  139.6276  152.0411 H   0  0  0  0  0  0  0  0  0  0  0  0
  148.0578  138.0666  152.5392 H   0  0  0  0  0  0  0  0  0  0  0  0
  146.8999  140.0258  154.3213 H   0  0  0  0  0  0  0  0  0  0  0  0
  147.7555  138.5668  154.7397 H   0  0  0  0  0  0  0  0  0  0  0  0
  148.9029  140.8937  155.1822 H   0  0  0  0  0  0  0  0  0  0  0  0
  148.8460  140.6989  152.4231 H   0  0  0  0  0  0  0  0  0  0  0  0
  150.9176  140.3373  156.3480 H   0  0  0  0  0  0  0  0  0  0  0  0
  152.9011  138.8280  156.5996 H   0  0  0  0  0  0  0  0  0  0  0  0
  153.2874  137.0527  154.8712 H   0  0  0  0  0  0  0  0  0  0  0  0
  149.9384  138.1757  152.7338 H   0  0  0  0  0  0  0  0  0  0  0  0
  1  2  1  0  0  0  0
  1 11  1  0  0  0  0
  1 12  1  0  0  0  0
  2  3  1  0  0  0  0
  2 13  1  0  0  0  0
  2 14  1  0  0  0  0
  3  4  1  0  0  0  0
  3  5  1  0  0  0  0
  3 15  1  0  0  0  0
  4 16  1  0  0  0  0
  5 10  1  0  0  0  0
  5  6  2  0  0  0  0
  6  7  1  0  0  0  0
  6 17  1  0  0  0  0
  7  8  2  0  0  0  0
  7 18  1  0  0  0  0
  8  9  1  0  0  0  0
  8 19  1  0  0  0  0
  9 10  2  0  0  0  0
 10 20  1  0  0  0  0
M  END
> <s_m_source_file>
AV-unprocessed.smi

> <i_m_source_file_index>
3076

> <i_lp_mmshare_version>
43012

> <i_f3d_flags>
0

> <s_epik_input>
W05IMl1bQ0gyXVtDQEhdKFtPSF0pYzFbY0hdW2NIXVtjSF1uW2NIXTE=

> <s_epik_cmdline>
J2VwaWtfcHl0aG9uJywgJy1waCcsICc3LjAnLCAnLXRuJywgJzgnLCAnLW1hJywgJzIwMCcsICctbWV0YWxfYmluZGluZycsICctaW1hZScsICc8aW5maWxlLm1hZT4nLCAnLW9tYWUnLCAnPG91dGZpbGUubWFlPic=

> <r_epik_Ionization_Penalty>
2.22627

> <r_epik_Ionization_Penalty_Charging>
0

> <r_epik_Ionization_Penalty_Neutral>
2.22627

> <r_epik_State_Penalty>
2.36938

> <r_epik_Charging_Adjusted_Penalty>
2.36938

> <i_epik_Tot_Q>
0

> <i_epik_Tot_abs_Q>
0

> <r_epik_Metal_State_Penalty>
2.36785

> <b_epik_Metal_Only>
0

> <s_lp_Force_Field>
OPLS_2005

> <r_lp_Energy>
11.5599

> <b_lp_Chiralities_Consistent>
1

> <s_lp_Variant>
AV-unprocessed.smi:3076-3

> <Gold.Version>
5.8.1

> <Gold.Id.Protein>
6NUR|6NUR_protein|mol2

> <Gold.PLP.Fitness>
36.8710

> <Gold.PLP.PLP>
-22.0892

> <Gold.PLP.part.hbond>
-4.5052

> <Gold.PLP.part.metal>
0.0000

> <Gold.PLP.part.buried>
-3.1124

> <Gold.PLP.part.nonpolar>
-14.9655

> <Gold.PLP.part.repulsive>
0.1752

> <Gold.PLP.ligand.clash>
0.0000

> <Gold.PLP.ligand.torsion>
0.3824

> <Gold.PLP.Chemscore.Hbond>
3.6977

> <Gold.PLP.Chemscore.CHOScore>
1.4836

> <Gold.PLP.Chemscore.Metal>
0.0000

> <Gold.Chemscore.Hbonds>
donor molecule, donor type, donor heavy atom, donor atom, acceptor molecule, acceptor atom, score
      L1  H     1    11       P1  7957  0.96
      L1  H     1    12       P1  7948  0.75
      L1  H     4    16       P1  7957  0.58
      P1  H  8011  8017       L1     4  0.70
      L1  C    10    20       P1  7948  1.00
      L1  C    10    20       P1  7957  0.73

> <Gold.PLP.Chemscore.Internal.Correction>
0.0028

> <Gold.Rescore>
     Score         DG    S(hbond)    S(metal)    S(lipo)     H(rot)  DE(clash)    DE(int)     intcor
     16.31     -16.89       3.18        0.00      47.12       1.85       0.00       0.58       ----

> <Gold.Chemscore.Fitness>
16.3087

> <Gold.Chemscore.DG>
-16.8863

> <Gold.Chemscore.ZeroCoef>
-5.4800

> <Gold.Chemscore.Hbond>
3.1790

> <Gold.Chemscore.Metal>
0.0000

> <Gold.Chemscore.Lipo>
47.1201

> <Gold.Chemscore.Internal_Hbond>
0.0000

> <Gold.Chemscore.DEClash>
0.0015

> <Gold.Chemscore.DEInternal>
0.5761

> <Gold.Chemscore.Rot>
1.8455

> <Gold.Chemscore.Internal.Correction>
   9.000000E+99

> <Gold.Chemscore.Hbonds>
donor molecule, donor type, donor heavy atom, donor atom, acceptor molecule, acceptor atom, score
      L1  H     1    11       P1  7957  0.92
      L1  H     1    12       P1  7948  0.75
      L1  H     4    16       P1  7957  0.57
      P1  H  8011  8017       L1     4  0.07

> <Gold.Chemscore.Hbond.Weighted>
-10.6177

> <Gold.Chemscore.Metal.Weighted>
-0.0000

> <Gold.Chemscore.Lipo.Weighted>
-5.5130

> <Gold.Chemscore.Internal_Hbond.Weighted>
0.0000

> <Gold.Chemscore.DEClash.Weighted>
0.0015

> <Gold.Chemscore.DEInternal.Weighted>
0.5761

> <Gold.Chemscore.Rot.Weighted>
4.7245

> <Gold.Chemscore.Internal.Correction.Weighted>
   9.000000E+99

> <Gold.Protein.RotatedTorsions>
[ 6907 6896 6895 6894 ] final  156.84 input  -60.11 | X-H torsion
[ 7974 7965 7964 7962 ] final  -80.42 input  175.53 | X-H torsion
[ 8008 7997 7996 7995 ] final -150.49 input   59.86 | X-H torsion
[ 10167 10162 10161 10158 ] final  -39.02 input  -65.29 | X-H torsion
[ 10718 10713 10712 10709 ] final  172.97 input   66.30 | X-H torsion
[ 10763 10752 10751 10750 ] final   33.88 input  -60.55 | X-H torsion
[ 11005 11000 10999 10996 ] final   23.96 input  -57.11 | X-H torsion

> <Gold.Protein.ActiveResidues>
 VAL166  LYS551  ARG553  GLY616  TRP617  ASP618  TYR619  PRO620  LYS621  CYS622 
 ASP623  PHE694  ASN695  SER759  ASP760  ASP761  ALA762  ILE779  LEU786  VAL792 
 PHE793  MET794  SER795  GLU796  ALA797  LYS798  CYS799  TRP800  GLU811  SER814 

> <Gold.Protein.RotatedAtoms>
  152.0238  133.3909  159.4268 H   0  0  0  0  0  0  0  0  0  0  0  0  # atno 6907 bound_to 6896
  150.6888  134.3596  159.4954 H   0  0  0  0  0  0  0  0  0  0  0  0  # atno 6908 bound_to 6896
  152.1373  134.9089  160.0606 H   0  0  0  0  0  0  0  0  0  0  0  0  # atno 6909 bound_to 6896
  145.5602  140.9483  143.1451 H   0  0  0  0  0  0  0  0  0  0  0  0  # atno 7974 bound_to 7965
  155.6245  140.0685  157.2668 H   0  0  0  0  0  0  0  0  0  0  0  0  # atno 8008 bound_to 7997
  154.4221  140.1778  156.1455 H   0  0  0  0  0  0  0  0  0  0  0  0  # atno 8009 bound_to 7997
  155.9983  140.3338  155.6823 H   0  0  0  0  0  0  0  0  0  0  0  0  # atno 8010 bound_to 7997
  140.7076  143.3241  151.2723 H   0  0  0  0  0  0  0  0  0  0  0  0  # atno 10167 bound_to 10162
  156.9711  131.0090  151.2905 H   0  0  0  0  0  0  0  0  0  0  0  0  # atno 10718 bound_to 10713
  153.0190  135.6375  154.1582 H   0  0  0  0  0  0  0  0  0  0  0  0  # atno 10763 bound_to 10752
  154.1318  135.2840  155.3185 H   0  0  0  0  0  0  0  0  0  0  0  0  # atno 10764 bound_to 10752
  154.6189  135.5531  153.7615 H   0  0  0  0  0  0  0  0  0  0  0  0  # atno 10765 bound_to 10752
  140.3639  134.2095  155.7670 H   0  0  0  0  0  0  0  0  0  0  0  0  # atno 11005 bound_to 11000
  144.7487  139.7252  143.7282 LP  0  0  0  0  0  0  0  0  0  0  0  0  # atno 17320 bound_to 7965
  146.1856  139.5070  142.9838 LP  0  0  0  0  0  0  0  0  0  0  0  0  # atno 17321 bound_to 7965
  139.6703  144.0031  152.2749 LP  0  0  0  0  0  0  0  0  0  0  0  0  # atno 17342 bound_to 10162
  139.9628  144.6546  150.8063 LP  0  0  0  0  0  0  0  0  0  0  0  0  # atno 17343 bound_to 10162
  157.5591  130.8234  149.8243 LP  0  0  0  0  0  0  0  0  0  0  0  0  # atno 17370 bound_to 10713
  156.0282  130.3773  150.1762 LP  0  0  0  0  0  0  0  0  0  0  0  0  # atno 17371 bound_to 10713
  141.1975  133.8056  157.0623 LP  0  0  0  0  0  0  0  0  0  0  0  0  # atno 17394 bound_to 11000
  140.0605  134.9757  157.1295 LP  0  0  0  0  0  0  0  0  0  0  0  0  # atno 17395 bound_to 11000

$$$$
