AV-unprocessed.smi:726|AV-procd|sdf|3515|dock2
  -GOLD-   22720 0513D 1   1.00000     0.00000
 Structure written by MMmdl.
 24 24  0  0  0  0  0  0  0  0  2 V2000
  153.1876  140.8462  159.9173 C   0  0  0  0  0  0  0  0  0  0  0  0
  152.4386  141.9493  159.1809 C   0  0  0  0  0  0  0  0  0  0  0  0
  152.6838  143.2388  159.5102 C   0  0  0  0  0  0  0  0  0  0  0  0
  151.9215  144.3344  158.8900 C   0  0  0  0  0  0  0  0  0  0  0  0
  152.1748  145.5167  159.1134 O   0  0  0  0  0  0  0  0  0  0  0  0
  150.8247  143.9239  158.0043 C   0  0  0  0  0  0  0  0  0  0  0  0
  150.6580  142.6154  157.7318 C   0  0  0  0  0  0  0  0  0  0  0  0
  149.6330  142.1951  156.9765 O   0  0  0  0  0  0  0  0  0  0  0  0
  151.4829  141.5720  158.2084 N   0  0  0  0  0  0  0  0  0  0  0  0
  151.4902  140.2122  157.6189 C   0  0  1  0  0  0  0  0  0  0  0  0
  150.2701  139.3704  158.0482 C   0  0  0  0  0  0  0  0  0  0  0  0
  151.7761  140.2003  156.1043 C   0  0  0  0  0  0  0  0  0  0  0  0
  150.9481  140.7451  155.3403 O   0  0  0  0  0  0  0  0  0  0  0  0
  152.8301  139.6359  155.7370 O   0  5  0  0  0  0  0  0  0  0  0  0
  153.5602  141.2061  160.8769 H   0  0  0  0  0  0  0  0  0  0  0  0
  154.0440  140.5105  159.3318 H   0  0  0  0  0  0  0  0  0  0  0  0
  152.5442  139.9926  160.1318 H   0  0  0  0  0  0  0  0  0  0  0  0
  153.4183  143.4929  160.2607 H   0  0  0  0  0  0  0  0  0  0  0  0
  150.1584  144.6778  157.6110 H   0  0  0  0  0  0  0  0  0  0  0  0
  152.3505  139.6641  157.9943 H   0  0  0  0  0  0  0  0  0  0  0  0
  150.3443  138.3511  157.6679 H   0  0  0  0  0  0  0  0  0  0  0  0
  149.3290  139.7848  157.6887 H   0  0  0  0  0  0  0  0  0  0  0  0
  150.2075  139.3064  159.1345 H   0  0  0  0  0  0  0  0  0  0  0  0
  149.4038  142.8990  156.3900 H   0  0  0  0  0  0  0  0  0  0  0  0
  1  2  1  0  0  0  0
  1 15  1  0  0  0  0
  1 16  1  0  0  0  0
  1 17  1  0  0  0  0
  2  9  1  0  0  0  0
  2  3  2  0  0  0  0
  3  4  1  0  0  0  0
  3 18  1  0  0  0  0
  4  5  2  0  0  0  0
  4  6  1  0  0  0  0
  6  7  2  0  0  0  0
  6 19  1  0  0  0  0
  7  8  1  0  0  0  0
  7  9  1  0  0  0  0
  8 24  1  0  0  0  0
  9 10  1  0  0  0  0
 10 11  1  0  0  0  0
 10 12  1  0  0  0  0
 10 20  1  0  0  0  0
 11 21  1  0  0  0  0
 11 22  1  0  0  0  0
 11 23  1  0  0  0  0
 12 13  2  0  0  0  0
 12 14  1  0  0  0  0
M  CHG  1  14  -1
M  END
> <s_m_source_file>
AV-unprocessed.smi

> <i_m_source_file_index>
726

> <i_lp_mmshare_version>
43012

> <i_f3d_flags>
0

> <s_epik_input>
W0NIM11jMVtjSF1jKFtPSF0pW2NIXWMoPU8pbjFbQ0BIXShbQ0gzXSlDKD1PKVtPSF0=

> <s_epik_cmdline>
J2VwaWtfcHl0aG9uJywgJy1waCcsICc3LjAnLCAnLXRuJywgJzgnLCAnLW1hJywgJzIwMCcsICctbWV0YWxfYmluZGluZycsICctaW1hZScsICc8aW5maWxlLm1hZT4nLCAnLW9tYWUnLCAnPG91dGZpbGUubWFlPic=

> <r_epik_Ionization_Penalty>
0.000857085

> <r_epik_Ionization_Penalty_Charging>
0.000857085

> <r_epik_Ionization_Penalty_Neutral>
0

> <r_epik_State_Penalty>
1.45659

> <r_epik_Charging_Adjusted_Penalty>
1.45745

> <i_epik_Tot_Q>
-1

> <i_epik_Tot_abs_Q>
1

> <r_epik_Metal_State_Penalty>
1.45659

> <b_epik_Metal_Only>
0

> <s_lp_Force_Field>
OPLS_2005

> <r_lp_Energy>
4.31766

> <b_lp_Chiralities_Consistent>
1

> <s_lp_Variant>
AV-unprocessed.smi:726-6

> <Gold.Version>
5.8.1

> <Gold.Id.Protein>
6NUR|6NUR_protein|mol2

> <Gold.PLP.Fitness>
41.1681

> <Gold.PLP.PLP>
-29.7513

> <Gold.PLP.part.hbond>
-3.2956

> <Gold.PLP.part.metal>
0.0000

> <Gold.PLP.part.buried>
-2.3742

> <Gold.PLP.part.nonpolar>
-23.6809

> <Gold.PLP.part.repulsive>
0.1275

> <Gold.PLP.ligand.clash>
0.0000

> <Gold.PLP.ligand.torsion>
0.2328

> <Gold.PLP.Chemscore.Hbond>
3.8480

> <Gold.PLP.Chemscore.CHOScore>
0.0000

> <Gold.PLP.Chemscore.Metal>
0.0000

> <Gold.Chemscore.Hbonds>
donor molecule, donor type, donor heavy atom, donor atom, acceptor molecule, acceptor atom, score
      L1  H     8    24       P1  8028  1.00
      P1  H  7989  7998       L1    13  0.83
      P1  H  7997  8009       L1    14  2.00

> <Gold.PLP.Chemscore.Internal.Correction>
0.3385

> <Gold.Rescore>
     Score         DG    S(hbond)    S(metal)    S(lipo)     H(rot)  DE(clash)    DE(int)     intcor
     12.47     -15.15       2.79        0.00      49.24       2.11       0.00       2.68       ----

> <Gold.Chemscore.Fitness>
12.4729

> <Gold.Chemscore.DG>
-15.1524

> <Gold.Chemscore.ZeroCoef>
-5.4800

> <Gold.Chemscore.Hbond>
2.7902

> <Gold.Chemscore.Metal>
0.0000

> <Gold.Chemscore.Lipo>
49.2390

> <Gold.Chemscore.Internal_Hbond>
0.0000

> <Gold.Chemscore.DEClash>
0.0038

> <Gold.Chemscore.DEInternal>
2.6757

> <Gold.Chemscore.Rot>
2.1124

> <Gold.Chemscore.Internal.Correction>
   9.000000E+99

> <Gold.Chemscore.Hbonds>
donor molecule, donor type, donor heavy atom, donor atom, acceptor molecule, acceptor atom, score
      L1  H     8    24       P1  8028  0.93
      P1  H  7989  7998       L1    13  0.67
      P1  H  7997  8009       L1    14  1.00

> <Gold.Chemscore.Hbond.Weighted>
-9.3192

> <Gold.Chemscore.Metal.Weighted>
-0.0000

> <Gold.Chemscore.Lipo.Weighted>
-5.7610

> <Gold.Chemscore.Internal_Hbond.Weighted>
0.0000

> <Gold.Chemscore.DEClash.Weighted>
0.0038

> <Gold.Chemscore.DEInternal.Weighted>
2.6757

> <Gold.Chemscore.Rot.Weighted>
5.4078

> <Gold.Chemscore.Internal.Correction.Weighted>
   9.000000E+99

> <Gold.Protein.RotatedTorsions>
[ 6907 6896 6895 6894 ] final  -27.26 input  -60.11 | X-H torsion
[ 7974 7965 7964 7962 ] final  -63.67 input  175.53 | X-H torsion
[ 8008 7997 7996 7995 ] final -143.71 input   59.86 | X-H torsion
[ 10167 10162 10161 10158 ] final -128.76 input  -65.29 | X-H torsion
[ 10718 10713 10712 10709 ] final -133.82 input   66.30 | X-H torsion
[ 10763 10752 10751 10750 ] final   57.67 input  -60.55 | X-H torsion
[ 11005 11000 10999 10996 ] final  -82.67 input  -57.11 | X-H torsion

> <Gold.Protein.ActiveResidues>
 VAL166  LYS551  ARG553  GLY616  TRP617  ASP618  TYR619  PRO620  LYS621  CYS622 
 ASP623  PHE694  ASN695  SER759  ASP760  ASP761  ALA762  ILE779  LEU786  VAL792 
 PHE793  MET794  SER795  GLU796  ALA797  LYS798  CYS799  TRP800  GLU811  SER814 

> <Gold.Protein.RotatedAtoms>
  151.1494  135.0219  159.8661 H   0  0  0  0  0  0  0  0  0  0  0  0  # atno 6907 bound_to 6896
  152.5453  134.1407  159.8487 H   0  0  0  0  0  0  0  0  0  0  0  0  # atno 6908 bound_to 6896
  151.1490  133.4874  159.2628 H   0  0  0  0  0  0  0  0  0  0  0  0  # atno 6909 bound_to 6896
  145.7762  140.8786  143.0354 H   0  0  0  0  0  0  0  0  0  0  0  0  # atno 7974 bound_to 7965
  155.5151  140.0586  157.2917 H   0  0  0  0  0  0  0  0  0  0  0  0  # atno 8008 bound_to 7997
  154.4538  140.1962  156.0388 H   0  0  0  0  0  0  0  0  0  0  0  0  # atno 8009 bound_to 7997
  156.0757  140.3254  155.7635 H   0  0  0  0  0  0  0  0  0  0  0  0  # atno 8010 bound_to 7997
  139.9469  143.6100  152.2487 H   0  0  0  0  0  0  0  0  0  0  0  0  # atno 10167 bound_to 10162
  156.2490  130.7141  151.1033 H   0  0  0  0  0  0  0  0  0  0  0  0  # atno 10718 bound_to 10713
  152.9855  135.5633  154.5429 H   0  0  0  0  0  0  0  0  0  0  0  0  # atno 10763 bound_to 10752
  154.4880  135.2791  155.1521 H   0  0  0  0  0  0  0  0  0  0  0  0  # atno 10764 bound_to 10752
  154.3002  135.6309  153.5475 H   0  0  0  0  0  0  0  0  0  0  0  0  # atno 10765 bound_to 10752
  141.1662  133.7256  156.8606 H   0  0  0  0  0  0  0  0  0  0  0  0  # atno 11005 bound_to 11000
  144.6804  139.9925  143.7484 LP  0  0  0  0  0  0  0  0  0  0  0  0  # atno 17320 bound_to 7965
  146.0120  139.3178  143.0864 LP  0  0  0  0  0  0  0  0  0  0  0  0  # atno 17321 bound_to 7965
  139.6660  144.7662  151.1873 LP  0  0  0  0  0  0  0  0  0  0  0  0  # atno 17342 bound_to 10162
  140.7594  143.5937  150.8770 LP  0  0  0  0  0  0  0  0  0  0  0  0  # atno 17343 bound_to 10162
  157.7206  131.0683  150.6149 LP  0  0  0  0  0  0  0  0  0  0  0  0  # atno 17370 bound_to 10713
  156.6227  130.4410  149.5816 LP  0  0  0  0  0  0  0  0  0  0  0  0  # atno 17371 bound_to 10713
  140.1851  134.9006  157.2994 LP  0  0  0  0  0  0  0  0  0  0  0  0  # atno 17394 bound_to 11000
  140.2352  134.3861  155.7504 LP  0  0  0  0  0  0  0  0  0  0  0  0  # atno 17395 bound_to 11000

$$$$
