AV-unprocessed.smi:1545|AV-procd|sdf|6215|dock6
  -GOLD-   22720 6383D 1   1.00000     0.00000
 Structure written by MMmdl.
 42 44  0  0  0  0  0  0  0  0  2 V2000
  146.5620  136.7401  153.1252 O   0  0  0  0  0  0  0  0  0  0  0  0
  146.0363  135.5211  153.6035 C   0  0  0  0  0  0  0  0  0  0  0  0
  147.1082  134.7614  154.3956 C   0  0  0  0  0  0  0  0  0  0  0  0
  147.4256  135.4287  155.6477 N   0  0  0  0  0  0  0  0  0  0  0  0
  148.5239  136.2934  155.6973 C   0  0  0  0  0  0  0  0  0  0  0  0
  149.2415  136.7344  154.6297 N   0  3  0  0  0  0  0  0  0  0  0  0
  150.2611  137.5673  155.0990 C   0  0  0  0  0  0  0  0  0  0  0  0
  151.2566  138.2579  154.4147 C   0  0  0  0  0  0  0  0  0  0  0  0
  152.1498  139.0207  155.1955 C   0  0  0  0  0  0  0  0  0  0  0  0
  152.0352  139.0779  156.5998 C   0  0  0  0  0  0  0  0  0  0  0  0
  151.0225  138.3755  157.2855 C   0  0  0  0  0  0  0  0  0  0  0  0
  150.1422  137.6237  156.5085 C   0  0  0  0  0  0  0  0  0  0  0  0
  149.0460  136.8170  156.8370 N   0  0  0  0  0  0  0  0  0  0  0  0
  148.6592  136.6485  158.2460 C   0  0  0  0  0  0  0  0  0  0  0  0
  148.3146  135.1860  158.5904 C   0  0  1  0  0  0  0  0  0  0  0  0
  149.4199  134.3794  158.2408 O   0  0  0  0  0  0  0  0  0  0  0  0
  147.9137  135.0202  160.0496 C   0  0  0  0  0  0  0  0  0  0  0  0
  147.5624  133.7516  160.5620 C   0  0  0  0  0  0  0  0  0  0  0  0
  147.2189  133.6054  161.9199 C   0  0  0  0  0  0  0  0  0  0  0  0
  147.2301  134.7246  162.7743 C   0  0  0  0  0  0  0  0  0  0  0  0
  147.5842  135.9903  162.2703 C   0  0  0  0  0  0  0  0  0  0  0  0
  147.6034  137.0658  163.0926 F   0  0  0  0  0  0  0  0  0  0  0  0
  147.9224  136.1381  160.9114 C   0  0  0  0  0  0  0  0  0  0  0  0
  147.4763  136.6137  152.9212 H   0  0  0  0  0  0  0  0  0  0  0  0
  145.1996  135.7625  154.2593 H   0  0  0  0  0  0  0  0  0  0  0  0
  145.6381  134.9247  152.7814 H   0  0  0  0  0  0  0  0  0  0  0  0
  146.8014  133.7298  154.5746 H   0  0  0  0  0  0  0  0  0  0  0  0
  148.0230  134.7234  153.8032 H   0  0  0  0  0  0  0  0  0  0  0  0
  147.0017  135.0988  156.5033 H   0  0  0  0  0  0  0  0  0  0  0  0
  151.3483  138.2160  153.3391 H   0  0  0  0  0  0  0  0  0  0  0  0
  152.9394  139.5730  154.7070 H   0  0  0  0  0  0  0  0  0  0  0  0
  152.7390  139.6732  157.1634 H   0  0  0  0  0  0  0  0  0  0  0  0
  150.9441  138.4255  158.3616 H   0  0  0  0  0  0  0  0  0  0  0  0
  149.4769  137.0148  158.8680 H   0  0  0  0  0  0  0  0  0  0  0  0
  147.8085  137.3021  158.4431 H   0  0  0  0  0  0  0  0  0  0  0  0
  147.4851  134.8564  157.9639 H   0  0  0  0  0  0  0  0  0  0  0  0
  149.1170  133.6816  157.6797 H   0  0  0  0  0  0  0  0  0  0  0  0
  147.5617  132.8848  159.9174 H   0  0  0  0  0  0  0  0  0  0  0  0
  146.9537  132.6333  162.3084 H   0  0  0  0  0  0  0  0  0  0  0  0
  146.9723  134.6108  163.8168 H   0  0  0  0  0  0  0  0  0  0  0  0
  148.2004  137.1117  160.5350 H   0  0  0  0  0  0  0  0  0  0  0  0
  149.0521  136.4843  153.6679 H   0  0  0  0  0  0  0  0  0  0  0  0
  1  2  1  0  0  0  0
  1 24  1  0  0  0  0
  2  3  1  0  0  0  0
  2 25  1  0  0  0  0
  2 26  1  0  0  0  0
  3  4  1  0  0  0  0
  3 27  1  0  0  0  0
  3 28  1  0  0  0  0
  4  5  1  0  0  0  0
  4 29  1  0  0  0  0
  5 13  1  0  0  0  0
  5  6  2  0  0  0  0
  6  7  1  0  0  0  0
  6 42  1  0  0  0  0
  7 12  2  0  0  0  0
  7  8  1  0  0  0  0
  8  9  2  0  0  0  0
  8 30  1  0  0  0  0
  9 10  1  0  0  0  0
  9 31  1  0  0  0  0
 10 11  2  0  0  0  0
 10 32  1  0  0  0  0
 11 12  1  0  0  0  0
 11 33  1  0  0  0  0
 12 13  1  0  0  0  0
 13 14  1  0  0  0  0
 14 15  1  0  0  0  0
 14 34  1  0  0  0  0
 14 35  1  0  0  0  0
 15 16  1  0  0  0  0
 15 17  1  0  0  0  0
 15 36  1  0  0  0  0
 16 37  1  0  0  0  0
 17 23  1  0  0  0  0
 17 18  2  0  0  0  0
 18 19  1  0  0  0  0
 18 38  1  0  0  0  0
 19 20  2  0  0  0  0
 19 39  1  0  0  0  0
 20 21  1  0  0  0  0
 20 40  1  0  0  0  0
 21 22  1  0  0  0  0
 21 23  2  0  0  0  0
 23 41  1  0  0  0  0
M  CHG  1   6   1
M  END
> <s_m_source_file>
AV-unprocessed.smi

> <i_m_source_file_index>
1545

> <i_lp_mmshare_version>
43012

> <i_f3d_flags>
0

> <s_epik_input>
W09IXVtDSDJdW0NIMl1bTkhdYyhuMSluKGMoYzEyKVtjSF1bY0hdW2NIXVtjSF0yKVtDSDJdW0NASF0oW09IXSljM1tjSF1bY0hdW2NIXWMoRilbY0hdMw==

> <s_epik_cmdline>
J2VwaWtfcHl0aG9uJywgJy1waCcsICc3LjAnLCAnLXRuJywgJzgnLCAnLW1hJywgJzIwMCcsICctbWV0YWxfYmluZGluZycsICctaW1hZScsICc8aW5maWxlLm1hZT4nLCAnLW9tYWUnLCAnPG91dGZpbGUubWFlPic=

> <r_epik_Ionization_Penalty>
0.0688114

> <r_epik_Ionization_Penalty_Charging>
0.0688055

> <r_epik_Ionization_Penalty_Neutral>
5.85933e-06

> <r_epik_State_Penalty>
0.0602293

> <r_epik_Charging_Adjusted_Penalty>
0.129035

> <i_epik_Tot_Q>
1

> <i_epik_Tot_abs_Q>
1

> <r_epik_Metal_State_Penalty>
2.77411

> <b_epik_Metal_Only>
0

> <s_lp_Force_Field>
OPLS_2005

> <r_lp_Energy>
23.1511

> <b_lp_Chiralities_Consistent>
1

> <s_lp_Variant>
AV-unprocessed.smi:1545-2

> <Gold.Version>
5.8.1

> <Gold.Id.Protein>
6NUR|6NUR_protein|mol2

> <Gold.PLP.Fitness>
49.5102

> <Gold.PLP.PLP>
-38.3399

> <Gold.PLP.part.hbond>
-3.0000

> <Gold.PLP.part.metal>
0.0000

> <Gold.PLP.part.buried>
-3.9879

> <Gold.PLP.part.nonpolar>
-31.2267

> <Gold.PLP.part.repulsive>
0.0082

> <Gold.PLP.ligand.clash>
0.0000

> <Gold.PLP.ligand.torsion>
0.4341

> <Gold.PLP.Chemscore.Hbond>
4.0000

> <Gold.PLP.Chemscore.CHOScore>
0.0000

> <Gold.PLP.Chemscore.Metal>
0.0000

> <Gold.Chemscore.Hbonds>
donor molecule, donor type, donor heavy atom, donor atom, acceptor molecule, acceptor atom, score
      L1  H     1    24       P1  7948  1.00
      L1  H     6    42       P1  7948  2.00
      P1  H  6896  6907       L1    16  0.98

> <Gold.PLP.Chemscore.Internal.Correction>
0.0385

> <Gold.Rescore>
     Score         DG    S(hbond)    S(metal)    S(lipo)     H(rot)  DE(clash)    DE(int)     intcor
     17.14     -17.60       2.94        0.00      88.47       3.15       0.08       0.39       ----

> <Gold.Chemscore.Fitness>
17.1350

> <Gold.Chemscore.DG>
-17.5999

> <Gold.Chemscore.ZeroCoef>
-5.4800

> <Gold.Chemscore.Hbond>
2.9444

> <Gold.Chemscore.Metal>
0.0000

> <Gold.Chemscore.Lipo>
88.4676

> <Gold.Chemscore.Internal_Hbond>
0.0000

> <Gold.Chemscore.DEClash>
0.0798

> <Gold.Chemscore.DEInternal>
0.3851

> <Gold.Chemscore.Rot>
3.1505

> <Gold.Chemscore.Internal.Correction>
   9.000000E+99

> <Gold.Chemscore.Hbonds>
donor molecule, donor type, donor heavy atom, donor atom, acceptor molecule, acceptor atom, score
      L1  H     1    24       P1  7948  0.98
      L1  H     6    42       P1  7948  0.99
      P1  H  6896  6907       L1    16  0.77

> <Gold.Chemscore.Hbond.Weighted>
-9.8344

> <Gold.Chemscore.Metal.Weighted>
-0.0000

> <Gold.Chemscore.Lipo.Weighted>
-10.3507

> <Gold.Chemscore.Internal_Hbond.Weighted>
0.0000

> <Gold.Chemscore.DEClash.Weighted>
0.0798

> <Gold.Chemscore.DEInternal.Weighted>
0.3851

> <Gold.Chemscore.Rot.Weighted>
8.0652

> <Gold.Chemscore.Internal.Correction.Weighted>
   9.000000E+99

> <Gold.Protein.RotatedTorsions>
[ 6907 6896 6895 6894 ] final -116.69 input  -60.11 | X-H torsion
[ 7974 7965 7964 7962 ] final  -73.08 input  175.53 | X-H torsion
[ 8008 7997 7996 7995 ] final  158.27 input   59.86 | X-H torsion
[ 10167 10162 10161 10158 ] final  148.29 input  -65.29 | X-H torsion
[ 10718 10713 10712 10709 ] final -178.86 input   66.30 | X-H torsion
[ 10763 10752 10751 10750 ] final   76.83 input  -60.55 | X-H torsion
[ 11005 11000 10999 10996 ] final -126.52 input  -57.11 | X-H torsion

> <Gold.Protein.ActiveResidues>
 VAL166  LYS551  ARG553  GLY616  TRP617  ASP618  TYR619  PRO620  LYS621  CYS622 
 ASP623  PHE694  ASN695  SER759  ASP760  ASP761  ALA762  ILE779  LEU786  VAL792 
 PHE793  MET794  SER795  GLU796  ALA797  LYS798  CYS799  TRP800  GLU811  SER814 

> <Gold.Protein.RotatedAtoms>
  150.8076  133.8482  159.3197 H   0  0  0  0  0  0  0  0  0  0  0  0  # atno 6907 bound_to 6896
  151.6276  135.1024  160.0124 H   0  0  0  0  0  0  0  0  0  0  0  0  # atno 6908 bound_to 6896
  152.4167  133.7009  159.6480 H   0  0  0  0  0  0  0  0  0  0  0  0  # atno 6909 bound_to 6896
  145.6569  140.9265  143.0955 H   0  0  0  0  0  0  0  0  0  0  0  0  # atno 7974 bound_to 7965
  156.2313  140.1863  156.7235 H   0  0  0  0  0  0  0  0  0  0  0  0  # atno 8008 bound_to 7997
  154.6027  140.0633  156.9418 H   0  0  0  0  0  0  0  0  0  0  0  0  # atno 8009 bound_to 7997
  155.2147  140.3302  155.4326 H   0  0  0  0  0  0  0  0  0  0  0  0  # atno 8010 bound_to 7997
  139.4877  144.5691  151.7089 H   0  0  0  0  0  0  0  0  0  0  0  0  # atno 10167 bound_to 10162
  156.8505  130.9717  151.3092 H   0  0  0  0  0  0  0  0  0  0  0  0  # atno 10718 bound_to 10713
  153.0754  135.4937  154.8393 H   0  0  0  0  0  0  0  0  0  0  0  0  # atno 10763 bound_to 10752
  154.7080  135.3014  154.9243 H   0  0  0  0  0  0  0  0  0  0  0  0  # atno 10764 bound_to 10752
  153.9946  135.6774  153.4809 H   0  0  0  0  0  0  0  0  0  0  0  0  # atno 10765 bound_to 10752
  140.9675  134.0852  157.3905 H   0  0  0  0  0  0  0  0  0  0  0  0  # atno 11005 bound_to 11000
  144.7103  139.8398  143.7417 LP  0  0  0  0  0  0  0  0  0  0  0  0  # atno 17320 bound_to 7965
  146.1158  139.4168  143.0259 LP  0  0  0  0  0  0  0  0  0  0  0  0  # atno 17321 bound_to 7965
  140.5275  144.0783  150.6042 LP  0  0  0  0  0  0  0  0  0  0  0  0  # atno 17342 bound_to 10162
  140.3762  143.2827  152.0222 LP  0  0  0  0  0  0  0  0  0  0  0  0  # atno 17343 bound_to 10162
  157.6306  130.8726  149.9267 LP  0  0  0  0  0  0  0  0  0  0  0  0  # atno 17370 bound_to 10713
  156.0831  130.3671  150.0542 LP  0  0  0  0  0  0  0  0  0  0  0  0  # atno 17371 bound_to 10713
  139.8900  135.0109  156.6710 LP  0  0  0  0  0  0  0  0  0  0  0  0  # atno 17394 bound_to 11000
  140.7378  133.9004  155.8256 LP  0  0  0  0  0  0  0  0  0  0  0  0  # atno 17395 bound_to 11000

$$$$
