AV-unprocessed.smi:3084|AV-procd|sdf|11749|dock5
  -GOLD-   2272017143D 1   1.00000     0.00000
 Structure written by MMmdl.
 27 28  0  0  0  0  0  0  0  0  2 V2000
  149.1360  140.4111  154.4794 C   0  0  0  0  0  0  0  0  0  0  0  0
  148.3013  141.2491  155.1635 N   0  0  0  0  0  0  0  0  0  0  0  0
  149.1513  141.7238  156.0629 C   0  0  0  0  0  0  0  0  0  0  0  0
  150.3885  141.2391  155.9426 N   0  0  0  0  0  0  0  0  0  0  0  0
  151.5832  141.4919  156.7271 C   0  0  0  0  0  0  0  0  0  0  0  0
  151.3635  142.5284  157.8481 C   0  0  1  0  0  0  0  0  0  0  0  0
  152.4508  142.4729  158.9458 C   0  0  0  0  0  0  0  0  0  0  0  0
  152.2274  143.5563  160.0125 C   0  0  0  0  0  0  0  0  0  0  0  0
  152.1246  144.9404  159.3566 C   0  0  0  0  0  0  0  0  0  0  0  0
  151.0379  144.9467  158.2698 C   0  0  0  0  0  0  0  0  0  0  0  0
  151.2941  143.8897  157.2670 N   0  3  0  0  0  0  0  0  0  0  0  0
  150.3970  140.3640  154.9098 N   0  0  0  0  0  0  0  0  0  0  0  0
  148.8039  139.8164  153.6410 H   0  0  0  0  0  0  0  0  0  0  0  0
  148.8666  142.4389  156.8210 H   0  0  0  0  0  0  0  0  0  0  0  0
  151.9198  140.5447  157.1513 H   0  0  0  0  0  0  0  0  0  0  0  0
  152.3689  141.8271  156.0484 H   0  0  0  0  0  0  0  0  0  0  0  0
  150.3958  142.3288  158.3115 H   0  0  0  0  0  0  0  0  0  0  0  0
  152.4582  141.4947  159.4278 H   0  0  0  0  0  0  0  0  0  0  0  0
  153.4362  142.6023  158.4961 H   0  0  0  0  0  0  0  0  0  0  0  0
  151.3119  143.3433  160.5661 H   0  0  0  0  0  0  0  0  0  0  0  0
  153.0408  143.5433  160.7387 H   0  0  0  0  0  0  0  0  0  0  0  0
  151.9042  145.6968  160.1107 H   0  0  0  0  0  0  0  0  0  0  0  0
  153.0860  145.2110  158.9177 H   0  0  0  0  0  0  0  0  0  0  0  0
  150.0543  144.7897  158.7147 H   0  0  0  0  0  0  0  0  0  0  0  0
  151.0104  145.9141  157.7681 H   0  0  0  0  0  0  0  0  0  0  0  0
  152.1723  144.0882  156.8095 H   0  0  0  0  0  0  0  0  0  0  0  0
  150.5559  143.9117  156.5777 H   0  0  0  0  0  0  0  0  0  0  0  0
  1 12  2  0  0  0  0
  1  2  1  0  0  0  0
  1 13  1  0  0  0  0
  2  3  2  0  0  0  0
  3  4  1  0  0  0  0
  3 14  1  0  0  0  0
  4  5  1  0  0  0  0
  4 12  1  0  0  0  0
  5  6  1  0  0  0  0
  5 15  1  0  0  0  0
  5 16  1  0  0  0  0
  6 11  1  0  0  0  0
  6  7  1  0  0  0  0
  6 17  1  0  0  0  0
  7  8  1  0  0  0  0
  7 18  1  0  0  0  0
  7 19  1  0  0  0  0
  8  9  1  0  0  0  0
  8 20  1  0  0  0  0
  8 21  1  0  0  0  0
  9 10  1  0  0  0  0
  9 22  1  0  0  0  0
  9 23  1  0  0  0  0
 10 11  1  0  0  0  0
 10 24  1  0  0  0  0
 10 25  1  0  0  0  0
 11 26  1  0  0  0  0
 11 27  1  0  0  0  0
M  CHG  1  11   1
M  END
> <s_m_source_file>
AV-unprocessed.smi

> <i_m_source_file_index>
3084

> <i_lp_mmshare_version>
43012

> <i_f3d_flags>
0

> <s_epik_input>
bjFbY0hdbltjSF1uMVtDSDJdW0NAQEhdMltDSDJdW0NIMl1bQ0gyXVtDSDJdW05IXTI=

> <s_epik_cmdline>
J2VwaWtfcHl0aG9uJywgJy1waCcsICc3LjAnLCAnLXRuJywgJzgnLCAnLW1hJywgJzIwMCcsICctbWV0YWxfYmluZGluZycsICctaW1hZScsICc8aW5maWxlLm1hZT4nLCAnLW9tYWUnLCAnPG91dGZpbGUubWFlPic=

> <r_lp_tautomer_probability>
1

> <r_epik_Ionization_Penalty>
0.000475214

> <r_epik_Ionization_Penalty_Charging>
0.000474443

> <r_epik_Ionization_Penalty_Neutral>
7.70992e-07

> <r_epik_State_Penalty>
0.000294136

> <r_epik_Charging_Adjusted_Penalty>
0.000768579

> <i_epik_Tot_Q>
1

> <i_epik_Tot_abs_Q>
1

> <r_epik_Metal_State_Penalty>
-0

> <b_epik_Metal_Only>
0

> <s_lp_Force_Field>
OPLS_2005

> <r_lp_Energy>
15.8084

> <b_lp_Chiralities_Consistent>
1

> <s_lp_Variant>
AV-unprocessed.smi:3084-2

> <Gold.Version>
5.8.1

> <Gold.Id.Protein>
6NUR|6NUR_protein|mol2

> <Gold.PLP.Fitness>
40.4500

> <Gold.PLP.PLP>
-27.2441

> <Gold.PLP.part.hbond>
-2.0000

> <Gold.PLP.part.metal>
0.0000

> <Gold.PLP.part.buried>
-3.2395

> <Gold.PLP.part.nonpolar>
-21.6956

> <Gold.PLP.part.repulsive>
0.2064

> <Gold.PLP.ligand.clash>
0.0000

> <Gold.PLP.ligand.torsion>
0.1372

> <Gold.PLP.Chemscore.Hbond>
3.0000

> <Gold.PLP.Chemscore.CHOScore>
1.4919

> <Gold.PLP.Chemscore.Metal>
0.0000

> <Gold.Chemscore.Hbonds>
donor molecule, donor type, donor heavy atom, donor atom, acceptor molecule, acceptor atom, score
      L1  H    11    27       P1  8028  1.89
      P1  H  7989  7998       L1    12  1.00
      L1  C     1    13       P1  7957  0.73
      L1  C     3    14       P1  8028  0.49

> <Gold.PLP.Chemscore.Internal.Correction>
0.0047

> <Gold.Rescore>
     Score         DG    S(hbond)    S(metal)    S(lipo)     H(rot)  DE(clash)    DE(int)     intcor
     14.06     -15.37       1.87        0.00      64.22       1.51       1.10       0.21       ----

> <Gold.Chemscore.Fitness>
14.0644

> <Gold.Chemscore.DG>
-15.3708

> <Gold.Chemscore.ZeroCoef>
-5.4800

> <Gold.Chemscore.Hbond>
1.8665

> <Gold.Chemscore.Metal>
0.0000

> <Gold.Chemscore.Lipo>
64.2195

> <Gold.Chemscore.Internal_Hbond>
0.0000

> <Gold.Chemscore.DEClash>
1.0961

> <Gold.Chemscore.DEInternal>
0.2103

> <Gold.Chemscore.Rot>
1.5066

> <Gold.Chemscore.Internal.Correction>
   9.000000E+99

> <Gold.Chemscore.Hbonds>
donor molecule, donor type, donor heavy atom, donor atom, acceptor molecule, acceptor atom, score
      L1  H    11    27       P1  8028  0.87
      P1  H  7989  7998       L1    12  0.64

> <Gold.Chemscore.Hbond.Weighted>
-6.2340

> <Gold.Chemscore.Metal.Weighted>
-0.0000

> <Gold.Chemscore.Lipo.Weighted>
-7.5137

> <Gold.Chemscore.Internal_Hbond.Weighted>
0.0000

> <Gold.Chemscore.DEClash.Weighted>
1.0961

> <Gold.Chemscore.DEInternal.Weighted>
0.2103

> <Gold.Chemscore.Rot.Weighted>
3.8569

> <Gold.Chemscore.Internal.Correction.Weighted>
   9.000000E+99

> <Gold.Protein.RotatedTorsions>
[ 6907 6896 6895 6894 ] final   94.47 input  -60.11 | X-H torsion
[ 7974 7965 7964 7962 ] final  107.48 input  175.53 | X-H torsion
[ 8008 7997 7996 7995 ] final -147.29 input   59.86 | X-H torsion
[ 10167 10162 10161 10158 ] final    6.57 input  -65.29 | X-H torsion
[ 10718 10713 10712 10709 ] final -144.70 input   66.30 | X-H torsion
[ 10763 10752 10751 10750 ] final   66.81 input  -60.55 | X-H torsion
[ 11005 11000 10999 10996 ] final -165.13 input  -57.11 | X-H torsion

> <Gold.Protein.ActiveResidues>
 VAL166  LYS551  ARG553  GLY616  TRP617  ASP618  TYR619  PRO620  LYS621  CYS622 
 ASP623  PHE694  ASN695  SER759  ASP760  ASP761  ALA762  ILE779  LEU786  VAL792 
 PHE793  MET794  SER795  GLU796  ALA797  LYS798  CYS799  TRP800  GLU811  SER814 

> <Gold.Protein.RotatedAtoms>
  152.5449  134.1189  159.8390 H   0  0  0  0  0  0  0  0  0  0  0  0  # atno 6907 bound_to 6896
  151.1247  133.5071  159.2608 H   0  0  0  0  0  0  0  0  0  0  0  0  # atno 6908 bound_to 6896
  151.1740  135.0341  159.8818 H   0  0  0  0  0  0  0  0  0  0  0  0  # atno 6909 bound_to 6896
  145.2931  139.2594  143.3854 H   0  0  0  0  0  0  0  0  0  0  0  0  # atno 7974 bound_to 7965
  155.5732  140.0636  157.2801 H   0  0  0  0  0  0  0  0  0  0  0  0  # atno 8008 bound_to 7997
  154.4355  140.1865  156.0946 H   0  0  0  0  0  0  0  0  0  0  0  0  # atno 8009 bound_to 7997
  156.0361  140.3301  155.7196 H   0  0  0  0  0  0  0  0  0  0  0  0  # atno 8010 bound_to 7997
  140.6420  143.7751  150.7443 H   0  0  0  0  0  0  0  0  0  0  0  0  # atno 10167 bound_to 10162
  156.3734  130.7799  151.1983 H   0  0  0  0  0  0  0  0  0  0  0  0  # atno 10718 bound_to 10713
  153.0157  135.5307  154.6882 H   0  0  0  0  0  0  0  0  0  0  0  0  # atno 10763 bound_to 10752
  154.6024  135.2869  155.0524 H   0  0  0  0  0  0  0  0  0  0  0  0  # atno 10764 bound_to 10752
  154.1576  135.6553  153.5030 H   0  0  0  0  0  0  0  0  0  0  0  0  # atno 10765 bound_to 10752
  140.5792  134.5159  157.5175 H   0  0  0  0  0  0  0  0  0  0  0  0  # atno 11005 bound_to 11000
  146.3178  140.3427  142.8649 LP  0  0  0  0  0  0  0  0  0  0  0  0  # atno 17320 bound_to 7965
  144.9156  140.7808  143.5780 LP  0  0  0  0  0  0  0  0  0  0  0  0  # atno 17321 bound_to 7965
  140.1384  143.4463  152.2209 LP  0  0  0  0  0  0  0  0  0  0  0  0  # atno 17342 bound_to 10162
  139.5630  144.7417  151.4102 LP  0  0  0  0  0  0  0  0  0  0  0  0  # atno 17343 bound_to 10162
  157.7486  131.0365  150.4415 LP  0  0  0  0  0  0  0  0  0  0  0  0  # atno 17370 bound_to 10713
  156.4646  130.4039  149.6555 LP  0  0  0  0  0  0  0  0  0  0  0  0  # atno 17371 bound_to 10713
  139.9325  134.7936  156.0891 LP  0  0  0  0  0  0  0  0  0  0  0  0  # atno 17394 bound_to 11000
  141.1007  133.6678  156.2748 LP  0  0  0  0  0  0  0  0  0  0  0  0  # atno 17395 bound_to 11000

$$$$
