AV-unprocessed.smi:1040|AV-procd|sdf|4524|dock9
  -GOLD-   22720 2543D 1   1.00000     0.00000
 Structure written by MMmdl.
 54 55  0  0  0  0  0  0  0  0  1 V2000
  147.0665  133.9617  157.2014 C   0  0  0  0  0  0  0  0  0  0  0  0
  146.7926  135.2048  158.0646 C   0  0  2  0  0  0  0  0  0  0  0  0
  147.4375  136.3509  157.4256 N   0  0  0  0  0  0  0  0  0  0  0  0
  148.7260  136.4092  157.0569 C   0  0  0  0  0  0  0  0  0  0  0  0
  149.5214  135.4873  157.2346 O   0  0  0  0  0  0  0  0  0  0  0  0
  149.0028  137.5889  156.4760 N   0  0  0  0  0  0  0  0  0  0  0  0
  150.2261  138.0893  155.9370 C   0  0  0  0  0  0  0  0  0  0  0  0
  151.4644  137.4049  156.0251 C   0  0  0  0  0  0  0  0  0  0  0  0
  152.6108  137.9789  155.4465 C   0  0  0  0  0  0  0  0  0  0  0  0
  152.4841  139.2190  154.7980 C   0  0  0  0  0  0  0  0  0  0  0  0
  151.3175  139.8879  154.7100 N   0  0  0  0  0  0  0  0  0  0  0  0
  150.2081  139.3438  155.2674 C   0  0  0  0  0  0  0  0  0  0  0  0
  149.0134  140.0855  155.1768 N   0  0  0  0  0  0  0  0  0  0  0  0
  148.5195  140.5507  156.4715 C   0  0  0  0  0  0  0  0  0  0  0  0
  147.0637  141.0344  156.3572 C   0  0  0  0  0  0  0  0  0  0  0  0
  146.9211  142.0960  155.2545 C   0  0  0  0  0  0  0  0  0  0  0  0
  147.4841  141.5654  153.9258 C   0  0  0  0  0  0  0  0  0  0  0  0
  148.9304  141.0710  154.0993 C   0  0  0  0  0  0  0  0  0  0  0  0
  147.3898  134.9585  159.4590 C   0  0  0  0  0  0  0  0  0  0  0  0
  148.6042  134.8050  159.5965 O   0  0  0  0  0  0  0  0  0  0  0  0
  146.5077  134.9089  160.4730 N   0  0  0  0  0  0  0  0  0  0  0  0
  146.7684  134.6851  161.8998 C   0  0  0  0  0  0  0  0  0  0  0  0
  147.6334  135.8609  162.3867 C   0  0  0  0  0  0  0  0  0  0  0  0
  147.5468  133.3696  162.1141 C   0  0  0  0  0  0  0  0  0  0  0  0
  145.4466  134.6714  162.6958 C   0  0  0  0  0  0  0  0  0  0  0  0
  146.6099  133.0706  157.6344 H   0  0  0  0  0  0  0  0  0  0  0  0
  148.1350  133.7685  157.0932 H   0  0  0  0  0  0  0  0  0  0  0  0
  146.6519  134.0839  156.2004 H   0  0  0  0  0  0  0  0  0  0  0  0
  145.7159  135.3725  158.1342 H   0  0  0  0  0  0  0  0  0  0  0  0
  146.8519  137.1502  157.2334 H   0  0  0  0  0  0  0  0  0  0  0  0
  148.2195  138.2192  156.3844 H   0  0  0  0  0  0  0  0  0  0  0  0
  151.5713  136.4552  156.5227 H   0  0  0  0  0  0  0  0  0  0  0  0
  153.5660  137.4779  155.4984 H   0  0  0  0  0  0  0  0  0  0  0  0
  153.3426  139.6887  154.3412 H   0  0  0  0  0  0  0  0  0  0  0  0
  148.5865  139.7592  157.2185 H   0  0  0  0  0  0  0  0  0  0  0  0
  149.1568  141.3651  156.8193 H   0  0  0  0  0  0  0  0  0  0  0  0
  146.4150  140.1862  156.1341 H   0  0  0  0  0  0  0  0  0  0  0  0
  146.7280  141.4388  157.3124 H   0  0  0  0  0  0  0  0  0  0  0  0
  145.8746  142.3779  155.1353 H   0  0  0  0  0  0  0  0  0  0  0  0
  147.4582  142.9998  155.5449 H   0  0  0  0  0  0  0  0  0  0  0  0
  146.8602  140.7463  153.5659 H   0  0  0  0  0  0  0  0  0  0  0  0
  147.4444  142.3438  153.1636 H   0  0  0  0  0  0  0  0  0  0  0  0
  149.5838  141.9148  154.3262 H   0  0  0  0  0  0  0  0  0  0  0  0
  149.2851  140.6300  153.1666 H   0  0  0  0  0  0  0  0  0  0  0  0
  145.5381  135.0483  160.2280 H   0  0  0  0  0  0  0  0  0  0  0  0
  147.8790  135.7621  163.4447 H   0  0  0  0  0  0  0  0  0  0  0  0
  147.1193  136.8144  162.2585 H   0  0  0  0  0  0  0  0  0  0  0  0
  148.5738  135.9181  161.8368 H   0  0  0  0  0  0  0  0  0  0  0  0
  148.4652  133.3513  161.5259 H   0  0  0  0  0  0  0  0  0  0  0  0
  146.9600  132.4940  161.8369 H   0  0  0  0  0  0  0  0  0  0  0  0
  147.8262  133.2458  163.1610 H   0  0  0  0  0  0  0  0  0  0  0  0
  145.6349  134.5996  163.7675 H   0  0  0  0  0  0  0  0  0  0  0  0
  144.8140  133.8258  162.4258 H   0  0  0  0  0  0  0  0  0  0  0  0
  144.8710  135.5818  162.5246 H   0  0  0  0  0  0  0  0  0  0  0  0
  1  2  1  0  0  0  0
  1 26  1  0  0  0  0
  1 27  1  0  0  0  0
  1 28  1  0  0  0  0
  2  3  1  0  0  0  0
  2 19  1  0  0  0  0
  2 29  1  0  0  0  0
  3  4  1  0  0  0  0
  3 30  1  0  0  0  0
  4  5  2  0  0  0  0
  4  6  1  0  0  0  0
  6  7  1  0  0  0  0
  6 31  1  0  0  0  0
  7 12  1  0  0  0  0
  7  8  2  0  0  0  0
  8  9  1  0  0  0  0
  8 32  1  0  0  0  0
  9 10  2  0  0  0  0
  9 33  1  0  0  0  0
 10 11  1  0  0  0  0
 10 34  1  0  0  0  0
 11 12  2  0  0  0  0
 12 13  1  0  0  0  0
 13 18  1  0  0  0  0
 13 14  1  0  0  0  0
 14 15  1  0  0  0  0
 14 35  1  0  0  0  0
 14 36  1  0  0  0  0
 15 16  1  0  0  0  0
 15 37  1  0  0  0  0
 15 38  1  0  0  0  0
 16 17  1  0  0  0  0
 16 39  1  0  0  0  0
 16 40  1  0  0  0  0
 17 18  1  0  0  0  0
 17 41  1  0  0  0  0
 17 42  1  0  0  0  0
 18 43  1  0  0  0  0
 18 44  1  0  0  0  0
 19 20  2  0  0  0  0
 19 21  1  0  0  0  0
 21 22  1  0  0  0  0
 21 45  1  0  0  0  0
 22 23  1  0  0  0  0
 22 24  1  0  0  0  0
 22 25  1  0  0  0  0
 23 46  1  0  0  0  0
 23 47  1  0  0  0  0
 23 48  1  0  0  0  0
 24 49  1  0  0  0  0
 24 50  1  0  0  0  0
 24 51  1  0  0  0  0
 25 52  1  0  0  0  0
 25 53  1  0  0  0  0
 25 54  1  0  0  0  0
M  END
> <s_m_source_file>
AV-unprocessed.smi

> <i_m_source_file_index>
1040

> <i_lp_mmshare_version>
43012

> <i_f3d_flags>
0

> <s_epik_input>
W0NIM11DKFtDSDNdKShbQ0gzXSlbTkhdQyg9TylbQ0BIXShbQ0gzXSlbTkhdQyg9TylbTkhdYzFbY0hdW2NIXVtjSF1uYzFOMltDSDJdW0NIMl1bQ0gyXVtDSDJdW0NIMl0y

> <s_epik_cmdline>
J2VwaWtfcHl0aG9uJywgJy1waCcsICc3LjAnLCAnLXRuJywgJzgnLCAnLW1hJywgJzIwMCcsICctbWV0YWxfYmluZGluZycsICctaW1hZScsICc8aW5maWxlLm1hZT4nLCAnLW9tYWUnLCAnPG91dGZpbGUubWFlPic=

> <r_lp_tautomer_probability>
1

> <r_epik_Ionization_Penalty>
0.0878593

> <r_epik_Ionization_Penalty_Charging>
0

> <r_epik_Ionization_Penalty_Neutral>
0.0878593

> <r_epik_State_Penalty>
0.07381

> <r_epik_Charging_Adjusted_Penalty>
0.07381

> <i_epik_Tot_Q>
0

> <i_epik_Tot_abs_Q>
0

> <r_epik_Metal_State_Penalty>
0.0646628

> <b_epik_Metal_Only>
0

> <s_lp_Force_Field>
OPLS_2005

> <r_lp_Energy>
21.1097

> <b_lp_Chiralities_Consistent>
1

> <s_lp_Variant>
AV-unprocessed.smi:1040-1

> <Gold.Version>
5.8.1

> <Gold.Id.Protein>
6NUR|6NUR_protein|mol2

> <Gold.PLP.Fitness>
39.3228

> <Gold.PLP.PLP>
-34.0183

> <Gold.PLP.part.hbond>
-2.0000

> <Gold.PLP.part.metal>
0.0000

> <Gold.PLP.part.buried>
-2.1422

> <Gold.PLP.part.nonpolar>
-29.9769

> <Gold.PLP.part.repulsive>
0.1356

> <Gold.PLP.ligand.clash>
0.0000

> <Gold.PLP.ligand.torsion>
0.4545

> <Gold.PLP.Chemscore.Hbond>
1.9760

> <Gold.PLP.Chemscore.CHOScore>
0.0000

> <Gold.PLP.Chemscore.Metal>
0.0000

> <Gold.Chemscore.Hbonds>
donor molecule, donor type, donor heavy atom, donor atom, acceptor molecule, acceptor atom, score
      P1  H  6896  6908       L1    20  0.92
      P1  H  7989  7998       L1    11  1.00

> <Gold.PLP.Chemscore.Internal.Correction>
0.2856

> <Gold.Rescore>
     Score         DG    S(hbond)    S(metal)    S(lipo)     H(rot)  DE(clash)    DE(int)     intcor
     10.16     -15.77       1.33        0.00      85.46       1.61       0.06       5.55       ----

> <Gold.Chemscore.Fitness>
10.1599

> <Gold.Chemscore.DG>
-15.7730

> <Gold.Chemscore.ZeroCoef>
-5.4800

> <Gold.Chemscore.Hbond>
1.3254

> <Gold.Chemscore.Metal>
0.0000

> <Gold.Chemscore.Lipo>
85.4597

> <Gold.Chemscore.Internal_Hbond>
0.0000

> <Gold.Chemscore.DEClash>
0.0591

> <Gold.Chemscore.DEInternal>
5.5541

> <Gold.Chemscore.Rot>
1.6143

> <Gold.Chemscore.Internal.Correction>
   9.000000E+99

> <Gold.Chemscore.Hbonds>
donor molecule, donor type, donor heavy atom, donor atom, acceptor molecule, acceptor atom, score
      P1  H  6896  6908       L1    20  0.84
      P1  H  7989  7998       L1    11  0.25

> <Gold.Chemscore.Hbond.Weighted>
-4.4268

> <Gold.Chemscore.Metal.Weighted>
-0.0000

> <Gold.Chemscore.Lipo.Weighted>
-9.9988

> <Gold.Chemscore.Internal_Hbond.Weighted>
0.0000

> <Gold.Chemscore.DEClash.Weighted>
0.0591

> <Gold.Chemscore.DEInternal.Weighted>
5.5541

> <Gold.Chemscore.Rot.Weighted>
4.1326

> <Gold.Chemscore.Internal.Correction.Weighted>
   9.000000E+99

> <Gold.Protein.RotatedTorsions>
[ 6907 6896 6895 6894 ] final  166.38 input  -60.11 | X-H torsion
[ 7974 7965 7964 7962 ] final  -59.23 input  175.53 | X-H torsion
[ 8008 7997 7996 7995 ] final  114.74 input   59.86 | X-H torsion
[ 10167 10162 10161 10158 ] final  -80.65 input  -65.29 | X-H torsion
[ 10718 10713 10712 10709 ] final -171.93 input   66.30 | X-H torsion
[ 10763 10752 10751 10750 ] final   80.20 input  -60.55 | X-H torsion
[ 11005 11000 10999 10996 ] final  141.12 input  -57.11 | X-H torsion

> <Gold.Protein.ActiveResidues>
 VAL166  LYS551  ARG553  GLY616  TRP617  ASP618  TYR619  PRO620  LYS621  CYS622 
 ASP623  PHE694  ASN695  SER759  ASP760  ASP761  ALA762  ILE779  LEU786  VAL792 
 PHE793  MET794  SER795  GLU796  ALA797  LYS798  CYS799  TRP800  GLU811  SER814 

> <Gold.Protein.RotatedAtoms>
  151.8798  133.3493  159.3762 H   0  0  0  0  0  0  0  0  0  0  0  0  # atno 6907 bound_to 6896
  150.7130  134.5030  159.5580 H   0  0  0  0  0  0  0  0  0  0  0  0  # atno 6908 bound_to 6896
  152.2579  134.8065  160.0486 H   0  0  0  0  0  0  0  0  0  0  0  0  # atno 6909 bound_to 6896
  145.8299  140.8486  143.0089 H   0  0  0  0  0  0  0  0  0  0  0  0  # atno 7974 bound_to 7965
  156.2339  140.2953  156.0262 H   0  0  0  0  0  0  0  0  0  0  0  0  # atno 8008 bound_to 7997
  155.2146  140.0413  157.2956 H   0  0  0  0  0  0  0  0  0  0  0  0  # atno 8009 bound_to 7997
  154.6045  140.2435  155.7757 H   0  0  0  0  0  0  0  0  0  0  0  0  # atno 8010 bound_to 7997
  140.4484  143.2491  151.8525 H   0  0  0  0  0  0  0  0  0  0  0  0  # atno 10167 bound_to 10162
  156.7480  130.9367  151.3113 H   0  0  0  0  0  0  0  0  0  0  0  0  # atno 10718 bound_to 10713
  153.1014  135.4811  154.8874 H   0  0  0  0  0  0  0  0  0  0  0  0  # atno 10763 bound_to 10752
  154.7383  135.3076  154.8775 H   0  0  0  0  0  0  0  0  0  0  0  0  # atno 10764 bound_to 10752
  153.9391  135.6836  153.4798 H   0  0  0  0  0  0  0  0  0  0  0  0  # atno 10765 bound_to 10752
  140.0378  134.9320  157.0785 H   0  0  0  0  0  0  0  0  0  0  0  0  # atno 11005 bound_to 11000
  144.6740  140.0657  143.7474 LP  0  0  0  0  0  0  0  0  0  0  0  0  # atno 17320 bound_to 7965
  145.9582  139.2781  143.1171 LP  0  0  0  0  0  0  0  0  0  0  0  0  # atno 17321 bound_to 7965
  139.4794  144.5149  151.8882 LP  0  0  0  0  0  0  0  0  0  0  0  0  # atno 17342 bound_to 10162
  140.4236  144.2210  150.5887 LP  0  0  0  0  0  0  0  0  0  0  0  0  # atno 17343 bound_to 10162
  157.6789  130.9121  150.0219 LP  0  0  0  0  0  0  0  0  0  0  0  0  # atno 17370 bound_to 10713
  156.1420  130.3642  149.9568 LP  0  0  0  0  0  0  0  0  0  0  0  0  # atno 17371 bound_to 10713
  140.4119  134.1972  155.7163 LP  0  0  0  0  0  0  0  0  0  0  0  0  # atno 17394 bound_to 11000
  141.1866  133.8298  157.1060 LP  0  0  0  0  0  0  0  0  0  0  0  0  # atno 17395 bound_to 11000

$$$$
