AV-unprocessed.smi:3019|AV-procd|sdf|11494|dock3
  -GOLD-   2272016433D 1   1.00000     0.00000
 Structure written by MMmdl.
 30 31  0  0  0  0  0  0  0  0  3 V2000
  152.6430  143.5547  158.6339 C   0  0  0  0  0  0  0  0  0  0  0  0
  152.2733  142.1184  159.0283 C   0  0  0  0  0  0  0  0  0  0  0  0
  153.3471  141.4333  159.8845 C   0  0  0  0  0  0  0  0  0  0  0  0
  151.9095  141.2829  157.8159 C   0  0  0  0  0  0  0  0  0  0  0  0
  152.5216  140.1498  157.4274 N   0  5  0  0  0  0  0  0  0  0  0  0
  151.9496  139.6833  156.3366 N   0  0  0  0  0  0  0  0  0  0  0  0
  150.9730  140.5557  156.0456 C   0  0  0  0  0  0  0  0  0  0  0  0
  150.0108  140.4095  154.8853 C   0  0  1  0  0  0  0  0  0  0  0  0
  149.9262  138.9428  154.4199 C   0  0  0  0  0  0  0  0  0  0  0  0
  148.9719  138.8137  153.3019 N   0  3  0  0  0  0  0  0  0  0  0  0
  147.6488  139.3662  153.6503 C   0  0  0  0  0  0  0  0  0  0  0  0
  147.7962  140.8166  154.1393 C   0  0  0  0  0  0  0  0  0  0  0  0
  148.7034  140.8610  155.2347 O   0  0  0  0  0  0  0  0  0  0  0  0
  150.9281  141.5389  156.9555 N   0  0  0  0  0  0  0  0  0  0  0  0
  151.8279  144.0324  158.0896 H   0  0  0  0  0  0  0  0  0  0  0  0
  153.5266  143.5735  157.9953 H   0  0  0  0  0  0  0  0  0  0  0  0
  152.8546  144.1621  159.5141 H   0  0  0  0  0  0  0  0  0  0  0  0
  151.3723  142.1797  159.6404 H   0  0  0  0  0  0  0  0  0  0  0  0
  153.0188  140.4442  160.2055 H   0  0  0  0  0  0  0  0  0  0  0  0
  153.5679  142.0156  160.7793 H   0  0  0  0  0  0  0  0  0  0  0  0
  154.2768  141.3114  159.3281 H   0  0  0  0  0  0  0  0  0  0  0  0
  150.3879  141.0319  154.0715 H   0  0  0  0  0  0  0  0  0  0  0  0
  150.9044  138.5839  154.0986 H   0  0  0  0  0  0  0  0  0  0  0  0
  149.6024  138.3026  155.2420 H   0  0  0  0  0  0  0  0  0  0  0  0
  149.3362  139.3217  152.5085 H   0  0  0  0  0  0  0  0  0  0  0  0
  146.9949  139.3183  152.7793 H   0  0  0  0  0  0  0  0  0  0  0  0
  147.1968  138.7503  154.4289 H   0  0  0  0  0  0  0  0  0  0  0  0
  148.1458  141.4665  153.3357 H   0  0  0  0  0  0  0  0  0  0  0  0
  146.8305  141.2036  154.4644 H   0  0  0  0  0  0  0  0  0  0  0  0
  148.8763  137.8392  153.0545 H   0  0  0  0  0  0  0  0  0  0  0  0
  1  2  1  0  0  0  0
  1 15  1  0  0  0  0
  1 16  1  0  0  0  0
  1 17  1  0  0  0  0
  2  3  1  0  0  0  0
  2  4  1  0  0  0  0
  2 18  1  0  0  0  0
  3 19  1  0  0  0  0
  3 20  1  0  0  0  0
  3 21  1  0  0  0  0
  4 14  2  0  0  0  0
  4  5  1  0  0  0  0
  5  6  1  0  0  0  0
  6  7  2  0  0  0  0
  7  8  1  0  0  0  0
  7 14  1  0  0  0  0
  8 13  1  0  0  0  0
  8  9  1  0  0  0  0
  8 22  1  0  0  0  0
  9 10  1  0  0  0  0
  9 23  1  0  0  0  0
  9 24  1  0  0  0  0
 10 11  1  0  0  0  0
 10 25  1  0  0  0  0
 10 30  1  0  0  0  0
 11 12  1  0  0  0  0
 11 26  1  0  0  0  0
 11 27  1  0  0  0  0
 12 13  1  0  0  0  0
 12 28  1  0  0  0  0
 12 29  1  0  0  0  0
M  CHG  1   5  -1
M  CHG  1  10   1
M  END
> <s_m_source_file>
AV-unprocessed.smi

> <i_m_source_file_index>
3019

> <i_lp_mmshare_version>
43012

> <i_f3d_flags>
0

> <s_epik_input>
W0NIM11bQ0hdKFtDSDNdKWMxbltuSF1jKG4xKVtDQEBIXTJbQ0gyXVtOSF1bQ0gyXVtDSDJdTzI=

> <s_epik_cmdline>
J2VwaWtfcHl0aG9uJywgJy1waCcsICc3LjAnLCAnLXRuJywgJzgnLCAnLW1hJywgJzIwMCcsICctbWV0YWxfYmluZGluZycsICctaW1hZScsICc8aW5maWxlLm1hZT4nLCAnLW9tYWUnLCAnPG91dGZpbGUubWFlPic=

> <r_lp_tautomer_probability>
0.948284

> <r_epik_Ionization_Penalty>
5.01189

> <r_epik_Ionization_Penalty_Charging>
5.01189

> <r_epik_Ionization_Penalty_Neutral>
1.51292e-13

> <r_epik_State_Penalty>
2.75157

> <r_epik_Charging_Adjusted_Penalty>
7.76346

> <i_epik_Tot_Q>
0

> <i_epik_Tot_abs_Q>
2

> <r_epik_Metal_State_Penalty>
0.54282

> <b_epik_Metal_Only>
1

> <s_lp_Force_Field>
OPLS_2005

> <r_lp_Energy>
3.4393

> <b_lp_Chiralities_Consistent>
1

> <s_lp_Variant>
AV-unprocessed.smi:3019-10

> <Gold.Version>
5.8.1

> <Gold.Id.Protein>
6NUR|6NUR_protein|mol2

> <Gold.PLP.Fitness>
41.0313

> <Gold.PLP.PLP>
-27.4332

> <Gold.PLP.part.hbond>
-2.9943

> <Gold.PLP.part.metal>
0.0000

> <Gold.PLP.part.buried>
-3.1743

> <Gold.PLP.part.nonpolar>
-22.0309

> <Gold.PLP.part.repulsive>
0.2365

> <Gold.PLP.ligand.clash>
0.0000

> <Gold.PLP.ligand.torsion>
0.7129

> <Gold.PLP.Chemscore.Hbond>
4.9840

> <Gold.PLP.Chemscore.CHOScore>
0.0000

> <Gold.PLP.Chemscore.Metal>
0.0000

> <Gold.Chemscore.Hbonds>
donor molecule, donor type, donor heavy atom, donor atom, acceptor molecule, acceptor atom, score
      L1  H    10    25       P1  7957  1.00
      L1  H    10    30       P1  7948  2.00
      P1  H  7997  8010       L1     5  1.98

> <Gold.PLP.Chemscore.Internal.Correction>
0.0720

> <Gold.Rescore>
     Score         DG    S(hbond)    S(metal)    S(lipo)     H(rot)  DE(clash)    DE(int)     intcor
     17.57     -18.35       2.80        0.00      57.71       1.26       0.11       0.67       ----

> <Gold.Chemscore.Fitness>
17.5673

> <Gold.Chemscore.DG>
-18.3495

> <Gold.Chemscore.ZeroCoef>
-5.4800

> <Gold.Chemscore.Hbond>
2.7993

> <Gold.Chemscore.Metal>
0.0000

> <Gold.Chemscore.Lipo>
57.7083

> <Gold.Chemscore.Internal_Hbond>
0.0000

> <Gold.Chemscore.DEClash>
0.1103

> <Gold.Chemscore.DEInternal>
0.6720

> <Gold.Chemscore.Rot>
1.2625

> <Gold.Chemscore.Internal.Correction>
   9.000000E+99

> <Gold.Chemscore.Hbonds>
donor molecule, donor type, donor heavy atom, donor atom, acceptor molecule, acceptor atom, score
      L1  H    10    25       P1  7957  0.94
      L1  H    10    30       P1  7948  0.96
      P1  H  7997  8010       L1     5  0.22

> <Gold.Chemscore.Hbond.Weighted>
-9.3497

> <Gold.Chemscore.Metal.Weighted>
-0.0000

> <Gold.Chemscore.Lipo.Weighted>
-6.7519

> <Gold.Chemscore.Internal_Hbond.Weighted>
0.0000

> <Gold.Chemscore.DEClash.Weighted>
0.1103

> <Gold.Chemscore.DEInternal.Weighted>
0.6720

> <Gold.Chemscore.Rot.Weighted>
3.2320

> <Gold.Chemscore.Internal.Correction.Weighted>
   9.000000E+99

> <Gold.Protein.RotatedTorsions>
[ 6907 6896 6895 6894 ] final  121.23 input  -60.11 | X-H torsion
[ 7974 7965 7964 7962 ] final -121.21 input  175.53 | X-H torsion
[ 8008 7997 7996 7995 ] final   45.93 input   59.86 | X-H torsion
[ 10167 10162 10161 10158 ] final -148.29 input  -65.29 | X-H torsion
[ 10718 10713 10712 10709 ] final -177.17 input   66.30 | X-H torsion
[ 10763 10752 10751 10750 ] final  130.72 input  -60.55 | X-H torsion
[ 11005 11000 10999 10996 ] final -110.80 input  -57.11 | X-H torsion

> <Gold.Protein.ActiveResidues>
 VAL166  LYS551  ARG553  GLY616  TRP617  ASP618  TYR619  PRO620  LYS621  CYS622 
 ASP623  PHE694  ASN695  SER759  ASP760  ASP761  ALA762  ILE779  LEU786  VAL792 
 PHE793  MET794  SER795  GLU796  ALA797  LYS798  CYS799  TRP800  GLU811  SER814 

> <Gold.Protein.RotatedAtoms>
  152.4338  133.7323  159.6594 H   0  0  0  0  0  0  0  0  0  0  0  0  # atno 6907 bound_to 6896
  150.8219  133.8227  159.3141 H   0  0  0  0  0  0  0  0  0  0  0  0  # atno 6908 bound_to 6896
  151.5907  135.1056  160.0090 H   0  0  0  0  0  0  0  0  0  0  0  0  # atno 6909 bound_to 6896
  145.0429  140.8158  143.4255 H   0  0  0  0  0  0  0  0  0  0  0  0  # atno 7974 bound_to 7965
  155.3441  140.3410  155.4239 H   0  0  0  0  0  0  0  0  0  0  0  0  # atno 8008 bound_to 7997
  156.1798  140.1660  156.8331 H   0  0  0  0  0  0  0  0  0  0  0  0  # atno 8009 bound_to 7997
  154.5321  140.0743  156.8346 H   0  0  0  0  0  0  0  0  0  0  0  0  # atno 8010 bound_to 7997
  139.7545  143.8468  152.2594 H   0  0  0  0  0  0  0  0  0  0  0  0  # atno 10167 bound_to 10162
  156.8255  130.9635  151.3109 H   0  0  0  0  0  0  0  0  0  0  0  0  # atno 10718 bound_to 10713
  153.7627  135.3193  155.3339 H   0  0  0  0  0  0  0  0  0  0  0  0  # atno 10763 bound_to 10752
  154.8224  135.4593  154.0822 H   0  0  0  0  0  0  0  0  0  0  0  0  # atno 10764 bound_to 10752
  153.2058  135.6929  153.8259 H   0  0  0  0  0  0  0  0  0  0  0  0  # atno 10765 bound_to 10752
  141.0771  133.9283  157.2367 H   0  0  0  0  0  0  0  0  0  0  0  0  # atno 11005 bound_to 11000
  145.1625  139.2450  143.5384 LP  0  0  0  0  0  0  0  0  0  0  0  0  # atno 17320 bound_to 7965
  146.3511  140.1355  142.8596 LP  0  0  0  0  0  0  0  0  0  0  0  0  # atno 17321 bound_to 7965
  139.8457  144.7189  150.9276 LP  0  0  0  0  0  0  0  0  0  0  0  0  # atno 17342 bound_to 10162
  140.7801  143.3944  151.1255 LP  0  0  0  0  0  0  0  0  0  0  0  0  # atno 17343 bound_to 10162
  157.6434  130.8824  149.9492 LP  0  0  0  0  0  0  0  0  0  0  0  0  # atno 17370 bound_to 10713
  156.0964  130.3659  150.0298 LP  0  0  0  0  0  0  0  0  0  0  0  0  # atno 17371 bound_to 10713
  139.9583  135.0160  156.9191 LP  0  0  0  0  0  0  0  0  0  0  0  0  # atno 17394 bound_to 11000
  140.5549  134.0591  155.7380 LP  0  0  0  0  0  0  0  0  0  0  0  0  # atno 17395 bound_to 11000

$$$$
