AV-unprocessed.smi:1021|AV-procd|sdf|4457|dock5
  -GOLD-   22720 2433D 1   1.00000     0.00000
 Structure written by MMmdl.
 43 45  0  0  0  0  0  0  0  0  2 V2000
  146.2232  141.5541  153.4269 O   0  0  0  0  0  0  0  0  0  0  0  0
  147.4284  140.8580  153.6641 C   0  0  0  0  0  0  0  0  0  0  0  0
  148.2013  141.5024  154.8243 C   0  0  0  0  0  0  0  0  0  0  0  0
  149.6266  140.9419  154.9857 C   0  0  0  0  0  0  0  0  0  0  0  0
  150.4101  141.6090  156.0750 C   0  0  0  0  0  0  0  0  0  0  0  0
  150.4706  142.9455  156.3438 N   0  3  0  0  0  0  0  0  0  0  0  0
  151.3010  143.1726  157.4416 C   0  0  0  0  0  0  0  0  0  0  0  0
  151.6659  144.3549  158.0780 C   0  0  0  0  0  0  0  0  0  0  0  0
  152.5387  144.2373  159.1795 C   0  0  0  0  0  0  0  0  0  0  0  0
  153.0148  142.9810  159.6074 C   0  0  0  0  0  0  0  0  0  0  0  0
  152.6376  141.7893  158.9538 C   0  0  0  0  0  0  0  0  0  0  0  0
  151.7721  141.9138  157.8668 C   0  0  0  0  0  0  0  0  0  0  0  0
  151.1958  140.9805  156.9961 N   0  0  0  0  0  0  0  0  0  0  0  0
  151.4832  139.5470  157.1670 C   0  0  0  0  0  0  0  0  0  0  0  0
  151.9756  138.8742  155.8701 C   0  0  1  0  0  0  0  0  0  0  0  0
  153.3790  139.0073  155.7540 O   0  0  0  0  0  0  0  0  0  0  0  0
  151.5284  137.4228  155.7980 C   0  0  0  0  0  0  0  0  0  0  0  0
  151.9460  136.5070  156.7876 C   0  0  0  0  0  0  0  0  0  0  0  0
  151.5429  135.1589  156.7231 C   0  0  0  0  0  0  0  0  0  0  0  0
  150.7224  134.7181  155.6671 C   0  0  0  0  0  0  0  0  0  0  0  0
  150.3366  133.4218  155.6048 F   0  0  0  0  0  0  0  0  0  0  0  0
  150.3051  135.6262  154.6751 C   0  0  0  0  0  0  0  0  0  0  0  0
  150.7077  136.9745  154.7392 C   0  0  0  0  0  0  0  0  0  0  0  0
  145.5615  140.9314  153.1664 H   0  0  0  0  0  0  0  0  0  0  0  0
  147.2089  139.8108  153.8747 H   0  0  0  0  0  0  0  0  0  0  0  0
  148.0278  140.8853  152.7538 H   0  0  0  0  0  0  0  0  0  0  0  0
  148.2599  142.5767  154.6459 H   0  0  0  0  0  0  0  0  0  0  0  0
  147.6385  141.3734  155.7501 H   0  0  0  0  0  0  0  0  0  0  0  0
  149.5857  139.8737  155.2007 H   0  0  0  0  0  0  0  0  0  0  0  0
  150.1731  141.0514  154.0487 H   0  0  0  0  0  0  0  0  0  0  0  0
  151.3038  145.3184  157.7504 H   0  0  0  0  0  0  0  0  0  0  0  0
  152.8500  145.1280  159.7056 H   0  0  0  0  0  0  0  0  0  0  0  0
  153.6841  142.9298  160.4538 H   0  0  0  0  0  0  0  0  0  0  0  0
  153.0136  140.8335  159.2868 H   0  0  0  0  0  0  0  0  0  0  0  0
  152.1968  139.4154  157.9805 H   0  0  0  0  0  0  0  0  0  0  0  0
  150.5591  139.0727  157.4997 H   0  0  0  0  0  0  0  0  0  0  0  0
  151.5459  139.4032  155.0186 H   0  0  0  0  0  0  0  0  0  0  0  0
  153.6511  138.6039  154.9436 H   0  0  0  0  0  0  0  0  0  0  0  0
  152.5783  136.8337  157.6001 H   0  0  0  0  0  0  0  0  0  0  0  0
  151.8639  134.4624  157.4837 H   0  0  0  0  0  0  0  0  0  0  0  0
  149.6770  135.2883  153.8639 H   0  0  0  0  0  0  0  0  0  0  0  0
  150.3857  137.6629  153.9715 H   0  0  0  0  0  0  0  0  0  0  0  0
  149.9758  143.6495  155.8117 H   0  0  0  0  0  0  0  0  0  0  0  0
  1  2  1  0  0  0  0
  1 24  1  0  0  0  0
  2  3  1  0  0  0  0
  2 25  1  0  0  0  0
  2 26  1  0  0  0  0
  3  4  1  0  0  0  0
  3 27  1  0  0  0  0
  3 28  1  0  0  0  0
  4  5  1  0  0  0  0
  4 29  1  0  0  0  0
  4 30  1  0  0  0  0
  5 13  1  0  0  0  0
  5  6  2  0  0  0  0
  6  7  1  0  0  0  0
  6 43  1  0  0  0  0
  7 12  2  0  0  0  0
  7  8  1  0  0  0  0
  8  9  2  0  0  0  0
  8 31  1  0  0  0  0
  9 10  1  0  0  0  0
  9 32  1  0  0  0  0
 10 11  2  0  0  0  0
 10 33  1  0  0  0  0
 11 12  1  0  0  0  0
 11 34  1  0  0  0  0
 12 13  1  0  0  0  0
 13 14  1  0  0  0  0
 14 15  1  0  0  0  0
 14 35  1  0  0  0  0
 14 36  1  0  0  0  0
 15 16  1  0  0  0  0
 15 17  1  0  0  0  0
 15 37  1  0  0  0  0
 16 38  1  0  0  0  0
 17 23  1  0  0  0  0
 17 18  2  0  0  0  0
 18 19  1  0  0  0  0
 18 39  1  0  0  0  0
 19 20  2  0  0  0  0
 19 40  1  0  0  0  0
 20 21  1  0  0  0  0
 20 22  1  0  0  0  0
 22 23  2  0  0  0  0
 22 41  1  0  0  0  0
 23 42  1  0  0  0  0
M  CHG  1   6   1
M  END
> <s_m_source_file>
AV-unprocessed.smi

> <i_m_source_file_index>
1021

> <i_lp_mmshare_version>
43012

> <i_f3d_flags>
0

> <s_epik_input>
W09IXVtDSDJdW0NIMl1bQ0gyXWMobjEpbihjKGMxMilbY0hdW2NIXVtjSF1bY0hdMilbQ0gyXVtDQEhdKFtPSF0pYzNbY0hdW2NIXWMoRilbY0hdW2NIXTM=

> <s_epik_cmdline>
J2VwaWtfcHl0aG9uJywgJy1waCcsICc3LjAnLCAnLXRuJywgJzgnLCAnLW1hJywgJzIwMCcsICctbWV0YWxfYmluZGluZycsICctaW1hZScsICc8aW5maWxlLm1hZT4nLCAnLW9tYWUnLCAnPG91dGZpbGUubWFlPic=

> <r_epik_Ionization_Penalty>
0.786441

> <r_epik_Ionization_Penalty_Charging>
0.786439

> <r_epik_Ionization_Penalty_Neutral>
1.96029e-06

> <r_epik_State_Penalty>
0.816472

> <r_epik_Charging_Adjusted_Penalty>
1.60291

> <i_epik_Tot_Q>
1

> <i_epik_Tot_abs_Q>
1

> <r_epik_Metal_State_Penalty>
4.73733

> <b_epik_Metal_Only>
0

> <s_lp_Force_Field>
OPLS_2005

> <r_lp_Energy>
16.4086

> <b_lp_Chiralities_Consistent>
1

> <s_lp_Variant>
AV-unprocessed.smi:1021-4

> <Gold.Version>
5.8.1

> <Gold.Id.Protein>
6NUR|6NUR_protein|mol2

> <Gold.PLP.Fitness>
59.4549

> <Gold.PLP.PLP>
-48.7677

> <Gold.PLP.part.hbond>
-2.7113

> <Gold.PLP.part.metal>
0.0000

> <Gold.PLP.part.buried>
-5.9060

> <Gold.PLP.part.nonpolar>
-42.8093

> <Gold.PLP.part.repulsive>
0.0982

> <Gold.PLP.ligand.clash>
0.0000

> <Gold.PLP.ligand.torsion>
0.6842

> <Gold.PLP.Chemscore.Hbond>
3.9913

> <Gold.PLP.Chemscore.CHOScore>
0.0000

> <Gold.PLP.Chemscore.Metal>
0.0000

> <Gold.Chemscore.Hbonds>
donor molecule, donor type, donor heavy atom, donor atom, acceptor molecule, acceptor atom, score
      L1  H     1    24       P1 10175  0.98
      L1  H     6    43       P1  8028  1.98
      P1  H  7997  8008       L1    16  1.00

> <Gold.PLP.Chemscore.Internal.Correction>
0.0819

> <Gold.Rescore>
     Score         DG    S(hbond)    S(metal)    S(lipo)     H(rot)  DE(clash)    DE(int)     intcor
     20.71     -21.41       2.78        0.00     125.93       3.16       0.03       0.67       ----

> <Gold.Chemscore.Fitness>
20.7083

> <Gold.Chemscore.DG>
-21.4066

> <Gold.Chemscore.ZeroCoef>
-5.4800

> <Gold.Chemscore.Hbond>
2.7794

> <Gold.Chemscore.Metal>
0.0000

> <Gold.Chemscore.Lipo>
125.9332

> <Gold.Chemscore.Internal_Hbond>
0.0000

> <Gold.Chemscore.DEClash>
0.0250

> <Gold.Chemscore.DEInternal>
0.6733

> <Gold.Chemscore.Rot>
3.1604

> <Gold.Chemscore.Internal.Correction>
   9.000000E+99

> <Gold.Chemscore.Hbonds>
donor molecule, donor type, donor heavy atom, donor atom, acceptor molecule, acceptor atom, score
      L1  H     1    24       P1 10175  0.43
      L1  H     6    43       P1  8028  0.90
      P1  H  7997  8008       L1    16  0.69

> <Gold.Chemscore.Hbond.Weighted>
-9.2831

> <Gold.Chemscore.Metal.Weighted>
-0.0000

> <Gold.Chemscore.Lipo.Weighted>
-14.7342

> <Gold.Chemscore.Internal_Hbond.Weighted>
0.0000

> <Gold.Chemscore.DEClash.Weighted>
0.0250

> <Gold.Chemscore.DEInternal.Weighted>
0.6733

> <Gold.Chemscore.Rot.Weighted>
8.0907

> <Gold.Chemscore.Internal.Correction.Weighted>
   9.000000E+99

> <Gold.Protein.RotatedTorsions>
[ 6907 6896 6895 6894 ] final   22.41 input  -60.11 | X-H torsion
[ 7974 7965 7964 7962 ] final  -90.36 input  175.53 | X-H torsion
[ 8008 7997 7996 7995 ] final  -31.26 input   59.86 | X-H torsion
[ 10167 10162 10161 10158 ] final   82.98 input  -65.29 | X-H torsion
[ 10718 10713 10712 10709 ] final  107.56 input   66.30 | X-H torsion
[ 10763 10752 10751 10750 ] final -112.97 input  -60.55 | X-H torsion
[ 11005 11000 10999 10996 ] final  106.11 input  -57.11 | X-H torsion

> <Gold.Protein.ActiveResidues>
 VAL166  LYS551  ARG553  GLY616  TRP617  ASP618  TYR619  PRO620  LYS621  CYS622 
 ASP623  PHE694  ASN695  SER759  ASP760  ASP761  ALA762  ILE779  LEU786  VAL792 
 PHE793  MET794  SER795  GLU796  ALA797  LYS798  CYS799  TRP800  GLU811  SER814 

> <Gold.Protein.RotatedAtoms>
  151.9267  135.0275  160.0525 H   0  0  0  0  0  0  0  0  0  0  0  0  # atno 6907 bound_to 6896
  152.2154  133.4938  159.5141 H   0  0  0  0  0  0  0  0  0  0  0  0  # atno 6908 bound_to 6896
  150.6986  134.1329  159.4119 H   0  0  0  0  0  0  0  0  0  0  0  0  # atno 6909 bound_to 6896
  145.4275  140.9554  143.2147 H   0  0  0  0  0  0  0  0  0  0  0  0  # atno 7974 bound_to 7965
  154.4220  140.1769  156.1538 H   0  0  0  0  0  0  0  0  0  0  0  0  # atno 8008 bound_to 7997
  155.9893  140.3370  155.6713 H   0  0  0  0  0  0  0  0  0  0  0  0  # atno 8009 bound_to 7997
  155.6394  140.0678  157.2614 H   0  0  0  0  0  0  0  0  0  0  0  0  # atno 8010 bound_to 7997
  139.9232  144.6199  150.8419 H   0  0  0  0  0  0  0  0  0  0  0  0  # atno 10167 bound_to 10162
  157.6623  131.0875  150.6174 H   0  0  0  0  0  0  0  0  0  0  0  0  # atno 10718 bound_to 10713
  154.8375  135.4471  154.1277 H   0  0  0  0  0  0  0  0  0  0  0  0  # atno 10763 bound_to 10752
  153.2496  135.6925  153.7700 H   0  0  0  0  0  0  0  0  0  0  0  0  # atno 10764 bound_to 10752
  153.7017  135.3371  155.3202 H   0  0  0  0  0  0  0  0  0  0  0  0  # atno 10765 bound_to 10752
  139.8810  134.9358  156.5617 H   0  0  0  0  0  0  0  0  0  0  0  0  # atno 11005 bound_to 11000
  144.8205  139.5801  143.6989 LP  0  0  0  0  0  0  0  0  0  0  0  0  # atno 17320 bound_to 7965
  146.2624  139.6442  142.9352 LP  0  0  0  0  0  0  0  0  0  0  0  0  # atno 17321 bound_to 7965
  140.7657  143.3282  151.2468 LP  0  0  0  0  0  0  0  0  0  0  0  0  # atno 17342 bound_to 10162
  139.6844  143.9799  152.2826 LP  0  0  0  0  0  0  0  0  0  0  0  0  # atno 17343 bound_to 10162
  156.6476  130.4476  149.5730 LP  0  0  0  0  0  0  0  0  0  0  0  0  # atno 17370 bound_to 10713
  156.2161  130.6709  151.1321 LP  0  0  0  0  0  0  0  0  0  0  0  0  # atno 17371 bound_to 10713
  140.8164  133.8388  155.8856 LP  0  0  0  0  0  0  0  0  0  0  0  0  # atno 17394 bound_to 11000
  140.9459  134.1841  157.4764 LP  0  0  0  0  0  0  0  0  0  0  0  0  # atno 17395 bound_to 11000

$$$$
