AV-unprocessed.smi:1900|AV-procd|sdf|7710|dock1
  -GOLD-   22720 9443D 1   1.00000     0.00000
 Structure written by MMmdl.
 44 45  0  0  0  0  0  0  0  0  2 V2000
  151.0114  142.3859  156.4602 C   0  0  0  0  0  0  0  0  0  0  0  0
  150.3620  141.0589  156.0518 C   0  0  1  0  0  0  0  0  0  0  0  0
  149.1742  141.2634  155.0923 C   0  0  0  0  0  0  0  0  0  0  0  0
  148.6208  139.9580  154.6594 N   0  3  1  0  0  0  0  0  0  0  0  0
  147.4378  140.1124  153.7756 C   0  0  0  0  0  0  0  0  0  0  0  0
  146.5702  138.8430  153.7203 C   0  0  0  0  0  0  0  0  0  0  0  0
  146.1011  138.5213  152.2917 C   0  0  0  0  0  0  0  0  0  0  0  0
  146.5361  137.1963  151.8640 N   0  0  0  0  0  0  0  0  0  0  0  0
  145.7173  136.1794  151.5591 C   0  0  0  0  0  0  0  0  0  0  0  0
  144.4900  136.2519  151.6258 O   0  0  0  0  0  0  0  0  0  0  0  0
  146.4082  135.0924  151.1781 N   0  0  0  0  0  0  0  0  0  0  0  0
  145.8854  133.8348  150.7834 C   0  0  0  0  0  0  0  0  0  0  0  0
  144.5501  133.6138  150.3497 C   0  0  0  0  0  0  0  0  0  0  0  0
  144.3453  132.3407  150.0433 N   0  0  0  0  0  0  0  0  0  0  0  0
  145.5376  131.7473  150.2760 N   0  0  0  0  0  0  0  0  0  0  0  0
  146.5047  132.6178  150.7278 C   0  0  0  0  0  0  0  0  0  0  0  0
  149.6918  139.1130  154.0753 C   0  0  0  0  0  0  0  0  0  0  0  0
  150.8661  138.9682  155.0618 C   0  0  1  0  0  0  0  0  0  0  0  0
  152.0285  138.1688  154.4626 C   0  0  0  0  0  0  0  0  0  0  0  0
  151.3484  140.2624  155.4051 O   0  0  0  0  0  0  0  0  0  0  0  0
  145.6742  130.7581  150.1240 H   0  0  0  0  0  0  0  0  0  0  0  0
  150.2986  143.0299  156.9757 H   0  0  0  0  0  0  0  0  0  0  0  0
  151.3845  142.9282  155.5908 H   0  0  0  0  0  0  0  0  0  0  0  0
  151.8528  142.2174  157.1328 H   0  0  0  0  0  0  0  0  0  0  0  0
  150.0225  140.5474  156.9543 H   0  0  0  0  0  0  0  0  0  0  0  0
  148.3971  141.8447  155.5907 H   0  0  0  0  0  0  0  0  0  0  0  0
  149.4892  141.8331  154.2163 H   0  0  0  0  0  0  0  0  0  0  0  0
  146.8192  140.9266  154.1559 H   0  0  0  0  0  0  0  0  0  0  0  0
  147.7567  140.4084  152.7750 H   0  0  0  0  0  0  0  0  0  0  0  0
  147.1223  137.9872  154.1084 H   0  0  0  0  0  0  0  0  0  0  0  0
  145.7037  138.9737  154.3699 H   0  0  0  0  0  0  0  0  0  0  0  0
  145.0150  138.5976  152.2175 H   0  0  0  0  0  0  0  0  0  0  0  0
  146.5115  139.2515  151.5939 H   0  0  0  0  0  0  0  0  0  0  0  0
  147.5313  137.0471  151.7810 H   0  0  0  0  0  0  0  0  0  0  0  0
  147.4142  135.1742  151.1599 H   0  0  0  0  0  0  0  0  0  0  0  0
  143.7389  134.3198  150.2498 H   0  0  0  0  0  0  0  0  0  0  0  0
  147.5098  132.2966  150.9574 H   0  0  0  0  0  0  0  0  0  0  0  0
  149.3045  138.1241  153.8333 H   0  0  0  0  0  0  0  0  0  0  0  0
  150.0377  139.5584  153.1410 H   0  0  0  0  0  0  0  0  0  0  0  0
  150.5264  138.4599  155.9659 H   0  0  0  0  0  0  0  0  0  0  0  0
  151.7127  137.1619  154.1887 H   0  0  0  0  0  0  0  0  0  0  0  0
  152.8474  138.0769  155.1766 H   0  0  0  0  0  0  0  0  0  0  0  0
  152.4207  138.6517  153.5670 H   0  0  0  0  0  0  0  0  0  0  0  0
  148.2993  139.4945  155.4973 H   0  0  0  0  0  0  0  0  0  0  0  0
  1  2  1  0  0  0  0
  1 22  1  0  0  0  0
  1 23  1  0  0  0  0
  1 24  1  0  0  0  0
  2 20  1  0  0  0  0
  2  3  1  0  0  0  0
  2 25  1  0  0  0  0
  3  4  1  0  0  0  0
  3 26  1  0  0  0  0
  3 27  1  0  0  0  0
  4  5  1  0  0  0  0
  4 17  1  0  0  0  0
  4 44  1  0  0  0  0
  5  6  1  0  0  0  0
  5 28  1  0  0  0  0
  5 29  1  0  0  0  0
  6  7  1  0  0  0  0
  6 30  1  0  0  0  0
  6 31  1  0  0  0  0
  7  8  1  0  0  0  0
  7 32  1  0  0  0  0
  7 33  1  0  0  0  0
  8  9  1  0  0  0  0
  8 34  1  0  0  0  0
  9 10  2  0  0  0  0
  9 11  1  0  0  0  0
 11 12  1  0  0  0  0
 11 35  1  0  0  0  0
 12 16  2  0  0  0  0
 12 13  1  0  0  0  0
 13 14  2  0  0  0  0
 13 36  1  0  0  0  0
 14 15  1  0  0  0  0
 15 21  1  0  0  0  0
 15 16  1  0  0  0  0
 16 37  1  0  0  0  0
 17 18  1  0  0  0  0
 17 38  1  0  0  0  0
 17 39  1  0  0  0  0
 18 19  1  0  0  0  0
 18 20  1  0  0  0  0
 18 40  1  0  0  0  0
 19 41  1  0  0  0  0
 19 42  1  0  0  0  0
 19 43  1  0  0  0  0
M  CHG  1   4   1
M  END
> <s_m_source_file>
AV-unprocessed.smi

> <i_m_source_file_index>
1900

> <i_lp_mmshare_version>
43012

> <i_f3d_flags>
0

> <s_epik_input>
W0NIM11bQ0BASF0xW0NIMl1OKFtDSDJdW0NASF0oTzEpW0NIM10pW0NIMl1bQ0gyXVtDSDJdW05IXUMoPU8pW05IXWMyW2NIXW5bbkhdW2NIXTI=

> <s_epik_cmdline>
J2VwaWtfcHl0aG9uJywgJy1waCcsICc3LjAnLCAnLXRuJywgJzgnLCAnLW1hJywgJzIwMCcsICctbWV0YWxfYmluZGluZycsICctaW1hZScsICc8aW5maWxlLm1hZT4nLCAnLW9tYWUnLCAnPG91dGZpbGUubWFlPic=

> <r_lp_tautomer_probability>
0.5

> <r_epik_Ionization_Penalty>
0.270543

> <r_epik_Ionization_Penalty_Charging>
0.270496

> <r_epik_Ionization_Penalty_Neutral>
4.67091e-05

> <r_epik_State_Penalty>
0.262618

> <r_epik_Charging_Adjusted_Penalty>
0.533114

> <i_epik_Tot_Q>
1

> <i_epik_Tot_abs_Q>
1

> <r_epik_Metal_State_Penalty>
0.262618

> <b_epik_Metal_Only>
0

> <s_lp_Force_Field>
OPLS_2005

> <r_lp_Energy>
18.2287

> <b_lp_Chiralities_Consistent>
1

> <s_lp_Variant>
AV-unprocessed.smi:1900-2

> <Gold.Version>
5.8.1

> <Gold.Id.Protein>
6NUR|6NUR_protein|mol2

> <Gold.PLP.Fitness>
45.1474

> <Gold.PLP.PLP>
-33.2162

> <Gold.PLP.part.hbond>
-3.0000

> <Gold.PLP.part.metal>
0.0000

> <Gold.PLP.part.buried>
-5.1109

> <Gold.PLP.part.nonpolar>
-27.1351

> <Gold.PLP.part.repulsive>
1.5577

> <Gold.PLP.ligand.clash>
0.0000

> <Gold.PLP.ligand.torsion>
0.9083

> <Gold.PLP.Chemscore.Hbond>
2.8437

> <Gold.PLP.Chemscore.CHOScore>
1.7168

> <Gold.PLP.Chemscore.Metal>
0.0000

> <Gold.Chemscore.Hbonds>
donor molecule, donor type, donor heavy atom, donor atom, acceptor molecule, acceptor atom, score
      L1  H     8    34       P1  7948  1.00
      L1  H    11    35       P1  7948  0.91
      P1  H  7989  7998       L1    20  0.78
      L1  C    13    36       P1 10186  0.29
      L1  C    16    37       P1 10747  1.00

> <Gold.PLP.Chemscore.Internal.Correction>
0.0662

> <Gold.Rescore>
     Score         DG    S(hbond)    S(metal)    S(lipo)     H(rot)  DE(clash)    DE(int)     intcor
     13.82     -16.30       1.88        0.00      81.14       1.93       0.37       2.12       ----

> <Gold.Chemscore.Fitness>
13.8179

> <Gold.Chemscore.DG>
-16.3025

> <Gold.Chemscore.ZeroCoef>
-5.4800

> <Gold.Chemscore.Hbond>
1.8810

> <Gold.Chemscore.Metal>
0.0000

> <Gold.Chemscore.Lipo>
81.1360

> <Gold.Chemscore.Internal_Hbond>
0.0000

> <Gold.Chemscore.DEClash>
0.3658

> <Gold.Chemscore.DEInternal>
2.1188

> <Gold.Chemscore.Rot>
1.9347

> <Gold.Chemscore.Internal.Correction>
   9.000000E+99

> <Gold.Chemscore.Hbonds>
donor molecule, donor type, donor heavy atom, donor atom, acceptor molecule, acceptor atom, score
      L1  H     8    34       P1  7948  0.98
      L1  H    11    35       P1  7948  0.44
      P1  H  7989  7998       L1    20  0.08

> <Gold.Chemscore.Hbond.Weighted>
-6.2824

> <Gold.Chemscore.Metal.Weighted>
-0.0000

> <Gold.Chemscore.Lipo.Weighted>
-9.4929

> <Gold.Chemscore.Internal_Hbond.Weighted>
0.0000

> <Gold.Chemscore.DEClash.Weighted>
0.3658

> <Gold.Chemscore.DEInternal.Weighted>
2.1188

> <Gold.Chemscore.Rot.Weighted>
4.9528

> <Gold.Chemscore.Internal.Correction.Weighted>
   9.000000E+99

> <Gold.Protein.RotatedTorsions>
[ 6907 6896 6895 6894 ] final -112.15 input  -60.11 | X-H torsion
[ 7974 7965 7964 7962 ] final  156.08 input  175.53 | X-H torsion
[ 8008 7997 7996 7995 ] final    5.66 input   59.86 | X-H torsion
[ 10167 10162 10161 10158 ] final   92.83 input  -65.29 | X-H torsion
[ 10718 10713 10712 10709 ] final  -56.73 input   66.30 | X-H torsion
[ 10763 10752 10751 10750 ] final  -84.73 input  -60.55 | X-H torsion
[ 11005 11000 10999 10996 ] final   41.23 input  -57.11 | X-H torsion

> <Gold.Protein.ActiveResidues>
 VAL166  LYS551  ARG553  GLY616  TRP617  ASP618  TYR619  PRO620  LYS621  CYS622 
 ASP623  PHE694  ASN695  SER759  ASP760  ASP761  ALA762  ILE779  LEU786  VAL792 
 PHE793  MET794  SER795  GLU796  ALA797  LYS798  CYS799  TRP800  GLU811  SER814 

> <Gold.Protein.RotatedAtoms>
  150.7739  133.9131  159.3375 H   0  0  0  0  0  0  0  0  0  0  0  0  # atno 6907 bound_to 6896
  151.7011  135.0928  160.0260 H   0  0  0  0  0  0  0  0  0  0  0  0  # atno 6908 bound_to 6896
  152.3767  133.6453  159.6165 H   0  0  0  0  0  0  0  0  0  0  0  0  # atno 6909 bound_to 6896
  144.7985  139.7155  143.6192 H   0  0  0  0  0  0  0  0  0  0  0  0  # atno 7974 bound_to 7965
  154.7312  140.2731  155.6455 H   0  0  0  0  0  0  0  0  0  0  0  0  # atno 8008 bound_to 7997
  156.2850  140.2715  156.1938 H   0  0  0  0  0  0  0  0  0  0  0  0  # atno 8009 bound_to 7997
  155.0379  140.0371  157.2488 H   0  0  0  0  0  0  0  0  0  0  0  0  # atno 8010 bound_to 7997
  139.8238  144.6719  150.9485 H   0  0  0  0  0  0  0  0  0  0  0  0  # atno 10167 bound_to 10162
  156.1266  130.4162  150.0344 H   0  0  0  0  0  0  0  0  0  0  0  0  # atno 10718 bound_to 10713
  154.6029  135.5510  153.7393 H   0  0  0  0  0  0  0  0  0  0  0  0  # atno 10763 bound_to 10752
  153.0162  135.6371  154.1688 H   0  0  0  0  0  0  0  0  0  0  0  0  # atno 10764 bound_to 10752
  154.1627  135.2896  155.3084 H   0  0  0  0  0  0  0  0  0  0  0  0  # atno 10765 bound_to 10752
  140.1855  134.4051  155.8176 H   0  0  0  0  0  0  0  0  0  0  0  0  # atno 11005 bound_to 11000
  146.2260  139.5723  142.9587 LP  0  0  0  0  0  0  0  0  0  0  0  0  # atno 17320 bound_to 7965
  145.5613  141.0404  143.2225 LP  0  0  0  0  0  0  0  0  0  0  0  0  # atno 17321 bound_to 7965
  140.7811  143.4066  151.1061 LP  0  0  0  0  0  0  0  0  0  0  0  0  # atno 17342 bound_to 10162
  139.7724  143.8474  152.3123 LP  0  0  0  0  0  0  0  0  0  0  0  0  # atno 17343 bound_to 10162
  156.8268  130.9378  151.3639 LP  0  0  0  0  0  0  0  0  0  0  0  0  # atno 17370 bound_to 10713
  157.6447  130.8834  149.9515 LP  0  0  0  0  0  0  0  0  0  0  0  0  # atno 17371 bound_to 10713
  141.2224  133.7021  156.8004 LP  0  0  0  0  0  0  0  0  0  0  0  0  # atno 17394 bound_to 11000
  140.2219  134.8750  157.3386 LP  0  0  0  0  0  0  0  0  0  0  0  0  # atno 17395 bound_to 11000

$$$$
