AV-unprocessed.smi:1957|AV-procd|sdf|7904|dock7
  -GOLD-   2272010 63D 1   1.00000     0.00000
 Structure written by MMmdl.
 42 43  0  0  0  0  0  0  0  0  1 V2000
  153.0510  141.3777  160.0203 C   0  0  0  0  0  0  0  0  0  0  0  0
  152.2121  141.5697  158.8954 O   0  0  0  0  0  0  0  0  0  0  0  0
  152.1502  140.4244  158.0605 C   0  0  0  0  0  0  0  0  0  0  0  0
  151.3607  140.7642  156.7861 C   0  0  0  0  0  0  0  0  0  0  0  0
  151.0589  139.5656  155.9956 N   0  0  0  0  0  0  0  0  0  0  0  0
  149.7054  139.3138  155.8515 N   0  0  0  0  0  0  0  0  0  0  0  0
  149.3021  138.2954  155.1631 C   0  0  0  0  0  0  0  0  0  0  0  0
  147.8551  137.9966  154.9798 C   0  0  0  0  0  0  0  0  0  0  0  0
  146.9928  138.4682  155.7231 O   0  0  0  0  0  0  0  0  0  0  0  0
  147.5660  137.1785  153.9517 N   0  0  0  0  0  0  0  0  0  0  0  0
  146.2298  136.7490  153.5415 C   0  0  2  0  0  0  0  0  0  0  0  0
  146.2046  135.2217  153.2730 C   0  0  0  0  0  0  0  0  0  0  0  0
  145.1285  134.7223  152.2864 C   0  0  0  0  0  0  0  0  0  0  0  0
  143.6795  135.1331  152.6183 C   0  0  0  0  0  0  0  0  0  0  0  0
  143.4135  136.6449  152.8120 C   0  0  0  0  0  0  0  0  0  0  0  0
  144.3605  137.5155  152.1169 N   0  0  0  0  0  0  0  0  0  0  0  0
  145.6673  137.6312  152.4096 C   0  0  0  0  0  0  0  0  0  0  0  0
  146.3989  138.3988  151.7854 O   0  0  0  0  0  0  0  0  0  0  0  0
  150.2562  137.3962  154.5363 C   0  0  0  0  0  0  0  0  0  0  0  0
  151.5740  137.6554  154.6845 C   0  0  0  0  0  0  0  0  0  0  0  0
  152.0562  138.8054  155.4514 C   0  0  0  0  0  0  0  0  0  0  0  0
  153.2503  139.0682  155.5911 O   0  0  0  0  0  0  0  0  0  0  0  0
  153.0572  142.2812  160.6299 H   0  0  0  0  0  0  0  0  0  0  0  0
  154.0775  141.1701  159.7154 H   0  0  0  0  0  0  0  0  0  0  0  0
  152.6961  140.5545  160.6416 H   0  0  0  0  0  0  0  0  0  0  0  0
  153.1542  140.0769  157.8115 H   0  0  0  0  0  0  0  0  0  0  0  0
  151.6500  139.6141  158.5924 H   0  0  0  0  0  0  0  0  0  0  0  0
  150.4350  141.2770  157.0529 H   0  0  0  0  0  0  0  0  0  0  0  0
  151.9247  141.4817  156.1873 H   0  0  0  0  0  0  0  0  0  0  0  0
  148.3357  136.8402  153.3912 H   0  0  0  0  0  0  0  0  0  0  0  0
  145.5803  136.9399  154.3969 H   0  0  0  0  0  0  0  0  0  0  0  0
  147.1739  134.9081  152.8830 H   0  0  0  0  0  0  0  0  0  0  0  0
  146.0897  134.6991  154.2234 H   0  0  0  0  0  0  0  0  0  0  0  0
  145.3767  135.0604  151.2794 H   0  0  0  0  0  0  0  0  0  0  0  0
  145.1796  133.6342  152.2374 H   0  0  0  0  0  0  0  0  0  0  0  0
  143.0437  134.7740  151.8081 H   0  0  0  0  0  0  0  0  0  0  0  0
  143.3442  134.5999  153.5085 H   0  0  0  0  0  0  0  0  0  0  0  0
  142.4080  136.8844  152.4652 H   0  0  0  0  0  0  0  0  0  0  0  0
  143.4154  136.8913  153.8742 H   0  0  0  0  0  0  0  0  0  0  0  0
  143.9937  138.0834  151.3669 H   0  0  0  0  0  0  0  0  0  0  0  0
  149.9281  136.5404  153.9643 H   0  0  0  0  0  0  0  0  0  0  0  0
  152.2947  136.9958  154.2237 H   0  0  0  0  0  0  0  0  0  0  0  0
  1  2  1  0  0  0  0
  1 23  1  0  0  0  0
  1 24  1  0  0  0  0
  1 25  1  0  0  0  0
  2  3  1  0  0  0  0
  3  4  1  0  0  0  0
  3 26  1  0  0  0  0
  3 27  1  0  0  0  0
  4  5  1  0  0  0  0
  4 28  1  0  0  0  0
  4 29  1  0  0  0  0
  5 21  1  0  0  0  0
  5  6  1  0  0  0  0
  6  7  2  0  0  0  0
  7  8  1  0  0  0  0
  7 19  1  0  0  0  0
  8  9  2  0  0  0  0
  8 10  1  0  0  0  0
 10 11  1  0  0  0  0
 10 30  1  0  0  0  0
 11 17  1  0  0  0  0
 11 12  1  0  0  0  0
 11 31  1  0  0  0  0
 12 13  1  0  0  0  0
 12 32  1  0  0  0  0
 12 33  1  0  0  0  0
 13 14  1  0  0  0  0
 13 34  1  0  0  0  0
 13 35  1  0  0  0  0
 14 15  1  0  0  0  0
 14 36  1  0  0  0  0
 14 37  1  0  0  0  0
 15 16  1  0  0  0  0
 15 38  1  0  0  0  0
 15 39  1  0  0  0  0
 16 17  1  0  0  0  0
 16 40  1  0  0  0  0
 17 18  2  0  0  0  0
 19 20  2  0  0  0  0
 19 41  1  0  0  0  0
 20 21  1  0  0  0  0
 20 42  1  0  0  0  0
 21 22  2  0  0  0  0
M  END
> <s_m_source_file>
AV-unprocessed.smi

> <i_m_source_file_index>
1957

> <i_lp_mmshare_version>
43012

> <i_f3d_flags>
0

> <s_epik_input>
W0NIM11PW0NIMl1bQ0gyXW4xbmMoW2NIXVtjSF1jMT1PKUMoPU8pW05IXVtDQEBIXTJbQ0gyXVtDSDJdW0NIMl1bQ0gyXVtOSF1DMj1P

> <s_epik_cmdline>
J2VwaWtfcHl0aG9uJywgJy1waCcsICc3LjAnLCAnLXRuJywgJzgnLCAnLW1hJywgJzIwMCcsICctbWV0YWxfYmluZGluZycsICctaW1hZScsICc8aW5maWxlLm1hZT4nLCAnLW9tYWUnLCAnPG91dGZpbGUubWFlPic=

> <r_lp_tautomer_probability>
1

> <r_epik_Ionization_Penalty>
2.17512e-06

> <r_epik_Ionization_Penalty_Charging>
5.0222e-09

> <r_epik_Ionization_Penalty_Neutral>
2.1701e-06

> <r_epik_State_Penalty>
-0

> <r_epik_Charging_Adjusted_Penalty>
5.0222e-09

> <i_epik_Tot_Q>
0

> <i_epik_Tot_abs_Q>
0

> <r_epik_Metal_State_Penalty>
-0

> <b_epik_Metal_Only>
0

> <s_lp_Force_Field>
OPLS_2005

> <r_lp_Energy>
35.215

> <b_lp_Chiralities_Consistent>
1

> <s_lp_Variant>
AV-unprocessed.smi:1957-1

> <Gold.Version>
5.8.1

> <Gold.Id.Protein>
6NUR|6NUR_protein|mol2

> <Gold.PLP.Fitness>
40.6967

> <Gold.PLP.PLP>
-32.5709

> <Gold.PLP.part.hbond>
-3.8449

> <Gold.PLP.part.metal>
0.0000

> <Gold.PLP.part.buried>
-5.1062

> <Gold.PLP.part.nonpolar>
-25.2886

> <Gold.PLP.part.repulsive>
0.4596

> <Gold.PLP.ligand.clash>
0.0000

> <Gold.PLP.ligand.torsion>
0.4578

> <Gold.PLP.Chemscore.Hbond>
2.9913

> <Gold.PLP.Chemscore.CHOScore>
0.0000

> <Gold.PLP.Chemscore.Metal>
0.0000

> <Gold.Chemscore.Hbonds>
donor molecule, donor type, donor heavy atom, donor atom, acceptor molecule, acceptor atom, score
      L1  H    10    30       P1  7948  1.00
      L1  H    16    40       P1 10171  1.00
      P1  H  7997  8008       L1    22  1.00

> <Gold.PLP.Chemscore.Internal.Correction>
0.0677

> <Gold.Rescore>
     Score         DG    S(hbond)    S(metal)    S(lipo)     H(rot)  DE(clash)    DE(int)     intcor
     17.31     -17.87       3.10        0.00      56.33       1.78       0.14       0.42       ----

> <Gold.Chemscore.Fitness>
17.3062

> <Gold.Chemscore.DG>
-17.8668

> <Gold.Chemscore.ZeroCoef>
-5.4800

> <Gold.Chemscore.Hbond>
3.0989

> <Gold.Chemscore.Metal>
0.0000

> <Gold.Chemscore.Lipo>
56.3316

> <Gold.Chemscore.Internal_Hbond>
0.0000

> <Gold.Chemscore.DEClash>
0.1418

> <Gold.Chemscore.DEInternal>
0.4188

> <Gold.Chemscore.Rot>
1.7791

> <Gold.Chemscore.Internal.Correction>
   9.000000E+99

> <Gold.Chemscore.Hbonds>
donor molecule, donor type, donor heavy atom, donor atom, acceptor molecule, acceptor atom, score
      L1  H    10    30       P1  7948  0.95
      L1  H    16    40       P1 10171  0.98
      P1  H  7997  8008       L1    22  0.95

> <Gold.Chemscore.Hbond.Weighted>
-10.3504

> <Gold.Chemscore.Metal.Weighted>
-0.0000

> <Gold.Chemscore.Lipo.Weighted>
-6.5908

> <Gold.Chemscore.Internal_Hbond.Weighted>
0.0000

> <Gold.Chemscore.DEClash.Weighted>
0.1418

> <Gold.Chemscore.DEInternal.Weighted>
0.4188

> <Gold.Chemscore.Rot.Weighted>
4.5544

> <Gold.Chemscore.Internal.Correction.Weighted>
   9.000000E+99

> <Gold.Protein.RotatedTorsions>
[ 6907 6896 6895 6894 ] final -157.53 input  -60.11 | X-H torsion
[ 7974 7965 7964 7962 ] final   -5.75 input  175.53 | X-H torsion
[ 8008 7997 7996 7995 ] final  -14.61 input   59.86 | X-H torsion
[ 10167 10162 10161 10158 ] final   -9.07 input  -65.29 | X-H torsion
[ 10718 10713 10712 10709 ] final  121.32 input   66.30 | X-H torsion
[ 10763 10752 10751 10750 ] final -171.36 input  -60.55 | X-H torsion
[ 11005 11000 10999 10996 ] final   58.57 input  -57.11 | X-H torsion

> <Gold.Protein.ActiveResidues>
 VAL166  LYS551  ARG553  GLY616  TRP617  ASP618  TYR619  PRO620  LYS621  CYS622 
 ASP623  PHE694  ASN695  SER759  ASP760  ASP761  ALA762  ILE779  LEU786  VAL792 
 PHE793  MET794  SER795  GLU796  ALA797  LYS798  CYS799  TRP800  GLU811  SER814 

> <Gold.Protein.RotatedAtoms>
  151.3043  133.4108  159.2641 H   0  0  0  0  0  0  0  0  0  0  0  0  # atno 6907 bound_to 6896
  151.0169  134.9440  159.8048 H   0  0  0  0  0  0  0  0  0  0  0  0  # atno 6908 bound_to 6896
  152.5314  134.3006  159.9129 H   0  0  0  0  0  0  0  0  0  0  0  0  # atno 6909 bound_to 6896
  146.2346  140.2067  142.8334 H   0  0  0  0  0  0  0  0  0  0  0  0  # atno 7974 bound_to 7965
  154.5196  140.2218  155.9000 H   0  0  0  0  0  0  0  0  0  0  0  0  # atno 8008 bound_to 7997
  156.1647  140.3134  155.8833 H   0  0  0  0  0  0  0  0  0  0  0  0  # atno 8009 bound_to 7997
  155.3680  140.0465  157.3036 H   0  0  0  0  0  0  0  0  0  0  0  0  # atno 8010 bound_to 7997
  140.7077  143.5899  150.8905 H   0  0  0  0  0  0  0  0  0  0  0  0  # atno 10167 bound_to 10162
  157.5826  131.1073  150.8157 H   0  0  0  0  0  0  0  0  0  0  0  0  # atno 10718 bound_to 10713
  154.6314  135.2887  155.0212 H   0  0  0  0  0  0  0  0  0  0  0  0  # atno 10763 bound_to 10752
  154.1372  135.6524  153.4938 H   0  0  0  0  0  0  0  0  0  0  0  0  # atno 10764 bound_to 10752
  153.0281  135.5324  154.7143 H   0  0  0  0  0  0  0  0  0  0  0  0  # atno 10765 bound_to 10752
  140.0368  134.5932  155.9434 H   0  0  0  0  0  0  0  0  0  0  0  0  # atno 11005 bound_to 11000
  144.9739  140.8395  143.5438 LP  0  0  0  0  0  0  0  0  0  0  0  0  # atno 17320 bound_to 7965
  145.2052  139.2232  143.5172 LP  0  0  0  0  0  0  0  0  0  0  0  0  # atno 17321 bound_to 7965
  139.9624  143.6148  152.2998 LP  0  0  0  0  0  0  0  0  0  0  0  0  # atno 17342 bound_to 10162
  139.6706  144.7661  151.1790 LP  0  0  0  0  0  0  0  0  0  0  0  0  # atno 17343 bound_to 10162
  156.8600  130.5110  149.5304 LP  0  0  0  0  0  0  0  0  0  0  0  0  # atno 17370 bound_to 10713
  156.0873  130.5868  150.9670 LP  0  0  0  0  0  0  0  0  0  0  0  0  # atno 17371 bound_to 10713
  141.1861  133.6556  156.5227 LP  0  0  0  0  0  0  0  0  0  0  0  0  # atno 17394 bound_to 11000
  140.4135  134.7251  157.4849 LP  0  0  0  0  0  0  0  0  0  0  0  0  # atno 17395 bound_to 11000

$$$$
