AV-unprocessed.smi:867|AV-procd|sdf|3998|dock1
  -GOLD-   22720 1483D 1   1.00000     0.00000
 Structure written by MMmdl.
 54 57  0  0  0  0  0  0  0  0  3 V2000
  149.1056  141.0046  155.6216 O   0  0  0  0  0  0  0  0  0  0  0  0
  149.9769  140.1744  155.3599 C   0  0  0  0  0  0  0  0  0  0  0  0
  151.2355  140.2863  155.8196 N   0  0  0  0  0  0  0  0  0  0  0  0
  151.7364  141.3357  156.7038 C   0  0  0  0  0  0  0  0  0  0  0  0
  150.9703  141.3988  158.0389 C   0  0  0  0  0  0  0  0  0  0  0  0
  150.8765  142.7977  158.6222 C   0  0  0  0  0  0  0  0  0  0  0  0
  151.6991  143.1892  159.7020 C   0  0  0  0  0  0  0  0  0  0  0  0
  151.5984  144.5023  160.2068 C   0  0  0  0  0  0  0  0  0  0  0  0
  150.6761  145.3940  159.6222 C   0  0  0  0  0  0  0  0  0  0  0  0
  149.9037  144.9831  158.5927 N   0  3  0  0  0  0  0  0  0  0  0  0
  149.9695  143.7346  158.0812 C   0  0  0  0  0  0  0  0  0  0  0  0
  149.7677  139.1147  154.5395 N   0  0  0  0  0  0  0  0  0  0  0  0
  150.7570  138.0908  154.1780 C   0  0  0  0  0  0  0  0  0  0  0  0
  150.4362  136.7964  154.9475 C   0  0  0  0  0  0  0  0  0  0  0  0
  149.0437  136.3289  154.6875 N   0  3  0  0  0  0  0  0  0  0  0  0
  148.7111  135.0764  155.4261 C   0  0  2  0  0  0  0  0  0  0  0  0
  149.7514  133.9399  155.2661 C   0  0  0  0  0  0  0  0  0  0  0  0
  148.8854  132.7221  154.8919 C   0  0  2  0  0  0  0  0  0  0  0  0
  148.4505  132.8585  153.4230 C   0  0  0  0  0  0  0  0  0  0  0  0
  147.4338  134.0122  153.4821 C   0  0  0  0  0  0  0  0  0  0  0  0
  147.4034  134.3724  154.9839 C   0  0  1  0  0  0  0  0  0  0  0  0
  147.5813  133.0019  155.6290 C   0  0  0  0  0  0  0  0  0  0  0  0
  148.0400  137.4132  154.8921 C   0  0  0  0  0  0  0  0  0  0  0  0
  148.4236  138.6974  154.1340 C   0  0  0  0  0  0  0  0  0  0  0  0
  151.8997  139.5783  155.5423 H   0  0  0  0  0  0  0  0  0  0  0  0
  152.8061  141.2137  156.8830 H   0  0  0  0  0  0  0  0  0  0  0  0
  151.6260  142.2862  156.1813 H   0  0  0  0  0  0  0  0  0  0  0  0
  149.9583  141.0193  157.8942 H   0  0  0  0  0  0  0  0  0  0  0  0
  151.4397  140.7339  158.7653 H   0  0  0  0  0  0  0  0  0  0  0  0
  152.4047  142.4957  160.1359 H   0  0  0  0  0  0  0  0  0  0  0  0
  152.2207  144.8212  161.0301 H   0  0  0  0  0  0  0  0  0  0  0  0
  150.5338  146.4153  159.9441 H   0  0  0  0  0  0  0  0  0  0  0  0
  149.3054  143.5272  157.2547 H   0  0  0  0  0  0  0  0  0  0  0  0
  150.7049  137.9075  153.1038 H   0  0  0  0  0  0  0  0  0  0  0  0
  151.7889  138.3834  154.3710 H   0  0  0  0  0  0  0  0  0  0  0  0
  151.1587  136.0325  154.6625 H   0  0  0  0  0  0  0  0  0  0  0  0
  150.5652  136.9646  156.0181 H   0  0  0  0  0  0  0  0  0  0  0  0
  148.6224  135.3273  156.4851 H   0  0  0  0  0  0  0  0  0  0  0  0
  150.4978  134.1335  154.4951 H   0  0  0  0  0  0  0  0  0  0  0  0
  150.2797  133.7726  156.2055 H   0  0  0  0  0  0  0  0  0  0  0  0
  149.3513  131.7635  155.1221 H   0  0  0  0  0  0  0  0  0  0  0  0
  149.2876  133.0723  152.7572 H   0  0  0  0  0  0  0  0  0  0  0  0
  147.9718  131.9427  153.0736 H   0  0  0  0  0  0  0  0  0  0  0  0
  147.7209  134.8515  152.8485 H   0  0  0  0  0  0  0  0  0  0  0  0
  146.4535  133.6697  153.1486 H   0  0  0  0  0  0  0  0  0  0  0  0
  146.4952  134.8905  155.2934 H   0  0  0  0  0  0  0  0  0  0  0  0
  146.7845  132.2982  155.3808 H   0  0  0  0  0  0  0  0  0  0  0  0
  147.6971  133.0418  156.7138 H   0  0  0  0  0  0  0  0  0  0  0  0
  147.0570  137.0909  154.5500 H   0  0  0  0  0  0  0  0  0  0  0  0
  147.9512  137.6262  155.9587 H   0  0  0  0  0  0  0  0  0  0  0  0
  147.6737  139.4712  154.3051 H   0  0  0  0  0  0  0  0  0  0  0  0
  148.4139  138.5131  153.0587 H   0  0  0  0  0  0  0  0  0  0  0  0
  149.0035  136.0974  153.7052 H   0  0  0  0  0  0  0  0  0  0  0  0
  149.2435  145.6442  158.1826 H   0  0  0  0  0  0  0  0  0  0  0  0
  1  2  2  0  0  0  0
  2  3  1  0  0  0  0
  2 12  1  0  0  0  0
  3  4  1  0  0  0  0
  3 25  1  0  0  0  0
  4  5  1  0  0  0  0
  4 26  1  0  0  0  0
  4 27  1  0  0  0  0
  5  6  1  0  0  0  0
  5 28  1  0  0  0  0
  5 29  1  0  0  0  0
  6 11  1  0  0  0  0
  6  7  2  0  0  0  0
  7  8  1  0  0  0  0
  7 30  1  0  0  0  0
  8  9  2  0  0  0  0
  8 31  1  0  0  0  0
  9 10  1  0  0  0  0
  9 32  1  0  0  0  0
 10 11  2  0  0  0  0
 10 54  1  0  0  0  0
 11 33  1  0  0  0  0
 12 24  1  0  0  0  0
 12 13  1  0  0  0  0
 13 14  1  0  0  0  0
 13 34  1  0  0  0  0
 13 35  1  0  0  0  0
 14 15  1  0  0  0  0
 14 36  1  0  0  0  0
 14 37  1  0  0  0  0
 15 16  1  0  0  0  0
 15 23  1  0  0  0  0
 15 53  1  0  0  0  0
 16 21  1  0  0  0  0
 16 17  1  0  0  0  0
 16 38  1  0  0  0  0
 17 18  1  0  0  0  0
 17 39  1  0  0  0  0
 17 40  1  0  0  0  0
 18 22  1  0  0  0  0
 18 19  1  0  0  0  0
 18 41  1  0  0  0  0
 19 20  1  0  0  0  0
 19 42  1  0  0  0  0
 19 43  1  0  0  0  0
 20 21  1  0  0  0  0
 20 44  1  0  0  0  0
 20 45  1  0  0  0  0
 21 22  1  0  0  0  0
 21 46  1  0  0  0  0
 22 47  1  0  0  0  0
 22 48  1  0  0  0  0
 23 24  1  0  0  0  0
 23 49  1  0  0  0  0
 23 50  1  0  0  0  0
 24 51  1  0  0  0  0
 24 52  1  0  0  0  0
M  CHG  1  10   1
M  CHG  1  15   1
M  END
> <s_m_source_file>
AV-unprocessed.smi

> <i_m_source_file_index>
867

> <i_lp_mmshare_version>
43012

> <i_f3d_flags>
0

> <s_epik_input>
W0NIMl0xW0NIMl1bQ0BASF0oW0NIMl0yKVtDQEBIXShbQ0gyXVtDQEhdMTIpTihbQ0gyXVtDSDJdMylbQ0gyXVtDSDJdTjNDKD1PKVtOSF1bQ0gyXVtDSDJdYzRbY0hdW2NIXVtjSF1uW2NIXTQ=

> <s_epik_cmdline>
J2VwaWtfcHl0aG9uJywgJy1waCcsICc3LjAnLCAnLXRuJywgJzgnLCAnLW1hJywgJzIwMCcsICctbWV0YWxfYmluZGluZycsICctaW1hZScsICc8aW5maWxlLm1hZT4nLCAnLW9tYWUnLCAnPG91dGZpbGUubWFlPic=

> <r_epik_Ionization_Penalty>
2.25108

> <r_epik_Ionization_Penalty_Charging>
2.25105

> <r_epik_Ionization_Penalty_Neutral>
2.64641e-05

> <r_epik_State_Penalty>
2.39519

> <r_epik_Charging_Adjusted_Penalty>
4.64625

> <i_epik_Tot_Q>
2

> <i_epik_Tot_abs_Q>
2

> <r_epik_Metal_State_Penalty>
2.40865

> <b_epik_Metal_Only>
0

> <s_lp_Force_Field>
OPLS_2005

> <r_lp_Energy>
106.832

> <b_lp_Chiralities_Consistent>
1

> <s_lp_Variant>
AV-unprocessed.smi:867-5

> <Gold.Version>
5.8.1

> <Gold.Id.Protein>
6NUR|6NUR_protein|mol2

> <Gold.PLP.Fitness>
50.2142

> <Gold.PLP.PLP>
-39.1242

> <Gold.PLP.part.hbond>
-2.0000

> <Gold.PLP.part.metal>
0.0000

> <Gold.PLP.part.buried>
-5.6684

> <Gold.PLP.part.nonpolar>
-32.8036

> <Gold.PLP.part.repulsive>
0.4177

> <Gold.PLP.ligand.clash>
0.0000

> <Gold.PLP.ligand.torsion>
0.5247

> <Gold.PLP.Chemscore.Hbond>
4.0000

> <Gold.PLP.Chemscore.CHOScore>
0.0000

> <Gold.PLP.Chemscore.Metal>
0.0000

> <Gold.Chemscore.Hbonds>
donor molecule, donor type, donor heavy atom, donor atom, acceptor molecule, acceptor atom, score
      L1  H    10    54       P1  8029  2.00
      L1  H    15    53       P1  7948  2.00

> <Gold.PLP.Chemscore.Internal.Correction>
0.1394

> <Gold.Rescore>
     Score         DG    S(hbond)    S(metal)    S(lipo)     H(rot)  DE(clash)    DE(int)     intcor
     19.34     -20.63       1.86        0.00     108.41       1.46       0.76       0.53       ----

> <Gold.Chemscore.Fitness>
19.3434

> <Gold.Chemscore.DG>
-20.6323

> <Gold.Chemscore.ZeroCoef>
-5.4800

> <Gold.Chemscore.Hbond>
1.8559

> <Gold.Chemscore.Metal>
0.0000

> <Gold.Chemscore.Lipo>
108.4127

> <Gold.Chemscore.Internal_Hbond>
0.0000

> <Gold.Chemscore.DEClash>
0.7599

> <Gold.Chemscore.DEInternal>
0.5290

> <Gold.Chemscore.Rot>
1.4572

> <Gold.Chemscore.Internal.Correction>
   9.000000E+99

> <Gold.Chemscore.Hbonds>
donor molecule, donor type, donor heavy atom, donor atom, acceptor molecule, acceptor atom, score
      L1  H    10    54       P1  8029  0.74
      L1  H    15    53       P1  7948  0.97

> <Gold.Chemscore.Hbond.Weighted>
-6.1986

> <Gold.Chemscore.Metal.Weighted>
-0.0000

> <Gold.Chemscore.Lipo.Weighted>
-12.6843

> <Gold.Chemscore.Internal_Hbond.Weighted>
0.0000

> <Gold.Chemscore.DEClash.Weighted>
0.7599

> <Gold.Chemscore.DEInternal.Weighted>
0.5290

> <Gold.Chemscore.Rot.Weighted>
3.7305

> <Gold.Chemscore.Internal.Correction.Weighted>
   9.000000E+99

> <Gold.Protein.RotatedTorsions>
[ 6907 6896 6895 6894 ] final   14.52 input  -60.11 | X-H torsion
[ 7974 7965 7964 7962 ] final  -12.14 input  175.53 | X-H torsion
[ 8008 7997 7996 7995 ] final   33.54 input   59.86 | X-H torsion
[ 10167 10162 10161 10158 ] final  144.90 input  -65.29 | X-H torsion
[ 10718 10713 10712 10709 ] final -148.67 input   66.30 | X-H torsion
[ 10763 10752 10751 10750 ] final -169.44 input  -60.55 | X-H torsion
[ 11005 11000 10999 10996 ] final  -61.25 input  -57.11 | X-H torsion

> <Gold.Protein.ActiveResidues>
 VAL166  LYS551  ARG553  GLY616  TRP617  ASP618  TYR619  PRO620  LYS621  CYS622 
 ASP623  PHE694  ASN695  SER759  ASP760  ASP761  ALA762  ILE779  LEU786  VAL792 
 PHE793  MET794  SER795  GLU796  ALA797  LYS798  CYS799  TRP800  GLU811  SER814 

> <Gold.Protein.RotatedAtoms>
  151.8036  135.0701  160.0403 H   0  0  0  0  0  0  0  0  0  0  0  0  # atno 6907 bound_to 6896
  152.3071  133.5710  159.5665 H   0  0  0  0  0  0  0  0  0  0  0  0  # atno 6908 bound_to 6896
  150.7301  134.0122  159.3715 H   0  0  0  0  0  0  0  0  0  0  0  0  # atno 6909 bound_to 6896
  146.2162  140.3014  142.8375 H   0  0  0  0  0  0  0  0  0  0  0  0  # atno 7974 bound_to 7965
  155.1403  140.3265  155.4453 H   0  0  0  0  0  0  0  0  0  0  0  0  # atno 8008 bound_to 7997
  156.2607  140.1995  156.6469 H   0  0  0  0  0  0  0  0  0  0  0  0  # atno 8009 bound_to 7997
  154.6547  140.0554  156.9982 H   0  0  0  0  0  0  0  0  0  0  0  0  # atno 8010 bound_to 7997
  139.4937  144.5939  151.6623 H   0  0  0  0  0  0  0  0  0  0  0  0  # atno 10167 bound_to 10162
  156.4232  130.8039  151.2263 H   0  0  0  0  0  0  0  0  0  0  0  0  # atno 10718 bound_to 10713
  154.6522  135.2913  154.9972 H   0  0  0  0  0  0  0  0  0  0  0  0  # atno 10763 bound_to 10752
  154.1061  135.6569  153.4880 H   0  0  0  0  0  0  0  0  0  0  0  0  # atno 10764 bound_to 10752
  153.0383  135.5254  154.7436 H   0  0  0  0  0  0  0  0  0  0  0  0  # atno 10765 bound_to 10752
  141.1317  133.6628  156.5346 H   0  0  0  0  0  0  0  0  0  0  0  0  # atno 11005 bound_to 11000
  144.9054  140.7693  143.5841 LP  0  0  0  0  0  0  0  0  0  0  0  0  # atno 17320 bound_to 7965
  145.2942  139.1873  143.4724 LP  0  0  0  0  0  0  0  0  0  0  0  0  # atno 17321 bound_to 7965
  140.5573  144.0327  150.6153 LP  0  0  0  0  0  0  0  0  0  0  0  0  # atno 17342 bound_to 10162
  140.3401  143.3024  152.0597 LP  0  0  0  0  0  0  0  0  0  0  0  0  # atno 17343 bound_to 10162
  157.7508  131.0221  150.3779 LP  0  0  0  0  0  0  0  0  0  0  0  0  # atno 17370 bound_to 10713
  156.4101  130.3932  149.6897 LP  0  0  0  0  0  0  0  0  0  0  0  0  # atno 17371 bound_to 10713
  140.4188  134.7206  157.4878 LP  0  0  0  0  0  0  0  0  0  0  0  0  # atno 17394 bound_to 11000
  140.0374  134.6316  155.9025 LP  0  0  0  0  0  0  0  0  0  0  0  0  # atno 17395 bound_to 11000

$$$$
