AV-unprocessed.smi:356|AV-procd|sdf|2409|dock8
  -GOLD-   2262022343D 1   1.00000     0.00000
 Structure written by MMmdl.
 41 43  0  0  0  0  0  0  0  0  1 V2000
  152.0183  138.8088  155.9900 C   0  0  0  0  0  0  0  0  0  0  0  0
  152.1664  139.9146  156.9863 C   0  0  0  0  0  0  0  0  0  0  0  0
  152.9718  139.8134  158.0442 N   0  0  0  0  0  0  0  0  0  0  0  0
  152.7981  141.0305  158.6747 C   0  0  0  0  0  0  0  0  0  0  0  0
  153.3770  141.5439  159.8574 C   0  0  0  0  0  0  0  0  0  0  0  0
  153.0404  142.8350  160.3149 C   0  0  0  0  0  0  0  0  0  0  0  0
  152.1221  143.6295  159.5984 C   0  0  0  0  0  0  0  0  0  0  0  0
  151.5337  143.1374  158.4175 C   0  0  0  0  0  0  0  0  0  0  0  0
  151.8732  141.8482  157.9653 C   0  0  0  0  0  0  0  0  0  0  0  0
  151.4869  141.0826  156.8702 N   0  0  0  0  0  0  0  0  0  0  0  0
  150.5426  141.4818  155.8349 C   0  0  0  0  0  0  0  0  0  0  0  0
  149.0792  141.4328  156.3160 C   0  0  1  0  0  0  0  0  0  0  0  0
  148.8292  142.5305  157.1715 O   0  0  0  0  0  0  0  0  0  0  0  0
  148.0946  141.5030  155.1321 C   0  0  0  0  0  0  0  0  0  0  0  0
  146.9399  142.3836  155.3203 N   0  0  0  0  0  0  0  0  0  0  0  0
  145.8803  141.7696  156.1193 C   0  0  0  0  0  0  0  0  0  0  0  0
  144.6659  142.7020  156.2758 C   0  0  0  0  0  0  0  0  0  0  0  0
  144.1811  143.0800  154.9918 O   0  0  0  0  0  0  0  0  0  0  0  0
  145.1727  143.7253  154.2000 C   0  0  0  0  0  0  0  0  0  0  0  0
  146.3836  142.7915  154.0342 C   0  0  0  0  0  0  0  0  0  0  0  0
  152.7000  137.9900  156.2228 H   0  0  0  0  0  0  0  0  0  0  0  0
  152.2461  139.1673  154.9863 H   0  0  0  0  0  0  0  0  0  0  0  0
  150.9991  138.4224  156.0055 H   0  0  0  0  0  0  0  0  0  0  0  0
  154.0814  140.9430  160.4134 H   0  0  0  0  0  0  0  0  0  0  0  0
  153.4889  143.2170  161.2202 H   0  0  0  0  0  0  0  0  0  0  0  0
  151.8699  144.6172  159.9556 H   0  0  0  0  0  0  0  0  0  0  0  0
  150.8308  143.7433  157.8655 H   0  0  0  0  0  0  0  0  0  0  0  0
  150.7946  142.4783  155.4724 H   0  0  0  0  0  0  0  0  0  0  0  0
  150.6749  140.8101  154.9857 H   0  0  0  0  0  0  0  0  0  0  0  0
  148.9350  140.5147  156.8840 H   0  0  0  0  0  0  0  0  0  0  0  0
  148.9355  143.3260  156.6716 H   0  0  0  0  0  0  0  0  0  0  0  0
  148.6525  141.8266  154.2519 H   0  0  0  0  0  0  0  0  0  0  0  0
  147.7400  140.4972  154.9017 H   0  0  0  0  0  0  0  0  0  0  0  0
  145.5598  140.8357  155.6549 H   0  0  0  0  0  0  0  0  0  0  0  0
  146.2478  141.5154  157.1123 H   0  0  0  0  0  0  0  0  0  0  0  0
  143.8691  142.1983  156.8234 H   0  0  0  0  0  0  0  0  0  0  0  0
  144.9338  143.5925  156.8466 H   0  0  0  0  0  0  0  0  0  0  0  0
  144.7473  143.9724  153.2272 H   0  0  0  0  0  0  0  0  0  0  0  0
  145.4700  144.6647  154.6689 H   0  0  0  0  0  0  0  0  0  0  0  0
  147.1481  143.2977  153.4437 H   0  0  0  0  0  0  0  0  0  0  0  0
  146.0831  141.9106  153.4647 H   0  0  0  0  0  0  0  0  0  0  0  0
  1  2  1  0  0  0  0
  1 21  1  0  0  0  0
  1 22  1  0  0  0  0
  1 23  1  0  0  0  0
  2 10  1  0  0  0  0
  2  3  2  0  0  0  0
  3  4  1  0  0  0  0
  4  9  2  0  0  0  0
  4  5  1  0  0  0  0
  5  6  2  0  0  0  0
  5 24  1  0  0  0  0
  6  7  1  0  0  0  0
  6 25  1  0  0  0  0
  7  8  2  0  0  0  0
  7 26  1  0  0  0  0
  8  9  1  0  0  0  0
  8 27  1  0  0  0  0
  9 10  1  0  0  0  0
 10 11  1  0  0  0  0
 11 12  1  0  0  0  0
 11 28  1  0  0  0  0
 11 29  1  0  0  0  0
 12 13  1  0  0  0  0
 12 14  1  0  0  0  0
 12 30  1  0  0  0  0
 13 31  1  0  0  0  0
 14 15  1  0  0  0  0
 14 32  1  0  0  0  0
 14 33  1  0  0  0  0
 15 20  1  0  0  0  0
 15 16  1  0  0  0  0
 16 17  1  0  0  0  0
 16 34  1  0  0  0  0
 16 35  1  0  0  0  0
 17 18  1  0  0  0  0
 17 36  1  0  0  0  0
 17 37  1  0  0  0  0
 18 19  1  0  0  0  0
 19 20  1  0  0  0  0
 19 38  1  0  0  0  0
 19 39  1  0  0  0  0
 20 40  1  0  0  0  0
 20 41  1  0  0  0  0
M  END
> <s_m_source_file>
AV-unprocessed.smi

> <i_m_source_file_index>
356

> <i_lp_mmshare_version>
43012

> <i_f3d_flags>
0

> <s_epik_input>
W2NIXTFbY0hdW2NIXVtjSF1jKGMxMiluKGMobjIpW0NIM10pW0NIMl1bQ0BIXShbT0hdKVtDSDJdTjNbQ0gyXVtDSDJdT1tDSDJdW0NIMl0z

> <s_epik_cmdline>
J2VwaWtfcHl0aG9uJywgJy1waCcsICc3LjAnLCAnLXRuJywgJzgnLCAnLW1hJywgJzIwMCcsICctbWV0YWxfYmluZGluZycsICctaW1hZScsICc8aW5maWxlLm1hZT4nLCAnLW9tYWUnLCAnPG91dGZpbGUubWFlPic=

> <r_epik_Ionization_Penalty>
0.355661

> <r_epik_Ionization_Penalty_Charging>
0

> <r_epik_Ionization_Penalty_Neutral>
0.355661

> <r_epik_State_Penalty>
0.325123

> <r_epik_Charging_Adjusted_Penalty>
0.325123

> <i_epik_Tot_Q>
0

> <i_epik_Tot_abs_Q>
0

> <r_epik_Metal_State_Penalty>
0.239925

> <b_epik_Metal_Only>
0

> <s_lp_Force_Field>
OPLS_2005

> <r_lp_Energy>
29.7319

> <b_lp_Chiralities_Consistent>
1

> <s_lp_Variant>
AV-unprocessed.smi:356-2

> <Gold.Version>
5.8.1

> <Gold.Id.Protein>
6NUR|6NUR_protein|mol2

> <Gold.PLP.Fitness>
43.0703

> <Gold.PLP.PLP>
-39.3232

> <Gold.PLP.part.hbond>
-2.0000

> <Gold.PLP.part.metal>
0.0000

> <Gold.PLP.part.buried>
-5.6737

> <Gold.PLP.part.nonpolar>
-32.3854

> <Gold.PLP.part.repulsive>
0.9697

> <Gold.PLP.ligand.clash>
0.0000

> <Gold.PLP.ligand.torsion>
1.1231

> <Gold.PLP.Chemscore.Hbond>
1.9920

> <Gold.PLP.Chemscore.CHOScore>
0.0000

> <Gold.PLP.Chemscore.Metal>
0.0000

> <Gold.Chemscore.Hbonds>
donor molecule, donor type, donor heavy atom, donor atom, acceptor molecule, acceptor atom, score
      L1  H    13    31       P1  8028  1.00
      P1  H  7997  8008       L1     3  0.94

> <Gold.PLP.Chemscore.Internal.Correction>
0.0174

> <Gold.Rescore>
     Score         DG    S(hbond)    S(metal)    S(lipo)     H(rot)  DE(clash)    DE(int)     intcor
     14.69     -15.75       0.99        0.00     103.00       1.99       0.00       1.06       ----

> <Gold.Chemscore.Fitness>
14.6907

> <Gold.Chemscore.DG>
-15.7521

> <Gold.Chemscore.ZeroCoef>
-5.4800

> <Gold.Chemscore.Hbond>
0.9897

> <Gold.Chemscore.Metal>
0.0000

> <Gold.Chemscore.Lipo>
103.0032

> <Gold.Chemscore.Internal_Hbond>
0.0000

> <Gold.Chemscore.DEClash>
0.0048

> <Gold.Chemscore.DEInternal>
1.0565

> <Gold.Chemscore.Rot>
1.9863

> <Gold.Chemscore.Internal.Correction>
   9.000000E+99

> <Gold.Chemscore.Hbonds>
donor molecule, donor type, donor heavy atom, donor atom, acceptor molecule, acceptor atom, score
      L1  H    13    31       P1  8028  0.91
      P1  H  7997  8008       L1     3  0.08

> <Gold.Chemscore.Hbond.Weighted>
-3.3057

> <Gold.Chemscore.Metal.Weighted>
-0.0000

> <Gold.Chemscore.Lipo.Weighted>
-12.0514

> <Gold.Chemscore.Internal_Hbond.Weighted>
0.0000

> <Gold.Chemscore.DEClash.Weighted>
0.0048

> <Gold.Chemscore.DEInternal.Weighted>
1.0565

> <Gold.Chemscore.Rot.Weighted>
5.0850

> <Gold.Chemscore.Internal.Correction.Weighted>
   9.000000E+99

> <Gold.Protein.RotatedTorsions>
[ 6907 6896 6895 6894 ] final   84.08 input  -60.11 | X-H torsion
[ 7974 7965 7964 7962 ] final -147.33 input  175.53 | X-H torsion
[ 8008 7997 7996 7995 ] final  -95.97 input   59.86 | X-H torsion
[ 10167 10162 10161 10158 ] final  -77.01 input  -65.29 | X-H torsion
[ 10718 10713 10712 10709 ] final  124.13 input   66.30 | X-H torsion
[ 10763 10752 10751 10750 ] final  126.78 input  -60.55 | X-H torsion
[ 11005 11000 10999 10996 ] final -115.87 input  -57.11 | X-H torsion

> <Gold.Protein.ActiveResidues>
 VAL166  LYS551  ARG553  GLY616  TRP617  ASP618  TYR619  PRO620  LYS621  CYS622 
 ASP623  PHE694  ASN695  SER759  ASP760  ASP761  ALA762  ILE779  LEU786  VAL792 
 PHE793  MET794  SER795  GLU796  ALA797  LYS798  CYS799  TRP800  GLU811  SER814 

> <Gold.Protein.RotatedAtoms>
  152.5343  134.2795  159.9001 H   0  0  0  0  0  0  0  0  0  0  0  0  # atno 6907 bound_to 6896
  151.2750  133.4230  159.2631 H   0  0  0  0  0  0  0  0  0  0  0  0  # atno 6908 bound_to 6896
  151.0334  134.9571  159.8180 H   0  0  0  0  0  0  0  0  0  0  0  0  # atno 6909 bound_to 6896
  144.8100  140.5341  143.5648 H   0  0  0  0  0  0  0  0  0  0  0  0  # atno 7974 bound_to 7965
  154.7683  140.0475  157.1030 H   0  0  0  0  0  0  0  0  0  0  0  0  # atno 8008 bound_to 7997
  154.9852  140.3106  155.4910 H   0  0  0  0  0  0  0  0  0  0  0  0  # atno 8009 bound_to 7997
  156.2917  140.2229  156.4953 H   0  0  0  0  0  0  0  0  0  0  0  0  # atno 8010 bound_to 7997
  140.4807  143.2403  151.8062 H   0  0  0  0  0  0  0  0  0  0  0  0  # atno 10167 bound_to 10162
  157.5610  131.1089  150.8538 H   0  0  0  0  0  0  0  0  0  0  0  0  # atno 10718 bound_to 10713
  153.6988  135.3287  155.3220 H   0  0  0  0  0  0  0  0  0  0  0  0  # atno 10763 bound_to 10752
  154.8419  135.4449  154.1432 H   0  0  0  0  0  0  0  0  0  0  0  0  # atno 10764 bound_to 10752
  153.2494  135.6979  153.7774 H   0  0  0  0  0  0  0  0  0  0  0  0  # atno 10765 bound_to 10752
  141.0459  133.9763  157.2918 H   0  0  0  0  0  0  0  0  0  0  0  0  # atno 11005 bound_to 11000
  145.5345  139.1475  143.3481 LP  0  0  0  0  0  0  0  0  0  0  0  0  # atno 17320 bound_to 7965
  146.2398  140.5486  142.8939 LP  0  0  0  0  0  0  0  0  0  0  0  0  # atno 17321 bound_to 7965
  139.4833  144.4775  151.9348 LP  0  0  0  0  0  0  0  0  0  0  0  0  # atno 17342 bound_to 10162
  140.3861  144.2675  150.5904 LP  0  0  0  0  0  0  0  0  0  0  0  0  # atno 17343 bound_to 10162
  156.9036  130.5255  149.5282 LP  0  0  0  0  0  0  0  0  0  0  0  0  # atno 17370 bound_to 10713
  156.0662  130.5705  150.9294 LP  0  0  0  0  0  0  0  0  0  0  0  0  # atno 17371 bound_to 10713
  139.9312  135.0200  156.8405 LP  0  0  0  0  0  0  0  0  0  0  0  0  # atno 17394 bound_to 11000
  140.6147  134.0050  155.7592 LP  0  0  0  0  0  0  0  0  0  0  0  0  # atno 17395 bound_to 11000

$$$$
