AV-unprocessed.smi:174|AV-procd|sdf|1425|dock8
  -GOLD-   2262019193D 1   1.00000     0.00000
 Structure written by MMmdl.
 51 54  0  0  0  0  0  0  0  0  1 V2000
  149.0720  130.0765  154.2098 N   0  0  0  0  0  0  0  0  0  0  0  0
  148.7359  130.9492  155.1659 C   0  0  0  0  0  0  0  0  0  0  0  0
  147.5968  131.4022  155.2487 O   0  0  0  0  0  0  0  0  0  0  0  0
  149.8013  131.3911  156.1847 C   0  0  0  0  0  0  0  0  0  0  0  0
  150.1226  132.8293  156.1726 N   0  0  0  0  0  0  0  0  0  0  0  0
  149.1989  133.7028  155.4405 C   0  0  0  0  0  0  0  0  0  0  0  0
  149.9132  134.9070  154.8192 C   0  0  0  0  0  0  0  0  0  0  0  0
  150.6859  135.6135  155.8333 N   0  0  0  0  0  0  0  0  0  0  0  0
  151.0445  136.9133  155.6357 C   0  0  0  0  0  0  0  0  0  0  0  0
  151.9832  137.1693  154.6854 N   0  0  0  0  0  0  0  0  0  0  0  0
  152.3898  138.4178  154.4422 C   0  0  0  0  0  0  0  0  0  0  0  0
  151.9947  139.5504  155.0233 N   0  0  0  0  0  0  0  0  0  0  0  0
  151.0469  139.3104  155.9727 C   0  0  0  0  0  0  0  0  0  0  0  0
  150.5165  138.0391  156.3417 C   0  0  0  0  0  0  0  0  0  0  0  0
  149.5593  138.2136  157.3377 N   0  0  0  0  0  0  0  0  0  0  0  0
  149.5386  139.5000  157.5532 C   0  0  0  0  0  0  0  0  0  0  0  0
  150.4026  140.2336  156.7757 N   0  0  0  0  0  0  0  0  0  0  0  0
  150.5895  141.6733  156.8014 C   0  0  0  0  0  0  0  0  0  0  0  0
  150.0181  142.3145  158.0805 C   0  0  2  0  0  0  0  0  0  0  0  0
  148.7552  142.8993  157.8230 O   0  0  0  0  0  0  0  0  0  0  0  0
  150.9779  143.3425  158.7132 C   0  0  2  0  0  0  0  0  0  0  0  0
  151.5583  144.4031  157.7741 C   0  0  0  0  0  0  0  0  0  0  0  0
  152.8020  144.8148  158.5300 C   0  0  0  0  0  0  0  0  0  0  0  0
  153.2736  143.4808  159.1040 C   0  0  0  0  0  0  0  0  0  0  0  0
  152.0935  142.7184  159.3445 O   0  0  0  0  0  0  0  0  0  0  0  0
  151.4883  134.8349  156.7908 C   0  0  0  0  0  0  0  0  0  0  0  0
  151.1846  133.3261  156.8530 C   0  0  0  0  0  0  0  0  0  0  0  0
  151.9335  132.6148  157.5230 O   0  0  0  0  0  0  0  0  0  0  0  0
  148.3819  129.7861  153.5323 H   0  0  0  0  0  0  0  0  0  0  0  0
  150.0141  129.7167  154.1634 H   0  0  0  0  0  0  0  0  0  0  0  0
  149.4723  131.0861  157.1798 H   0  0  0  0  0  0  0  0  0  0  0  0
  150.7032  130.8072  155.9991 H   0  0  0  0  0  0  0  0  0  0  0  0
  148.6783  133.1539  154.6553 H   0  0  0  0  0  0  0  0  0  0  0  0
  148.4322  134.0474  156.1357 H   0  0  0  0  0  0  0  0  0  0  0  0
  150.5781  134.5811  154.0177 H   0  0  0  0  0  0  0  0  0  0  0  0
  149.1595  135.5626  154.3817 H   0  0  0  0  0  0  0  0  0  0  0  0
  153.1393  138.5234  153.6719 H   0  0  0  0  0  0  0  0  0  0  0  0
  148.8909  139.9514  158.2907 H   0  0  0  0  0  0  0  0  0  0  0  0
  151.6573  141.8801  156.7195 H   0  0  0  0  0  0  0  0  0  0  0  0
  150.1197  142.1006  155.9145 H   0  0  0  0  0  0  0  0  0  0  0  0
  149.8483  141.5262  158.8150 H   0  0  0  0  0  0  0  0  0  0  0  0
  148.8107  143.3889  157.0167 H   0  0  0  0  0  0  0  0  0  0  0  0
  150.4420  143.8637  159.5083 H   0  0  0  0  0  0  0  0  0  0  0  0
  151.8422  143.9782  156.8109 H   0  0  0  0  0  0  0  0  0  0  0  0
  150.8726  145.2312  157.5933 H   0  0  0  0  0  0  0  0  0  0  0  0
  153.5501  145.2960  157.8995 H   0  0  0  0  0  0  0  0  0  0  0  0
  152.5412  145.5008  159.3372 H   0  0  0  0  0  0  0  0  0  0  0  0
  153.8844  142.9493  158.3730 H   0  0  0  0  0  0  0  0  0  0  0  0
  153.8629  143.6029  160.0132 H   0  0  0  0  0  0  0  0  0  0  0  0
  152.5467  134.9605  156.5561 H   0  0  0  0  0  0  0  0  0  0  0  0
  151.3346  135.2304  157.7958 H   0  0  0  0  0  0  0  0  0  0  0  0
  1  2  1  0  0  0  0
  1 29  1  0  0  0  0
  1 30  1  0  0  0  0
  2  3  2  0  0  0  0
  2  4  1  0  0  0  0
  4  5  1  0  0  0  0
  4 31  1  0  0  0  0
  4 32  1  0  0  0  0
  5 27  1  0  0  0  0
  5  6  1  0  0  0  0
  6  7  1  0  0  0  0
  6 33  1  0  0  0  0
  6 34  1  0  0  0  0
  7  8  1  0  0  0  0
  7 35  1  0  0  0  0
  7 36  1  0  0  0  0
  8  9  1  0  0  0  0
  8 26  1  0  0  0  0
  9 14  1  0  0  0  0
  9 10  2  0  0  0  0
 10 11  1  0  0  0  0
 11 12  2  0  0  0  0
 11 37  1  0  0  0  0
 12 13  1  0  0  0  0
 13 17  1  0  0  0  0
 13 14  2  0  0  0  0
 14 15  1  0  0  0  0
 15 16  2  0  0  0  0
 16 17  1  0  0  0  0
 16 38  1  0  0  0  0
 17 18  1  0  0  0  0
 18 19  1  0  0  0  0
 18 39  1  0  0  0  0
 18 40  1  0  0  0  0
 19 20  1  0  0  0  0
 19 21  1  0  0  0  0
 19 41  1  0  0  0  0
 20 42  1  0  0  0  0
 21 25  1  0  0  0  0
 21 22  1  0  0  0  0
 21 43  1  0  0  0  0
 22 23  1  0  0  0  0
 22 44  1  0  0  0  0
 22 45  1  0  0  0  0
 23 24  1  0  0  0  0
 23 46  1  0  0  0  0
 23 47  1  0  0  0  0
 24 25  1  0  0  0  0
 24 48  1  0  0  0  0
 24 49  1  0  0  0  0
 26 27  1  0  0  0  0
 26 50  1  0  0  0  0
 26 51  1  0  0  0  0
 27 28  2  0  0  0  0
M  END
> <s_m_source_file>
AV-unprocessed.smi

> <i_m_source_file_index>
174

> <i_lp_mmshare_version>
43012

> <i_f3d_flags>
0

> <s_epik_input>
W05IMl1DKD1PKVtDSDJdTjFbQ0gyXVtDSDJdTihbQ0gyXUMxPU8pYyhuW2NIXW4yKWMoYzIzKW5bY0hdbjNbQ0gyXVtDQEhdKFtPSF0pW0NAQEhdNFtDSDJdW0NIMl1bQ0gyXU80

> <s_epik_cmdline>
J2VwaWtfcHl0aG9uJywgJy1waCcsICc3LjAnLCAnLXRuJywgJzgnLCAnLW1hJywgJzIwMCcsICctbWV0YWxfYmluZGluZycsICctaW1hZScsICc8aW5maWxlLm1hZT4nLCAnLW9tYWUnLCAnPG91dGZpbGUubWFlPic=

> <r_lp_tautomer_probability>
1

> <r_epik_Ionization_Penalty>
0.000250477

> <r_epik_Ionization_Penalty_Charging>
0

> <r_epik_Ionization_Penalty_Neutral>
0.000250477

> <r_epik_State_Penalty>
-0

> <r_epik_Charging_Adjusted_Penalty>
0

> <i_epik_Tot_Q>
0

> <i_epik_Tot_abs_Q>
0

> <r_epik_Metal_State_Penalty>
-0

> <b_epik_Metal_Only>
0

> <s_lp_Force_Field>
OPLS_2005

> <r_lp_Energy>
38.8972

> <b_lp_Chiralities_Consistent>
1

> <s_lp_Variant>
AV-unprocessed.smi:174-1

> <Gold.Version>
5.8.1

> <Gold.Id.Protein>
6NUR|6NUR_protein|mol2

> <Gold.PLP.Fitness>
50.5404

> <Gold.PLP.PLP>
-44.1750

> <Gold.PLP.part.hbond>
-4.4418

> <Gold.PLP.part.metal>
0.0000

> <Gold.PLP.part.buried>
-5.9641

> <Gold.PLP.part.nonpolar>
-35.7352

> <Gold.PLP.part.repulsive>
0.1824

> <Gold.PLP.ligand.clash>
0.0000

> <Gold.PLP.ligand.torsion>
2.5789

> <Gold.PLP.Chemscore.Hbond>
3.7520

> <Gold.PLP.Chemscore.CHOScore>
0.0000

> <Gold.PLP.Chemscore.Metal>
0.0000

> <Gold.Chemscore.Hbonds>
donor molecule, donor type, donor heavy atom, donor atom, acceptor molecule, acceptor atom, score
      L1  H    20    42       P1  8028  1.00
      P1  H  6896  6908       L1    28  1.00
      P1  H  7989  7998       L1    12  0.92
      P1  H 10752 10765       L1    10  0.96

> <Gold.PLP.Chemscore.Internal.Correction>
0.2672

> <Gold.Rescore>
     Score         DG    S(hbond)    S(metal)    S(lipo)     H(rot)  DE(clash)    DE(int)     intcor
     13.95     -17.48       3.19        0.00      87.22       3.46       0.04       3.49       ----

> <Gold.Chemscore.Fitness>
13.9488

> <Gold.Chemscore.DG>
-17.4830

> <Gold.Chemscore.ZeroCoef>
-5.4800

> <Gold.Chemscore.Hbond>
3.1898

> <Gold.Chemscore.Metal>
0.0000

> <Gold.Chemscore.Lipo>
87.2180

> <Gold.Chemscore.Internal_Hbond>
0.0000

> <Gold.Chemscore.DEClash>
0.0435

> <Gold.Chemscore.DEInternal>
3.4907

> <Gold.Chemscore.Rot>
3.4591

> <Gold.Chemscore.Internal.Correction>
   9.000000E+99

> <Gold.Chemscore.Hbonds>
donor molecule, donor type, donor heavy atom, donor atom, acceptor molecule, acceptor atom, score
      L1  H    20    42       P1  8028  0.50
      P1  H  6896  6908       L1    28  0.38
      P1  H  7989  7998       L1    12  0.41
      P1  H 10752 10765       L1    10  0.64

> <Gold.Chemscore.Hbond.Weighted>
-10.6539

> <Gold.Chemscore.Metal.Weighted>
-0.0000

> <Gold.Chemscore.Lipo.Weighted>
-10.2045

> <Gold.Chemscore.Internal_Hbond.Weighted>
0.0000

> <Gold.Chemscore.DEClash.Weighted>
0.0435

> <Gold.Chemscore.DEInternal.Weighted>
3.4907

> <Gold.Chemscore.Rot.Weighted>
8.8553

> <Gold.Chemscore.Internal.Correction.Weighted>
   9.000000E+99

> <Gold.Protein.RotatedTorsions>
[ 6907 6896 6895 6894 ] final   55.54 input  -60.11 | X-H torsion
[ 7974 7965 7964 7962 ] final  -13.92 input  175.53 | X-H torsion
[ 8008 7997 7996 7995 ] final   92.45 input   59.86 | X-H torsion
[ 10167 10162 10161 10158 ] final   59.79 input  -65.29 | X-H torsion
[ 10718 10713 10712 10709 ] final  -72.14 input   66.30 | X-H torsion
[ 10763 10752 10751 10750 ] final  167.39 input  -60.55 | X-H torsion
[ 11005 11000 10999 10996 ] final   44.08 input  -57.11 | X-H torsion

> <Gold.Protein.ActiveResidues>
 VAL166  LYS551  ARG553  GLY616  TRP617  ASP618  TYR619  PRO620  LYS621  CYS622 
 ASP623  PHE694  ASN695  SER759  ASP760  ASP761  ALA762  ILE779  LEU786  VAL792 
 PHE793  MET794  SER795  GLU796  ALA797  LYS798  CYS799  TRP800  GLU811  SER814 

> <Gold.Protein.RotatedAtoms>
  152.3548  134.6955  160.0225 H   0  0  0  0  0  0  0  0  0  0  0  0  # atno 6907 bound_to 6896
  151.7297  133.3312  159.3345 H   0  0  0  0  0  0  0  0  0  0  0  0  # atno 6908 bound_to 6896
  150.7564  134.6308  159.6230 H   0  0  0  0  0  0  0  0  0  0  0  0  # atno 6909 bound_to 6896
  146.2095  140.3274  142.8396 H   0  0  0  0  0  0  0  0  0  0  0  0  # atno 7974 bound_to 7965
  156.0355  140.3325  155.7187 H   0  0  0  0  0  0  0  0  0  0  0  0  # atno 8008 bound_to 7997
  155.5821  140.0638  157.2798 H   0  0  0  0  0  0  0  0  0  0  0  0  # atno 8009 bound_to 7997
  154.4371  140.1842  156.0976 H   0  0  0  0  0  0  0  0  0  0  0  0  # atno 8010 bound_to 7997
  140.1726  144.4262  150.6654 H   0  0  0  0  0  0  0  0  0  0  0  0  # atno 10167 bound_to 10162
  156.0333  130.4366  150.2548 H   0  0  0  0  0  0  0  0  0  0  0  0  # atno 10718 bound_to 10713
  154.3531  135.2753  155.2361 H   0  0  0  0  0  0  0  0  0  0  0  0  # atno 10763 bound_to 10752
  154.4582  135.5914  153.6241 H   0  0  0  0  0  0  0  0  0  0  0  0  # atno 10764 bound_to 10752
  152.9848  135.6058  154.3743 H   0  0  0  0  0  0  0  0  0  0  0  0  # atno 10765 bound_to 10752
  140.1585  134.4371  155.8333 H   0  0  0  0  0  0  0  0  0  0  0  0  # atno 11005 bound_to 11000
  144.8877  140.7483  143.5946 LP  0  0  0  0  0  0  0  0  0  0  0  0  # atno 17320 bound_to 7965
  145.3195  139.1793  143.4595 LP  0  0  0  0  0  0  0  0  0  0  0  0  # atno 17321 bound_to 7965
  140.6572  143.2241  151.5941 LP  0  0  0  0  0  0  0  0  0  0  0  0  # atno 17342 bound_to 10162
  139.5331  144.2858  152.1192 LP  0  0  0  0  0  0  0  0  0  0  0  0  # atno 17343 bound_to 10162
  157.0649  131.0100  151.3210 LP  0  0  0  0  0  0  0  0  0  0  0  0  # atno 17370 bound_to 10713
  157.5043  130.7899  149.7637 LP  0  0  0  0  0  0  0  0  0  0  0  0  # atno 17371 bound_to 10713
  141.2207  133.6903  156.7551 LP  0  0  0  0  0  0  0  0  0  0  0  0  # atno 17394 bound_to 11000
  140.2518  134.8535  157.3674 LP  0  0  0  0  0  0  0  0  0  0  0  0  # atno 17395 bound_to 11000

$$$$
