AV-unprocessed.smi:3319|AV-procd|sdf|12767|dock1
  -GOLD-   2272019103D 1   1.00000     0.00000
 Structure written by MMmdl.
 40 41  0  0  0  0  0  0  0  0  2 V2000
  151.1621  143.9227  157.6425 C   0  0  0  0  0  0  0  0  0  0  0  0
  151.1486  142.7114  157.4877 C   0  0  0  0  0  0  0  0  0  0  0  0
  151.1233  141.2475  157.3141 C   0  0  0  0  0  0  0  0  0  0  0  0
  150.5626  140.8302  156.0289 N   0  0  0  0  0  0  0  0  0  0  0  0
  149.1078  140.9893  156.0742 C   0  0  0  0  0  0  0  0  0  0  0  0
  148.4928  140.6599  154.7030 C   0  0  0  0  0  0  0  0  0  0  0  0
  148.8261  139.2225  154.2761 C   0  0  0  0  0  0  0  0  0  0  0  0
  148.3023  138.9622  152.9167 N   0  3  0  0  0  0  0  0  0  0  0  0
  146.8329  139.0417  152.7782 C   0  0  0  0  0  0  0  0  0  0  0  0
  146.1457  137.9310  153.5837 C   0  0  0  0  0  0  0  0  0  0  0  0
  145.5626  136.8524  152.6914 C   0  0  0  0  0  0  0  0  0  0  0  0
  146.1897  136.5047  151.4770 C   0  0  0  0  0  0  0  0  0  0  0  0
  145.6060  135.4955  150.6843 C   0  0  0  0  0  0  0  0  0  0  0  0
  144.4761  134.8420  151.0302 N   0  0  0  0  0  0  0  0  0  0  0  0
  143.8818  135.1795  152.1948 C   0  0  0  0  0  0  0  0  0  0  0  0
  144.3828  136.1736  153.0597 C   0  0  0  0  0  0  0  0  0  0  0  0
  150.3510  139.0284  154.3538 C   0  0  0  0  0  0  0  0  0  0  0  0
  150.8900  139.4290  155.7384 C   0  0  0  0  0  0  0  0  0  0  0  0
  151.1758  144.9804  157.7813 H   0  0  0  0  0  0  0  0  0  0  0  0
  152.1306  140.8518  157.4509 H   0  0  0  0  0  0  0  0  0  0  0  0
  150.5097  140.8602  158.1285 H   0  0  0  0  0  0  0  0  0  0  0  0
  148.6809  140.3501  156.8491 H   0  0  0  0  0  0  0  0  0  0  0  0
  148.8599  142.0186  156.3368 H   0  0  0  0  0  0  0  0  0  0  0  0
  147.4117  140.7960  154.7457 H   0  0  0  0  0  0  0  0  0  0  0  0
  148.8646  141.3682  153.9606 H   0  0  0  0  0  0  0  0  0  0  0  0
  148.3391  138.5380  154.9727 H   0  0  0  0  0  0  0  0  0  0  0  0
  148.7010  139.6544  152.2986 H   0  0  0  0  0  0  0  0  0  0  0  0
  146.4816  140.0138  153.1242 H   0  0  0  0  0  0  0  0  0  0  0  0
  146.5653  138.9562  151.7242 H   0  0  0  0  0  0  0  0  0  0  0  0
  146.8559  137.4730  154.2736 H   0  0  0  0  0  0  0  0  0  0  0  0
  145.3481  138.3520  154.1972 H   0  0  0  0  0  0  0  0  0  0  0  0
  147.0958  136.9972  151.1554 H   0  0  0  0  0  0  0  0  0  0  0  0
  146.0594  135.2056  149.7479 H   0  0  0  0  0  0  0  0  0  0  0  0
  142.9798  134.6413  152.4461 H   0  0  0  0  0  0  0  0  0  0  0  0
  143.8700  136.4063  153.9816 H   0  0  0  0  0  0  0  0  0  0  0  0
  150.6159  137.9893  154.1592 H   0  0  0  0  0  0  0  0  0  0  0  0
  150.8451  139.6244  153.5848 H   0  0  0  0  0  0  0  0  0  0  0  0
  151.9705  139.2839  155.7485 H   0  0  0  0  0  0  0  0  0  0  0  0
  150.4755  138.7784  156.5102 H   0  0  0  0  0  0  0  0  0  0  0  0
  148.6151  138.0495  152.6178 H   0  0  0  0  0  0  0  0  0  0  0  0
  1  2  3  0  0  0  0
  1 19  1  0  0  0  0
  2  3  1  0  0  0  0
  3  4  1  0  0  0  0
  3 20  1  0  0  0  0
  3 21  1  0  0  0  0
  4 18  1  0  0  0  0
  4  5  1  0  0  0  0
  5  6  1  0  0  0  0
  5 22  1  0  0  0  0
  5 23  1  0  0  0  0
  6  7  1  0  0  0  0
  6 24  1  0  0  0  0
  6 25  1  0  0  0  0
  7  8  1  0  0  0  0
  7 17  1  0  0  0  0
  7 26  1  0  0  0  0
  8  9  1  0  0  0  0
  8 27  1  0  0  0  0
  8 40  1  0  0  0  0
  9 10  1  0  0  0  0
  9 28  1  0  0  0  0
  9 29  1  0  0  0  0
 10 11  1  0  0  0  0
 10 30  1  0  0  0  0
 10 31  1  0  0  0  0
 11 16  1  0  0  0  0
 11 12  2  0  0  0  0
 12 13  1  0  0  0  0
 12 32  1  0  0  0  0
 13 14  2  0  0  0  0
 13 33  1  0  0  0  0
 14 15  1  0  0  0  0
 15 16  2  0  0  0  0
 15 34  1  0  0  0  0
 16 35  1  0  0  0  0
 17 18  1  0  0  0  0
 17 36  1  0  0  0  0
 17 37  1  0  0  0  0
 18 38  1  0  0  0  0
 18 39  1  0  0  0  0
M  CHG  1   8   1
M  END
> <s_m_source_file>
AV-unprocessed.smi

> <i_m_source_file_index>
3319

> <i_lp_mmshare_version>
43012

> <i_f3d_flags>
0

> <s_epik_input>
W0NIXSNDW0NIMl1OMVtDSDJdW0NIMl1bQ0hdKFtDSDJdW0NIMl0xKVtOSF1bQ0gyXVtDSDJdYzJbY0hdW2NIXW5bY0hdW2NIXTI=

> <s_epik_cmdline>
J2VwaWtfcHl0aG9uJywgJy1waCcsICc3LjAnLCAnLXRuJywgJzgnLCAnLW1hJywgJzIwMCcsICctbWV0YWxfYmluZGluZycsICctaW1hZScsICc8aW5maWxlLm1hZT4nLCAnLW9tYWUnLCAnPG91dGZpbGUubWFlPic=

> <r_epik_Ionization_Penalty>
0.00927662

> <r_epik_Ionization_Penalty_Charging>
0.000485704

> <r_epik_Ionization_Penalty_Neutral>
0.00879091

> <r_epik_State_Penalty>
0.00559669

> <r_epik_Charging_Adjusted_Penalty>
0.0060824

> <i_epik_Tot_Q>
1

> <i_epik_Tot_abs_Q>
1

> <r_epik_Metal_State_Penalty>
-0

> <b_epik_Metal_Only>
0

> <s_lp_Force_Field>
OPLS_2005

> <r_lp_Energy>
19.7292

> <b_lp_Chiralities_Consistent>
1

> <s_lp_Variant>
AV-unprocessed.smi:3319-1

> <Gold.Version>
5.8.1

> <Gold.Id.Protein>
6NUR|6NUR_protein|mol2

> <Gold.PLP.Fitness>
43.4854

> <Gold.PLP.PLP>
-33.6341

> <Gold.PLP.part.hbond>
-1.6738

> <Gold.PLP.part.metal>
0.0000

> <Gold.PLP.part.buried>
-4.5053

> <Gold.PLP.part.nonpolar>
-29.4582

> <Gold.PLP.part.repulsive>
0.3238

> <Gold.PLP.ligand.clash>
0.0000

> <Gold.PLP.ligand.torsion>
0.8338

> <Gold.PLP.Chemscore.Hbond>
2.8288

> <Gold.PLP.Chemscore.CHOScore>
1.0000

> <Gold.PLP.Chemscore.Metal>
0.0000

> <Gold.Chemscore.Hbonds>
donor molecule, donor type, donor heavy atom, donor atom, acceptor molecule, acceptor atom, score
      L1  H     8    27       P1  7957  0.91
      L1  H     8    40       P1  7948  2.00
      L1  C    13    33       P1  7921  1.00

> <Gold.PLP.Chemscore.Internal.Correction>
0.0326

> <Gold.Rescore>
     Score         DG    S(hbond)    S(metal)    S(lipo)     H(rot)  DE(clash)    DE(int)     intcor
     18.16     -19.24       1.85        0.00      96.17       1.44       0.08       1.00       ----

> <Gold.Chemscore.Fitness>
18.1597

> <Gold.Chemscore.DG>
-19.2382

> <Gold.Chemscore.ZeroCoef>
-5.4800

> <Gold.Chemscore.Hbond>
1.8520

> <Gold.Chemscore.Metal>
0.0000

> <Gold.Chemscore.Lipo>
96.1658

> <Gold.Chemscore.Internal_Hbond>
0.0000

> <Gold.Chemscore.DEClash>
0.0806

> <Gold.Chemscore.DEInternal>
0.9979

> <Gold.Chemscore.Rot>
1.4371

> <Gold.Chemscore.Internal.Correction>
   9.000000E+99

> <Gold.Chemscore.Hbonds>
donor molecule, donor type, donor heavy atom, donor atom, acceptor molecule, acceptor atom, score
      L1  H     8    27       P1  7957  0.84
      L1  H     8    40       P1  7948  0.98

> <Gold.Chemscore.Hbond.Weighted>
-6.1858

> <Gold.Chemscore.Metal.Weighted>
-0.0000

> <Gold.Chemscore.Lipo.Weighted>
-11.2514

> <Gold.Chemscore.Internal_Hbond.Weighted>
0.0000

> <Gold.Chemscore.DEClash.Weighted>
0.0806

> <Gold.Chemscore.DEInternal.Weighted>
0.9979

> <Gold.Chemscore.Rot.Weighted>
3.6790

> <Gold.Chemscore.Internal.Correction.Weighted>
   9.000000E+99

> <Gold.Protein.RotatedTorsions>
[ 6907 6896 6895 6894 ] final  144.04 input  -60.11 | X-H torsion
[ 7974 7965 7964 7962 ] final -169.51 input  175.53 | X-H torsion
[ 8008 7997 7996 7995 ] final  -66.44 input   59.86 | X-H torsion
[ 10167 10162 10161 10158 ] final   59.27 input  -65.29 | X-H torsion
[ 10718 10713 10712 10709 ] final  115.77 input   66.30 | X-H torsion
[ 10763 10752 10751 10750 ] final -164.69 input  -60.55 | X-H torsion
[ 11005 11000 10999 10996 ] final  -69.05 input  -57.11 | X-H torsion

> <Gold.Protein.ActiveResidues>
 VAL166  LYS551  ARG553  GLY616  TRP617  ASP618  TYR619  PRO620  LYS621  CYS622 
 ASP623  PHE694  ASN695  SER759  ASP760  ASP761  ALA762  ILE779  LEU786  VAL792 
 PHE793  MET794  SER795  GLU796  ALA797  LYS798  CYS799  TRP800  GLU811  SER814 

> <Gold.Protein.RotatedAtoms>
  152.1987  133.4825  159.5046 H   0  0  0  0  0  0  0  0  0  0  0  0  # atno 6907 bound_to 6896
  150.6965  134.1619  159.4188 H   0  0  0  0  0  0  0  0  0  0  0  0  # atno 6908 bound_to 6896
  151.9536  135.0157  160.0594 H   0  0  0  0  0  0  0  0  0  0  0  0  # atno 6909 bound_to 6896
  144.7184  140.2210  143.6316 H   0  0  0  0  0  0  0  0  0  0  0  0  # atno 7974 bound_to 7965
  154.4735  140.0912  156.7203 H   0  0  0  0  0  0  0  0  0  0  0  0  # atno 8008 bound_to 7997
  155.4660  140.3462  155.4301 H   0  0  0  0  0  0  0  0  0  0  0  0  # atno 8009 bound_to 7997
  156.1078  140.1439  156.9369 H   0  0  0  0  0  0  0  0  0  0  0  0  # atno 8010 bound_to 7997
  140.1782  144.4208  150.6628 H   0  0  0  0  0  0  0  0  0  0  0  0  # atno 10167 bound_to 10162
  157.6201  131.1017  150.7378 H   0  0  0  0  0  0  0  0  0  0  0  0  # atno 10718 bound_to 10713
  154.7004  135.2987  154.9349 H   0  0  0  0  0  0  0  0  0  0  0  0  # atno 10763 bound_to 10752
  154.0282  135.6673  153.4782 H   0  0  0  0  0  0  0  0  0  0  0  0  # atno 10764 bound_to 10752
  153.0677  135.5078  154.8146 H   0  0  0  0  0  0  0  0  0  0  0  0  # atno 10765 bound_to 10752
  141.1545  133.6755  156.6540 H   0  0  0  0  0  0  0  0  0  0  0  0  # atno 11005 bound_to 11000
  145.8501  139.2171  143.1777 LP  0  0  0  0  0  0  0  0  0  0  0  0  # atno 17320 bound_to 7965
  146.0268  140.8296  142.9896 LP  0  0  0  0  0  0  0  0  0  0  0  0  # atno 17321 bound_to 7965
  140.6537  143.2232  151.6018 LP  0  0  0  0  0  0  0  0  0  0  0  0  # atno 17342 bound_to 10162
  139.5308  144.2923  152.1142 LP  0  0  0  0  0  0  0  0  0  0  0  0  # atno 17343 bound_to 10162
  156.7737  130.4837  149.5413 LP  0  0  0  0  0  0  0  0  0  0  0  0  # atno 17370 bound_to 10713
  156.1343  130.6200  151.0377 LP  0  0  0  0  0  0  0  0  0  0  0  0  # atno 17371 bound_to 10713
  140.3299  134.7938  157.4318 LP  0  0  0  0  0  0  0  0  0  0  0  0  # atno 17394 bound_to 11000
  140.1026  134.5452  155.8339 LP  0  0  0  0  0  0  0  0  0  0  0  0  # atno 17395 bound_to 11000

$$$$
