AV-unprocessed.smi:707|AV-procd|sdf|3454|dock5
  -GOLD-   22720 0443D 1   1.00000     0.00000
 Structure written by MMmdl.
 44 45  0  0  0  0  0  0  0  0  1 V2000
  149.5781  137.6030  157.8405 C   0  0  0  0  0  0  0  0  0  0  0  0
  150.4040  137.3668  156.6177 C   0  0  0  0  0  0  0  0  0  0  0  0
  151.7013  137.0401  156.6483 N   0  0  0  0  0  0  0  0  0  0  0  0
  152.0831  136.9132  155.3270 N   0  0  0  0  0  0  0  0  0  0  0  0
  150.9774  137.1768  154.6316 C   0  0  0  0  0  0  0  0  0  0  0  0
  149.8970  137.4671  155.3722 N   0  0  0  0  0  0  0  0  0  0  0  0
  148.5550  137.7917  154.9256 C   0  0  0  0  0  0  0  0  0  0  0  0
  148.5325  139.0908  154.1091 C   0  0  0  0  0  0  0  0  0  0  0  0
  148.9356  140.2210  154.9330 N   0  0  0  0  0  0  0  0  0  0  0  0
  150.2084  140.5491  155.1979 C   0  0  0  0  0  0  0  0  0  0  0  0
  151.1731  139.9219  154.7616 O   0  0  0  0  0  0  0  0  0  0  0  0
  150.4299  141.7805  156.0741 C   0  0  0  0  0  0  0  0  0  0  0  0
  150.7936  141.3575  157.3816 O   0  0  0  0  0  0  0  0  0  0  0  0
  151.7815  142.1659  158.0086 C   0  0  1  0  0  0  0  0  0  0  0  0
  151.3023  143.6250  157.9224 C   0  0  0  0  0  0  0  0  0  0  0  0
  152.2727  144.5754  158.6397 C   0  0  0  0  0  0  0  0  0  0  0  0
  152.4769  144.1574  160.1042 C   0  0  0  0  0  0  0  0  0  0  0  0
  152.9563  142.6971  160.2137 C   0  0  1  0  0  0  0  0  0  0  0  0
  153.1508  142.2791  161.6783 C   0  0  0  0  0  0  0  0  0  0  0  0
  151.9838  141.7510  159.4818 C   0  0  0  0  0  0  0  0  0  0  0  0
  150.1504  137.3676  158.7383 H   0  0  0  0  0  0  0  0  0  0  0  0
  148.6886  136.9735  157.8251 H   0  0  0  0  0  0  0  0  0  0  0  0
  149.2706  138.6475  157.8895 H   0  0  0  0  0  0  0  0  0  0  0  0
  150.9550  137.1564  153.5519 H   0  0  0  0  0  0  0  0  0  0  0  0
  148.1682  136.9589  154.3373 H   0  0  0  0  0  0  0  0  0  0  0  0
  147.9122  137.8836  155.8023 H   0  0  0  0  0  0  0  0  0  0  0  0
  149.2075  139.0118  153.2554 H   0  0  0  0  0  0  0  0  0  0  0  0
  147.5313  139.2674  153.7125 H   0  0  0  0  0  0  0  0  0  0  0  0
  148.2031  140.7889  155.3333 H   0  0  0  0  0  0  0  0  0  0  0  0
  151.2068  142.4032  155.6303 H   0  0  0  0  0  0  0  0  0  0  0  0
  149.5089  142.3646  156.1031 H   0  0  0  0  0  0  0  0  0  0  0  0
  152.7259  142.0827  157.4671 H   0  0  0  0  0  0  0  0  0  0  0  0
  151.1987  143.9216  156.8782 H   0  0  0  0  0  0  0  0  0  0  0  0
  150.3107  143.7138  158.3687 H   0  0  0  0  0  0  0  0  0  0  0  0
  153.2326  144.5779  158.1218 H   0  0  0  0  0  0  0  0  0  0  0  0
  151.8942  145.5969  158.5947 H   0  0  0  0  0  0  0  0  0  0  0  0
  153.1992  144.8242  160.5765 H   0  0  0  0  0  0  0  0  0  0  0  0
  151.5404  144.2807  160.6501 H   0  0  0  0  0  0  0  0  0  0  0  0
  153.9270  142.6250  159.7207 H   0  0  0  0  0  0  0  0  0  0  0  0
  152.2141  142.3326  162.2340 H   0  0  0  0  0  0  0  0  0  0  0  0
  153.8724  142.9253  162.1789 H   0  0  0  0  0  0  0  0  0  0  0  0
  153.5216  141.2561  161.7487 H   0  0  0  0  0  0  0  0  0  0  0  0
  151.0203  141.7475  159.9934 H   0  0  0  0  0  0  0  0  0  0  0  0
  152.3659  140.7320  159.5392 H   0  0  0  0  0  0  0  0  0  0  0  0
  1  2  1  0  0  0  0
  1 21  1  0  0  0  0
  1 22  1  0  0  0  0
  1 23  1  0  0  0  0
  2  6  1  0  0  0  0
  2  3  2  0  0  0  0
  3  4  1  0  0  0  0
  4  5  2  0  0  0  0
  5  6  1  0  0  0  0
  5 24  1  0  0  0  0
  6  7  1  0  0  0  0
  7  8  1  0  0  0  0
  7 25  1  0  0  0  0
  7 26  1  0  0  0  0
  8  9  1  0  0  0  0
  8 27  1  0  0  0  0
  8 28  1  0  0  0  0
  9 10  1  0  0  0  0
  9 29  1  0  0  0  0
 10 11  2  0  0  0  0
 10 12  1  0  0  0  0
 12 13  1  0  0  0  0
 12 30  1  0  0  0  0
 12 31  1  0  0  0  0
 13 14  1  0  0  0  0
 14 20  1  0  0  0  0
 14 15  1  0  0  0  0
 14 32  1  0  0  0  0
 15 16  1  0  0  0  0
 15 33  1  0  0  0  0
 15 34  1  0  0  0  0
 16 17  1  0  0  0  0
 16 35  1  0  0  0  0
 16 36  1  0  0  0  0
 17 18  1  0  0  0  0
 17 37  1  0  0  0  0
 17 38  1  0  0  0  0
 18 19  1  0  0  0  0
 18 20  1  0  0  0  0
 18 39  1  0  0  0  0
 19 40  1  0  0  0  0
 19 41  1  0  0  0  0
 19 42  1  0  0  0  0
 20 43  1  0  0  0  0
 20 44  1  0  0  0  0
M  END
> <s_m_source_file>
AV-unprocessed.smi

> <i_m_source_file_index>
707

> <i_lp_mmshare_version>
43012

> <i_f3d_flags>
0

> <s_epik_input>
W0NIM11jMW5uW2NIXW4xW0NIMl1bQ0gyXVtOSF1DKD1PKVtDSDJdT1tDQEBIXTJbQ0gyXVtDSDJdW0NIMl1bQ0BASF0oW0NIM10pW0NIMl0y

> <s_epik_cmdline>
J2VwaWtfcHl0aG9uJywgJy1waCcsICc3LjAnLCAnLXRuJywgJzgnLCAnLW1hJywgJzIwMCcsICctbWV0YWxfYmluZGluZycsICctaW1hZScsICc8aW5maWxlLm1hZT4nLCAnLW9tYWUnLCAnPG91dGZpbGUubWFlPic=

> <r_lp_tautomer_probability>
1

> <r_epik_Ionization_Penalty>
0.000271783

> <r_epik_Ionization_Penalty_Charging>
0

> <r_epik_Ionization_Penalty_Neutral>
0.000271783

> <r_epik_State_Penalty>
-0

> <r_epik_Charging_Adjusted_Penalty>
0

> <i_epik_Tot_Q>
0

> <i_epik_Tot_abs_Q>
0

> <r_epik_Metal_State_Penalty>
-0

> <b_epik_Metal_Only>
0

> <s_lp_Force_Field>
OPLS_2005

> <r_lp_Energy>
13.3019

> <b_lp_Chiralities_Consistent>
1

> <s_lp_Variant>
AV-unprocessed.smi:707-2

> <Gold.Version>
5.8.1

> <Gold.Id.Protein>
6NUR|6NUR_protein|mol2

> <Gold.PLP.Fitness>
46.7352

> <Gold.PLP.PLP>
-38.6475

> <Gold.PLP.part.hbond>
-2.0000

> <Gold.PLP.part.metal>
0.0000

> <Gold.PLP.part.buried>
-5.5450

> <Gold.PLP.part.nonpolar>
-31.9457

> <Gold.PLP.part.repulsive>
0.2513

> <Gold.PLP.ligand.clash>
0.0000

> <Gold.PLP.ligand.torsion>
0.6753

> <Gold.PLP.Chemscore.Hbond>
2.0000

> <Gold.PLP.Chemscore.CHOScore>
1.1221

> <Gold.PLP.Chemscore.Metal>
0.0000

> <Gold.Chemscore.Hbonds>
donor molecule, donor type, donor heavy atom, donor atom, acceptor molecule, acceptor atom, score
      P1  H  7989  7998       L1    11  1.00
      P1  H 10752 10763       L1     4  0.98
      L1  C     5    24       P1  7948  0.12
      L1  C     5    24       P1  7949  1.00

> <Gold.PLP.Chemscore.Internal.Correction>
0.0722

> <Gold.Rescore>
     Score         DG    S(hbond)    S(metal)    S(lipo)     H(rot)  DE(clash)    DE(int)     intcor
     16.01     -16.79       1.99        0.00      92.83       2.42       0.00       0.77       ----

> <Gold.Chemscore.Fitness>
16.0147

> <Gold.Chemscore.DG>
-16.7850

> <Gold.Chemscore.ZeroCoef>
-5.4800

> <Gold.Chemscore.Hbond>
1.9871

> <Gold.Chemscore.Metal>
0.0000

> <Gold.Chemscore.Lipo>
92.8300

> <Gold.Chemscore.Internal_Hbond>
0.0000

> <Gold.Chemscore.DEClash>
0.0000

> <Gold.Chemscore.DEInternal>
0.7703

> <Gold.Chemscore.Rot>
2.4191

> <Gold.Chemscore.Internal.Correction>
   9.000000E+99

> <Gold.Chemscore.Hbonds>
donor molecule, donor type, donor heavy atom, donor atom, acceptor molecule, acceptor atom, score
      P1  H  7989  7998       L1    11  0.35
      P1  H 10752 10763       L1     4  0.84

> <Gold.Chemscore.Hbond.Weighted>
-6.6368

> <Gold.Chemscore.Metal.Weighted>
-0.0000

> <Gold.Chemscore.Lipo.Weighted>
-10.8611

> <Gold.Chemscore.Internal_Hbond.Weighted>
0.0000

> <Gold.Chemscore.DEClash.Weighted>
0.0000

> <Gold.Chemscore.DEInternal.Weighted>
0.7703

> <Gold.Chemscore.Rot.Weighted>
6.1929

> <Gold.Chemscore.Internal.Correction.Weighted>
   9.000000E+99

> <Gold.Protein.RotatedTorsions>
[ 6907 6896 6895 6894 ] final   44.93 input  -60.11 | X-H torsion
[ 7974 7965 7964 7962 ] final -109.02 input  175.53 | X-H torsion
[ 8008 7997 7996 7995 ] final   88.04 input   59.86 | X-H torsion
[ 10167 10162 10161 10158 ] final   -5.38 input  -65.29 | X-H torsion
[ 10718 10713 10712 10709 ] final  108.36 input   66.30 | X-H torsion
[ 10763 10752 10751 10750 ] final   71.75 input  -60.55 | X-H torsion
[ 11005 11000 10999 10996 ] final   30.28 input  -57.11 | X-H torsion

> <Gold.Protein.ActiveResidues>
 VAL166  LYS551  ARG553  GLY616  TRP617  ASP618  TYR619  PRO620  LYS621  CYS622 
 ASP623  PHE694  ASN695  SER759  ASP760  ASP761  ALA762  ILE779  LEU786  VAL792 
 PHE793  MET794  SER795  GLU796  ALA797  LYS798  CYS799  TRP800  GLU811  SER814 

> <Gold.Protein.RotatedAtoms>
  152.2384  134.8253  160.0463 H   0  0  0  0  0  0  0  0  0  0  0  0  # atno 6907 bound_to 6896
  151.8976  133.3525  159.3828 H   0  0  0  0  0  0  0  0  0  0  0  0  # atno 6908 bound_to 6896
  150.7046  134.4787  159.5504 H   0  0  0  0  0  0  0  0  0  0  0  0  # atno 6909 bound_to 6896
  145.1856  140.8991  143.3454 H   0  0  0  0  0  0  0  0  0  0  0  0  # atno 7974 bound_to 7965
  155.9829  140.3376  155.6680 H   0  0  0  0  0  0  0  0  0  0  0  0  # atno 8008 bound_to 7997
  155.6525  140.0707  157.2600 H   0  0  0  0  0  0  0  0  0  0  0  0  # atno 8009 bound_to 7997
  154.4197  140.1723  156.1677 H   0  0  0  0  0  0  0  0  0  0  0  0  # atno 8010 bound_to 7997
  140.6961  143.6315  150.8518 H   0  0  0  0  0  0  0  0  0  0  0  0  # atno 10167 bound_to 10162
  157.6589  131.0892  150.6293 H   0  0  0  0  0  0  0  0  0  0  0  0  # atno 10718 bound_to 10713
  153.0418  135.5125  154.7641 H   0  0  0  0  0  0  0  0  0  0  0  0  # atno 10763 bound_to 10752
  154.6573  135.2933  154.9914 H   0  0  0  0  0  0  0  0  0  0  0  0  # atno 10764 bound_to 10752
  154.0777  135.6668  153.4886 H   0  0  0  0  0  0  0  0  0  0  0  0  # atno 10765 bound_to 10752
  140.2960  134.2810  155.7764 H   0  0  0  0  0  0  0  0  0  0  0  0  # atno 11005 bound_to 11000
  145.0092  139.3526  143.6128 LP  0  0  0  0  0  0  0  0  0  0  0  0  # atno 17320 bound_to 7965
  146.3445  139.9347  142.8749 LP  0  0  0  0  0  0  0  0  0  0  0  0  # atno 17321 bound_to 7965
  140.0033  143.5720  152.2867 LP  0  0  0  0  0  0  0  0  0  0  0  0  # atno 17342 bound_to 10162
  139.6418  144.7655  151.2324 LP  0  0  0  0  0  0  0  0  0  0  0  0  # atno 17343 bound_to 10162
  156.6597  130.4509  149.5691 LP  0  0  0  0  0  0  0  0  0  0  0  0  # atno 17370 bound_to 10713
  156.2076  130.6659  151.1235 LP  0  0  0  0  0  0  0  0  0  0  0  0  # atno 17371 bound_to 10713
  141.2137  133.7616  156.9696 LP  0  0  0  0  0  0  0  0  0  0  0  0  # atno 17394 bound_to 11000
  140.1152  134.9452  157.2123 LP  0  0  0  0  0  0  0  0  0  0  0  0  # atno 17395 bound_to 11000

$$$$
