AV-unprocessed.smi:2855|AV-procd|sdf|10986|dock4
  -GOLD-   2272015443D 1   1.00000     0.00000
 Structure written by MMmdl.
 46 47  0  0  0  0  0  0  0  0  2 V2000
  149.8973  142.4949  156.6017 C   0  0  0  0  0  0  0  0  0  0  0  0
  151.2994  142.5238  157.2266 C   0  0  1  0  0  0  0  0  0  0  0  0
  151.6422  143.9210  157.7813 C   0  0  0  0  0  0  0  0  0  0  0  0
  153.0199  143.9381  158.4700 C   0  0  0  0  0  0  0  0  0  0  0  0
  153.1066  142.9078  159.6244 C   0  0  1  0  0  0  0  0  0  0  0  0
  152.2111  143.2820  160.8585 C   0  0  0  0  0  0  0  0  0  0  0  0
  151.8541  144.7822  160.9013 C   0  0  0  0  0  0  0  0  0  0  0  0
  152.8364  142.9098  162.2171 C   0  0  0  0  0  0  0  0  0  0  0  0
  152.8490  141.5136  158.9728 C   0  0  1  0  0  0  0  0  0  0  0  0
  153.0617  140.3755  159.8618 N   0  0  0  0  0  0  0  0  0  0  0  0
  154.1343  139.5689  159.8576 C   0  0  0  0  0  0  0  0  0  0  0  0
  155.0737  139.6978  159.0713 O   0  0  0  0  0  0  0  0  0  0  0  0
  154.1227  138.4283  160.8842 C   0  0  0  0  0  0  0  0  0  0  0  0
  154.7734  138.7931  162.1527 N   0  0  0  0  0  0  0  0  0  0  0  0
  155.0381  140.1546  162.3843 C   0  0  0  0  0  0  0  0  0  0  0  0
  155.6251  140.5818  163.5185 C   0  0  0  0  0  0  0  0  0  0  0  0
  155.9880  139.5903  164.5234 C   0  0  0  0  0  0  0  0  0  0  0  0
  156.5263  139.9617  165.5644 O   0  0  0  0  0  0  0  0  0  0  0  0
  155.7084  138.2815  164.2533 N   0  5  0  0  0  0  0  0  0  0  0  0
  155.1116  137.8617  163.0947 C   0  0  0  0  0  0  0  0  0  0  0  0
  154.8724  136.6748  162.8704 O   0  0  0  0  0  0  0  0  0  0  0  0
  151.4578  141.4406  158.3132 C   0  0  0  0  0  0  0  0  0  0  0  0
  149.1278  142.7096  157.3438 H   0  0  0  0  0  0  0  0  0  0  0  0
  149.6800  141.5177  156.1698 H   0  0  0  0  0  0  0  0  0  0  0  0
  149.8073  143.2344  155.8054 H   0  0  0  0  0  0  0  0  0  0  0  0
  152.0144  142.3016  156.4329 H   0  0  0  0  0  0  0  0  0  0  0  0
  151.6346  144.6503  156.9706 H   0  0  0  0  0  0  0  0  0  0  0  0
  150.8730  144.2430  158.4836 H   0  0  0  0  0  0  0  0  0  0  0  0
  153.7834  143.7051  157.7263 H   0  0  0  0  0  0  0  0  0  0  0  0
  153.2668  144.9438  158.8056 H   0  0  0  0  0  0  0  0  0  0  0  0
  154.1404  142.9238  159.9725 H   0  0  0  0  0  0  0  0  0  0  0  0
  151.2661  142.7455  160.7866 H   0  0  0  0  0  0  0  0  0  0  0  0
  152.7490  145.4045  160.8691 H   0  0  0  0  0  0  0  0  0  0  0  0
  151.3105  145.0347  161.8121 H   0  0  0  0  0  0  0  0  0  0  0  0
  151.2060  145.0725  160.0752 H   0  0  0  0  0  0  0  0  0  0  0  0
  153.8568  143.2855  162.2995 H   0  0  0  0  0  0  0  0  0  0  0  0
  152.8514  141.8352  162.3866 H   0  0  0  0  0  0  0  0  0  0  0  0
  152.2663  143.3296  163.0461 H   0  0  0  0  0  0  0  0  0  0  0  0
  153.5734  141.3916  158.1645 H   0  0  0  0  0  0  0  0  0  0  0  0
  152.3408  140.1921  160.5444 H   0  0  0  0  0  0  0  0  0  0  0  0
  153.0965  138.1031  161.0662 H   0  0  0  0  0  0  0  0  0  0  0  0
  154.6196  137.5662  160.4378 H   0  0  0  0  0  0  0  0  0  0  0  0
  154.7320  140.8232  161.5931 H   0  0  0  0  0  0  0  0  0  0  0  0
  155.8193  141.6316  163.6819 H   0  0  0  0  0  0  0  0  0  0  0  0
  150.6747  141.5393  159.0651 H   0  0  0  0  0  0  0  0  0  0  0  0
  151.3188  140.4578  157.8606 H   0  0  0  0  0  0  0  0  0  0  0  0
  1  2  1  0  0  0  0
  1 23  1  0  0  0  0
  1 24  1  0  0  0  0
  1 25  1  0  0  0  0
  2 22  1  0  0  0  0
  2  3  1  0  0  0  0
  2 26  1  0  0  0  0
  3  4  1  0  0  0  0
  3 27  1  0  0  0  0
  3 28  1  0  0  0  0
  4  5  1  0  0  0  0
  4 29  1  0  0  0  0
  4 30  1  0  0  0  0
  5  6  1  0  0  0  0
  5  9  1  0  0  0  0
  5 31  1  0  0  0  0
  6  7  1  0  0  0  0
  6  8  1  0  0  0  0
  6 32  1  0  0  0  0
  7 33  1  0  0  0  0
  7 34  1  0  0  0  0
  7 35  1  0  0  0  0
  8 36  1  0  0  0  0
  8 37  1  0  0  0  0
  8 38  1  0  0  0  0
  9 10  1  0  0  0  0
  9 22  1  0  0  0  0
  9 39  1  0  0  0  0
 10 11  1  0  0  0  0
 10 40  1  0  0  0  0
 11 12  2  0  0  0  0
 11 13  1  0  0  0  0
 13 14  1  0  0  0  0
 13 41  1  0  0  0  0
 13 42  1  0  0  0  0
 14 20  1  0  0  0  0
 14 15  1  0  0  0  0
 15 16  2  0  0  0  0
 15 43  1  0  0  0  0
 16 17  1  0  0  0  0
 16 44  1  0  0  0  0
 17 18  2  0  0  0  0
 17 19  1  0  0  0  0
 19 20  1  0  0  0  0
 20 21  2  0  0  0  0
 22 45  1  0  0  0  0
 22 46  1  0  0  0  0
M  CHG  1  19  -1
M  END
> <s_m_source_file>
AV-unprocessed.smi

> <i_m_source_file_index>
2855

> <i_lp_mmshare_version>
43012

> <i_f3d_flags>
0

> <s_epik_input>
W0NIM11bQ0BASF0xW0NIMl1bQ0gyXVtDQEBIXShbQ0hdKFtDSDNdKVtDSDNdKVtDQEhdKFtDSDJdMSlbTkhdQyg9TylbQ0gyXW4yW2NIXVtjSF1jKD1PKVtuSF1jMj1P

> <s_epik_cmdline>
J2VwaWtfcHl0aG9uJywgJy1waCcsICc3LjAnLCAnLXRuJywgJzgnLCAnLW1hJywgJzIwMCcsICctbWV0YWxfYmluZGluZycsICctaW1hZScsICc8aW5maWxlLm1hZT4nLCAnLW9tYWUnLCAnPG91dGZpbGUubWFlPic=

> <r_lp_tautomer_probability>
0.999537

> <r_epik_Ionization_Penalty>
3.12102

> <r_epik_Ionization_Penalty_Charging>
2.9581e-08

> <r_epik_Ionization_Penalty_Neutral>
3.12102

> <r_epik_State_Penalty>
3.12011

> <r_epik_Charging_Adjusted_Penalty>
3.12011

> <i_epik_Tot_Q>
-1

> <i_epik_Tot_abs_Q>
1

> <r_epik_Metal_State_Penalty>
0.463583

> <b_epik_Metal_Only>
1

> <s_lp_Force_Field>
OPLS_2005

> <r_lp_Energy>
27.3846

> <b_lp_Chiralities_Consistent>
1

> <s_lp_Variant>
AV-unprocessed.smi:2855-10

> <Gold.Version>
5.8.1

> <Gold.Id.Protein>
6NUR|6NUR_protein|mol2

> <Gold.PLP.Fitness>
42.2731

> <Gold.PLP.PLP>
-42.6398

> <Gold.PLP.part.hbond>
-1.0000

> <Gold.PLP.part.metal>
0.0000

> <Gold.PLP.part.buried>
-1.0123

> <Gold.PLP.part.nonpolar>
-39.8193

> <Gold.PLP.part.repulsive>
0.1535

> <Gold.PLP.ligand.clash>
0.1220

> <Gold.PLP.ligand.torsion>
1.6637

> <Gold.PLP.Chemscore.Hbond>
1.0000

> <Gold.PLP.Chemscore.CHOScore>
0.0000

> <Gold.PLP.Chemscore.Metal>
0.0000

> <Gold.Chemscore.Hbonds>
donor molecule, donor type, donor heavy atom, donor atom, acceptor molecule, acceptor atom, score
      P1  H  7997  8010       L1    12  0.94

> <Gold.PLP.Chemscore.Internal.Correction>
0.0829

> <Gold.Rescore>
     Score         DG    S(hbond)    S(metal)    S(lipo)     H(rot)  DE(clash)    DE(int)     intcor
     16.06     -19.39       1.00        0.00     129.99       1.81       1.81       1.52       ----

> <Gold.Chemscore.Fitness>
16.0649

> <Gold.Chemscore.DG>
-19.3943

> <Gold.Chemscore.ZeroCoef>
-5.4800

> <Gold.Chemscore.Hbond>
0.9997

> <Gold.Chemscore.Metal>
0.0000

> <Gold.Chemscore.Lipo>
129.9899

> <Gold.Chemscore.Internal_Hbond>
0.0000

> <Gold.Chemscore.DEClash>
1.8109

> <Gold.Chemscore.DEInternal>
1.5185

> <Gold.Chemscore.Rot>
1.8100

> <Gold.Chemscore.Internal.Correction>
   9.000000E+99

> <Gold.Chemscore.Hbonds>
donor molecule, donor type, donor heavy atom, donor atom, acceptor molecule, acceptor atom, score
      P1  H  7997  8010       L1    12  0.92

> <Gold.Chemscore.Hbond.Weighted>
-3.3390

> <Gold.Chemscore.Metal.Weighted>
-0.0000

> <Gold.Chemscore.Lipo.Weighted>
-15.2088

> <Gold.Chemscore.Internal_Hbond.Weighted>
0.0000

> <Gold.Chemscore.DEClash.Weighted>
1.8109

> <Gold.Chemscore.DEInternal.Weighted>
1.5185

> <Gold.Chemscore.Rot.Weighted>
4.6335

> <Gold.Chemscore.Internal.Correction.Weighted>
   9.000000E+99

> <Gold.Protein.RotatedTorsions>
[ 6907 6896 6895 6894 ] final  163.30 input  -60.11 | X-H torsion
[ 7974 7965 7964 7962 ] final  -70.63 input  175.53 | X-H torsion
[ 8008 7997 7996 7995 ] final   10.74 input   59.86 | X-H torsion
[ 10167 10162 10161 10158 ] final  -61.02 input  -65.29 | X-H torsion
[ 10718 10713 10712 10709 ] final   79.16 input   66.30 | X-H torsion
[ 10763 10752 10751 10750 ] final   33.24 input  -60.55 | X-H torsion
[ 11005 11000 10999 10996 ] final  -77.48 input  -57.11 | X-H torsion

> <Gold.Protein.ActiveResidues>
 VAL166  LYS551  ARG553  GLY616  TRP617  ASP618  TYR619  PRO620  LYS621  CYS622 
 ASP623  PHE694  ASN695  SER759  ASP760  ASP761  ALA762  ILE779  LEU786  VAL792 
 PHE793  MET794  SER795  GLU796  ALA797  LYS798  CYS799  TRP800  GLU811  SER814 

> <Gold.Protein.RotatedAtoms>
  151.9273  133.3601  159.3917 H   0  0  0  0  0  0  0  0  0  0  0  0  # atno 6907 bound_to 6896
  150.7024  134.4574  159.5374 H   0  0  0  0  0  0  0  0  0  0  0  0  # atno 6908 bound_to 6896
  152.2208  134.8415  160.0537 H   0  0  0  0  0  0  0  0  0  0  0  0  # atno 6909 bound_to 6896
  145.6884  140.9162  143.0794 H   0  0  0  0  0  0  0  0  0  0  0  0  # atno 7974 bound_to 7965
  154.7975  140.2846  155.5946 H   0  0  0  0  0  0  0  0  0  0  0  0  # atno 8008 bound_to 7997
  156.2973  140.2593  156.2765 H   0  0  0  0  0  0  0  0  0  0  0  0  # atno 8009 bound_to 7997
  154.9597  140.0378  157.2173 H   0  0  0  0  0  0  0  0  0  0  0  0  # atno 8010 bound_to 7997
  140.6033  143.2367  151.5878 H   0  0  0  0  0  0  0  0  0  0  0  0  # atno 10167 bound_to 10162
  157.6768  130.9901  150.1891 H   0  0  0  0  0  0  0  0  0  0  0  0  # atno 10718 bound_to 10713
  153.0222  135.6392  154.1481 H   0  0  0  0  0  0  0  0  0  0  0  0  # atno 10763 bound_to 10752
  154.1214  135.2846  155.3209 H   0  0  0  0  0  0  0  0  0  0  0  0  # atno 10764 bound_to 10752
  154.6261  135.5508  153.7690 H   0  0  0  0  0  0  0  0  0  0  0  0  # atno 10765 bound_to 10752
  141.1660  133.7024  156.7827 H   0  0  0  0  0  0  0  0  0  0  0  0  # atno 11005 bound_to 11000
  144.7004  139.8789  143.7446 LP  0  0  0  0  0  0  0  0  0  0  0  0  # atno 17320 bound_to 7965
  146.0903  139.3892  143.0410 LP  0  0  0  0  0  0  0  0  0  0  0  0  # atno 17321 bound_to 7965
  139.5307  144.2925  152.1140 LP  0  0  0  0  0  0  0  0  0  0  0  0  # atno 17342 bound_to 10162
  140.2110  144.4562  150.6386 LP  0  0  0  0  0  0  0  0  0  0  0  0  # atno 17343 bound_to 10162
  156.2607  130.3710  149.8134 LP  0  0  0  0  0  0  0  0  0  0  0  0  # atno 17370 bound_to 10713
  156.5880  130.8494  151.3400 LP  0  0  0  0  0  0  0  0  0  0  0  0  # atno 17371 bound_to 10713
  140.2383  134.8633  157.3547 LP  0  0  0  0  0  0  0  0  0  0  0  0  # atno 17394 bound_to 11000
  140.1822  134.4476  155.7765 LP  0  0  0  0  0  0  0  0  0  0  0  0  # atno 17395 bound_to 11000

$$$$
