AV-unprocessed.smi:33|AV-procd|sdf|211|dock7
  -GOLD-   2262015513D 1   1.00000     0.00000
 Structure written by MMmdl.
 67 72  0  0  0  0  0  0  0  0  1 V2000
  147.8415  143.6214  159.9666 O   0  0  0  0  0  0  0  0  0  0  0  0
  148.4500  143.4724  158.9050 C   0  0  0  0  0  0  0  0  0  0  0  0
  147.9251  142.8624  157.8243 O   0  0  0  0  0  0  0  0  0  0  0  0
  146.5273  142.9158  157.5901 C   0  0  0  0  0  0  0  0  0  0  0  0
  146.2131  142.3120  156.2115 C   0  0  2  0  0  0  0  0  0  0  0  0
  145.5874  141.0497  156.3917 O   0  0  0  0  0  0  0  0  0  0  0  0
  146.5534  140.0449  156.4606 C   0  0  1  0  0  0  0  0  0  0  0  0
  146.0364  138.8895  155.6714 N   0  0  0  0  0  0  0  0  0  0  0  0
  146.5766  138.3137  154.5416 C   0  0  0  0  0  0  0  0  0  0  0  0
  145.8992  137.3123  154.0474 N   0  0  0  0  0  0  0  0  0  0  0  0
  144.8081  137.1937  154.8987 C   0  0  0  0  0  0  0  0  0  0  0  0
  143.6813  136.3300  154.9487 C   0  0  0  0  0  0  0  0  0  0  0  0
  143.4710  135.3440  154.0458 N   0  0  0  0  0  0  0  0  0  0  0  0
  142.1006  135.1886  153.5362 C   0  0  0  0  0  0  0  0  0  0  0  0
  141.7348  134.0956  153.0995 O   0  0  0  0  0  0  0  0  0  0  0  0
  141.1323  136.3365  153.5865 C   0  0  0  0  0  0  0  0  0  0  0  0
  139.7768  136.1033  153.9067 C   0  0  0  0  0  0  0  0  0  0  0  0
  138.8613  137.1729  153.9412 C   0  0  0  0  0  0  0  0  0  0  0  0
  139.2908  138.4787  153.6375 C   0  0  0  0  0  0  0  0  0  0  0  0
  140.6345  138.7137  153.2894 C   0  0  0  0  0  0  0  0  0  0  0  0
  141.5508  137.6450  153.2551 C   0  0  0  0  0  0  0  0  0  0  0  0
  144.6301  134.5252  153.6610 C   0  0  0  0  0  0  0  0  0  0  0  0
  145.5870  134.4274  154.4318 O   0  0  0  0  0  0  0  0  0  0  0  0
  144.6338  133.7642  152.3652 C   0  0  0  0  0  0  0  0  0  0  0  0
  145.2874  132.5151  152.2826 C   0  0  0  0  0  0  0  0  0  0  0  0
  145.3064  131.8021  151.0683 C   0  0  0  0  0  0  0  0  0  0  0  0
  144.6889  132.3421  149.9243 C   0  0  0  0  0  0  0  0  0  0  0  0
  144.0599  133.5997  149.9922 C   0  0  0  0  0  0  0  0  0  0  0  0
  144.0397  134.3131  151.2064 C   0  0  0  0  0  0  0  0  0  0  0  0
  142.7815  136.5119  155.9497 N   0  0  0  0  0  0  0  0  0  0  0  0
  142.9767  137.4806  156.8496 C   0  0  0  0  0  0  0  0  0  0  0  0
  143.9804  138.3581  156.9288 N   0  0  0  0  0  0  0  0  0  0  0  0
  144.8830  138.1787  155.9210 C   0  0  0  0  0  0  0  0  0  0  0  0
  147.8494  140.5858  155.8306 C   0  0  2  0  0  0  0  0  0  0  0  0
  148.9064  140.6528  156.7664 O   0  0  0  0  0  0  0  0  0  0  0  0
  147.4533  141.9850  155.3783 C   0  0  1  0  0  0  0  0  0  0  0  0
  147.1197  141.9551  154.0870 F   0  0  0  0  0  0  0  0  0  0  0  0
  149.8461  143.9481  158.6836 C   0  0  0  0  0  0  0  0  0  0  0  0
  150.3692  144.9687  159.5115 C   0  0  0  0  0  0  0  0  0  0  0  0
  151.6829  145.4411  159.3255 C   0  0  0  0  0  0  0  0  0  0  0  0
  152.4894  144.8993  158.3079 C   0  0  0  0  0  0  0  0  0  0  0  0
  151.9810  143.8837  157.4772 C   0  0  0  0  0  0  0  0  0  0  0  0
  150.6678  143.4090  157.6629 C   0  0  0  0  0  0  0  0  0  0  0  0
  145.9863  142.3902  158.3779 H   0  0  0  0  0  0  0  0  0  0  0  0
  146.2070  143.9582  157.6165 H   0  0  0  0  0  0  0  0  0  0  0  0
  145.5347  142.9761  155.6742 H   0  0  0  0  0  0  0  0  0  0  0  0
  146.6718  139.6837  157.4830 H   0  0  0  0  0  0  0  0  0  0  0  0
  147.4940  138.6640  154.0916 H   0  0  0  0  0  0  0  0  0  0  0  0
  139.4361  135.1054  154.1417 H   0  0  0  0  0  0  0  0  0  0  0  0
  137.8286  136.9903  154.1993 H   0  0  0  0  0  0  0  0  0  0  0  0
  138.5882  139.2987  153.6644 H   0  0  0  0  0  0  0  0  0  0  0  0
  140.9627  139.7136  153.0472 H   0  0  0  0  0  0  0  0  0  0  0  0
  142.5784  137.8368  152.9816 H   0  0  0  0  0  0  0  0  0  0  0  0
  145.7640  132.0908  153.1547 H   0  0  0  0  0  0  0  0  0  0  0  0
  145.7958  130.8409  151.0149 H   0  0  0  0  0  0  0  0  0  0  0  0
  144.7038  131.7949  148.9932 H   0  0  0  0  0  0  0  0  0  0  0  0
  143.5936  134.0184  149.1127 H   0  0  0  0  0  0  0  0  0  0  0  0
  143.5581  135.2796  151.2455 H   0  0  0  0  0  0  0  0  0  0  0  0
  142.2198  137.5655  157.6153 H   0  0  0  0  0  0  0  0  0  0  0  0
  148.1725  139.9661  154.9922 H   0  0  0  0  0  0  0  0  0  0  0  0
  149.6567  140.2066  156.4036 H   0  0  0  0  0  0  0  0  0  0  0  0
  148.2501  142.7238  155.4756 H   0  0  0  0  0  0  0  0  0  0  0  0
  149.7689  145.4004  160.2994 H   0  0  0  0  0  0  0  0  0  0  0  0
  152.0712  146.2203  159.9646 H   0  0  0  0  0  0  0  0  0  0  0  0
  153.4965  145.2624  158.1645 H   0  0  0  0  0  0  0  0  0  0  0  0
  152.5990  143.4680  156.6952 H   0  0  0  0  0  0  0  0  0  0  0  0
  150.3085  142.6299  157.0065 H   0  0  0  0  0  0  0  0  0  0  0  0
  1  2  2  0  0  0  0
  2  3  1  0  0  0  0
  2 38  1  0  0  0  0
  3  4  1  0  0  0  0
  4  5  1  0  0  0  0
  4 44  1  0  0  0  0
  4 45  1  0  0  0  0
  5 36  1  0  0  0  0
  5  6  1  0  0  0  0
  5 46  1  0  0  0  0
  6  7  1  0  0  0  0
  7  8  1  0  0  0  0
  7 34  1  0  0  0  0
  7 47  1  0  0  0  0
  8 33  1  0  0  0  0
  8  9  1  0  0  0  0
  9 10  2  0  0  0  0
  9 48  1  0  0  0  0
 10 11  1  0  0  0  0
 11 33  2  0  0  0  0
 11 12  1  0  0  0  0
 12 13  1  0  0  0  0
 12 30  2  0  0  0  0
 13 14  1  0  0  0  0
 13 22  1  0  0  0  0
 14 15  2  0  0  0  0
 14 16  1  0  0  0  0
 16 21  1  0  0  0  0
 16 17  2  0  0  0  0
 17 18  1  0  0  0  0
 17 49  1  0  0  0  0
 18 19  2  0  0  0  0
 18 50  1  0  0  0  0
 19 20  1  0  0  0  0
 19 51  1  0  0  0  0
 20 21  2  0  0  0  0
 20 52  1  0  0  0  0
 21 53  1  0  0  0  0
 22 23  2  0  0  0  0
 22 24  1  0  0  0  0
 24 29  1  0  0  0  0
 24 25  2  0  0  0  0
 25 26  1  0  0  0  0
 25 54  1  0  0  0  0
 26 27  2  0  0  0  0
 26 55  1  0  0  0  0
 27 28  1  0  0  0  0
 27 56  1  0  0  0  0
 28 29  2  0  0  0  0
 28 57  1  0  0  0  0
 29 58  1  0  0  0  0
 30 31  1  0  0  0  0
 31 32  2  0  0  0  0
 31 59  1  0  0  0  0
 32 33  1  0  0  0  0
 34 35  1  0  0  0  0
 34 36  1  0  0  0  0
 34 60  1  0  0  0  0
 35 61  1  0  0  0  0
 36 37  1  0  0  0  0
 36 62  1  0  0  0  0
 38 43  1  0  0  0  0
 38 39  2  0  0  0  0
 39 40  1  0  0  0  0
 39 63  1  0  0  0  0
 40 41  2  0  0  0  0
 40 64  1  0  0  0  0
 41 42  1  0  0  0  0
 41 65  1  0  0  0  0
 42 43  2  0  0  0  0
 42 66  1  0  0  0  0
 43 67  1  0  0  0  0
M  END
> <s_m_source_file>
AV-unprocessed.smi

> <i_m_source_file_index>
33

> <i_lp_mmshare_version>
43012

> <i_f3d_flags>
0

> <s_epik_input>
W2NIXTFbY0hdW2NIXVtjSF1bY0hdYzFDKD1PKU9bQ0gyXVtDQEBIXTJPW0NASF0oW0NAQEhdKFtPSF0pW0NAQEhdMkYpbihbY0hdbjMpYyhjMzQpbltjSF1uYzROKEMoPU8pYzVbY0hdW2NIXVtjSF1bY0hdW2NIXTUpQyg9TyljNltjSF1bY0hdW2NIXVtjSF1bY0hdNg==

> <s_epik_cmdline>
J2VwaWtfcHl0aG9uJywgJy1waCcsICc3LjAnLCAnLXRuJywgJzgnLCAnLW1hJywgJzIwMCcsICctbWV0YWxfYmluZGluZycsICctaW1hZScsICc8aW5maWxlLm1hZT4nLCAnLW9tYWUnLCAnPG91dGZpbGUubWFlPic=

> <r_lp_tautomer_probability>
1

> <r_epik_Ionization_Penalty>
0.00067664

> <r_epik_Ionization_Penalty_Charging>
0

> <r_epik_Ionization_Penalty_Neutral>
0.00067664

> <r_epik_State_Penalty>
0.000428095

> <r_epik_Charging_Adjusted_Penalty>
0.000428095

> <i_epik_Tot_Q>
0

> <i_epik_Tot_abs_Q>
0

> <r_epik_Metal_State_Penalty>
-0

> <b_epik_Metal_Only>
0

> <s_epik_Chemistry_Notes>
This compound has an ester and may undergo hydrolysis at high or low pH. This compound contains an acetal/aminal-like group ( X-CH(R)-Y where X, Y are N, S, or O) that may be acid/base labile, releasing an aldehyde.

> <s_lp_Force_Field>
OPLS_2005

> <r_lp_Energy>
69.3236

> <b_lp_Chiralities_Consistent>
1

> <s_lp_Variant>
AV-unprocessed.smi:33-13

> <Gold.Version>
5.8.1

> <Gold.Id.Protein>
6NUR|6NUR_protein|mol2

> <Gold.PLP.Fitness>
60.4389

> <Gold.PLP.PLP>
-59.8014

> <Gold.PLP.part.hbond>
-1.0000

> <Gold.PLP.part.metal>
0.0000

> <Gold.PLP.part.buried>
-7.2836

> <Gold.PLP.part.nonpolar>
-52.5874

> <Gold.PLP.part.repulsive>
1.0446

> <Gold.PLP.ligand.clash>
0.0000

> <Gold.PLP.ligand.torsion>
3.5355

> <Gold.PLP.Chemscore.Hbond>
1.0000

> <Gold.PLP.Chemscore.CHOScore>
0.0000

> <Gold.PLP.Chemscore.Metal>
0.0000

> <Gold.Chemscore.Hbonds>
donor molecule, donor type, donor heavy atom, donor atom, acceptor molecule, acceptor atom, score
      P1  H  6933  6944       L1     1  0.96

> <Gold.PLP.Chemscore.Internal.Correction>
4.7084

> <Gold.Rescore>
     Score         DG    S(hbond)    S(metal)    S(lipo)     H(rot)  DE(clash)    DE(int)     intcor
      7.06     -20.97       0.89        0.00     162.28       2.52       1.98      11.93       ----

> <Gold.Chemscore.Fitness>
7.0637

> <Gold.Chemscore.DG>
-20.9715

> <Gold.Chemscore.ZeroCoef>
-5.4800

> <Gold.Chemscore.Hbond>
0.8887

> <Gold.Chemscore.Metal>
0.0000

> <Gold.Chemscore.Lipo>
162.2762

> <Gold.Chemscore.Internal_Hbond>
0.0000

> <Gold.Chemscore.DEClash>
1.9779

> <Gold.Chemscore.DEInternal>
11.9299

> <Gold.Chemscore.Rot>
2.5247

> <Gold.Chemscore.Internal.Correction>
   9.000000E+99

> <Gold.Chemscore.Hbonds>
donor molecule, donor type, donor heavy atom, donor atom, acceptor molecule, acceptor atom, score
      P1  H  6933  6944       L1     1  0.72

> <Gold.Chemscore.Hbond.Weighted>
-2.9684

> <Gold.Chemscore.Metal.Weighted>
-0.0000

> <Gold.Chemscore.Lipo.Weighted>
-18.9863

> <Gold.Chemscore.Internal_Hbond.Weighted>
0.0000

> <Gold.Chemscore.DEClash.Weighted>
1.9779

> <Gold.Chemscore.DEInternal.Weighted>
11.9299

> <Gold.Chemscore.Rot.Weighted>
6.4633

> <Gold.Chemscore.Internal.Correction.Weighted>
   9.000000E+99

> <Gold.Protein.RotatedTorsions>
[ 6907 6896 6895 6894 ] final   48.32 input  -60.11 | X-H torsion
[ 7974 7965 7964 7962 ] final   60.37 input  175.53 | X-H torsion
[ 8008 7997 7996 7995 ] final  110.43 input   59.86 | X-H torsion
[ 10167 10162 10161 10158 ] final  -55.72 input  -65.29 | X-H torsion
[ 10718 10713 10712 10709 ] final  103.48 input   66.30 | X-H torsion
[ 10763 10752 10751 10750 ] final  -28.55 input  -60.55 | X-H torsion
[ 11005 11000 10999 10996 ] final  -92.16 input  -57.11 | X-H torsion

> <Gold.Protein.ActiveResidues>
 VAL166  LYS551  ARG553  GLY616  TRP617  ASP618  TYR619  PRO620  LYS621  CYS622 
 ASP623  PHE694  ASN695  SER759  ASP760  ASP761  ALA762  ILE779  LEU786  VAL792 
 PHE793  MET794  SER795  GLU796  ALA797  LYS798  CYS799  TRP800  GLU811  SER814 

> <Gold.Protein.RotatedAtoms>
  152.2782  134.7858  160.0401 H   0  0  0  0  0  0  0  0  0  0  0  0  # atno 6907 bound_to 6896
  151.8446  133.3424  159.3662 H   0  0  0  0  0  0  0  0  0  0  0  0  # atno 6908 bound_to 6896
  150.7179  134.5286  159.5733 H   0  0  0  0  0  0  0  0  0  0  0  0  # atno 6909 bound_to 6896
  145.8968  139.3551  143.0616 H   0  0  0  0  0  0  0  0  0  0  0  0  # atno 7974 bound_to 7965
  156.2052  140.3039  155.9611 H   0  0  0  0  0  0  0  0  0  0  0  0  # atno 8008 bound_to 7997
  155.2859  140.0440  157.3036 H   0  0  0  0  0  0  0  0  0  0  0  0  # atno 8009 bound_to 7997
  154.5623  140.2324  155.8325 H   0  0  0  0  0  0  0  0  0  0  0  0  # atno 8010 bound_to 7997
  140.6359  143.2482  151.5120 H   0  0  0  0  0  0  0  0  0  0  0  0  # atno 10167 bound_to 10162
  157.6771  131.0780  150.5561 H   0  0  0  0  0  0  0  0  0  0  0  0  # atno 10718 bound_to 10713
  153.7501  135.6926  153.4947 H   0  0  0  0  0  0  0  0  0  0  0  0  # atno 10763 bound_to 10752
  153.2009  135.4437  155.0264 H   0  0  0  0  0  0  0  0  0  0  0  0  # atno 10764 bound_to 10752
  154.8190  135.3413  154.7022 H   0  0  0  0  0  0  0  0  0  0  0  0  # atno 10765 bound_to 10752
  141.1528  133.7802  156.9980 H   0  0  0  0  0  0  0  0  0  0  0  0  # atno 11005 bound_to 11000
  145.8840  140.9345  143.0586 LP  0  0  0  0  0  0  0  0  0  0  0  0  # atno 17320 bound_to 7965
  144.6733  140.0818  143.7469 LP  0  0  0  0  0  0  0  0  0  0  0  0  # atno 17321 bound_to 7965
  139.5569  144.2253  152.1627 LP  0  0  0  0  0  0  0  0  0  0  0  0  # atno 17342 bound_to 10162
  140.1509  144.5115  150.6688 LP  0  0  0  0  0  0  0  0  0  0  0  0  # atno 17343 bound_to 10162
  156.5865  130.4318  149.5955 LP  0  0  0  0  0  0  0  0  0  0  0  0  # atno 17370 bound_to 10713
  156.2619  130.6967  151.1738 LP  0  0  0  0  0  0  0  0  0  0  0  0  # atno 17371 bound_to 10713
  140.0958  134.9565  157.1848 LP  0  0  0  0  0  0  0  0  0  0  0  0  # atno 17394 bound_to 11000
  140.3384  134.2732  155.7216 LP  0  0  0  0  0  0  0  0  0  0  0  0  # atno 17395 bound_to 11000

$$$$
