AV-unprocessed.smi:200|AV-procd|sdf|1579|dock4
  -GOLD-   2262019463D 1   1.00000     0.00000
 Structure written by MMmdl.
 56 59  0  0  0  0  0  0  0  0  1 V2000
  139.6557  136.7416  153.0116 C   0  0  0  0  0  0  0  0  0  0  0  0
  140.5242  135.7057  153.4347 O   0  0  0  0  0  0  0  0  0  0  0  0
  141.8498  136.1610  153.6485 C   0  0  0  0  0  0  0  0  0  0  0  0
  142.7527  135.6185  152.5265 C   0  0  0  0  0  0  0  0  0  0  0  0
  144.1434  135.4043  152.9432 N   0  0  0  0  0  0  0  0  0  0  0  0
  144.7673  136.4516  153.5322 C   0  0  0  0  0  0  0  0  0  0  0  0
  144.4762  136.6912  154.8349 N   0  0  0  0  0  0  0  0  0  0  0  0
  145.0544  137.7129  155.4727 C   0  0  0  0  0  0  0  0  0  0  0  0
  145.9415  138.5938  155.0057 N   0  0  0  0  0  0  0  0  0  0  0  0
  146.2497  138.3458  153.7007 C   0  0  0  0  0  0  0  0  0  0  0  0
  145.7115  137.3046  152.8924 C   0  0  0  0  0  0  0  0  0  0  0  0
  146.2625  137.3634  151.6181 N   0  0  0  0  0  0  0  0  0  0  0  0
  147.0740  138.3834  151.6680 C   0  0  0  0  0  0  0  0  0  0  0  0
  147.1363  139.0260  152.8840 N   0  0  0  0  0  0  0  0  0  0  0  0
  147.9592  140.1808  153.2107 C   0  0  0  0  0  0  0  0  0  0  0  0
  148.7560  140.0425  154.5252 C   0  0  0  0  0  0  0  0  0  0  0  0
  149.3061  138.6142  154.6901 C   0  0  0  0  0  0  0  0  0  0  0  0
  150.3513  138.3533  153.7750 O   0  0  0  0  0  0  0  0  0  0  0  0
  149.7714  141.1585  154.8072 C   0  0  0  0  0  0  0  0  0  0  0  0
  149.2507  141.3737  156.1357 O   0  0  0  0  0  0  0  0  0  0  0  0
  148.0801  140.6072  155.7835 C   0  0  0  0  0  0  0  0  0  0  0  0
  145.0558  134.6180  152.1060 C   0  0  1  0  0  0  0  0  0  0  0  0
  146.3810  134.2330  152.7686 C   0  0  0  0  0  0  0  0  0  0  0  0
  146.9160  133.1486  151.8361 C   0  0  0  0  0  0  0  0  0  0  0  0
  145.6755  132.3393  151.4242 C   0  0  2  0  0  0  0  0  0  0  0  0
  145.7969  131.7049  150.0322 C   0  0  0  0  0  0  0  0  0  0  0  0
  144.4770  133.2982  151.5669 C   0  0  0  0  0  0  0  0  0  0  0  0
  138.6551  136.3391  152.8545 H   0  0  0  0  0  0  0  0  0  0  0  0
  139.9937  137.1813  152.0723 H   0  0  0  0  0  0  0  0  0  0  0  0
  139.5876  137.5289  153.7633 H   0  0  0  0  0  0  0  0  0  0  0  0
  141.8621  137.2514  153.6221 H   0  0  0  0  0  0  0  0  0  0  0  0
  142.2097  135.8648  154.6348 H   0  0  0  0  0  0  0  0  0  0  0  0
  142.3251  134.6853  152.1652 H   0  0  0  0  0  0  0  0  0  0  0  0
  142.7251  136.3027  151.6800 H   0  0  0  0  0  0  0  0  0  0  0  0
  144.7654  137.8427  156.5052 H   0  0  0  0  0  0  0  0  0  0  0  0
  147.6616  138.6920  150.8154 H   0  0  0  0  0  0  0  0  0  0  0  0
  148.6372  140.3606  152.3754 H   0  0  0  0  0  0  0  0  0  0  0  0
  147.3070  141.0541  153.2471 H   0  0  0  0  0  0  0  0  0  0  0  0
  149.7022  138.4713  155.6961 H   0  0  0  0  0  0  0  0  0  0  0  0
  148.5251  137.8636  154.5673 H   0  0  0  0  0  0  0  0  0  0  0  0
  150.0401  138.5425  152.9028 H   0  0  0  0  0  0  0  0  0  0  0  0
  150.8104  140.8272  154.8112 H   0  0  0  0  0  0  0  0  0  0  0  0
  149.6469  142.0402  154.1761 H   0  0  0  0  0  0  0  0  0  0  0  0
  147.2267  141.2561  155.5821 H   0  0  0  0  0  0  0  0  0  0  0  0
  147.8276  139.8535  156.5301 H   0  0  0  0  0  0  0  0  0  0  0  0
  145.3240  135.2236  151.2378 H   0  0  0  0  0  0  0  0  0  0  0  0
  147.0624  135.0787  152.8638 H   0  0  0  0  0  0  0  0  0  0  0  0
  146.2332  133.8070  153.7601 H   0  0  0  0  0  0  0  0  0  0  0  0
  147.3693  133.6179  150.9615 H   0  0  0  0  0  0  0  0  0  0  0  0
  147.6790  132.5299  152.3096 H   0  0  0  0  0  0  0  0  0  0  0  0
  145.5452  131.5381  152.1532 H   0  0  0  0  0  0  0  0  0  0  0  0
  145.9216  132.4644  149.2598 H   0  0  0  0  0  0  0  0  0  0  0  0
  144.9067  131.1244  149.7886 H   0  0  0  0  0  0  0  0  0  0  0  0
  146.6547  131.0336  149.9825 H   0  0  0  0  0  0  0  0  0  0  0  0
  143.7527  132.8618  152.2547 H   0  0  0  0  0  0  0  0  0  0  0  0
  143.9572  133.4642  150.6225 H   0  0  0  0  0  0  0  0  0  0  0  0
  1  2  1  0  0  0  0
  1 28  1  0  0  0  0
  1 29  1  0  0  0  0
  1 30  1  0  0  0  0
  2  3  1  0  0  0  0
  3  4  1  0  0  0  0
  3 31  1  0  0  0  0
  3 32  1  0  0  0  0
  4  5  1  0  0  0  0
  4 33  1  0  0  0  0
  4 34  1  0  0  0  0
  5  6  1  0  0  0  0
  5 22  1  0  0  0  0
  6 11  1  0  0  0  0
  6  7  2  0  0  0  0
  7  8  1  0  0  0  0
  8  9  2  0  0  0  0
  8 35  1  0  0  0  0
  9 10  1  0  0  0  0
 10 14  1  0  0  0  0
 10 11  2  0  0  0  0
 11 12  1  0  0  0  0
 12 13  2  0  0  0  0
 13 14  1  0  0  0  0
 13 36  1  0  0  0  0
 14 15  1  0  0  0  0
 15 16  1  0  0  0  0
 15 37  1  0  0  0  0
 15 38  1  0  0  0  0
 16 21  1  0  0  0  0
 16 17  1  0  0  0  0
 16 19  1  0  0  0  0
 17 18  1  0  0  0  0
 17 39  1  0  0  0  0
 17 40  1  0  0  0  0
 18 41  1  0  0  0  0
 19 20  1  0  0  0  0
 19 42  1  0  0  0  0
 19 43  1  0  0  0  0
 20 21  1  0  0  0  0
 21 44  1  0  0  0  0
 21 45  1  0  0  0  0
 22 27  1  0  0  0  0
 22 23  1  0  0  0  0
 22 46  1  0  0  0  0
 23 24  1  0  0  0  0
 23 47  1  0  0  0  0
 23 48  1  0  0  0  0
 24 25  1  0  0  0  0
 24 49  1  0  0  0  0
 24 50  1  0  0  0  0
 25 26  1  0  0  0  0
 25 27  1  0  0  0  0
 25 51  1  0  0  0  0
 26 52  1  0  0  0  0
 26 53  1  0  0  0  0
 26 54  1  0  0  0  0
 27 55  1  0  0  0  0
 27 56  1  0  0  0  0
M  END
> <s_m_source_file>
AV-unprocessed.smi

> <i_m_source_file_index>
200

> <i_lp_mmshare_version>
43012

> <i_f3d_flags>
0

> <s_epik_input>
W0NIM11bQ0BASF0oW0NIMl0xKVtDSDJdW0NIMl1bQ0BIXTFOKFtDSDJdW0NIMl1PW0NIM10pYyhuW2NIXW4yKWMoYzIzKW5bY0hdbjNbQ0gyXUM0KFtDSDJdW09IXSlbQ0gyXU9bQ0gyXTQ=

> <s_epik_cmdline>
J2VwaWtfcHl0aG9uJywgJy1waCcsICc3LjAnLCAnLXRuJywgJzgnLCAnLW1hJywgJzIwMCcsICctbWV0YWxfYmluZGluZycsICctaW1hZScsICc8aW5maWxlLm1hZT4nLCAnLW9tYWUnLCAnPG91dGZpbGUubWFlPic=

> <r_lp_tautomer_probability>
1

> <r_epik_Ionization_Penalty>
0.00363087

> <r_epik_Ionization_Penalty_Charging>
0

> <r_epik_Ionization_Penalty_Neutral>
0.00363087

> <r_epik_State_Penalty>
0.0024341

> <r_epik_Charging_Adjusted_Penalty>
0.0024341

> <i_epik_Tot_Q>
0

> <i_epik_Tot_abs_Q>
0

> <r_epik_Metal_State_Penalty>
-0

> <b_epik_Metal_Only>
0

> <s_lp_Force_Field>
OPLS_2005

> <r_lp_Energy>
49.9898

> <b_lp_Chiralities_Consistent>
1

> <s_lp_Variant>
AV-unprocessed.smi:200-4

> <Gold.Version>
5.8.1

> <Gold.Id.Protein>
6NUR|6NUR_protein|mol2

> <Gold.PLP.Fitness>
46.7590

> <Gold.PLP.PLP>
-40.6584

> <Gold.PLP.part.hbond>
-3.8442

> <Gold.PLP.part.metal>
0.0000

> <Gold.PLP.part.buried>
-2.1589

> <Gold.PLP.part.nonpolar>
-34.5211

> <Gold.PLP.part.repulsive>
1.1207

> <Gold.PLP.ligand.clash>
0.0000

> <Gold.PLP.ligand.torsion>
1.8265

> <Gold.PLP.Chemscore.Hbond>
2.0000

> <Gold.PLP.Chemscore.CHOScore>
0.7939

> <Gold.PLP.Chemscore.Metal>
0.0000

> <Gold.Chemscore.Hbonds>
donor molecule, donor type, donor heavy atom, donor atom, acceptor molecule, acceptor atom, score
      L1  H    18    41       P1  7957  0.28
      L1  C    13    36       P1  7957  0.64

> <Gold.PLP.Chemscore.Internal.Correction>
1.3720

> <Gold.Rescore>
     Score         DG    S(hbond)    S(metal)    S(lipo)     H(rot)  DE(clash)    DE(int)     intcor
      8.35     -12.40       1.92        0.00      76.02       3.28       1.26       2.79       ----

> <Gold.Chemscore.Fitness>
8.3522

> <Gold.Chemscore.DG>
-12.4001

> <Gold.Chemscore.ZeroCoef>
-5.4800

> <Gold.Chemscore.Hbond>
1.9200

> <Gold.Chemscore.Metal>
0.0000

> <Gold.Chemscore.Lipo>
76.0182

> <Gold.Chemscore.Internal_Hbond>
0.0000

> <Gold.Chemscore.DEClash>
1.2557

> <Gold.Chemscore.DEInternal>
2.7921

> <Gold.Chemscore.Rot>
3.2761

> <Gold.Chemscore.Internal.Correction>
   9.000000E+99

> <Gold.Chemscore.Hbonds>
donor molecule, donor type, donor heavy atom, donor atom, acceptor molecule, acceptor atom, score
      L1  H    18    41       P1  7957  0.14

> <Gold.Chemscore.Hbond.Weighted>
-6.4128

> <Gold.Chemscore.Metal.Weighted>
-0.0000

> <Gold.Chemscore.Lipo.Weighted>
-8.8941

> <Gold.Chemscore.Internal_Hbond.Weighted>
0.0000

> <Gold.Chemscore.DEClash.Weighted>
1.2557

> <Gold.Chemscore.DEInternal.Weighted>
2.7921

> <Gold.Chemscore.Rot.Weighted>
8.3868

> <Gold.Chemscore.Internal.Correction.Weighted>
   9.000000E+99

> <Gold.Protein.RotatedTorsions>
[ 6907 6896 6895 6894 ] final   87.00 input  -60.11 | X-H torsion
[ 7974 7965 7964 7962 ] final  168.89 input  175.53 | X-H torsion
[ 8008 7997 7996 7995 ] final  155.21 input   59.86 | X-H torsion
[ 10167 10162 10161 10158 ] final   62.55 input  -65.29 | X-H torsion
[ 10718 10713 10712 10709 ] final -173.65 input   66.30 | X-H torsion
[ 10763 10752 10751 10750 ] final -164.23 input  -60.55 | X-H torsion
[ 11005 11000 10999 10996 ] final   40.06 input  -57.11 | X-H torsion

> <Gold.Protein.ActiveResidues>
 VAL166  LYS551  ARG553  GLY616  TRP617  ASP618  TYR619  PRO620  LYS621  CYS622 
 ASP623  PHE694  ASN695  SER759  ASP760  ASP761  ALA762  ILE779  LEU786  VAL792 
 PHE793  MET794  SER795  GLU796  ALA797  LYS798  CYS799  TRP800  GLU811  SER814 

> <Gold.Protein.RotatedAtoms>
  152.5404  134.2345  159.8837 H   0  0  0  0  0  0  0  0  0  0  0  0  # atno 6907 bound_to 6896
  151.2315  133.4441  159.2611 H   0  0  0  0  0  0  0  0  0  0  0  0  # atno 6908 bound_to 6896
  151.0711  134.9812  159.8365 H   0  0  0  0  0  0  0  0  0  0  0  0  # atno 6909 bound_to 6896
  144.7373  139.8974  143.6407 H   0  0  0  0  0  0  0  0  0  0  0  0  # atno 7974 bound_to 7965
  156.2490  140.1946  156.6765 H   0  0  0  0  0  0  0  0  0  0  0  0  # atno 8008 bound_to 7997
  154.6353  140.0590  156.9807 H   0  0  0  0  0  0  0  0  0  0  0  0  # atno 8009 bound_to 7997
  155.1646  140.3263  155.4407 H   0  0  0  0  0  0  0  0  0  0  0  0  # atno 8010 bound_to 7997
  140.1427  144.4538  150.6802 H   0  0  0  0  0  0  0  0  0  0  0  0  # atno 10167 bound_to 10162
  156.7735  130.9457  151.3120 H   0  0  0  0  0  0  0  0  0  0  0  0  # atno 10718 bound_to 10713
  154.7048  135.2995  154.9287 H   0  0  0  0  0  0  0  0  0  0  0  0  # atno 10763 bound_to 10752
  154.0207  135.6683  153.4776 H   0  0  0  0  0  0  0  0  0  0  0  0  # atno 10764 bound_to 10752
  153.0709  135.5061  154.8213 H   0  0  0  0  0  0  0  0  0  0  0  0  # atno 10765 bound_to 10752
  140.1967  134.3920  155.8117 H   0  0  0  0  0  0  0  0  0  0  0  0  # atno 11005 bound_to 11000
  146.1097  139.4100  143.0295 LP  0  0  0  0  0  0  0  0  0  0  0  0  # atno 17320 bound_to 7965
  145.7461  140.9990  143.1275 LP  0  0  0  0  0  0  0  0  0  0  0  0  # atno 17321 bound_to 7965
  140.6750  143.2301  151.5529 LP  0  0  0  0  0  0  0  0  0  0  0  0  # atno 17342 bound_to 10162
  139.5464  144.2510  152.1450 LP  0  0  0  0  0  0  0  0  0  0  0  0  # atno 17343 bound_to 10162
  157.6680  130.9025  149.9975 LP  0  0  0  0  0  0  0  0  0  0  0  0  # atno 17370 bound_to 10713
  156.1263  130.3644  149.9804 LP  0  0  0  0  0  0  0  0  0  0  0  0  # atno 17371 bound_to 10713
  141.2227  133.7073  156.8188 LP  0  0  0  0  0  0  0  0  0  0  0  0  # atno 17394 bound_to 11000
  140.2099  134.8835  157.3263 LP  0  0  0  0  0  0  0  0  0  0  0  0  # atno 17395 bound_to 11000

$$$$
