AV-unprocessed.smi:139|AV-procd|sdf|1181|dock3
  -GOLD-   2262018333D 1   1.00000     0.00000
 Structure written by MMmdl.
 50 53  0  0  0  0  0  0  0  0  1 V2000
  148.9272  136.4896  156.3994 O   0  0  0  0  0  0  0  0  0  0  0  0
  149.3322  136.4587  155.2365 C   0  0  0  0  0  0  0  0  0  0  0  0
  150.4815  137.3680  154.7765 C   0  0  0  0  0  0  0  0  0  0  0  0
  150.2056  138.8072  154.9772 N   0  0  0  0  0  0  0  0  0  0  0  0
  149.1155  139.3982  154.2914 C   0  0  0  0  0  0  0  0  0  0  0  0
  148.3939  138.7347  153.5454 O   0  0  0  0  0  0  0  0  0  0  0  0
  148.9239  140.8250  154.5256 C   0  0  0  0  0  0  0  0  0  0  0  0
  147.9142  141.4694  153.9165 F   0  0  0  0  0  0  0  0  0  0  0  0
  149.7469  141.5126  155.3439 C   0  0  0  0  0  0  0  0  0  0  0  0
  150.8083  140.9225  156.0072 N   0  0  0  0  0  0  0  0  0  0  0  0
  151.7354  141.7120  156.9079 C   0  0  2  0  0  0  0  0  0  0  0  0
  151.8133  141.0690  158.3060 C   0  0  0  0  0  0  0  0  0  0  0  0
  151.5153  142.2343  159.2287 C   0  0  0  0  0  0  0  0  0  0  0  0
  150.6205  143.1037  158.3588 C   0  0  0  0  0  0  0  0  0  0  0  0
  151.2394  143.0089  157.0827 O   0  0  0  0  0  0  0  0  0  0  0  0
  151.0651  139.5464  155.8245 C   0  0  0  0  0  0  0  0  0  0  0  0
  152.0189  139.0057  156.3890 O   0  0  0  0  0  0  0  0  0  0  0  0
  148.8248  135.6452  154.2981 N   0  0  0  0  0  0  0  0  0  0  0  0
  147.7099  134.7166  154.4732 C   0  0  2  0  0  0  0  0  0  0  0  0
  148.2393  133.2755  154.6003 C   0  0  0  0  0  0  0  0  0  0  0  0
  148.5008  132.6338  153.2347 C   0  0  0  0  0  0  0  0  0  0  0  0
  147.2190  132.5848  152.3950 C   0  0  0  0  0  0  0  0  0  0  0  0
  146.4644  133.9050  152.3721 C   0  0  0  0  0  0  0  0  0  0  0  0
  145.5169  134.1294  151.3513 C   0  0  0  0  0  0  0  0  0  0  0  0
  144.7947  135.3365  151.3008 C   0  0  0  0  0  0  0  0  0  0  0  0
  145.0156  136.3277  152.2741 C   0  0  0  0  0  0  0  0  0  0  0  0
  145.9571  136.1100  153.2972 C   0  0  0  0  0  0  0  0  0  0  0  0
  146.6848  134.9014  153.3580 C   0  0  0  0  0  0  0  0  0  0  0  0
  151.3896  137.0569  155.2946 H   0  0  0  0  0  0  0  0  0  0  0  0
  150.6954  137.1662  153.7252 H   0  0  0  0  0  0  0  0  0  0  0  0
  149.5518  142.5666  155.4695 H   0  0  0  0  0  0  0  0  0  0  0  0
  152.6903  141.7562  156.3812 H   0  0  0  0  0  0  0  0  0  0  0  0
  151.0501  140.2960  158.4108 H   0  0  0  0  0  0  0  0  0  0  0  0
  152.7940  140.6249  158.4786 H   0  0  0  0  0  0  0  0  0  0  0  0
  151.0400  141.9313  160.1619 H   0  0  0  0  0  0  0  0  0  0  0  0
  152.4355  142.7682  159.4694 H   0  0  0  0  0  0  0  0  0  0  0  0
  149.6078  142.7000  158.3176 H   0  0  0  0  0  0  0  0  0  0  0  0
  150.5680  144.1360  158.7048 H   0  0  0  0  0  0  0  0  0  0  0  0
  149.2277  135.6908  153.3732 H   0  0  0  0  0  0  0  0  0  0  0  0
  147.1896  134.9508  155.4036 H   0  0  0  0  0  0  0  0  0  0  0  0
  149.1335  133.2440  155.2243 H   0  0  0  0  0  0  0  0  0  0  0  0
  147.4926  132.6719  155.1181 H   0  0  0  0  0  0  0  0  0  0  0  0
  149.2597  133.2134  152.7077 H   0  0  0  0  0  0  0  0  0  0  0  0
  148.9072  131.6292  153.3551 H   0  0  0  0  0  0  0  0  0  0  0  0
  147.4584  132.2810  151.3751 H   0  0  0  0  0  0  0  0  0  0  0  0
  146.5477  131.8255  152.7976 H   0  0  0  0  0  0  0  0  0  0  0  0
  145.3407  133.3729  150.6007 H   0  0  0  0  0  0  0  0  0  0  0  0
  144.0720  135.5012  150.5151 H   0  0  0  0  0  0  0  0  0  0  0  0
  144.4640  137.2555  152.2365 H   0  0  0  0  0  0  0  0  0  0  0  0
  146.1230  136.8774  154.0395 H   0  0  0  0  0  0  0  0  0  0  0  0
  1  2  2  0  0  0  0
  2  3  1  0  0  0  0
  2 18  1  0  0  0  0
  3  4  1  0  0  0  0
  3 29  1  0  0  0  0
  3 30  1  0  0  0  0
  4 16  1  0  0  0  0
  4  5  1  0  0  0  0
  5  6  2  0  0  0  0
  5  7  1  0  0  0  0
  7  8  1  0  0  0  0
  7  9  2  0  0  0  0
  9 10  1  0  0  0  0
  9 31  1  0  0  0  0
 10 11  1  0  0  0  0
 10 16  1  0  0  0  0
 11 15  1  0  0  0  0
 11 12  1  0  0  0  0
 11 32  1  0  0  0  0
 12 13  1  0  0  0  0
 12 33  1  0  0  0  0
 12 34  1  0  0  0  0
 13 14  1  0  0  0  0
 13 35  1  0  0  0  0
 13 36  1  0  0  0  0
 14 15  1  0  0  0  0
 14 37  1  0  0  0  0
 14 38  1  0  0  0  0
 16 17  2  0  0  0  0
 18 19  1  0  0  0  0
 18 39  1  0  0  0  0
 19 28  1  0  0  0  0
 19 20  1  0  0  0  0
 19 40  1  0  0  0  0
 20 21  1  0  0  0  0
 20 41  1  0  0  0  0
 20 42  1  0  0  0  0
 21 22  1  0  0  0  0
 21 43  1  0  0  0  0
 21 44  1  0  0  0  0
 22 23  1  0  0  0  0
 22 45  1  0  0  0  0
 22 46  1  0  0  0  0
 23 28  2  0  0  0  0
 23 24  1  0  0  0  0
 24 25  2  0  0  0  0
 24 47  1  0  0  0  0
 25 26  1  0  0  0  0
 25 48  1  0  0  0  0
 26 27  2  0  0  0  0
 26 49  1  0  0  0  0
 27 28  1  0  0  0  0
 27 50  1  0  0  0  0
M  END
> <s_m_source_file>
AV-unprocessed.smi

> <i_m_source_file_index>
139

> <i_lp_mmshare_version>
43012

> <i_f3d_flags>
0

> <s_epik_input>
W2NIXTFbY0hdW2NIXVtjSF1jKGMxMilbQ0BASF0oW0NIMl1bQ0gyXVtDSDJdMilbTkhdQyg9TylbQ0gyXW4zYyg9TyljKEYpW2NIXW4oYzM9TylbQ0BASF00W0NIMl1bQ0gyXVtDSDJdTzQ=

> <s_epik_cmdline>
J2VwaWtfcHl0aG9uJywgJy1waCcsICc3LjAnLCAnLXRuJywgJzgnLCAnLW1hJywgJzIwMCcsICctbWV0YWxfYmluZGluZycsICctaW1hZScsICc8aW5maWxlLm1hZT4nLCAnLW9tYWUnLCAnPG91dGZpbGUubWFlPic=

> <r_lp_tautomer_probability>
1

> <r_epik_Ionization_Penalty>
3.261e-08

> <r_epik_Ionization_Penalty_Charging>
3.6725e-09

> <r_epik_Ionization_Penalty_Neutral>
2.89375e-08

> <r_epik_State_Penalty>
-0

> <r_epik_Charging_Adjusted_Penalty>
3.6725e-09

> <i_epik_Tot_Q>
0

> <i_epik_Tot_abs_Q>
0

> <r_epik_Metal_State_Penalty>
-0

> <b_epik_Metal_Only>
0

> <s_epik_Chemistry_Notes>
This compound contains an acetal/aminal-like group ( X-CH(R)-Y where X, Y are N, S, or O) that may be acid/base labile, releasing an aldehyde.

> <s_lp_Force_Field>
OPLS_2005

> <r_lp_Energy>
30.3029

> <b_lp_Chiralities_Consistent>
1

> <s_lp_Variant>
AV-unprocessed.smi:139-1

> <Gold.Version>
5.8.1

> <Gold.Id.Protein>
6NUR|6NUR_protein|mol2

> <Gold.PLP.Fitness>
47.3280

> <Gold.PLP.PLP>
-41.7785

> <Gold.PLP.part.hbond>
-0.7541

> <Gold.PLP.part.metal>
0.0000

> <Gold.PLP.part.buried>
-4.3602

> <Gold.PLP.part.nonpolar>
-38.0733

> <Gold.PLP.part.repulsive>
1.3934

> <Gold.PLP.ligand.clash>
0.0000

> <Gold.PLP.ligand.torsion>
0.2407

> <Gold.PLP.Chemscore.Hbond>
1.0000

> <Gold.PLP.Chemscore.CHOScore>
1.0000

> <Gold.PLP.Chemscore.Metal>
0.0000

> <Gold.Chemscore.Hbonds>
donor molecule, donor type, donor heavy atom, donor atom, acceptor molecule, acceptor atom, score
      L1  H    18    39       P1  7948  0.90
      L1  C     9    31       P1  8028  1.00

> <Gold.PLP.Chemscore.Internal.Correction>
0.0307

> <Gold.Rescore>
     Score         DG    S(hbond)    S(metal)    S(lipo)     H(rot)  DE(clash)    DE(int)     intcor
     11.34     -13.22       0.97        0.00      78.18       1.82       0.02       1.87       ----

> <Gold.Chemscore.Fitness>
11.3396

> <Gold.Chemscore.DG>
-13.2235

> <Gold.Chemscore.ZeroCoef>
-5.4800

> <Gold.Chemscore.Hbond>
0.9728

> <Gold.Chemscore.Metal>
0.0000

> <Gold.Chemscore.Lipo>
78.1762

> <Gold.Chemscore.Internal_Hbond>
0.0000

> <Gold.Chemscore.DEClash>
0.0174

> <Gold.Chemscore.DEInternal>
1.8664

> <Gold.Chemscore.Rot>
1.8174

> <Gold.Chemscore.Internal.Correction>
   9.000000E+99

> <Gold.Chemscore.Hbonds>
donor molecule, donor type, donor heavy atom, donor atom, acceptor molecule, acceptor atom, score
      L1  H    18    39       P1  7948  0.43

> <Gold.Chemscore.Hbond.Weighted>
-3.2493

> <Gold.Chemscore.Metal.Weighted>
-0.0000

> <Gold.Chemscore.Lipo.Weighted>
-9.1466

> <Gold.Chemscore.Internal_Hbond.Weighted>
0.0000

> <Gold.Chemscore.DEClash.Weighted>
0.0174

> <Gold.Chemscore.DEInternal.Weighted>
1.8664

> <Gold.Chemscore.Rot.Weighted>
4.6524

> <Gold.Chemscore.Internal.Correction.Weighted>
   9.000000E+99

> <Gold.Protein.RotatedTorsions>
[ 6907 6896 6895 6894 ] final   71.80 input  -60.11 | X-H torsion
[ 7974 7965 7964 7962 ] final  108.07 input  175.53 | X-H torsion
[ 8008 7997 7996 7995 ] final  -74.59 input   59.86 | X-H torsion
[ 10167 10162 10161 10158 ] final -169.88 input  -65.29 | X-H torsion
[ 10718 10713 10712 10709 ] final   45.08 input   66.30 | X-H torsion
[ 10763 10752 10751 10750 ] final  117.05 input  -60.55 | X-H torsion
[ 11005 11000 10999 10996 ] final  -99.26 input  -57.11 | X-H torsion

> <Gold.Protein.ActiveResidues>
 VAL166  LYS551  ARG553  GLY616  TRP617  ASP618  TYR619  PRO620  LYS621  CYS622 
 ASP623  PHE694  ASN695  SER759  ASP760  ASP761  ALA762  ILE779  LEU786  VAL792 
 PHE793  MET794  SER795  GLU796  ALA797  LYS798  CYS799  TRP800  GLU811  SER814 

> <Gold.Protein.RotatedAtoms>
  152.4831  134.4666  159.9621 H   0  0  0  0  0  0  0  0  0  0  0  0  # atno 6907 bound_to 6896
  151.4668  133.3573  159.2825 H   0  0  0  0  0  0  0  0  0  0  0  0  # atno 6908 bound_to 6896
  150.8919  134.8349  159.7360 H   0  0  0  0  0  0  0  0  0  0  0  0  # atno 6909 bound_to 6896
  145.2855  139.2618  143.3893 H   0  0  0  0  0  0  0  0  0  0  0  0  # atno 7974 bound_to 7965
  154.5343  140.0759  156.8401 H   0  0  0  0  0  0  0  0  0  0  0  0  # atno 8008 bound_to 7997
  155.3309  140.3401  155.4221 H   0  0  0  0  0  0  0  0  0  0  0  0  # atno 8009 bound_to 7997
  156.1813  140.1653  156.8256 H   0  0  0  0  0  0  0  0  0  0  0  0  # atno 8010 bound_to 7997
  139.5895  144.1244  152.1617 H   0  0  0  0  0  0  0  0  0  0  0  0  # atno 10167 bound_to 10162
  157.4337  130.8040  149.7628 H   0  0  0  0  0  0  0  0  0  0  0  0  # atno 10718 bound_to 10713
  153.5465  135.3548  155.2741 H   0  0  0  0  0  0  0  0  0  0  0  0  # atno 10763 bound_to 10752
  154.8711  135.4103  154.2985 H   0  0  0  0  0  0  0  0  0  0  0  0  # atno 10764 bound_to 10752
  153.3703  135.7064  153.6712 H   0  0  0  0  0  0  0  0  0  0  0  0  # atno 10765 bound_to 10752
  141.1315  133.8308  157.0948 H   0  0  0  0  0  0  0  0  0  0  0  0  # atno 11005 bound_to 11000
  146.3202  140.3333  142.8642 LP  0  0  0  0  0  0  0  0  0  0  0  0  # atno 17320 bound_to 7965
  144.9217  140.7875  143.5744 LP  0  0  0  0  0  0  0  0  0  0  0  0  # atno 17321 bound_to 7965
  140.0815  144.5697  150.7119 LP  0  0  0  0  0  0  0  0  0  0  0  0  # atno 17342 bound_to 10162
  140.7161  143.2546  151.4429 LP  0  0  0  0  0  0  0  0  0  0  0  0  # atno 17343 bound_to 10162
  155.9923  130.3932  150.2949 LP  0  0  0  0  0  0  0  0  0  0  0  0  # atno 17370 bound_to 10713
  157.1108  131.0221  151.3048 LP  0  0  0  0  0  0  0  0  0  0  0  0  # atno 17371 bound_to 10713
  140.0370  134.9873  157.0889 LP  0  0  0  0  0  0  0  0  0  0  0  0  # atno 17394 bound_to 11000
  140.4195  134.1896  155.7164 LP  0  0  0  0  0  0  0  0  0  0  0  0  # atno 17395 bound_to 11000

$$$$
