AV-unprocessed.smi:867|AV-procd|sdf|3995|dock9
  -GOLD-   22720 1473D 1   1.00000     0.00000
 Structure written by MMmdl.
 53 56  0  0  0  0  0  0  0  0  2 V2000
  150.7318  139.3225  154.0974 O   0  0  0  0  0  0  0  0  0  0  0  0
  149.7919  139.6081  154.8401 C   0  0  0  0  0  0  0  0  0  0  0  0
  148.9192  138.6860  155.2804 N   0  0  0  0  0  0  0  0  0  0  0  0
  148.9748  137.2615  154.9742 C   0  0  0  0  0  0  0  0  0  0  0  0
  149.7983  136.4926  156.0194 C   0  0  0  0  0  0  0  0  0  0  0  0
  149.8342  135.0048  155.7323 C   0  0  0  0  0  0  0  0  0  0  0  0
  150.6166  134.1351  156.5193 C   0  0  0  0  0  0  0  0  0  0  0  0
  150.6212  132.7610  156.2113 C   0  0  0  0  0  0  0  0  0  0  0  0
  149.8417  132.3143  155.1256 C   0  0  0  0  0  0  0  0  0  0  0  0
  149.0901  133.1382  154.3640 N   0  0  0  0  0  0  0  0  0  0  0  0
  149.0909  134.4544  154.6665 C   0  0  0  0  0  0  0  0  0  0  0  0
  149.5058  140.8791  155.2162 N   0  0  0  0  0  0  0  0  0  0  0  0
  148.3681  141.2974  156.0440 C   0  0  0  0  0  0  0  0  0  0  0  0
  148.8637  141.6448  157.4619 C   0  0  0  0  0  0  0  0  0  0  0  0
  149.9566  142.6618  157.4451 N   0  3  0  0  0  0  0  0  0  0  0  0
  150.5099  143.0053  158.7917 C   0  0  1  0  0  0  0  0  0  0  0  0
  151.5818  141.9804  159.2504 C   0  0  0  0  0  0  0  0  0  0  0  0
  152.8024  142.8533  159.5854 C   0  0  2  0  0  0  0  0  0  0  0  0
  152.5181  143.6694  160.8567 C   0  0  0  0  0  0  0  0  0  0  0  0
  151.4980  144.7089  160.3618 C   0  0  0  0  0  0  0  0  0  0  0  0
  151.3122  144.3353  158.8770 C   0  0  1  0  0  0  0  0  0  0  0  0
  152.7259  143.9127  158.4942 C   0  0  0  0  0  0  0  0  0  0  0  0
  151.0386  142.2989  156.4826 C   0  0  0  0  0  0  0  0  0  0  0  0
  150.4787  141.9649  155.0905 C   0  0  0  0  0  0  0  0  0  0  0  0
  148.1530  138.9963  155.8597 H   0  0  0  0  0  0  0  0  0  0  0  0
  147.9531  136.8813  154.9531 H   0  0  0  0  0  0  0  0  0  0  0  0
  149.3836  137.1071  153.9741 H   0  0  0  0  0  0  0  0  0  0  0  0
  150.8214  136.8701  156.0491 H   0  0  0  0  0  0  0  0  0  0  0  0
  149.3822  136.6522  157.0151 H   0  0  0  0  0  0  0  0  0  0  0  0
  151.2045  134.5127  157.3431 H   0  0  0  0  0  0  0  0  0  0  0  0
  151.2091  132.0660  156.7920 H   0  0  0  0  0  0  0  0  0  0  0  0
  149.8225  131.2672  154.8616 H   0  0  0  0  0  0  0  0  0  0  0  0
  148.4825  135.0871  154.0370 H   0  0  0  0  0  0  0  0  0  0  0  0
  147.9040  142.1737  155.5887 H   0  0  0  0  0  0  0  0  0  0  0  0
  147.5756  140.5521  156.1115 H   0  0  0  0  0  0  0  0  0  0  0  0
  148.0038  142.0126  158.0174 H   0  0  0  0  0  0  0  0  0  0  0  0
  149.2158  140.7431  157.9657 H   0  0  0  0  0  0  0  0  0  0  0  0
  149.6782  143.0366  159.4978 H   0  0  0  0  0  0  0  0  0  0  0  0
  151.2496  141.3856  160.1021 H   0  0  0  0  0  0  0  0  0  0  0  0
  151.8535  141.2890  158.4516 H   0  0  0  0  0  0  0  0  0  0  0  0
  153.7400  142.2977  159.6233 H   0  0  0  0  0  0  0  0  0  0  0  0
  152.1271  143.0517  161.6660 H   0  0  0  0  0  0  0  0  0  0  0  0
  153.4234  144.1604  161.2159 H   0  0  0  0  0  0  0  0  0  0  0  0
  150.5629  144.6757  160.9222 H   0  0  0  0  0  0  0  0  0  0  0  0
  151.9054  145.7163  160.4585 H   0  0  0  0  0  0  0  0  0  0  0  0
  150.9161  145.1769  158.3136 H   0  0  0  0  0  0  0  0  0  0  0  0
  153.4638  144.7084  158.6125 H   0  0  0  0  0  0  0  0  0  0  0  0
  152.7981  143.5041  157.4847 H   0  0  0  0  0  0  0  0  0  0  0  0
  151.7584  143.1109  156.3845 H   0  0  0  0  0  0  0  0  0  0  0  0
  151.5905  141.4400  156.8681 H   0  0  0  0  0  0  0  0  0  0  0  0
  151.2933  141.7195  154.4070 H   0  0  0  0  0  0  0  0  0  0  0  0
  149.9895  142.8410  154.6621 H   0  0  0  0  0  0  0  0  0  0  0  0
  149.5342  143.5074  157.0891 H   0  0  0  0  0  0  0  0  0  0  0  0
  1  2  2  0  0  0  0
  2  3  1  0  0  0  0
  2 12  1  0  0  0  0
  3  4  1  0  0  0  0
  3 25  1  0  0  0  0
  4  5  1  0  0  0  0
  4 26  1  0  0  0  0
  4 27  1  0  0  0  0
  5  6  1  0  0  0  0
  5 28  1  0  0  0  0
  5 29  1  0  0  0  0
  6 11  1  0  0  0  0
  6  7  2  0  0  0  0
  7  8  1  0  0  0  0
  7 30  1  0  0  0  0
  8  9  2  0  0  0  0
  8 31  1  0  0  0  0
  9 10  1  0  0  0  0
  9 32  1  0  0  0  0
 10 11  2  0  0  0  0
 11 33  1  0  0  0  0
 12 24  1  0  0  0  0
 12 13  1  0  0  0  0
 13 14  1  0  0  0  0
 13 34  1  0  0  0  0
 13 35  1  0  0  0  0
 14 15  1  0  0  0  0
 14 36  1  0  0  0  0
 14 37  1  0  0  0  0
 15 16  1  0  0  0  0
 15 23  1  0  0  0  0
 15 53  1  0  0  0  0
 16 21  1  0  0  0  0
 16 17  1  0  0  0  0
 16 38  1  0  0  0  0
 17 18  1  0  0  0  0
 17 39  1  0  0  0  0
 17 40  1  0  0  0  0
 18 22  1  0  0  0  0
 18 19  1  0  0  0  0
 18 41  1  0  0  0  0
 19 20  1  0  0  0  0
 19 42  1  0  0  0  0
 19 43  1  0  0  0  0
 20 21  1  0  0  0  0
 20 44  1  0  0  0  0
 20 45  1  0  0  0  0
 21 22  1  0  0  0  0
 21 46  1  0  0  0  0
 22 47  1  0  0  0  0
 22 48  1  0  0  0  0
 23 24  1  0  0  0  0
 23 49  1  0  0  0  0
 23 50  1  0  0  0  0
 24 51  1  0  0  0  0
 24 52  1  0  0  0  0
M  CHG  1  15   1
M  END
> <s_m_source_file>
AV-unprocessed.smi

> <i_m_source_file_index>
867

> <i_lp_mmshare_version>
43012

> <i_f3d_flags>
0

> <s_epik_input>
W0NIMl0xW0NIMl1bQ0BASF0oW0NIMl0yKVtDQEBIXShbQ0gyXVtDQEhdMTIpTihbQ0gyXVtDSDJdMylbQ0gyXVtDSDJdTjNDKD1PKVtOSF1bQ0gyXVtDSDJdYzRbY0hdW2NIXVtjSF1uW2NIXTQ=

> <s_epik_cmdline>
J2VwaWtfcHl0aG9uJywgJy1waCcsICc3LjAnLCAnLXRuJywgJzgnLCAnLW1hJywgJzIwMCcsICctbWV0YWxfYmluZGluZycsICctaW1hZScsICc8aW5maWxlLm1hZT4nLCAnLW9tYWUnLCAnPG91dGZpbGUubWFlPic=

> <r_epik_Ionization_Penalty>
0.0161279

> <r_epik_Ionization_Penalty_Charging>
0.00262064

> <r_epik_Ionization_Penalty_Neutral>
0.0135072

> <r_epik_State_Penalty>
0.0104914

> <r_epik_Charging_Adjusted_Penalty>
0.013112

> <i_epik_Tot_Q>
1

> <i_epik_Tot_abs_Q>
1

> <r_epik_Metal_State_Penalty>
0.0102536

> <b_epik_Metal_Only>
0

> <s_lp_Force_Field>
OPLS_2005

> <r_lp_Energy>
96.0256

> <b_lp_Chiralities_Consistent>
1

> <s_lp_Variant>
AV-unprocessed.smi:867-2

> <Gold.Version>
5.8.1

> <Gold.Id.Protein>
6NUR|6NUR_protein|mol2

> <Gold.PLP.Fitness>
52.3354

> <Gold.PLP.PLP>
-41.2700

> <Gold.PLP.part.hbond>
-2.0000

> <Gold.PLP.part.metal>
0.0000

> <Gold.PLP.part.buried>
-2.9745

> <Gold.PLP.part.nonpolar>
-35.6993

> <Gold.PLP.part.repulsive>
0.3137

> <Gold.PLP.ligand.clash>
0.0000

> <Gold.PLP.ligand.torsion>
0.5377

> <Gold.PLP.Chemscore.Hbond>
3.0000

> <Gold.PLP.Chemscore.CHOScore>
1.0000

> <Gold.PLP.Chemscore.Metal>
0.0000

> <Gold.Chemscore.Hbonds>
donor molecule, donor type, donor heavy atom, donor atom, acceptor molecule, acceptor atom, score
      L1  H    15    53       P1  8028  2.00
      P1  H  7989  7998       L1     1  1.00
      L1  C    11    33       P1  7948  1.00

> <Gold.PLP.Chemscore.Internal.Correction>
0.1409

> <Gold.Rescore>
     Score         DG    S(hbond)    S(metal)    S(lipo)     H(rot)  DE(clash)    DE(int)     intcor
     19.93     -22.53       1.65        0.00     128.70       1.37       1.96       0.64       ----

> <Gold.Chemscore.Fitness>
19.9293

> <Gold.Chemscore.DG>
-22.5284

> <Gold.Chemscore.ZeroCoef>
-5.4800

> <Gold.Chemscore.Hbond>
1.6485

> <Gold.Chemscore.Metal>
0.0000

> <Gold.Chemscore.Lipo>
128.6980

> <Gold.Chemscore.Internal_Hbond>
0.0000

> <Gold.Chemscore.DEClash>
1.9603

> <Gold.Chemscore.DEInternal>
0.6388

> <Gold.Chemscore.Rot>
1.3731

> <Gold.Chemscore.Internal.Correction>
   9.000000E+99

> <Gold.Chemscore.Hbonds>
donor molecule, donor type, donor heavy atom, donor atom, acceptor molecule, acceptor atom, score
      L1  H    15    53       P1  8028  0.87
      P1  H  7989  7998       L1     1  0.82

> <Gold.Chemscore.Hbond.Weighted>
-5.5059

> <Gold.Chemscore.Metal.Weighted>
-0.0000

> <Gold.Chemscore.Lipo.Weighted>
-15.0577

> <Gold.Chemscore.Internal_Hbond.Weighted>
0.0000

> <Gold.Chemscore.DEClash.Weighted>
1.9603

> <Gold.Chemscore.DEInternal.Weighted>
0.6388

> <Gold.Chemscore.Rot.Weighted>
3.5152

> <Gold.Chemscore.Internal.Correction.Weighted>
   9.000000E+99

> <Gold.Protein.RotatedTorsions>
[ 6907 6896 6895 6894 ] final -169.62 input  -60.11 | X-H torsion
[ 7974 7965 7964 7962 ] final -113.94 input  175.53 | X-H torsion
[ 8008 7997 7996 7995 ] final  -42.53 input   59.86 | X-H torsion
[ 10167 10162 10161 10158 ] final -108.00 input  -65.29 | X-H torsion
[ 10718 10713 10712 10709 ] final  170.57 input   66.30 | X-H torsion
[ 10763 10752 10751 10750 ] final  -70.36 input  -60.55 | X-H torsion
[ 11005 11000 10999 10996 ] final  -66.94 input  -57.11 | X-H torsion

> <Gold.Protein.ActiveResidues>
 VAL166  LYS551  ARG553  GLY616  TRP617  ASP618  TYR619  PRO620  LYS621  CYS622 
 ASP623  PHE694  ASN695  SER759  ASP760  ASP761  ALA762  ILE779  LEU786  VAL792 
 PHE793  MET794  SER795  GLU796  ALA797  LYS798  CYS799  TRP800  GLU811  SER814 

> <Gold.Protein.RotatedAtoms>
  151.4945  133.3517  159.2858 H   0  0  0  0  0  0  0  0  0  0  0  0  # atno 6907 bound_to 6896
  150.8813  134.8206  159.7238 H   0  0  0  0  0  0  0  0  0  0  0  0  # atno 6908 bound_to 6896
  152.4764  134.4843  159.9727 H   0  0  0  0  0  0  0  0  0  0  0  0  # atno 6909 bound_to 6896
  145.1260  140.8697  143.3786 H   0  0  0  0  0  0  0  0  0  0  0  0  # atno 7974 bound_to 7965
  154.3999  140.1471  156.3370 H   0  0  0  0  0  0  0  0  0  0  0  0  # atno 8008 bound_to 7997
  155.8391  140.3462  155.5599 H   0  0  0  0  0  0  0  0  0  0  0  0  # atno 8009 bound_to 7997
  155.8106  140.0883  157.1896 H   0  0  0  0  0  0  0  0  0  0  0  0  # atno 8010 bound_to 7997
  140.1709  143.4043  152.1355 H   0  0  0  0  0  0  0  0  0  0  0  0  # atno 10167 bound_to 10162
  157.0062  131.0191  151.2816 H   0  0  0  0  0  0  0  0  0  0  0  0  # atno 10718 bound_to 10713
  154.4165  135.5996  153.5984 H   0  0  0  0  0  0  0  0  0  0  0  0  # atno 10763 bound_to 10752
  152.9792  135.5942  154.4006 H   0  0  0  0  0  0  0  0  0  0  0  0  # atno 10764 bound_to 10752
  154.3826  135.2841  155.2181 H   0  0  0  0  0  0  0  0  0  0  0  0  # atno 10765 bound_to 10752
  141.1495  133.6709  156.6216 H   0  0  0  0  0  0  0  0  0  0  0  0  # atno 11005 bound_to 11000
  145.0687  139.3048  143.5843 LP  0  0  0  0  0  0  0  0  0  0  0  0  # atno 17320 bound_to 7965
  146.3517  140.0155  142.8663 LP  0  0  0  0  0  0  0  0  0  0  0  0  # atno 17321 bound_to 7965
  139.5338  144.7188  151.4963 LP  0  0  0  0  0  0  0  0  0  0  0  0  # atno 17342 bound_to 10162
  140.6582  143.8554  150.6859 LP  0  0  0  0  0  0  0  0  0  0  0  0  # atno 17343 bound_to 10162
  157.5354  130.8085  149.7965 LP  0  0  0  0  0  0  0  0  0  0  0  0  # atno 17370 bound_to 10713
  156.0153  130.3816  150.2132 LP  0  0  0  0  0  0  0  0  0  0  0  0  # atno 17371 bound_to 10713
  140.3536  134.7748  157.4484 LP  0  0  0  0  0  0  0  0  0  0  0  0  # atno 17394 bound_to 11000
  140.0841  134.5691  155.8510 LP  0  0  0  0  0  0  0  0  0  0  0  0  # atno 17395 bound_to 11000

$$$$
