AV-unprocessed.smi:2774|AV-procd|sdf|10681|dock3
  -GOLD-   2272015123D 1   1.00000     0.00000
 Structure written by MMmdl.
 35 36  0  0  0  0  0  0  0  0  2 V2000
  149.1820  141.7757  155.0312 O   0  0  0  0  0  0  0  0  0  0  0  0
  150.4764  141.5462  155.5529 C   0  0  1  0  0  0  0  0  0  0  0  0
  150.4567  141.8263  157.0656 C   0  0  0  0  0  0  0  0  0  0  0  0
  150.8247  143.2287  157.3591 N   0  3  0  0  0  0  0  0  0  0  0  0
  151.0029  143.5537  158.7919 C   0  0  2  0  0  0  0  0  0  0  0  0
  151.1285  145.0786  159.0067 C   0  0  0  0  0  0  0  0  0  0  0  0
  151.2640  145.4634  160.4895 C   0  0  0  0  0  0  0  0  0  0  0  0
  152.5088  144.8519  161.1465 C   0  0  0  0  0  0  0  0  0  0  0  0
  152.4382  143.0415  161.1155 S   0  0  0  0  0  0  0  0  0  0  0  0
  152.2413  142.8126  159.3274 C   0  0  0  0  0  0  0  0  0  0  0  0
  150.9580  140.1334  155.2615 C   0  0  0  0  0  0  0  0  0  0  0  0
  152.2440  139.7182  155.6665 C   0  0  0  0  0  0  0  0  0  0  0  0
  152.6472  138.3982  155.3806 C   0  0  0  0  0  0  0  0  0  0  0  0
  151.8633  137.5061  154.7387 N   0  0  0  0  0  0  0  0  0  0  0  0
  150.6328  137.9073  154.3546 C   0  0  0  0  0  0  0  0  0  0  0  0
  150.1330  139.2036  154.5919 C   0  0  0  0  0  0  0  0  0  0  0  0
  149.0077  142.7048  155.0601 H   0  0  0  0  0  0  0  0  0  0  0  0
  151.1535  142.2489  155.0648 H   0  0  0  0  0  0  0  0  0  0  0  0
  149.4720  141.5992  157.4741 H   0  0  0  0  0  0  0  0  0  0  0  0
  151.1692  141.1692  157.5663 H   0  0  0  0  0  0  0  0  0  0  0  0
  151.7020  143.4098  156.8928 H   0  0  0  0  0  0  0  0  0  0  0  0
  150.1297  143.1838  159.3322 H   0  0  0  0  0  0  0  0  0  0  0  0
  151.9863  145.4610  158.4516 H   0  0  0  0  0  0  0  0  0  0  0  0
  150.2547  145.5904  158.6040 H   0  0  0  0  0  0  0  0  0  0  0  0
  151.3115  146.5495  160.5752 H   0  0  0  0  0  0  0  0  0  0  0  0
  150.3708  145.1546  161.0343 H   0  0  0  0  0  0  0  0  0  0  0  0
  153.4128  145.1830  160.6341 H   0  0  0  0  0  0  0  0  0  0  0  0
  152.5896  145.1808  162.1829 H   0  0  0  0  0  0  0  0  0  0  0  0
  152.1590  141.7430  159.1313 H   0  0  0  0  0  0  0  0  0  0  0  0
  153.1452  143.1602  158.8255 H   0  0  0  0  0  0  0  0  0  0  0  0
  152.9115  140.3911  156.1847 H   0  0  0  0  0  0  0  0  0  0  0  0
  153.6255  138.0499  155.6772 H   0  0  0  0  0  0  0  0  0  0  0  0
  150.0272  137.1731  153.8442 H   0  0  0  0  0  0  0  0  0  0  0  0
  149.1386  139.4718  154.2657 H   0  0  0  0  0  0  0  0  0  0  0  0
  150.1238  143.8417  156.9673 H   0  0  0  0  0  0  0  0  0  0  0  0
  1  2  1  0  0  0  0
  1 17  1  0  0  0  0
  2  3  1  0  0  0  0
  2 11  1  0  0  0  0
  2 18  1  0  0  0  0
  3  4  1  0  0  0  0
  3 19  1  0  0  0  0
  3 20  1  0  0  0  0
  4  5  1  0  0  0  0
  4 21  1  0  0  0  0
  4 35  1  0  0  0  0
  5 10  1  0  0  0  0
  5  6  1  0  0  0  0
  5 22  1  0  0  0  0
  6  7  1  0  0  0  0
  6 23  1  0  0  0  0
  6 24  1  0  0  0  0
  7  8  1  0  0  0  0
  7 25  1  0  0  0  0
  7 26  1  0  0  0  0
  8  9  1  0  0  0  0
  8 27  1  0  0  0  0
  8 28  1  0  0  0  0
  9 10  1  0  0  0  0
 10 29  1  0  0  0  0
 10 30  1  0  0  0  0
 11 16  1  0  0  0  0
 11 12  2  0  0  0  0
 12 13  1  0  0  0  0
 12 31  1  0  0  0  0
 13 14  2  0  0  0  0
 13 32  1  0  0  0  0
 14 15  1  0  0  0  0
 15 16  2  0  0  0  0
 15 33  1  0  0  0  0
 16 34  1  0  0  0  0
M  CHG  1   4   1
M  END
> <s_m_source_file>
AV-unprocessed.smi

> <i_m_source_file_index>
2774

> <i_lp_mmshare_version>
43012

> <i_f3d_flags>
0

> <s_epik_input>
W2NIXTFbY0hdbltjSF1bY0hdYzFbQ0BIXShbT0hdKVtDSDJdW05IXVtDQEBIXTJbQ0gyXVtDSDJdW0NIMl1TW0NIMl0y

> <s_epik_cmdline>
J2VwaWtfcHl0aG9uJywgJy1waCcsICc3LjAnLCAnLXRuJywgJzgnLCAnLW1hJywgJzIwMCcsICctbWV0YWxfYmluZGluZycsICctaW1hZScsICc8aW5maWxlLm1hZT4nLCAnLW9tYWUnLCAnPG91dGZpbGUubWFlPic=

> <r_epik_Ionization_Penalty>
0.0205977

> <r_epik_Ionization_Penalty_Charging>
0.0185619

> <r_epik_Ionization_Penalty_Neutral>
0.00203589

> <r_epik_State_Penalty>
0.0147768

> <r_epik_Charging_Adjusted_Penalty>
0.0333386

> <i_epik_Tot_Q>
1

> <i_epik_Tot_abs_Q>
1

> <r_epik_Metal_State_Penalty>
0.0152254

> <b_epik_Metal_Only>
0

> <s_lp_Force_Field>
OPLS_2005

> <r_lp_Energy>
10.436

> <b_lp_Chiralities_Consistent>
1

> <s_lp_Variant>
AV-unprocessed.smi:2774-2

> <Gold.Version>
5.8.1

> <Gold.Id.Protein>
6NUR|6NUR_protein|mol2

> <Gold.PLP.Fitness>
49.0156

> <Gold.PLP.PLP>
-36.6861

> <Gold.PLP.part.hbond>
-2.8528

> <Gold.PLP.part.metal>
0.0000

> <Gold.PLP.part.buried>
-2.1067

> <Gold.PLP.part.nonpolar>
-32.0425

> <Gold.PLP.part.repulsive>
0.1208

> <Gold.PLP.ligand.clash>
0.0000

> <Gold.PLP.ligand.torsion>
0.5041

> <Gold.PLP.Chemscore.Hbond>
3.4180

> <Gold.PLP.Chemscore.CHOScore>
1.0098

> <Gold.PLP.Chemscore.Metal>
0.0000

> <Gold.Chemscore.Hbonds>
donor molecule, donor type, donor heavy atom, donor atom, acceptor molecule, acceptor atom, score
      L1  H     1    17       P1  8028  0.84
      L1  H     4    35       P1  8028  2.00
      P1  H 10752 10764       L1    14  0.58
      L1  C    15    33       P1  7948  1.00
      L1  C    15    33       P1  7949  0.01

> <Gold.PLP.Chemscore.Internal.Correction>
0.0542

> <Gold.Rescore>
     Score         DG    S(hbond)    S(metal)    S(lipo)     H(rot)  DE(clash)    DE(int)     intcor
     19.53     -20.14       1.94        0.00     112.95       1.97       0.09       0.52       ----

> <Gold.Chemscore.Fitness>
19.5326

> <Gold.Chemscore.DG>
-20.1441

> <Gold.Chemscore.ZeroCoef>
-5.4800

> <Gold.Chemscore.Hbond>
1.9427

> <Gold.Chemscore.Metal>
0.0000

> <Gold.Chemscore.Lipo>
112.9503

> <Gold.Chemscore.Internal_Hbond>
0.0000

> <Gold.Chemscore.DEClash>
0.0873

> <Gold.Chemscore.DEInternal>
0.5243

> <Gold.Chemscore.Rot>
1.9686

> <Gold.Chemscore.Internal.Correction>
   9.000000E+99

> <Gold.Chemscore.Hbonds>
donor molecule, donor type, donor heavy atom, donor atom, acceptor molecule, acceptor atom, score
      L1  H     1    17       P1  8028  0.82
      L1  H     4    35       P1  8028  0.96
      P1  H 10752 10764       L1    14  0.45

> <Gold.Chemscore.Hbond.Weighted>
-6.4886

> <Gold.Chemscore.Metal.Weighted>
-0.0000

> <Gold.Chemscore.Lipo.Weighted>
-13.2152

> <Gold.Chemscore.Internal_Hbond.Weighted>
0.0000

> <Gold.Chemscore.DEClash.Weighted>
0.0873

> <Gold.Chemscore.DEInternal.Weighted>
0.5243

> <Gold.Chemscore.Rot.Weighted>
5.0396

> <Gold.Chemscore.Internal.Correction.Weighted>
   9.000000E+99

> <Gold.Protein.RotatedTorsions>
[ 6907 6896 6895 6894 ] final    9.53 input  -60.11 | X-H torsion
[ 7974 7965 7964 7962 ] final -170.32 input  175.53 | X-H torsion
[ 8008 7997 7996 7995 ] final -118.13 input   59.86 | X-H torsion
[ 10167 10162 10161 10158 ] final   27.42 input  -65.29 | X-H torsion
[ 10718 10713 10712 10709 ] final  169.24 input   66.30 | X-H torsion
[ 10763 10752 10751 10750 ] final  -74.17 input  -60.55 | X-H torsion
[ 11005 11000 10999 10996 ] final -179.28 input  -57.11 | X-H torsion

> <Gold.Protein.ActiveResidues>
 VAL166  LYS551  ARG553  GLY616  TRP617  ASP618  TYR619  PRO620  LYS621  CYS622 
 ASP623  PHE694  ASN695  SER759  ASP760  ASP761  ALA762  ILE779  LEU786  VAL792 
 PHE793  MET794  SER795  GLU796  ALA797  LYS798  CYS799  TRP800  GLU811  SER814 

> <Gold.Protein.RotatedAtoms>
  151.7236  135.0889  160.0288 H   0  0  0  0  0  0  0  0  0  0  0  0  # atno 6907 bound_to 6896
  152.3586  133.6264  159.6006 H   0  0  0  0  0  0  0  0  0  0  0  0  # atno 6908 bound_to 6896
  150.7588  133.9376  159.3488 H   0  0  0  0  0  0  0  0  0  0  0  0  # atno 6909 bound_to 6896
  144.7172  140.2089  143.6329 H   0  0  0  0  0  0  0  0  0  0  0  0  # atno 7974 bound_to 7965
  155.0948  140.0395  157.2679 H   0  0  0  0  0  0  0  0  0  0  0  0  # atno 8008 bound_to 7997
  154.6804  140.2631  155.6890 H   0  0  0  0  0  0  0  0  0  0  0  0  # atno 8009 bound_to 7997
  156.2692  140.2780  156.1345 H   0  0  0  0  0  0  0  0  0  0  0  0  # atno 8010 bound_to 7997
  140.4940  144.0422  150.6307 H   0  0  0  0  0  0  0  0  0  0  0  0  # atno 10167 bound_to 10162
  157.0254  131.0244  151.2761 H   0  0  0  0  0  0  0  0  0  0  0  0  # atno 10718 bound_to 10713
  154.4694  135.5873  153.6311 H   0  0  0  0  0  0  0  0  0  0  0  0  # atno 10763 bound_to 10752
  152.9833  135.6063  154.3385 H   0  0  0  0  0  0  0  0  0  0  0  0  # atno 10764 bound_to 10752
  154.3266  135.2843  155.2472 H   0  0  0  0  0  0  0  0  0  0  0  0  # atno 10765 bound_to 10752
  140.4204  134.6610  157.4661 H   0  0  0  0  0  0  0  0  0  0  0  0  # atno 11005 bound_to 11000
  145.8609  139.2222  143.1717 LP  0  0  0  0  0  0  0  0  0  0  0  0  # atno 17320 bound_to 7965
  146.0174  140.8380  142.9940 LP  0  0  0  0  0  0  0  0  0  0  0  0  # atno 17321 bound_to 7965
  140.3699  143.2860  152.0290 LP  0  0  0  0  0  0  0  0  0  0  0  0  # atno 17342 bound_to 10162
  139.4857  144.6238  151.7204 LP  0  0  0  0  0  0  0  0  0  0  0  0  # atno 17343 bound_to 10162
  157.5218  130.8003  149.7817 LP  0  0  0  0  0  0  0  0  0  0  0  0  # atno 17370 bound_to 10713
  156.0088  130.3843  150.2338 LP  0  0  0  0  0  0  0  0  0  0  0  0  # atno 17371 bound_to 10713
  140.0204  134.6556  155.9248 LP  0  0  0  0  0  0  0  0  0  0  0  0  # atno 17394 bound_to 11000
  141.1786  133.6543  156.4928 LP  0  0  0  0  0  0  0  0  0  0  0  0  # atno 17395 bound_to 11000

$$$$
