AV-unprocessed.smi:3187|AV-procd|sdf|12180|dock2
  -GOLD-   2272018 23D 1   1.00000     0.00000
 Structure written by MMmdl.
 42 43  0  0  0  0  0  0  0  0  3 V2000
  151.5607  145.5925  160.0818 C   0  0  0  0  0  0  0  0  0  0  0  0
  151.9914  144.1760  160.4245 C   0  0  0  0  0  0  0  0  0  0  0  0
  152.4845  143.9056  161.6483 C   0  0  0  0  0  0  0  0  0  0  0  0
  153.0117  142.5553  162.0751 C   0  0  0  0  0  0  0  0  0  0  0  0
  153.3921  141.7070  160.8597 C   0  0  0  0  0  0  0  0  0  0  0  0
  152.2591  141.6740  159.8210 C   0  0  2  0  0  0  0  0  0  0  0  0
  152.6547  140.7371  158.6630 C   0  0  0  0  0  0  0  0  0  0  0  0
  151.8631  143.1000  159.3263 C   0  0  1  0  0  0  0  0  0  0  0  0
  150.4513  143.0663  158.6825 C   0  0  0  0  0  0  0  0  0  0  0  0
  150.4894  142.8220  157.2239 N   0  3  0  0  0  0  0  0  0  0  0  0
  150.1272  141.4506  156.8061 C   0  0  0  0  0  0  0  0  0  0  0  0
  149.9812  141.3140  155.2804 C   0  0  0  0  0  0  0  0  0  0  0  0
  150.3778  139.9827  154.8144 N   0  0  0  0  0  0  0  0  0  0  0  0
  151.5963  139.3746  154.9807 C   0  0  0  0  0  0  0  0  0  0  0  0
  151.5037  138.1438  154.3831 C   0  0  0  0  0  0  0  0  0  0  0  0
  150.2342  138.0527  153.8775 N   0  3  0  0  0  0  0  0  0  0  0  0
  149.5509  139.1713  154.1415 C   0  0  0  0  0  0  0  0  0  0  0  0
  152.0228  145.9180  159.1495 H   0  0  0  0  0  0  0  0  0  0  0  0
  151.8595  146.2960  160.8599 H   0  0  0  0  0  0  0  0  0  0  0  0
  150.4774  145.6585  159.9850 H   0  0  0  0  0  0  0  0  0  0  0  0
  152.5353  144.6855  162.3943 H   0  0  0  0  0  0  0  0  0  0  0  0
  153.8843  142.6969  162.7132 H   0  0  0  0  0  0  0  0  0  0  0  0
  152.2512  142.0562  162.6766 H   0  0  0  0  0  0  0  0  0  0  0  0
  154.2956  142.1125  160.4018 H   0  0  0  0  0  0  0  0  0  0  0  0
  153.6400  140.6967  161.1878 H   0  0  0  0  0  0  0  0  0  0  0  0
  151.3915  141.2367  160.3181 H   0  0  0  0  0  0  0  0  0  0  0  0
  153.5173  141.1239  158.1195 H   0  0  0  0  0  0  0  0  0  0  0  0
  151.8483  140.5957  157.9451 H   0  0  0  0  0  0  0  0  0  0  0  0
  152.9209  139.7478  159.0366 H   0  0  0  0  0  0  0  0  0  0  0  0
  152.5834  143.3842  158.5574 H   0  0  0  0  0  0  0  0  0  0  0  0
  149.8429  142.2819  159.1275 H   0  0  0  0  0  0  0  0  0  0  0  0
  149.9353  144.0057  158.8862 H   0  0  0  0  0  0  0  0  0  0  0  0
  149.8266  143.4553  156.7989 H   0  0  0  0  0  0  0  0  0  0  0  0
  150.8618  140.7425  157.1923 H   0  0  0  0  0  0  0  0  0  0  0  0
  149.1775  141.2035  157.2818 H   0  0  0  0  0  0  0  0  0  0  0  0
  148.9499  141.4927  154.9713 H   0  0  0  0  0  0  0  0  0  0  0  0
  150.6039  142.0396  154.7565 H   0  0  0  0  0  0  0  0  0  0  0  0
  152.4185  139.8487  155.4976 H   0  0  0  0  0  0  0  0  0  0  0  0
  152.2266  137.3473  154.2817 H   0  0  0  0  0  0  0  0  0  0  0  0
  148.5321  139.3759  153.8637 H   0  0  0  0  0  0  0  0  0  0  0  0
  151.4106  143.0454  156.8746 H   0  0  0  0  0  0  0  0  0  0  0  0
  149.8649  137.2550  153.3747 H   0  0  0  0  0  0  0  0  0  0  0  0
  1  2  1  0  0  0  0
  1 18  1  0  0  0  0
  1 19  1  0  0  0  0
  1 20  1  0  0  0  0
  2  8  1  0  0  0  0
  2  3  2  0  0  0  0
  3  4  1  0  0  0  0
  3 21  1  0  0  0  0
  4  5  1  0  0  0  0
  4 22  1  0  0  0  0
  4 23  1  0  0  0  0
  5  6  1  0  0  0  0
  5 24  1  0  0  0  0
  5 25  1  0  0  0  0
  6  7  1  0  0  0  0
  6  8  1  0  0  0  0
  6 26  1  0  0  0  0
  7 27  1  0  0  0  0
  7 28  1  0  0  0  0
  7 29  1  0  0  0  0
  8  9  1  0  0  0  0
  8 30  1  0  0  0  0
  9 10  1  0  0  0  0
  9 31  1  0  0  0  0
  9 32  1  0  0  0  0
 10 11  1  0  0  0  0
 10 33  1  0  0  0  0
 10 41  1  0  0  0  0
 11 12  1  0  0  0  0
 11 34  1  0  0  0  0
 11 35  1  0  0  0  0
 12 13  1  0  0  0  0
 12 36  1  0  0  0  0
 12 37  1  0  0  0  0
 13 17  1  0  0  0  0
 13 14  1  0  0  0  0
 14 15  2  0  0  0  0
 14 38  1  0  0  0  0
 15 16  1  0  0  0  0
 15 39  1  0  0  0  0
 16 17  2  0  0  0  0
 16 42  1  0  0  0  0
 17 40  1  0  0  0  0
M  CHG  1  10   1
M  CHG  1  16   1
M  END
> <s_m_source_file>
AV-unprocessed.smi

> <i_m_source_file_index>
3187

> <i_lp_mmshare_version>
43012

> <i_f3d_flags>
0

> <s_epik_input>
W0NIM11DMT1bQ0hdW0NIMl1bQ0gyXVtDQEBIXShbQ0gzXSlbQ0BIXTFbQ0gyXVtOSF1bQ0gyXVtDSDJdbjJbY0hdW2NIXW5bY0hdMg==

> <s_epik_cmdline>
J2VwaWtfcHl0aG9uJywgJy1waCcsICc3LjAnLCAnLXRuJywgJzgnLCAnLW1hJywgJzIwMCcsICctbWV0YWxfYmluZGluZycsICctaW1hZScsICc8aW5maWxlLm1hZT4nLCAnLW9tYWUnLCAnPG91dGZpbGUubWFlPic=

> <r_lp_tautomer_probability>
1

> <r_epik_Ionization_Penalty>
1.51066

> <r_epik_Ionization_Penalty_Charging>
0.0026721

> <r_epik_Ionization_Penalty_Neutral>
1.50798

> <r_epik_State_Penalty>
1.12593

> <r_epik_Charging_Adjusted_Penalty>
1.12861

> <i_epik_Tot_Q>
2

> <i_epik_Tot_abs_Q>
2

> <r_epik_Metal_State_Penalty>
5.12155

> <b_epik_Metal_Only>
0

> <s_lp_Force_Field>
OPLS_2005

> <r_lp_Energy>
26.137

> <b_lp_Chiralities_Consistent>
1

> <s_lp_Variant>
AV-unprocessed.smi:3187-6

> <Gold.Version>
5.8.1

> <Gold.Id.Protein>
6NUR|6NUR_protein|mol2

> <Gold.PLP.Fitness>
58.1629

> <Gold.PLP.PLP>
-48.0727

> <Gold.PLP.part.hbond>
-2.1592

> <Gold.PLP.part.metal>
0.0000

> <Gold.PLP.part.buried>
-3.1834

> <Gold.PLP.part.nonpolar>
-41.7218

> <Gold.PLP.part.repulsive>
0.0779

> <Gold.PLP.ligand.clash>
0.0000

> <Gold.PLP.ligand.torsion>
1.0131

> <Gold.PLP.Chemscore.Hbond>
4.0000

> <Gold.PLP.Chemscore.CHOScore>
0.0000

> <Gold.PLP.Chemscore.Metal>
0.0000

> <Gold.Chemscore.Hbonds>
donor molecule, donor type, donor heavy atom, donor atom, acceptor molecule, acceptor atom, score
      L1  H    10    33       P1  8028  2.00
      L1  H    16    42       P1  7948  2.00

> <Gold.PLP.Chemscore.Internal.Correction>
0.1165

> <Gold.Rescore>
     Score         DG    S(hbond)    S(metal)    S(lipo)     H(rot)  DE(clash)    DE(int)     intcor
     20.20     -21.27       1.96        0.00     122.10       1.97       0.02       1.05       ----

> <Gold.Chemscore.Fitness>
20.2023

> <Gold.Chemscore.DG>
-21.2694

> <Gold.Chemscore.ZeroCoef>
-5.4800

> <Gold.Chemscore.Hbond>
1.9626

> <Gold.Chemscore.Metal>
0.0000

> <Gold.Chemscore.Lipo>
122.1001

> <Gold.Chemscore.Internal_Hbond>
0.0000

> <Gold.Chemscore.DEClash>
0.0201

> <Gold.Chemscore.DEInternal>
1.0470

> <Gold.Chemscore.Rot>
1.9732

> <Gold.Chemscore.Internal.Correction>
   9.000000E+99

> <Gold.Chemscore.Hbonds>
donor molecule, donor type, donor heavy atom, donor atom, acceptor molecule, acceptor atom, score
      L1  H    10    33       P1  8028  0.99
      L1  H    16    42       P1  7948  0.43

> <Gold.Chemscore.Hbond.Weighted>
-6.5550

> <Gold.Chemscore.Metal.Weighted>
-0.0000

> <Gold.Chemscore.Lipo.Weighted>
-14.2857

> <Gold.Chemscore.Internal_Hbond.Weighted>
0.0000

> <Gold.Chemscore.DEClash.Weighted>
0.0201

> <Gold.Chemscore.DEInternal.Weighted>
1.0470

> <Gold.Chemscore.Rot.Weighted>
5.0514

> <Gold.Chemscore.Internal.Correction.Weighted>
   9.000000E+99

> <Gold.Protein.RotatedTorsions>
[ 6907 6896 6895 6894 ] final  128.06 input  -60.11 | X-H torsion
[ 7974 7965 7964 7962 ] final  131.09 input  175.53 | X-H torsion
[ 8008 7997 7996 7995 ] final -175.68 input   59.86 | X-H torsion
[ 10167 10162 10161 10158 ] final   77.52 input  -65.29 | X-H torsion
[ 10718 10713 10712 10709 ] final  144.96 input   66.30 | X-H torsion
[ 10763 10752 10751 10750 ] final  174.77 input  -60.55 | X-H torsion
[ 11005 11000 10999 10996 ] final -123.60 input  -57.11 | X-H torsion

> <Gold.Protein.ActiveResidues>
 VAL166  LYS551  ARG553  GLY616  TRP617  ASP618  TYR619  PRO620  LYS621  CYS622 
 ASP623  PHE694  ASN695  SER759  ASP760  ASP761  ALA762  ILE779  LEU786  VAL792 
 PHE793  MET794  SER795  GLU796  ALA797  LYS798  CYS799  TRP800  GLU811  SER814 

> <Gold.Protein.RotatedAtoms>
  152.3755  133.6475  159.6119 H   0  0  0  0  0  0  0  0  0  0  0  0  # atno 6907 bound_to 6896
  150.7700  133.9200  159.3404 H   0  0  0  0  0  0  0  0  0  0  0  0  # atno 6908 bound_to 6896
  151.7015  135.0930  160.0303 H   0  0  0  0  0  0  0  0  0  0  0  0  # atno 6909 bound_to 6896
  145.0110  139.4220  143.5245 H   0  0  0  0  0  0  0  0  0  0  0  0  # atno 7974 bound_to 7965
  155.9856  140.1190  157.0686 H   0  0  0  0  0  0  0  0  0  0  0  0  # atno 8008 bound_to 7997
  154.4196  140.1136  156.5563 H   0  0  0  0  0  0  0  0  0  0  0  0  # atno 8009 bound_to 7997
  155.6412  140.3473  155.4718 H   0  0  0  0  0  0  0  0  0  0  0  0  # atno 8010 bound_to 7997
  139.9807  144.5828  150.7903 H   0  0  0  0  0  0  0  0  0  0  0  0  # atno 10167 bound_to 10162
  157.3509  131.0950  151.1000 H   0  0  0  0  0  0  0  0  0  0  0  0  # atno 10718 bound_to 10713
  154.4585  135.2767  155.1730 H   0  0  0  0  0  0  0  0  0  0  0  0  # atno 10763 bound_to 10752
  154.3528  135.6146  153.5655 H   0  0  0  0  0  0  0  0  0  0  0  0  # atno 10764 bound_to 10752
  152.9853  135.5815  154.4943 H   0  0  0  0  0  0  0  0  0  0  0  0  # atno 10765 bound_to 10752
  140.9906  134.0544  157.3659 H   0  0  0  0  0  0  0  0  0  0  0  0  # atno 11005 bound_to 11000
  146.3470  139.9554  142.8724 LP  0  0  0  0  0  0  0  0  0  0  0  0  # atno 17320 bound_to 7965
  145.2023  140.9860  143.4148 LP  0  0  0  0  0  0  0  0  0  0  0  0  # atno 17321 bound_to 7965
  140.7490  143.2931  151.3276 LP  0  0  0  0  0  0  0  0  0  0  0  0  # atno 17342 bound_to 10162
  139.6412  144.0536  152.2555 LP  0  0  0  0  0  0  0  0  0  0  0  0  # atno 17343 bound_to 10162
  157.2177  130.6467  149.5798 LP  0  0  0  0  0  0  0  0  0  0  0  0  # atno 17370 bound_to 10713
  155.9721  130.4639  150.6200 LP  0  0  0  0  0  0  0  0  0  0  0  0  # atno 17371 bound_to 10713
  139.8990  135.0157  156.7177 LP  0  0  0  0  0  0  0  0  0  0  0  0  # atno 17394 bound_to 11000
  140.7046  133.9276  155.8046 LP  0  0  0  0  0  0  0  0  0  0  0  0  # atno 17395 bound_to 11000

$$$$
