AV-unprocessed.smi:3121|AV-procd|sdf|11895|dock1
  -GOLD-   2272017283D 1   1.00000     0.00000
 Structure written by MMmdl.
 24 25  0  0  0  0  0  0  0  0  2 V2000
  153.2604  142.7794  162.7730 C   0  0  0  0  0  0  0  0  0  0  0  0
  153.6992  141.7151  161.9628 C   0  0  0  0  0  0  0  0  0  0  0  0
  153.4202  141.7533  160.5828 C   0  0  0  0  0  0  0  0  0  0  0  0
  152.7104  142.8598  160.0676 C   0  0  0  0  0  0  0  0  0  0  0  0
  152.3767  142.9426  158.5847 C   0  0  1  0  0  0  0  0  0  0  0  0
  151.4561  141.8509  158.0454 C   0  0  0  0  0  0  0  0  0  0  0  0
  150.9526  142.4435  156.7215 C   0  0  0  0  0  0  0  0  0  0  0  0
  151.1281  143.9105  156.8122 N   0  3  0  0  0  0  0  0  0  0  0  0
  151.6758  144.2269  158.1438 C   0  0  0  0  0  0  0  0  0  0  0  0
  152.2861  143.8843  160.8430 N   0  0  0  0  0  0  0  0  0  0  0  0
  152.5582  143.8386  162.1653 C   0  0  0  0  0  0  0  0  0  0  0  0
  153.4559  142.7832  163.8352 H   0  0  0  0  0  0  0  0  0  0  0  0
  154.2390  140.8839  162.3923 H   0  0  0  0  0  0  0  0  0  0  0  0
  153.7444  140.9480  159.9399 H   0  0  0  0  0  0  0  0  0  0  0  0
  153.3153  142.8785  158.0306 H   0  0  0  0  0  0  0  0  0  0  0  0
  151.9579  140.8903  157.9254 H   0  0  0  0  0  0  0  0  0  0  0  0
  150.6081  141.7036  158.7156 H   0  0  0  0  0  0  0  0  0  0  0  0
  151.5458  142.0746  155.8842 H   0  0  0  0  0  0  0  0  0  0  0  0
  149.9105  142.1842  156.5339 H   0  0  0  0  0  0  0  0  0  0  0  0
  151.7922  144.1968  156.1068 H   0  0  0  0  0  0  0  0  0  0  0  0
  150.8401  144.4615  158.8046 H   0  0  0  0  0  0  0  0  0  0  0  0
  152.3411  145.0903  158.1187 H   0  0  0  0  0  0  0  0  0  0  0  0
  152.2055  144.6705  162.7569 H   0  0  0  0  0  0  0  0  0  0  0  0
  150.2511  144.3904  156.6678 H   0  0  0  0  0  0  0  0  0  0  0  0
  1 11  1  0  0  0  0
  1  2  2  0  0  0  0
  1 12  1  0  0  0  0
  2  3  1  0  0  0  0
  2 13  1  0  0  0  0
  3  4  2  0  0  0  0
  3 14  1  0  0  0  0
  4  5  1  0  0  0  0
  4 10  1  0  0  0  0
  5  9  1  0  0  0  0
  5  6  1  0  0  0  0
  5 15  1  0  0  0  0
  6  7  1  0  0  0  0
  6 16  1  0  0  0  0
  6 17  1  0  0  0  0
  7  8  1  0  0  0  0
  7 18  1  0  0  0  0
  7 19  1  0  0  0  0
  8  9  1  0  0  0  0
  8 20  1  0  0  0  0
  8 24  1  0  0  0  0
  9 21  1  0  0  0  0
  9 22  1  0  0  0  0
 10 11  2  0  0  0  0
 11 23  1  0  0  0  0
M  CHG  1   8   1
M  END
> <s_m_source_file>
AV-unprocessed.smi

> <i_m_source_file_index>
3121

> <i_lp_mmshare_version>
43012

> <i_f3d_flags>
0

> <s_epik_input>
bjFbY0hdW2NIXVtjSF1bY0hdYzFbQ0BASF0yW0NIMl1bQ0gyXVtOSF1bQ0gyXTI=

> <s_epik_cmdline>
J2VwaWtfcHl0aG9uJywgJy1waCcsICc3LjAnLCAnLXRuJywgJzgnLCAnLW1hJywgJzIwMCcsICctbWV0YWxfYmluZGluZycsICctaW1hZScsICc8aW5maWxlLm1hZT4nLCAnLW9tYWUnLCAnPG91dGZpbGUubWFlPic=

> <r_lp_tautomer_probability>
1

> <r_epik_Ionization_Penalty>
0.00154319

> <r_epik_Ionization_Penalty_Charging>
0.000126521

> <r_epik_Ionization_Penalty_Neutral>
0.00141667

> <r_epik_State_Penalty>
-0

> <r_epik_Charging_Adjusted_Penalty>
0.000126521

> <i_epik_Tot_Q>
1

> <i_epik_Tot_abs_Q>
1

> <r_epik_Metal_State_Penalty>
-0

> <b_epik_Metal_Only>
0

> <s_lp_Force_Field>
OPLS_2005

> <r_lp_Energy>
22.4968

> <b_lp_Chiralities_Consistent>
1

> <s_lp_Variant>
AV-unprocessed.smi:3121-2

> <Gold.Version>
5.8.1

> <Gold.Id.Protein>
6NUR|6NUR_protein|mol2

> <Gold.PLP.Fitness>
40.4843

> <Gold.PLP.PLP>
-34.5322

> <Gold.PLP.part.hbond>
-1.0000

> <Gold.PLP.part.metal>
0.0000

> <Gold.PLP.part.buried>
-4.1845

> <Gold.PLP.part.nonpolar>
-29.8747

> <Gold.PLP.part.repulsive>
0.1299

> <Gold.PLP.ligand.clash>
0.0000

> <Gold.PLP.ligand.torsion>
0.0241

> <Gold.PLP.Chemscore.Hbond>
2.0000

> <Gold.PLP.Chemscore.CHOScore>
0.0000

> <Gold.PLP.Chemscore.Metal>
0.0000

> <Gold.Chemscore.Hbonds>
donor molecule, donor type, donor heavy atom, donor atom, acceptor molecule, acceptor atom, score
      L1  H     8    24       P1  8028  2.00

> <Gold.PLP.Chemscore.Internal.Correction>
0.0003

> <Gold.Rescore>
     Score         DG    S(hbond)    S(metal)    S(lipo)     H(rot)  DE(clash)    DE(int)     intcor
     17.64     -17.90       1.00        0.00      99.55       1.00       0.26       0.00       ----

> <Gold.Chemscore.Fitness>
17.6428

> <Gold.Chemscore.DG>
-17.9026

> <Gold.Chemscore.ZeroCoef>
-5.4800

> <Gold.Chemscore.Hbond>
0.9986

> <Gold.Chemscore.Metal>
0.0000

> <Gold.Chemscore.Lipo>
99.5490

> <Gold.Chemscore.Internal_Hbond>
0.0000

> <Gold.Chemscore.DEClash>
0.2596

> <Gold.Chemscore.DEInternal>
0.0002

> <Gold.Chemscore.Rot>
1.0000

> <Gold.Chemscore.Internal.Correction>
   9.000000E+99

> <Gold.Chemscore.Hbonds>
donor molecule, donor type, donor heavy atom, donor atom, acceptor molecule, acceptor atom, score
      L1  H     8    24       P1  8028  0.91

> <Gold.Chemscore.Hbond.Weighted>
-3.3353

> <Gold.Chemscore.Metal.Weighted>
-0.0000

> <Gold.Chemscore.Lipo.Weighted>
-11.6472

> <Gold.Chemscore.Internal_Hbond.Weighted>
0.0000

> <Gold.Chemscore.DEClash.Weighted>
0.2596

> <Gold.Chemscore.DEInternal.Weighted>
0.0002

> <Gold.Chemscore.Rot.Weighted>
2.5600

> <Gold.Chemscore.Internal.Correction.Weighted>
   9.000000E+99

> <Gold.Protein.RotatedTorsions>
[ 6907 6896 6895 6894 ] final -140.53 input  -60.11 | X-H torsion
[ 7974 7965 7964 7962 ] final   47.15 input  175.53 | X-H torsion
[ 8008 7997 7996 7995 ] final  -70.73 input   59.86 | X-H torsion
[ 10167 10162 10161 10158 ] final    4.19 input  -65.29 | X-H torsion
[ 10718 10713 10712 10709 ] final -157.54 input   66.30 | X-H torsion
[ 10763 10752 10751 10750 ] final -168.07 input  -60.55 | X-H torsion
[ 11005 11000 10999 10996 ] final    9.62 input  -57.11 | X-H torsion

> <Gold.Protein.ActiveResidues>
 VAL166  LYS551  ARG553  GLY616  TRP617  ASP618  TYR619  PRO620  LYS621  CYS622 
 ASP623  PHE694  ASN695  SER759  ASP760  ASP761  ALA762  ILE779  LEU786  VAL792 
 PHE793  MET794  SER795  GLU796  ALA797  LYS798  CYS799  TRP800  GLU811  SER814 

> <Gold.Protein.RotatedAtoms>
  151.0620  133.5537  159.2633 H   0  0  0  0  0  0  0  0  0  0  0  0  # atno 6907 bound_to 6896
  151.2508  135.0621  159.9071 H   0  0  0  0  0  0  0  0  0  0  0  0  # atno 6908 bound_to 6896
  152.5399  134.0380  159.8108 H   0  0  0  0  0  0  0  0  0  0  0  0  # atno 6909 bound_to 6896
  146.0324  139.4780  142.9829 H   0  0  0  0  0  0  0  0  0  0  0  0  # atno 7974 bound_to 7965
  154.5034  140.0829  156.7844 H   0  0  0  0  0  0  0  0  0  0  0  0  # atno 8008 bound_to 7997
  155.3950  140.3434  155.4235 H   0  0  0  0  0  0  0  0  0  0  0  0  # atno 8009 bound_to 7997
  156.1485  140.1551  156.8796 H   0  0  0  0  0  0  0  0  0  0  0  0  # atno 8010 bound_to 7997
  140.6547  143.7456  150.7634 H   0  0  0  0  0  0  0  0  0  0  0  0  # atno 10167 bound_to 10162
  156.5417  130.8566  151.2751 H   0  0  0  0  0  0  0  0  0  0  0  0  # atno 10718 bound_to 10713
  154.6666  135.2933  154.9797 H   0  0  0  0  0  0  0  0  0  0  0  0  # atno 10763 bound_to 10752
  154.0838  135.6600  153.4846 H   0  0  0  0  0  0  0  0  0  0  0  0  # atno 10764 bound_to 10752
  153.0461  135.5203  154.7642 H   0  0  0  0  0  0  0  0  0  0  0  0  # atno 10765 bound_to 10752
  140.5236  134.0534  155.7852 H   0  0  0  0  0  0  0  0  0  0  0  0  # atno 11005 bound_to 11000
  145.7019  141.0133  143.1500 LP  0  0  0  0  0  0  0  0  0  0  0  0  # atno 17320 bound_to 7965
  144.7036  139.8654  143.7436 LP  0  0  0  0  0  0  0  0  0  0  0  0  # atno 17321 bound_to 7965
  140.1114  143.4696  152.2368 LP  0  0  0  0  0  0  0  0  0  0  0  0  # atno 17342 bound_to 10162
  139.5768  144.7491  151.3744 LP  0  0  0  0  0  0  0  0  0  0  0  0  # atno 17343 bound_to 10162
  157.7404  130.9849  150.2375 LP  0  0  0  0  0  0  0  0  0  0  0  0  # atno 17370 bound_to 10713
  156.2965  130.3752  149.7791 LP  0  0  0  0  0  0  0  0  0  0  0  0  # atno 17371 bound_to 10713
  141.1320  133.9285  157.2514 LP  0  0  0  0  0  0  0  0  0  0  0  0  # atno 17394 bound_to 11000
  139.9592  135.0158  156.9214 LP  0  0  0  0  0  0  0  0  0  0  0  0  # atno 17395 bound_to 11000

$$$$
