AV-unprocessed.smi:1328|AV-procd|sdf|5479|dock4
  -GOLD-   22720 5 53D 1   1.00000     0.00000
 Structure written by MMmdl.
 38 39  0  0  0  0  0  0  0  0  1 V2000
  152.4608  139.0431  155.4090 C   0  0  0  0  0  0  0  0  0  0  0  0
  151.2356  139.8562  155.7141 C   0  0  0  0  0  0  0  0  0  0  0  0
  150.5948  140.4605  154.7278 N   0  0  0  0  0  0  0  0  0  0  0  0
  149.5189  141.1273  155.3214 O   0  0  0  0  0  0  0  0  0  0  0  0
  149.5528  140.8931  156.6578 C   0  0  0  0  0  0  0  0  0  0  0  0
  148.4813  141.5326  157.4744 C   0  0  0  0  0  0  0  0  0  0  0  0
  150.6159  140.0925  156.9753 C   0  0  0  0  0  0  0  0  0  0  0  0
  151.0398  139.5855  158.3296 C   0  0  0  0  0  0  0  0  0  0  0  0
  152.3364  140.2768  158.7489 C   0  0  0  0  0  0  0  0  0  0  0  0
  153.4131  139.8909  158.2946 O   0  0  0  0  0  0  0  0  0  0  0  0
  152.2147  141.2890  159.6224 N   0  0  0  0  0  0  0  0  0  0  0  0
  153.3110  142.0546  160.2121 C   0  0  2  0  0  0  0  0  0  0  0  0
  153.3892  141.7177  161.7085 C   0  0  0  0  0  0  0  0  0  0  0  0
  153.1113  143.5659  159.9735 C   0  0  2  0  0  0  0  0  0  0  0  0
  151.9797  144.2062  160.7811 C   0  0  0  0  0  0  0  0  0  0  0  0
  151.6437  145.4119  159.9348 C   0  0  0  0  0  0  0  0  0  0  0  0
  151.7849  144.8471  158.5253 C   0  0  0  0  0  0  0  0  0  0  0  0
  152.7653  143.8162  158.6122 O   0  0  0  0  0  0  0  0  0  0  0  0
  152.2066  137.9909  155.2818 H   0  0  0  0  0  0  0  0  0  0  0  0
  153.1916  139.1136  156.2144 H   0  0  0  0  0  0  0  0  0  0  0  0
  152.9489  139.3816  154.4944 H   0  0  0  0  0  0  0  0  0  0  0  0
  148.7417  142.5649  157.7086 H   0  0  0  0  0  0  0  0  0  0  0  0
  148.3355  141.0002  158.4143 H   0  0  0  0  0  0  0  0  0  0  0  0
  147.5321  141.5351  156.9385 H   0  0  0  0  0  0  0  0  0  0  0  0
  150.2749  139.7783  159.0827 H   0  0  0  0  0  0  0  0  0  0  0  0
  151.1908  138.5053  158.3256 H   0  0  0  0  0  0  0  0  0  0  0  0
  151.2839  141.5294  159.9303 H   0  0  0  0  0  0  0  0  0  0  0  0
  154.2571  141.7546  159.7579 H   0  0  0  0  0  0  0  0  0  0  0  0
  154.2203  142.2363  162.1872 H   0  0  0  0  0  0  0  0  0  0  0  0
  153.5390  140.6486  161.8624 H   0  0  0  0  0  0  0  0  0  0  0  0
  152.4745  142.0044  162.2289 H   0  0  0  0  0  0  0  0  0  0  0  0
  154.0384  144.1033  160.1805 H   0  0  0  0  0  0  0  0  0  0  0  0
  151.1181  143.5388  160.8342 H   0  0  0  0  0  0  0  0  0  0  0  0
  152.2747  144.4667  161.7979 H   0  0  0  0  0  0  0  0  0  0  0  0
  150.6515  145.8170  160.1351 H   0  0  0  0  0  0  0  0  0  0  0  0
  152.3773  146.2020  160.1001 H   0  0  0  0  0  0  0  0  0  0  0  0
  150.8447  144.4019  158.1982 H   0  0  0  0  0  0  0  0  0  0  0  0
  152.0699  145.6088  157.7992 H   0  0  0  0  0  0  0  0  0  0  0  0
  1  2  1  0  0  0  0
  1 19  1  0  0  0  0
  1 20  1  0  0  0  0
  1 21  1  0  0  0  0
  2  7  1  0  0  0  0
  2  3  2  0  0  0  0
  3  4  1  0  0  0  0
  4  5  1  0  0  0  0
  5  6  1  0  0  0  0
  5  7  2  0  0  0  0
  6 22  1  0  0  0  0
  6 23  1  0  0  0  0
  6 24  1  0  0  0  0
  7  8  1  0  0  0  0
  8  9  1  0  0  0  0
  8 25  1  0  0  0  0
  8 26  1  0  0  0  0
  9 10  2  0  0  0  0
  9 11  1  0  0  0  0
 11 12  1  0  0  0  0
 11 27  1  0  0  0  0
 12 13  1  0  0  0  0
 12 14  1  0  0  0  0
 12 28  1  0  0  0  0
 13 29  1  0  0  0  0
 13 30  1  0  0  0  0
 13 31  1  0  0  0  0
 14 18  1  0  0  0  0
 14 15  1  0  0  0  0
 14 32  1  0  0  0  0
 15 16  1  0  0  0  0
 15 33  1  0  0  0  0
 15 34  1  0  0  0  0
 16 17  1  0  0  0  0
 16 35  1  0  0  0  0
 16 36  1  0  0  0  0
 17 18  1  0  0  0  0
 17 37  1  0  0  0  0
 17 38  1  0  0  0  0
M  END
> <s_m_source_file>
AV-unprocessed.smi

> <i_m_source_file_index>
1328

> <i_lp_mmshare_version>
43012

> <i_f3d_flags>
0

> <s_epik_input>
W0NIM11jMW5vYyhbQ0gzXSljMVtDSDJdQyg9TylbTkhdW0NASF0oW0NIM10pW0NAQEhdMltDSDJdW0NIMl1bQ0gyXU8y

> <s_epik_cmdline>
J2VwaWtfcHl0aG9uJywgJy1waCcsICc3LjAnLCAnLXRuJywgJzgnLCAnLW1hJywgJzIwMCcsICctbWV0YWxfYmluZGluZycsICctaW1hZScsICc8aW5maWxlLm1hZT4nLCAnLW9tYWUnLCAnPG91dGZpbGUubWFlPic=

> <r_lp_tautomer_probability>
1

> <r_epik_Ionization_Penalty>
2.66156e-08

> <r_epik_Ionization_Penalty_Charging>
0

> <r_epik_Ionization_Penalty_Neutral>
2.66156e-08

> <r_epik_State_Penalty>
-0

> <r_epik_Charging_Adjusted_Penalty>
0

> <i_epik_Tot_Q>
0

> <i_epik_Tot_abs_Q>
0

> <r_epik_Metal_State_Penalty>
-0

> <b_epik_Metal_Only>
0

> <s_lp_Force_Field>
OPLS_2005

> <r_lp_Energy>
12.1854

> <b_lp_Chiralities_Consistent>
1

> <s_lp_Variant>
AV-unprocessed.smi:1328-1

> <Gold.Version>
5.8.1

> <Gold.Id.Protein>
6NUR|6NUR_protein|mol2

> <Gold.PLP.Fitness>
45.4289

> <Gold.PLP.PLP>
-40.5120

> <Gold.PLP.part.hbond>
-2.0000

> <Gold.PLP.part.metal>
0.0000

> <Gold.PLP.part.buried>
-6.1653

> <Gold.PLP.part.nonpolar>
-32.5243

> <Gold.PLP.part.repulsive>
0.3399

> <Gold.PLP.ligand.clash>
0.0000

> <Gold.PLP.ligand.torsion>
0.5500

> <Gold.PLP.Chemscore.Hbond>
2.0000

> <Gold.PLP.Chemscore.CHOScore>
0.0000

> <Gold.PLP.Chemscore.Metal>
0.0000

> <Gold.Chemscore.Hbonds>
donor molecule, donor type, donor heavy atom, donor atom, acceptor molecule, acceptor atom, score
      P1  H  7989  7998       L1     3  1.00
      P1  H  7997  8008       L1    10  1.00

> <Gold.PLP.Chemscore.Internal.Correction>
0.0169

> <Gold.Rescore>
     Score         DG    S(hbond)    S(metal)    S(lipo)     H(rot)  DE(clash)    DE(int)     intcor
     19.48     -20.03       1.93        0.00     102.41       1.52       0.00       0.54       ----

> <Gold.Chemscore.Fitness>
19.4835

> <Gold.Chemscore.DG>
-20.0269

> <Gold.Chemscore.ZeroCoef>
-5.4800

> <Gold.Chemscore.Hbond>
1.9297

> <Gold.Chemscore.Metal>
0.0000

> <Gold.Chemscore.Lipo>
102.4131

> <Gold.Chemscore.Internal_Hbond>
0.0000

> <Gold.Chemscore.DEClash>
0.0000

> <Gold.Chemscore.DEInternal>
0.5434

> <Gold.Chemscore.Rot>
1.5159

> <Gold.Chemscore.Internal.Correction>
   9.000000E+99

> <Gold.Chemscore.Hbonds>
donor molecule, donor type, donor heavy atom, donor atom, acceptor molecule, acceptor atom, score
      P1  H  7989  7998       L1     3  0.79
      P1  H  7997  8008       L1    10  0.96

> <Gold.Chemscore.Hbond.Weighted>
-6.4453

> <Gold.Chemscore.Metal.Weighted>
-0.0000

> <Gold.Chemscore.Lipo.Weighted>
-11.9823

> <Gold.Chemscore.Internal_Hbond.Weighted>
0.0000

> <Gold.Chemscore.DEClash.Weighted>
0.0000

> <Gold.Chemscore.DEInternal.Weighted>
0.5434

> <Gold.Chemscore.Rot.Weighted>
3.8807

> <Gold.Chemscore.Internal.Correction.Weighted>
   9.000000E+99

> <Gold.Protein.RotatedTorsions>
[ 6907 6896 6895 6894 ] final  162.82 input  -60.11 | X-H torsion
[ 7974 7965 7964 7962 ] final  -45.34 input  175.53 | X-H torsion
[ 8008 7997 7996 7995 ] final  -78.01 input   59.86 | X-H torsion
[ 10167 10162 10161 10158 ] final -174.95 input  -65.29 | X-H torsion
[ 10718 10713 10712 10709 ] final  116.90 input   66.30 | X-H torsion
[ 10763 10752 10751 10750 ] final   60.99 input  -60.55 | X-H torsion
[ 11005 11000 10999 10996 ] final  -28.96 input  -57.11 | X-H torsion

> <Gold.Protein.ActiveResidues>
 VAL166  LYS551  ARG553  GLY616  TRP617  ASP618  TYR619  PRO620  LYS621  CYS622 
 ASP623  PHE694  ASN695  SER759  ASP760  ASP761  ALA762  ILE779  LEU786  VAL792 
 PHE793  MET794  SER795  GLU796  ALA797  LYS798  CYS799  TRP800  GLU811  SER814 

> <Gold.Protein.RotatedAtoms>
  151.9346  133.3621  159.3942 H   0  0  0  0  0  0  0  0  0  0  0  0  # atno 6907 bound_to 6896
  150.7010  134.4502  159.5342 H   0  0  0  0  0  0  0  0  0  0  0  0  # atno 6908 bound_to 6896
  152.2148  134.8468  160.0544 H   0  0  0  0  0  0  0  0  0  0  0  0  # atno 6909 bound_to 6896
  145.9830  140.7263  142.9354 H   0  0  0  0  0  0  0  0  0  0  0  0  # atno 7974 bound_to 7965
  154.5649  140.0701  156.8876 H   0  0  0  0  0  0  0  0  0  0  0  0  # atno 8008 bound_to 7997
  155.2741  140.3367  155.4245 H   0  0  0  0  0  0  0  0  0  0  0  0  # atno 8009 bound_to 7997
  156.2072  140.1745  156.7759 H   0  0  0  0  0  0  0  0  0  0  0  0  # atno 8010 bound_to 7997
  139.5607  144.1878  152.1233 H   0  0  0  0  0  0  0  0  0  0  0  0  # atno 10167 bound_to 10162
  157.6131  131.1031  150.7538 H   0  0  0  0  0  0  0  0  0  0  0  0  # atno 10718 bound_to 10713
  152.9937  135.5516  154.5963 H   0  0  0  0  0  0  0  0  0  0  0  0  # atno 10763 bound_to 10752
  154.5314  135.2814  155.1179 H   0  0  0  0  0  0  0  0  0  0  0  0  # atno 10764 bound_to 10752
  154.2493  135.6402  153.5287 H   0  0  0  0  0  0  0  0  0  0  0  0  # atno 10765 bound_to 10752
  140.9254  133.7372  156.0861 H   0  0  0  0  0  0  0  0  0  0  0  0  # atno 11005 bound_to 11000
  144.6867  140.2941  143.7273 LP  0  0  0  0  0  0  0  0  0  0  0  0  # atno 17320 bound_to 7965
  145.7742  139.1868  143.2195 LP  0  0  0  0  0  0  0  0  0  0  0  0  # atno 17321 bound_to 7965
  140.1391  144.5219  150.6755 LP  0  0  0  0  0  0  0  0  0  0  0  0  # atno 17342 bound_to 10162
  140.6886  143.2363  151.5193 LP  0  0  0  0  0  0  0  0  0  0  0  0  # atno 17343 bound_to 10162
  156.7912  130.4890  149.5384 LP  0  0  0  0  0  0  0  0  0  0  0  0  # atno 17370 bound_to 10713
  156.1242  130.6131  151.0238 LP  0  0  0  0  0  0  0  0  0  0  0  0  # atno 17371 bound_to 10713
  140.7932  134.3593  157.5459 LP  0  0  0  0  0  0  0  0  0  0  0  0  # atno 17394 bound_to 11000
  139.8784  134.9153  156.3128 LP  0  0  0  0  0  0  0  0  0  0  0  0  # atno 17395 bound_to 11000

$$$$
