AV-unprocessed.smi:1802|AV-procd|sdf|7271|dock7
  -GOLD-   22720 8533D 1   1.00000     0.00000
 Structure written by MMmdl.
 41 42  0  0  0  0  0  0  0  0  2 V2000
  147.2365  131.9385  153.1420 C   0  0  0  0  0  0  0  0  0  0  0  0
  145.7602  132.1787  152.7954 C   0  0  2  0  0  0  0  0  0  0  0  0
  145.5081  132.0338  151.2853 C   0  0  0  0  0  0  0  0  0  0  0  0
  144.0321  132.2999  150.9667 C   0  0  0  0  0  0  0  0  0  0  0  0
  143.5954  133.6730  151.5001 C   0  0  0  0  0  0  0  0  0  0  0  0
  143.8452  133.7864  152.9606 N   0  3  2  0  0  0  0  0  0  0  0  0
  143.3077  135.0531  153.5193 C   0  0  0  0  0  0  0  0  0  0  0  0
  144.3810  136.1475  153.6532 C   0  0  0  0  0  0  0  0  0  0  0  0
  145.0373  136.4818  152.3031 C   0  0  0  0  0  0  0  0  0  0  0  0
  146.3716  137.0462  152.4724 N   0  0  0  0  0  0  0  0  0  0  0  0
  146.6633  138.1064  153.2399 C   0  0  0  0  0  0  0  0  0  0  0  0
  145.8146  138.7396  153.8684 O   0  0  0  0  0  0  0  0  0  0  0  0
  147.9814  138.3726  153.2253 N   0  0  0  0  0  0  0  0  0  0  0  0
  148.6806  139.3901  153.9274 C   0  0  0  0  0  0  0  0  0  0  0  0
  149.9015  139.2228  154.4596 N   0  0  0  0  0  0  0  0  0  0  0  0
  150.3567  140.3748  155.0874 N   0  0  0  0  0  0  0  0  0  0  0  0
  149.4624  141.3638  155.0051 C   0  0  0  0  0  0  0  0  0  0  0  0
  147.9760  140.9847  154.1522 S   0  0  0  0  0  0  0  0  0  0  0  0
  145.2794  133.5592  153.2881 C   0  0  0  0  0  0  0  0  0  0  0  0
  147.8830  132.6697  152.6559 H   0  0  0  0  0  0  0  0  0  0  0  0
  147.5575  130.9464  152.8234 H   0  0  0  0  0  0  0  0  0  0  0  0
  147.4046  132.0081  154.2171 H   0  0  0  0  0  0  0  0  0  0  0  0
  145.1749  131.4151  153.3101 H   0  0  0  0  0  0  0  0  0  0  0  0
  146.1350  132.7355  150.7329 H   0  0  0  0  0  0  0  0  0  0  0  0
  145.7861  131.0346  150.9480 H   0  0  0  0  0  0  0  0  0  0  0  0
  143.8686  132.2493  149.8898 H   0  0  0  0  0  0  0  0  0  0  0  0
  143.4131  131.5190  151.4109 H   0  0  0  0  0  0  0  0  0  0  0  0
  144.1277  134.4685  150.9758 H   0  0  0  0  0  0  0  0  0  0  0  0
  142.5335  133.8128  151.2938 H   0  0  0  0  0  0  0  0  0  0  0  0
  142.4715  135.4020  152.9113 H   0  0  0  0  0  0  0  0  0  0  0  0
  142.9039  134.8592  154.5140 H   0  0  0  0  0  0  0  0  0  0  0  0
  143.9320  137.0499  154.0704 H   0  0  0  0  0  0  0  0  0  0  0  0
  145.1526  135.8330  154.3553 H   0  0  0  0  0  0  0  0  0  0  0  0
  145.0882  135.5926  151.6721 H   0  0  0  0  0  0  0  0  0  0  0  0
  144.4300  137.2093  151.7639 H   0  0  0  0  0  0  0  0  0  0  0  0
  147.1281  136.5833  151.9896 H   0  0  0  0  0  0  0  0  0  0  0  0
  148.5557  137.7677  152.6569 H   0  0  0  0  0  0  0  0  0  0  0  0
  149.6797  142.3234  155.4500 H   0  0  0  0  0  0  0  0  0  0  0  0
  145.4313  133.6186  154.3652 H   0  0  0  0  0  0  0  0  0  0  0  0
  145.8832  134.3511  152.8419 H   0  0  0  0  0  0  0  0  0  0  0  0
  143.3223  133.0382  153.3932 H   0  0  0  0  0  0  0  0  0  0  0  0
  1  2  1  0  0  0  0
  1 20  1  0  0  0  0
  1 21  1  0  0  0  0
  1 22  1  0  0  0  0
  2 19  1  0  0  0  0
  2  3  1  0  0  0  0
  2 23  1  0  0  0  0
  3  4  1  0  0  0  0
  3 24  1  0  0  0  0
  3 25  1  0  0  0  0
  4  5  1  0  0  0  0
  4 26  1  0  0  0  0
  4 27  1  0  0  0  0
  5  6  1  0  0  0  0
  5 28  1  0  0  0  0
  5 29  1  0  0  0  0
  6  7  1  0  0  0  0
  6 19  1  0  0  0  0
  6 41  1  0  0  0  0
  7  8  1  0  0  0  0
  7 30  1  0  0  0  0
  7 31  1  0  0  0  0
  8  9  1  0  0  0  0
  8 32  1  0  0  0  0
  8 33  1  0  0  0  0
  9 10  1  0  0  0  0
  9 34  1  0  0  0  0
  9 35  1  0  0  0  0
 10 11  1  0  0  0  0
 10 36  1  0  0  0  0
 11 12  2  0  0  0  0
 11 13  1  0  0  0  0
 13 14  1  0  0  0  0
 13 37  1  0  0  0  0
 14 18  1  0  0  0  0
 14 15  2  0  0  0  0
 15 16  1  0  0  0  0
 16 17  2  0  0  0  0
 17 18  1  0  0  0  0
 17 38  1  0  0  0  0
 19 39  1  0  0  0  0
 19 40  1  0  0  0  0
M  CHG  1   6   1
M  END
> <s_m_source_file>
AV-unprocessed.smi

> <i_m_source_file_index>
1802

> <i_lp_mmshare_version>
43012

> <i_f3d_flags>
0

> <s_epik_input>
W0NIM11bQ0BASF0xW0NIMl1bQ0gyXVtDSDJdTihbQ0gyXTEpW0NIMl1bQ0gyXVtDSDJdW05IXUMoPU8pW05IXWMybm5bY0hdczI=

> <s_epik_cmdline>
J2VwaWtfcHl0aG9uJywgJy1waCcsICc3LjAnLCAnLXRuJywgJzgnLCAnLW1hJywgJzIwMCcsICctbWV0YWxfYmluZGluZycsICctaW1hZScsICc8aW5maWxlLm1hZT4nLCAnLW9tYWUnLCAnPG91dGZpbGUubWFlPic=

> <r_lp_tautomer_probability>
1

> <r_epik_Ionization_Penalty>
0.00272894

> <r_epik_Ionization_Penalty_Charging>
0.000288442

> <r_epik_Ionization_Penalty_Neutral>
0.0024405

> <r_epik_State_Penalty>
-0

> <r_epik_Charging_Adjusted_Penalty>
0.000288442

> <i_epik_Tot_Q>
1

> <i_epik_Tot_abs_Q>
1

> <r_epik_Metal_State_Penalty>
0.350525

> <b_epik_Metal_Only>
0

> <s_lp_Force_Field>
OPLS_2005

> <r_lp_Energy>
15.5864

> <b_lp_Chiralities_Consistent>
1

> <s_lp_Variant>
AV-unprocessed.smi:1802-1

> <Gold.Version>
5.8.1

> <Gold.Id.Protein>
6NUR|6NUR_protein|mol2

> <Gold.PLP.Fitness>
44.9264

> <Gold.PLP.PLP>
-29.3168

> <Gold.PLP.part.hbond>
-5.0332

> <Gold.PLP.part.metal>
0.0000

> <Gold.PLP.part.buried>
-2.3295

> <Gold.PLP.part.nonpolar>
-23.1377

> <Gold.PLP.part.repulsive>
1.5381

> <Gold.PLP.ligand.clash>
0.0000

> <Gold.PLP.ligand.torsion>
0.8793

> <Gold.PLP.Chemscore.Hbond>
4.7640

> <Gold.PLP.Chemscore.CHOScore>
1.0000

> <Gold.PLP.Chemscore.Metal>
0.0000

> <Gold.Chemscore.Hbonds>
donor molecule, donor type, donor heavy atom, donor atom, acceptor molecule, acceptor atom, score
      L1  H     6    41       P1 10957  2.00
      L1  H    10    36       P1  7948  0.99
      L1  H    13    37       P1  7948  1.00
      P1  H  7989  7998       L1    16  0.55
      L1  C    17    38       P1  8028  1.00

> <Gold.PLP.Chemscore.Internal.Correction>
0.0761

> <Gold.Rescore>
     Score         DG    S(hbond)    S(metal)    S(lipo)     H(rot)  DE(clash)    DE(int)     intcor
     14.78     -16.76       2.90        0.00      56.95       1.98       0.01       1.98       ----

> <Gold.Chemscore.Fitness>
14.7784

> <Gold.Chemscore.DG>
-16.7647

> <Gold.Chemscore.ZeroCoef>
-5.4800

> <Gold.Chemscore.Hbond>
2.9006

> <Gold.Chemscore.Metal>
0.0000

> <Gold.Chemscore.Lipo>
56.9537

> <Gold.Chemscore.Internal_Hbond>
0.0000

> <Gold.Chemscore.DEClash>
0.0077

> <Gold.Chemscore.DEInternal>
1.9785

> <Gold.Chemscore.Rot>
1.9793

> <Gold.Chemscore.Internal.Correction>
   9.000000E+99

> <Gold.Chemscore.Hbonds>
donor molecule, donor type, donor heavy atom, donor atom, acceptor molecule, acceptor atom, score
      L1  H     6    41       P1 10957  0.82
      L1  H    10    36       P1  7948  0.94
      L1  H    13    37       P1  7948  0.98
      P1  H  7989  7998       L1    16  0.01

> <Gold.Chemscore.Hbond.Weighted>
-9.6880

> <Gold.Chemscore.Metal.Weighted>
-0.0000

> <Gold.Chemscore.Lipo.Weighted>
-6.6636

> <Gold.Chemscore.Internal_Hbond.Weighted>
0.0000

> <Gold.Chemscore.DEClash.Weighted>
0.0077

> <Gold.Chemscore.DEInternal.Weighted>
1.9785

> <Gold.Chemscore.Rot.Weighted>
5.0670

> <Gold.Chemscore.Internal.Correction.Weighted>
   9.000000E+99

> <Gold.Protein.RotatedTorsions>
[ 6907 6896 6895 6894 ] final  103.79 input  -60.11 | X-H torsion
[ 7974 7965 7964 7962 ] final  139.37 input  175.53 | X-H torsion
[ 8008 7997 7996 7995 ] final -111.66 input   59.86 | X-H torsion
[ 10167 10162 10161 10158 ] final  -47.03 input  -65.29 | X-H torsion
[ 10718 10713 10712 10709 ] final -164.33 input   66.30 | X-H torsion
[ 10763 10752 10751 10750 ] final  154.55 input  -60.55 | X-H torsion
[ 11005 11000 10999 10996 ] final  123.21 input  -57.11 | X-H torsion

> <Gold.Protein.ActiveResidues>
 VAL166  LYS551  ARG553  GLY616  TRP617  ASP618  TYR619  PRO620  LYS621  CYS622 
 ASP623  PHE694  ASN695  SER759  ASP760  ASP761  ALA762  ILE779  LEU786  VAL792 
 PHE793  MET794  SER795  GLU796  ALA797  LYS798  CYS799  TRP800  GLU811  SER814 

> <Gold.Protein.RotatedAtoms>
  152.5285  133.9774  159.7790 H   0  0  0  0  0  0  0  0  0  0  0  0  # atno 6907 bound_to 6896
  151.0034  133.6026  159.2699 H   0  0  0  0  0  0  0  0  0  0  0  0  # atno 6908 bound_to 6896
  151.3127  135.0805  159.9331 H   0  0  0  0  0  0  0  0  0  0  0  0  # atno 6909 bound_to 6896
  144.9285  139.5077  143.5629 H   0  0  0  0  0  0  0  0  0  0  0  0  # atno 7974 bound_to 7965
  154.9932  140.0395  157.2328 H   0  0  0  0  0  0  0  0  0  0  0  0  # atno 8008 bound_to 7997
  154.7610  140.2784  155.6191 H   0  0  0  0  0  0  0  0  0  0  0  0  # atno 8009 bound_to 7997
  156.2904  140.2628  156.2388 H   0  0  0  0  0  0  0  0  0  0  0  0  # atno 8010 bound_to 7997
  140.6792  143.2803  151.3868 H   0  0  0  0  0  0  0  0  0  0  0  0  # atno 10167 bound_to 10162
  156.6375  130.8955  151.2989 H   0  0  0  0  0  0  0  0  0  0  0  0  # atno 10718 bound_to 10713
  154.1541  135.2813  155.3127 H   0  0  0  0  0  0  0  0  0  0  0  0  # atno 10763 bound_to 10752
  154.6195  135.5472  153.7563 H   0  0  0  0  0  0  0  0  0  0  0  0  # atno 10764 bound_to 10752
  153.0212  135.6435  154.1685 H   0  0  0  0  0  0  0  0  0  0  0  0  # atno 10765 bound_to 10752
  139.9302  134.9641  156.8226 H   0  0  0  0  0  0  0  0  0  0  0  0  # atno 11005 bound_to 11000
  146.3236  139.8217  142.8925 LP  0  0  0  0  0  0  0  0  0  0  0  0  # atno 17320 bound_to 7965
  145.3181  141.0237  143.3516 LP  0  0  0  0  0  0  0  0  0  0  0  0  # atno 17321 bound_to 7965
  139.6104  144.1111  152.2292 LP  0  0  0  0  0  0  0  0  0  0  0  0  # atno 17342 bound_to 10162
  140.0523  144.5923  150.7327 LP  0  0  0  0  0  0  0  0  0  0  0  0  # atno 17343 bound_to 10162
  157.7181  130.9523  150.1332 LP  0  0  0  0  0  0  0  0  0  0  0  0  # atno 17370 bound_to 10713
  156.2185  130.3672  149.8584 LP  0  0  0  0  0  0  0  0  0  0  0  0  # atno 17371 bound_to 10713
  140.6222  133.9983  155.7623 LP  0  0  0  0  0  0  0  0  0  0  0  0  # atno 17394 bound_to 11000
  141.0887  133.9951  157.3273 LP  0  0  0  0  0  0  0  0  0  0  0  0  # atno 17395 bound_to 11000

$$$$
