AV-unprocessed.smi:1795|AV-procd|sdf|7242|dock5
  -GOLD-   22720 8493D 1   1.00000     0.00000
 Structure written by MMmdl.
 47 48  0  0  0  0  0  0  0  0  1 V2000
  153.1151  142.8355  161.9000 C   0  0  0  0  0  0  0  0  0  0  0  0
  152.7563  143.0061  160.4201 C   0  0  1  0  0  0  0  0  0  0  0  0
  151.8765  141.8539  159.9015 C   0  0  0  0  0  0  0  0  0  0  0  0
  151.4517  142.0429  158.5111 N   0  0  0  0  0  0  0  0  0  0  0  0
  150.6229  140.9235  158.0039 C   0  0  1  0  0  0  0  0  0  0  0  0
  150.3872  140.9994  156.4730 C   0  0  0  0  0  0  0  0  0  0  0  0
  151.2047  139.5247  158.3500 C   0  0  0  0  0  0  0  0  0  0  0  0
  150.2005  138.4677  158.2715 N   0  0  0  0  0  0  0  0  0  0  0  0
  150.2608  137.2943  158.9176 C   0  0  0  0  0  0  0  0  0  0  0  0
  151.1856  136.9851  159.6703 O   0  0  0  0  0  0  0  0  0  0  0  0
  149.0946  136.3298  158.6544 C   0  0  0  0  0  0  0  0  0  0  0  0
  148.5475  135.7152  159.8757 N   0  0  0  0  0  0  0  0  0  0  0  0
  148.1403  136.5890  160.9036 C   0  0  0  0  0  0  0  0  0  0  0  0
  147.6269  136.1370  162.0585 C   0  0  0  0  0  0  0  0  0  0  0  0
  147.4953  134.7101  162.2345 C   0  0  0  0  0  0  0  0  0  0  0  0
  147.8775  133.8653  161.2562 C   0  0  0  0  0  0  0  0  0  0  0  0
  148.4370  134.3555  159.9909 C   0  0  0  0  0  0  0  0  0  0  0  0
  148.7851  133.5909  159.0907 O   0  0  0  0  0  0  0  0  0  0  0  0
  150.7676  143.3383  158.4217 C   0  0  0  0  0  0  0  0  0  0  0  0
  151.6050  144.5175  158.9552 C   0  0  2  0  0  0  0  0  0  0  0  0
  152.7571  144.9211  158.0187 C   0  0  0  0  0  0  0  0  0  0  0  0
  152.0632  144.2411  160.2765 O   0  0  0  0  0  0  0  0  0  0  0  0
  153.6600  141.9062  162.0682 H   0  0  0  0  0  0  0  0  0  0  0  0
  152.2204  142.8174  162.5230 H   0  0  0  0  0  0  0  0  0  0  0  0
  153.7442  143.6566  162.2446 H   0  0  0  0  0  0  0  0  0  0  0  0
  153.6831  143.0408  159.8470 H   0  0  0  0  0  0  0  0  0  0  0  0
  152.4631  140.9438  160.0053 H   0  0  0  0  0  0  0  0  0  0  0  0
  151.0007  141.7421  160.5424 H   0  0  0  0  0  0  0  0  0  0  0  0
  149.6432  140.9878  158.4804 H   0  0  0  0  0  0  0  0  0  0  0  0
  149.8219  140.1491  156.0933 H   0  0  0  0  0  0  0  0  0  0  0  0
  151.3328  141.0304  155.9307 H   0  0  0  0  0  0  0  0  0  0  0  0
  149.8041  141.8729  156.1857 H   0  0  0  0  0  0  0  0  0  0  0  0
  152.0480  139.3097  157.6911 H   0  0  0  0  0  0  0  0  0  0  0  0
  151.5808  139.4846  159.3708 H   0  0  0  0  0  0  0  0  0  0  0  0
  149.4063  138.6390  157.6721 H   0  0  0  0  0  0  0  0  0  0  0  0
  148.3101  136.8626  158.1136 H   0  0  0  0  0  0  0  0  0  0  0  0
  149.4383  135.5562  157.9661 H   0  0  0  0  0  0  0  0  0  0  0  0
  148.2657  137.6407  160.6898 H   0  0  0  0  0  0  0  0  0  0  0  0
  147.3170  136.8226  162.8335 H   0  0  0  0  0  0  0  0  0  0  0  0
  147.0869  134.3183  163.1544 H   0  0  0  0  0  0  0  0  0  0  0  0
  147.7707  132.8010  161.4051 H   0  0  0  0  0  0  0  0  0  0  0  0
  150.5067  143.5708  157.3910 H   0  0  0  0  0  0  0  0  0  0  0  0
  149.8302  143.2902  158.9783 H   0  0  0  0  0  0  0  0  0  0  0  0
  150.9473  145.3832  159.0373 H   0  0  0  0  0  0  0  0  0  0  0  0
  152.3736  145.2452  157.0510 H   0  0  0  0  0  0  0  0  0  0  0  0
  153.4459  144.0967  157.8345 H   0  0  0  0  0  0  0  0  0  0  0  0
  153.3293  145.7478  158.4400 H   0  0  0  0  0  0  0  0  0  0  0  0
  1  2  1  0  0  0  0
  1 23  1  0  0  0  0
  1 24  1  0  0  0  0
  1 25  1  0  0  0  0
  2 22  1  0  0  0  0
  2  3  1  0  0  0  0
  2 26  1  0  0  0  0
  3  4  1  0  0  0  0
  3 27  1  0  0  0  0
  3 28  1  0  0  0  0
  4  5  1  0  0  0  0
  4 19  1  0  0  0  0
  5  6  1  0  0  0  0
  5  7  1  0  0  0  0
  5 29  1  0  0  0  0
  6 30  1  0  0  0  0
  6 31  1  0  0  0  0
  6 32  1  0  0  0  0
  7  8  1  0  0  0  0
  7 33  1  0  0  0  0
  7 34  1  0  0  0  0
  8  9  1  0  0  0  0
  8 35  1  0  0  0  0
  9 10  2  0  0  0  0
  9 11  1  0  0  0  0
 11 12  1  0  0  0  0
 11 36  1  0  0  0  0
 11 37  1  0  0  0  0
 12 17  1  0  0  0  0
 12 13  1  0  0  0  0
 13 14  2  0  0  0  0
 13 38  1  0  0  0  0
 14 15  1  0  0  0  0
 14 39  1  0  0  0  0
 15 16  2  0  0  0  0
 15 40  1  0  0  0  0
 16 17  1  0  0  0  0
 16 41  1  0  0  0  0
 17 18  2  0  0  0  0
 19 20  1  0  0  0  0
 19 42  1  0  0  0  0
 19 43  1  0  0  0  0
 20 21  1  0  0  0  0
 20 22  1  0  0  0  0
 20 44  1  0  0  0  0
 21 45  1  0  0  0  0
 21 46  1  0  0  0  0
 21 47  1  0  0  0  0
M  END
> <s_m_source_file>
AV-unprocessed.smi

> <i_m_source_file_index>
1795

> <i_lp_mmshare_version>
43012

> <i_f3d_flags>
0

> <s_epik_input>
W0NIM11bQ0BASF0xW0NIMl1OKFtDSDJdW0NASF0oTzEpW0NIM10pW0NASF0oW0NIM10pW0NIMl1bTkhdQyg9TylbQ0gyXW4yW2NIXVtjSF1bY0hdW2NIXWMyPU8=

> <s_epik_cmdline>
J2VwaWtfcHl0aG9uJywgJy1waCcsICc3LjAnLCAnLXRuJywgJzgnLCAnLW1hJywgJzIwMCcsICctbWV0YWxfYmluZGluZycsICctaW1hZScsICc8aW5maWxlLm1hZT4nLCAnLW9tYWUnLCAnPG91dGZpbGUubWFlPic=

> <r_lp_tautomer_probability>
1

> <r_epik_Ionization_Penalty>
0.237383

> <r_epik_Ionization_Penalty_Charging>
3.58805e-07

> <r_epik_Ionization_Penalty_Neutral>
0.237382

> <r_epik_State_Penalty>
0.228245

> <r_epik_Charging_Adjusted_Penalty>
0.228245

> <i_epik_Tot_Q>
0

> <i_epik_Tot_abs_Q>
0

> <r_epik_Metal_State_Penalty>
0.228221

> <b_epik_Metal_Only>
0

> <s_lp_Force_Field>
OPLS_2005

> <r_lp_Energy>
40.9254

> <b_lp_Chiralities_Consistent>
1

> <s_lp_Variant>
AV-unprocessed.smi:1795-6

> <Gold.Version>
5.8.1

> <Gold.Id.Protein>
6NUR|6NUR_protein|mol2

> <Gold.PLP.Fitness>
48.3173

> <Gold.PLP.PLP>
-44.1404

> <Gold.PLP.part.hbond>
-2.0000

> <Gold.PLP.part.metal>
0.0000

> <Gold.PLP.part.buried>
-4.2377

> <Gold.PLP.part.nonpolar>
-37.5944

> <Gold.PLP.part.repulsive>
0.2122

> <Gold.PLP.ligand.clash>
0.0000

> <Gold.PLP.ligand.torsion>
0.6339

> <Gold.PLP.Chemscore.Hbond>
1.7926

> <Gold.PLP.Chemscore.CHOScore>
0.0000

> <Gold.PLP.Chemscore.Metal>
0.0000

> <Gold.Chemscore.Hbonds>
donor molecule, donor type, donor heavy atom, donor atom, acceptor molecule, acceptor atom, score
      P1  H  6896  6907       L1    18  0.69
      P1  H  6896  6908       L1    10  0.99

> <Gold.PLP.Chemscore.Internal.Correction>
0.0669

> <Gold.Rescore>
     Score         DG    S(hbond)    S(metal)    S(lipo)     H(rot)  DE(clash)    DE(int)     intcor
     18.82     -19.59       1.46        0.00     118.88       1.83       0.23       0.54       ----

> <Gold.Chemscore.Fitness>
18.8220

> <Gold.Chemscore.DG>
-19.5885

> <Gold.Chemscore.ZeroCoef>
-5.4800

> <Gold.Chemscore.Hbond>
1.4586

> <Gold.Chemscore.Metal>
0.0000

> <Gold.Chemscore.Lipo>
118.8809

> <Gold.Chemscore.Internal_Hbond>
0.0000

> <Gold.Chemscore.DEClash>
0.2267

> <Gold.Chemscore.DEInternal>
0.5398

> <Gold.Chemscore.Rot>
1.8251

> <Gold.Chemscore.Internal.Correction>
   9.000000E+99

> <Gold.Chemscore.Hbonds>
donor molecule, donor type, donor heavy atom, donor atom, acceptor molecule, acceptor atom, score
      P1  H  6896  6907       L1    18  0.07
      P1  H  6896  6908       L1    10  0.93

> <Gold.Chemscore.Hbond.Weighted>
-4.8718

> <Gold.Chemscore.Metal.Weighted>
-0.0000

> <Gold.Chemscore.Lipo.Weighted>
-13.9091

> <Gold.Chemscore.Internal_Hbond.Weighted>
0.0000

> <Gold.Chemscore.DEClash.Weighted>
0.2267

> <Gold.Chemscore.DEInternal.Weighted>
0.5398

> <Gold.Chemscore.Rot.Weighted>
4.6724

> <Gold.Chemscore.Internal.Correction.Weighted>
   9.000000E+99

> <Gold.Protein.RotatedTorsions>
[ 6907 6896 6895 6894 ] final -110.22 input  -60.11 | X-H torsion
[ 7974 7965 7964 7962 ] final  176.18 input  175.53 | X-H torsion
[ 8008 7997 7996 7995 ] final   43.65 input   59.86 | X-H torsion
[ 10167 10162 10161 10158 ] final -127.45 input  -65.29 | X-H torsion
[ 10718 10713 10712 10709 ] final  166.94 input   66.30 | X-H torsion
[ 10763 10752 10751 10750 ] final  109.45 input  -60.55 | X-H torsion
[ 11005 11000 10999 10996 ] final  -28.07 input  -57.11 | X-H torsion

> <Gold.Protein.ActiveResidues>
 VAL166  LYS551  ARG553  GLY616  TRP617  ASP618  TYR619  PRO620  LYS621  CYS622 
 ASP623  PHE694  ASN695  SER759  ASP760  ASP761  ALA762  ILE779  LEU786  VAL792 
 PHE793  MET794  SER795  GLU796  ALA797  LYS798  CYS799  TRP800  GLU811  SER814 

> <Gold.Protein.RotatedAtoms>
  150.7611  133.9414  159.3456 H   0  0  0  0  0  0  0  0  0  0  0  0  # atno 6907 bound_to 6896
  151.7322  135.0870  160.0311 H   0  0  0  0  0  0  0  0  0  0  0  0  # atno 6908 bound_to 6896
  152.3582  133.6226  159.6031 H   0  0  0  0  0  0  0  0  0  0  0  0  # atno 6909 bound_to 6896
  144.7188  140.0058  143.6440 H   0  0  0  0  0  0  0  0  0  0  0  0  # atno 7974 bound_to 7965
  155.3062  140.3388  155.4245 H   0  0  0  0  0  0  0  0  0  0  0  0  # atno 8008 bound_to 7997
  156.1978  140.1721  156.8001 H   0  0  0  0  0  0  0  0  0  0  0  0  # atno 8009 bound_to 7997
  154.5520  140.0704  156.8667 H   0  0  0  0  0  0  0  0  0  0  0  0  # atno 8010 bound_to 7997
  139.9607  143.5953  152.2446 H   0  0  0  0  0  0  0  0  0  0  0  0  # atno 10167 bound_to 10162
  157.0587  131.0334  151.2655 H   0  0  0  0  0  0  0  0  0  0  0  0  # atno 10718 bound_to 10713
  153.4349  135.3780  155.2193 H   0  0  0  0  0  0  0  0  0  0  0  0  # atno 10763 bound_to 10752
  154.8751  135.3849  154.4223 H   0  0  0  0  0  0  0  0  0  0  0  0  # atno 10764 bound_to 10752
  153.4761  135.7087  153.6028 H   0  0  0  0  0  0  0  0  0  0  0  0  # atno 10765 bound_to 10752
  140.9175  133.7420  156.0756 H   0  0  0  0  0  0  0  0  0  0  0  0  # atno 11005 bound_to 11000
  146.0299  139.3325  143.0762 LP  0  0  0  0  0  0  0  0  0  0  0  0  # atno 17320 bound_to 7965
  145.8466  140.9552  143.0771 LP  0  0  0  0  0  0  0  0  0  0  0  0  # atno 17321 bound_to 7965
  139.6556  144.7662  151.2062 LP  0  0  0  0  0  0  0  0  0  0  0  0  # atno 17342 bound_to 10162
  140.7554  143.6091  150.8623 LP  0  0  0  0  0  0  0  0  0  0  0  0  # atno 17343 bound_to 10162
  157.4972  130.7858  149.7567 LP  0  0  0  0  0  0  0  0  0  0  0  0  # atno 17370 bound_to 10713
  155.9985  130.3894  150.2699 LP  0  0  0  0  0  0  0  0  0  0  0  0  # atno 17371 bound_to 10713
  140.8030  134.3487  157.5434 LP  0  0  0  0  0  0  0  0  0  0  0  0  # atno 17394 bound_to 11000
  139.8769  134.9209  156.3262 LP  0  0  0  0  0  0  0  0  0  0  0  0  # atno 17395 bound_to 11000

$$$$
