AV-unprocessed.smi:2542|AV-procd|sdf|9992|dock10
  -GOLD-   2272014 43D 1   1.00000     0.00000
 Structure written by MMmdl.
 42 43  0  0  0  0  0  0  0  0  2 V2000
  149.6808  139.3595  157.2161 C   0  0  0  0  0  0  0  0  0  0  0  0
  150.0218  139.9098  155.8153 C   0  0  0  0  0  0  0  0  0  0  0  0
  150.9214  141.1520  156.0270 C   0  0  0  0  0  0  0  0  0  0  0  0
  150.8304  138.8346  155.0392 C   0  0  0  0  0  0  0  0  0  0  0  0
  150.2177  137.5099  155.1171 N   0  0  0  0  0  0  0  0  0  0  0  0
  150.8555  136.3553  155.3705 C   0  0  0  0  0  0  0  0  0  0  0  0
  152.0563  136.3080  155.6396 O   0  0  0  0  0  0  0  0  0  0  0  0
  150.0210  135.0580  155.2947 C   0  0  0  0  0  0  0  0  0  0  0  0
  150.0153  134.3208  156.5759 C   0  0  0  0  0  0  0  0  0  0  0  0
  150.0125  133.7410  157.5782 N   0  0  0  0  0  0  0  0  0  0  0  0
  148.5694  135.3346  154.8605 C   0  0  0  0  0  0  0  0  0  0  0  0
  148.0640  134.0190  154.2580 C   0  0  0  0  0  0  0  0  0  0  0  0
  149.3127  133.2624  153.7860 C   0  0  0  0  0  0  0  0  0  0  0  0
  150.5121  134.1419  154.1607 C   0  0  0  0  0  0  0  0  0  0  0  0
  148.7183  140.2440  155.0610 C   0  0  0  0  0  0  0  0  0  0  0  0
  148.4265  141.5452  154.5750 C   0  0  0  0  0  0  0  0  0  0  0  0
  147.2286  141.7780  153.8693 C   0  0  0  0  0  0  0  0  0  0  0  0
  146.3625  140.7655  153.6578 N   0  3  0  0  0  0  0  0  0  0  0  0
  146.5888  139.5111  154.0996 C   0  0  0  0  0  0  0  0  0  0  0  0
  147.7701  139.2205  154.8108 C   0  0  0  0  0  0  0  0  0  0  0  0
  150.5846  139.1337  157.7836 H   0  0  0  0  0  0  0  0  0  0  0  0
  149.0984  138.4394  157.1668 H   0  0  0  0  0  0  0  0  0  0  0  0
  149.1036  140.0815  157.7951 H   0  0  0  0  0  0  0  0  0  0  0  0
  151.8386  140.8883  156.5550 H   0  0  0  0  0  0  0  0  0  0  0  0
  150.4197  141.9152  156.6230 H   0  0  0  0  0  0  0  0  0  0  0  0
  151.2220  141.6102  155.0846 H   0  0  0  0  0  0  0  0  0  0  0  0
  150.9844  139.1410  154.0031 H   0  0  0  0  0  0  0  0  0  0  0  0
  151.8306  138.7402  155.4629 H   0  0  0  0  0  0  0  0  0  0  0  0
  149.2285  137.4615  154.9191 H   0  0  0  0  0  0  0  0  0  0  0  0
  147.9435  135.6644  155.6908 H   0  0  0  0  0  0  0  0  0  0  0  0
  148.5217  136.1110  154.0953 H   0  0  0  0  0  0  0  0  0  0  0  0
  147.5442  133.4337  155.0175 H   0  0  0  0  0  0  0  0  0  0  0  0
  147.3604  134.1965  153.4440 H   0  0  0  0  0  0  0  0  0  0  0  0
  149.3754  132.2998  154.2950 H   0  0  0  0  0  0  0  0  0  0  0  0
  149.2876  133.0632  152.7142 H   0  0  0  0  0  0  0  0  0  0  0  0
  150.8120  134.7257  153.2885 H   0  0  0  0  0  0  0  0  0  0  0  0
  151.3735  133.5417  154.4572 H   0  0  0  0  0  0  0  0  0  0  0  0
  149.0994  142.3757  154.7225 H   0  0  0  0  0  0  0  0  0  0  0  0
  146.9408  142.7388  153.4679 H   0  0  0  0  0  0  0  0  0  0  0  0
  145.8254  138.7823  153.8697 H   0  0  0  0  0  0  0  0  0  0  0  0
  147.9434  138.2111  155.1532 H   0  0  0  0  0  0  0  0  0  0  0  0
  145.5028  140.9560  153.1424 H   0  0  0  0  0  0  0  0  0  0  0  0
  1  2  1  0  0  0  0
  1 21  1  0  0  0  0
  1 22  1  0  0  0  0
  1 23  1  0  0  0  0
  2  3  1  0  0  0  0
  2  4  1  0  0  0  0
  2 15  1  0  0  0  0
  3 24  1  0  0  0  0
  3 25  1  0  0  0  0
  3 26  1  0  0  0  0
  4  5  1  0  0  0  0
  4 27  1  0  0  0  0
  4 28  1  0  0  0  0
  5  6  1  0  0  0  0
  5 29  1  0  0  0  0
  6  7  2  0  0  0  0
  6  8  1  0  0  0  0
  8 14  1  0  0  0  0
  8  9  1  0  0  0  0
  8 11  1  0  0  0  0
  9 10  3  0  0  0  0
 11 12  1  0  0  0  0
 11 30  1  0  0  0  0
 11 31  1  0  0  0  0
 12 13  1  0  0  0  0
 12 32  1  0  0  0  0
 12 33  1  0  0  0  0
 13 14  1  0  0  0  0
 13 34  1  0  0  0  0
 13 35  1  0  0  0  0
 14 36  1  0  0  0  0
 14 37  1  0  0  0  0
 15 20  1  0  0  0  0
 15 16  2  0  0  0  0
 16 17  1  0  0  0  0
 16 38  1  0  0  0  0
 17 18  2  0  0  0  0
 17 39  1  0  0  0  0
 18 19  1  0  0  0  0
 18 42  1  0  0  0  0
 19 20  2  0  0  0  0
 19 40  1  0  0  0  0
 20 41  1  0  0  0  0
M  CHG  1  18   1
M  END
> <s_m_source_file>
AV-unprocessed.smi

> <i_m_source_file_index>
2542

> <i_lp_mmshare_version>
43012

> <i_f3d_flags>
0

> <s_epik_input>
W2NIXTFbY0hdbltjSF1bY0hdYzFDKFtDSDNdKShbQ0gzXSlbQ0gyXVtOSF1DKD1PKUMyKEMjTilbQ0gyXVtDSDJdW0NIMl1bQ0gyXTI=

> <s_epik_cmdline>
J2VwaWtfcHl0aG9uJywgJy1waCcsICc3LjAnLCAnLXRuJywgJzgnLCAnLW1hJywgJzIwMCcsICctbWV0YWxfYmluZGluZycsICctaW1hZScsICc8aW5maWxlLm1hZT4nLCAnLW9tYWUnLCAnPG91dGZpbGUubWFlPic=

> <r_epik_Ionization_Penalty>
1.51272

> <r_epik_Ionization_Penalty_Charging>
1.51272

> <r_epik_Ionization_Penalty_Neutral>
6.26824e-07

> <r_epik_State_Penalty>
1.60388

> <r_epik_Charging_Adjusted_Penalty>
3.1166

> <i_epik_Tot_Q>
1

> <i_epik_Tot_abs_Q>
1

> <r_epik_Metal_State_Penalty>
1.64935

> <b_epik_Metal_Only>
0

> <s_lp_Force_Field>
OPLS_2005

> <r_lp_Energy>
37.2322

> <b_lp_Chiralities_Consistent>
1

> <s_lp_Variant>
AV-unprocessed.smi:2542-2

> <Gold.Version>
5.8.1

> <Gold.Id.Protein>
6NUR|6NUR_protein|mol2

> <Gold.PLP.Fitness>
39.9118

> <Gold.PLP.PLP>
-28.6657

> <Gold.PLP.part.hbond>
-3.0000

> <Gold.PLP.part.metal>
0.0000

> <Gold.PLP.part.buried>
-5.5086

> <Gold.PLP.part.nonpolar>
-20.5309

> <Gold.PLP.part.repulsive>
0.0836

> <Gold.PLP.ligand.clash>
0.3145

> <Gold.PLP.ligand.torsion>
0.2556

> <Gold.PLP.Chemscore.Hbond>
4.0000

> <Gold.PLP.Chemscore.CHOScore>
0.0000

> <Gold.PLP.Chemscore.Metal>
0.0000

> <Gold.Chemscore.Hbonds>
donor molecule, donor type, donor heavy atom, donor atom, acceptor molecule, acceptor atom, score
      L1  H    18    42       P1 10175  2.00
      P1  H  6896  6907       L1    10  1.00
      P1  H 10752 10765       L1     7  0.91

> <Gold.PLP.Chemscore.Internal.Correction>
0.0718

> <Gold.Rescore>
     Score         DG    S(hbond)    S(metal)    S(lipo)     H(rot)  DE(clash)    DE(int)     intcor
     17.11     -18.78       2.87        0.00      65.97       1.56       0.03       1.64       ----

> <Gold.Chemscore.Fitness>
17.1071

> <Gold.Chemscore.DG>
-18.7766

> <Gold.Chemscore.ZeroCoef>
-5.4800

> <Gold.Chemscore.Hbond>
2.8696

> <Gold.Chemscore.Metal>
0.0000

> <Gold.Chemscore.Lipo>
65.9681

> <Gold.Chemscore.Internal_Hbond>
0.0000

> <Gold.Chemscore.DEClash>
0.0251

> <Gold.Chemscore.DEInternal>
1.6445

> <Gold.Chemscore.Rot>
1.5649

> <Gold.Chemscore.Internal.Correction>
   9.000000E+99

> <Gold.Chemscore.Hbonds>
donor molecule, donor type, donor heavy atom, donor atom, acceptor molecule, acceptor atom, score
      L1  H    18    42       P1 10175  0.43
      P1  H  6896  6907       L1    10  0.95
      P1  H 10752 10765       L1     7  0.85

> <Gold.Chemscore.Hbond.Weighted>
-9.5845

> <Gold.Chemscore.Metal.Weighted>
-0.0000

> <Gold.Chemscore.Lipo.Weighted>
-7.7183

> <Gold.Chemscore.Internal_Hbond.Weighted>
0.0000

> <Gold.Chemscore.DEClash.Weighted>
0.0251

> <Gold.Chemscore.DEInternal.Weighted>
1.6445

> <Gold.Chemscore.Rot.Weighted>
4.0061

> <Gold.Chemscore.Internal.Correction.Weighted>
   9.000000E+99

> <Gold.Protein.RotatedTorsions>
[ 6907 6896 6895 6894 ] final -129.46 input  -60.11 | X-H torsion
[ 7974 7965 7964 7962 ] final   37.11 input  175.53 | X-H torsion
[ 8008 7997 7996 7995 ] final   22.18 input   59.86 | X-H torsion
[ 10167 10162 10161 10158 ] final   82.28 input  -65.29 | X-H torsion
[ 10718 10713 10712 10709 ] final   49.17 input   66.30 | X-H torsion
[ 10763 10752 10751 10750 ] final -174.65 input  -60.55 | X-H torsion
[ 11005 11000 10999 10996 ] final   71.25 input  -57.11 | X-H torsion

> <Gold.Protein.ActiveResidues>
 VAL166  LYS551  ARG553  GLY616  TRP617  ASP618  TYR619  PRO620  LYS621  CYS622 
 ASP623  PHE694  ASN695  SER759  ASP760  ASP761  ALA762  ILE779  LEU786  VAL792 
 PHE793  MET794  SER795  GLU796  ALA797  LYS798  CYS799  TRP800  GLU811  SER814 

> <Gold.Protein.RotatedAtoms>
  150.9290  133.6790  159.2814 H   0  0  0  0  0  0  0  0  0  0  0  0  # atno 6907 bound_to 6896
  151.4218  135.0997  159.9626 H   0  0  0  0  0  0  0  0  0  0  0  0  # atno 6908 bound_to 6896
  152.5016  133.8740  159.7367 H   0  0  0  0  0  0  0  0  0  0  0  0  # atno 6909 bound_to 6896
  146.1161  139.5934  142.9320 H   0  0  0  0  0  0  0  0  0  0  0  0  # atno 7974 bound_to 7965
  154.9618  140.3079  155.5027 H   0  0  0  0  0  0  0  0  0  0  0  0  # atno 8008 bound_to 7997
  156.2976  140.2300  156.4642 H   0  0  0  0  0  0  0  0  0  0  0  0  # atno 8009 bound_to 7997
  154.7958  140.0437  157.1224 H   0  0  0  0  0  0  0  0  0  0  0  0  # atno 8010 bound_to 7997
  139.9305  144.6155  150.8350 H   0  0  0  0  0  0  0  0  0  0  0  0  # atno 10167 bound_to 10162
  157.4760  130.8285  149.8039 H   0  0  0  0  0  0  0  0  0  0  0  0  # atno 10718 bound_to 10713
  154.5937  135.2847  155.0608 H   0  0  0  0  0  0  0  0  0  0  0  0  # atno 10763 bound_to 10752
  154.1899  135.6442  153.5061 H   0  0  0  0  0  0  0  0  0  0  0  0  # atno 10764 bound_to 10752
  153.0131  135.5444  154.6632 H   0  0  0  0  0  0  0  0  0  0  0  0  # atno 10765 bound_to 10752
  139.9554  134.7154  156.0766 H   0  0  0  0  0  0  0  0  0  0  0  0  # atno 11005 bound_to 11000
  145.5563  141.0408  143.2251 LP  0  0  0  0  0  0  0  0  0  0  0  0  # atno 17320 bound_to 7965
  144.7555  139.7086  143.7256 LP  0  0  0  0  0  0  0  0  0  0  0  0  # atno 17321 bound_to 7965
  140.7639  143.3234  151.2571 LP  0  0  0  0  0  0  0  0  0  0  0  0  # atno 17342 bound_to 10162
  139.6786  143.9893  152.2796 LP  0  0  0  0  0  0  0  0  0  0  0  0  # atno 17343 bound_to 10162
  156.0097  130.3839  150.2308 LP  0  0  0  0  0  0  0  0  0  0  0  0  # atno 17370 bound_to 10713
  157.0492  131.0058  151.3259 LP  0  0  0  0  0  0  0  0  0  0  0  0  # atno 17371 bound_to 10713
  141.1224  133.6609  156.3249 LP  0  0  0  0  0  0  0  0  0  0  0  0  # atno 17394 bound_to 11000
  140.5622  134.5923  157.5436 LP  0  0  0  0  0  0  0  0  0  0  0  0  # atno 17395 bound_to 11000

$$$$
