AV-unprocessed.smi:3335|AV-procd|sdf|12852|dock10
  -GOLD-   2272019243D 1   1.00000     0.00000
 Structure written by MMmdl.
 46 47  0  0  0  0  0  0  0  0  1 V2000
  152.0862  142.6484  159.3814 C   0  0  0  0  0  0  0  0  0  0  0  0
  152.0970  141.3526  158.6231 C   0  0  0  0  0  0  0  0  0  0  0  0
  153.1611  140.4136  158.5080 C   0  0  0  0  0  0  0  0  0  0  0  0
  152.8457  139.3684  157.7615 N   0  0  0  0  0  0  0  0  0  0  0  0
  151.5706  139.5985  157.3748 N   0  0  0  0  0  0  0  0  0  0  0  0
  150.8747  138.6419  156.5227 C   0  0  1  0  0  0  0  0  0  0  0  0
  151.6942  138.3877  155.2420 C   0  0  0  0  0  0  0  0  0  0  0  0
  150.5252  137.3293  157.2754 C   0  0  1  0  0  0  0  0  0  0  0  0
  151.7648  136.5947  157.8293 C   0  0  0  0  0  0  0  0  0  0  0  0
  149.6411  137.6713  158.3923 N   0  0  0  0  0  0  0  0  0  0  0  0
  148.3414  136.9712  158.4162 C   0  0  1  0  0  0  0  0  0  0  0  0
  147.7616  136.9264  156.9941 C   0  0  0  0  0  0  0  0  0  0  0  0
  148.4351  135.5373  158.9854 C   0  0  0  0  0  0  0  0  0  0  0  0
  149.0977  134.6985  158.3717 O   0  0  0  0  0  0  0  0  0  0  0  0
  147.7948  135.2342  160.1353 N   0  0  0  0  0  0  0  0  0  0  0  0
  146.9828  136.1996  160.8748 C   0  0  0  0  0  0  0  0  0  0  0  0
  146.2686  135.3985  161.9634 C   0  0  0  0  0  0  0  0  0  0  0  0
  147.1731  134.1963  162.1925 C   0  0  0  0  0  0  0  0  0  0  0  0
  147.8134  133.9452  160.8273 C   0  0  0  0  0  0  0  0  0  0  0  0
  151.0972  140.7914  157.8805 C   0  0  0  0  0  0  0  0  0  0  0  0
  153.0097  142.7992  159.9411 H   0  0  0  0  0  0  0  0  0  0  0  0
  151.2663  142.6871  160.0987 H   0  0  0  0  0  0  0  0  0  0  0  0
  151.9711  143.5029  158.7145 H   0  0  0  0  0  0  0  0  0  0  0  0
  154.1488  140.4609  158.9426 H   0  0  0  0  0  0  0  0  0  0  0  0
  149.9399  139.1205  156.2253 H   0  0  0  0  0  0  0  0  0  0  0  0
  151.1431  137.7758  154.5279 H   0  0  0  0  0  0  0  0  0  0  0  0
  152.6308  137.8739  155.4613 H   0  0  0  0  0  0  0  0  0  0  0  0
  151.9389  139.3255  154.7422 H   0  0  0  0  0  0  0  0  0  0  0  0
  150.0238  136.6682  156.5683 H   0  0  0  0  0  0  0  0  0  0  0  0
  152.4393  136.2854  157.0311 H   0  0  0  0  0  0  0  0  0  0  0  0
  151.4948  135.6885  158.3704 H   0  0  0  0  0  0  0  0  0  0  0  0
  152.3296  137.2318  158.5107 H   0  0  0  0  0  0  0  0  0  0  0  0
  149.5042  138.6721  158.4089 H   0  0  0  0  0  0  0  0  0  0  0  0
  147.6619  137.5664  159.0227 H   0  0  0  0  0  0  0  0  0  0  0  0
  146.7829  136.4456  156.9776 H   0  0  0  0  0  0  0  0  0  0  0  0
  148.4127  136.3773  156.3124 H   0  0  0  0  0  0  0  0  0  0  0  0
  147.6359  137.9324  156.5925 H   0  0  0  0  0  0  0  0  0  0  0  0
  147.6393  136.9492  161.3194 H   0  0  0  0  0  0  0  0  0  0  0  0
  146.2684  136.7142  160.2298 H   0  0  0  0  0  0  0  0  0  0  0  0
  146.0957  135.9779  162.8708 H   0  0  0  0  0  0  0  0  0  0  0  0
  145.2999  135.0604  161.5932 H   0  0  0  0  0  0  0  0  0  0  0  0
  147.9468  134.4546  162.9166 H   0  0  0  0  0  0  0  0  0  0  0  0
  146.6357  133.3276  162.5736 H   0  0  0  0  0  0  0  0  0  0  0  0
  147.2230  133.2263  160.2573 H   0  0  0  0  0  0  0  0  0  0  0  0
  148.8234  133.5487  160.9392 H   0  0  0  0  0  0  0  0  0  0  0  0
  150.0961  141.1394  157.6731 H   0  0  0  0  0  0  0  0  0  0  0  0
  1  2  1  0  0  0  0
  1 21  1  0  0  0  0
  1 22  1  0  0  0  0
  1 23  1  0  0  0  0
  2 20  2  0  0  0  0
  2  3  1  0  0  0  0
  3  4  2  0  0  0  0
  3 24  1  0  0  0  0
  4  5  1  0  0  0  0
  5  6  1  0  0  0  0
  5 20  1  0  0  0  0
  6  7  1  0  0  0  0
  6  8  1  0  0  0  0
  6 25  1  0  0  0  0
  7 26  1  0  0  0  0
  7 27  1  0  0  0  0
  7 28  1  0  0  0  0
  8  9  1  0  0  0  0
  8 10  1  0  0  0  0
  8 29  1  0  0  0  0
  9 30  1  0  0  0  0
  9 31  1  0  0  0  0
  9 32  1  0  0  0  0
 10 11  1  0  0  0  0
 10 33  1  0  0  0  0
 11 12  1  0  0  0  0
 11 13  1  0  0  0  0
 11 34  1  0  0  0  0
 12 35  1  0  0  0  0
 12 36  1  0  0  0  0
 12 37  1  0  0  0  0
 13 14  2  0  0  0  0
 13 15  1  0  0  0  0
 15 19  1  0  0  0  0
 15 16  1  0  0  0  0
 16 17  1  0  0  0  0
 16 38  1  0  0  0  0
 16 39  1  0  0  0  0
 17 18  1  0  0  0  0
 17 40  1  0  0  0  0
 17 41  1  0  0  0  0
 18 19  1  0  0  0  0
 18 42  1  0  0  0  0
 18 43  1  0  0  0  0
 19 44  1  0  0  0  0
 19 45  1  0  0  0  0
 20 46  1  0  0  0  0
M  END
> <s_m_source_file>
AV-unprocessed.smi

> <i_m_source_file_index>
3335

> <i_lp_mmshare_version>
43012

> <i_f3d_flags>
0

> <s_epik_input>
W0NIM11jMVtjSF1ubihbY0hdMSlbQ0BIXShbQ0gzXSlbQ0BIXShbQ0gzXSlbTkhdW0NASF0oW0NIM10pQyg9TylOMltDSDJdW0NIMl1bQ0gyXVtDSDJdMg==

> <s_epik_cmdline>
J2VwaWtfcHl0aG9uJywgJy1waCcsICc3LjAnLCAnLXRuJywgJzgnLCAnLW1hJywgJzIwMCcsICctbWV0YWxfYmluZGluZycsICctaW1hZScsICc8aW5maWxlLm1hZT4nLCAnLW9tYWUnLCAnPG91dGZpbGUubWFlPic=

> <r_lp_tautomer_probability>
1

> <r_epik_Ionization_Penalty>
0.918803

> <r_epik_Ionization_Penalty_Charging>
0

> <r_epik_Ionization_Penalty_Neutral>
0.918803

> <r_epik_State_Penalty>
0.958258

> <r_epik_Charging_Adjusted_Penalty>
0.958258

> <i_epik_Tot_Q>
0

> <i_epik_Tot_abs_Q>
0

> <r_epik_Metal_State_Penalty>
0.956786

> <b_epik_Metal_Only>
0

> <s_lp_Force_Field>
OPLS_2005

> <r_lp_Energy>
36.4187

> <b_lp_Chiralities_Consistent>
1

> <s_lp_Variant>
AV-unprocessed.smi:3335-16

> <Gold.Version>
5.8.1

> <Gold.Id.Protein>
6NUR|6NUR_protein|mol2

> <Gold.PLP.Fitness>
41.5322

> <Gold.PLP.PLP>
-37.5718

> <Gold.PLP.part.hbond>
-2.5466

> <Gold.PLP.part.metal>
0.0000

> <Gold.PLP.part.buried>
-4.8241

> <Gold.PLP.part.nonpolar>
-29.9297

> <Gold.PLP.part.repulsive>
0.0000

> <Gold.PLP.ligand.clash>
0.0000

> <Gold.PLP.ligand.torsion>
1.0756

> <Gold.PLP.Chemscore.Hbond>
2.0000

> <Gold.PLP.Chemscore.CHOScore>
0.0000

> <Gold.PLP.Chemscore.Metal>
0.0000

> <Gold.Chemscore.Hbonds>
donor molecule, donor type, donor heavy atom, donor atom, acceptor molecule, acceptor atom, score
      P1  H  6896  6907       L1    14  1.00

> <Gold.PLP.Chemscore.Internal.Correction>
0.1117

> <Gold.Rescore>
     Score         DG    S(hbond)    S(metal)    S(lipo)     H(rot)  DE(clash)    DE(int)     intcor
     15.25     -17.42       1.58        0.00      92.49       1.62       0.02       2.16       ----

> <Gold.Chemscore.Fitness>
15.2467

> <Gold.Chemscore.DG>
-17.4223

> <Gold.Chemscore.ZeroCoef>
-5.4800

> <Gold.Chemscore.Hbond>
1.5775

> <Gold.Chemscore.Metal>
0.0000

> <Gold.Chemscore.Lipo>
92.4917

> <Gold.Chemscore.Internal_Hbond>
0.0000

> <Gold.Chemscore.DEClash>
0.0180

> <Gold.Chemscore.DEInternal>
2.1577

> <Gold.Chemscore.Rot>
1.6204

> <Gold.Chemscore.Internal.Correction>
   9.000000E+99

> <Gold.Chemscore.Hbonds>
donor molecule, donor type, donor heavy atom, donor atom, acceptor molecule, acceptor atom, score
      P1  H  6896  6907       L1    14  0.70

> <Gold.Chemscore.Hbond.Weighted>
-5.2690

> <Gold.Chemscore.Metal.Weighted>
-0.0000

> <Gold.Chemscore.Lipo.Weighted>
-10.8215

> <Gold.Chemscore.Internal_Hbond.Weighted>
0.0000

> <Gold.Chemscore.DEClash.Weighted>
0.0180

> <Gold.Chemscore.DEInternal.Weighted>
2.1577

> <Gold.Chemscore.Rot.Weighted>
4.1482

> <Gold.Chemscore.Internal.Correction.Weighted>
   9.000000E+99

> <Gold.Protein.RotatedTorsions>
[ 6907 6896 6895 6894 ] final  -91.22 input  -60.11 | X-H torsion
[ 7974 7965 7964 7962 ] final   62.02 input  175.53 | X-H torsion
[ 8008 7997 7996 7995 ] final  -90.70 input   59.86 | X-H torsion
[ 10167 10162 10161 10158 ] final -144.62 input  -65.29 | X-H torsion
[ 10718 10713 10712 10709 ] final -123.33 input   66.30 | X-H torsion
[ 10763 10752 10751 10750 ] final  -56.94 input  -60.55 | X-H torsion
[ 11005 11000 10999 10996 ] final -111.86 input  -57.11 | X-H torsion

> <Gold.Protein.ActiveResidues>
 VAL166  LYS551  ARG553  GLY616  TRP617  ASP618  TYR619  PRO620  LYS621  CYS622 
 ASP623  PHE694  ASN695  SER759  ASP760  ASP761  ALA762  ILE779  LEU786  VAL792 
 PHE793  MET794  SER795  GLU796  ALA797  LYS798  CYS799  TRP800  GLU811  SER814 

> <Gold.Protein.RotatedAtoms>
  150.6890  134.2311  159.4434 H   0  0  0  0  0  0  0  0  0  0  0  0  # atno 6907 bound_to 6896
  152.0261  134.9792  160.0581 H   0  0  0  0  0  0  0  0  0  0  0  0  # atno 6908 bound_to 6896
  152.1350  133.4395  159.4776 H   0  0  0  0  0  0  0  0  0  0  0  0  # atno 6909 bound_to 6896
  145.8781  139.3424  143.0722 H   0  0  0  0  0  0  0  0  0  0  0  0  # atno 7974 bound_to 7965
  154.7017  140.0527  157.0465 H   0  0  0  0  0  0  0  0  0  0  0  0  # atno 8008 bound_to 7997
  155.0675  140.3196  155.4622 H   0  0  0  0  0  0  0  0  0  0  0  0  # atno 8009 bound_to 7997
  156.2762  140.2087  156.5803 H   0  0  0  0  0  0  0  0  0  0  0  0  # atno 8010 bound_to 7997
  139.7882  143.8003  152.2647 H   0  0  0  0  0  0  0  0  0  0  0  0  # atno 10167 bound_to 10162
  156.1493  130.6523  150.9889 H   0  0  0  0  0  0  0  0  0  0  0  0  # atno 10718 bound_to 10713
  154.2146  135.6388  153.5126 H   0  0  0  0  0  0  0  0  0  0  0  0  # atno 10763 bound_to 10752
  152.9982  135.5482  154.6178 H   0  0  0  0  0  0  0  0  0  0  0  0  # atno 10764 bound_to 10752
  154.5624  135.2910  155.0880 H   0  0  0  0  0  0  0  0  0  0  0  0  # atno 10765 bound_to 10752
  141.0709  133.9381  157.2486 H   0  0  0  0  0  0  0  0  0  0  0  0  # atno 11005 bound_to 11000
  145.9057  140.9214  143.0480 LP  0  0  0  0  0  0  0  0  0  0  0  0  # atno 17320 bound_to 7965
  144.6726  140.1092  143.7456 LP  0  0  0  0  0  0  0  0  0  0  0  0  # atno 17321 bound_to 7965
  139.8087  144.7345  150.9727 LP  0  0  0  0  0  0  0  0  0  0  0  0  # atno 17342 bound_to 10162
  140.7820  143.4273  151.0749 LP  0  0  0  0  0  0  0  0  0  0  0  0  # atno 17343 bound_to 10162
  157.6643  131.0874  150.7764 LP  0  0  0  0  0  0  0  0  0  0  0  0  # atno 17370 bound_to 10713
  156.7834  130.4866  149.5397 LP  0  0  0  0  0  0  0  0  0  0  0  0  # atno 17371 bound_to 10713
  139.9523  135.0173  156.9028 LP  0  0  0  0  0  0  0  0  0  0  0  0  # atno 17394 bound_to 11000
  140.5675  134.0475  155.7419 LP  0  0  0  0  0  0  0  0  0  0  0  0  # atno 17395 bound_to 11000

$$$$
