AV-unprocessed.smi:2510|AV-procd|sdf|9883|dock1
  -GOLD-   2272013513D 1   1.00000     0.00000
 Structure written by MMmdl.
 48 49  0  0  0  0  0  0  0  0  1 V2000
  151.8931  144.0425  159.1275 C   0  0  0  0  0  0  0  0  0  0  0  0
  151.5695  143.6899  157.6656 C   0  0  0  0  0  0  0  0  0  0  0  0
  150.9929  142.2787  157.3948 C   0  0  0  0  0  0  0  0  0  0  0  0
  149.6380  142.1914  158.1547 C   0  0  0  0  0  0  0  0  0  0  0  0
  148.8551  140.8722  158.0090 C   0  0  0  0  0  0  0  0  0  0  0  0
  150.9636  141.7976  155.9126 C   0  0  2  0  0  0  0  0  0  0  0  0
  149.6475  141.8713  155.2844 N   0  0  0  0  0  0  0  0  0  0  0  0
  149.1230  140.9273  154.4900 C   0  0  0  0  0  0  0  0  0  0  0  0
  149.7181  139.8891  154.1968 O   0  0  0  0  0  0  0  0  0  0  0  0
  147.7122  141.2137  153.9619 C   0  0  0  0  0  0  0  0  0  0  0  0
  147.0955  140.0391  153.2676 C   0  0  0  0  0  0  0  0  0  0  0  0
  146.3687  138.9851  153.7470 C   0  0  0  0  0  0  0  0  0  0  0  0
  146.0755  138.2034  152.5912 C   0  0  0  0  0  0  0  0  0  0  0  0
  145.2986  136.9226  152.5108 C   0  0  0  0  0  0  0  0  0  0  0  0
  146.5807  138.7276  151.4846 N   0  0  0  0  0  0  0  0  0  0  0  0
  147.1999  139.8447  151.9087 N   0  0  0  0  0  0  0  0  0  0  0  0
  151.3350  140.3818  156.3730 C   0  0  1  0  0  0  0  0  0  0  0  0
  152.1951  139.5145  155.4611 C   0  0  0  0  0  0  0  0  0  0  0  0
  151.9727  141.0849  157.5823 C   0  0  2  0  0  0  0  0  0  0  0  0
  151.8081  140.4042  158.8169 O   0  0  0  0  0  0  0  0  0  0  0  0
  152.7733  139.3918  159.0404 C   0  0  0  0  0  0  0  0  0  0  0  0
  147.6804  140.4599  151.2674 H   0  0  0  0  0  0  0  0  0  0  0  0
  152.1962  145.0868  159.2046 H   0  0  0  0  0  0  0  0  0  0  0  0
  152.7195  143.4455  159.5132 H   0  0  0  0  0  0  0  0  0  0  0  0
  151.0344  143.9074  159.7840 H   0  0  0  0  0  0  0  0  0  0  0  0
  150.8640  144.4398  157.3067 H   0  0  0  0  0  0  0  0  0  0  0  0
  152.4805  143.8404  157.0849 H   0  0  0  0  0  0  0  0  0  0  0  0
  149.8011  142.3597  159.2199 H   0  0  0  0  0  0  0  0  0  0  0  0
  148.9767  142.9984  157.8394 H   0  0  0  0  0  0  0  0  0  0  0  0
  147.8892  140.9499  158.5082 H   0  0  0  0  0  0  0  0  0  0  0  0
  149.3797  140.0344  158.4676 H   0  0  0  0  0  0  0  0  0  0  0  0
  148.6602  140.6155  156.9691 H   0  0  0  0  0  0  0  0  0  0  0  0
  151.7606  142.2154  155.2959 H   0  0  0  0  0  0  0  0  0  0  0  0
  149.0964  142.6959  155.4734 H   0  0  0  0  0  0  0  0  0  0  0  0
  147.0814  141.5235  154.7963 H   0  0  0  0  0  0  0  0  0  0  0  0
  147.7587  142.0602  153.2757 H   0  0  0  0  0  0  0  0  0  0  0  0
  146.0864  138.8002  154.7730 H   0  0  0  0  0  0  0  0  0  0  0  0
  144.9396  136.6166  153.4937 H   0  0  0  0  0  0  0  0  0  0  0  0
  145.9142  136.1139  152.1164 H   0  0  0  0  0  0  0  0  0  0  0  0
  144.4305  137.0298  151.8598 H   0  0  0  0  0  0  0  0  0  0  0  0
  150.4427  139.8389  156.6900 H   0  0  0  0  0  0  0  0  0  0  0  0
  153.1154  140.0255  155.1777 H   0  0  0  0  0  0  0  0  0  0  0  0
  151.6637  139.2623  154.5435 H   0  0  0  0  0  0  0  0  0  0  0  0
  152.4726  138.5778  155.9426 H   0  0  0  0  0  0  0  0  0  0  0  0
  153.0120  141.3645  157.3999 H   0  0  0  0  0  0  0  0  0  0  0  0
  152.6280  138.9658  160.0328 H   0  0  0  0  0  0  0  0  0  0  0  0
  153.7874  139.7903  158.9910 H   0  0  0  0  0  0  0  0  0  0  0  0
  152.6763  138.5831  158.3170 H   0  0  0  0  0  0  0  0  0  0  0  0
  1  2  1  0  0  0  0
  1 23  1  0  0  0  0
  1 24  1  0  0  0  0
  1 25  1  0  0  0  0
  2  3  1  0  0  0  0
  2 26  1  0  0  0  0
  2 27  1  0  0  0  0
  3 19  1  0  0  0  0
  3  4  1  0  0  0  0
  3  6  1  0  0  0  0
  4  5  1  0  0  0  0
  4 28  1  0  0  0  0
  4 29  1  0  0  0  0
  5 30  1  0  0  0  0
  5 31  1  0  0  0  0
  5 32  1  0  0  0  0
  6  7  1  0  0  0  0
  6 17  1  0  0  0  0
  6 33  1  0  0  0  0
  7  8  1  0  0  0  0
  7 34  1  0  0  0  0
  8  9  2  0  0  0  0
  8 10  1  0  0  0  0
 10 35  1  0  0  0  0
 10 36  1  0  0  0  0
 10 11  1  0  0  0  0
 11 16  1  0  0  0  0
 11 12  2  0  0  0  0
 12 13  1  0  0  0  0
 12 37  1  0  0  0  0
 13 14  1  0  0  0  0
 13 15  2  0  0  0  0
 14 38  1  0  0  0  0
 14 39  1  0  0  0  0
 14 40  1  0  0  0  0
 15 16  1  0  0  0  0
 16 22  1  0  0  0  0
 17 18  1  0  0  0  0
 17 19  1  0  0  0  0
 17 41  1  0  0  0  0
 18 42  1  0  0  0  0
 18 43  1  0  0  0  0
 18 44  1  0  0  0  0
 19 20  1  0  0  0  0
 19 45  1  0  0  0  0
 20 21  1  0  0  0  0
 21 46  1  0  0  0  0
 21 47  1  0  0  0  0
 21 48  1  0  0  0  0
M  END
> <s_m_source_file>
AV-unprocessed.smi

> <i_m_source_file_index>
2510

> <i_lp_mmshare_version>
43012

> <i_f3d_flags>
0

> <s_epik_input>
W0NIM11PW0NAQEhdMVtDQEhdKFtDSDNdKVtDQEBIXShDMShbQ0gyXVtDSDNdKVtDSDJdW0NIM10pW05IXUMoPU8pW0NIMl1jMltjSF1jKFtDSDNdKVtuSF1uMg==

> <s_epik_cmdline>
J2VwaWtfcHl0aG9uJywgJy1waCcsICc3LjAnLCAnLXRuJywgJzgnLCAnLW1hJywgJzIwMCcsICctbWV0YWxfYmluZGluZycsICctaW1hZScsICc8aW5maWxlLm1hZT4nLCAnLW9tYWUnLCAnPG91dGZpbGUubWFlPic=

> <r_lp_tautomer_probability>
0.5

> <r_epik_Ionization_Penalty>
0.000134763

> <r_epik_Ionization_Penalty_Charging>
0

> <r_epik_Ionization_Penalty_Neutral>
0.000134763

> <r_epik_State_Penalty>
0.41068

> <r_epik_Charging_Adjusted_Penalty>
0.41068

> <i_epik_Tot_Q>
0

> <i_epik_Tot_abs_Q>
0

> <r_epik_Metal_State_Penalty>
0.410661

> <b_epik_Metal_Only>
0

> <s_lp_Force_Field>
OPLS_2005

> <r_lp_Energy>
25.9976

> <b_lp_Chiralities_Consistent>
1

> <s_lp_Variant>
AV-unprocessed.smi:2510-14

> <Gold.Version>
5.8.1

> <Gold.Id.Protein>
6NUR|6NUR_protein|mol2

> <Gold.PLP.Fitness>
47.1057

> <Gold.PLP.PLP>
-40.4452

> <Gold.PLP.part.hbond>
-3.1206

> <Gold.PLP.part.metal>
0.0000

> <Gold.PLP.part.buried>
-4.9518

> <Gold.PLP.part.nonpolar>
-33.8856

> <Gold.PLP.part.repulsive>
2.7727

> <Gold.PLP.ligand.clash>
0.0000

> <Gold.PLP.ligand.torsion>
1.0103

> <Gold.PLP.Chemscore.Hbond>
2.6409

> <Gold.PLP.Chemscore.CHOScore>
0.0000

> <Gold.PLP.Chemscore.Metal>
0.0000

> <Gold.Chemscore.Hbonds>
donor molecule, donor type, donor heavy atom, donor atom, acceptor molecule, acceptor atom, score
      L1  H     7    34       P1  8028  0.98
      L1  H    16    22       P1  7957  0.26
      P1  H  7954  7966       L1    15  0.08
      P1  H  7989  7998       L1     9  0.36

> <Gold.PLP.Chemscore.Internal.Correction>
0.7585

> <Gold.Rescore>
     Score         DG    S(hbond)    S(metal)    S(lipo)     H(rot)  DE(clash)    DE(int)     intcor
     13.20     -19.87       2.18        0.00     100.48       1.81       0.43       6.24       ----

> <Gold.Chemscore.Fitness>
13.1980

> <Gold.Chemscore.DG>
-19.8707

> <Gold.Chemscore.ZeroCoef>
-5.4800

> <Gold.Chemscore.Hbond>
2.1762

> <Gold.Chemscore.Metal>
0.0000

> <Gold.Chemscore.Lipo>
100.4800

> <Gold.Chemscore.Internal_Hbond>
0.0000

> <Gold.Chemscore.DEClash>
0.4297

> <Gold.Chemscore.DEInternal>
6.2431

> <Gold.Chemscore.Rot>
1.8102

> <Gold.Chemscore.Internal.Correction>
   9.000000E+99

> <Gold.Chemscore.Hbonds>
donor molecule, donor type, donor heavy atom, donor atom, acceptor molecule, acceptor atom, score
      L1  H     7    34       P1  8028  0.89
      L1  H    16    22       P1  7957  0.26
      P1  H  7954  7966       L1    15  0.03
      P1  H  7989  7998       L1     9  0.06

> <Gold.Chemscore.Hbond.Weighted>
-7.2687

> <Gold.Chemscore.Metal.Weighted>
-0.0000

> <Gold.Chemscore.Lipo.Weighted>
-11.7562

> <Gold.Chemscore.Internal_Hbond.Weighted>
0.0000

> <Gold.Chemscore.DEClash.Weighted>
0.4297

> <Gold.Chemscore.DEInternal.Weighted>
6.2431

> <Gold.Chemscore.Rot.Weighted>
4.6341

> <Gold.Chemscore.Internal.Correction.Weighted>
   9.000000E+99

> <Gold.Protein.RotatedTorsions>
[ 6907 6896 6895 6894 ] final  115.68 input  -60.11 | X-H torsion
[ 7974 7965 7964 7962 ] final   23.93 input  175.53 | X-H torsion
[ 8008 7997 7996 7995 ] final   33.57 input   59.86 | X-H torsion
[ 10167 10162 10161 10158 ] final  -83.97 input  -65.29 | X-H torsion
[ 10718 10713 10712 10709 ] final  120.50 input   66.30 | X-H torsion
[ 10763 10752 10751 10750 ] final  -35.82 input  -60.55 | X-H torsion
[ 11005 11000 10999 10996 ] final  109.08 input  -57.11 | X-H torsion

> <Gold.Protein.ActiveResidues>
 VAL166  LYS551  ARG553  GLY616  TRP617  ASP618  TYR619  PRO620  LYS621  CYS622 
 ASP623  PHE694  ASN695  SER759  ASP760  ASP761  ALA762  ILE779  LEU786  VAL792 
 PHE793  MET794  SER795  GLU796  ALA797  LYS798  CYS799  TRP800  GLU811  SER814 

> <Gold.Protein.RotatedAtoms>
  152.4726  133.8065  159.6980 H   0  0  0  0  0  0  0  0  0  0  0  0  # atno 6907 bound_to 6896
  150.8724  133.7477  159.2963 H   0  0  0  0  0  0  0  0  0  0  0  0  # atno 6908 bound_to 6896
  151.5007  135.1065  159.9880 H   0  0  0  0  0  0  0  0  0  0  0  0  # atno 6909 bound_to 6896
  146.1961  139.7675  142.8796 H   0  0  0  0  0  0  0  0  0  0  0  0  # atno 7974 bound_to 7965
  155.1407  140.3266  155.4453 H   0  0  0  0  0  0  0  0  0  0  0  0  # atno 8008 bound_to 7997
  156.2605  140.1994  156.6472 H   0  0  0  0  0  0  0  0  0  0  0  0  # atno 8009 bound_to 7997
  154.6544  140.0554  156.9979 H   0  0  0  0  0  0  0  0  0  0  0  0  # atno 8010 bound_to 7997
  140.4177  143.2597  151.8933 H   0  0  0  0  0  0  0  0  0  0  0  0  # atno 10167 bound_to 10162
  157.5886  131.1067  150.8043 H   0  0  0  0  0  0  0  0  0  0  0  0  # atno 10718 bound_to 10713
  153.8695  135.6832  153.4775 H   0  0  0  0  0  0  0  0  0  0  0  0  # atno 10763 bound_to 10752
  153.1295  135.4704  154.9324 H   0  0  0  0  0  0  0  0  0  0  0  0  # atno 10764 bound_to 10752
  154.7721  135.3242  154.8119 H   0  0  0  0  0  0  0  0  0  0  0  0  # atno 10765 bound_to 10752
  139.8855  134.9448  156.6070 H   0  0  0  0  0  0  0  0  0  0  0  0  # atno 11005 bound_to 11000
  145.3637  141.0330  143.3270 LP  0  0  0  0  0  0  0  0  0  0  0  0  # atno 17320 bound_to 7965
  144.8584  139.5214  143.6823 LP  0  0  0  0  0  0  0  0  0  0  0  0  # atno 17321 bound_to 7965
  139.4782  144.5470  151.8442 LP  0  0  0  0  0  0  0  0  0  0  0  0  # atno 17342 bound_to 10162
  140.4568  144.1778  150.5902 LP  0  0  0  0  0  0  0  0  0  0  0  0  # atno 17343 bound_to 10162
  156.8471  130.5068  149.5315 LP  0  0  0  0  0  0  0  0  0  0  0  0  # atno 17370 bound_to 10713
  156.0938  130.5916  150.9779 LP  0  0  0  0  0  0  0  0  0  0  0  0  # atno 17371 bound_to 10713
  140.7840  133.8636  155.8591 LP  0  0  0  0  0  0  0  0  0  0  0  0  # atno 17394 bound_to 11000
  140.9735  134.1499  157.4556 LP  0  0  0  0  0  0  0  0  0  0  0  0  # atno 17395 bound_to 11000

$$$$
