AV-unprocessed.smi:1433|AV-procd|sdf|5846|dock3
  -GOLD-   22720 5513D 1   1.00000     0.00000
 Structure written by MMmdl.
 45 46  0  0  0  0  0  0  0  0  2 V2000
  153.0045  138.3347  154.7682 C   0  0  0  0  0  0  0  0  0  0  0  0
  151.5388  138.3655  154.2984 C   0  0  1  0  0  0  0  0  0  0  0  0
  150.6643  137.2652  154.9336 C   0  0  0  0  0  0  0  0  0  0  0  0
  150.3482  137.5679  156.3562 N   0  3  2  0  0  0  0  0  0  0  0  0
  149.5439  136.5374  157.0906 C   0  0  2  0  0  0  0  0  0  0  0  0
  148.3290  136.1195  156.2334 C   0  0  0  0  0  0  0  0  0  0  0  0
  149.0824  136.9783  158.5087 C   0  0  0  0  0  0  0  0  0  0  0  0
  148.6633  135.8613  159.3505 N   0  0  0  0  0  0  0  0  0  0  0  0
  148.2635  135.9654  160.6276 C   0  0  0  0  0  0  0  0  0  0  0  0
  148.2260  137.0319  161.2413 O   0  0  0  0  0  0  0  0  0  0  0  0
  147.8346  134.6705  161.3179 C   0  0  0  0  0  0  0  0  0  0  0  0
  146.5972  134.8612  162.0518 N   0  0  0  0  0  0  0  0  0  0  0  0
  145.8503  133.9208  162.7305 C   0  0  0  0  0  0  0  0  0  0  0  0
  144.7760  134.5678  163.2706 C   0  0  0  0  0  0  0  0  0  0  0  0
  144.9562  135.9196  162.8645 C   0  0  0  0  0  0  0  0  0  0  0  0
  146.0475  136.0929  162.1360 N   0  0  0  0  0  0  0  0  0  0  0  0
  149.7457  138.9235  156.4509 C   0  0  0  0  0  0  0  0  0  0  0  0
  150.6739  139.9858  155.8382 C   0  0  2  0  0  0  0  0  0  0  0  0
  150.0398  141.3811  155.8554 C   0  0  0  0  0  0  0  0  0  0  0  0
  150.9420  139.6472  154.4822 O   0  0  0  0  0  0  0  0  0  0  0  0
  153.4814  137.3961  154.4848 H   0  0  0  0  0  0  0  0  0  0  0  0
  153.0965  138.4291  155.8499 H   0  0  0  0  0  0  0  0  0  0  0  0
  153.5752  139.1438  154.3117 H   0  0  0  0  0  0  0  0  0  0  0  0
  151.5533  138.1943  153.2215 H   0  0  0  0  0  0  0  0  0  0  0  0
  149.7321  137.1678  154.3747 H   0  0  0  0  0  0  0  0  0  0  0  0
  151.1985  136.3200  154.8400 H   0  0  0  0  0  0  0  0  0  0  0  0
  150.1840  135.6637  157.2222 H   0  0  0  0  0  0  0  0  0  0  0  0
  147.7610  135.3158  156.7016 H   0  0  0  0  0  0  0  0  0  0  0  0
  148.6197  135.7531  155.2499 H   0  0  0  0  0  0  0  0  0  0  0  0
  147.6487  136.9585  156.0826 H   0  0  0  0  0  0  0  0  0  0  0  0
  149.8774  137.5028  159.0406 H   0  0  0  0  0  0  0  0  0  0  0  0
  148.2430  137.6705  158.4332 H   0  0  0  0  0  0  0  0  0  0  0  0
  148.6542  134.9448  158.9254 H   0  0  0  0  0  0  0  0  0  0  0  0
  147.7067  133.8671  160.5902 H   0  0  0  0  0  0  0  0  0  0  0  0
  148.6114  134.3510  162.0139 H   0  0  0  0  0  0  0  0  0  0  0  0
  146.1439  132.8821  162.7726 H   0  0  0  0  0  0  0  0  0  0  0  0
  143.9826  134.1410  163.8661 H   0  0  0  0  0  0  0  0  0  0  0  0
  144.3309  136.7744  163.0766 H   0  0  0  0  0  0  0  0  0  0  0  0
  148.7831  138.9274  155.9363 H   0  0  0  0  0  0  0  0  0  0  0  0
  149.5463  139.1864  157.4886 H   0  0  0  0  0  0  0  0  0  0  0  0
  151.6052  140.0314  156.4029 H   0  0  0  0  0  0  0  0  0  0  0  0
  149.8165  141.6995  156.8739 H   0  0  0  0  0  0  0  0  0  0  0  0
  149.1089  141.3996  155.2875 H   0  0  0  0  0  0  0  0  0  0  0  0
  150.7110  142.1198  155.4167 H   0  0  0  0  0  0  0  0  0  0  0  0
  151.2406  137.6096  156.8276 H   0  0  0  0  0  0  0  0  0  0  0  0
  1  2  1  0  0  0  0
  1 21  1  0  0  0  0
  1 22  1  0  0  0  0
  1 23  1  0  0  0  0
  2 20  1  0  0  0  0
  2  3  1  0  0  0  0
  2 24  1  0  0  0  0
  3  4  1  0  0  0  0
  3 25  1  0  0  0  0
  3 26  1  0  0  0  0
  4  5  1  0  0  0  0
  4 17  1  0  0  0  0
  4 45  1  0  0  0  0
  5  6  1  0  0  0  0
  5  7  1  0  0  0  0
  5 27  1  0  0  0  0
  6 28  1  0  0  0  0
  6 29  1  0  0  0  0
  6 30  1  0  0  0  0
  7  8  1  0  0  0  0
  7 31  1  0  0  0  0
  7 32  1  0  0  0  0
  8  9  1  0  0  0  0
  8 33  1  0  0  0  0
  9 10  2  0  0  0  0
  9 11  1  0  0  0  0
 11 12  1  0  0  0  0
 11 34  1  0  0  0  0
 11 35  1  0  0  0  0
 12 16  1  0  0  0  0
 12 13  1  0  0  0  0
 13 14  2  0  0  0  0
 13 36  1  0  0  0  0
 14 15  1  0  0  0  0
 14 37  1  0  0  0  0
 15 16  2  0  0  0  0
 15 38  1  0  0  0  0
 17 18  1  0  0  0  0
 17 39  1  0  0  0  0
 17 40  1  0  0  0  0
 18 19  1  0  0  0  0
 18 20  1  0  0  0  0
 18 41  1  0  0  0  0
 19 42  1  0  0  0  0
 19 43  1  0  0  0  0
 19 44  1  0  0  0  0
M  CHG  1   4   1
M  END
> <s_m_source_file>
AV-unprocessed.smi

> <i_m_source_file_index>
1433

> <i_lp_mmshare_version>
43012

> <i_f3d_flags>
0

> <s_epik_input>
W0NIM11bQ0BASF0xW0NIMl1OKFtDSDJdW0NASF0oTzEpW0NIM10pW0NASF0oW0NIM10pW0NIMl1bTkhdQyg9TylbQ0gyXW4yW2NIXVtjSF1bY0hdbjI=

> <s_epik_cmdline>
J2VwaWtfcHl0aG9uJywgJy1waCcsICc3LjAnLCAnLXRuJywgJzgnLCAnLW1hJywgJzIwMCcsICctbWV0YWxfYmluZGluZycsICctaW1hZScsICc8aW5maWxlLm1hZT4nLCAnLW9tYWUnLCAnPG91dGZpbGUubWFlPic=

> <r_lp_tautomer_probability>
1

> <r_epik_Ionization_Penalty>
0.748405

> <r_epik_Ionization_Penalty_Charging>
0.748396

> <r_epik_Ionization_Penalty_Neutral>
8.54426e-06

> <r_epik_State_Penalty>
0.775162

> <r_epik_Charging_Adjusted_Penalty>
1.52356

> <i_epik_Tot_Q>
1

> <i_epik_Tot_abs_Q>
1

> <r_epik_Metal_State_Penalty>
0.775167

> <b_epik_Metal_Only>
0

> <s_lp_Force_Field>
OPLS_2005

> <r_lp_Energy>
23.467

> <b_lp_Chiralities_Consistent>
1

> <s_lp_Variant>
AV-unprocessed.smi:1433-12

> <Gold.Version>
5.8.1

> <Gold.Id.Protein>
6NUR|6NUR_protein|mol2

> <Gold.PLP.Fitness>
40.7010

> <Gold.PLP.PLP>
-33.2400

> <Gold.PLP.part.hbond>
-3.0000

> <Gold.PLP.part.metal>
0.0000

> <Gold.PLP.part.buried>
-4.6947

> <Gold.PLP.part.nonpolar>
-25.4211

> <Gold.PLP.part.repulsive>
0.2705

> <Gold.PLP.ligand.clash>
0.0000

> <Gold.PLP.ligand.torsion>
0.5137

> <Gold.PLP.Chemscore.Hbond>
2.8080

> <Gold.PLP.Chemscore.CHOScore>
0.0000

> <Gold.PLP.Chemscore.Metal>
0.0000

> <Gold.Chemscore.Hbonds>
donor molecule, donor type, donor heavy atom, donor atom, acceptor molecule, acceptor atom, score
      P1  H  6931  6943       L1    10  1.00
      P1  H  6934  6947       L1    10  0.27
      P1  H  7989  7998       L1    20  1.00

> <Gold.PLP.Chemscore.Internal.Correction>
0.0645

> <Gold.Rescore>
     Score         DG    S(hbond)    S(metal)    S(lipo)     H(rot)  DE(clash)    DE(int)     intcor
     15.96     -18.35       2.66        0.00      74.75       1.87       0.02       2.37       ----

> <Gold.Chemscore.Fitness>
15.9619

> <Gold.Chemscore.DG>
-18.3452

> <Gold.Chemscore.ZeroCoef>
-5.4800

> <Gold.Chemscore.Hbond>
2.6635

> <Gold.Chemscore.Metal>
0.0000

> <Gold.Chemscore.Lipo>
74.7469

> <Gold.Chemscore.Internal_Hbond>
0.0000

> <Gold.Chemscore.DEClash>
0.0180

> <Gold.Chemscore.DEInternal>
2.3653

> <Gold.Chemscore.Rot>
1.8657

> <Gold.Chemscore.Internal.Correction>
   9.000000E+99

> <Gold.Chemscore.Hbonds>
donor molecule, donor type, donor heavy atom, donor atom, acceptor molecule, acceptor atom, score
      P1  H  6931  6943       L1    10  0.98
      P1  H  6934  6947       L1    10  0.28
      P1  H  7989  7998       L1    20  0.82

> <Gold.Chemscore.Hbond.Weighted>
-8.8959

> <Gold.Chemscore.Metal.Weighted>
-0.0000

> <Gold.Chemscore.Lipo.Weighted>
-8.7454

> <Gold.Chemscore.Internal_Hbond.Weighted>
0.0000

> <Gold.Chemscore.DEClash.Weighted>
0.0180

> <Gold.Chemscore.DEInternal.Weighted>
2.3653

> <Gold.Chemscore.Rot.Weighted>
4.7761

> <Gold.Chemscore.Internal.Correction.Weighted>
   9.000000E+99

> <Gold.Protein.RotatedTorsions>
[ 6907 6896 6895 6894 ] final  -58.98 input  -60.11 | X-H torsion
[ 7974 7965 7964 7962 ] final -168.95 input  175.53 | X-H torsion
[ 8008 7997 7996 7995 ] final -117.86 input   59.86 | X-H torsion
[ 10167 10162 10161 10158 ] final   56.03 input  -65.29 | X-H torsion
[ 10718 10713 10712 10709 ] final  -71.38 input   66.30 | X-H torsion
[ 10763 10752 10751 10750 ] final  163.32 input  -60.55 | X-H torsion
[ 11005 11000 10999 10996 ] final  154.95 input  -57.11 | X-H torsion

> <Gold.Protein.ActiveResidues>
 VAL166  LYS551  ARG553  GLY616  TRP617  ASP618  TYR619  PRO620  LYS621  CYS622 
 ASP623  PHE694  ASN695  SER759  ASP760  ASP761  ALA762  ILE779  LEU786  VAL792 
 PHE793  MET794  SER795  GLU796  ALA797  LYS798  CYS799  TRP800  GLU811  SER814 

> <Gold.Protein.RotatedAtoms>
  150.7965  134.7028  159.6559 H   0  0  0  0  0  0  0  0  0  0  0  0  # atno 6907 bound_to 6896
  152.4078  134.6174  160.0051 H   0  0  0  0  0  0  0  0  0  0  0  0  # atno 6908 bound_to 6896
  151.6426  133.3288  159.3170 H   0  0  0  0  0  0  0  0  0  0  0  0  # atno 6909 bound_to 6896
  144.7194  140.2294  143.6306 H   0  0  0  0  0  0  0  0  0  0  0  0  # atno 7974 bound_to 7965
  155.0905  140.0395  157.2667 H   0  0  0  0  0  0  0  0  0  0  0  0  # atno 8008 bound_to 7997
  154.6836  140.2638  155.6859 H   0  0  0  0  0  0  0  0  0  0  0  0  # atno 8009 bound_to 7997
  156.2703  140.2773  156.1389 H   0  0  0  0  0  0  0  0  0  0  0  0  # atno 8010 bound_to 7997
  140.2131  144.3868  150.6481 H   0  0  0  0  0  0  0  0  0  0  0  0  # atno 10167 bound_to 10162
  156.0365  130.4350  150.2435 H   0  0  0  0  0  0  0  0  0  0  0  0  # atno 10718 bound_to 10713
  154.2919  135.2761  155.2651 H   0  0  0  0  0  0  0  0  0  0  0  0  # atno 10763 bound_to 10752
  154.5126  135.5778  153.6620 H   0  0  0  0  0  0  0  0  0  0  0  0  # atno 10764 bound_to 10752
  152.9913  135.6185  154.3084 H   0  0  0  0  0  0  0  0  0  0  0  0  # atno 10765 bound_to 10752
  140.1536  134.8658  157.2486 H   0  0  0  0  0  0  0  0  0  0  0  0  # atno 11005 bound_to 11000
  145.8425  139.2137  143.1819 LP  0  0  0  0  0  0  0  0  0  0  0  0  # atno 17320 bound_to 7965
  146.0333  140.8236  142.9865 LP  0  0  0  0  0  0  0  0  0  0  0  0  # atno 17321 bound_to 7965
  140.6309  143.2187  151.6497 LP  0  0  0  0  0  0  0  0  0  0  0  0  # atno 17342 bound_to 10162
  139.5172  144.3322  152.0816 LP  0  0  0  0  0  0  0  0  0  0  0  0  # atno 17343 bound_to 10162
  157.0534  131.0069  151.3246 LP  0  0  0  0  0  0  0  0  0  0  0  0  # atno 17370 bound_to 10713
  157.5124  130.7946  149.7719 LP  0  0  0  0  0  0  0  0  0  0  0  0  # atno 17371 bound_to 10713
  140.2575  134.3611  155.7419 LP  0  0  0  0  0  0  0  0  0  0  0  0  # atno 17394 bound_to 11000
  141.2202  133.7350  156.9029 LP  0  0  0  0  0  0  0  0  0  0  0  0  # atno 17395 bound_to 11000

$$$$
