AV-unprocessed.smi:1395|AV-procd|sdf|5669|dock3
  -GOLD-   22720 5293D 1   1.00000     0.00000
 Structure written by MMmdl.
 42 43  0  0  0  0  0  0  0  0  1 V2000
  151.2395  145.0079  158.3085 C   0  0  0  0  0  0  0  0  0  0  0  0
  151.7186  143.6388  158.7634 C   0  0  0  0  0  0  0  0  0  0  0  0
  152.6236  143.5473  159.8421 C   0  0  0  0  0  0  0  0  0  0  0  0
  153.0660  142.2809  160.2611 C   0  0  0  0  0  0  0  0  0  0  0  0
  152.5810  141.1521  159.5789 C   0  0  0  0  0  0  0  0  0  0  0  0
  151.7163  141.2302  158.5469 N   0  0  0  0  0  0  0  0  0  0  0  0
  151.2794  142.4452  158.1298 C   0  0  0  0  0  0  0  0  0  0  0  0
  150.3692  142.6047  157.0469 N   0  0  0  0  0  0  0  0  0  0  0  0
  149.7193  141.6550  156.3512 C   0  0  0  0  0  0  0  0  0  0  0  0
  149.8041  140.4422  156.5466 O   0  0  0  0  0  0  0  0  0  0  0  0
  148.9474  142.1983  155.3988 N   0  0  0  0  0  0  0  0  0  0  0  0
  148.1055  141.4522  154.4685 C   0  0  0  0  0  0  0  0  0  0  0  0
  146.9473  140.7921  155.2296 C   0  0  0  0  0  0  0  0  0  0  0  0
  146.1110  139.8886  154.3065 C   0  0  0  0  0  0  0  0  0  0  0  0
  146.9577  138.8538  153.6948 N   0  0  0  0  0  0  0  0  0  0  0  0
  146.1853  137.9068  152.8588 C   0  0  0  0  0  0  0  0  0  0  0  0
  144.7791  137.5920  153.3855 C   0  0  0  0  0  0  0  0  0  0  0  0
  143.7525  137.8366  152.5675 N   0  0  0  0  0  0  0  0  0  0  0  0
  144.6221  137.1372  154.5168 O   0  0  0  0  0  0  0  0  0  0  0  0
  148.0068  139.4757  152.8800 C   0  0  0  0  0  0  0  0  0  0  0  0
  148.9162  140.3617  153.7493 C   0  0  0  0  0  0  0  0  0  0  0  0
  151.6769  145.8029  158.9130 H   0  0  0  0  0  0  0  0  0  0  0  0
  150.1548  145.0808  158.3934 H   0  0  0  0  0  0  0  0  0  0  0  0
  151.5194  145.1837  157.2695 H   0  0  0  0  0  0  0  0  0  0  0  0
  152.9770  144.4357  160.3450 H   0  0  0  0  0  0  0  0  0  0  0  0
  153.7584  142.1774  161.0833 H   0  0  0  0  0  0  0  0  0  0  0  0
  152.8950  140.1603  159.8683 H   0  0  0  0  0  0  0  0  0  0  0  0
  150.1925  143.5588  156.7702 H   0  0  0  0  0  0  0  0  0  0  0  0
  148.9371  143.2038  155.3112 H   0  0  0  0  0  0  0  0  0  0  0  0
  147.6864  142.1362  153.7278 H   0  0  0  0  0  0  0  0  0  0  0  0
  147.3358  140.1971  156.0579 H   0  0  0  0  0  0  0  0  0  0  0  0
  146.3084  141.5571  155.6725 H   0  0  0  0  0  0  0  0  0  0  0  0
  145.3174  139.4405  154.9042 H   0  0  0  0  0  0  0  0  0  0  0  0
  145.6245  140.4836  153.5316 H   0  0  0  0  0  0  0  0  0  0  0  0
  146.1212  138.2879  151.8376 H   0  0  0  0  0  0  0  0  0  0  0  0
  146.7196  136.9573  152.8014 H   0  0  0  0  0  0  0  0  0  0  0  0
  142.8086  137.6466  152.8705 H   0  0  0  0  0  0  0  0  0  0  0  0
  143.9260  138.2130  151.6467 H   0  0  0  0  0  0  0  0  0  0  0  0
  148.6166  138.7035  152.4090 H   0  0  0  0  0  0  0  0  0  0  0  0
  147.5646  140.0648  152.0744 H   0  0  0  0  0  0  0  0  0  0  0  0
  149.6876  140.8159  153.1265 H   0  0  0  0  0  0  0  0  0  0  0  0
  149.4356  139.7397  154.4799 H   0  0  0  0  0  0  0  0  0  0  0  0
  1  2  1  0  0  0  0
  1 22  1  0  0  0  0
  1 23  1  0  0  0  0
  1 24  1  0  0  0  0
  2  7  1  0  0  0  0
  2  3  2  0  0  0  0
  3  4  1  0  0  0  0
  3 25  1  0  0  0  0
  4  5  2  0  0  0  0
  4 26  1  0  0  0  0
  5  6  1  0  0  0  0
  5 27  1  0  0  0  0
  6  7  2  0  0  0  0
  7  8  1  0  0  0  0
  8  9  1  0  0  0  0
  8 28  1  0  0  0  0
  9 10  2  0  0  0  0
  9 11  1  0  0  0  0
 11 12  1  0  0  0  0
 11 29  1  0  0  0  0
 12 21  1  0  0  0  0
 12 13  1  0  0  0  0
 12 30  1  0  0  0  0
 13 14  1  0  0  0  0
 13 31  1  0  0  0  0
 13 32  1  0  0  0  0
 14 15  1  0  0  0  0
 14 33  1  0  0  0  0
 14 34  1  0  0  0  0
 15 16  1  0  0  0  0
 15 20  1  0  0  0  0
 16 17  1  0  0  0  0
 16 35  1  0  0  0  0
 16 36  1  0  0  0  0
 17 18  1  0  0  0  0
 17 19  2  0  0  0  0
 18 37  1  0  0  0  0
 18 38  1  0  0  0  0
 20 21  1  0  0  0  0
 20 39  1  0  0  0  0
 20 40  1  0  0  0  0
 21 41  1  0  0  0  0
 21 42  1  0  0  0  0
M  END
> <s_m_source_file>
AV-unprocessed.smi

> <i_m_source_file_index>
1395

> <i_lp_mmshare_version>
43012

> <i_f3d_flags>
0

> <s_epik_input>
W0NIM11jMVtjSF1bY0hdW2NIXW5jMVtOSF1DKD1PKVtOSF1bQ0hdMltDSDJdW0NIMl1OKFtDSDJdW0NIMl0yKVtDSDJdQyg9TylbTkgyXQ==

> <s_epik_cmdline>
J2VwaWtfcHl0aG9uJywgJy1waCcsICc3LjAnLCAnLXRuJywgJzgnLCAnLW1hJywgJzIwMCcsICctbWV0YWxfYmluZGluZycsICctaW1hZScsICc8aW5maWxlLm1hZT4nLCAnLW9tYWUnLCAnPG91dGZpbGUubWFlPic=

> <r_epik_Ionization_Penalty>
0.164795

> <r_epik_Ionization_Penalty_Charging>
0

> <r_epik_Ionization_Penalty_Neutral>
0.164795

> <r_epik_State_Penalty>
0.154069

> <r_epik_Charging_Adjusted_Penalty>
0.154069

> <i_epik_Tot_Q>
0

> <i_epik_Tot_abs_Q>
0

> <r_epik_Metal_State_Penalty>
0.171366

> <b_epik_Metal_Only>
0

> <s_lp_Force_Field>
OPLS_2005

> <r_lp_Energy>
15.3703

> <b_lp_Chiralities_Consistent>
1

> <s_lp_Variant>
AV-unprocessed.smi:1395-1

> <Gold.Version>
5.8.1

> <Gold.Id.Protein>
6NUR|6NUR_protein|mol2

> <Gold.PLP.Fitness>
39.8071

> <Gold.PLP.PLP>
-31.9613

> <Gold.PLP.part.hbond>
-3.9858

> <Gold.PLP.part.metal>
0.0000

> <Gold.PLP.part.buried>
3.4226

> <Gold.PLP.part.nonpolar>
-31.6932

> <Gold.PLP.part.repulsive>
0.4673

> <Gold.PLP.ligand.clash>
0.0000

> <Gold.PLP.ligand.torsion>
0.3245

> <Gold.PLP.Chemscore.Hbond>
2.8294

> <Gold.PLP.Chemscore.CHOScore>
0.0000

> <Gold.PLP.Chemscore.Metal>
0.0000

> <Gold.Chemscore.Hbonds>
donor molecule, donor type, donor heavy atom, donor atom, acceptor molecule, acceptor atom, score
      L1  H     8    28       P1  8028  0.80
      L1  H    11    29       P1  8028  1.00
      L1  H    18    38       P1 10171  1.00

> <Gold.PLP.Chemscore.Internal.Correction>
0.0065

> <Gold.Rescore>
     Score         DG    S(hbond)    S(metal)    S(lipo)     H(rot)  DE(clash)    DE(int)     intcor
     14.93     -21.26       2.91        0.00      94.36       1.94       3.64       2.69       ----

> <Gold.Chemscore.Fitness>
14.9312

> <Gold.Chemscore.DG>
-21.2639

> <Gold.Chemscore.ZeroCoef>
-5.4800

> <Gold.Chemscore.Hbond>
2.9060

> <Gold.Chemscore.Metal>
0.0000

> <Gold.Chemscore.Lipo>
94.3594

> <Gold.Chemscore.Internal_Hbond>
0.0000

> <Gold.Chemscore.DEClash>
3.6396

> <Gold.Chemscore.DEInternal>
2.6931

> <Gold.Chemscore.Rot>
1.9383

> <Gold.Chemscore.Internal.Correction>
   9.000000E+99

> <Gold.Chemscore.Hbonds>
donor molecule, donor type, donor heavy atom, donor atom, acceptor molecule, acceptor atom, score
      L1  H     8    28       P1  8028  0.75
      L1  H    11    29       P1  8028  0.95
      L1  H    18    38       P1 10171  0.99

> <Gold.Chemscore.Hbond.Weighted>
-9.7059

> <Gold.Chemscore.Metal.Weighted>
-0.0000

> <Gold.Chemscore.Lipo.Weighted>
-11.0401

> <Gold.Chemscore.Internal_Hbond.Weighted>
0.0000

> <Gold.Chemscore.DEClash.Weighted>
3.6396

> <Gold.Chemscore.DEInternal.Weighted>
2.6931

> <Gold.Chemscore.Rot.Weighted>
4.9620

> <Gold.Chemscore.Internal.Correction.Weighted>
   9.000000E+99

> <Gold.Protein.RotatedTorsions>
[ 6907 6896 6895 6894 ] final  163.30 input  -60.11 | X-H torsion
[ 7974 7965 7964 7962 ] final  103.31 input  175.53 | X-H torsion
[ 8008 7997 7996 7995 ] final -123.69 input   59.86 | X-H torsion
[ 10167 10162 10161 10158 ] final  127.50 input  -65.29 | X-H torsion
[ 10718 10713 10712 10709 ] final   68.68 input   66.30 | X-H torsion
[ 10763 10752 10751 10750 ] final -161.90 input  -60.55 | X-H torsion
[ 11005 11000 10999 10996 ] final  171.90 input  -57.11 | X-H torsion

> <Gold.Protein.ActiveResidues>
 VAL166  LYS551  ARG553  GLY616  TRP617  ASP618  TYR619  PRO620  LYS621  CYS622 
 ASP623  PHE694  ASN695  SER759  ASP760  ASP761  ALA762  ILE779  LEU786  VAL792 
 PHE793  MET794  SER795  GLU796  ALA797  LYS798  CYS799  TRP800  GLU811  SER814 

> <Gold.Protein.RotatedAtoms>
  151.9272  133.3601  159.3917 H   0  0  0  0  0  0  0  0  0  0  0  0  # atno 6907 bound_to 6896
  150.7024  134.4574  159.5374 H   0  0  0  0  0  0  0  0  0  0  0  0  # atno 6908 bound_to 6896
  152.2208  134.8414  160.0537 H   0  0  0  0  0  0  0  0  0  0  0  0  # atno 6909 bound_to 6896
  145.3476  139.2447  143.3576 H   0  0  0  0  0  0  0  0  0  0  0  0  # atno 7974 bound_to 7965
  155.1847  140.0411  157.2889 H   0  0  0  0  0  0  0  0  0  0  0  0  # atno 8008 bound_to 7997
  154.6179  140.2493  155.7558 H   0  0  0  0  0  0  0  0  0  0  0  0  # atno 8009 bound_to 7997
  156.2417  140.2901  156.0473 H   0  0  0  0  0  0  0  0  0  0  0  0  # atno 8010 bound_to 7997
  139.5575  144.6859  151.4140 H   0  0  0  0  0  0  0  0  0  0  0  0  # atno 10167 bound_to 10162
  157.6303  130.9386  150.0410 H   0  0  0  0  0  0  0  0  0  0  0  0  # atno 10718 bound_to 10713
  154.7262  135.3036  154.8967 H   0  0  0  0  0  0  0  0  0  0  0  0  # atno 10763 bound_to 10752
  153.9824  135.6728  153.4754 H   0  0  0  0  0  0  0  0  0  0  0  0  # atno 10764 bound_to 10752
  153.0877  135.4975  154.8548 H   0  0  0  0  0  0  0  0  0  0  0  0  # atno 10765 bound_to 10752
  140.3239  134.7414  157.4084 H   0  0  0  0  0  0  0  0  0  0  0  0  # atno 11005 bound_to 11000
  146.2981  140.4085  142.8714 LP  0  0  0  0  0  0  0  0  0  0  0  0  # atno 17320 bound_to 7965
  144.8742  140.7314  143.6027 LP  0  0  0  0  0  0  0  0  0  0  0  0  # atno 17321 bound_to 7965
  140.6850  143.7995  150.7173 LP  0  0  0  0  0  0  0  0  0  0  0  0  # atno 17342 bound_to 10162
  140.1460  143.4399  152.2163 LP  0  0  0  0  0  0  0  0  0  0  0  0  # atno 17343 bound_to 10162
  156.1502  130.3642  149.9450 LP  0  0  0  0  0  0  0  0  0  0  0  0  # atno 17370 bound_to 10713
  156.7472  130.9101  151.3635 LP  0  0  0  0  0  0  0  0  0  0  0  0  # atno 17371 bound_to 10713
  140.0918  134.5591  155.8437 LP  0  0  0  0  0  0  0  0  0  0  0  0  # atno 17394 bound_to 11000
  141.2080  133.6669  156.6342 LP  0  0  0  0  0  0  0  0  0  0  0  0  # atno 17395 bound_to 11000

$$$$
