AV-unprocessed.smi:1047|AV-procd|sdf|4568|dock4
  -GOLD-   22720 3 23D 1   1.00000     0.00000
 Structure written by MMmdl.
 56 58  0  0  0  0  0  0  0  0  2 V2000
  151.6665  130.4480  155.6040 C   0  0  0  0  0  0  0  0  0  0  0  0
  151.1126  131.7763  156.1392 C   0  0  0  0  0  0  0  0  0  0  0  0
  150.6433  132.7056  155.1127 N   0  0  0  0  0  0  0  0  0  0  0  0
  149.4344  132.2342  154.4413 C   0  0  0  0  0  0  0  0  0  0  0  0
  148.9347  133.2385  153.3887 C   0  0  0  0  0  0  0  0  0  0  0  0
  148.7319  134.5101  153.9966 O   0  0  0  0  0  0  0  0  0  0  0  0
  149.9104  135.0285  154.6082 C   0  0  1  0  0  0  0  0  0  0  0  0
  149.5762  136.3996  155.2104 C   0  0  0  0  0  0  0  0  0  0  0  0
  149.2344  137.3733  154.1546 N   0  3  0  0  0  0  0  0  0  0  0  0
  150.1107  138.5612  154.1272 C   0  0  0  0  0  0  0  0  0  0  0  0
  149.4135  139.7980  154.7291 C   0  0  2  0  0  0  0  0  0  0  0  0
  148.4791  140.3041  153.7967 O   0  0  0  0  0  0  0  0  0  0  0  0
  150.3836  140.9457  155.0734 C   0  0  0  0  0  0  0  0  0  0  0  0
  151.2095  140.6547  156.2313 N   0  0  0  0  0  0  0  0  0  0  0  0
  152.0082  139.5846  156.4059 C   0  0  0  0  0  0  0  0  0  0  0  0
  152.6887  139.5127  157.5460 N   0  0  0  0  0  0  0  0  0  0  0  0
  152.2787  140.6674  158.1898 C   0  0  0  0  0  0  0  0  0  0  0  0
  152.6358  141.1897  159.4522 C   0  0  0  0  0  0  0  0  0  0  0  0
  152.0900  142.4091  159.9127 C   0  0  0  0  0  0  0  0  0  0  0  0
  152.5041  142.9352  161.2759 C   0  0  0  0  0  0  0  0  0  0  0  0
  151.1701  143.1258  159.1058 C   0  0  0  0  0  0  0  0  0  0  0  0
  150.5718  144.4383  159.5802 C   0  0  0  0  0  0  0  0  0  0  0  0
  150.8006  142.6171  157.8432 C   0  0  0  0  0  0  0  0  0  0  0  0
  151.3516  141.4031  157.3954 C   0  0  0  0  0  0  0  0  0  0  0  0
  150.3876  134.0259  155.6777 C   0  0  0  0  0  0  0  0  0  0  0  0
  152.0924  129.8570  156.4150 H   0  0  0  0  0  0  0  0  0  0  0  0
  152.4549  130.6182  154.8701 H   0  0  0  0  0  0  0  0  0  0  0  0
  150.8921  129.8415  155.1351 H   0  0  0  0  0  0  0  0  0  0  0  0
  150.3128  131.5756  156.8537 H   0  0  0  0  0  0  0  0  0  0  0  0
  151.9099  132.2551  156.7091 H   0  0  0  0  0  0  0  0  0  0  0  0
  149.6220  131.2798  153.9500 H   0  0  0  0  0  0  0  0  0  0  0  0
  148.6469  132.0589  155.1757 H   0  0  0  0  0  0  0  0  0  0  0  0
  149.6516  133.3296  152.5710 H   0  0  0  0  0  0  0  0  0  0  0  0
  147.9952  132.8966  152.9544 H   0  0  0  0  0  0  0  0  0  0  0  0
  150.6893  135.1470  153.8523 H   0  0  0  0  0  0  0  0  0  0  0  0
  148.7484  136.3120  155.9155 H   0  0  0  0  0  0  0  0  0  0  0  0
  150.4350  136.7776  155.7665 H   0  0  0  0  0  0  0  0  0  0  0  0
  149.2937  136.9100  153.2592 H   0  0  0  0  0  0  0  0  0  0  0  0
  151.0073  138.3189  154.6976 H   0  0  0  0  0  0  0  0  0  0  0  0
  150.4297  138.7640  153.1036 H   0  0  0  0  0  0  0  0  0  0  0  0
  148.8716  139.5113  155.6315 H   0  0  0  0  0  0  0  0  0  0  0  0
  148.7315  140.0306  152.9284 H   0  0  0  0  0  0  0  0  0  0  0  0
  151.0356  141.1638  154.2265 H   0  0  0  0  0  0  0  0  0  0  0  0
  149.8261  141.8611  155.2778 H   0  0  0  0  0  0  0  0  0  0  0  0
  152.0987  138.8170  155.6510 H   0  0  0  0  0  0  0  0  0  0  0  0
  153.3370  140.6441  160.0665 H   0  0  0  0  0  0  0  0  0  0  0  0
  151.6320  143.0683  161.9165 H   0  0  0  0  0  0  0  0  0  0  0  0
  153.0116  143.8949  161.1760 H   0  0  0  0  0  0  0  0  0  0  0  0
  153.1849  142.2472  161.7784 H   0  0  0  0  0  0  0  0  0  0  0  0
  149.9154  144.8726  158.8255 H   0  0  0  0  0  0  0  0  0  0  0  0
  151.3578  145.1623  159.7960 H   0  0  0  0  0  0  0  0  0  0  0  0
  149.9845  144.2842  160.4857 H   0  0  0  0  0  0  0  0  0  0  0  0
  150.1013  143.1534  157.2193 H   0  0  0  0  0  0  0  0  0  0  0  0
  149.6380  133.9507  156.4670 H   0  0  0  0  0  0  0  0  0  0  0  0
  151.2962  134.4058  156.1469 H   0  0  0  0  0  0  0  0  0  0  0  0
  148.2822  137.6782  154.2993 H   0  0  0  0  0  0  0  0  0  0  0  0
  1  2  1  0  0  0  0
  1 26  1  0  0  0  0
  1 27  1  0  0  0  0
  1 28  1  0  0  0  0
  2  3  1  0  0  0  0
  2 29  1  0  0  0  0
  2 30  1  0  0  0  0
  3 25  1  0  0  0  0
  3  4  1  0  0  0  0
  4  5  1  0  0  0  0
  4 31  1  0  0  0  0
  4 32  1  0  0  0  0
  5  6  1  0  0  0  0
  5 33  1  0  0  0  0
  5 34  1  0  0  0  0
  6  7  1  0  0  0  0
  7  8  1  0  0  0  0
  7 25  1  0  0  0  0
  7 35  1  0  0  0  0
  8  9  1  0  0  0  0
  8 36  1  0  0  0  0
  8 37  1  0  0  0  0
  9 10  1  0  0  0  0
  9 38  1  0  0  0  0
  9 56  1  0  0  0  0
 10 11  1  0  0  0  0
 10 39  1  0  0  0  0
 10 40  1  0  0  0  0
 11 12  1  0  0  0  0
 11 13  1  0  0  0  0
 11 41  1  0  0  0  0
 12 42  1  0  0  0  0
 13 14  1  0  0  0  0
 13 43  1  0  0  0  0
 13 44  1  0  0  0  0
 14 24  1  0  0  0  0
 14 15  1  0  0  0  0
 15 16  2  0  0  0  0
 15 45  1  0  0  0  0
 16 17  1  0  0  0  0
 17 24  2  0  0  0  0
 17 18  1  0  0  0  0
 18 19  2  0  0  0  0
 18 46  1  0  0  0  0
 19 20  1  0  0  0  0
 19 21  1  0  0  0  0
 20 47  1  0  0  0  0
 20 48  1  0  0  0  0
 20 49  1  0  0  0  0
 21 22  1  0  0  0  0
 21 23  2  0  0  0  0
 22 50  1  0  0  0  0
 22 51  1  0  0  0  0
 22 52  1  0  0  0  0
 23 24  1  0  0  0  0
 23 53  1  0  0  0  0
 25 54  1  0  0  0  0
 25 55  1  0  0  0  0
M  CHG  1   9   1
M  END
> <s_m_source_file>
AV-unprocessed.smi

> <i_m_source_file_index>
1047

> <i_lp_mmshare_version>
43012

> <i_f3d_flags>
0

> <s_epik_input>
W0NIM11bQ0gyXU4xW0NIMl1bQ0gyXU9bQ0BIXShbQ0gyXTEpW0NIMl1bTkhdW0NIMl1bQ0BIXShbT0hdKVtDSDJdbihbY0hdbjIpYyhjMjMpW2NIXWMoW0NIM10pYyhbY0hdMylbQ0gzXQ==

> <s_epik_cmdline>
J2VwaWtfcHl0aG9uJywgJy1waCcsICc3LjAnLCAnLXRuJywgJzgnLCAnLW1hJywgJzIwMCcsICctbWV0YWxfYmluZGluZycsICctaW1hZScsICc8aW5maWxlLm1hZT4nLCAnLW9tYWUnLCAnPG91dGZpbGUubWFlPic=

> <r_epik_Ionization_Penalty>
0.692425

> <r_epik_Ionization_Penalty_Charging>
0.0243549

> <r_epik_Ionization_Penalty_Neutral>
0.66807

> <r_epik_State_Penalty>
0.592789

> <r_epik_Charging_Adjusted_Penalty>
0.617144

> <i_epik_Tot_Q>
1

> <i_epik_Tot_abs_Q>
1

> <r_epik_Metal_State_Penalty>
0.508021

> <b_epik_Metal_Only>
0

> <s_lp_Force_Field>
OPLS_2005

> <r_lp_Energy>
31.7658

> <b_lp_Chiralities_Consistent>
1

> <s_lp_Variant>
AV-unprocessed.smi:1047-9

> <Gold.Version>
5.8.1

> <Gold.Id.Protein>
6NUR|6NUR_protein|mol2

> <Gold.PLP.Fitness>
58.3251

> <Gold.PLP.PLP>
-48.0776

> <Gold.PLP.part.hbond>
-3.0000

> <Gold.PLP.part.metal>
0.0000

> <Gold.PLP.part.buried>
-3.4361

> <Gold.PLP.part.nonpolar>
-42.0703

> <Gold.PLP.part.repulsive>
1.6444

> <Gold.PLP.ligand.clash>
0.0000

> <Gold.PLP.ligand.torsion>
0.9723

> <Gold.PLP.Chemscore.Hbond>
4.0000

> <Gold.PLP.Chemscore.CHOScore>
0.0000

> <Gold.PLP.Chemscore.Metal>
0.0000

> <Gold.Chemscore.Hbonds>
donor molecule, donor type, donor heavy atom, donor atom, acceptor molecule, acceptor atom, score
      L1  H     9    38       P1  7948  2.00
      L1  H    12    42       P1  7957  1.00
      P1  H  7997  8008       L1    16  1.00

> <Gold.PLP.Chemscore.Internal.Correction>
0.1921

> <Gold.Rescore>
     Score         DG    S(hbond)    S(metal)    S(lipo)     H(rot)  DE(clash)    DE(int)     intcor
     18.70     -21.12       2.08        0.00     131.42       2.60       1.41       1.01       ----

> <Gold.Chemscore.Fitness>
18.7040

> <Gold.Chemscore.DG>
-21.1218

> <Gold.Chemscore.ZeroCoef>
-5.4800

> <Gold.Chemscore.Hbond>
2.0761

> <Gold.Chemscore.Metal>
0.0000

> <Gold.Chemscore.Lipo>
131.4195

> <Gold.Chemscore.Internal_Hbond>
0.0000

> <Gold.Chemscore.DEClash>
1.4097

> <Gold.Chemscore.DEInternal>
1.0081

> <Gold.Chemscore.Rot>
2.6049

> <Gold.Chemscore.Internal.Correction>
   9.000000E+99

> <Gold.Chemscore.Hbonds>
donor molecule, donor type, donor heavy atom, donor atom, acceptor molecule, acceptor atom, score
      L1  H     9    38       P1  7948  0.93
      L1  H    12    42       P1  7957  0.97
      P1  H  7997  8008       L1    16  0.11

> <Gold.Chemscore.Hbond.Weighted>
-6.9342

> <Gold.Chemscore.Metal.Weighted>
-0.0000

> <Gold.Chemscore.Lipo.Weighted>
-15.3761

> <Gold.Chemscore.Internal_Hbond.Weighted>
0.0000

> <Gold.Chemscore.DEClash.Weighted>
1.4097

> <Gold.Chemscore.DEInternal.Weighted>
1.0081

> <Gold.Chemscore.Rot.Weighted>
6.6685

> <Gold.Chemscore.Internal.Correction.Weighted>
   9.000000E+99

> <Gold.Protein.RotatedTorsions>
[ 6907 6896 6895 6894 ] final  -74.42 input  -60.11 | X-H torsion
[ 7974 7965 7964 7962 ] final  143.56 input  175.53 | X-H torsion
[ 8008 7997 7996 7995 ] final  -83.57 input   59.86 | X-H torsion
[ 10167 10162 10161 10158 ] final  -97.61 input  -65.29 | X-H torsion
[ 10718 10713 10712 10709 ] final -138.86 input   66.30 | X-H torsion
[ 10763 10752 10751 10750 ] final -118.06 input  -60.55 | X-H torsion
[ 11005 11000 10999 10996 ] final   65.47 input  -57.11 | X-H torsion

> <Gold.Protein.ActiveResidues>
 VAL166  LYS551  ARG553  GLY616  TRP617  ASP618  TYR619  PRO620  LYS621  CYS622 
 ASP623  PHE694  ASN695  SER759  ASP760  ASP761  ALA762  ILE779  LEU786  VAL792 
 PHE793  MET794  SER795  GLU796  ALA797  LYS798  CYS799  TRP800  GLU811  SER814 

> <Gold.Protein.RotatedAtoms>
  150.7094  134.4871  159.5497 H   0  0  0  0  0  0  0  0  0  0  0  0  # atno 6907 bound_to 6896
  152.2496  134.8143  160.0457 H   0  0  0  0  0  0  0  0  0  0  0  0  # atno 6908 bound_to 6896
  151.8895  133.3478  159.3830 H   0  0  0  0  0  0  0  0  0  0  0  0  # atno 6909 bound_to 6896
  144.8910  139.5558  143.5798 H   0  0  0  0  0  0  0  0  0  0  0  0  # atno 7974 bound_to 7965
  154.6205  140.0617  156.9609 H   0  0  0  0  0  0  0  0  0  0  0  0  # atno 8008 bound_to 7997
  155.1825  140.3300  155.4354 H   0  0  0  0  0  0  0  0  0  0  0  0  # atno 8009 bound_to 7997
  156.2429  140.1895  156.6920 H   0  0  0  0  0  0  0  0  0  0  0  0  # atno 8010 bound_to 7997
  140.2816  143.3278  152.0436 H   0  0  0  0  0  0  0  0  0  0  0  0  # atno 10167 bound_to 10162
  156.3042  130.7445  151.1505 H   0  0  0  0  0  0  0  0  0  0  0  0  # atno 10718 bound_to 10713
  154.8575  135.4287  154.2078 H   0  0  0  0  0  0  0  0  0  0  0  0  # atno 10763 bound_to 10752
  153.3111  135.6976  153.7121 H   0  0  0  0  0  0  0  0  0  0  0  0  # atno 10764 bound_to 10752
  153.6213  135.3501  155.2986 H   0  0  0  0  0  0  0  0  0  0  0  0  # atno 10765 bound_to 10752
  139.9892  134.6618  156.0121 H   0  0  0  0  0  0  0  0  0  0  0  0  # atno 11005 bound_to 11000
  146.3054  139.7562  142.9060 LP  0  0  0  0  0  0  0  0  0  0  0  0  # atno 17320 bound_to 7965
  145.3783  141.0354  143.3192 LP  0  0  0  0  0  0  0  0  0  0  0  0  # atno 17321 bound_to 7965
  139.4961  144.6588  151.6512 LP  0  0  0  0  0  0  0  0  0  0  0  0  # atno 17342 bound_to 10162
  140.5807  143.9951  150.6267 LP  0  0  0  0  0  0  0  0  0  0  0  0  # atno 17343 bound_to 10162
  157.7375  131.0551  150.5349 LP  0  0  0  0  0  0  0  0  0  0  0  0  # atno 17370 bound_to 10713
  156.5480  130.4224  149.6121 LP  0  0  0  0  0  0  0  0  0  0  0  0  # atno 17371 bound_to 10713
  141.1551  133.6544  156.4136 LP  0  0  0  0  0  0  0  0  0  0  0  0  # atno 17394 bound_to 11000
  140.4942  134.6547  157.5223 LP  0  0  0  0  0  0  0  0  0  0  0  0  # atno 17395 bound_to 11000

$$$$
