AV-unprocessed.smi:2660|AV-procd|sdf|10315|dock1
  -GOLD-   2272014333D 1   1.00000     0.00000
 Structure written by MMmdl.
 36 37  0  0  0  0  0  0  0  0  1 V2000
  145.6591  142.7913  153.4667 N   0  0  0  0  0  0  0  0  0  0  0  0
  146.0886  142.8669  154.7325 C   0  0  0  0  0  0  0  0  0  0  0  0
  145.4980  143.6106  155.5156 O   0  0  0  0  0  0  0  0  0  0  0  0
  147.2604  142.0123  155.0286 C   0  0  0  0  0  0  0  0  0  0  0  0
  147.9037  141.2976  154.0779 C   0  0  0  0  0  0  0  0  0  0  0  0
  149.0288  140.4716  154.4201 C   0  0  0  0  0  0  0  0  0  0  0  0
  149.5110  140.4730  155.6769 C   0  0  0  0  0  0  0  0  0  0  0  0
  150.6304  139.5080  156.0878 C   0  0  0  0  0  0  0  0  0  0  0  0
  150.9692  138.7023  155.0803 F   0  0  0  0  0  0  0  0  0  0  0  0
  151.7323  140.1667  156.4418 F   0  0  0  0  0  0  0  0  0  0  0  0
  150.2444  138.7194  157.0920 F   0  0  0  0  0  0  0  0  0  0  0  0
  148.8998  141.3005  156.6702 N   0  0  0  0  0  0  0  0  0  0  0  0
  149.5388  141.4857  157.9990 C   0  0  0  0  0  0  0  0  0  0  0  0
  150.6090  142.6088  158.0159 C   0  0  1  0  0  0  0  0  0  0  0  0
  149.9717  143.8360  157.7206 O   0  0  0  0  0  0  0  0  0  0  0  0
  151.4135  142.6583  159.3102 C   0  0  0  0  0  0  0  0  0  0  0  0
  152.1669  141.5427  159.7399 C   0  0  0  0  0  0  0  0  0  0  0  0
  152.9164  141.6060  160.9306 C   0  0  0  0  0  0  0  0  0  0  0  0
  152.9166  142.7837  161.7015 C   0  0  0  0  0  0  0  0  0  0  0  0
  152.1656  143.8979  161.2817 C   0  0  0  0  0  0  0  0  0  0  0  0
  151.4152  143.8344  160.0918 C   0  0  0  0  0  0  0  0  0  0  0  0
  147.7305  141.9876  156.4372 C   0  0  0  0  0  0  0  0  0  0  0  0
  147.1525  142.5593  157.3665 O   0  0  0  0  0  0  0  0  0  0  0  0
  144.8618  143.3389  153.1769 H   0  0  0  0  0  0  0  0  0  0  0  0
  146.1285  142.1878  152.8078 H   0  0  0  0  0  0  0  0  0  0  0  0
  147.5956  141.3092  153.0430 H   0  0  0  0  0  0  0  0  0  0  0  0
  149.4484  139.8273  153.6622 H   0  0  0  0  0  0  0  0  0  0  0  0
  148.7657  141.7054  158.7381 H   0  0  0  0  0  0  0  0  0  0  0  0
  150.0064  140.5870  158.3850 H   0  0  0  0  0  0  0  0  0  0  0  0
  151.3173  142.4552  157.2018 H   0  0  0  0  0  0  0  0  0  0  0  0
  149.6362  143.7953  156.8384 H   0  0  0  0  0  0  0  0  0  0  0  0
  152.1835  140.6355  159.1540 H   0  0  0  0  0  0  0  0  0  0  0  0
  153.4933  140.7510  161.2509 H   0  0  0  0  0  0  0  0  0  0  0  0
  153.4919  142.8320  162.6142 H   0  0  0  0  0  0  0  0  0  0  0  0
  152.1654  144.8020  161.8725 H   0  0  0  0  0  0  0  0  0  0  0  0
  150.8442  144.6957  159.7772 H   0  0  0  0  0  0  0  0  0  0  0  0
  1  2  1  0  0  0  0
  1 24  1  0  0  0  0
  1 25  1  0  0  0  0
  2  3  2  0  0  0  0
  2  4  1  0  0  0  0
  4 22  1  0  0  0  0
  4  5  2  0  0  0  0
  5  6  1  0  0  0  0
  5 26  1  0  0  0  0
  6  7  2  0  0  0  0
  6 27  1  0  0  0  0
  7  8  1  0  0  0  0
  7 12  1  0  0  0  0
  8  9  1  0  0  0  0
  8 10  1  0  0  0  0
  8 11  1  0  0  0  0
 12 13  1  0  0  0  0
 12 22  1  0  0  0  0
 13 14  1  0  0  0  0
 13 28  1  0  0  0  0
 13 29  1  0  0  0  0
 14 15  1  0  0  0  0
 14 16  1  0  0  0  0
 14 30  1  0  0  0  0
 15 31  1  0  0  0  0
 16 21  1  0  0  0  0
 16 17  2  0  0  0  0
 17 18  1  0  0  0  0
 17 32  1  0  0  0  0
 18 19  2  0  0  0  0
 18 33  1  0  0  0  0
 19 20  1  0  0  0  0
 19 34  1  0  0  0  0
 20 21  2  0  0  0  0
 20 35  1  0  0  0  0
 21 36  1  0  0  0  0
 22 23  2  0  0  0  0
M  END
> <s_m_source_file>
AV-unprocessed.smi

> <i_m_source_file_index>
2660

> <i_lp_mmshare_version>
43012

> <i_f3d_flags>
0

> <s_epik_input>
W05IMl1DKD1PKWMxW2NIXVtjSF1jKEMoRikoRilGKW4oYzE9TylbQ0gyXVtDQEhdKFtPSF0pYzJbY0hdW2NIXVtjSF1bY0hdW2NIXTI=

> <s_epik_cmdline>
J2VwaWtfcHl0aG9uJywgJy1waCcsICc3LjAnLCAnLXRuJywgJzgnLCAnLW1hJywgJzIwMCcsICctbWV0YWxfYmluZGluZycsICctaW1hZScsICc8aW5maWxlLm1hZT4nLCAnLW9tYWUnLCAnPG91dGZpbGUubWFlPic=

> <r_lp_tautomer_probability>
1

> <r_epik_Ionization_Penalty>
1.58596e-06

> <r_epik_Ionization_Penalty_Charging>
5.13453e-09

> <r_epik_Ionization_Penalty_Neutral>
1.58083e-06

> <r_epik_State_Penalty>
-0

> <r_epik_Charging_Adjusted_Penalty>
5.13453e-09

> <i_epik_Tot_Q>
0

> <i_epik_Tot_abs_Q>
0

> <r_epik_Metal_State_Penalty>
-0

> <b_epik_Metal_Only>
0

> <s_lp_Force_Field>
OPLS_2005

> <r_lp_Energy>
32.13

> <b_lp_Chiralities_Consistent>
1

> <s_lp_Variant>
AV-unprocessed.smi:2660-2

> <Gold.Version>
5.8.1

> <Gold.Id.Protein>
6NUR|6NUR_protein|mol2

> <Gold.PLP.Fitness>
46.7880

> <Gold.PLP.PLP>
-44.4474

> <Gold.PLP.part.hbond>
-2.3283

> <Gold.PLP.part.metal>
0.0000

> <Gold.PLP.part.buried>
-4.8408

> <Gold.PLP.part.nonpolar>
-37.2514

> <Gold.PLP.part.repulsive>
0.3144

> <Gold.PLP.ligand.clash>
1.8113

> <Gold.PLP.ligand.torsion>
0.4904

> <Gold.PLP.Chemscore.Hbond>
1.0000

> <Gold.PLP.Chemscore.CHOScore>
0.0000

> <Gold.PLP.Chemscore.Metal>
0.0000

> <Gold.Chemscore.Hbonds>
donor molecule, donor type, donor heavy atom, donor atom, acceptor molecule, acceptor atom, score
      L1  H    15    31       P1  8028  0.82

> <Gold.PLP.Chemscore.Internal.Correction>
2.1328

> <Gold.Rescore>
     Score         DG    S(hbond)    S(metal)    S(lipo)     H(rot)  DE(clash)    DE(int)     intcor
     11.03     -14.62       0.77        0.00     104.45       2.21       0.07       3.52       ----

> <Gold.Chemscore.Fitness>
11.0317

> <Gold.Chemscore.DG>
-14.6210

> <Gold.Chemscore.ZeroCoef>
-5.4800

> <Gold.Chemscore.Hbond>
0.7706

> <Gold.Chemscore.Metal>
0.0000

> <Gold.Chemscore.Lipo>
104.4545

> <Gold.Chemscore.Internal_Hbond>
0.0000

> <Gold.Chemscore.DEClash>
0.0720

> <Gold.Chemscore.DEInternal>
3.5173

> <Gold.Chemscore.Rot>
2.2086

> <Gold.Chemscore.Internal.Correction>
   9.000000E+99

> <Gold.Chemscore.Hbonds>
donor molecule, donor type, donor heavy atom, donor atom, acceptor molecule, acceptor atom, score
      L1  H    15    31       P1  8028  0.78

> <Gold.Chemscore.Hbond.Weighted>
-2.5738

> <Gold.Chemscore.Metal.Weighted>
-0.0000

> <Gold.Chemscore.Lipo.Weighted>
-12.2212

> <Gold.Chemscore.Internal_Hbond.Weighted>
0.0000

> <Gold.Chemscore.DEClash.Weighted>
0.0720

> <Gold.Chemscore.DEInternal.Weighted>
3.5173

> <Gold.Chemscore.Rot.Weighted>
5.6540

> <Gold.Chemscore.Internal.Correction.Weighted>
   9.000000E+99

> <Gold.Protein.RotatedTorsions>
[ 6907 6896 6895 6894 ] final -143.59 input  -60.11 | X-H torsion
[ 7974 7965 7964 7962 ] final  148.23 input  175.53 | X-H torsion
[ 8008 7997 7996 7995 ] final  -27.75 input   59.86 | X-H torsion
[ 10167 10162 10161 10158 ] final  178.43 input  -65.29 | X-H torsion
[ 10718 10713 10712 10709 ] final  104.25 input   66.30 | X-H torsion
[ 10763 10752 10751 10750 ] final  164.56 input  -60.55 | X-H torsion
[ 11005 11000 10999 10996 ] final  125.56 input  -57.11 | X-H torsion

> <Gold.Protein.ActiveResidues>
 VAL166  LYS551  ARG553  GLY616  TRP617  ASP618  TYR619  PRO620  LYS621  CYS622 
 ASP623  PHE694  ASN695  SER759  ASP760  ASP761  ALA762  ILE779  LEU786  VAL792 
 PHE793  MET794  SER795  GLU796  ALA797  LYS798  CYS799  TRP800  GLU811  SER814 

> <Gold.Protein.RotatedAtoms>
  151.1026  133.5232  159.2609 H   0  0  0  0  0  0  0  0  0  0  0  0  # atno 6907 bound_to 6896
  151.2057  135.0460  159.8900 H   0  0  0  0  0  0  0  0  0  0  0  0  # atno 6908 bound_to 6896
  152.5444  134.0848  159.8305 H   0  0  0  0  0  0  0  0  0  0  0  0  # atno 6909 bound_to 6896
  144.8529  139.6128  143.5965 H   0  0  0  0  0  0  0  0  0  0  0  0  # atno 7974 bound_to 7965
  154.4363  140.1864  156.0980 H   0  0  0  0  0  0  0  0  0  0  0  0  # atno 8008 bound_to 7997
  156.0314  140.3330  155.7118 H   0  0  0  0  0  0  0  0  0  0  0  0  # atno 8009 bound_to 7997
  155.5834  140.0624  157.2768 H   0  0  0  0  0  0  0  0  0  0  0  0  # atno 8010 bound_to 7997
  139.5294  144.2680  152.0651 H   0  0  0  0  0  0  0  0  0  0  0  0  # atno 10167 bound_to 10162
  157.6746  131.0799  150.5678 H   0  0  0  0  0  0  0  0  0  0  0  0  # atno 10718 bound_to 10713
  154.3108  135.2757  155.2567 H   0  0  0  0  0  0  0  0  0  0  0  0  # atno 10763 bound_to 10752
  154.4963  135.5820  153.6500 H   0  0  0  0  0  0  0  0  0  0  0  0  # atno 10764 bound_to 10752
  152.9888  135.6147  154.3285 H   0  0  0  0  0  0  0  0  0  0  0  0  # atno 10765 bound_to 10752
  139.9413  134.9635  156.8577 H   0  0  0  0  0  0  0  0  0  0  0  0  # atno 11005 bound_to 11000
  146.2800  139.6852  142.9236 LP  0  0  0  0  0  0  0  0  0  0  0  0  # atno 17320 bound_to 7965
  145.4463  141.0425  143.2829 LP  0  0  0  0  0  0  0  0  0  0  0  0  # atno 17321 bound_to 7965
  140.2142  144.4532  150.6372 LP  0  0  0  0  0  0  0  0  0  0  0  0  # atno 17342 bound_to 10162
  140.6461  143.2214  151.6183 LP  0  0  0  0  0  0  0  0  0  0  0  0  # atno 17343 bound_to 10162
  156.5980  130.4347  149.5909 LP  0  0  0  0  0  0  0  0  0  0  0  0  # atno 17370 bound_to 10713
  156.2529  130.6918  151.1662 LP  0  0  0  0  0  0  0  0  0  0  0  0  # atno 17371 bound_to 10713
  140.5946  134.0229  155.7513 LP  0  0  0  0  0  0  0  0  0  0  0  0  # atno 17394 bound_to 11000
  141.1048  133.9711  157.3017 LP  0  0  0  0  0  0  0  0  0  0  0  0  # atno 17395 bound_to 11000

$$$$
