AV-unprocessed.smi:109|AV-procd|sdf|1042|dock10
  -GOLD-   2262018 73D 1   1.00000     0.00000
 Structure written by MMmdl.
 58 61  0  0  0  0  0  0  0  0  1 V2000
  150.8431  139.3811  154.4407 O   0  0  0  0  0  0  0  0  0  0  0  0
  151.7891  138.6972  155.2338 C   0  0  0  0  0  0  0  0  0  0  0  0
  152.2786  139.6139  156.3661 C   0  0  0  0  0  0  0  0  0  0  0  0
  151.1658  139.9759  157.3750 C   0  0  1  0  0  0  0  0  0  0  0  0
  150.6785  138.7621  158.0301 N   0  0  0  0  0  0  0  0  0  0  0  0
  149.3571  138.5170  158.1726 C   0  0  0  0  0  0  0  0  0  0  0  0
  148.4253  139.2663  157.5280 N   0  0  0  0  0  0  0  0  0  0  0  0
  147.1263  139.0003  157.6898 C   0  0  0  0  0  0  0  0  0  0  0  0
  146.5567  138.0502  158.4338 N   0  0  0  0  0  0  0  0  0  0  0  0
  147.4864  137.2923  159.0841 C   0  0  0  0  0  0  0  0  0  0  0  0
  148.8971  137.4615  159.0016 C   0  0  0  0  0  0  0  0  0  0  0  0
  149.5332  136.5119  159.7895 N   0  0  0  0  0  0  0  0  0  0  0  0
  148.5517  135.8246  160.3079 C   0  0  0  0  0  0  0  0  0  0  0  0
  147.2863  136.2235  159.9378 N   0  0  0  0  0  0  0  0  0  0  0  0
  145.9861  135.6176  160.3779 C   0  0  1  0  0  0  0  0  0  0  0  0
  146.2340  134.5230  161.2098 O   0  0  0  0  0  0  0  0  0  0  0  0
  145.6749  134.7390  162.5047 C   0  0  2  0  0  0  0  0  0  0  0  0
  145.2761  133.4075  163.1649 C   0  0  0  0  0  0  0  0  0  0  0  0
  144.3796  132.7020  162.3336 O   0  0  0  0  0  0  0  0  0  0  0  0
  144.5255  135.7251  162.2526 C   0  0  2  0  0  0  0  0  0  0  0  0
  143.3569  135.0550  161.8137 O   0  0  0  0  0  0  0  0  0  0  0  0
  145.0812  136.6041  161.1435 C   0  0  1  0  0  0  0  0  0  0  0  0
  145.7718  137.7157  161.6870 O   0  0  0  0  0  0  0  0  0  0  0  0
  151.5881  141.0394  158.4271 C   0  0  0  0  0  0  0  0  0  0  0  0
  151.6591  142.4669  157.8427 C   0  0  0  0  0  0  0  0  0  0  0  0
  151.9716  143.5043  158.9338 C   0  0  0  0  0  0  0  0  0  0  0  0
  153.2722  143.1571  159.6753 C   0  0  0  0  0  0  0  0  0  0  0  0
  153.2169  141.7360  160.2572 C   0  0  0  0  0  0  0  0  0  0  0  0
  152.9016  140.6983  159.1673 C   0  0  0  0  0  0  0  0  0  0  0  0
  145.5270  135.2562  159.4568 H   0  0  0  0  0  0  0  0  0  0  0  0
  146.4132  135.2493  163.1248 H   0  0  0  0  0  0  0  0  0  0  0  0
  144.2715  136.2926  163.1490 H   0  0  0  0  0  0  0  0  0  0  0  0
  144.3036  136.9818  160.4780 H   0  0  0  0  0  0  0  0  0  0  0  0
  150.4637  138.7686  153.8293 H   0  0  0  0  0  0  0  0  0  0  0  0
  151.3270  137.7970  155.6404 H   0  0  0  0  0  0  0  0  0  0  0  0
  152.6169  138.3813  154.5985 H   0  0  0  0  0  0  0  0  0  0  0  0
  153.1129  139.1378  156.8827 H   0  0  0  0  0  0  0  0  0  0  0  0
  152.6790  140.5199  155.9129 H   0  0  0  0  0  0  0  0  0  0  0  0
  150.3474  140.3995  156.7916 H   0  0  0  0  0  0  0  0  0  0  0  0
  151.3860  138.1970  158.4775 H   0  0  0  0  0  0  0  0  0  0  0  0
  146.4461  139.6396  157.1467 H   0  0  0  0  0  0  0  0  0  0  0  0
  148.7258  134.9977  160.9812 H   0  0  0  0  0  0  0  0  0  0  0  0
  146.1557  132.7776  163.3010 H   0  0  0  0  0  0  0  0  0  0  0  0
  144.8330  133.5676  164.1482 H   0  0  0  0  0  0  0  0  0  0  0  0
  143.9415  132.0448  162.8521 H   0  0  0  0  0  0  0  0  0  0  0  0
  143.0276  135.4975  161.0463 H   0  0  0  0  0  0  0  0  0  0  0  0
  145.1385  138.2996  162.0757 H   0  0  0  0  0  0  0  0  0  0  0  0
  150.8014  141.0692  159.1825 H   0  0  0  0  0  0  0  0  0  0  0  0
  152.4257  142.5282  157.0707 H   0  0  0  0  0  0  0  0  0  0  0  0
  150.7140  142.7199  157.3612 H   0  0  0  0  0  0  0  0  0  0  0  0
  152.0504  144.4972  158.4904 H   0  0  0  0  0  0  0  0  0  0  0  0
  151.1453  143.5476  159.6445 H   0  0  0  0  0  0  0  0  0  0  0  0
  154.1164  143.2385  158.9897 H   0  0  0  0  0  0  0  0  0  0  0  0
  153.4499  143.8788  160.4727 H   0  0  0  0  0  0  0  0  0  0  0  0
  154.1655  141.4940  160.7371 H   0  0  0  0  0  0  0  0  0  0  0  0
  152.4555  141.6894  161.0368 H   0  0  0  0  0  0  0  0  0  0  0  0
  152.8348  139.7090  159.6211 H   0  0  0  0  0  0  0  0  0  0  0  0
  153.7332  140.6611  158.4630 H   0  0  0  0  0  0  0  0  0  0  0  0
  1  2  1  0  0  0  0
  1 34  1  0  0  0  0
  2  3  1  0  0  0  0
  2 35  1  0  0  0  0
  2 36  1  0  0  0  0
  3  4  1  0  0  0  0
  3 37  1  0  0  0  0
  3 38  1  0  0  0  0
  4  5  1  0  0  0  0
  4 24  1  0  0  0  0
  4 39  1  0  0  0  0
  5  6  1  0  0  0  0
  5 40  1  0  0  0  0
  6 11  1  0  0  0  0
  6  7  2  0  0  0  0
  7  8  1  0  0  0  0
  8  9  2  0  0  0  0
  8 41  1  0  0  0  0
  9 10  1  0  0  0  0
 10 14  1  0  0  0  0
 10 11  2  0  0  0  0
 11 12  1  0  0  0  0
 12 13  2  0  0  0  0
 13 14  1  0  0  0  0
 13 42  1  0  0  0  0
 14 15  1  0  0  0  0
 15 30  1  0  0  0  0
 15 22  1  0  0  0  0
 15 16  1  0  0  0  0
 16 17  1  0  0  0  0
 17 31  1  0  0  0  0
 17 18  1  0  0  0  0
 17 20  1  0  0  0  0
 18 19  1  0  0  0  0
 18 43  1  0  0  0  0
 18 44  1  0  0  0  0
 19 45  1  0  0  0  0
 20 32  1  0  0  0  0
 20 21  1  0  0  0  0
 20 22  1  0  0  0  0
 21 46  1  0  0  0  0
 22 33  1  0  0  0  0
 22 23  1  0  0  0  0
 23 47  1  0  0  0  0
 24 29  1  0  0  0  0
 24 25  1  0  0  0  0
 24 48  1  0  0  0  0
 25 26  1  0  0  0  0
 25 49  1  0  0  0  0
 25 50  1  0  0  0  0
 26 27  1  0  0  0  0
 26 51  1  0  0  0  0
 26 52  1  0  0  0  0
 27 28  1  0  0  0  0
 27 53  1  0  0  0  0
 27 54  1  0  0  0  0
 28 29  1  0  0  0  0
 28 55  1  0  0  0  0
 28 56  1  0  0  0  0
 29 57  1  0  0  0  0
 29 58  1  0  0  0  0
M  END
> <s_m_source_file>
AV-unprocessed.smi

> <i_m_source_file_index>
109

> <i_lp_mmshare_version>
43012

> <i_f3d_flags>
0

> <s_epik_input>
W0NIMl0xW0NIMl1bQ0gyXVtDSDJdW0NIMl1bQ0hdMVtDQEhdKFtDSDJdW0NIMl1bT0hdKVtOSF1jKG5bY0hdbjIpYyhjMjMpbltjSF1uM1tDQEBIXTRPW0NASF0oW0NIMl1bT0hdKVtDQEBIXShbT0hdKVtDQEhdNFtPSF0=

> <s_epik_cmdline>
J2VwaWtfcHl0aG9uJywgJy1waCcsICc3LjAnLCAnLXRuJywgJzgnLCAnLW1hJywgJzIwMCcsICctbWV0YWxfYmluZGluZycsICctaW1hZScsICc8aW5maWxlLm1hZT4nLCAnLW9tYWUnLCAnPG91dGZpbGUubWFlPic=

> <r_lp_tautomer_probability>
1

> <r_epik_Ionization_Penalty>
0.000793976

> <r_epik_Ionization_Penalty_Charging>
0

> <r_epik_Ionization_Penalty_Neutral>
0.000793976

> <r_epik_State_Penalty>
-0

> <r_epik_Charging_Adjusted_Penalty>
0

> <i_epik_Tot_Q>
0

> <i_epik_Tot_abs_Q>
0

> <r_epik_Metal_State_Penalty>
-0

> <b_epik_Metal_Only>
0

> <s_epik_Chemistry_Notes>
This compound contains an acetal/aminal-like group ( X-CH(R)-Y where X, Y are N, S, or O) that may be acid/base labile, releasing an aldehyde.

> <s_lp_Force_Field>
OPLS_2005

> <r_lp_Energy>
56.1563

> <b_lp_Chiralities_Consistent>
1

> <s_lp_Variant>
AV-unprocessed.smi:109-12

> <Gold.Version>
5.8.1

> <Gold.Id.Protein>
6NUR|6NUR_protein|mol2

> <Gold.PLP.Fitness>
48.8360

> <Gold.PLP.PLP>
-42.2085

> <Gold.PLP.part.hbond>
-3.5909

> <Gold.PLP.part.metal>
0.0000

> <Gold.PLP.part.buried>
-6.0369

> <Gold.PLP.part.nonpolar>
-33.0886

> <Gold.PLP.part.repulsive>
0.0639

> <Gold.PLP.ligand.clash>
0.0000

> <Gold.PLP.ligand.torsion>
0.4761

> <Gold.PLP.Chemscore.Hbond>
2.4579

> <Gold.PLP.Chemscore.CHOScore>
0.0000

> <Gold.PLP.Chemscore.Metal>
0.0000

> <Gold.Chemscore.Hbonds>
donor molecule, donor type, donor heavy atom, donor atom, acceptor molecule, acceptor atom, score
      P1  H  6896  6909       L1    12  0.78
      P1  H  6934  6947       L1    23  0.80
      P1  H  7989  7998       L1     1  1.00

> <Gold.PLP.Chemscore.Internal.Correction>
0.2058

> <Gold.Rescore>
     Score         DG    S(hbond)    S(metal)    S(lipo)     H(rot)  DE(clash)    DE(int)     intcor
      7.78      -8.31       1.48        0.00     101.55       5.47       0.05       0.47       ----

> <Gold.Chemscore.Fitness>
7.7782

> <Gold.Chemscore.DG>
-8.3061

> <Gold.Chemscore.ZeroCoef>
-5.4800

> <Gold.Chemscore.Hbond>
1.4786

> <Gold.Chemscore.Metal>
0.0000

> <Gold.Chemscore.Lipo>
101.5494

> <Gold.Chemscore.Internal_Hbond>
0.0000

> <Gold.Chemscore.DEClash>
0.0547

> <Gold.Chemscore.DEInternal>
0.4732

> <Gold.Chemscore.Rot>
5.4662

> <Gold.Chemscore.Internal.Correction>
   9.000000E+99

> <Gold.Chemscore.Hbonds>
donor molecule, donor type, donor heavy atom, donor atom, acceptor molecule, acceptor atom, score
      P1  H  6896  6909       L1    12  0.15
      P1  H  6934  6947       L1    23  0.23
      P1  H  7989  7998       L1     1  0.61

> <Gold.Chemscore.Hbond.Weighted>
-4.9384

> <Gold.Chemscore.Metal.Weighted>
-0.0000

> <Gold.Chemscore.Lipo.Weighted>
-11.8813

> <Gold.Chemscore.Internal_Hbond.Weighted>
0.0000

> <Gold.Chemscore.DEClash.Weighted>
0.0547

> <Gold.Chemscore.DEInternal.Weighted>
0.4732

> <Gold.Chemscore.Rot.Weighted>
13.9935

> <Gold.Chemscore.Internal.Correction.Weighted>
   9.000000E+99

> <Gold.Protein.RotatedTorsions>
[ 6907 6896 6895 6894 ] final   83.15 input  -60.11 | X-H torsion
[ 7974 7965 7964 7962 ] final   54.41 input  175.53 | X-H torsion
[ 8008 7997 7996 7995 ] final  166.11 input   59.86 | X-H torsion
[ 10167 10162 10161 10158 ] final  114.09 input  -65.29 | X-H torsion
[ 10718 10713 10712 10709 ] final -144.17 input   66.30 | X-H torsion
[ 10763 10752 10751 10750 ] final   -5.41 input  -60.55 | X-H torsion
[ 11005 11000 10999 10996 ] final -114.66 input  -57.11 | X-H torsion

> <Gold.Protein.ActiveResidues>
 VAL166  LYS551  ARG553  GLY616  TRP617  ASP618  TYR619  PRO620  LYS621  CYS622 
 ASP623  PHE694  ASN695  SER759  ASP760  ASP761  ALA762  ILE779  LEU786  VAL792 
 PHE793  MET794  SER795  GLU796  ALA797  LYS798  CYS799  TRP800  GLU811  SER814 

> <Gold.Protein.RotatedAtoms>
  152.5319  134.2940  159.9053 H   0  0  0  0  0  0  0  0  0  0  0  0  # atno 6907 bound_to 6896
  151.2891  133.4167  159.2639 H   0  0  0  0  0  0  0  0  0  0  0  0  # atno 6908 bound_to 6896
  151.0216  134.9489  159.8119 H   0  0  0  0  0  0  0  0  0  0  0  0  # atno 6909 bound_to 6896
  145.9611  139.4060  143.0247 H   0  0  0  0  0  0  0  0  0  0  0  0  # atno 7974 bound_to 7965
  156.1746  140.1652  156.8386 H   0  0  0  0  0  0  0  0  0  0  0  0  # atno 8008 bound_to 7997
  154.5293  140.0760  156.8349 H   0  0  0  0  0  0  0  0  0  0  0  0  # atno 8009 bound_to 7997
  155.3441  140.3386  155.4241 H   0  0  0  0  0  0  0  0  0  0  0  0  # atno 8010 bound_to 7997
  139.6414  144.7124  151.2230 H   0  0  0  0  0  0  0  0  0  0  0  0  # atno 10167 bound_to 10162
  156.3669  130.7767  151.1943 H   0  0  0  0  0  0  0  0  0  0  0  0  # atno 10718 bound_to 10713
  153.3982  135.7004  153.6445 H   0  0  0  0  0  0  0  0  0  0  0  0  # atno 10763 bound_to 10752
  153.4990  135.3656  155.2530 H   0  0  0  0  0  0  0  0  0  0  0  0  # atno 10764 bound_to 10752
  154.8708  135.4107  154.3312 H   0  0  0  0  0  0  0  0  0  0  0  0  # atno 10765 bound_to 10752
  141.0537  133.9646  157.2791 H   0  0  0  0  0  0  0  0  0  0  0  0  # atno 11005 bound_to 11000
  145.8038  140.9758  143.0984 LP  0  0  0  0  0  0  0  0  0  0  0  0  # atno 17320 bound_to 7965
  144.6815  139.9835  143.7483 LP  0  0  0  0  0  0  0  0  0  0  0  0  # atno 17321 bound_to 7965
  140.7492  143.6306  150.8427 LP  0  0  0  0  0  0  0  0  0  0  0  0  # atno 17342 bound_to 10162
  139.9943  143.5812  152.2899 LP  0  0  0  0  0  0  0  0  0  0  0  0  # atno 17343 bound_to 10162
  157.7480  131.0384  150.4500 LP  0  0  0  0  0  0  0  0  0  0  0  0  # atno 17370 bound_to 10713
  156.4720  130.4055  149.6512 LP  0  0  0  0  0  0  0  0  0  0  0  0  # atno 17371 bound_to 10713
  139.9372  135.0195  156.8594 LP  0  0  0  0  0  0  0  0  0  0  0  0  # atno 17394 bound_to 11000
  140.6005  134.0177  155.7535 LP  0  0  0  0  0  0  0  0  0  0  0  0  # atno 17395 bound_to 11000

$$$$
