AV-unprocessed.smi:2204|AV-procd|sdf|8938|dock8
  -GOLD-   2272012153D 1   1.00000     0.00000
 Structure written by MMmdl.
 39 40  0  0  0  0  0  0  0  0  1 V2000
  153.9086  140.7661  160.9770 C   0  0  0  0  0  0  0  0  0  0  0  0
  153.2824  141.9844  160.3654 C   0  0  0  0  0  0  0  0  0  0  0  0
  153.1106  143.2724  160.9446 C   0  0  0  0  0  0  0  0  0  0  0  0
  152.4913  144.0017  159.9691 C   0  0  0  0  0  0  0  0  0  0  0  0
  152.0463  145.4274  159.9714 C   0  0  0  0  0  0  0  0  0  0  0  0
  152.3187  143.1578  158.8854 N   0  0  0  0  0  0  0  0  0  0  0  0
  151.7051  143.4306  157.5925 C   0  0  0  0  0  0  0  0  0  0  0  0
  150.5308  142.4922  157.2944 C   0  0  0  0  0  0  0  0  0  0  0  0
  149.7257  142.2210  158.1849 O   0  0  0  0  0  0  0  0  0  0  0  0
  150.4559  141.9882  156.0512 N   0  0  0  0  0  0  0  0  0  0  0  0
  149.4348  141.0684  155.5585 C   0  0  1  0  0  0  0  0  0  0  0  0
  148.8133  141.6698  154.2883 C   0  0  0  0  0  0  0  0  0  0  0  0
  150.0590  139.6791  155.3099 C   0  0  2  0  0  0  0  0  0  0  0  0
  150.3861  138.8931  156.5825 C   0  0  0  0  0  0  0  0  0  0  0  0
  151.5160  138.0026  156.1201 C   0  0  0  0  0  0  0  0  0  0  0  0
  152.2869  138.9474  155.2068 C   0  0  0  0  0  0  0  0  0  0  0  0
  151.3064  139.8008  154.6248 O   0  0  0  0  0  0  0  0  0  0  0  0
  152.8066  141.9225  159.1330 N   0  0  0  0  0  0  0  0  0  0  0  0
  154.3863  141.0034  161.9277 H   0  0  0  0  0  0  0  0  0  0  0  0
  154.6693  140.3421  160.3210 H   0  0  0  0  0  0  0  0  0  0  0  0
  153.1614  139.9949  161.1648 H   0  0  0  0  0  0  0  0  0  0  0  0
  153.3992  143.6103  161.9289 H   0  0  0  0  0  0  0  0  0  0  0  0
  152.2392  145.8940  160.9374 H   0  0  0  0  0  0  0  0  0  0  0  0
  150.9777  145.5037  159.7713 H   0  0  0  0  0  0  0  0  0  0  0  0
  152.5767  146.0012  159.2114 H   0  0  0  0  0  0  0  0  0  0  0  0
  151.3582  144.4636  157.5650 H   0  0  0  0  0  0  0  0  0  0  0  0
  152.4644  143.3334  156.8147 H   0  0  0  0  0  0  0  0  0  0  0  0
  151.1659  142.2685  155.3905 H   0  0  0  0  0  0  0  0  0  0  0  0
  148.6398  140.9677  156.2995 H   0  0  0  0  0  0  0  0  0  0  0  0
  148.0018  141.0492  153.9086 H   0  0  0  0  0  0  0  0  0  0  0  0
  149.5533  141.7738  153.4941 H   0  0  0  0  0  0  0  0  0  0  0  0
  148.3982  142.6585  154.4874 H   0  0  0  0  0  0  0  0  0  0  0  0
  149.4002  139.0775  154.6811 H   0  0  0  0  0  0  0  0  0  0  0  0
  150.7407  139.5619  157.3683 H   0  0  0  0  0  0  0  0  0  0  0  0
  149.5334  138.3335  156.9685 H   0  0  0  0  0  0  0  0  0  0  0  0
  152.1204  137.6120  156.9391 H   0  0  0  0  0  0  0  0  0  0  0  0
  151.1228  137.1604  155.5491 H   0  0  0  0  0  0  0  0  0  0  0  0
  152.9763  139.5601  155.7891 H   0  0  0  0  0  0  0  0  0  0  0  0
  152.8619  138.4193  154.4460 H   0  0  0  0  0  0  0  0  0  0  0  0
  1  2  1  0  0  0  0
  1 19  1  0  0  0  0
  1 20  1  0  0  0  0
  1 21  1  0  0  0  0
  2 18  2  0  0  0  0
  2  3  1  0  0  0  0
  3  4  2  0  0  0  0
  3 22  1  0  0  0  0
  4  5  1  0  0  0  0
  4  6  1  0  0  0  0
  5 23  1  0  0  0  0
  5 24  1  0  0  0  0
  5 25  1  0  0  0  0
  6  7  1  0  0  0  0
  6 18  1  0  0  0  0
  7  8  1  0  0  0  0
  7 26  1  0  0  0  0
  7 27  1  0  0  0  0
  8  9  2  0  0  0  0
  8 10  1  0  0  0  0
 10 11  1  0  0  0  0
 10 28  1  0  0  0  0
 11 12  1  0  0  0  0
 11 13  1  0  0  0  0
 11 29  1  0  0  0  0
 12 30  1  0  0  0  0
 12 31  1  0  0  0  0
 12 32  1  0  0  0  0
 13 17  1  0  0  0  0
 13 14  1  0  0  0  0
 13 33  1  0  0  0  0
 14 15  1  0  0  0  0
 14 34  1  0  0  0  0
 14 35  1  0  0  0  0
 15 16  1  0  0  0  0
 15 36  1  0  0  0  0
 15 37  1  0  0  0  0
 16 17  1  0  0  0  0
 16 38  1  0  0  0  0
 16 39  1  0  0  0  0
M  END
> <s_m_source_file>
AV-unprocessed.smi

> <i_m_source_file_index>
2204

> <i_lp_mmshare_version>
43012

> <i_f3d_flags>
0

> <s_epik_input>
W0NIM11jMVtjSF1jKFtDSDNdKW4objEpW0NIMl1DKD1PKVtOSF1bQ0BIXShbQ0gzXSlbQ0BASF0yW0NIMl1bQ0gyXVtDSDJdTzI=

> <s_epik_cmdline>
J2VwaWtfcHl0aG9uJywgJy1waCcsICc3LjAnLCAnLXRuJywgJzgnLCAnLW1hJywgJzIwMCcsICctbWV0YWxfYmluZGluZycsICctaW1hZScsICc8aW5maWxlLm1hZT4nLCAnLW9tYWUnLCAnPG91dGZpbGUubWFlPic=

> <r_lp_tautomer_probability>
1

> <r_epik_Ionization_Penalty>
0.000433354

> <r_epik_Ionization_Penalty_Charging>
0

> <r_epik_Ionization_Penalty_Neutral>
0.000433354

> <r_epik_State_Penalty>
-0

> <r_epik_Charging_Adjusted_Penalty>
0

> <i_epik_Tot_Q>
0

> <i_epik_Tot_abs_Q>
0

> <r_epik_Metal_State_Penalty>
-0

> <b_epik_Metal_Only>
0

> <s_lp_Force_Field>
OPLS_2005

> <r_lp_Energy>
17.6032

> <b_lp_Chiralities_Consistent>
1

> <s_lp_Variant>
AV-unprocessed.smi:2204-2

> <Gold.Version>
5.8.1

> <Gold.Id.Protein>
6NUR|6NUR_protein|mol2

> <Gold.PLP.Fitness>
42.9164

> <Gold.PLP.PLP>
-40.9090

> <Gold.PLP.part.hbond>
-1.5702

> <Gold.PLP.part.metal>
0.0000

> <Gold.PLP.part.buried>
-4.3310

> <Gold.PLP.part.nonpolar>
-35.5319

> <Gold.PLP.part.repulsive>
0.2882

> <Gold.PLP.ligand.clash>
0.0000

> <Gold.PLP.ligand.torsion>
0.5057

> <Gold.PLP.Chemscore.Hbond>
1.0000

> <Gold.PLP.Chemscore.CHOScore>
0.0000

> <Gold.PLP.Chemscore.Metal>
0.0000

> <Gold.Chemscore.Hbonds>
donor molecule, donor type, donor heavy atom, donor atom, acceptor molecule, acceptor atom, score
      P1  H  7989  7998       L1    17  1.00

> <Gold.PLP.Chemscore.Internal.Correction>
0.0189

> <Gold.Rescore>
     Score         DG    S(hbond)    S(metal)    S(lipo)     H(rot)  DE(clash)    DE(int)     intcor
     16.73     -17.26       0.97        0.00     105.74       1.50       0.04       0.49       ----

> <Gold.Chemscore.Fitness>
16.7311

> <Gold.Chemscore.DG>
-17.2550

> <Gold.Chemscore.ZeroCoef>
-5.4800

> <Gold.Chemscore.Hbond>
0.9716

> <Gold.Chemscore.Metal>
0.0000

> <Gold.Chemscore.Lipo>
105.7353

> <Gold.Chemscore.Internal_Hbond>
0.0000

> <Gold.Chemscore.DEClash>
0.0355

> <Gold.Chemscore.DEInternal>
0.4884

> <Gold.Chemscore.Rot>
1.5005

> <Gold.Chemscore.Internal.Correction>
   9.000000E+99

> <Gold.Chemscore.Hbonds>
donor molecule, donor type, donor heavy atom, donor atom, acceptor molecule, acceptor atom, score
      P1  H  7989  7998       L1    17  0.97

> <Gold.Chemscore.Hbond.Weighted>
-3.2452

> <Gold.Chemscore.Metal.Weighted>
-0.0000

> <Gold.Chemscore.Lipo.Weighted>
-12.3710

> <Gold.Chemscore.Internal_Hbond.Weighted>
0.0000

> <Gold.Chemscore.DEClash.Weighted>
0.0355

> <Gold.Chemscore.DEInternal.Weighted>
0.4884

> <Gold.Chemscore.Rot.Weighted>
3.8412

> <Gold.Chemscore.Internal.Correction.Weighted>
   9.000000E+99

> <Gold.Protein.RotatedTorsions>
[ 6907 6896 6895 6894 ] final   90.98 input  -60.11 | X-H torsion
[ 7974 7965 7964 7962 ] final -124.14 input  175.53 | X-H torsion
[ 8008 7997 7996 7995 ] final  -86.57 input   59.86 | X-H torsion
[ 10167 10162 10161 10158 ] final  171.26 input  -65.29 | X-H torsion
[ 10718 10713 10712 10709 ] final -106.83 input   66.30 | X-H torsion
[ 10763 10752 10751 10750 ] final   40.44 input  -60.55 | X-H torsion
[ 11005 11000 10999 10996 ] final   30.58 input  -57.11 | X-H torsion

> <Gold.Protein.ActiveResidues>
 VAL166  LYS551  ARG553  GLY616  TRP617  ASP618  TYR619  PRO620  LYS621  CYS622 
 ASP623  PHE694  ASN695  SER759  ASP760  ASP761  ALA762  ILE779  LEU786  VAL792 
 PHE793  MET794  SER795  GLU796  ALA797  LYS798  CYS799  TRP800  GLU811  SER814 

> <Gold.Protein.RotatedAtoms>
  152.5448  134.1727  159.8603 H   0  0  0  0  0  0  0  0  0  0  0  0  # atno 6907 bound_to 6896
  151.1736  133.4762  159.2601 H   0  0  0  0  0  0  0  0  0  0  0  0  # atno 6908 bound_to 6896
  151.1250  135.0111  159.8611 H   0  0  0  0  0  0  0  0  0  0  0  0  # atno 6909 bound_to 6896
  145.0112  140.7907  143.4437 H   0  0  0  0  0  0  0  0  0  0  0  0  # atno 7974 bound_to 7965
  154.6534  140.0577  156.9981 H   0  0  0  0  0  0  0  0  0  0  0  0  # atno 8008 bound_to 7997
  155.1337  140.3259  155.4449 H   0  0  0  0  0  0  0  0  0  0  0  0  # atno 8009 bound_to 7997
  156.2586  140.1976  156.6455 H   0  0  0  0  0  0  0  0  0  0  0  0  # atno 8010 bound_to 7997
  139.5041  144.3506  151.9927 H   0  0  0  0  0  0  0  0  0  0  0  0  # atno 10167 bound_to 10162
  156.0408  130.5632  150.7735 H   0  0  0  0  0  0  0  0  0  0  0  0  # atno 10718 bound_to 10713
  152.9936  135.6191  154.2626 H   0  0  0  0  0  0  0  0  0  0  0  0  # atno 10763 bound_to 10752
  154.2362  135.2790  155.2873 H   0  0  0  0  0  0  0  0  0  0  0  0  # atno 10764 bound_to 10752
  154.5408  135.5761  153.6896 H   0  0  0  0  0  0  0  0  0  0  0  0  # atno 10765 bound_to 10752
  140.2929  134.2844  155.7771 H   0  0  0  0  0  0  0  0  0  0  0  0  # atno 11005 bound_to 11000
  145.2021  139.2247  143.5187 LP  0  0  0  0  0  0  0  0  0  0  0  0  # atno 17320 bound_to 7965
  146.3470  140.1840  142.8589 LP  0  0  0  0  0  0  0  0  0  0  0  0  # atno 17321 bound_to 7965
  140.2942  144.3719  150.6079 LP  0  0  0  0  0  0  0  0  0  0  0  0  # atno 17342 bound_to 10162
  140.5923  143.2167  151.7230 LP  0  0  0  0  0  0  0  0  0  0  0  0  # atno 17343 bound_to 10162
  157.5222  131.0932  151.0063 LP  0  0  0  0  0  0  0  0  0  0  0  0  # atno 17370 bound_to 10713
  157.0391  130.5742  149.5353 LP  0  0  0  0  0  0  0  0  0  0  0  0  # atno 17371 bound_to 10713
  141.2143  133.7597  156.9652 LP  0  0  0  0  0  0  0  0  0  0  0  0  # atno 17394 bound_to 11000
  140.1179  134.9436  157.2161 LP  0  0  0  0  0  0  0  0  0  0  0  0  # atno 17395 bound_to 11000

$$$$
