AV-unprocessed.smi:2160|AV-procd|sdf|8798|dock6
  -GOLD-   2272011583D 1   1.00000     0.00000
 Structure written by MMmdl.
 43 45  0  0  0  0  0  0  0  0  1 V2000
  142.2876  146.1697  156.2087 C   0  0  0  0  0  0  0  0  0  0  0  0
  143.1260  145.6149  155.2059 O   0  0  0  0  0  0  0  0  0  0  0  0
  143.7357  144.4066  155.4671 C   0  0  0  0  0  0  0  0  0  0  0  0
  143.5740  143.6765  156.6716 C   0  0  0  0  0  0  0  0  0  0  0  0
  144.2420  142.4509  156.8581 C   0  0  0  0  0  0  0  0  0  0  0  0
  145.0847  141.9395  155.8509 C   0  0  0  0  0  0  0  0  0  0  0  0
  145.8223  140.6321  156.0590 C   0  0  0  0  0  0  0  0  0  0  0  0
  147.2260  140.8302  156.0582 O   0  0  0  0  0  0  0  0  0  0  0  0
  147.7614  141.0308  154.7605 C   0  0  0  0  0  0  0  0  0  0  0  0
  149.3000  140.9618  154.8086 C   0  0  1  0  0  0  0  0  0  0  0  0
  149.8091  140.9374  153.4920 O   0  0  0  0  0  0  0  0  0  0  0  0
  149.9899  142.0815  155.6186 C   0  0  0  0  0  0  0  0  0  0  0  0
  150.6916  141.5869  156.7910 N   0  0  0  0  0  0  0  0  0  0  0  0
  150.9347  140.3007  157.1077 C   0  0  0  0  0  0  0  0  0  0  0  0
  151.5889  140.0647  158.2412 N   0  0  0  0  0  0  0  0  0  0  0  0
  151.8060  141.3486  158.7112 C   0  0  0  0  0  0  0  0  0  0  0  0
  152.4524  141.7983  159.8849 C   0  0  0  0  0  0  0  0  0  0  0  0
  152.5575  143.1778  160.1597 C   0  0  0  0  0  0  0  0  0  0  0  0
  152.0213  144.1271  159.2661 C   0  0  0  0  0  0  0  0  0  0  0  0
  151.3710  143.7032  158.0918 C   0  0  0  0  0  0  0  0  0  0  0  0
  151.2643  142.3255  157.8223 C   0  0  0  0  0  0  0  0  0  0  0  0
  145.2403  142.6547  154.6472 C   0  0  0  0  0  0  0  0  0  0  0  0
  144.5704  143.8789  154.4608 C   0  0  0  0  0  0  0  0  0  0  0  0
  141.8957  147.1256  155.8618 H   0  0  0  0  0  0  0  0  0  0  0  0
  142.8390  146.3555  157.1314 H   0  0  0  0  0  0  0  0  0  0  0  0
  141.4363  145.5216  156.4199 H   0  0  0  0  0  0  0  0  0  0  0  0
  142.9455  144.0375  157.4713 H   0  0  0  0  0  0  0  0  0  0  0  0
  144.1138  141.9122  157.7856 H   0  0  0  0  0  0  0  0  0  0  0  0
  145.5072  140.1912  157.0063 H   0  0  0  0  0  0  0  0  0  0  0  0
  145.5460  139.9345  155.2675 H   0  0  0  0  0  0  0  0  0  0  0  0
  147.3968  140.2421  154.1004 H   0  0  0  0  0  0  0  0  0  0  0  0
  147.4199  141.9781  154.3403 H   0  0  0  0  0  0  0  0  0  0  0  0
  149.5695  140.0027  155.2523 H   0  0  0  0  0  0  0  0  0  0  0  0
  149.2518  140.3823  152.9679 H   0  0  0  0  0  0  0  0  0  0  0  0
  150.7001  142.6220  154.9914 H   0  0  0  0  0  0  0  0  0  0  0  0
  149.2507  142.8131  155.9469 H   0  0  0  0  0  0  0  0  0  0  0  0
  150.6031  139.4910  156.4741 H   0  0  0  0  0  0  0  0  0  0  0  0
  152.8685  141.0802  160.5757 H   0  0  0  0  0  0  0  0  0  0  0  0
  153.0526  143.5092  161.0606 H   0  0  0  0  0  0  0  0  0  0  0  0
  152.1026  145.1818  159.4857 H   0  0  0  0  0  0  0  0  0  0  0  0
  150.9505  144.4298  157.4127 H   0  0  0  0  0  0  0  0  0  0  0  0
  145.8804  142.2698  153.8668 H   0  0  0  0  0  0  0  0  0  0  0  0
  144.7019  144.4211  153.5361 H   0  0  0  0  0  0  0  0  0  0  0  0
  1  2  1  0  0  0  0
  1 24  1  0  0  0  0
  1 25  1  0  0  0  0
  1 26  1  0  0  0  0
  2  3  1  0  0  0  0
  3 23  1  0  0  0  0
  3  4  2  0  0  0  0
  4  5  1  0  0  0  0
  4 27  1  0  0  0  0
  5  6  2  0  0  0  0
  5 28  1  0  0  0  0
  6  7  1  0  0  0  0
  6 22  1  0  0  0  0
  7  8  1  0  0  0  0
  7 29  1  0  0  0  0
  7 30  1  0  0  0  0
  8  9  1  0  0  0  0
  9 10  1  0  0  0  0
  9 31  1  0  0  0  0
  9 32  1  0  0  0  0
 10 11  1  0  0  0  0
 10 12  1  0  0  0  0
 10 33  1  0  0  0  0
 11 34  1  0  0  0  0
 12 13  1  0  0  0  0
 12 35  1  0  0  0  0
 12 36  1  0  0  0  0
 13 21  1  0  0  0  0
 13 14  1  0  0  0  0
 14 15  2  0  0  0  0
 14 37  1  0  0  0  0
 15 16  1  0  0  0  0
 16 21  2  0  0  0  0
 16 17  1  0  0  0  0
 17 18  2  0  0  0  0
 17 38  1  0  0  0  0
 18 19  1  0  0  0  0
 18 39  1  0  0  0  0
 19 20  2  0  0  0  0
 19 40  1  0  0  0  0
 20 21  1  0  0  0  0
 20 41  1  0  0  0  0
 22 23  2  0  0  0  0
 22 42  1  0  0  0  0
 23 43  1  0  0  0  0
M  END
> <s_m_source_file>
AV-unprocessed.smi

> <i_m_source_file_index>
2160

> <i_lp_mmshare_version>
43012

> <i_f3d_flags>
0

> <s_epik_input>
W0NIM11PYzFbY0hdW2NIXWMoW2NIXVtjSF0xKVtDSDJdT1tDSDJdW0NASF0oW09IXSlbQ0gyXW4oW2NIXW4yKWMoYzIzKVtjSF1bY0hdW2NIXVtjSF0z

> <s_epik_cmdline>
J2VwaWtfcHl0aG9uJywgJy1waCcsICc3LjAnLCAnLXRuJywgJzgnLCAnLW1hJywgJzIwMCcsICctbWV0YWxfYmluZGluZycsICctaW1hZScsICc8aW5maWxlLm1hZT4nLCAnLW9tYWUnLCAnPG91dGZpbGUubWFlPic=

> <r_lp_tautomer_probability>
1

> <r_epik_Ionization_Penalty>
0.0713119

> <r_epik_Ionization_Penalty_Charging>
0

> <r_epik_Ionization_Penalty_Neutral>
0.0713119

> <r_epik_State_Penalty>
0.06259

> <r_epik_Charging_Adjusted_Penalty>
0.06259

> <i_epik_Tot_Q>
0

> <i_epik_Tot_abs_Q>
0

> <r_epik_Metal_State_Penalty>
6.60119e-05

> <b_epik_Metal_Only>
0

> <s_lp_Force_Field>
OPLS_2005

> <r_lp_Energy>
17.5376

> <b_lp_Chiralities_Consistent>
1

> <s_lp_Variant>
AV-unprocessed.smi:2160-2

> <Gold.Version>
5.8.1

> <Gold.Id.Protein>
6NUR|6NUR_protein|mol2

> <Gold.PLP.Fitness>
53.1094

> <Gold.PLP.PLP>
-50.0956

> <Gold.PLP.part.hbond>
-3.5471

> <Gold.PLP.part.metal>
0.0000

> <Gold.PLP.part.buried>
-3.3179

> <Gold.PLP.part.nonpolar>
-42.9587

> <Gold.PLP.part.repulsive>
0.0996

> <Gold.PLP.ligand.clash>
0.0000

> <Gold.PLP.ligand.torsion>
0.9632

> <Gold.PLP.Chemscore.Hbond>
1.6080

> <Gold.PLP.Chemscore.CHOScore>
0.0000

> <Gold.PLP.Chemscore.Metal>
0.0000

> <Gold.Chemscore.Hbonds>
donor molecule, donor type, donor heavy atom, donor atom, acceptor molecule, acceptor atom, score
      L1  H    11    34       P1  7957  0.43
      P1  H  7989  7998       L1    11  0.29
      P1  H  8011  8017       L1    11  0.85

> <Gold.PLP.Chemscore.Internal.Correction>
0.1162

> <Gold.Rescore>
     Score         DG    S(hbond)    S(metal)    S(lipo)     H(rot)  DE(clash)    DE(int)     intcor
     14.73     -16.80       1.23        0.00     119.09       2.63       0.85       1.22       ----

> <Gold.Chemscore.Fitness>
14.7325

> <Gold.Chemscore.DG>
-16.8009

> <Gold.Chemscore.ZeroCoef>
-5.4800

> <Gold.Chemscore.Hbond>
1.2340

> <Gold.Chemscore.Metal>
0.0000

> <Gold.Chemscore.Lipo>
119.0941

> <Gold.Chemscore.Internal_Hbond>
0.0000

> <Gold.Chemscore.DEClash>
0.8506

> <Gold.Chemscore.DEInternal>
1.2178

> <Gold.Chemscore.Rot>
2.6308

> <Gold.Chemscore.Internal.Correction>
   9.000000E+99

> <Gold.Chemscore.Hbonds>
donor molecule, donor type, donor heavy atom, donor atom, acceptor molecule, acceptor atom, score
      L1  H    11    34       P1  7957  0.44
      P1  H  7989  7998       L1    11  0.24
      P1  H  8011  8017       L1    11  0.14

> <Gold.Chemscore.Hbond.Weighted>
-4.1216

> <Gold.Chemscore.Metal.Weighted>
-0.0000

> <Gold.Chemscore.Lipo.Weighted>
-13.9340

> <Gold.Chemscore.Internal_Hbond.Weighted>
0.0000

> <Gold.Chemscore.DEClash.Weighted>
0.8506

> <Gold.Chemscore.DEInternal.Weighted>
1.2178

> <Gold.Chemscore.Rot.Weighted>
6.7347

> <Gold.Chemscore.Internal.Correction.Weighted>
   9.000000E+99

> <Gold.Protein.RotatedTorsions>
[ 6907 6896 6895 6894 ] final   11.74 input  -60.11 | X-H torsion
[ 7974 7965 7964 7962 ] final    0.06 input  175.53 | X-H torsion
[ 8008 7997 7996 7995 ] final  178.57 input   59.86 | X-H torsion
[ 10167 10162 10161 10158 ] final  128.82 input  -65.29 | X-H torsion
[ 10718 10713 10712 10709 ] final -171.22 input   66.30 | X-H torsion
[ 10763 10752 10751 10750 ] final -169.61 input  -60.55 | X-H torsion
[ 11005 11000 10999 10996 ] final   50.72 input  -57.11 | X-H torsion

> <Gold.Protein.ActiveResidues>
 VAL166  LYS551  ARG553  GLY616  TRP617  ASP618  TYR619  PRO620  LYS621  CYS622 
 ASP623  PHE694  ASN695  SER759  ASP760  ASP761  ALA762  ILE779  LEU786  VAL792 
 PHE793  MET794  SER795  GLU796  ALA797  LYS798  CYS799  TRP800  GLU811  SER814 

> <Gold.Protein.RotatedAtoms>
  151.7592  135.0814  160.0342 H   0  0  0  0  0  0  0  0  0  0  0  0  # atno 6907 bound_to 6896
  152.3365  133.6013  159.5854 H   0  0  0  0  0  0  0  0  0  0  0  0  # atno 6908 bound_to 6896
  150.7453  133.9705  159.3586 H   0  0  0  0  0  0  0  0  0  0  0  0  # atno 6909 bound_to 6896
  146.2431  140.1195  142.8341 H   0  0  0  0  0  0  0  0  0  0  0  0  # atno 7974 bound_to 7965
  156.0532  140.1330  157.0026 H   0  0  0  0  0  0  0  0  0  0  0  0  # atno 8008 bound_to 7997
  154.4445  140.1006  156.6478 H   0  0  0  0  0  0  0  0  0  0  0  0  # atno 8009 bound_to 7997
  155.5491  140.3462  155.4466 H   0  0  0  0  0  0  0  0  0  0  0  0  # atno 8010 bound_to 7997
  139.5508  144.6811  151.4330 H   0  0  0  0  0  0  0  0  0  0  0  0  # atno 10167 bound_to 10162
  156.7377  130.9330  151.3108 H   0  0  0  0  0  0  0  0  0  0  0  0  # atno 10718 bound_to 10713
  154.6505  135.2910  154.9993 H   0  0  0  0  0  0  0  0  0  0  0  0  # atno 10763 bound_to 10752
  154.1088  135.6565  153.4885 H   0  0  0  0  0  0  0  0  0  0  0  0  # atno 10764 bound_to 10752
  153.0374  135.5260  154.7410 H   0  0  0  0  0  0  0  0  0  0  0  0  # atno 10765 bound_to 10752
  140.0994  134.5102  155.8777 H   0  0  0  0  0  0  0  0  0  0  0  0  # atno 11005 bound_to 11000
  145.0419  140.8951  143.5047 LP  0  0  0  0  0  0  0  0  0  0  0  0  # atno 17320 bound_to 7965
  145.1277  139.2652  143.5556 LP  0  0  0  0  0  0  0  0  0  0  0  0  # atno 17321 bound_to 7965
  140.6770  143.8168  150.7071 LP  0  0  0  0  0  0  0  0  0  0  0  0  # atno 17342 bound_to 10162
  140.1609  143.4276  152.2067 LP  0  0  0  0  0  0  0  0  0  0  0  0  # atno 17343 bound_to 10162
  157.6832  130.9160  150.0319 LP  0  0  0  0  0  0  0  0  0  0  0  0  # atno 17370 bound_to 10713
  156.1486  130.3642  149.9473 LP  0  0  0  0  0  0  0  0  0  0  0  0  # atno 17371 bound_to 10713
  141.2101  133.6691  156.6487 LP  0  0  0  0  0  0  0  0  0  0  0  0  # atno 17394 bound_to 11000
  140.3241  134.7983  157.4276 LP  0  0  0  0  0  0  0  0  0  0  0  0  # atno 17395 bound_to 11000

$$$$
