AV-unprocessed.smi:2750|AV-procd|sdf|10589|dock10
  -GOLD-   2272015 43D 1   1.00000     0.00000
 Structure written by MMmdl.
 25 26  0  0  0  0  0  0  0  0  2 V2000
  152.8434  136.4842  158.8261 O   0  0  0  0  0  0  0  0  0  0  0  0
  152.9984  136.4899  157.5855 C   0  0  0  0  0  0  0  0  0  0  0  0
  152.9632  135.4826  156.8443 O   0  5  0  0  0  0  0  0  0  0  0  0
  153.2391  137.8465  156.9194 C   0  0  0  0  0  0  0  0  0  0  0  0
  152.2485  138.1435  155.9008 N   0  0  0  0  0  0  0  0  0  0  0  0
  151.5367  139.3094  155.7087 C   0  0  0  0  0  0  0  0  0  0  0  0
  150.7373  139.0199  154.6404 C   0  0  0  0  0  0  0  0  0  0  0  0
  149.6967  139.8743  153.9812 C   0  0  0  0  0  0  0  0  0  0  0  0
  148.2878  139.2493  154.0383 C   0  0  2  0  0  0  0  0  0  0  0  0
  147.9604  138.4606  152.8620 N   0  0  0  0  0  0  0  0  0  0  0  0
  146.8746  138.9185  152.2251 C   0  0  0  0  0  0  0  0  0  0  0  0
  146.3779  138.4404  151.2080 O   0  0  0  0  0  0  0  0  0  0  0  0
  146.4272  139.9891  152.8904 N   0  0  0  0  0  0  0  0  0  0  0  0
  147.1775  140.2794  153.9519 C   0  0  0  0  0  0  0  0  0  0  0  0
  147.0210  141.2126  154.7370 O   0  0  0  0  0  0  0  0  0  0  0  0
  150.9978  137.7136  154.2267 N   0  0  0  0  0  0  0  0  0  0  0  0
  151.9077  137.1979  154.9921 N   0  0  0  0  0  0  0  0  0  0  0  0
  153.2048  138.6282  157.6788 H   0  0  0  0  0  0  0  0  0  0  0  0
  154.2346  137.8798  156.4730 H   0  0  0  0  0  0  0  0  0  0  0  0
  151.6439  140.1852  156.3314 H   0  0  0  0  0  0  0  0  0  0  0  0
  149.6736  140.8542  154.4595 H   0  0  0  0  0  0  0  0  0  0  0  0
  149.9790  140.0604  152.9435 H   0  0  0  0  0  0  0  0  0  0  0  0
  148.1649  138.6371  154.9329 H   0  0  0  0  0  0  0  0  0  0  0  0
  148.5045  137.6614  152.5694 H   0  0  0  0  0  0  0  0  0  0  0  0
  145.6179  140.5243  152.6118 H   0  0  0  0  0  0  0  0  0  0  0  0
  1  2  2  0  0  0  0
  2  3  1  0  0  0  0
  2  4  1  0  0  0  0
  4  5  1  0  0  0  0
  4 18  1  0  0  0  0
  4 19  1  0  0  0  0
  5 17  1  0  0  0  0
  5  6  1  0  0  0  0
  6  7  2  0  0  0  0
  6 20  1  0  0  0  0
  7  8  1  0  0  0  0
  7 16  1  0  0  0  0
  8  9  1  0  0  0  0
  8 21  1  0  0  0  0
  8 22  1  0  0  0  0
  9 14  1  0  0  0  0
  9 10  1  0  0  0  0
  9 23  1  0  0  0  0
 10 11  1  0  0  0  0
 10 24  1  0  0  0  0
 11 12  2  0  0  0  0
 11 13  1  0  0  0  0
 13 14  1  0  0  0  0
 13 25  1  0  0  0  0
 14 15  2  0  0  0  0
 16 17  2  0  0  0  0
M  CHG  1   3  -1
M  END
> <s_m_source_file>
AV-unprocessed.smi

> <i_m_source_file_index>
2750

> <i_lp_mmshare_version>
43012

> <i_f3d_flags>
0

> <s_epik_input>
Tz1DKFtPSF0pW0NIMl1uMVtjSF1jKG5uMSlbQ0gyXVtDQEBIXTJbTkhdQyg9TylbTkhdQzI9Tw==

> <s_epik_cmdline>
J2VwaWtfcHl0aG9uJywgJy1waCcsICc3LjAnLCAnLXRuJywgJzgnLCAnLW1hJywgJzIwMCcsICctbWV0YWxfYmluZGluZycsICctaW1hZScsICc8aW5maWxlLm1hZT4nLCAnLW9tYWUnLCAnPG91dGZpbGUubWFlPic=

> <r_lp_tautomer_probability>
1

> <r_epik_Ionization_Penalty>
0.019671

> <r_epik_Ionization_Penalty_Charging>
2.66176e-05

> <r_epik_Ionization_Penalty_Neutral>
0.0196444

> <r_epik_State_Penalty>
0.0155882

> <r_epik_Charging_Adjusted_Penalty>
0.0156148

> <i_epik_Tot_Q>
-1

> <i_epik_Tot_abs_Q>
1

> <r_epik_Metal_State_Penalty>
0.396229

> <b_epik_Metal_Only>
0

> <s_lp_Force_Field>
OPLS_2005

> <r_lp_Energy>
13.3356

> <b_lp_Chiralities_Consistent>
1

> <s_lp_Variant>
AV-unprocessed.smi:2750-1

> <Gold.Version>
5.8.1

> <Gold.Id.Protein>
6NUR|6NUR_protein|mol2

> <Gold.PLP.Fitness>
42.4977

> <Gold.PLP.PLP>
-22.8857

> <Gold.PLP.part.hbond>
-6.8970

> <Gold.PLP.part.metal>
0.0000

> <Gold.PLP.part.buried>
-0.0757

> <Gold.PLP.part.nonpolar>
-18.5063

> <Gold.PLP.part.repulsive>
1.8125

> <Gold.PLP.ligand.clash>
0.0000

> <Gold.PLP.ligand.torsion>
0.5252

> <Gold.PLP.Chemscore.Hbond>
6.8773

> <Gold.PLP.Chemscore.CHOScore>
0.0000

> <Gold.PLP.Chemscore.Metal>
0.0000

> <Gold.Chemscore.Hbonds>
donor molecule, donor type, donor heavy atom, donor atom, acceptor molecule, acceptor atom, score
      L1  H    10    24       P1  7948  1.00
      L1  H    13    25       P1 10175  0.90
      P1  H  6896  6907       L1     1  1.36
      P1  H  7954  7966       L1    12  0.36
      P1  H 10752 10763       L1    17  0.37
      P1  H 10752 10764       L1     3  1.89

> <Gold.PLP.Chemscore.Internal.Correction>
0.0305

> <Gold.Rescore>
     Score         DG    S(hbond)    S(metal)    S(lipo)     H(rot)  DE(clash)    DE(int)     intcor
     13.10     -14.86       3.96        0.00      29.09       2.84       0.01       1.76       ----

> <Gold.Chemscore.Fitness>
13.1028

> <Gold.Chemscore.DG>
-14.8647

> <Gold.Chemscore.ZeroCoef>
-5.4800

> <Gold.Chemscore.Hbond>
3.9641

> <Gold.Chemscore.Metal>
0.0000

> <Gold.Chemscore.Lipo>
29.0872

> <Gold.Chemscore.Internal_Hbond>
0.0000

> <Gold.Chemscore.DEClash>
0.0060

> <Gold.Chemscore.DEInternal>
1.7560

> <Gold.Chemscore.Rot>
2.8354

> <Gold.Chemscore.Internal.Correction>
   9.000000E+99

> <Gold.Chemscore.Hbonds>
donor molecule, donor type, donor heavy atom, donor atom, acceptor molecule, acceptor atom, score
      L1  H    10    24       P1  7948  0.99
      L1  H    13    25       P1 10175  0.48
      P1  H  6896  6907       L1     1  0.65
      P1  H  7954  7966       L1    12  0.17
      P1  H 10752 10763       L1    17  0.31
      P1  H 10752 10764       L1     3  0.91

> <Gold.Chemscore.Hbond.Weighted>
-13.2401

> <Gold.Chemscore.Metal.Weighted>
-0.0000

> <Gold.Chemscore.Lipo.Weighted>
-3.4032

> <Gold.Chemscore.Internal_Hbond.Weighted>
0.0000

> <Gold.Chemscore.DEClash.Weighted>
0.0060

> <Gold.Chemscore.DEInternal.Weighted>
1.7560

> <Gold.Chemscore.Rot.Weighted>
7.2586

> <Gold.Chemscore.Internal.Correction.Weighted>
   9.000000E+99

> <Gold.Protein.RotatedTorsions>
[ 6907 6896 6895 6894 ] final   15.49 input  -60.11 | X-H torsion
[ 7974 7965 7964 7962 ] final  -74.34 input  175.53 | X-H torsion
[ 8008 7997 7996 7995 ] final  -69.96 input   59.86 | X-H torsion
[ 10167 10162 10161 10158 ] final  175.02 input  -65.29 | X-H torsion
[ 10718 10713 10712 10709 ] final  138.25 input   66.30 | X-H torsion
[ 10763 10752 10751 10750 ] final   20.09 input  -60.55 | X-H torsion
[ 11005 11000 10999 10996 ] final  -48.33 input  -57.11 | X-H torsion

> <Gold.Protein.ActiveResidues>
 VAL166  LYS551  ARG553  GLY616  TRP617  ASP618  TYR619  PRO620  LYS621  CYS622 
 ASP623  PHE694  ASN695  SER759  ASP760  ASP761  ALA762  ILE779  LEU786  VAL792 
 PHE793  MET794  SER795  GLU796  ALA797  LYS798  CYS799  TRP800  GLU811  SER814 

> <Gold.Protein.RotatedAtoms>
  151.8189  135.0658  160.0422 H   0  0  0  0  0  0  0  0  0  0  0  0  # atno 6907 bound_to 6896
  152.2965  133.5608  159.5599 H   0  0  0  0  0  0  0  0  0  0  0  0  # atno 6908 bound_to 6896
  150.7254  134.0269  159.3762 H   0  0  0  0  0  0  0  0  0  0  0  0  # atno 6909 bound_to 6896
  145.6403  140.9313  143.1039 H   0  0  0  0  0  0  0  0  0  0  0  0  # atno 7974 bound_to 7965
  154.4977  140.0843  156.7731 H   0  0  0  0  0  0  0  0  0  0  0  0  # atno 8008 bound_to 7997
  155.4078  140.3440  155.4243 H   0  0  0  0  0  0  0  0  0  0  0  0  # atno 8009 bound_to 7997
  156.1415  140.1531  156.8901 H   0  0  0  0  0  0  0  0  0  0  0  0  # atno 8010 bound_to 7997
  139.5162  144.3080  152.0318 H   0  0  0  0  0  0  0  0  0  0  0  0  # atno 10167 bound_to 10162
  157.4274  131.1045  151.0288 H   0  0  0  0  0  0  0  0  0  0  0  0  # atno 10718 bound_to 10713
  153.1106  135.6696  153.9507 H   0  0  0  0  0  0  0  0  0  0  0  0  # atno 10763 bound_to 10752
  153.9051  135.3031  155.3450 H   0  0  0  0  0  0  0  0  0  0  0  0  # atno 10764 bound_to 10752
  154.7526  135.5027  153.9393 H   0  0  0  0  0  0  0  0  0  0  0  0  # atno 10765 bound_to 10752
  141.0694  133.6684  156.3425 H   0  0  0  0  0  0  0  0  0  0  0  0  # atno 11005 bound_to 11000
  144.7160  139.8197  143.7398 LP  0  0  0  0  0  0  0  0  0  0  0  0  # atno 17320 bound_to 7965
  146.1286  139.4316  143.0183 LP  0  0  0  0  0  0  0  0  0  0  0  0  # atno 17321 bound_to 7965
  140.2525  144.4153  150.6216 LP  0  0  0  0  0  0  0  0  0  0  0  0  # atno 17342 bound_to 10162
  140.6214  143.2177  151.6686 LP  0  0  0  0  0  0  0  0  0  0  0  0  # atno 17343 bound_to 10162
  157.1196  130.6056  149.5502 LP  0  0  0  0  0  0  0  0  0  0  0  0  # atno 17370 bound_to 10713
  155.9901  130.4951  150.7243 LP  0  0  0  0  0  0  0  0  0  0  0  0  # atno 17371 bound_to 10713
  140.5705  134.5845  157.5456 LP  0  0  0  0  0  0  0  0  0  0  0  0  # atno 17394 bound_to 11000
  139.9508  134.7620  156.0453 LP  0  0  0  0  0  0  0  0  0  0  0  0  # atno 17395 bound_to 11000

$$$$
