AV-unprocessed.smi:415|AV-procd|sdf|2518|dock6
  -GOLD-   2262022473D 1   1.00000     0.00000
 Structure written by MMmdl.
 53 54  0  0  0  0  0  0  0  0  1 V2000
  148.1128  135.8993  160.6946 C   0  0  0  0  0  0  0  0  0  0  0  0
  147.5338  135.0100  159.7565 O   0  0  0  0  0  0  0  0  0  0  0  0
  148.3402  134.8328  158.6038 C   0  0  0  0  0  0  0  0  0  0  0  0
  148.2108  136.0536  157.6786 C   0  0  0  0  0  0  0  0  0  0  0  0
  149.4820  136.4912  157.1327 N   0  0  0  0  0  0  0  0  0  0  0  0
  149.7109  136.6322  155.7669 C   0  0  0  0  0  0  0  0  0  0  0  0
  148.6886  136.3712  154.8722 N   0  0  0  0  0  0  0  0  0  0  0  0
  150.9111  137.0308  155.2905 C   0  0  0  0  0  0  0  0  0  0  0  0
  152.0266  137.3361  156.1751 C   0  0  0  0  0  0  0  0  0  0  0  0
  153.1372  137.6675  155.7594 O   0  0  0  0  0  0  0  0  0  0  0  0
  151.7635  137.2165  157.5589 N   0  0  0  0  0  0  0  0  0  0  0  0
  152.8594  137.4961  158.5169 C   0  0  0  0  0  0  0  0  0  0  0  0
  153.2456  138.9815  158.6394 C   0  0  0  0  0  0  0  0  0  0  0  0
  154.4363  139.2906  158.6385 O   0  0  0  0  0  0  0  0  0  0  0  0
  152.2535  139.8843  158.7304 N   0  0  0  0  0  0  0  0  0  0  0  0
  152.3994  141.3356  158.8027 C   0  0  2  0  0  0  0  0  0  0  0  0
  153.0263  141.6963  160.1630 C   0  0  0  0  0  0  0  0  0  0  0  0
  153.1248  143.2145  160.3649 C   0  0  0  0  0  0  0  0  0  0  0  0
  151.7538  143.8866  160.1906 C   0  0  0  0  0  0  0  0  0  0  0  0
  151.1150  143.5630  158.8246 C   0  0  1  0  0  0  0  0  0  0  0  0
  151.8209  144.3119  157.6759 C   0  0  0  0  0  0  0  0  0  0  0  0
  151.0224  142.0274  158.6197 C   0  0  1  0  0  0  0  0  0  0  0  0
  150.3263  141.6521  157.2960 C   0  0  0  0  0  0  0  0  0  0  0  0
  150.5076  136.8041  158.0618 C   0  0  0  0  0  0  0  0  0  0  0  0
  150.3284  136.7102  159.2791 O   0  0  0  0  0  0  0  0  0  0  0  0
  147.4516  136.0056  161.5546 H   0  0  0  0  0  0  0  0  0  0  0  0
  148.2623  136.8889  160.2608 H   0  0  0  0  0  0  0  0  0  0  0  0
  149.0725  135.5240  161.0523 H   0  0  0  0  0  0  0  0  0  0  0  0
  149.3818  134.7189  158.9074 H   0  0  0  0  0  0  0  0  0  0  0  0
  148.0562  133.9221  158.0743 H   0  0  0  0  0  0  0  0  0  0  0  0
  147.5082  135.8842  156.8613 H   0  0  0  0  0  0  0  0  0  0  0  0
  147.8049  136.9073  158.2207 H   0  0  0  0  0  0  0  0  0  0  0  0
  147.7722  136.0786  155.1804 H   0  0  0  0  0  0  0  0  0  0  0  0
  148.8230  136.4409  153.8737 H   0  0  0  0  0  0  0  0  0  0  0  0
  151.0582  137.1258  154.2241 H   0  0  0  0  0  0  0  0  0  0  0  0
  152.6156  137.1277  159.5145 H   0  0  0  0  0  0  0  0  0  0  0  0
  153.7557  136.9352  158.2476 H   0  0  0  0  0  0  0  0  0  0  0  0
  151.3075  139.5318  158.7245 H   0  0  0  0  0  0  0  0  0  0  0  0
  153.0734  141.6811  158.0175 H   0  0  0  0  0  0  0  0  0  0  0  0
  152.4281  141.2681  160.9692 H   0  0  0  0  0  0  0  0  0  0  0  0
  154.0184  141.2506  160.2467 H   0  0  0  0  0  0  0  0  0  0  0  0
  153.5171  143.4293  161.3594 H   0  0  0  0  0  0  0  0  0  0  0  0
  153.8408  143.6345  159.6579 H   0  0  0  0  0  0  0  0  0  0  0  0
  151.0894  143.5473  160.9866 H   0  0  0  0  0  0  0  0  0  0  0  0
  151.8482  144.9657  160.3182 H   0  0  0  0  0  0  0  0  0  0  0  0
  150.0951  143.9486  158.8562 H   0  0  0  0  0  0  0  0  0  0  0  0
  152.8432  143.9666  157.5249 H   0  0  0  0  0  0  0  0  0  0  0  0
  151.8637  145.3821  157.8800 H   0  0  0  0  0  0  0  0  0  0  0  0
  151.2891  144.1913  156.7325 H   0  0  0  0  0  0  0  0  0  0  0  0
  150.3735  141.6542  159.4141 H   0  0  0  0  0  0  0  0  0  0  0  0
  150.9629  141.8581  156.4355 H   0  0  0  0  0  0  0  0  0  0  0  0
  149.3974  142.2086  157.1682 H   0  0  0  0  0  0  0  0  0  0  0  0
  150.0706  140.5925  157.2662 H   0  0  0  0  0  0  0  0  0  0  0  0
  1  2  1  0  0  0  0
  1 26  1  0  0  0  0
  1 27  1  0  0  0  0
  1 28  1  0  0  0  0
  2  3  1  0  0  0  0
  3  4  1  0  0  0  0
  3 29  1  0  0  0  0
  3 30  1  0  0  0  0
  4  5  1  0  0  0  0
  4 31  1  0  0  0  0
  4 32  1  0  0  0  0
  5 24  1  0  0  0  0
  5  6  1  0  0  0  0
  6  7  1  0  0  0  0
  6  8  2  0  0  0  0
  7 33  1  0  0  0  0
  7 34  1  0  0  0  0
  8  9  1  0  0  0  0
  8 35  1  0  0  0  0
  9 10  2  0  0  0  0
  9 11  1  0  0  0  0
 11 12  1  0  0  0  0
 11 24  1  0  0  0  0
 12 13  1  0  0  0  0
 12 36  1  0  0  0  0
 12 37  1  0  0  0  0
 13 14  2  0  0  0  0
 13 15  1  0  0  0  0
 15 16  1  0  0  0  0
 15 38  1  0  0  0  0
 16 22  1  0  0  0  0
 16 17  1  0  0  0  0
 16 39  1  0  0  0  0
 17 18  1  0  0  0  0
 17 40  1  0  0  0  0
 17 41  1  0  0  0  0
 18 19  1  0  0  0  0
 18 42  1  0  0  0  0
 18 43  1  0  0  0  0
 19 20  1  0  0  0  0
 19 44  1  0  0  0  0
 19 45  1  0  0  0  0
 20 21  1  0  0  0  0
 20 22  1  0  0  0  0
 20 46  1  0  0  0  0
 21 47  1  0  0  0  0
 21 48  1  0  0  0  0
 21 49  1  0  0  0  0
 22 23  1  0  0  0  0
 22 50  1  0  0  0  0
 23 51  1  0  0  0  0
 23 52  1  0  0  0  0
 23 53  1  0  0  0  0
 24 25  2  0  0  0  0
M  END
> <s_m_source_file>
AV-unprocessed.smi

> <i_m_source_file_index>
415

> <i_lp_mmshare_version>
43012

> <i_f3d_flags>
0

> <s_epik_input>
W0NIM11PW0NIMl1bQ0gyXW4xYyhbTkgyXSlbY0hdYyg9TyluKGMxPU8pW0NIMl1DKD1PKVtOSF1bQ0BASF0yW0NIMl1bQ0gyXVtDSDJdW0NAQEhdKFtDSDNdKVtDQEhdMltDSDNd

> <s_epik_cmdline>
J2VwaWtfcHl0aG9uJywgJy1waCcsICc3LjAnLCAnLXRuJywgJzgnLCAnLW1hJywgJzIwMCcsICctbWV0YWxfYmluZGluZycsICctaW1hZScsICc8aW5maWxlLm1hZT4nLCAnLW9tYWUnLCAnPG91dGZpbGUubWFlPic=

> <r_lp_tautomer_probability>
1

> <r_epik_Ionization_Penalty>
8.6647e-06

> <r_epik_Ionization_Penalty_Charging>
1.81162e-08

> <r_epik_Ionization_Penalty_Neutral>
8.64658e-06

> <r_epik_State_Penalty>
-0

> <r_epik_Charging_Adjusted_Penalty>
1.81162e-08

> <i_epik_Tot_Q>
0

> <i_epik_Tot_abs_Q>
0

> <r_epik_Metal_State_Penalty>
-0

> <b_epik_Metal_Only>
0

> <s_lp_Force_Field>
OPLS_2005

> <r_lp_Energy>
23.489

> <b_lp_Chiralities_Consistent>
1

> <s_lp_Variant>
AV-unprocessed.smi:415-1

> <Gold.Version>
5.8.1

> <Gold.Id.Protein>
6NUR|6NUR_protein|mol2

> <Gold.PLP.Fitness>
46.0360

> <Gold.PLP.PLP>
-38.3158

> <Gold.PLP.part.hbond>
-4.0000

> <Gold.PLP.part.metal>
0.0000

> <Gold.PLP.part.buried>
-6.9474

> <Gold.PLP.part.nonpolar>
-28.7992

> <Gold.PLP.part.repulsive>
0.1146

> <Gold.PLP.ligand.clash>
0.0000

> <Gold.PLP.ligand.torsion>
0.7872

> <Gold.PLP.Chemscore.Hbond>
3.0786

> <Gold.PLP.Chemscore.CHOScore>
0.0000

> <Gold.PLP.Chemscore.Metal>
0.0000

> <Gold.Chemscore.Hbonds>
donor molecule, donor type, donor heavy atom, donor atom, acceptor molecule, acceptor atom, score
      L1  H     7    34       P1  7948  1.00
      P1  H  6896  6908       L1    25  1.00
      P1  H  7997  8010       L1    14  1.00
      P1  H 10752 10763       L1    10  0.02

> <Gold.PLP.Chemscore.Internal.Correction>
0.0587

> <Gold.Rescore>
     Score         DG    S(hbond)    S(metal)    S(lipo)     H(rot)  DE(clash)    DE(int)     intcor
     19.82     -20.62       2.88        0.00      96.68       2.26       0.00       0.79       ----

> <Gold.Chemscore.Fitness>
19.8220

> <Gold.Chemscore.DG>
-20.6155

> <Gold.Chemscore.ZeroCoef>
-5.4800

> <Gold.Chemscore.Hbond>
2.8806

> <Gold.Chemscore.Metal>
0.0000

> <Gold.Chemscore.Lipo>
96.6798

> <Gold.Chemscore.Internal_Hbond>
0.0000

> <Gold.Chemscore.DEClash>
0.0009

> <Gold.Chemscore.DEInternal>
0.7927

> <Gold.Chemscore.Rot>
2.2645

> <Gold.Chemscore.Internal.Correction>
   9.000000E+99

> <Gold.Chemscore.Hbonds>
donor molecule, donor type, donor heavy atom, donor atom, acceptor molecule, acceptor atom, score
      L1  H     7    34       P1  7948  0.94
      P1  H  6896  6908       L1    25  0.55
      P1  H  7997  8010       L1    14  0.98

> <Gold.Chemscore.Hbond.Weighted>
-9.6212

> <Gold.Chemscore.Metal.Weighted>
-0.0000

> <Gold.Chemscore.Lipo.Weighted>
-11.3115

> <Gold.Chemscore.Internal_Hbond.Weighted>
0.0000

> <Gold.Chemscore.DEClash.Weighted>
0.0009

> <Gold.Chemscore.DEInternal.Weighted>
0.7927

> <Gold.Chemscore.Rot.Weighted>
5.7972

> <Gold.Chemscore.Internal.Correction.Weighted>
   9.000000E+99

> <Gold.Protein.RotatedTorsions>
[ 6907 6896 6895 6894 ] final -161.27 input  -60.11 | X-H torsion
[ 7974 7965 7964 7962 ] final -141.62 input  175.53 | X-H torsion
[ 8008 7997 7996 7995 ] final   -2.76 input   59.86 | X-H torsion
[ 10167 10162 10161 10158 ] final   63.85 input  -65.29 | X-H torsion
[ 10718 10713 10712 10709 ] final -160.07 input   66.30 | X-H torsion
[ 10763 10752 10751 10750 ] final   94.84 input  -60.55 | X-H torsion
[ 11005 11000 10999 10996 ] final  -57.17 input  -57.11 | X-H torsion

> <Gold.Protein.ActiveResidues>
 VAL166  LYS551  ARG553  GLY616  TRP617  ASP618  TYR619  PRO620  LYS621  CYS622 
 ASP623  PHE694  ASN695  SER759  ASP760  ASP761  ALA762  ILE779  LEU786  VAL792 
 PHE793  MET794  SER795  GLU796  ALA797  LYS798  CYS799  TRP800  GLU811  SER814 

> <Gold.Protein.RotatedAtoms>
  151.3621  133.3886  159.2690 H   0  0  0  0  0  0  0  0  0  0  0  0  # atno 6907 bound_to 6896
  150.9717  134.9090  159.7802 H   0  0  0  0  0  0  0  0  0  0  0  0  # atno 6908 bound_to 6896
  152.5187  134.3583  159.9328 H   0  0  0  0  0  0  0  0  0  0  0  0  # atno 6909 bound_to 6896
  144.8505  140.6057  143.5393 H   0  0  0  0  0  0  0  0  0  0  0  0  # atno 7974 bound_to 7965
  154.6322  140.2526  155.7420 H   0  0  0  0  0  0  0  0  0  0  0  0  # atno 8008 bound_to 7997
  156.2485  140.2904  156.0599 H   0  0  0  0  0  0  0  0  0  0  0  0  # atno 8009 bound_to 7997
  155.1727  140.0387  157.2856 H   0  0  0  0  0  0  0  0  0  0  0  0  # atno 8010 bound_to 7997
  140.1286  144.4664  150.6878 H   0  0  0  0  0  0  0  0  0  0  0  0  # atno 10167 bound_to 10162
  156.5770  130.8713  151.2854 H   0  0  0  0  0  0  0  0  0  0  0  0  # atno 10718 bound_to 10713
  153.2463  135.4275  155.0751 H   0  0  0  0  0  0  0  0  0  0  0  0  # atno 10763 bound_to 10752
  154.8362  135.3415  154.6577 H   0  0  0  0  0  0  0  0  0  0  0  0  # atno 10764 bound_to 10752
  153.6999  135.7029  153.5123 H   0  0  0  0  0  0  0  0  0  0  0  0  # atno 10765 bound_to 10752
  141.1153  133.6610  156.4729 H   0  0  0  0  0  0  0  0  0  0  0  0  # atno 11005 bound_to 11000
  145.4509  139.1523  143.3918 LP  0  0  0  0  0  0  0  0  0  0  0  0  # atno 17320 bound_to 7965
  146.2781  140.4635  142.8787 LP  0  0  0  0  0  0  0  0  0  0  0  0  # atno 17321 bound_to 7965
  140.6830  143.2336  151.5333 LP  0  0  0  0  0  0  0  0  0  0  0  0  # atno 17342 bound_to 10162
  139.5531  144.2344  152.1566 LP  0  0  0  0  0  0  0  0  0  0  0  0  # atno 17343 bound_to 10162
  157.7335  130.9732  150.1982 LP  0  0  0  0  0  0  0  0  0  0  0  0  # atno 17370 bound_to 10713
  156.2664  130.3717  149.8076 LP  0  0  0  0  0  0  0  0  0  0  0  0  # atno 17371 bound_to 10713
  140.4663  134.6794  157.5109 LP  0  0  0  0  0  0  0  0  0  0  0  0  # atno 17394 bound_to 11000
  140.0071  134.6747  155.9438 LP  0  0  0  0  0  0  0  0  0  0  0  0  # atno 17395 bound_to 11000

$$$$
