AV-unprocessed.smi:2083|AV-procd|sdf|8505|dock4
  -GOLD-   2272011213D 1   1.00000     0.00000
 Structure written by MMmdl.
 44 45  0  0  0  0  0  0  0  0  3 V2000
  152.4599  140.3794  158.4311 C   0  0  0  0  0  0  0  0  0  0  0  0
  152.0116  139.8874  157.0973 C   0  0  0  0  0  0  0  0  0  0  0  0
  150.8349  140.0038  156.4134 C   0  0  0  0  0  0  0  0  0  0  0  0
  151.0885  139.2950  155.2074 C   0  0  0  0  0  0  0  0  0  0  0  0
  150.2271  139.1345  154.1911 N   0  5  0  0  0  0  0  0  0  0  0  0
  148.8953  139.1168  154.4238 C   0  0  0  0  0  0  0  0  0  0  0  0
  148.2785  139.8420  155.2077 O   0  0  0  0  0  0  0  0  0  0  0  0
  148.2336  138.2060  153.6958 N   0  0  0  0  0  0  0  0  0  0  0  0
  146.7914  137.9806  153.7184 C   0  0  0  0  0  0  0  0  0  0  0  0
  146.4186  136.4823  153.9015 C   0  0  1  0  0  0  0  0  0  0  0  0
  145.1815  136.3446  154.8166 C   0  0  0  0  0  0  0  0  0  0  0  0
  146.1827  135.7388  152.6204 N   0  3  2  0  0  0  0  0  0  0  0  0
  145.0728  136.3404  151.8279 C   0  0  0  0  0  0  0  0  0  0  0  0
  144.9722  135.7158  150.4290 C   0  0  0  0  0  0  0  0  0  0  0  0
  144.7726  134.2009  150.5271 C   0  0  0  0  0  0  0  0  0  0  0  0
  145.9024  133.5777  151.3599 C   0  0  2  0  0  0  0  0  0  0  0  0
  145.7216  132.0593  151.4987 C   0  0  0  0  0  0  0  0  0  0  0  0
  146.0052  134.2614  152.7397 C   0  0  0  0  0  0  0  0  0  0  0  0
  152.3163  138.8063  155.1564 N   0  0  0  0  0  0  0  0  0  0  0  0
  152.9132  139.1769  156.3674 O   0  0  0  0  0  0  0  0  0  0  0  0
  152.5244  141.4675  158.4385 H   0  0  0  0  0  0  0  0  0  0  0  0
  153.4413  139.9803  158.6883 H   0  0  0  0  0  0  0  0  0  0  0  0
  151.7589  140.0766  159.2088 H   0  0  0  0  0  0  0  0  0  0  0  0
  149.9351  140.5117  156.7259 H   0  0  0  0  0  0  0  0  0  0  0  0
  148.7783  137.6293  153.0710 H   0  0  0  0  0  0  0  0  0  0  0  0
  146.3771  138.5749  154.5333 H   0  0  0  0  0  0  0  0  0  0  0  0
  146.3831  138.3852  152.7911 H   0  0  0  0  0  0  0  0  0  0  0  0
  147.2640  136.0044  154.3990 H   0  0  0  0  0  0  0  0  0  0  0  0
  145.3476  136.8018  155.7920 H   0  0  0  0  0  0  0  0  0  0  0  0
  144.9175  135.3062  155.0097 H   0  0  0  0  0  0  0  0  0  0  0  0
  144.3107  136.8272  154.3720 H   0  0  0  0  0  0  0  0  0  0  0  0
  144.1312  136.2044  152.3629 H   0  0  0  0  0  0  0  0  0  0  0  0
  145.2118  137.4146  151.7172 H   0  0  0  0  0  0  0  0  0  0  0  0
  144.1436  136.1642  149.8800 H   0  0  0  0  0  0  0  0  0  0  0  0
  145.8769  135.9356  149.8603 H   0  0  0  0  0  0  0  0  0  0  0  0
  143.8064  133.9854  150.9857 H   0  0  0  0  0  0  0  0  0  0  0  0
  144.7501  133.7631  149.5283 H   0  0  0  0  0  0  0  0  0  0  0  0
  146.8419  133.7480  150.8316 H   0  0  0  0  0  0  0  0  0  0  0  0
  144.7974  131.8163  152.0242 H   0  0  0  0  0  0  0  0  0  0  0  0
  146.5472  131.6141  152.0546 H   0  0  0  0  0  0  0  0  0  0  0  0
  145.6859  131.5769  150.5214 H   0  0  0  0  0  0  0  0  0  0  0  0
  146.8594  133.8164  153.2487 H   0  0  0  0  0  0  0  0  0  0  0  0
  145.1194  134.0475  153.3402 H   0  0  0  0  0  0  0  0  0  0  0  0
  147.0258  135.8615  152.0785 H   0  0  0  0  0  0  0  0  0  0  0  0
  1  2  1  0  0  0  0
  1 21  1  0  0  0  0
  1 22  1  0  0  0  0
  1 23  1  0  0  0  0
  2 20  1  0  0  0  0
  2  3  2  0  0  0  0
  3  4  1  0  0  0  0
  3 24  1  0  0  0  0
  4  5  1  0  0  0  0
  4 19  2  0  0  0  0
  5  6  1  0  0  0  0
  6  7  2  0  0  0  0
  6  8  1  0  0  0  0
  8  9  1  0  0  0  0
  8 25  1  0  0  0  0
  9 10  1  0  0  0  0
  9 26  1  0  0  0  0
  9 27  1  0  0  0  0
 10 11  1  0  0  0  0
 10 12  1  0  0  0  0
 10 28  1  0  0  0  0
 11 29  1  0  0  0  0
 11 30  1  0  0  0  0
 11 31  1  0  0  0  0
 12 18  1  0  0  0  0
 12 13  1  0  0  0  0
 12 44  1  0  0  0  0
 13 14  1  0  0  0  0
 13 32  1  0  0  0  0
 13 33  1  0  0  0  0
 14 15  1  0  0  0  0
 14 34  1  0  0  0  0
 14 35  1  0  0  0  0
 15 16  1  0  0  0  0
 15 36  1  0  0  0  0
 15 37  1  0  0  0  0
 16 17  1  0  0  0  0
 16 18  1  0  0  0  0
 16 38  1  0  0  0  0
 17 39  1  0  0  0  0
 17 40  1  0  0  0  0
 17 41  1  0  0  0  0
 18 42  1  0  0  0  0
 18 43  1  0  0  0  0
 19 20  1  0  0  0  0
M  CHG  1   5  -1
M  CHG  1  12   1
M  END
> <s_m_source_file>
AV-unprocessed.smi

> <i_m_source_file_index>
2083

> <i_lp_mmshare_version>
43012

> <i_f3d_flags>
0

> <s_epik_input>
W0NIM11jMVtjSF1jKG5vMSlbTkhdQyg9TylbTkhdW0NIMl1bQ0BIXShbQ0gzXSlOMltDSDJdW0NIMl1bQ0gyXVtDQEBIXShbQ0gzXSlbQ0gyXTI=

> <s_epik_cmdline>
J2VwaWtfcHl0aG9uJywgJy1waCcsICc3LjAnLCAnLXRuJywgJzgnLCAnLW1hJywgJzIwMCcsICctbWV0YWxfYmluZGluZycsICctaW1hZScsICc8aW5maWxlLm1hZT4nLCAnLW9tYWUnLCAnPG91dGZpbGUubWFlPic=

> <r_epik_Ionization_Penalty>
6.22434

> <r_epik_Ionization_Penalty_Charging>
6.22425

> <r_epik_Ionization_Penalty_Neutral>
9.62407e-05

> <r_epik_State_Penalty>
6.22423

> <r_epik_Charging_Adjusted_Penalty>
12.4485

> <i_epik_Tot_Q>
0

> <i_epik_Tot_abs_Q>
2

> <r_epik_Metal_State_Penalty>
2.16764

> <b_epik_Metal_Only>
1

> <s_lp_Force_Field>
OPLS_2005

> <r_lp_Energy>
9.644

> <b_lp_Chiralities_Consistent>
1

> <s_lp_Variant>
AV-unprocessed.smi:2083-16

> <Gold.Version>
5.8.1

> <Gold.Id.Protein>
6NUR|6NUR_protein|mol2

> <Gold.PLP.Fitness>
38.9416

> <Gold.PLP.PLP>
-28.8642

> <Gold.PLP.part.hbond>
-4.1600

> <Gold.PLP.part.metal>
0.0000

> <Gold.PLP.part.buried>
-3.5232

> <Gold.PLP.part.nonpolar>
-22.0602

> <Gold.PLP.part.repulsive>
0.8337

> <Gold.PLP.ligand.clash>
0.0000

> <Gold.PLP.ligand.torsion>
1.0436

> <Gold.PLP.Chemscore.Hbond>
4.0000

> <Gold.PLP.Chemscore.CHOScore>
0.0000

> <Gold.PLP.Chemscore.Metal>
0.0000

> <Gold.Chemscore.Hbonds>
donor molecule, donor type, donor heavy atom, donor atom, acceptor molecule, acceptor atom, score
      L1  H     8    25       P1  7948  1.00
      L1  H    12    44       P1  7948  2.00
      P1  H  7997  8008       L1    20  1.00

> <Gold.PLP.Chemscore.Internal.Correction>
0.1646

> <Gold.Rescore>
     Score         DG    S(hbond)    S(metal)    S(lipo)     H(rot)  DE(clash)    DE(int)     intcor
     15.82     -18.34       2.93        0.00      59.43       1.52       0.08       2.44       ----

> <Gold.Chemscore.Fitness>
15.8203

> <Gold.Chemscore.DG>
-18.3390

> <Gold.Chemscore.ZeroCoef>
-5.4800

> <Gold.Chemscore.Hbond>
2.9323

> <Gold.Chemscore.Metal>
0.0000

> <Gold.Chemscore.Lipo>
59.4337

> <Gold.Chemscore.Internal_Hbond>
0.0000

> <Gold.Chemscore.DEClash>
0.0811

> <Gold.Chemscore.DEInternal>
2.4376

> <Gold.Chemscore.Rot>
1.5190

> <Gold.Chemscore.Internal.Correction>
   9.000000E+99

> <Gold.Chemscore.Hbonds>
donor molecule, donor type, donor heavy atom, donor atom, acceptor molecule, acceptor atom, score
      L1  H     8    25       P1  7948  0.97
      L1  H    12    44       P1  7948  0.97
      P1  H  7997  8008       L1    20  0.40

> <Gold.Chemscore.Hbond.Weighted>
-9.7939

> <Gold.Chemscore.Metal.Weighted>
-0.0000

> <Gold.Chemscore.Lipo.Weighted>
-6.9537

> <Gold.Chemscore.Internal_Hbond.Weighted>
0.0000

> <Gold.Chemscore.DEClash.Weighted>
0.0811

> <Gold.Chemscore.DEInternal.Weighted>
2.4376

> <Gold.Chemscore.Rot.Weighted>
3.8886

> <Gold.Chemscore.Internal.Correction.Weighted>
   9.000000E+99

> <Gold.Protein.RotatedTorsions>
[ 6907 6896 6895 6894 ] final   -5.00 input  -60.11 | X-H torsion
[ 7974 7965 7964 7962 ] final  -85.70 input  175.53 | X-H torsion
[ 8008 7997 7996 7995 ] final  -58.64 input   59.86 | X-H torsion
[ 10167 10162 10161 10158 ] final  118.51 input  -65.29 | X-H torsion
[ 10718 10713 10712 10709 ] final -103.99 input   66.30 | X-H torsion
[ 10763 10752 10751 10750 ] final  104.11 input  -60.55 | X-H torsion
[ 11005 11000 10999 10996 ] final -118.02 input  -57.11 | X-H torsion

> <Gold.Protein.ActiveResidues>
 VAL166  LYS551  ARG553  GLY616  TRP617  ASP618  TYR619  PRO620  LYS621  CYS622 
 ASP623  PHE694  ASN695  SER759  ASP760  ASP761  ALA762  ILE779  LEU786  VAL792 
 PHE793  MET794  SER795  GLU796  ALA797  LYS798  CYS799  TRP800  GLU811  SER814 

> <Gold.Protein.RotatedAtoms>
  151.4887  135.1056  159.9797 H   0  0  0  0  0  0  0  0  0  0  0  0  # atno 6907 bound_to 6896
  152.4750  133.8113  159.7015 H   0  0  0  0  0  0  0  0  0  0  0  0  # atno 6908 bound_to 6896
  150.8782  133.7347  159.2966 H   0  0  0  0  0  0  0  0  0  0  0  0  # atno 6909 bound_to 6896
  145.4898  140.9553  143.1818 H   0  0  0  0  0  0  0  0  0  0  0  0  # atno 7974 bound_to 7965
  154.4317  140.1079  156.5989 H   0  0  0  0  0  0  0  0  0  0  0  0  # atno 8008 bound_to 7997
  155.5932  140.3492  155.4554 H   0  0  0  0  0  0  0  0  0  0  0  0  # atno 8009 bound_to 7997
  156.0230  140.1244  157.0327 H   0  0  0  0  0  0  0  0  0  0  0  0  # atno 8010 bound_to 7997
  139.6106  144.7081  151.2852 H   0  0  0  0  0  0  0  0  0  0  0  0  # atno 10167 bound_to 10162
  156.0286  130.5493  150.7331 H   0  0  0  0  0  0  0  0  0  0  0  0  # atno 10718 bound_to 10713
  153.3616  135.3954  155.1722 H   0  0  0  0  0  0  0  0  0  0  0  0  # atno 10763 bound_to 10752
  154.8680  135.3681  154.5093 H   0  0  0  0  0  0  0  0  0  0  0  0  # atno 10764 bound_to 10752
  153.5552  135.7082  153.5633 H   0  0  0  0  0  0  0  0  0  0  0  0  # atno 10765 bound_to 10752
  141.0314  133.9975  157.3137 H   0  0  0  0  0  0  0  0  0  0  0  0  # atno 11005 bound_to 11000
  144.7840  139.6465  143.7142 LP  0  0  0  0  0  0  0  0  0  0  0  0  # atno 17320 bound_to 7965
  146.2291  139.5779  142.9567 LP  0  0  0  0  0  0  0  0  0  0  0  0  # atno 17321 bound_to 7965
  140.7316  143.6846  150.7973 LP  0  0  0  0  0  0  0  0  0  0  0  0  # atno 17342 bound_to 10162
  140.0439  143.5317  152.2705 LP  0  0  0  0  0  0  0  0  0  0  0  0  # atno 17343 bound_to 10162
  157.4919  131.0911  151.0417 LP  0  0  0  0  0  0  0  0  0  0  0  0  # atno 17370 bound_to 10713
  157.0821  130.5907  149.5422 LP  0  0  0  0  0  0  0  0  0  0  0  0  # atno 17371 bound_to 10713
  139.9211  135.0200  156.8066 LP  0  0  0  0  0  0  0  0  0  0  0  0  # atno 17394 bound_to 11000
  140.6399  133.9828  155.7702 LP  0  0  0  0  0  0  0  0  0  0  0  0  # atno 17395 bound_to 11000

$$$$
