AV-unprocessed.smi:2968|AV-procd|sdf|11328|dock5
  -GOLD-   2272016233D 1   1.00000     0.00000
 Structure written by MMmdl.
 45 46  0  0  0  0  0  0  0  0  1 V2000
  149.0649  132.3278  159.1449 O   0  0  0  0  0  0  0  0  0  0  0  0
  148.7175  133.6396  158.5761 S   0  0  0  0  0  0  0  0  0  0  0  0
  149.7810  134.6077  158.2645 O   0  0  0  0  0  0  0  0  0  0  0  0
  147.7550  133.3695  157.0946 C   0  0  0  0  0  0  0  0  0  0  0  0
  147.4433  132.0635  156.6715 C   0  0  0  0  0  0  0  0  0  0  0  0
  146.6600  131.9056  155.5115 C   0  0  0  0  0  0  0  0  0  0  0  0
  146.2085  133.0580  154.8330 C   0  0  0  0  0  0  0  0  0  0  0  0
  145.3834  132.8971  153.7105 N   0  0  0  0  0  0  0  0  0  0  0  0
  145.3188  133.9781  152.7313 C   0  0  0  0  0  0  0  0  0  0  0  0
  146.2075  133.7091  151.5048 C   0  0  0  0  0  0  0  0  0  0  0  0
  146.0573  132.3553  151.1133 O   0  0  0  0  0  0  0  0  0  0  0  0
  145.1440  132.1659  150.0487 C   0  0  0  0  0  0  0  0  0  0  0  0
  143.7222  132.2015  150.6228 C   0  0  0  0  0  0  0  0  0  0  0  0
  142.7801  131.9485  149.6012 O   0  0  0  0  0  0  0  0  0  0  0  0
  146.5228  134.3133  155.2361 N   0  0  0  0  0  0  0  0  0  0  0  0
  147.2698  134.4620  156.3504 C   0  0  0  0  0  0  0  0  0  0  0  0
  147.5940  134.4113  159.6591 N   0  0  0  0  0  0  0  0  0  0  0  0
  147.0128  133.6459  160.7816 C   0  0  0  0  0  0  0  0  0  0  0  0
  147.7185  133.9625  162.1124 C   0  0  0  0  0  0  0  0  0  0  0  0
  147.7321  135.4699  162.3875 C   0  0  0  0  0  0  0  0  0  0  0  0
  148.3841  136.2025  161.2102 C   0  0  0  0  0  0  0  0  0  0  0  0
  147.6746  135.8696  159.8851 C   0  0  0  0  0  0  0  0  0  0  0  0
  147.7933  131.2010  157.2187 H   0  0  0  0  0  0  0  0  0  0  0  0
  146.3950  130.9175  155.1647 H   0  0  0  0  0  0  0  0  0  0  0  0
  144.5198  132.3978  153.8661 H   0  0  0  0  0  0  0  0  0  0  0  0
  144.2897  134.1811  152.4328 H   0  0  0  0  0  0  0  0  0  0  0  0
  145.6721  134.8797  153.2319 H   0  0  0  0  0  0  0  0  0  0  0  0
  145.9048  134.3504  150.6761 H   0  0  0  0  0  0  0  0  0  0  0  0
  147.2486  133.9428  151.7348 H   0  0  0  0  0  0  0  0  0  0  0  0
  145.2728  132.9774  149.3310 H   0  0  0  0  0  0  0  0  0  0  0  0
  145.3280  131.2286  149.5207 H   0  0  0  0  0  0  0  0  0  0  0  0
  143.6042  131.4837  151.4350 H   0  0  0  0  0  0  0  0  0  0  0  0
  143.5122  133.1903  151.0306 H   0  0  0  0  0  0  0  0  0  0  0  0
  142.1638  132.6646  149.5763 H   0  0  0  0  0  0  0  0  0  0  0  0
  147.4894  135.4772  156.6459 H   0  0  0  0  0  0  0  0  0  0  0  0
  145.9557  133.9013  160.8605 H   0  0  0  0  0  0  0  0  0  0  0  0
  147.0554  132.5769  160.5749 H   0  0  0  0  0  0  0  0  0  0  0  0
  147.2170  133.4422  162.9285 H   0  0  0  0  0  0  0  0  0  0  0  0
  148.7404  133.5860  162.0940 H   0  0  0  0  0  0  0  0  0  0  0  0
  146.7130  135.8307  162.5315 H   0  0  0  0  0  0  0  0  0  0  0  0
  148.2741  135.6803  163.3098 H   0  0  0  0  0  0  0  0  0  0  0  0
  148.3557  137.2787  161.3824 H   0  0  0  0  0  0  0  0  0  0  0  0
  149.4373  135.9319  161.1512 H   0  0  0  0  0  0  0  0  0  0  0  0
  148.1801  136.3560  159.0513 H   0  0  0  0  0  0  0  0  0  0  0  0
  146.6606  136.2702  159.9051 H   0  0  0  0  0  0  0  0  0  0  0  0
  1  2  2  0  0  0  0
  2  3  2  0  0  0  0
  2  4  1  0  0  0  0
  2 17  1  0  0  0  0
  4 16  1  0  0  0  0
  4  5  2  0  0  0  0
  5  6  1  0  0  0  0
  5 23  1  0  0  0  0
  6  7  2  0  0  0  0
  6 24  1  0  0  0  0
  7  8  1  0  0  0  0
  7 15  1  0  0  0  0
  8  9  1  0  0  0  0
  8 25  1  0  0  0  0
  9 10  1  0  0  0  0
  9 26  1  0  0  0  0
  9 27  1  0  0  0  0
 10 11  1  0  0  0  0
 10 28  1  0  0  0  0
 10 29  1  0  0  0  0
 11 12  1  0  0  0  0
 12 13  1  0  0  0  0
 12 30  1  0  0  0  0
 12 31  1  0  0  0  0
 13 14  1  0  0  0  0
 13 32  1  0  0  0  0
 13 33  1  0  0  0  0
 14 34  1  0  0  0  0
 15 16  2  0  0  0  0
 16 35  1  0  0  0  0
 17 22  1  0  0  0  0
 17 18  1  0  0  0  0
 18 19  1  0  0  0  0
 18 36  1  0  0  0  0
 18 37  1  0  0  0  0
 19 20  1  0  0  0  0
 19 38  1  0  0  0  0
 19 39  1  0  0  0  0
 20 21  1  0  0  0  0
 20 40  1  0  0  0  0
 20 41  1  0  0  0  0
 21 22  1  0  0  0  0
 21 42  1  0  0  0  0
 21 43  1  0  0  0  0
 22 44  1  0  0  0  0
 22 45  1  0  0  0  0
M  END
> <s_m_source_file>
AV-unprocessed.smi

> <i_m_source_file_index>
2968

> <i_lp_mmshare_version>
43012

> <i_f3d_flags>
0

> <s_epik_input>
W0NIMl0xW0NIMl1bQ0gyXVtDSDJdW0NIMl1OMVMoPU8pKD1PKWMyW2NIXVtjSF1jKG5bY0hdMilbTkhdW0NIMl1bQ0gyXU9bQ0gyXVtDSDJdW09IXQ==

> <s_epik_cmdline>
J2VwaWtfcHl0aG9uJywgJy1waCcsICc3LjAnLCAnLXRuJywgJzgnLCAnLW1hJywgJzIwMCcsICctbWV0YWxfYmluZGluZycsICctaW1hZScsICc8aW5maWxlLm1hZT4nLCAnLW9tYWUnLCAnPG91dGZpbGUubWFlPic=

> <r_lp_tautomer_probability>
1

> <r_epik_Ionization_Penalty>
0.000398056

> <r_epik_Ionization_Penalty_Charging>
0

> <r_epik_Ionization_Penalty_Neutral>
0.000398056

> <r_epik_State_Penalty>
0.00024364

> <r_epik_Charging_Adjusted_Penalty>
0.00024364

> <i_epik_Tot_Q>
0

> <i_epik_Tot_abs_Q>
0

> <r_epik_Metal_State_Penalty>
-0

> <b_epik_Metal_Only>
0

> <s_lp_Force_Field>
OPLS_2005

> <r_lp_Energy>
3.3881

> <b_lp_Chiralities_Consistent>
1

> <s_lp_Variant>
AV-unprocessed.smi:2968-1

> <Gold.Version>
5.8.1

> <Gold.Id.Protein>
6NUR|6NUR_protein|mol2

> <Gold.PLP.Fitness>
42.2733

> <Gold.PLP.PLP>
-32.1504

> <Gold.PLP.part.hbond>
-4.9232

> <Gold.PLP.part.metal>
0.0000

> <Gold.PLP.part.buried>
-6.3224

> <Gold.PLP.part.nonpolar>
-22.2652

> <Gold.PLP.part.repulsive>
0.1607

> <Gold.PLP.ligand.clash>
0.0000

> <Gold.PLP.ligand.torsion>
2.7560

> <Gold.PLP.Chemscore.Hbond>
3.8195

> <Gold.PLP.Chemscore.CHOScore>
0.0000

> <Gold.PLP.Chemscore.Metal>
0.0000

> <Gold.Chemscore.Hbonds>
donor molecule, donor type, donor heavy atom, donor atom, acceptor molecule, acceptor atom, score
      L1  H     8    25       P1 10957  0.71
      L1  H    14    34       P1 10186  0.84
      P1  H  6896  6909       L1     3  0.37
      P1  H 10785 10796       L1    14  0.98

> <Gold.PLP.Chemscore.Internal.Correction>
4.1765

> <Gold.Rescore>
     Score         DG    S(hbond)    S(metal)    S(lipo)     H(rot)  DE(clash)    DE(int)     intcor
     14.98     -17.91       3.32        0.00      68.30       2.60       0.00       2.94       ----

> <Gold.Chemscore.Fitness>
14.9754

> <Gold.Chemscore.DG>
-17.9133

> <Gold.Chemscore.ZeroCoef>
-5.4800

> <Gold.Chemscore.Hbond>
3.3234

> <Gold.Chemscore.Metal>
0.0000

> <Gold.Chemscore.Lipo>
68.3025

> <Gold.Chemscore.Internal_Hbond>
0.0000

> <Gold.Chemscore.DEClash>
0.0000

> <Gold.Chemscore.DEInternal>
2.9379

> <Gold.Chemscore.Rot>
2.6009

> <Gold.Chemscore.Internal.Correction>
   9.000000E+99

> <Gold.Chemscore.Hbonds>
donor molecule, donor type, donor heavy atom, donor atom, acceptor molecule, acceptor atom, score
      L1  H     8    25       P1 10957  0.24
      L1  H    14    34       P1 10186  0.82
      P1  H  6896  6909       L1     3  0.02
      P1  H 10785 10796       L1    14  0.64

> <Gold.Chemscore.Hbond.Weighted>
-11.1003

> <Gold.Chemscore.Metal.Weighted>
-0.0000

> <Gold.Chemscore.Lipo.Weighted>
-7.9914

> <Gold.Chemscore.Internal_Hbond.Weighted>
0.0000

> <Gold.Chemscore.DEClash.Weighted>
0.0000

> <Gold.Chemscore.DEInternal.Weighted>
2.9379

> <Gold.Chemscore.Rot.Weighted>
6.6583

> <Gold.Chemscore.Internal.Correction.Weighted>
   9.000000E+99

> <Gold.Protein.RotatedTorsions>
[ 6907 6896 6895 6894 ] final    2.02 input  -60.11 | X-H torsion
[ 7974 7965 7964 7962 ] final   -5.50 input  175.53 | X-H torsion
[ 8008 7997 7996 7995 ] final  166.54 input   59.86 | X-H torsion
[ 10167 10162 10161 10158 ] final   49.48 input  -65.29 | X-H torsion
[ 10718 10713 10712 10709 ] final  -15.05 input   66.30 | X-H torsion
[ 10763 10752 10751 10750 ] final -149.07 input  -60.55 | X-H torsion
[ 11005 11000 10999 10996 ] final   64.73 input  -57.11 | X-H torsion

> <Gold.Protein.ActiveResidues>
 VAL166  LYS551  ARG553  GLY616  TRP617  ASP618  TYR619  PRO620  LYS621  CYS622 
 ASP623  PHE694  ASN695  SER759  ASP760  ASP761  ALA762  ILE779  LEU786  VAL792 
 PHE793  MET794  SER795  GLU796  ALA797  LYS798  CYS799  TRP800  GLU811  SER814 

> <Gold.Protein.RotatedAtoms>
  151.6021  135.1046  160.0062 H   0  0  0  0  0  0  0  0  0  0  0  0  # atno 6907 bound_to 6896
  152.4252  133.7179  159.6527 H   0  0  0  0  0  0  0  0  0  0  0  0  # atno 6908 bound_to 6896
  150.8141  133.8297  159.3191 H   0  0  0  0  0  0  0  0  0  0  0  0  # atno 6909 bound_to 6896
  146.2351  140.2031  142.8334 H   0  0  0  0  0  0  0  0  0  0  0  0  # atno 7974 bound_to 7965
  156.1709  140.1640  156.8448 H   0  0  0  0  0  0  0  0  0  0  0  0  # atno 8008 bound_to 7997
  154.5256  140.0768  156.8287 H   0  0  0  0  0  0  0  0  0  0  0  0  # atno 8009 bound_to 7997
  155.3513  140.3390  155.4241 H   0  0  0  0  0  0  0  0  0  0  0  0  # atno 8010 bound_to 7997
  140.2824  144.3141  150.6261 H   0  0  0  0  0  0  0  0  0  0  0  0  # atno 10167 bound_to 10162
  156.6072  130.4840  149.6216 H   0  0  0  0  0  0  0  0  0  0  0  0  # atno 10718 bound_to 10713
  154.8198  135.3318  154.7071 H   0  0  0  0  0  0  0  0  0  0  0  0  # atno 10763 bound_to 10752
  153.7706  135.6926  153.4911 H   0  0  0  0  0  0  0  0  0  0  0  0  # atno 10764 bound_to 10752
  153.2047  135.4503  155.0257 H   0  0  0  0  0  0  0  0  0  0  0  0  # atno 10765 bound_to 10752
  139.9940  134.6547  156.0042 H   0  0  0  0  0  0  0  0  0  0  0  0  # atno 11005 bound_to 11000
  144.9766  140.8420  143.5422 LP  0  0  0  0  0  0  0  0  0  0  0  0  # atno 17320 bound_to 7965
  145.2019  139.2248  143.5188 LP  0  0  0  0  0  0  0  0  0  0  0  0  # atno 17321 bound_to 7965
  140.5800  143.2173  151.7445 LP  0  0  0  0  0  0  0  0  0  0  0  0  # atno 17342 bound_to 10162
  139.4959  144.4093  152.0097 LP  0  0  0  0  0  0  0  0  0  0  0  0  # atno 17343 bound_to 10162
  156.2420  130.6856  151.1564 LP  0  0  0  0  0  0  0  0  0  0  0  0  # atno 17370 bound_to 10713
  157.7264  131.0646  150.5912 LP  0  0  0  0  0  0  0  0  0  0  0  0  # atno 17371 bound_to 10713
  141.1589  133.6540  156.4253 LP  0  0  0  0  0  0  0  0  0  0  0  0  # atno 17394 bound_to 11000
  140.4854  134.6625  157.5188 LP  0  0  0  0  0  0  0  0  0  0  0  0  # atno 17395 bound_to 11000

$$$$
