AV-unprocessed.smi:1403|AV-procd|sdf|5703|dock4
  -GOLD-   22720 5333D 1   1.00000     0.00000
 Structure written by MMmdl.
 35 36  0  0  0  0  0  0  0  0  2 V2000
  154.4722  140.9418  160.6275 C   0  0  0  0  0  0  0  0  0  0  0  0
  153.1200  141.3386  160.0183 C   0  0  2  0  0  0  0  0  0  0  0  0
  153.0536  140.8259  158.6522 N   0  0  0  0  0  0  0  0  0  0  0  0
  152.5944  139.6207  158.2725 C   0  0  0  0  0  0  0  0  0  0  0  0
  152.1563  138.7901  159.0678 O   0  0  0  0  0  0  0  0  0  0  0  0
  152.6056  139.2813  156.7718 C   0  0  0  0  0  0  0  0  0  0  0  0
  151.4927  139.8601  155.9966 N   0  0  0  0  0  0  0  0  0  0  0  0
  150.8466  140.9881  156.5325 C   0  0  0  0  0  0  0  0  0  0  0  0
  149.8253  141.5916  155.8955 C   0  0  0  0  0  0  0  0  0  0  0  0
  149.3912  141.0458  154.6156 C   0  0  0  0  0  0  0  0  0  0  0  0
  148.4585  141.5823  154.0209 O   0  0  0  0  0  0  0  0  0  0  0  0
  150.0525  139.9525  154.1351 N   0  5  0  0  0  0  0  0  0  0  0  0
  151.0912  139.3502  154.7929 C   0  0  0  0  0  0  0  0  0  0  0  0
  151.6813  138.3710  154.3362 O   0  0  0  0  0  0  0  0  0  0  0  0
  152.9146  142.8668  160.0265 C   0  0  1  0  0  0  0  0  0  0  0  0
  151.9579  143.3986  158.9594 C   0  0  0  0  0  0  0  0  0  0  0  0
  151.5187  144.7365  159.5275 C   0  0  0  0  0  0  0  0  0  0  0  0
  151.7919  144.6078  161.0294 C   0  0  0  0  0  0  0  0  0  0  0  0
  152.2731  143.2833  161.2221 O   0  0  0  0  0  0  0  0  0  0  0  0
  154.5519  141.2765  161.6620 H   0  0  0  0  0  0  0  0  0  0  0  0
  155.3025  141.3787  160.0713 H   0  0  0  0  0  0  0  0  0  0  0  0
  154.6019  139.8590  160.6224 H   0  0  0  0  0  0  0  0  0  0  0  0
  152.3373  140.8797  160.6251 H   0  0  0  0  0  0  0  0  0  0  0  0
  153.3974  141.4376  157.9253 H   0  0  0  0  0  0  0  0  0  0  0  0
  153.5634  139.5951  156.3534 H   0  0  0  0  0  0  0  0  0  0  0  0
  152.5993  138.1950  156.6728 H   0  0  0  0  0  0  0  0  0  0  0  0
  151.2334  141.3320  157.4807 H   0  0  0  0  0  0  0  0  0  0  0  0
  149.3414  142.4591  156.3198 H   0  0  0  0  0  0  0  0  0  0  0  0
  153.8752  143.3794  159.9454 H   0  0  0  0  0  0  0  0  0  0  0  0
  152.4227  143.4865  157.9770 H   0  0  0  0  0  0  0  0  0  0  0  0
  151.0943  142.7383  158.8672 H   0  0  0  0  0  0  0  0  0  0  0  0
  152.1108  145.5494  159.1058 H   0  0  0  0  0  0  0  0  0  0  0  0
  150.4688  144.9381  159.3131 H   0  0  0  0  0  0  0  0  0  0  0  0
  152.5557  145.3204  161.3432 H   0  0  0  0  0  0  0  0  0  0  0  0
  150.8990  144.7806  161.6304 H   0  0  0  0  0  0  0  0  0  0  0  0
  1  2  1  0  0  0  0
  1 20  1  0  0  0  0
  1 21  1  0  0  0  0
  1 22  1  0  0  0  0
  2  3  1  0  0  0  0
  2 15  1  0  0  0  0
  2 23  1  0  0  0  0
  3  4  1  0  0  0  0
  3 24  1  0  0  0  0
  4  5  2  0  0  0  0
  4  6  1  0  0  0  0
  6  7  1  0  0  0  0
  6 25  1  0  0  0  0
  6 26  1  0  0  0  0
  7 13  1  0  0  0  0
  7  8  1  0  0  0  0
  8  9  2  0  0  0  0
  8 27  1  0  0  0  0
  9 10  1  0  0  0  0
  9 28  1  0  0  0  0
 10 11  2  0  0  0  0
 10 12  1  0  0  0  0
 12 13  1  0  0  0  0
 13 14  2  0  0  0  0
 15 19  1  0  0  0  0
 15 16  1  0  0  0  0
 15 29  1  0  0  0  0
 16 17  1  0  0  0  0
 16 30  1  0  0  0  0
 16 31  1  0  0  0  0
 17 18  1  0  0  0  0
 17 32  1  0  0  0  0
 17 33  1  0  0  0  0
 18 19  1  0  0  0  0
 18 34  1  0  0  0  0
 18 35  1  0  0  0  0
M  CHG  1  12  -1
M  END
> <s_m_source_file>
AV-unprocessed.smi

> <i_m_source_file_index>
1403

> <i_lp_mmshare_version>
43012

> <i_f3d_flags>
0

> <s_epik_input>
TzFbQ0gyXVtDSDJdW0NIMl1bQ0BIXTFbQ0BIXShbQ0gzXSlbTkhdQyg9TylbQ0gyXW4yW2NIXVtjSF1jKD1PKVtuSF1jMj1P

> <s_epik_cmdline>
J2VwaWtfcHl0aG9uJywgJy1waCcsICc3LjAnLCAnLXRuJywgJzgnLCAnLW1hJywgJzIwMCcsICctbWV0YWxfYmluZGluZycsICctaW1hZScsICc8aW5maWxlLm1hZT4nLCAnLW9tYWUnLCAnPG91dGZpbGUubWFlPic=

> <r_lp_tautomer_probability>
0.999537

> <r_epik_Ionization_Penalty>
3.07438

> <r_epik_Ionization_Penalty_Charging>
2.82466e-08

> <r_epik_Ionization_Penalty_Neutral>
3.07438

> <r_epik_State_Penalty>
3.07341

> <r_epik_Charging_Adjusted_Penalty>
3.07341

> <i_epik_Tot_Q>
-1

> <i_epik_Tot_abs_Q>
1

> <r_epik_Metal_State_Penalty>
0.45947

> <b_epik_Metal_Only>
1

> <s_lp_Force_Field>
OPLS_2005

> <r_lp_Energy>
26.9379

> <b_lp_Chiralities_Consistent>
1

> <s_lp_Variant>
AV-unprocessed.smi:1403-7

> <Gold.Version>
5.8.1

> <Gold.Id.Protein>
6NUR|6NUR_protein|mol2

> <Gold.PLP.Fitness>
40.6240

> <Gold.PLP.PLP>
-41.6559

> <Gold.PLP.part.hbond>
-2.0000

> <Gold.PLP.part.metal>
0.0000

> <Gold.PLP.part.buried>
-3.5890

> <Gold.PLP.part.nonpolar>
-36.6652

> <Gold.PLP.part.repulsive>
1.5647

> <Gold.PLP.ligand.clash>
0.0000

> <Gold.PLP.ligand.torsion>
1.6493

> <Gold.PLP.Chemscore.Hbond>
0.7470

> <Gold.PLP.Chemscore.CHOScore>
0.0000

> <Gold.PLP.Chemscore.Metal>
0.0000

> <Gold.Chemscore.Hbonds>
donor molecule, donor type, donor heavy atom, donor atom, acceptor molecule, acceptor atom, score
      P1  H  8011  8017       L1    11  0.15

> <Gold.PLP.Chemscore.Internal.Correction>
0.0257

> <Gold.Rescore>
     Score         DG    S(hbond)    S(metal)    S(lipo)     H(rot)  DE(clash)    DE(int)     intcor
     10.01     -12.28       0.68        0.00      82.46       1.99       0.62       1.66       ----

> <Gold.Chemscore.Fitness>
10.0079

> <Gold.Chemscore.DG>
-12.2814

> <Gold.Chemscore.ZeroCoef>
-5.4800

> <Gold.Chemscore.Hbond>
0.6762

> <Gold.Chemscore.Metal>
0.0000

> <Gold.Chemscore.Lipo>
82.4586

> <Gold.Chemscore.Internal_Hbond>
0.0000

> <Gold.Chemscore.DEClash>
0.6176

> <Gold.Chemscore.DEInternal>
1.6558

> <Gold.Chemscore.Rot>
1.9940

> <Gold.Chemscore.Internal.Correction>
   9.000000E+99

> <Gold.Chemscore.Hbonds>
donor molecule, donor type, donor heavy atom, donor atom, acceptor molecule, acceptor atom, score
      P1  H  8011  8017       L1    11  0.02

> <Gold.Chemscore.Hbond.Weighted>
-2.2584

> <Gold.Chemscore.Metal.Weighted>
-0.0000

> <Gold.Chemscore.Lipo.Weighted>
-9.6477

> <Gold.Chemscore.Internal_Hbond.Weighted>
0.0000

> <Gold.Chemscore.DEClash.Weighted>
0.6176

> <Gold.Chemscore.DEInternal.Weighted>
1.6558

> <Gold.Chemscore.Rot.Weighted>
5.1047

> <Gold.Chemscore.Internal.Correction.Weighted>
   9.000000E+99

> <Gold.Protein.RotatedTorsions>
[ 6907 6896 6895 6894 ] final  -40.05 input  -60.11 | X-H torsion
[ 7974 7965 7964 7962 ] final  -72.04 input  175.53 | X-H torsion
[ 8008 7997 7996 7995 ] final  -20.36 input   59.86 | X-H torsion
[ 10167 10162 10161 10158 ] final   57.24 input  -65.29 | X-H torsion
[ 10718 10713 10712 10709 ] final  -47.68 input   66.30 | X-H torsion
[ 10763 10752 10751 10750 ] final   61.38 input  -60.55 | X-H torsion
[ 11005 11000 10999 10996 ] final  -47.97 input  -57.11 | X-H torsion

> <Gold.Protein.ActiveResidues>
 VAL166  LYS551  ARG553  GLY616  TRP617  ASP618  TYR619  PRO620  LYS621  CYS622 
 ASP623  PHE694  ASN695  SER759  ASP760  ASP761  ALA762  ILE779  LEU786  VAL792 
 PHE793  MET794  SER795  GLU796  ALA797  LYS798  CYS799  TRP800  GLU811  SER814 

> <Gold.Protein.RotatedAtoms>
  150.9831  134.9182  159.7855 H   0  0  0  0  0  0  0  0  0  0  0  0  # atno 6907 bound_to 6896
  152.5228  134.3384  159.9218 H   0  0  0  0  0  0  0  0  0  0  0  0  # atno 6908 bound_to 6896
  151.3390  133.3929  159.2704 H   0  0  0  0  0  0  0  0  0  0  0  0  # atno 6909 bound_to 6896
  145.6703  140.9223  143.0886 H   0  0  0  0  0  0  0  0  0  0  0  0  # atno 7974 bound_to 7965
  154.4775  140.2064  155.9843 H   0  0  0  0  0  0  0  0  0  0  0  0  # atno 8008 bound_to 7997
  156.1112  140.3228  155.8046 H   0  0  0  0  0  0  0  0  0  0  0  0  # atno 8009 bound_to 7997
  155.4631  140.0525  157.2979 H   0  0  0  0  0  0  0  0  0  0  0  0  # atno 8010 bound_to 7997
  140.2001  144.3996  150.6532 H   0  0  0  0  0  0  0  0  0  0  0  0  # atno 10167 bound_to 10162
  156.2061  130.4158  149.9176 H   0  0  0  0  0  0  0  0  0  0  0  0  # atno 10718 bound_to 10713
  152.9949  135.5502  154.6025 H   0  0  0  0  0  0  0  0  0  0  0  0  # atno 10763 bound_to 10752
  154.5363  135.2817  155.1137 H   0  0  0  0  0  0  0  0  0  0  0  0  # atno 10764 bound_to 10752
  154.2432  135.6412  153.5267 H   0  0  0  0  0  0  0  0  0  0  0  0  # atno 10765 bound_to 10752
  141.0672  133.6690  156.3373 H   0  0  0  0  0  0  0  0  0  0  0  0  # atno 11005 bound_to 11000
  144.7059  139.8564  143.7430 LP  0  0  0  0  0  0  0  0  0  0  0  0  # atno 17320 bound_to 7965
  146.1051  139.4050  143.0323 LP  0  0  0  0  0  0  0  0  0  0  0  0  # atno 17321 bound_to 7965
  140.6396  143.2201  151.6319 LP  0  0  0  0  0  0  0  0  0  0  0  0  # atno 17342 bound_to 10162
  139.5220  144.3175  152.0940 LP  0  0  0  0  0  0  0  0  0  0  0  0  # atno 17343 bound_to 10162
  156.6869  130.8880  151.3583 LP  0  0  0  0  0  0  0  0  0  0  0  0  # atno 17370 bound_to 10713
  157.7013  130.9336  150.0794 LP  0  0  0  0  0  0  0  0  0  0  0  0  # atno 17371 bound_to 10713
  140.5748  134.5805  157.5466 LP  0  0  0  0  0  0  0  0  0  0  0  0  # atno 17394 bound_to 11000
  139.9488  134.7653  156.0497 LP  0  0  0  0  0  0  0  0  0  0  0  0  # atno 17395 bound_to 11000

$$$$
