AV-unprocessed.smi:1738|AV-procd|sdf|6999|dock3
  -GOLD-   22720 8213D 1   1.00000     0.00000
 Structure written by MMmdl.
 46 48  0  0  0  0  0  0  0  0  2 V2000
  152.1766  138.1362  159.7404 C   0  0  0  0  0  0  0  0  0  0  0  0
  153.2406  137.2447  158.5341 S   0  0  0  0  0  0  0  0  0  0  0  0
  154.1965  138.2131  157.9744 O   0  0  0  0  0  0  0  0  0  0  0  0
  153.7407  136.0193  159.1766 O   0  0  0  0  0  0  0  0  0  0  0  0
  152.1041  136.7629  157.2386 C   0  0  0  0  0  0  0  0  0  0  0  0
  151.7650  137.6680  156.2133 C   0  0  0  0  0  0  0  0  0  0  0  0
  150.8405  137.2502  155.2369 C   0  0  0  0  0  0  0  0  0  0  0  0
  150.2788  135.9527  155.3352 C   0  0  0  0  0  0  0  0  0  0  0  0
  149.3490  135.4004  154.4117 N   0  0  0  0  0  0  0  0  0  0  0  0
  148.4864  134.3836  154.5811 C   0  0  0  0  0  0  0  0  0  0  0  0
  148.3592  133.7152  155.6061 O   0  0  0  0  0  0  0  0  0  0  0  0
  147.7673  134.1712  153.4697 N   0  0  0  0  0  0  0  0  0  0  0  0
  146.7375  133.1468  153.3178 C   0  0  2  0  0  0  0  0  0  0  0  0
  147.2924  131.7155  153.4279 C   0  0  0  0  0  0  0  0  0  0  0  0
  146.4989  130.8889  152.3964 C   0  0  0  0  0  0  0  0  0  0  0  0
  145.5030  131.8192  151.8312 N   0  3  2  0  0  0  0  0  0  0  0  0
  144.9845  131.5127  150.4801 C   0  0  0  0  0  0  0  0  0  0  0  0
  143.9017  132.5446  150.1050 C   0  0  0  0  0  0  0  0  0  0  0  0
  144.4118  133.9920  150.2581 C   0  0  0  0  0  0  0  0  0  0  0  0
  145.0246  134.2228  151.6529 C   0  0  0  0  0  0  0  0  0  0  0  0
  146.1020  133.1594  151.9250 C   0  0  1  0  0  0  0  0  0  0  0  0
  150.6905  135.1375  156.4118 C   0  0  0  0  0  0  0  0  0  0  0  0
  151.5748  135.5268  157.3538 N   0  0  0  0  0  0  0  0  0  0  0  0
  152.7860  138.4822  160.5746 H   0  0  0  0  0  0  0  0  0  0  0  0
  151.4035  137.4630  160.1102 H   0  0  0  0  0  0  0  0  0  0  0  0
  151.7099  138.9909  159.2512 H   0  0  0  0  0  0  0  0  0  0  0  0
  152.2024  138.6541  156.1664 H   0  0  0  0  0  0  0  0  0  0  0  0
  150.5951  137.9294  154.4363 H   0  0  0  0  0  0  0  0  0  0  0  0
  149.3692  135.8111  153.4897 H   0  0  0  0  0  0  0  0  0  0  0  0
  147.9439  134.7632  152.6709 H   0  0  0  0  0  0  0  0  0  0  0  0
  145.9590  133.2702  154.0738 H   0  0  0  0  0  0  0  0  0  0  0  0
  148.3561  131.6800  153.1868 H   0  0  0  0  0  0  0  0  0  0  0  0
  147.1740  131.3253  154.4394 H   0  0  0  0  0  0  0  0  0  0  0  0
  147.1665  130.5304  151.6115 H   0  0  0  0  0  0  0  0  0  0  0  0
  146.0082  130.0245  152.8443 H   0  0  0  0  0  0  0  0  0  0  0  0
  145.7995  131.5324  149.7548 H   0  0  0  0  0  0  0  0  0  0  0  0
  144.5655  130.5060  150.4682 H   0  0  0  0  0  0  0  0  0  0  0  0
  143.5611  132.3746  149.0833 H   0  0  0  0  0  0  0  0  0  0  0  0
  143.0312  132.4020  150.7467 H   0  0  0  0  0  0  0  0  0  0  0  0
  145.1641  134.1935  149.4944 H   0  0  0  0  0  0  0  0  0  0  0  0
  143.5987  134.6972  150.0838 H   0  0  0  0  0  0  0  0  0  0  0  0
  145.4542  135.2232  151.7070 H   0  0  0  0  0  0  0  0  0  0  0  0
  144.2458  134.1736  152.4150 H   0  0  0  0  0  0  0  0  0  0  0  0
  146.8902  133.2413  151.1726 H   0  0  0  0  0  0  0  0  0  0  0  0
  150.2937  134.1389  156.5244 H   0  0  0  0  0  0  0  0  0  0  0  0
  144.7151  131.8150  152.4635 H   0  0  0  0  0  0  0  0  0  0  0  0
  1  2  1  0  0  0  0
  1 24  1  0  0  0  0
  1 25  1  0  0  0  0
  1 26  1  0  0  0  0
  2  3  2  0  0  0  0
  2  4  2  0  0  0  0
  2  5  1  0  0  0  0
  5 23  1  0  0  0  0
  5  6  2  0  0  0  0
  6  7  1  0  0  0  0
  6 27  1  0  0  0  0
  7  8  2  0  0  0  0
  7 28  1  0  0  0  0
  8  9  1  0  0  0  0
  8 22  1  0  0  0  0
  9 10  1  0  0  0  0
  9 29  1  0  0  0  0
 10 11  2  0  0  0  0
 10 12  1  0  0  0  0
 12 13  1  0  0  0  0
 12 30  1  0  0  0  0
 13 21  1  0  0  0  0
 13 14  1  0  0  0  0
 13 31  1  0  0  0  0
 14 15  1  0  0  0  0
 14 32  1  0  0  0  0
 14 33  1  0  0  0  0
 15 16  1  0  0  0  0
 15 34  1  0  0  0  0
 15 35  1  0  0  0  0
 16 21  1  0  0  0  0
 16 17  1  0  0  0  0
 16 46  1  0  0  0  0
 17 18  1  0  0  0  0
 17 36  1  0  0  0  0
 17 37  1  0  0  0  0
 18 19  1  0  0  0  0
 18 38  1  0  0  0  0
 18 39  1  0  0  0  0
 19 20  1  0  0  0  0
 19 40  1  0  0  0  0
 19 41  1  0  0  0  0
 20 21  1  0  0  0  0
 20 42  1  0  0  0  0
 20 43  1  0  0  0  0
 21 44  1  0  0  0  0
 22 23  2  0  0  0  0
 22 45  1  0  0  0  0
M  CHG  1  16   1
M  END
> <s_m_source_file>
AV-unprocessed.smi

> <i_m_source_file_index>
1738

> <i_lp_mmshare_version>
43012

> <i_f3d_flags>
0

> <s_epik_input>
W0NIM11TKD1PKSg9TyljMVtjSF1bY0hdYyhbY0hdbjEpW05IXUMoPU8pW05IXVtDQEhdKFtDSDJdW0NIMl0yKVtDQEBIXShOMjMpW0NIMl1bQ0gyXVtDSDJdW0NIMl0z

> <s_epik_cmdline>
J2VwaWtfcHl0aG9uJywgJy1waCcsICc3LjAnLCAnLXRuJywgJzgnLCAnLW1hJywgJzIwMCcsICctbWV0YWxfYmluZGluZycsICctaW1hZScsICc8aW5maWxlLm1hZT4nLCAnLW9tYWUnLCAnPG91dGZpbGUubWFlPic=

> <r_epik_Ionization_Penalty>
0.00100042

> <r_epik_Ionization_Penalty_Charging>
0.000974069

> <r_epik_Ionization_Penalty_Neutral>
2.63543e-05

> <r_epik_State_Penalty>
0.000633842

> <r_epik_Charging_Adjusted_Penalty>
0.00160791

> <i_epik_Tot_Q>
1

> <i_epik_Tot_abs_Q>
1

> <r_epik_Metal_State_Penalty>
-0

> <b_epik_Metal_Only>
0

> <s_lp_Force_Field>
OPLS_2005

> <r_lp_Energy>
37.3357

> <b_lp_Chiralities_Consistent>
1

> <s_lp_Variant>
AV-unprocessed.smi:1738-3

> <Gold.Version>
5.8.1

> <Gold.Id.Protein>
6NUR|6NUR_protein|mol2

> <Gold.PLP.Fitness>
44.1595

> <Gold.PLP.PLP>
-32.7101

> <Gold.PLP.part.hbond>
-5.0000

> <Gold.PLP.part.metal>
0.0000

> <Gold.PLP.part.buried>
-5.8029

> <Gold.PLP.part.nonpolar>
-22.7524

> <Gold.PLP.part.repulsive>
0.0590

> <Gold.PLP.ligand.clash>
0.0000

> <Gold.PLP.ligand.torsion>
1.1196

> <Gold.PLP.Chemscore.Hbond>
3.8865

> <Gold.PLP.Chemscore.CHOScore>
0.0000

> <Gold.PLP.Chemscore.Metal>
0.0000

> <Gold.Chemscore.Hbonds>
donor molecule, donor type, donor heavy atom, donor atom, acceptor molecule, acceptor atom, score
      L1  H     9    29       P1  7948  1.00
      L1  H    12    30       P1  7948  0.99
      P1  H  6896  6908       L1     4  1.00
      P1  H  7997  8010       L1     3  0.95

> <Gold.PLP.Chemscore.Internal.Correction>
2.0291

> <Gold.Rescore>
     Score         DG    S(hbond)    S(metal)    S(lipo)     H(rot)  DE(clash)    DE(int)     intcor
     20.79     -23.28       3.35        0.00      78.44       1.00       0.04       2.45       ----

> <Gold.Chemscore.Fitness>
20.7906

> <Gold.Chemscore.DG>
-23.2752

> <Gold.Chemscore.ZeroCoef>
-5.4800

> <Gold.Chemscore.Hbond>
3.3465

> <Gold.Chemscore.Metal>
0.0000

> <Gold.Chemscore.Lipo>
78.4449

> <Gold.Chemscore.Internal_Hbond>
0.0000

> <Gold.Chemscore.DEClash>
0.0361

> <Gold.Chemscore.DEInternal>
2.4485

> <Gold.Chemscore.Rot>
1.0000

> <Gold.Chemscore.Internal.Correction>
   9.000000E+99

> <Gold.Chemscore.Hbonds>
donor molecule, donor type, donor heavy atom, donor atom, acceptor molecule, acceptor atom, score
      L1  H     9    29       P1  7948  0.45
      L1  H    12    30       P1  7948  0.77
      P1  H  6896  6908       L1     4  0.87
      P1  H  7997  8010       L1     3  0.85

> <Gold.Chemscore.Hbond.Weighted>
-11.1772

> <Gold.Chemscore.Metal.Weighted>
-0.0000

> <Gold.Chemscore.Lipo.Weighted>
-9.1781

> <Gold.Chemscore.Internal_Hbond.Weighted>
0.0000

> <Gold.Chemscore.DEClash.Weighted>
0.0361

> <Gold.Chemscore.DEInternal.Weighted>
2.4485

> <Gold.Chemscore.Rot.Weighted>
2.5600

> <Gold.Chemscore.Internal.Correction.Weighted>
   9.000000E+99

> <Gold.Protein.RotatedTorsions>
[ 6907 6896 6895 6894 ] final  -62.89 input  -60.11 | X-H torsion
[ 7974 7965 7964 7962 ] final  165.38 input  175.53 | X-H torsion
[ 8008 7997 7996 7995 ] final   20.57 input   59.86 | X-H torsion
[ 10167 10162 10161 10158 ] final    5.17 input  -65.29 | X-H torsion
[ 10718 10713 10712 10709 ] final  171.02 input   66.30 | X-H torsion
[ 10763 10752 10751 10750 ] final -160.22 input  -60.55 | X-H torsion
[ 11005 11000 10999 10996 ] final   46.26 input  -57.11 | X-H torsion

> <Gold.Protein.ActiveResidues>
 VAL166  LYS551  ARG553  GLY616  TRP617  ASP618  TYR619  PRO620  LYS621  CYS622 
 ASP623  PHE694  ASN695  SER759  ASP760  ASP761  ALA762  ILE779  LEU786  VAL792 
 PHE793  MET794  SER795  GLU796  ALA797  LYS798  CYS799  TRP800  GLU811  SER814 

> <Gold.Protein.RotatedAtoms>
  150.7685  134.6509  159.6287 H   0  0  0  0  0  0  0  0  0  0  0  0  # atno 6907 bound_to 6896
  152.3728  134.6705  160.0179 H   0  0  0  0  0  0  0  0  0  0  0  0  # atno 6908 bound_to 6896
  151.7060  133.3275  159.3315 H   0  0  0  0  0  0  0  0  0  0  0  0  # atno 6909 bound_to 6896
  144.7505  139.8462  143.6368 H   0  0  0  0  0  0  0  0  0  0  0  0  # atno 7974 bound_to 7965
  154.9375  140.3048  155.5137 H   0  0  0  0  0  0  0  0  0  0  0  0  # atno 8008 bound_to 7997
  156.2998  140.2342  156.4378 H   0  0  0  0  0  0  0  0  0  0  0  0  # atno 8009 bound_to 7997
  154.8177  140.0425  157.1377 H   0  0  0  0  0  0  0  0  0  0  0  0  # atno 8010 bound_to 7997
  140.6496  143.7577  150.7554 H   0  0  0  0  0  0  0  0  0  0  0  0  # atno 10167 bound_to 10162
  156.9996  131.0172  151.2834 H   0  0  0  0  0  0  0  0  0  0  0  0  # atno 10718 bound_to 10713
  154.7409  135.3068  154.8730 H   0  0  0  0  0  0  0  0  0  0  0  0  # atno 10763 bound_to 10752
  153.9545  135.6760  153.4748 H   0  0  0  0  0  0  0  0  0  0  0  0  # atno 10764 bound_to 10752
  153.1008  135.4913  154.8787 H   0  0  0  0  0  0  0  0  0  0  0  0  # atno 10765 bound_to 10752
  140.1385  134.4613  155.8467 H   0  0  0  0  0  0  0  0  0  0  0  0  # atno 11005 bound_to 11000
  146.1448  139.4515  143.0086 LP  0  0  0  0  0  0  0  0  0  0  0  0  # atno 17320 bound_to 7965
  145.6962  141.0150  143.1529 LP  0  0  0  0  0  0  0  0  0  0  0  0  # atno 17321 bound_to 7965
  140.1225  143.4599  152.2304 LP  0  0  0  0  0  0  0  0  0  0  0  0  # atno 17342 bound_to 10162
  139.5710  144.7462  151.3891 LP  0  0  0  0  0  0  0  0  0  0  0  0  # atno 17343 bound_to 10162
  157.5399  130.8113  149.8017 LP  0  0  0  0  0  0  0  0  0  0  0  0  # atno 17370 bound_to 10713
  156.0176  130.3807  150.2062 LP  0  0  0  0  0  0  0  0  0  0  0  0  # atno 17371 bound_to 10713
  141.2182  133.6824  156.7203 LP  0  0  0  0  0  0  0  0  0  0  0  0  # atno 17394 bound_to 11000
  140.2752  134.8361  157.3883 LP  0  0  0  0  0  0  0  0  0  0  0  0  # atno 17395 bound_to 11000

$$$$
