AV-unprocessed.smi:1464|AV-procd|sdf|5946|dock3
  -GOLD-   22720 6 23D 1   1.00000     0.00000
 Structure written by MMmdl.
 41 42  0  0  0  0  0  0  0  0  1 V2000
  150.5053  143.9958  158.7391 C   0  0  0  0  0  0  0  0  0  0  0  0
  151.8964  143.4674  158.3327 C   0  0  1  0  0  0  0  0  0  0  0  0
  152.9629  143.7987  159.3966 C   0  0  0  0  0  0  0  0  0  0  0  0
  152.8104  142.9359  160.6590 C   0  0  0  0  0  0  0  0  0  0  0  0
  152.8430  141.4409  160.3145 C   0  0  0  0  0  0  0  0  0  0  0  0
  151.7844  141.0697  159.2547 C   0  0  2  0  0  0  0  0  0  0  0  0
  151.9168  139.6565  158.9059 N   0  0  0  0  0  0  0  0  0  0  0  0
  153.0686  139.0286  158.6243 C   0  0  0  0  0  0  0  0  0  0  0  0
  154.1617  139.5966  158.6109 O   0  0  0  0  0  0  0  0  0  0  0  0
  152.9521  137.5349  158.2872 C   0  0  0  0  0  0  0  0  0  0  0  0
  151.5627  137.0687  158.1723 N   0  0  0  0  0  0  0  0  0  0  0  0
  150.8309  137.1741  159.3455 N   0  0  0  0  0  0  0  0  0  0  0  0
  149.5926  136.8126  159.3678 C   0  0  0  0  0  0  0  0  0  0  0  0
  148.9035  136.9379  160.5492 O   0  0  0  0  0  0  0  0  0  0  0  0
  148.9441  136.2894  158.1852 C   0  0  0  0  0  0  0  0  0  0  0  0
  149.6671  136.1848  157.0486 C   0  0  0  0  0  0  0  0  0  0  0  0
  151.0736  136.5868  156.9883 C   0  0  0  0  0  0  0  0  0  0  0  0
  151.7559  136.5015  155.9673 O   0  0  0  0  0  0  0  0  0  0  0  0
  151.9262  141.9537  157.9881 C   0  0  1  0  0  0  0  0  0  0  0  0
  150.9182  141.5838  156.8816 C   0  0  0  0  0  0  0  0  0  0  0  0
  148.8769  136.0690  160.9188 H   0  0  0  0  0  0  0  0  0  0  0  0
  150.1007  143.4710  159.6039 H   0  0  0  0  0  0  0  0  0  0  0  0
  149.7861  143.8969  157.9263 H   0  0  0  0  0  0  0  0  0  0  0  0
  150.5520  145.0554  158.9921 H   0  0  0  0  0  0  0  0  0  0  0  0
  152.1761  144.0119  157.4296 H   0  0  0  0  0  0  0  0  0  0  0  0
  153.9548  143.6348  158.9733 H   0  0  0  0  0  0  0  0  0  0  0  0
  152.9202  144.8561  159.6601 H   0  0  0  0  0  0  0  0  0  0  0  0
  153.6090  143.1685  161.3638 H   0  0  0  0  0  0  0  0  0  0  0  0
  151.8764  143.1767  161.1672 H   0  0  0  0  0  0  0  0  0  0  0  0
  153.8370  141.1799  159.9480 H   0  0  0  0  0  0  0  0  0  0  0  0
  152.6880  140.8568  161.2227 H   0  0  0  0  0  0  0  0  0  0  0  0
  150.7917  141.2333  159.6772 H   0  0  0  0  0  0  0  0  0  0  0  0
  151.0661  139.1128  158.8875 H   0  0  0  0  0  0  0  0  0  0  0  0
  153.4914  137.3262  157.3611 H   0  0  0  0  0  0  0  0  0  0  0  0
  153.4753  136.9734  159.0632 H   0  0  0  0  0  0  0  0  0  0  0  0
  147.9066  135.9910  158.2189 H   0  0  0  0  0  0  0  0  0  0  0  0
  149.1958  135.7955  156.1581 H   0  0  0  0  0  0  0  0  0  0  0  0
  152.9157  141.7558  157.5725 H   0  0  0  0  0  0  0  0  0  0  0  0
  149.8905  141.6313  157.2423 H   0  0  0  0  0  0  0  0  0  0  0  0
  151.0857  140.5730  156.5090 H   0  0  0  0  0  0  0  0  0  0  0  0
  151.0058  142.2581  156.0295 H   0  0  0  0  0  0  0  0  0  0  0  0
  1  2  1  0  0  0  0
  1 22  1  0  0  0  0
  1 23  1  0  0  0  0
  1 24  1  0  0  0  0
  2 19  1  0  0  0  0
  2  3  1  0  0  0  0
  2 25  1  0  0  0  0
  3  4  1  0  0  0  0
  3 26  1  0  0  0  0
  3 27  1  0  0  0  0
  4  5  1  0  0  0  0
  4 28  1  0  0  0  0
  4 29  1  0  0  0  0
  5  6  1  0  0  0  0
  5 30  1  0  0  0  0
  5 31  1  0  0  0  0
  6  7  1  0  0  0  0
  6 19  1  0  0  0  0
  6 32  1  0  0  0  0
  7  8  1  0  0  0  0
  7 33  1  0  0  0  0
  8  9  2  0  0  0  0
  8 10  1  0  0  0  0
 10 34  1  0  0  0  0
 10 35  1  0  0  0  0
 10 11  1  0  0  0  0
 11 12  1  0  0  0  0
 11 17  1  0  0  0  0
 12 13  2  0  0  0  0
 13 14  1  0  0  0  0
 13 15  1  0  0  0  0
 14 21  1  0  0  0  0
 15 36  1  0  0  0  0
 15 16  2  0  0  0  0
 16 37  1  0  0  0  0
 16 17  1  0  0  0  0
 17 18  2  0  0  0  0
 19 20  1  0  0  0  0
 19 38  1  0  0  0  0
 20 39  1  0  0  0  0
 20 40  1  0  0  0  0
 20 41  1  0  0  0  0
M  END
> <s_m_source_file>
AV-unprocessed.smi

> <i_m_source_file_index>
1464

> <i_lp_mmshare_version>
43012

> <i_f3d_flags>
0

> <s_epik_input>
W0NIM11bQ0BASF0xW0NIMl1bQ0gyXVtDSDJdW0NASF0oW0NASF0xW0NIM10pW05IXUMoPU8pW0NIMl1uMltuSF1jKD1PKVtjSF1bY0hdYzI9Tw==

> <s_epik_cmdline>
J2VwaWtfcHl0aG9uJywgJy1waCcsICc3LjAnLCAnLXRuJywgJzgnLCAnLW1hJywgJzIwMCcsICctbWV0YWxfYmluZGluZycsICctaW1hZScsICc8aW5maWxlLm1hZT4nLCAnLW9tYWUnLCAnPG91dGZpbGUubWFlPic=

> <r_lp_tautomer_probability>
0.9996

> <r_epik_Ionization_Penalty>
2.10335

> <r_epik_Ionization_Penalty_Charging>
3.98079e-08

> <r_epik_Ionization_Penalty_Neutral>
2.10335

> <r_epik_State_Penalty>
1.67957

> <r_epik_Charging_Adjusted_Penalty>
1.67957

> <i_epik_Tot_Q>
0

> <i_epik_Tot_abs_Q>
0

> <r_epik_Metal_State_Penalty>
1.67957

> <b_epik_Metal_Only>
0

> <s_lp_Force_Field>
OPLS_2005

> <r_lp_Energy>
23.4663

> <b_lp_Chiralities_Consistent>
1

> <s_lp_Variant>
AV-unprocessed.smi:1464-12

> <Gold.Version>
5.8.1

> <Gold.Id.Protein>
6NUR|6NUR_protein|mol2

> <Gold.PLP.Fitness>
41.8747

> <Gold.PLP.PLP>
-33.5905

> <Gold.PLP.part.hbond>
-3.5620

> <Gold.PLP.part.metal>
0.0000

> <Gold.PLP.part.buried>
-5.3987

> <Gold.PLP.part.nonpolar>
-24.6229

> <Gold.PLP.part.repulsive>
0.1611

> <Gold.PLP.ligand.clash>
0.0000

> <Gold.PLP.ligand.torsion>
0.2428

> <Gold.PLP.Chemscore.Hbond>
2.9204

> <Gold.PLP.Chemscore.CHOScore>
0.0000

> <Gold.PLP.Chemscore.Metal>
0.0000

> <Gold.Chemscore.Hbonds>
donor molecule, donor type, donor heavy atom, donor atom, acceptor molecule, acceptor atom, score
      P1  H  6896  6909       L1    12  0.16
      P1  H  6931  6943       L1    14  0.77
      P1  H  7997  8010       L1     9  1.00
      P1  H 10752 10763       L1    18  1.00

> <Gold.PLP.Chemscore.Internal.Correction>
0.0087

> <Gold.Rescore>
     Score         DG    S(hbond)    S(metal)    S(lipo)     H(rot)  DE(clash)    DE(int)     intcor
     16.53     -19.04       2.78        0.00      85.22       2.22       0.06       2.45       ----

> <Gold.Chemscore.Fitness>
16.5268

> <Gold.Chemscore.DG>
-19.0353

> <Gold.Chemscore.ZeroCoef>
-5.4800

> <Gold.Chemscore.Hbond>
2.7768

> <Gold.Chemscore.Metal>
0.0000

> <Gold.Chemscore.Lipo>
85.2163

> <Gold.Chemscore.Internal_Hbond>
0.0000

> <Gold.Chemscore.DEClash>
0.0558

> <Gold.Chemscore.DEInternal>
2.4528

> <Gold.Chemscore.Rot>
2.2224

> <Gold.Chemscore.Internal.Correction>
   9.000000E+99

> <Gold.Chemscore.Hbonds>
donor molecule, donor type, donor heavy atom, donor atom, acceptor molecule, acceptor atom, score
      P1  H  6931  6943       L1    14  0.62
      P1  H  7997  8010       L1     9  0.99
      P1  H 10752 10763       L1    18  0.98

> <Gold.Chemscore.Hbond.Weighted>
-9.2743

> <Gold.Chemscore.Metal.Weighted>
-0.0000

> <Gold.Chemscore.Lipo.Weighted>
-9.9703

> <Gold.Chemscore.Internal_Hbond.Weighted>
0.0000

> <Gold.Chemscore.DEClash.Weighted>
0.0558

> <Gold.Chemscore.DEInternal.Weighted>
2.4528

> <Gold.Chemscore.Rot.Weighted>
5.6893

> <Gold.Chemscore.Internal.Correction.Weighted>
   9.000000E+99

> <Gold.Protein.RotatedTorsions>
[ 6907 6896 6895 6894 ] final  108.56 input  -60.11 | X-H torsion
[ 7974 7965 7964 7962 ] final  -55.73 input  175.53 | X-H torsion
[ 8008 7997 7996 7995 ] final    6.11 input   59.86 | X-H torsion
[ 10167 10162 10161 10158 ] final -120.31 input  -65.29 | X-H torsion
[ 10718 10713 10712 10709 ] final  170.90 input   66.30 | X-H torsion
[ 10763 10752 10751 10750 ] final   69.57 input  -60.55 | X-H torsion
[ 11005 11000 10999 10996 ] final -179.14 input  -57.11 | X-H torsion

> <Gold.Protein.ActiveResidues>
 VAL166  LYS551  ARG553  GLY616  TRP617  ASP618  TYR619  PRO620  LYS621  CYS622 
 ASP623  PHE694  ASN695  SER759  ASP760  ASP761  ALA762  ILE779  LEU786  VAL792 
 PHE793  MET794  SER795  GLU796  ALA797  LYS798  CYS799  TRP800  GLU811  SER814 

> <Gold.Protein.RotatedAtoms>
  152.5107  133.9072  159.7469 H   0  0  0  0  0  0  0  0  0  0  0  0  # atno 6907 bound_to 6896
  150.9474  133.6579  159.2785 H   0  0  0  0  0  0  0  0  0  0  0  0  # atno 6908 bound_to 6896
  151.3870  135.0954  159.9567 H   0  0  0  0  0  0  0  0  0  0  0  0  # atno 6909 bound_to 6896
  145.8708  140.8217  142.9889 H   0  0  0  0  0  0  0  0  0  0  0  0  # atno 7974 bound_to 7965
  154.7368  140.2741  155.6408 H   0  0  0  0  0  0  0  0  0  0  0  0  # atno 8008 bound_to 7997
  156.2864  140.2705  156.2010 H   0  0  0  0  0  0  0  0  0  0  0  0  # atno 8009 bound_to 7997
  155.0310  140.0371  157.2464 H   0  0  0  0  0  0  0  0  0  0  0  0  # atno 8010 bound_to 7997
  140.0372  143.5189  152.2148 H   0  0  0  0  0  0  0  0  0  0  0  0  # atno 10167 bound_to 10162
  157.0014  131.0177  151.2829 H   0  0  0  0  0  0  0  0  0  0  0  0  # atno 10718 bound_to 10713
  153.0294  135.5206  154.7308 H   0  0  0  0  0  0  0  0  0  0  0  0  # atno 10763 bound_to 10752
  154.6336  135.2903  155.0189 H   0  0  0  0  0  0  0  0  0  0  0  0  # atno 10764 bound_to 10752
  154.1132  135.6619  153.4941 H   0  0  0  0  0  0  0  0  0  0  0  0  # atno 10765 bound_to 10752
  140.4220  134.6597  157.4669 H   0  0  0  0  0  0  0  0  0  0  0  0  # atno 11005 bound_to 11000
  144.6726  140.1237  143.7448 LP  0  0  0  0  0  0  0  0  0  0  0  0  # atno 17320 bound_to 7965
  145.9138  139.2503  143.1421 LP  0  0  0  0  0  0  0  0  0  0  0  0  # atno 17321 bound_to 7965
  139.6037  144.7590  151.3111 LP  0  0  0  0  0  0  0  0  0  0  0  0  # atno 17342 bound_to 10162
  140.7276  143.6958  150.7885 LP  0  0  0  0  0  0  0  0  0  0  0  0  # atno 17343 bound_to 10162
  157.5387  130.8106  149.8003 LP  0  0  0  0  0  0  0  0  0  0  0  0  # atno 17370 bound_to 10713
  156.0170  130.3810  150.2081 LP  0  0  0  0  0  0  0  0  0  0  0  0  # atno 17371 bound_to 10713
  140.0193  134.6571  155.9262 LP  0  0  0  0  0  0  0  0  0  0  0  0  # atno 17394 bound_to 11000
  141.1780  133.6542  156.4906 LP  0  0  0  0  0  0  0  0  0  0  0  0  # atno 17395 bound_to 11000

$$$$
