AV-unprocessed.smi:2143|AV-procd|sdf|8727|dock6
  -GOLD-   2272011493D 1   1.00000     0.00000
 Structure written by MMmdl.
 44 45  0  0  0  0  0  0  0  0  1 V2000
  152.0165  144.3280  160.9525 C   0  0  0  0  0  0  0  0  0  0  0  0
  152.6130  143.0781  160.2786 C   0  0  1  0  0  0  0  0  0  0  0  0
  153.0103  142.0531  161.3595 C   0  0  0  0  0  0  0  0  0  0  0  0
  153.6422  140.7968  160.7509 C   0  0  0  0  0  0  0  0  0  0  0  0
  152.6892  140.1490  159.7425 C   0  0  0  0  0  0  0  0  0  0  0  0
  152.2845  141.1418  158.6352 C   0  0  1  0  0  0  0  0  0  0  0  0
  151.3464  140.4892  157.7232 N   0  0  0  0  0  0  0  0  0  0  0  0
  151.6679  139.5618  156.8085 C   0  0  0  0  0  0  0  0  0  0  0  0
  152.8192  139.1643  156.6245 O   0  0  0  0  0  0  0  0  0  0  0  0
  150.5075  139.0181  155.9643 C   0  0  0  0  0  0  0  0  0  0  0  0
  149.2637  139.7781  156.1440 N   0  0  0  0  0  0  0  0  0  0  0  0
  148.8257  140.6239  155.1416 C   0  0  0  0  0  0  0  0  0  0  0  0
  147.6845  141.3427  155.2194 C   0  0  0  0  0  0  0  0  0  0  0  0
  146.8298  141.2663  156.3980 C   0  0  0  0  0  0  0  0  0  0  0  0
  145.7727  141.8896  156.5011 O   0  0  0  0  0  0  0  0  0  0  0  0
  147.3087  140.4052  157.4145 N   0  0  0  0  0  0  0  0  0  0  0  0
  146.5199  140.2453  158.6186 C   0  0  0  0  0  0  0  0  0  0  0  0
  148.4952  139.6445  157.3205 C   0  0  0  0  0  0  0  0  0  0  0  0
  148.8545  138.8832  158.2223 O   0  0  0  0  0  0  0  0  0  0  0  0
  151.6659  142.4400  159.2222 C   0  0  2  0  0  0  0  0  0  0  0  0
  151.2982  143.4359  158.1003 C   0  0  0  0  0  0  0  0  0  0  0  0
  151.0515  144.1092  161.4102 H   0  0  0  0  0  0  0  0  0  0  0  0
  151.8784  145.1455  160.2459 H   0  0  0  0  0  0  0  0  0  0  0  0
  152.6762  144.7016  161.7362 H   0  0  0  0  0  0  0  0  0  0  0  0
  153.5265  143.3875  159.7684 H   0  0  0  0  0  0  0  0  0  0  0  0
  153.7132  142.5035  162.0612 H   0  0  0  0  0  0  0  0  0  0  0  0
  152.1319  141.7721  161.9425 H   0  0  0  0  0  0  0  0  0  0  0  0
  154.5812  141.0548  160.2595 H   0  0  0  0  0  0  0  0  0  0  0  0
  153.8887  140.0852  161.5394 H   0  0  0  0  0  0  0  0  0  0  0  0
  153.1669  139.2707  159.3067 H   0  0  0  0  0  0  0  0  0  0  0  0
  151.7995  139.7899  160.2621 H   0  0  0  0  0  0  0  0  0  0  0  0
  153.1813  141.4225  158.0790 H   0  0  0  0  0  0  0  0  0  0  0  0
  150.3767  140.7599  157.8004 H   0  0  0  0  0  0  0  0  0  0  0  0
  150.7885  139.0082  154.9094 H   0  0  0  0  0  0  0  0  0  0  0  0
  150.3495  137.9738  156.2367 H   0  0  0  0  0  0  0  0  0  0  0  0
  149.4219  140.7118  154.2448 H   0  0  0  0  0  0  0  0  0  0  0  0
  147.3981  141.9808  154.3962 H   0  0  0  0  0  0  0  0  0  0  0  0
  147.1952  140.2465  159.4761 H   0  0  0  0  0  0  0  0  0  0  0  0
  145.9920  139.2949  158.5270 H   0  0  0  0  0  0  0  0  0  0  0  0
  145.8207  141.0733  158.7338 H   0  0  0  0  0  0  0  0  0  0  0  0
  150.7401  142.1653  159.7308 H   0  0  0  0  0  0  0  0  0  0  0  0
  152.1889  143.7929  157.5830 H   0  0  0  0  0  0  0  0  0  0  0  0
  150.7654  144.3033  158.4873 H   0  0  0  0  0  0  0  0  0  0  0  0
  150.6424  142.9867  157.3549 H   0  0  0  0  0  0  0  0  0  0  0  0
  1  2  1  0  0  0  0
  1 22  1  0  0  0  0
  1 23  1  0  0  0  0
  1 24  1  0  0  0  0
  2 20  1  0  0  0  0
  2  3  1  0  0  0  0
  2 25  1  0  0  0  0
  3  4  1  0  0  0  0
  3 26  1  0  0  0  0
  3 27  1  0  0  0  0
  4  5  1  0  0  0  0
  4 28  1  0  0  0  0
  4 29  1  0  0  0  0
  5  6  1  0  0  0  0
  5 30  1  0  0  0  0
  5 31  1  0  0  0  0
  6  7  1  0  0  0  0
  6 20  1  0  0  0  0
  6 32  1  0  0  0  0
  7  8  1  0  0  0  0
  7 33  1  0  0  0  0
  8  9  2  0  0  0  0
  8 10  1  0  0  0  0
 10 11  1  0  0  0  0
 10 34  1  0  0  0  0
 10 35  1  0  0  0  0
 11 18  1  0  0  0  0
 11 12  1  0  0  0  0
 12 13  2  0  0  0  0
 12 36  1  0  0  0  0
 13 14  1  0  0  0  0
 13 37  1  0  0  0  0
 14 15  2  0  0  0  0
 14 16  1  0  0  0  0
 16 17  1  0  0  0  0
 16 18  1  0  0  0  0
 17 38  1  0  0  0  0
 17 39  1  0  0  0  0
 17 40  1  0  0  0  0
 18 19  2  0  0  0  0
 20 21  1  0  0  0  0
 20 41  1  0  0  0  0
 21 42  1  0  0  0  0
 21 43  1  0  0  0  0
 21 44  1  0  0  0  0
M  END
> <s_m_source_file>
AV-unprocessed.smi

> <i_m_source_file_index>
2143

> <i_lp_mmshare_version>
43012

> <i_f3d_flags>
0

> <s_epik_input>
W0NIM11bQ0BASF0xW0NIMl1bQ0gyXVtDSDJdW0NASF0oW0NASF0xW0NIM10pW05IXUMoPU8pW0NIMl1uMltjSF1bY0hdYyg9TyluKFtDSDNdKWMyPU8=

> <s_epik_cmdline>
J2VwaWtfcHl0aG9uJywgJy1waCcsICc3LjAnLCAnLXRuJywgJzgnLCAnLW1hJywgJzIwMCcsICctbWV0YWxfYmluZGluZycsICctaW1hZScsICc8aW5maWxlLm1hZT4nLCAnLW9tYWUnLCAnPG91dGZpbGUubWFlPic=

> <r_lp_tautomer_probability>
1

> <r_epik_Ionization_Penalty>
3.18445e-08

> <r_epik_Ionization_Penalty_Charging>
1.27977e-08

> <r_epik_Ionization_Penalty_Neutral>
1.90469e-08

> <r_epik_State_Penalty>
-0

> <r_epik_Charging_Adjusted_Penalty>
1.27977e-08

> <i_epik_Tot_Q>
0

> <i_epik_Tot_abs_Q>
0

> <r_epik_Metal_State_Penalty>
-0

> <b_epik_Metal_Only>
0

> <s_lp_Force_Field>
OPLS_2005

> <r_lp_Energy>
20.3985

> <b_lp_Chiralities_Consistent>
1

> <s_lp_Variant>
AV-unprocessed.smi:2143-6

> <Gold.Version>
5.8.1

> <Gold.Id.Protein>
6NUR|6NUR_protein|mol2

> <Gold.PLP.Fitness>
46.2256

> <Gold.PLP.PLP>
-41.1629

> <Gold.PLP.part.hbond>
-1.0000

> <Gold.PLP.part.metal>
0.0000

> <Gold.PLP.part.buried>
-2.9718

> <Gold.PLP.part.nonpolar>
-36.5084

> <Gold.PLP.part.repulsive>
0.2700

> <Gold.PLP.ligand.clash>
0.0000

> <Gold.PLP.ligand.torsion>
0.4728

> <Gold.PLP.Chemscore.Hbond>
1.0000

> <Gold.PLP.Chemscore.CHOScore>
1.0000

> <Gold.PLP.Chemscore.Metal>
0.0000

> <Gold.Chemscore.Hbonds>
donor molecule, donor type, donor heavy atom, donor atom, acceptor molecule, acceptor atom, score
      P1  H  7997  8008       L1     9  1.00

> <Gold.PLP.Chemscore.Internal.Correction>
0.0082

> <Gold.Rescore>
     Score         DG    S(hbond)    S(metal)    S(lipo)     H(rot)  DE(clash)    DE(int)     intcor
     16.89     -17.41       0.98        0.00     107.24       1.51       0.08       0.44       ----

> <Gold.Chemscore.Fitness>
16.8942

> <Gold.Chemscore.DG>
-17.4150

> <Gold.Chemscore.ZeroCoef>
-5.4800

> <Gold.Chemscore.Hbond>
0.9764

> <Gold.Chemscore.Metal>
0.0000

> <Gold.Chemscore.Lipo>
107.2413

> <Gold.Chemscore.Internal_Hbond>
0.0000

> <Gold.Chemscore.DEClash>
0.0814

> <Gold.Chemscore.DEInternal>
0.4394

> <Gold.Chemscore.Rot>
1.5131

> <Gold.Chemscore.Internal.Correction>
   9.000000E+99

> <Gold.Chemscore.Hbonds>
donor molecule, donor type, donor heavy atom, donor atom, acceptor molecule, acceptor atom, score
      P1  H  7997  8008       L1     9  1.00

> <Gold.Chemscore.Hbond.Weighted>
-3.2612

> <Gold.Chemscore.Metal.Weighted>
-0.0000

> <Gold.Chemscore.Lipo.Weighted>
-12.5472

> <Gold.Chemscore.Internal_Hbond.Weighted>
0.0000

> <Gold.Chemscore.DEClash.Weighted>
0.0814

> <Gold.Chemscore.DEInternal.Weighted>
0.4394

> <Gold.Chemscore.Rot.Weighted>
3.8734

> <Gold.Chemscore.Internal.Correction.Weighted>
   9.000000E+99

> <Gold.Protein.RotatedTorsions>
[ 6907 6896 6895 6894 ] final  113.18 input  -60.11 | X-H torsion
[ 7974 7965 7964 7962 ] final -169.19 input  175.53 | X-H torsion
[ 8008 7997 7996 7995 ] final  -54.09 input   59.86 | X-H torsion
[ 10167 10162 10161 10158 ] final -109.62 input  -65.29 | X-H torsion
[ 10718 10713 10712 10709 ] final -120.01 input   66.30 | X-H torsion
[ 10763 10752 10751 10750 ] final  174.85 input  -60.55 | X-H torsion
[ 11005 11000 10999 10996 ] final   12.54 input  -57.11 | X-H torsion

> <Gold.Protein.ActiveResidues>
 VAL166  LYS551  ARG553  GLY616  TRP617  ASP618  TYR619  PRO620  LYS621  CYS622 
 ASP623  PHE694  ASN695  SER759  ASP760  ASP761  ALA762  ILE779  LEU786  VAL792 
 PHE793  MET794  SER795  GLU796  ALA797  LYS798  CYS799  TRP800  GLU811  SER814 

> <Gold.Protein.RotatedAtoms>
  152.4875  133.8412  159.7153 H   0  0  0  0  0  0  0  0  0  0  0  0  # atno 6907 bound_to 6896
  150.8975  133.7153  159.2894 H   0  0  0  0  0  0  0  0  0  0  0  0  # atno 6908 bound_to 6896
  151.4605  135.1042  159.9775 H   0  0  0  0  0  0  0  0  0  0  0  0  # atno 6909 bound_to 6896
  144.7190  140.2259  143.6310 H   0  0  0  0  0  0  0  0  0  0  0  0  # atno 7974 bound_to 7965
  154.4152  140.1184  156.5260 H   0  0  0  0  0  0  0  0  0  0  0  0  # atno 8008 bound_to 7997
  155.6654  140.3496  155.4779 H   0  0  0  0  0  0  0  0  0  0  0  0  # atno 8009 bound_to 7997
  155.9678  140.1135  157.0829 H   0  0  0  0  0  0  0  0  0  0  0  0  # atno 8010 bound_to 7997
  140.1534  143.4180  152.1478 H   0  0  0  0  0  0  0  0  0  0  0  0  # atno 10167 bound_to 10162
  156.1225  130.6334  150.9487 H   0  0  0  0  0  0  0  0  0  0  0  0  # atno 10718 bound_to 10713
  154.4596  135.2767  155.1722 H   0  0  0  0  0  0  0  0  0  0  0  0  # atno 10763 bound_to 10752
  154.3516  135.6149  153.5649 H   0  0  0  0  0  0  0  0  0  0  0  0  # atno 10764 bound_to 10752
  152.9853  135.5812  154.4956 H   0  0  0  0  0  0  0  0  0  0  0  0  # atno 10765 bound_to 10752
  140.4908  134.0842  155.7771 H   0  0  0  0  0  0  0  0  0  0  0  0  # atno 11005 bound_to 11000
  145.8457  139.2151  143.1801 LP  0  0  0  0  0  0  0  0  0  0  0  0  # atno 17320 bound_to 7965
  146.0306  140.8261  142.9878 LP  0  0  0  0  0  0  0  0  0  0  0  0  # atno 17321 bound_to 7965
  139.5415  144.7261  151.4719 LP  0  0  0  0  0  0  0  0  0  0  0  0  # atno 17342 bound_to 10162
  140.6688  143.8338  150.6974 LP  0  0  0  0  0  0  0  0  0  0  0  0  # atno 17343 bound_to 10162
  157.6408  131.0910  150.8255 LP  0  0  0  0  0  0  0  0  0  0  0  0  # atno 17370 bound_to 10713
  156.8350  130.5028  149.5327 LP  0  0  0  0  0  0  0  0  0  0  0  0  # atno 17371 bound_to 10713
  141.1485  133.9012  157.2157 LP  0  0  0  0  0  0  0  0  0  0  0  0  # atno 17394 bound_to 11000
  139.9770  135.0110  156.9656 LP  0  0  0  0  0  0  0  0  0  0  0  0  # atno 17395 bound_to 11000

$$$$
