AV-unprocessed.smi:2311|AV-procd|sdf|9261|dock4
  -GOLD-   2272012483D 1   1.00000     0.00000
 Structure written by MMmdl.
 40 41  0  0  0  0  0  0  0  0  1 V2000
  153.3534  142.1238  161.0560 C   0  0  0  0  0  0  0  0  0  0  0  0
  152.5257  143.1667  160.3348 C   0  0  0  0  0  0  0  0  0  0  0  0
  152.4663  144.4947  160.8012 C   0  0  0  0  0  0  0  0  0  0  0  0
  151.6766  145.4133  160.0866 C   0  0  0  0  0  0  0  0  0  0  0  0
  150.9832  144.9692  158.9442 C   0  0  0  0  0  0  0  0  0  0  0  0
  151.0959  143.6187  158.5435 C   0  0  0  0  0  0  0  0  0  0  0  0
  150.3582  143.2718  157.3804 N   0  0  0  0  0  0  0  0  0  0  0  0
  150.0531  142.0436  156.9248 C   0  0  0  0  0  0  0  0  0  0  0  0
  150.3766  140.9834  157.4613 O   0  0  0  0  0  0  0  0  0  0  0  0
  149.3366  142.1100  155.7930 N   0  0  0  0  0  0  0  0  0  0  0  0
  148.8420  140.9593  155.0420 C   0  0  2  0  0  0  0  0  0  0  0  0
  147.8343  141.4244  153.9843 C   0  0  0  0  0  0  0  0  0  0  0  0
  147.2134  140.2202  153.2634 C   0  0  0  0  0  0  0  0  0  0  0  0
  146.6077  139.3342  154.2030 O   0  0  0  0  0  0  0  0  0  0  0  0
  147.4694  138.7932  155.2102 C   0  0  0  0  0  0  0  0  0  0  0  0
  146.5420  138.0179  156.1605 C   0  0  0  0  0  0  0  0  0  0  0  0
  148.4862  137.8093  154.5923 C   0  0  0  0  0  0  0  0  0  0  0  0
  148.1580  139.9469  155.9790 C   0  0  0  0  0  0  0  0  0  0  0  0
  151.8607  142.7406  159.2394 N   0  0  0  0  0  0  0  0  0  0  0  0
  153.9722  142.5772  161.8308 H   0  0  0  0  0  0  0  0  0  0  0  0
  154.0107  141.6070  160.3562 H   0  0  0  0  0  0  0  0  0  0  0  0
  152.7034  141.3857  161.5263 H   0  0  0  0  0  0  0  0  0  0  0  0
  153.0091  144.8039  161.6826 H   0  0  0  0  0  0  0  0  0  0  0  0
  151.6029  146.4415  160.4089 H   0  0  0  0  0  0  0  0  0  0  0  0
  150.3720  145.6624  158.3846 H   0  0  0  0  0  0  0  0  0  0  0  0
  150.0215  144.0497  156.8330 H   0  0  0  0  0  0  0  0  0  0  0  0
  149.1155  143.0225  155.4226 H   0  0  0  0  0  0  0  0  0  0  0  0
  149.6813  140.4818  154.5339 H   0  0  0  0  0  0  0  0  0  0  0  0
  147.0413  142.0070  154.4559 H   0  0  0  0  0  0  0  0  0  0  0  0
  148.3187  142.0822  153.2616 H   0  0  0  0  0  0  0  0  0  0  0  0
  146.4450  140.5624  152.5702 H   0  0  0  0  0  0  0  0  0  0  0  0
  147.9573  139.6992  152.6611 H   0  0  0  0  0  0  0  0  0  0  0  0
  147.1004  137.5743  156.9857 H   0  0  0  0  0  0  0  0  0  0  0  0
  146.0260  137.2116  155.6382 H   0  0  0  0  0  0  0  0  0  0  0  0
  145.7797  138.6690  156.5896 H   0  0  0  0  0  0  0  0  0  0  0  0
  149.0752  137.3198  155.3687 H   0  0  0  0  0  0  0  0  0  0  0  0
  149.1913  138.2965  153.9203 H   0  0  0  0  0  0  0  0  0  0  0  0
  147.9796  137.0287  154.0241 H   0  0  0  0  0  0  0  0  0  0  0  0
  148.8774  139.5424  156.6924 H   0  0  0  0  0  0  0  0  0  0  0  0
  147.4099  140.4756  156.5721 H   0  0  0  0  0  0  0  0  0  0  0  0
  1  2  1  0  0  0  0
  1 20  1  0  0  0  0
  1 21  1  0  0  0  0
  1 22  1  0  0  0  0
  2 19  1  0  0  0  0
  2  3  2  0  0  0  0
  3  4  1  0  0  0  0
  3 23  1  0  0  0  0
  4  5  2  0  0  0  0
  4 24  1  0  0  0  0
  5  6  1  0  0  0  0
  5 25  1  0  0  0  0
  6  7  1  0  0  0  0
  6 19  2  0  0  0  0
  7  8  1  0  0  0  0
  7 26  1  0  0  0  0
  8  9  2  0  0  0  0
  8 10  1  0  0  0  0
 10 11  1  0  0  0  0
 10 27  1  0  0  0  0
 11 18  1  0  0  0  0
 11 12  1  0  0  0  0
 11 28  1  0  0  0  0
 12 13  1  0  0  0  0
 12 29  1  0  0  0  0
 12 30  1  0  0  0  0
 13 14  1  0  0  0  0
 13 31  1  0  0  0  0
 13 32  1  0  0  0  0
 14 15  1  0  0  0  0
 15 16  1  0  0  0  0
 15 17  1  0  0  0  0
 15 18  1  0  0  0  0
 16 33  1  0  0  0  0
 16 34  1  0  0  0  0
 16 35  1  0  0  0  0
 17 36  1  0  0  0  0
 17 37  1  0  0  0  0
 17 38  1  0  0  0  0
 18 39  1  0  0  0  0
 18 40  1  0  0  0  0
M  END
> <s_m_source_file>
AV-unprocessed.smi

> <i_m_source_file_index>
2311

> <i_lp_mmshare_version>
43012

> <i_f3d_flags>
0

> <s_epik_input>
W0NIM11jMVtjSF1bY0hdW2NIXWMobjEpW05IXUMoPU8pW05IXVtDQEBIXShbQ0gyXTIpW0NIMl1bQ0gyXU9DMihbQ0gzXSlbQ0gzXQ==

> <s_epik_cmdline>
J2VwaWtfcHl0aG9uJywgJy1waCcsICc3LjAnLCAnLXRuJywgJzgnLCAnLW1hJywgJzIwMCcsICctbWV0YWxfYmluZGluZycsICctaW1hZScsICc8aW5maWxlLm1hZT4nLCAnLW9tYWUnLCAnPG91dGZpbGUubWFlPic=

> <r_lp_tautomer_probability>
1

> <r_epik_Ionization_Penalty>
8.54628e-05

> <r_epik_Ionization_Penalty_Charging>
0

> <r_epik_Ionization_Penalty_Neutral>
8.54628e-05

> <r_epik_State_Penalty>
-0

> <r_epik_Charging_Adjusted_Penalty>
0

> <i_epik_Tot_Q>
0

> <i_epik_Tot_abs_Q>
0

> <r_epik_Metal_State_Penalty>
-0

> <b_epik_Metal_Only>
0

> <s_lp_Force_Field>
OPLS_2005

> <r_lp_Energy>
12.4956

> <b_lp_Chiralities_Consistent>
1

> <s_lp_Variant>
AV-unprocessed.smi:2311-1

> <Gold.Version>
5.8.1

> <Gold.Id.Protein>
6NUR|6NUR_protein|mol2

> <Gold.PLP.Fitness>
39.6010

> <Gold.PLP.PLP>
-34.0488

> <Gold.PLP.part.hbond>
-2.0000

> <Gold.PLP.part.metal>
0.0000

> <Gold.PLP.part.buried>
-5.5291

> <Gold.PLP.part.nonpolar>
-27.2731

> <Gold.PLP.part.repulsive>
0.2924

> <Gold.PLP.ligand.clash>
0.0000

> <Gold.PLP.ligand.torsion>
0.1760

> <Gold.PLP.Chemscore.Hbond>
1.9680

> <Gold.PLP.Chemscore.CHOScore>
0.0000

> <Gold.PLP.Chemscore.Metal>
0.0000

> <Gold.Chemscore.Hbonds>
donor molecule, donor type, donor heavy atom, donor atom, acceptor molecule, acceptor atom, score
      L1  H     7    26       P1  8028  1.00
      L1  H    10    27       P1  8028  1.00

> <Gold.PLP.Chemscore.Internal.Correction>
0.0002

> <Gold.Rescore>
     Score         DG    S(hbond)    S(metal)    S(lipo)     H(rot)  DE(clash)    DE(int)     intcor
     16.61     -19.33       1.88        0.00      86.49       1.00       0.12       2.60       ----

> <Gold.Chemscore.Fitness>
16.6130

> <Gold.Chemscore.DG>
-19.3295

> <Gold.Chemscore.ZeroCoef>
-5.4800

> <Gold.Chemscore.Hbond>
1.8833

> <Gold.Chemscore.Metal>
0.0000

> <Gold.Chemscore.Lipo>
86.4892

> <Gold.Chemscore.Internal_Hbond>
0.0000

> <Gold.Chemscore.DEClash>
0.1167

> <Gold.Chemscore.DEInternal>
2.5997

> <Gold.Chemscore.Rot>
1.0000

> <Gold.Chemscore.Internal.Correction>
   9.000000E+99

> <Gold.Chemscore.Hbonds>
donor molecule, donor type, donor heavy atom, donor atom, acceptor molecule, acceptor atom, score
      L1  H     7    26       P1  8028  0.93
      L1  H    10    27       P1  8028  0.95

> <Gold.Chemscore.Hbond.Weighted>
-6.2902

> <Gold.Chemscore.Metal.Weighted>
-0.0000

> <Gold.Chemscore.Lipo.Weighted>
-10.1192

> <Gold.Chemscore.Internal_Hbond.Weighted>
0.0000

> <Gold.Chemscore.DEClash.Weighted>
0.1167

> <Gold.Chemscore.DEInternal.Weighted>
2.5997

> <Gold.Chemscore.Rot.Weighted>
2.5600

> <Gold.Chemscore.Internal.Correction.Weighted>
   9.000000E+99

> <Gold.Protein.RotatedTorsions>
[ 6907 6896 6895 6894 ] final -169.75 input  -60.11 | X-H torsion
[ 7974 7965 7964 7962 ] final -141.29 input  175.53 | X-H torsion
[ 8008 7997 7996 7995 ] final  108.48 input   59.86 | X-H torsion
[ 10167 10162 10161 10158 ] final  -30.21 input  -65.29 | X-H torsion
[ 10718 10713 10712 10709 ] final  -50.65 input   66.30 | X-H torsion
[ 10763 10752 10751 10750 ] final  -27.84 input  -60.55 | X-H torsion
[ 11005 11000 10999 10996 ] final   79.39 input  -57.11 | X-H torsion

> <Gold.Protein.ActiveResidues>
 VAL166  LYS551  ARG553  GLY616  TRP617  ASP618  TYR619  PRO620  LYS621  CYS622 
 ASP623  PHE694  ASN695  SER759  ASP760  ASP761  ALA762  ILE779  LEU786  VAL792 
 PHE793  MET794  SER795  GLU796  ALA797  LYS798  CYS799  TRP800  GLU811  SER814 

> <Gold.Protein.RotatedAtoms>
  151.4967  133.3513  159.2861 H   0  0  0  0  0  0  0  0  0  0  0  0  # atno 6907 bound_to 6896
  150.8800  134.8191  159.7228 H   0  0  0  0  0  0  0  0  0  0  0  0  # atno 6908 bound_to 6896
  152.4756  134.4863  159.9733 H   0  0  0  0  0  0  0  0  0  0  0  0  # atno 6909 bound_to 6896
  144.8531  140.6098  143.5377 H   0  0  0  0  0  0  0  0  0  0  0  0  # atno 7974 bound_to 7965
  156.1906  140.3075  155.9325 H   0  0  0  0  0  0  0  0  0  0  0  0  # atno 8008 bound_to 7997
  155.3181  140.0454  157.3055 H   0  0  0  0  0  0  0  0  0  0  0  0  # atno 8009 bound_to 7997
  154.5448  140.2273  155.8591 H   0  0  0  0  0  0  0  0  0  0  0  0  # atno 8010 bound_to 7997
  140.7252  143.3867  151.1503 H   0  0  0  0  0  0  0  0  0  0  0  0  # atno 10167 bound_to 10162
  156.1781  130.4150  149.9547 H   0  0  0  0  0  0  0  0  0  0  0  0  # atno 10718 bound_to 10713
  153.7387  135.6934  153.4972 H   0  0  0  0  0  0  0  0  0  0  0  0  # atno 10763 bound_to 10752
  153.2084  135.4411  155.0350 H   0  0  0  0  0  0  0  0  0  0  0  0  # atno 10764 bound_to 10752
  154.8228  135.3430  154.6913 H   0  0  0  0  0  0  0  0  0  0  0  0  # atno 10765 bound_to 10752
  139.9175  134.7839  156.1772 H   0  0  0  0  0  0  0  0  0  0  0  0  # atno 11005 bound_to 11000
  145.4460  139.1529  143.3944 LP  0  0  0  0  0  0  0  0  0  0  0  0  # atno 17320 bound_to 7965
  146.2801  140.4584  142.8780 LP  0  0  0  0  0  0  0  0  0  0  0  0  # atno 17321 bound_to 7965
  139.7465  143.8844  152.3065 LP  0  0  0  0  0  0  0  0  0  0  0  0  # atno 17342 bound_to 10162
  139.8683  144.7082  150.9018 LP  0  0  0  0  0  0  0  0  0  0  0  0  # atno 17343 bound_to 10162
  156.7326  130.9049  151.3627 LP  0  0  0  0  0  0  0  0  0  0  0  0  # atno 17370 bound_to 10713
  157.6849  130.9176  150.0362 LP  0  0  0  0  0  0  0  0  0  0  0  0  # atno 17371 bound_to 10713
  141.0664  133.6817  156.2053 LP  0  0  0  0  0  0  0  0  0  0  0  0  # atno 17394 bound_to 11000
  140.6578  134.5000  157.5581 LP  0  0  0  0  0  0  0  0  0  0  0  0  # atno 17395 bound_to 11000

$$$$
