AV-unprocessed.smi:148|AV-procd|sdf|1204|dock10
  -GOLD-   2262018373D 1   1.00000     0.00000
 Structure written by MMmdl.
 63 67  0  0  0  0  0  0  0  0  1 V2000
  154.4345  141.2620  158.8916 O   0  0  0  0  0  0  0  0  0  0  0  0
  153.3872  141.2988  159.8391 C   0  0  0  0  0  0  0  0  0  0  0  0
  152.0853  141.8684  159.2233 C   0  0  2  0  0  0  0  0  0  0  0  0
  151.9077  141.4776  157.7346 C   0  0  0  0  0  0  0  0  0  0  0  0
  151.6742  140.0569  157.5448 N   0  0  0  0  0  0  0  0  0  0  0  0
  151.9878  139.0496  158.4295 C   0  0  0  0  0  0  0  0  0  0  0  0
  151.6982  137.8429  158.0253 N   0  0  0  0  0  0  0  0  0  0  0  0
  151.1389  138.0362  156.7690 C   0  0  0  0  0  0  0  0  0  0  0  0
  150.6377  137.1637  155.7677 C   0  0  0  0  0  0  0  0  0  0  0  0
  150.6486  135.8199  155.9175 N   0  0  0  0  0  0  0  0  0  0  0  0
  151.6407  135.2001  155.0358 C   0  0  0  0  0  0  0  0  0  0  0  0
  151.4306  133.6858  154.9400 C   0  0  0  0  0  0  0  0  0  0  0  0
  151.4552  133.0688  156.3394 C   0  0  0  0  0  0  0  0  0  0  0  0
  150.4093  133.7520  157.2301 C   0  0  0  0  0  0  0  0  0  0  0  0
  150.5924  135.2921  157.2985 C   0  0  2  0  0  0  0  0  0  0  0  0
  149.4944  135.9704  158.1931 C   0  0  2  0  0  0  0  0  0  0  0  0
  149.6978  135.7576  159.7160 C   0  0  0  0  0  0  0  0  0  0  0  0
  148.3283  135.4847  160.3494 C   0  0  0  0  0  0  0  0  0  0  0  0
  147.3120  135.8232  159.2688 C   0  0  0  0  0  0  0  0  0  0  0  0
  148.0429  135.4884  157.9715 C   0  0  1  0  0  0  0  0  0  0  0  0
  147.4044  136.1394  156.8909 O   0  0  0  0  0  0  0  0  0  0  0  0
  150.1505  137.7163  154.6251 N   0  0  0  0  0  0  0  0  0  0  0  0
  150.1668  139.0435  154.4681 C   0  0  0  0  0  0  0  0  0  0  0  0
  150.6192  139.9782  155.3070 N   0  0  0  0  0  0  0  0  0  0  0  0
  151.1021  139.4232  156.4559 C   0  0  0  0  0  0  0  0  0  0  0  0
  151.9524  143.3985  159.4299 C   0  0  2  0  0  0  0  0  0  0  0  0
  151.2871  143.8146  160.7300 C   0  0  0  0  0  0  0  0  0  0  0  0
  150.8877  145.2555  160.4363 C   0  0  0  0  0  0  0  0  0  0  0  0
  150.5582  145.2813  159.0528 O   0  0  0  0  0  0  0  0  0  0  0  0
  151.0470  144.1053  158.4139 C   0  0  0  0  0  0  0  0  0  0  0  0
  155.2526  141.4109  159.3408 H   0  0  0  0  0  0  0  0  0  0  0  0
  153.2314  140.2919  160.2266 H   0  0  0  0  0  0  0  0  0  0  0  0
  153.7086  141.8979  160.6906 H   0  0  0  0  0  0  0  0  0  0  0  0
  151.2641  141.4016  159.7693 H   0  0  0  0  0  0  0  0  0  0  0  0
  151.0639  142.0101  157.2955 H   0  0  0  0  0  0  0  0  0  0  0  0
  152.7874  141.7683  157.1593 H   0  0  0  0  0  0  0  0  0  0  0  0
  152.4516  139.2402  159.3865 H   0  0  0  0  0  0  0  0  0  0  0  0
  151.5792  135.6378  154.0379 H   0  0  0  0  0  0  0  0  0  0  0  0
  152.6436  135.4060  155.4130 H   0  0  0  0  0  0  0  0  0  0  0  0
  150.4750  133.4754  154.4579 H   0  0  0  0  0  0  0  0  0  0  0  0
  152.2031  133.2369  154.3153 H   0  0  0  0  0  0  0  0  0  0  0  0
  151.2598  131.9977  156.2823 H   0  0  0  0  0  0  0  0  0  0  0  0
  152.4468  133.1842  156.7791 H   0  0  0  0  0  0  0  0  0  0  0  0
  149.4126  133.5190  156.8525 H   0  0  0  0  0  0  0  0  0  0  0  0
  150.4809  133.3076  158.2219 H   0  0  0  0  0  0  0  0  0  0  0  0
  151.5647  135.4770  157.7575 H   0  0  0  0  0  0  0  0  0  0  0  0
  149.5024  137.0449  158.0013 H   0  0  0  0  0  0  0  0  0  0  0  0
  150.3629  134.9190  159.9229 H   0  0  0  0  0  0  0  0  0  0  0  0
  150.1443  136.6419  160.1698 H   0  0  0  0  0  0  0  0  0  0  0  0
  148.2486  134.4280  160.6078 H   0  0  0  0  0  0  0  0  0  0  0  0
  148.1686  136.0599  161.2619 H   0  0  0  0  0  0  0  0  0  0  0  0
  146.3771  135.2733  159.3825 H   0  0  0  0  0  0  0  0  0  0  0  0
  147.0813  136.8891  159.3095 H   0  0  0  0  0  0  0  0  0  0  0  0
  148.0205  134.4084  157.8190 H   0  0  0  0  0  0  0  0  0  0  0  0
  147.3951  135.5523  156.1504 H   0  0  0  0  0  0  0  0  0  0  0  0
  149.7653  139.4083  153.5343 H   0  0  0  0  0  0  0  0  0  0  0  0
  152.9403  143.8603  159.3873 H   0  0  0  0  0  0  0  0  0  0  0  0
  150.3984  143.2099  160.9162 H   0  0  0  0  0  0  0  0  0  0  0  0
  151.9445  143.7344  161.5959 H   0  0  0  0  0  0  0  0  0  0  0  0
  150.0555  145.5942  161.0537 H   0  0  0  0  0  0  0  0  0  0  0  0
  151.7315  145.9255  160.6058 H   0  0  0  0  0  0  0  0  0  0  0  0
  151.5728  144.3536  157.4918 H   0  0  0  0  0  0  0  0  0  0  0  0
  150.1908  143.4807  158.1548 H   0  0  0  0  0  0  0  0  0  0  0  0
  1  2  1  0  0  0  0
  1 31  1  0  0  0  0
  2  3  1  0  0  0  0
  2 32  1  0  0  0  0
  2 33  1  0  0  0  0
  3  4  1  0  0  0  0
  3 26  1  0  0  0  0
  3 34  1  0  0  0  0
  4  5  1  0  0  0  0
  4 35  1  0  0  0  0
  4 36  1  0  0  0  0
  5 25  1  0  0  0  0
  5  6  1  0  0  0  0
  6  7  2  0  0  0  0
  6 37  1  0  0  0  0
  7  8  1  0  0  0  0
  8 25  2  0  0  0  0
  8  9  1  0  0  0  0
  9 10  1  0  0  0  0
  9 22  2  0  0  0  0
 10 15  1  0  0  0  0
 10 11  1  0  0  0  0
 11 12  1  0  0  0  0
 11 38  1  0  0  0  0
 11 39  1  0  0  0  0
 12 13  1  0  0  0  0
 12 40  1  0  0  0  0
 12 41  1  0  0  0  0
 13 14  1  0  0  0  0
 13 42  1  0  0  0  0
 13 43  1  0  0  0  0
 14 15  1  0  0  0  0
 14 44  1  0  0  0  0
 14 45  1  0  0  0  0
 15 16  1  0  0  0  0
 15 46  1  0  0  0  0
 16 20  1  0  0  0  0
 16 17  1  0  0  0  0
 16 47  1  0  0  0  0
 17 18  1  0  0  0  0
 17 48  1  0  0  0  0
 17 49  1  0  0  0  0
 18 19  1  0  0  0  0
 18 50  1  0  0  0  0
 18 51  1  0  0  0  0
 19 20  1  0  0  0  0
 19 52  1  0  0  0  0
 19 53  1  0  0  0  0
 20 21  1  0  0  0  0
 20 54  1  0  0  0  0
 21 55  1  0  0  0  0
 22 23  1  0  0  0  0
 23 24  2  0  0  0  0
 23 56  1  0  0  0  0
 24 25  1  0  0  0  0
 26 30  1  0  0  0  0
 26 27  1  0  0  0  0
 26 57  1  0  0  0  0
 27 28  1  0  0  0  0
 27 58  1  0  0  0  0
 27 59  1  0  0  0  0
 28 29  1  0  0  0  0
 28 60  1  0  0  0  0
 28 61  1  0  0  0  0
 29 30  1  0  0  0  0
 30 62  1  0  0  0  0
 30 63  1  0  0  0  0
M  END
> <s_m_source_file>
AV-unprocessed.smi

> <i_m_source_file_index>
148

> <i_lp_mmshare_version>
43012

> <i_f3d_flags>
0

> <s_epik_input>
W0NIMl0xT1tDSDJdW0NIMl1bQ0BIXTFbQ0BIXShbQ0gyXVtPSF0pW0NIMl1uKFtjSF1uMiljKGMyMyluW2NIXW5jM040W0NIMl1bQ0gyXVtDSDJdW0NIMl1bQ0BIXTRbQ0BASF01W0NIMl1bQ0gyXVtDSDJdW0NASF01W09IXQ==

> <s_epik_cmdline>
J2VwaWtfcHl0aG9uJywgJy1waCcsICc3LjAnLCAnLXRuJywgJzgnLCAnLW1hJywgJzIwMCcsICctbWV0YWxfYmluZGluZycsICctaW1hZScsICc8aW5maWxlLm1hZT4nLCAnLW9tYWUnLCAnPG91dGZpbGUubWFlPic=

> <r_lp_tautomer_probability>
1

> <r_epik_Ionization_Penalty>
0.00556303

> <r_epik_Ionization_Penalty_Charging>
0

> <r_epik_Ionization_Penalty_Neutral>
0.00556303

> <r_epik_State_Penalty>
0.00401767

> <r_epik_Charging_Adjusted_Penalty>
0.00401767

> <i_epik_Tot_Q>
0

> <i_epik_Tot_abs_Q>
0

> <r_epik_Metal_State_Penalty>
-0

> <b_epik_Metal_Only>
0

> <s_lp_Force_Field>
OPLS_2005

> <r_lp_Energy>
68.5956

> <b_lp_Chiralities_Consistent>
1

> <s_lp_Variant>
AV-unprocessed.smi:148-3

> <Gold.Version>
5.8.1

> <Gold.Id.Protein>
6NUR|6NUR_protein|mol2

> <Gold.PLP.Fitness>
44.4290

> <Gold.PLP.PLP>
-42.8105

> <Gold.PLP.part.hbond>
-1.8024

> <Gold.PLP.part.metal>
0.0000

> <Gold.PLP.part.buried>
-6.4088

> <Gold.PLP.part.nonpolar>
-34.4371

> <Gold.PLP.part.repulsive>
0.3723

> <Gold.PLP.ligand.clash>
0.0000

> <Gold.PLP.ligand.torsion>
2.1868

> <Gold.PLP.Chemscore.Hbond>
0.8275

> <Gold.PLP.Chemscore.CHOScore>
1.0000

> <Gold.PLP.Chemscore.Metal>
0.0000

> <Gold.Chemscore.Hbonds>
donor molecule, donor type, donor heavy atom, donor atom, acceptor molecule, acceptor atom, score
      P1  H  7989  7998       L1    24  0.13
      P1  H  7997  8009       L1     1  0.21
      L1  C    23    56       P1  7957  1.00

> <Gold.PLP.Chemscore.Internal.Correction>
0.5097

> <Gold.Rescore>
     Score         DG    S(hbond)    S(metal)    S(lipo)     H(rot)  DE(clash)    DE(int)     intcor
      9.08     -12.20       0.80        0.00     107.15       3.32       0.28       2.84       ----

> <Gold.Chemscore.Fitness>
9.0796

> <Gold.Chemscore.DG>
-12.1993

> <Gold.Chemscore.ZeroCoef>
-5.4800

> <Gold.Chemscore.Hbond>
0.8031

> <Gold.Chemscore.Metal>
0.0000

> <Gold.Chemscore.Lipo>
107.1521

> <Gold.Chemscore.Internal_Hbond>
0.0000

> <Gold.Chemscore.DEClash>
0.2820

> <Gold.Chemscore.DEInternal>
2.8376

> <Gold.Chemscore.Rot>
3.3203

> <Gold.Chemscore.Internal.Correction>
   9.000000E+99

> <Gold.Chemscore.Hbonds>
donor molecule, donor type, donor heavy atom, donor atom, acceptor molecule, acceptor atom, score
      P1  H  7997  8009       L1     1  0.03

> <Gold.Chemscore.Hbond.Weighted>
-2.6825

> <Gold.Chemscore.Metal.Weighted>
-0.0000

> <Gold.Chemscore.Lipo.Weighted>
-12.5368

> <Gold.Chemscore.Internal_Hbond.Weighted>
0.0000

> <Gold.Chemscore.DEClash.Weighted>
0.2820

> <Gold.Chemscore.DEInternal.Weighted>
2.8376

> <Gold.Chemscore.Rot.Weighted>
8.5000

> <Gold.Chemscore.Internal.Correction.Weighted>
   9.000000E+99

> <Gold.Protein.RotatedTorsions>
[ 6907 6896 6895 6894 ] final   64.41 input  -60.11 | X-H torsion
[ 7974 7965 7964 7962 ] final   61.88 input  175.53 | X-H torsion
[ 8008 7997 7996 7995 ] final  113.27 input   59.86 | X-H torsion
[ 10167 10162 10161 10158 ] final   78.14 input  -65.29 | X-H torsion
[ 10718 10713 10712 10709 ] final  -55.95 input   66.30 | X-H torsion
[ 10763 10752 10751 10750 ] final -131.81 input  -60.55 | X-H torsion
[ 11005 11000 10999 10996 ] final  -71.88 input  -57.11 | X-H torsion

> <Gold.Protein.ActiveResidues>
 VAL166  LYS551  ARG553  GLY616  TRP617  ASP618  TYR619  PRO620  LYS621  CYS622 
 ASP623  PHE694  ASN695  SER759  ASP760  ASP761  ALA762  ILE779  LEU786  VAL792 
 PHE793  MET794  SER795  GLU796  ALA797  LYS798  CYS799  TRP800  GLU811  SER814 

> <Gold.Protein.RotatedAtoms>
  152.4329  134.5743  159.9929 H   0  0  0  0  0  0  0  0  0  0  0  0  # atno 6907 bound_to 6896
  151.5861  133.3366  159.3026 H   0  0  0  0  0  0  0  0  0  0  0  0  # atno 6908 bound_to 6896
  150.8224  134.7473  159.6848 H   0  0  0  0  0  0  0  0  0  0  0  0  # atno 6909 bound_to 6896
  145.8797  139.3435  143.0713 H   0  0  0  0  0  0  0  0  0  0  0  0  # atno 7974 bound_to 7965
  156.2247  140.2983  156.0037 H   0  0  0  0  0  0  0  0  0  0  0  0  # atno 8008 bound_to 7997
  155.2388  140.0421  157.2989 H   0  0  0  0  0  0  0  0  0  0  0  0  # atno 8009 bound_to 7997
  154.5896  140.2398  155.7947 H   0  0  0  0  0  0  0  0  0  0  0  0  # atno 8010 bound_to 7997
  139.9741  144.5873  150.7959 H   0  0  0  0  0  0  0  0  0  0  0  0  # atno 10167 bound_to 10162
  156.1327  130.4158  150.0239 H   0  0  0  0  0  0  0  0  0  0  0  0  # atno 10718 bound_to 10713
  154.8748  135.3818  154.4306 H   0  0  0  0  0  0  0  0  0  0  0  0  # atno 10763 bound_to 10752
  153.5001  135.7030  153.5842 H   0  0  0  0  0  0  0  0  0  0  0  0  # atno 10764 bound_to 10752
  153.4177  135.3909  155.2058 H   0  0  0  0  0  0  0  0  0  0  0  0  # atno 10765 bound_to 10752
  141.1599  133.6830  156.6973 H   0  0  0  0  0  0  0  0  0  0  0  0  # atno 11005 bound_to 11000
  145.9038  140.9225  143.0489 LP  0  0  0  0  0  0  0  0  0  0  0  0  # atno 17320 bound_to 7965
  144.6727  140.1068  143.7457 LP  0  0  0  0  0  0  0  0  0  0  0  0  # atno 17321 bound_to 7965
  140.7512  143.2968  151.3184 LP  0  0  0  0  0  0  0  0  0  0  0  0  # atno 17342 bound_to 10162
  139.6459  144.0453  152.2590 LP  0  0  0  0  0  0  0  0  0  0  0  0  # atno 17343 bound_to 10162
  156.8147  130.9337  151.3643 LP  0  0  0  0  0  0  0  0  0  0  0  0  # atno 17370 bound_to 10713
  157.6504  130.8879  149.9621 LP  0  0  0  0  0  0  0  0  0  0  0  0  # atno 17371 bound_to 10713
  140.2985  134.8183  157.4078 LP  0  0  0  0  0  0  0  0  0  0  0  0  # atno 17394 bound_to 11000
  140.1283  134.5129  155.8126 LP  0  0  0  0  0  0  0  0  0  0  0  0  # atno 17395 bound_to 11000

$$$$
