AV-unprocessed.smi:1053|AV-procd|sdf|4618|dock9
  -GOLD-   22720 3123D 1   1.00000     0.00000
 Structure written by MMmdl.
 38 39  0  0  0  0  0  0  0  0  2 V2000
  146.4934  138.5427  152.5261 C   0  0  0  0  0  0  0  0  0  0  0  0
  147.5297  139.3730  153.2968 C   0  0  0  0  0  0  0  0  0  0  0  0
  148.6814  138.5554  153.7624 N   0  3  2  0  0  0  0  0  0  0  0  0
  148.3258  137.5834  154.8248 C   0  0  0  0  0  0  0  0  0  0  0  0
  148.2014  138.2765  156.1932 C   0  0  0  0  0  0  0  0  0  0  0  0
  149.4172  138.9506  156.4918 O   0  0  0  0  0  0  0  0  0  0  0  0
  149.7203  139.9769  155.5514 C   0  0  1  0  0  0  0  0  0  0  0  0
  151.0113  140.6722  156.0037 C   0  0  0  0  0  0  0  0  0  0  0  0
  151.4903  140.1468  157.2733 N   0  0  0  0  0  0  0  0  0  0  0  0
  151.9810  140.9318  158.2989 C   0  0  0  0  0  0  0  0  0  0  0  0
  152.7478  140.2999  159.1900 N   0  0  0  0  0  0  0  0  0  0  0  0
  153.2446  141.0392  160.2057 C   0  0  0  0  0  0  0  0  0  0  0  0
  152.9701  142.4161  160.3255 C   0  0  0  0  0  0  0  0  0  0  0  0
  152.1465  142.9800  159.3255 C   0  0  0  0  0  0  0  0  0  0  0  0
  151.7663  144.4529  159.3242 C   0  0  0  0  0  0  0  0  0  0  0  0
  152.1146  145.0503  160.4644 F   0  0  0  0  0  0  0  0  0  0  0  0
  152.3797  145.0741  158.3169 F   0  0  0  0  0  0  0  0  0  0  0  0
  150.4482  144.5765  159.1672 F   0  0  0  0  0  0  0  0  0  0  0  0
  151.6545  142.2286  158.3132 N   0  0  0  0  0  0  0  0  0  0  0  0
  149.8837  139.3350  154.1559 C   0  0  0  0  0  0  0  0  0  0  0  0
  145.6179  139.1475  152.2893 H   0  0  0  0  0  0  0  0  0  0  0  0
  146.1546  137.6900  153.1152 H   0  0  0  0  0  0  0  0  0  0  0  0
  146.8878  138.1660  151.5829 H   0  0  0  0  0  0  0  0  0  0  0  0
  147.8661  140.2168  152.6947 H   0  0  0  0  0  0  0  0  0  0  0  0
  147.0266  139.8007  154.1649 H   0  0  0  0  0  0  0  0  0  0  0  0
  147.4072  137.0523  154.5729 H   0  0  0  0  0  0  0  0  0  0  0  0
  149.1112  136.8281  154.8753 H   0  0  0  0  0  0  0  0  0  0  0  0
  147.3649  138.9764  156.2113 H   0  0  0  0  0  0  0  0  0  0  0  0
  148.0111  137.5362  156.9706 H   0  0  0  0  0  0  0  0  0  0  0  0
  148.9133  140.7111  155.5328 H   0  0  0  0  0  0  0  0  0  0  0  0
  151.7869  140.5627  155.2447 H   0  0  0  0  0  0  0  0  0  0  0  0
  150.8293  141.7408  156.1247 H   0  0  0  0  0  0  0  0  0  0  0  0
  151.5203  139.1458  157.4018 H   0  0  0  0  0  0  0  0  0  0  0  0
  153.8649  140.5290  160.9276 H   0  0  0  0  0  0  0  0  0  0  0  0
  153.3719  142.9995  161.1405 H   0  0  0  0  0  0  0  0  0  0  0  0
  150.7344  138.6520  154.1725 H   0  0  0  0  0  0  0  0  0  0  0  0
  150.1215  140.0911  153.4086 H   0  0  0  0  0  0  0  0  0  0  0  0
  148.9488  138.0008  152.9614 H   0  0  0  0  0  0  0  0  0  0  0  0
  1  2  1  0  0  0  0
  1 21  1  0  0  0  0
  1 22  1  0  0  0  0
  1 23  1  0  0  0  0
  2  3  1  0  0  0  0
  2 24  1  0  0  0  0
  2 25  1  0  0  0  0
  3 20  1  0  0  0  0
  3  4  1  0  0  0  0
  3 38  1  0  0  0  0
  4  5  1  0  0  0  0
  4 26  1  0  0  0  0
  4 27  1  0  0  0  0
  5  6  1  0  0  0  0
  5 28  1  0  0  0  0
  5 29  1  0  0  0  0
  6  7  1  0  0  0  0
  7  8  1  0  0  0  0
  7 20  1  0  0  0  0
  7 30  1  0  0  0  0
  8  9  1  0  0  0  0
  8 31  1  0  0  0  0
  8 32  1  0  0  0  0
  9 10  1  0  0  0  0
  9 33  1  0  0  0  0
 10 19  1  0  0  0  0
 10 11  2  0  0  0  0
 11 12  1  0  0  0  0
 12 13  2  0  0  0  0
 12 34  1  0  0  0  0
 13 14  1  0  0  0  0
 13 35  1  0  0  0  0
 14 15  1  0  0  0  0
 14 19  2  0  0  0  0
 15 16  1  0  0  0  0
 15 17  1  0  0  0  0
 15 18  1  0  0  0  0
 20 36  1  0  0  0  0
 20 37  1  0  0  0  0
M  CHG  1   3   1
M  END
> <s_m_source_file>
AV-unprocessed.smi

> <i_m_source_file_index>
1053

> <i_lp_mmshare_version>
43012

> <i_f3d_flags>
0

> <s_epik_input>
W0NIM11bQ0gyXU4xW0NIMl1bQ0gyXU9bQ0BIXShbQ0gyXTEpW0NIMl1bTkhdYzJuW2NIXVtjSF1jKG4yKUMoRikoRilG

> <s_epik_cmdline>
J2VwaWtfcHl0aG9uJywgJy1waCcsICc3LjAnLCAnLXRuJywgJzgnLCAnLW1hJywgJzIwMCcsICctbWV0YWxfYmluZGluZycsICctaW1hZScsICc8aW5maWxlLm1hZT4nLCAnLW9tYWUnLCAnPG91dGZpbGUubWFlPic=

> <r_lp_tautomer_probability>
1

> <r_epik_Ionization_Penalty>
0.178506

> <r_epik_Ionization_Penalty_Charging>
0.178504

> <r_epik_Ionization_Penalty_Neutral>
2.47619e-06

> <r_epik_State_Penalty>
0.167974

> <r_epik_Charging_Adjusted_Penalty>
0.346478

> <i_epik_Tot_Q>
1

> <i_epik_Tot_abs_Q>
1

> <r_epik_Metal_State_Penalty>
0.167974

> <b_epik_Metal_Only>
0

> <s_lp_Force_Field>
OPLS_2005

> <r_lp_Energy>
12.5681

> <b_lp_Chiralities_Consistent>
1

> <s_lp_Variant>
AV-unprocessed.smi:1053-2

> <Gold.Version>
5.8.1

> <Gold.Id.Protein>
6NUR|6NUR_protein|mol2

> <Gold.PLP.Fitness>
44.3148

> <Gold.PLP.PLP>
-40.9469

> <Gold.PLP.part.hbond>
-1.9195

> <Gold.PLP.part.metal>
0.0000

> <Gold.PLP.part.buried>
-2.3665

> <Gold.PLP.part.nonpolar>
-36.6559

> <Gold.PLP.part.repulsive>
0.1326

> <Gold.PLP.ligand.clash>
0.0000

> <Gold.PLP.ligand.torsion>
1.3327

> <Gold.PLP.Chemscore.Hbond>
2.0000

> <Gold.PLP.Chemscore.CHOScore>
0.0000

> <Gold.PLP.Chemscore.Metal>
0.0000

> <Gold.Chemscore.Hbonds>
donor molecule, donor type, donor heavy atom, donor atom, acceptor molecule, acceptor atom, score
      L1  H     3    38       P1  7948  1.89

> <Gold.PLP.Chemscore.Internal.Correction>
0.0333

> <Gold.Rescore>
     Score         DG    S(hbond)    S(metal)    S(lipo)     H(rot)  DE(clash)    DE(int)     intcor
     12.77     -13.99       1.00        0.00      78.26       1.55       0.07       1.15       ----

> <Gold.Chemscore.Fitness>
12.7707

> <Gold.Chemscore.DG>
-13.9910

> <Gold.Chemscore.ZeroCoef>
-5.4800

> <Gold.Chemscore.Hbond>
0.9986

> <Gold.Chemscore.Metal>
0.0000

> <Gold.Chemscore.Lipo>
78.2595

> <Gold.Chemscore.Internal_Hbond>
0.0000

> <Gold.Chemscore.DEClash>
0.0668

> <Gold.Chemscore.DEInternal>
1.1535

> <Gold.Chemscore.Rot>
1.5549

> <Gold.Chemscore.Internal.Correction>
   9.000000E+99

> <Gold.Chemscore.Hbonds>
donor molecule, donor type, donor heavy atom, donor atom, acceptor molecule, acceptor atom, score
      L1  H     3    38       P1  7948  0.88

> <Gold.Chemscore.Hbond.Weighted>
-3.3352

> <Gold.Chemscore.Metal.Weighted>
-0.0000

> <Gold.Chemscore.Lipo.Weighted>
-9.1564

> <Gold.Chemscore.Internal_Hbond.Weighted>
0.0000

> <Gold.Chemscore.DEClash.Weighted>
0.0668

> <Gold.Chemscore.DEInternal.Weighted>
1.1535

> <Gold.Chemscore.Rot.Weighted>
3.9806

> <Gold.Chemscore.Internal.Correction.Weighted>
   9.000000E+99

> <Gold.Protein.RotatedTorsions>
[ 6907 6896 6895 6894 ] final   -2.28 input  -60.11 | X-H torsion
[ 7974 7965 7964 7962 ] final  -77.39 input  175.53 | X-H torsion
[ 8008 7997 7996 7995 ] final   50.18 input   59.86 | X-H torsion
[ 10167 10162 10161 10158 ] final  -73.34 input  -65.29 | X-H torsion
[ 10718 10713 10712 10709 ] final -173.96 input   66.30 | X-H torsion
[ 10763 10752 10751 10750 ] final   26.31 input  -60.55 | X-H torsion
[ 11005 11000 10999 10996 ] final   64.20 input  -57.11 | X-H torsion

> <Gold.Protein.ActiveResidues>
 VAL166  LYS551  ARG553  GLY616  TRP617  ASP618  TYR619  PRO620  LYS621  CYS622 
 ASP623  PHE694  ASN695  SER759  ASP760  ASP761  ALA762  ILE779  LEU786  VAL792 
 PHE793  MET794  SER795  GLU796  ALA797  LYS798  CYS799  TRP800  GLU811  SER814 

> <Gold.Protein.RotatedAtoms>
  151.5325  135.1068  159.9905 H   0  0  0  0  0  0  0  0  0  0  0  0  # atno 6907 bound_to 6896
  152.4572  133.7743  159.6827 H   0  0  0  0  0  0  0  0  0  0  0  0  # atno 6908 bound_to 6896
  150.8520  133.7707  159.3047 H   0  0  0  0  0  0  0  0  0  0  0  0  # atno 6909 bound_to 6896
  145.6002  140.9410  143.1245 H   0  0  0  0  0  0  0  0  0  0  0  0  # atno 7974 bound_to 7965
  155.4145  140.3444  155.4266 H   0  0  0  0  0  0  0  0  0  0  0  0  # atno 8008 bound_to 7997
  156.1429  140.1547  156.8923 H   0  0  0  0  0  0  0  0  0  0  0  0  # atno 8009 bound_to 7997
  154.4986  140.0821  156.7731 H   0  0  0  0  0  0  0  0  0  0  0  0  # atno 8010 bound_to 7997
  140.5118  143.2344  151.7580 H   0  0  0  0  0  0  0  0  0  0  0  0  # atno 10167 bound_to 10162
  156.7780  130.9473  151.3120 H   0  0  0  0  0  0  0  0  0  0  0  0  # atno 10718 bound_to 10713
  153.0631  135.6563  154.0417 H   0  0  0  0  0  0  0  0  0  0  0  0  # atno 10763 bound_to 10752
  154.0080  135.2931  155.3397 H   0  0  0  0  0  0  0  0  0  0  0  0  # atno 10764 bound_to 10752
  154.6978  135.5257  153.8551 H   0  0  0  0  0  0  0  0  0  0  0  0  # atno 10765 bound_to 10752
  139.9974  134.6495  155.9987 H   0  0  0  0  0  0  0  0  0  0  0  0  # atno 11005 bound_to 11000
  144.7313  139.7718  143.7346 LP  0  0  0  0  0  0  0  0  0  0  0  0  # atno 17320 bound_to 7965
  146.1581  139.4686  143.0005 LP  0  0  0  0  0  0  0  0  0  0  0  0  # atno 17321 bound_to 7965
  139.4898  144.4380  151.9797 LP  0  0  0  0  0  0  0  0  0  0  0  0  # atno 17342 bound_to 10162
  140.3472  144.3132  150.5956 LP  0  0  0  0  0  0  0  0  0  0  0  0  # atno 17343 bound_to 10162
  157.6660  130.9008  149.9933 LP  0  0  0  0  0  0  0  0  0  0  0  0  # atno 17370 bound_to 10713
  156.1236  130.3645  149.9846 LP  0  0  0  0  0  0  0  0  0  0  0  0  # atno 17371 bound_to 10713
  141.1615  133.6538  156.4336 LP  0  0  0  0  0  0  0  0  0  0  0  0  # atno 17394 bound_to 11000
  140.4792  134.6681  157.5163 LP  0  0  0  0  0  0  0  0  0  0  0  0  # atno 17395 bound_to 11000

$$$$
