AV-unprocessed.smi:1714|AV-procd|sdf|6907|dock5
  -GOLD-   22720 8113D 1   1.00000     0.00000
 Structure written by MMmdl.
 45 46  0  0  0  0  0  0  0  0  1 V2000
  150.4813  143.4719  157.3836 C   0  0  0  0  0  0  0  0  0  0  0  0
  151.1174  143.4291  158.7638 C   0  0  0  0  0  0  0  0  0  0  0  0
  152.2550  142.6215  158.9755 C   0  0  0  0  0  0  0  0  0  0  0  0
  152.8405  142.5831  160.2525 C   0  0  0  0  0  0  0  0  0  0  0  0
  152.2588  143.3585  161.2704 C   0  0  0  0  0  0  0  0  0  0  0  0
  151.1712  144.1322  161.0771 N   0  0  0  0  0  0  0  0  0  0  0  0
  150.5944  144.1804  159.8502 C   0  0  0  0  0  0  0  0  0  0  0  0
  149.4485  144.9763  159.5708 N   0  0  0  0  0  0  0  0  0  0  0  0
  148.4902  145.3929  160.4164 C   0  0  0  0  0  0  0  0  0  0  0  0
  148.4337  145.1356  161.6192 O   0  0  0  0  0  0  0  0  0  0  0  0
  147.5771  146.1347  159.7780 N   0  0  0  0  0  0  0  0  0  0  0  0
  146.3942  146.7165  160.4034 C   0  0  0  0  0  0  0  0  0  0  0  0
  145.4319  147.3485  159.3578 C   0  0  0  0  0  0  0  0  0  0  0  0
  144.8827  146.1941  158.4854 C   0  0  0  0  0  0  0  0  0  0  0  0
  144.2387  147.9265  160.1610 C   0  0  0  0  0  0  0  0  0  0  0  0
  146.1074  148.4127  158.5626 N   0  0  0  0  0  0  0  0  0  0  0  0
  145.3968  148.8144  157.3427 C   0  0  0  0  0  0  0  0  0  0  0  0
  146.2023  149.8247  156.5082 C   0  0  0  0  0  0  0  0  0  0  0  0
  146.5144  150.9620  157.3027 O   0  0  0  0  0  0  0  0  0  0  0  0
  147.2582  150.6226  158.4663 C   0  0  0  0  0  0  0  0  0  0  0  0
  146.4615  149.6199  159.3181 C   0  0  0  0  0  0  0  0  0  0  0  0
  151.0178  142.8363  156.6785 H   0  0  0  0  0  0  0  0  0  0  0  0
  150.4887  144.4890  156.9904 H   0  0  0  0  0  0  0  0  0  0  0  0
  149.4485  143.1250  157.4292 H   0  0  0  0  0  0  0  0  0  0  0  0
  152.6761  142.0372  158.1705 H   0  0  0  0  0  0  0  0  0  0  0  0
  153.7118  141.9755  160.4467 H   0  0  0  0  0  0  0  0  0  0  0  0
  152.6771  143.3588  162.2662 H   0  0  0  0  0  0  0  0  0  0  0  0
  149.3477  145.2625  158.6085 H   0  0  0  0  0  0  0  0  0  0  0  0
  147.6929  146.2965  158.7881 H   0  0  0  0  0  0  0  0  0  0  0  0
  145.8898  145.9512  160.9942 H   0  0  0  0  0  0  0  0  0  0  0  0
  146.7147  147.4707  161.1247 H   0  0  0  0  0  0  0  0  0  0  0  0
  144.3841  145.4440  159.1005 H   0  0  0  0  0  0  0  0  0  0  0  0
  145.6738  145.6772  157.9424 H   0  0  0  0  0  0  0  0  0  0  0  0
  144.1501  146.5391  157.7561 H   0  0  0  0  0  0  0  0  0  0  0  0
  143.8437  147.1987  160.8708 H   0  0  0  0  0  0  0  0  0  0  0  0
  143.4039  148.2039  159.5177 H   0  0  0  0  0  0  0  0  0  0  0  0
  144.5260  148.8117  160.7298 H   0  0  0  0  0  0  0  0  0  0  0  0
  145.1908  147.9532  156.7102 H   0  0  0  0  0  0  0  0  0  0  0  0
  144.4344  149.2589  157.5966 H   0  0  0  0  0  0  0  0  0  0  0  0
  147.1204  149.3702  156.1324 H   0  0  0  0  0  0  0  0  0  0  0  0
  145.6246  150.1443  155.6409 H   0  0  0  0  0  0  0  0  0  0  0  0
  148.2245  150.2036  158.1806 H   0  0  0  0  0  0  0  0  0  0  0  0
  147.4588  151.5290  159.0374 H   0  0  0  0  0  0  0  0  0  0  0  0
  145.5617  150.1110  159.6887 H   0  0  0  0  0  0  0  0  0  0  0  0
  147.0684  149.3713  160.1867 H   0  0  0  0  0  0  0  0  0  0  0  0
  1  2  1  0  0  0  0
  1 22  1  0  0  0  0
  1 23  1  0  0  0  0
  1 24  1  0  0  0  0
  2  7  1  0  0  0  0
  2  3  2  0  0  0  0
  3  4  1  0  0  0  0
  3 25  1  0  0  0  0
  4  5  2  0  0  0  0
  4 26  1  0  0  0  0
  5  6  1  0  0  0  0
  5 27  1  0  0  0  0
  6  7  2  0  0  0  0
  7  8  1  0  0  0  0
  8  9  1  0  0  0  0
  8 28  1  0  0  0  0
  9 10  2  0  0  0  0
  9 11  1  0  0  0  0
 11 12  1  0  0  0  0
 11 29  1  0  0  0  0
 12 13  1  0  0  0  0
 12 30  1  0  0  0  0
 12 31  1  0  0  0  0
 13 14  1  0  0  0  0
 13 15  1  0  0  0  0
 13 16  1  0  0  0  0
 14 32  1  0  0  0  0
 14 33  1  0  0  0  0
 14 34  1  0  0  0  0
 15 35  1  0  0  0  0
 15 36  1  0  0  0  0
 15 37  1  0  0  0  0
 16 21  1  0  0  0  0
 16 17  1  0  0  0  0
 17 18  1  0  0  0  0
 17 38  1  0  0  0  0
 17 39  1  0  0  0  0
 18 19  1  0  0  0  0
 18 40  1  0  0  0  0
 18 41  1  0  0  0  0
 19 20  1  0  0  0  0
 20 21  1  0  0  0  0
 20 42  1  0  0  0  0
 20 43  1  0  0  0  0
 21 44  1  0  0  0  0
 21 45  1  0  0  0  0
M  END
> <s_m_source_file>
AV-unprocessed.smi

> <i_m_source_file_index>
1714

> <i_lp_mmshare_version>
43012

> <i_f3d_flags>
0

> <s_epik_input>
W0NIM11jMVtjSF1bY0hdW2NIXW5jMVtOSF1DKD1PKVtOSF1bQ0gyXUMoW0NIM10pKFtDSDNdKU4yW0NIMl1bQ0gyXU9bQ0gyXVtDSDJdMg==

> <s_epik_cmdline>
J2VwaWtfcHl0aG9uJywgJy1waCcsICc3LjAnLCAnLXRuJywgJzgnLCAnLW1hJywgJzIwMCcsICctbWV0YWxfYmluZGluZycsICctaW1hZScsICc8aW5maWxlLm1hZT4nLCAnLW9tYWUnLCAnPG91dGZpbGUubWFlPic=

> <r_epik_Ionization_Penalty>
0.26605

> <r_epik_Ionization_Penalty_Charging>
0

> <r_epik_Ionization_Penalty_Neutral>
0.26605

> <r_epik_State_Penalty>
0.257924

> <r_epik_Charging_Adjusted_Penalty>
0.257924

> <i_epik_Tot_Q>
0

> <i_epik_Tot_abs_Q>
0

> <r_epik_Metal_State_Penalty>
0.257922

> <b_epik_Metal_Only>
0

> <s_lp_Force_Field>
OPLS_2005

> <r_lp_Energy>
43.6145

> <b_lp_Chiralities_Consistent>
1

> <s_lp_Variant>
AV-unprocessed.smi:1714-1

> <Gold.Version>
5.8.1

> <Gold.Id.Protein>
6NUR|6NUR_protein|mol2

> <Gold.PLP.Fitness>
52.2674

> <Gold.PLP.PLP>
-45.7863

> <Gold.PLP.part.hbond>
-3.4313

> <Gold.PLP.part.metal>
0.0000

> <Gold.PLP.part.buried>
-4.7882

> <Gold.PLP.part.nonpolar>
-37.7093

> <Gold.PLP.part.repulsive>
0.9069

> <Gold.PLP.ligand.clash>
0.0000

> <Gold.PLP.ligand.torsion>
0.4282

> <Gold.PLP.Chemscore.Hbond>
2.4233

> <Gold.PLP.Chemscore.CHOScore>
0.0000

> <Gold.PLP.Chemscore.Metal>
0.0000

> <Gold.Chemscore.Hbonds>
donor molecule, donor type, donor heavy atom, donor atom, acceptor molecule, acceptor atom, score
      L1  H     8    28       P1  8029  0.72
      L1  H    11    29       P1  8029  1.00

> <Gold.PLP.Chemscore.Internal.Correction>
0.0676

> <Gold.Rescore>
     Score         DG    S(hbond)    S(metal)    S(lipo)     H(rot)  DE(clash)    DE(int)     intcor
     21.10     -23.05       2.66        0.00     105.82       1.45       1.24       0.71       ----

> <Gold.Chemscore.Fitness>
21.1035

> <Gold.Chemscore.DG>
-23.0498

> <Gold.Chemscore.ZeroCoef>
-5.4800

> <Gold.Chemscore.Hbond>
2.6649

> <Gold.Chemscore.Metal>
0.0000

> <Gold.Chemscore.Lipo>
105.8159

> <Gold.Chemscore.Internal_Hbond>
0.0000

> <Gold.Chemscore.DEClash>
1.2372

> <Gold.Chemscore.DEInternal>
0.7091

> <Gold.Chemscore.Rot>
1.4498

> <Gold.Chemscore.Internal.Correction>
   9.000000E+99

> <Gold.Chemscore.Hbonds>
donor molecule, donor type, donor heavy atom, donor atom, acceptor molecule, acceptor atom, score
      L1  H     8    28       P1  8029  0.63
      L1  H    11    29       P1  8029  0.93

> <Gold.Chemscore.Hbond.Weighted>
-8.9009

> <Gold.Chemscore.Metal.Weighted>
-0.0000

> <Gold.Chemscore.Lipo.Weighted>
-12.3805

> <Gold.Chemscore.Internal_Hbond.Weighted>
0.0000

> <Gold.Chemscore.DEClash.Weighted>
1.2372

> <Gold.Chemscore.DEInternal.Weighted>
0.7091

> <Gold.Chemscore.Rot.Weighted>
3.7116

> <Gold.Chemscore.Internal.Correction.Weighted>
   9.000000E+99

> <Gold.Protein.RotatedTorsions>
[ 6907 6896 6895 6894 ] final  -24.45 input  -60.11 | X-H torsion
[ 7974 7965 7964 7962 ] final  -47.43 input  175.53 | X-H torsion
[ 8008 7997 7996 7995 ] final   96.10 input   59.86 | X-H torsion
[ 10167 10162 10161 10158 ] final   44.92 input  -65.29 | X-H torsion
[ 10718 10713 10712 10709 ] final    0.47 input   66.30 | X-H torsion
[ 10763 10752 10751 10750 ] final   72.33 input  -60.55 | X-H torsion
[ 11005 11000 10999 10996 ] final  -93.22 input  -57.11 | X-H torsion

> <Gold.Protein.ActiveResidues>
 VAL166  LYS551  ARG553  GLY616  TRP617  ASP618  TYR619  PRO620  LYS621  CYS622 
 ASP623  PHE694  ASN695  SER759  ASP760  ASP761  ALA762  ILE779  LEU786  VAL792 
 PHE793  MET794  SER795  GLU796  ALA797  LYS798  CYS799  TRP800  GLU811  SER814 

> <Gold.Protein.RotatedAtoms>
  151.1893  135.0395  159.8825 H   0  0  0  0  0  0  0  0  0  0  0  0  # atno 6907 bound_to 6896
  152.5440  134.0974  159.8313 H   0  0  0  0  0  0  0  0  0  0  0  0  # atno 6908 bound_to 6896
  151.1101  133.5132  159.2638 H   0  0  0  0  0  0  0  0  0  0  0  0  # atno 6909 bound_to 6896
  145.9616  140.7473  142.9454 H   0  0  0  0  0  0  0  0  0  0  0  0  # atno 7974 bound_to 7965
  156.0760  140.3277  155.7635 H   0  0  0  0  0  0  0  0  0  0  0  0  # atno 8008 bound_to 7997
  155.5229  140.0586  157.2921 H   0  0  0  0  0  0  0  0  0  0  0  0  # atno 8009 bound_to 7997
  154.4556  140.1941  156.0407 H   0  0  0  0  0  0  0  0  0  0  0  0  # atno 8010 bound_to 7997
  140.3294  144.2608  150.6170 H   0  0  0  0  0  0  0  0  0  0  0  0  # atno 10167 bound_to 10162
  156.8338  130.5498  149.5684 H   0  0  0  0  0  0  0  0  0  0  0  0  # atno 10718 bound_to 10713
  153.0452  135.5104  154.7728 H   0  0  0  0  0  0  0  0  0  0  0  0  # atno 10763 bound_to 10752
  154.6633  135.2942  154.9840 H   0  0  0  0  0  0  0  0  0  0  0  0  # atno 10764 bound_to 10752
  154.0683  135.6681  153.4873 H   0  0  0  0  0  0  0  0  0  0  0  0  # atno 10765 bound_to 10752
  141.1503  133.7873  157.0129 H   0  0  0  0  0  0  0  0  0  0  0  0  # atno 11005 bound_to 11000
  144.6816  140.2601  143.7320 LP  0  0  0  0  0  0  0  0  0  0  0  0  # atno 17320 bound_to 7965
  145.8031  139.1972  143.2036 LP  0  0  0  0  0  0  0  0  0  0  0  0  # atno 17321 bound_to 7965
  140.5411  143.2223  151.8083 LP  0  0  0  0  0  0  0  0  0  0  0  0  # atno 17342 bound_to 10162
  139.4859  144.4599  151.9554 LP  0  0  0  0  0  0  0  0  0  0  0  0  # atno 17343 bound_to 10162
  156.0919  130.5902  150.9747 LP  0  0  0  0  0  0  0  0  0  0  0  0  # atno 17370 bound_to 10713
  157.6392  131.0912  150.8286 LP  0  0  0  0  0  0  0  0  0  0  0  0  # atno 17371 bound_to 10713
  140.0866  134.9617  157.1710 LP  0  0  0  0  0  0  0  0  0  0  0  0  # atno 17394 bound_to 11000
  140.3503  134.2606  155.7199 LP  0  0  0  0  0  0  0  0  0  0  0  0  # atno 17395 bound_to 11000

$$$$
