AV-unprocessed.smi:570|AV-procd|sdf|2961|dock7
  -GOLD-   2262023463D 1   1.00000     0.00000
 Structure written by MMmdl.
 40 41  0  0  0  0  0  0  0  0  1 V2000
  146.2948  145.1324  152.8695 C   0  0  0  0  0  0  0  0  0  0  0  0
  147.0574  143.9410  152.7899 O   0  0  0  0  0  0  0  0  0  0  0  0
  147.2098  143.3086  154.0492 C   0  0  0  0  0  0  0  0  0  0  0  0
  147.8379  141.9270  153.8360 C   0  0  0  0  0  0  0  0  0  0  0  0
  149.3726  141.9809  153.7686 C   0  0  0  0  0  0  0  0  0  0  0  0
  149.9714  141.7046  155.0684 N   0  0  0  0  0  0  0  0  0  0  0  0
  150.7525  140.6495  155.3496 C   0  0  0  0  0  0  0  0  0  0  0  0
  151.0449  139.7797  154.5282 O   0  0  0  0  0  0  0  0  0  0  0  0
  151.1913  140.5302  156.7806 C   0  0  0  0  0  0  0  0  0  0  0  0
  151.3749  141.6921  157.4488 N   0  0  0  0  0  0  0  0  0  0  0  0
  151.7670  141.6427  158.7277 C   0  0  0  0  0  0  0  0  0  0  0  0
  151.9600  142.8599  159.3938 N   0  0  0  0  0  0  0  0  0  0  0  0
  152.1708  144.1151  158.6679 C   0  0  0  0  0  0  0  0  0  0  0  0
  151.6237  145.3102  159.4671 C   0  0  0  0  0  0  0  0  0  0  0  0
  152.2023  145.3281  160.7659 O   0  0  0  0  0  0  0  0  0  0  0  0
  151.8726  144.1554  161.4995 C   0  0  0  0  0  0  0  0  0  0  0  0
  152.4323  142.9167  160.7799 C   0  0  0  0  0  0  0  0  0  0  0  0
  151.9899  140.5152  159.4140 N   0  0  0  0  0  0  0  0  0  0  0  0
  151.7992  139.3425  158.7751 C   0  0  0  0  0  0  0  0  0  0  0  0
  151.3879  139.2834  157.4295 C   0  0  0  0  0  0  0  0  0  0  0  0
  151.1210  137.7470  156.6784 Cl  0  0  0  0  0  0  0  0  0  0  0  0
  146.2078  145.5788  151.8790 H   0  0  0  0  0  0  0  0  0  0  0  0
  146.7703  145.8615  153.5268 H   0  0  0  0  0  0  0  0  0  0  0  0
  145.2877  144.9327  153.2377 H   0  0  0  0  0  0  0  0  0  0  0  0
  147.8468  143.9135  154.6968 H   0  0  0  0  0  0  0  0  0  0  0  0
  146.2391  143.2095  154.5378 H   0  0  0  0  0  0  0  0  0  0  0  0
  147.5314  141.2631  154.6455 H   0  0  0  0  0  0  0  0  0  0  0  0
  147.4421  141.4947  152.9158 H   0  0  0  0  0  0  0  0  0  0  0  0
  149.7495  141.2780  153.0233 H   0  0  0  0  0  0  0  0  0  0  0  0
  149.6963  142.9725  153.4511 H   0  0  0  0  0  0  0  0  0  0  0  0
  149.7694  142.3550  155.8141 H   0  0  0  0  0  0  0  0  0  0  0  0
  153.2396  144.2403  158.4906 H   0  0  0  0  0  0  0  0  0  0  0  0
  151.6868  144.1101  157.6917 H   0  0  0  0  0  0  0  0  0  0  0  0
  151.8671  146.2431  158.9584 H   0  0  0  0  0  0  0  0  0  0  0  0
  150.5359  145.2632  159.5410 H   0  0  0  0  0  0  0  0  0  0  0  0
  152.2991  144.2320  162.4998 H   0  0  0  0  0  0  0  0  0  0  0  0
  150.7906  144.0792  161.6201 H   0  0  0  0  0  0  0  0  0  0  0  0
  152.1446  142.0339  161.3500 H   0  0  0  0  0  0  0  0  0  0  0  0
  153.5224  142.9477  160.7751 H   0  0  0  0  0  0  0  0  0  0  0  0
  151.9693  138.4423  159.3472 H   0  0  0  0  0  0  0  0  0  0  0  0
  1  2  1  0  0  0  0
  1 22  1  0  0  0  0
  1 23  1  0  0  0  0
  1 24  1  0  0  0  0
  2  3  1  0  0  0  0
  3  4  1  0  0  0  0
  3 25  1  0  0  0  0
  3 26  1  0  0  0  0
  4  5  1  0  0  0  0
  4 27  1  0  0  0  0
  4 28  1  0  0  0  0
  5  6  1  0  0  0  0
  5 29  1  0  0  0  0
  5 30  1  0  0  0  0
  6  7  1  0  0  0  0
  6 31  1  0  0  0  0
  7  8  2  0  0  0  0
  7  9  1  0  0  0  0
  9 20  1  0  0  0  0
  9 10  2  0  0  0  0
 10 11  1  0  0  0  0
 11 12  1  0  0  0  0
 11 18  2  0  0  0  0
 12 17  1  0  0  0  0
 12 13  1  0  0  0  0
 13 14  1  0  0  0  0
 13 32  1  0  0  0  0
 13 33  1  0  0  0  0
 14 15  1  0  0  0  0
 14 34  1  0  0  0  0
 14 35  1  0  0  0  0
 15 16  1  0  0  0  0
 16 17  1  0  0  0  0
 16 36  1  0  0  0  0
 16 37  1  0  0  0  0
 17 38  1  0  0  0  0
 17 39  1  0  0  0  0
 18 19  1  0  0  0  0
 19 20  2  0  0  0  0
 19 40  1  0  0  0  0
 20 21  1  0  0  0  0
M  END
> <s_m_source_file>
AV-unprocessed.smi

> <i_m_source_file_index>
570

> <i_lp_mmshare_version>
43012

> <i_f3d_flags>
0

> <s_epik_input>
W0NIM11PW0NIMl1bQ0gyXVtDSDJdW05IXUMoPU8pYzFuYyhuW2NIXWMxQ2wpTjJbQ0gyXVtDSDJdT1tDSDJdW0NIMl0y

> <s_epik_cmdline>
J2VwaWtfcHl0aG9uJywgJy1waCcsICc3LjAnLCAnLXRuJywgJzgnLCAnLW1hJywgJzIwMCcsICctbWV0YWxfYmluZGluZycsICctaW1hZScsICc8aW5maWxlLm1hZT4nLCAnLW9tYWUnLCAnPG91dGZpbGUubWFlPic=

> <r_lp_tautomer_probability>
1

> <r_epik_Ionization_Penalty>
2.32145e-05

> <r_epik_Ionization_Penalty_Charging>
0

> <r_epik_Ionization_Penalty_Neutral>
2.32145e-05

> <r_epik_State_Penalty>
-0

> <r_epik_Charging_Adjusted_Penalty>
0

> <i_epik_Tot_Q>
0

> <i_epik_Tot_abs_Q>
0

> <r_epik_Metal_State_Penalty>
0.0219249

> <b_epik_Metal_Only>
0

> <s_lp_Force_Field>
OPLS_2005

> <r_lp_Energy>
13.2289

> <b_lp_Chiralities_Consistent>
1

> <s_lp_Variant>
AV-unprocessed.smi:570-1

> <Gold.Version>
5.8.1

> <Gold.Id.Protein>
6NUR|6NUR_protein|mol2

> <Gold.PLP.Fitness>
43.3352

> <Gold.PLP.PLP>
-41.9207

> <Gold.PLP.part.hbond>
-1.0000

> <Gold.PLP.part.metal>
0.0000

> <Gold.PLP.part.buried>
-4.4118

> <Gold.PLP.part.nonpolar>
-36.9607

> <Gold.PLP.part.repulsive>
0.7112

> <Gold.PLP.ligand.clash>
0.0000

> <Gold.PLP.ligand.torsion>
0.8930

> <Gold.PLP.Chemscore.Hbond>
1.0000

> <Gold.PLP.Chemscore.CHOScore>
0.0000

> <Gold.PLP.Chemscore.Metal>
0.0000

> <Gold.Chemscore.Hbonds>
donor molecule, donor type, donor heavy atom, donor atom, acceptor molecule, acceptor atom, score
      P1  H  7989  7998       L1     8  0.65

> <Gold.PLP.Chemscore.Internal.Correction>
0.2006

> <Gold.Rescore>
     Score         DG    S(hbond)    S(metal)    S(lipo)     H(rot)  DE(clash)    DE(int)     intcor
     11.81     -14.47       0.86        0.00      88.07       1.63       0.74       1.92       ----

> <Gold.Chemscore.Fitness>
11.8079

> <Gold.Chemscore.DG>
-14.4696

> <Gold.Chemscore.ZeroCoef>
-5.4800

> <Gold.Chemscore.Hbond>
0.8563

> <Gold.Chemscore.Metal>
0.0000

> <Gold.Chemscore.Lipo>
88.0732

> <Gold.Chemscore.Internal_Hbond>
0.0000

> <Gold.Chemscore.DEClash>
0.7450

> <Gold.Chemscore.DEInternal>
1.9167

> <Gold.Chemscore.Rot>
1.6308

> <Gold.Chemscore.Internal.Correction>
   9.000000E+99

> <Gold.Chemscore.Hbonds>
donor molecule, donor type, donor heavy atom, donor atom, acceptor molecule, acceptor atom, score
      P1  H  7989  7998       L1     8  0.06

> <Gold.Chemscore.Hbond.Weighted>
-2.8600

> <Gold.Chemscore.Metal.Weighted>
-0.0000

> <Gold.Chemscore.Lipo.Weighted>
-10.3046

> <Gold.Chemscore.Internal_Hbond.Weighted>
0.0000

> <Gold.Chemscore.DEClash.Weighted>
0.7450

> <Gold.Chemscore.DEInternal.Weighted>
1.9167

> <Gold.Chemscore.Rot.Weighted>
4.1749

> <Gold.Chemscore.Internal.Correction.Weighted>
   9.000000E+99

> <Gold.Protein.RotatedTorsions>
[ 6907 6896 6895 6894 ] final  -19.53 input  -60.11 | X-H torsion
[ 7974 7965 7964 7962 ] final  149.99 input  175.53 | X-H torsion
[ 8008 7997 7996 7995 ] final  -66.93 input   59.86 | X-H torsion
[ 10167 10162 10161 10158 ] final   84.40 input  -65.29 | X-H torsion
[ 10718 10713 10712 10709 ] final  120.22 input   66.30 | X-H torsion
[ 10763 10752 10751 10750 ] final -157.54 input  -60.55 | X-H torsion
[ 11005 11000 10999 10996 ] final -130.61 input  -57.11 | X-H torsion

> <Gold.Protein.ActiveResidues>
 VAL166  LYS551  ARG553  GLY616  TRP617  ASP618  TYR619  PRO620  LYS621  CYS622 
 ASP623  PHE694  ASN695  SER759  ASP760  ASP761  ALA762  ILE779  LEU786  VAL792 
 PHE793  MET794  SER795  GLU796  ALA797  LYS798  CYS799  TRP800  GLU811  SER814 

> <Gold.Protein.RotatedAtoms>
  151.2618  135.0656  159.9100 H   0  0  0  0  0  0  0  0  0  0  0  0  # atno 6907 bound_to 6896
  152.5365  134.0223  159.7998 H   0  0  0  0  0  0  0  0  0  0  0  0  # atno 6908 bound_to 6896
  151.0447  133.5625  159.2679 H   0  0  0  0  0  0  0  0  0  0  0  0  # atno 6909 bound_to 6896
  144.8397  139.6351  143.6022 H   0  0  0  0  0  0  0  0  0  0  0  0  # atno 7974 bound_to 7965
  154.4766  140.0903  156.7277 H   0  0  0  0  0  0  0  0  0  0  0  0  # atno 8008 bound_to 7997
  155.4580  140.3460  155.4291 H   0  0  0  0  0  0  0  0  0  0  0  0  # atno 8009 bound_to 7997
  156.1126  140.1452  156.9305 H   0  0  0  0  0  0  0  0  0  0  0  0  # atno 8010 bound_to 7997
  139.9084  144.6287  150.8563 H   0  0  0  0  0  0  0  0  0  0  0  0  # atno 10167 bound_to 10162
  157.5906  131.1064  150.8005 H   0  0  0  0  0  0  0  0  0  0  0  0  # atno 10718 bound_to 10713
  154.7628  135.3122  154.8345 H   0  0  0  0  0  0  0  0  0  0  0  0  # atno 10763 bound_to 10752
  153.9101  135.6806  153.4755 H   0  0  0  0  0  0  0  0  0  0  0  0  # atno 10764 bound_to 10752
  153.1230  135.4814  154.9159 H   0  0  0  0  0  0  0  0  0  0  0  0  # atno 10765 bound_to 10752
  140.9331  134.1293  157.4217 H   0  0  0  0  0  0  0  0  0  0  0  0  # atno 11005 bound_to 11000
  146.2691  139.6592  142.9308 LP  0  0  0  0  0  0  0  0  0  0  0  0  # atno 17320 bound_to 7965
  145.4720  141.0436  143.2693 LP  0  0  0  0  0  0  0  0  0  0  0  0  # atno 17321 bound_to 7965
  140.7691  143.3384  151.2260 LP  0  0  0  0  0  0  0  0  0  0  0  0  # atno 17342 bound_to 10162
  139.6964  143.9606  152.2884 LP  0  0  0  0  0  0  0  0  0  0  0  0  # atno 17343 bound_to 10162
  156.8428  130.5054  149.5319 LP  0  0  0  0  0  0  0  0  0  0  0  0  # atno 17370 bound_to 10713
  156.0960  130.5933  150.9815 LP  0  0  0  0  0  0  0  0  0  0  0  0  # atno 17371 bound_to 10713
  139.8801  135.0012  156.6052 LP  0  0  0  0  0  0  0  0  0  0  0  0  # atno 17394 bound_to 11000
  140.7836  133.8640  155.8587 LP  0  0  0  0  0  0  0  0  0  0  0  0  # atno 17395 bound_to 11000

$$$$
