AV-unprocessed.smi:592|AV-procd|sdf|3012|dock4
  -GOLD-   2262023523D 1   1.00000     0.00000
 Structure written by MMmdl.
 27 28  0  0  0  0  0  0  0  0  1 V2000
  150.0925  141.6964  158.5047 O   0  0  0  0  0  0  0  0  0  0  0  0
  151.2770  141.7017  158.1590 C   0  0  0  0  0  0  0  0  0  0  0  0
  152.1610  142.8753  158.5981 C   0  0  0  0  0  0  0  0  0  0  0  0
  152.5723  142.7439  160.0047 N   0  0  0  0  0  0  0  0  0  0  0  0
  152.1234  143.7426  160.8920 C   0  0  0  0  0  0  0  0  0  0  0  0
  152.4444  143.7327  162.1953 C   0  0  0  0  0  0  0  0  0  0  0  0
  153.2750  142.6585  162.6849 C   0  0  0  0  0  0  0  0  0  0  0  0
  153.7093  141.6973  161.8457 C   0  0  0  0  0  0  0  0  0  0  0  0
  153.3596  141.7035  160.4203 C   0  0  0  0  0  0  0  0  0  0  0  0
  153.7535  140.8278  159.6500 O   0  0  0  0  0  0  0  0  0  0  0  0
  151.9751  140.7750  157.3923 N   0  0  0  0  0  0  0  0  0  0  0  0
  151.4277  140.1927  156.3685 C   0  0  0  0  0  0  0  0  0  0  0  0
  150.1423  140.3509  155.8592 N   0  0  0  0  0  0  0  0  0  0  0  0
  149.8910  139.8643  154.5152 C   0  0  0  0  0  0  0  0  0  0  0  0
  150.8067  138.6651  154.2865 C   0  0  0  0  0  0  0  0  0  0  0  0
  152.2577  138.9802  155.3069 S   0  0  0  0  0  0  0  0  0  0  0  0
  153.0435  142.9099  157.9571 H   0  0  0  0  0  0  0  0  0  0  0  0
  151.6453  143.8199  158.4127 H   0  0  0  0  0  0  0  0  0  0  0  0
  151.5116  144.5123  160.4438 H   0  0  0  0  0  0  0  0  0  0  0  0
  152.0932  144.5091  162.8589 H   0  0  0  0  0  0  0  0  0  0  0  0
  153.5509  142.6261  163.7287 H   0  0  0  0  0  0  0  0  0  0  0  0
  154.3314  140.9022  162.2297 H   0  0  0  0  0  0  0  0  0  0  0  0
  148.8420  139.5969  154.3871 H   0  0  0  0  0  0  0  0  0  0  0  0
  150.1211  140.6624  153.8085 H   0  0  0  0  0  0  0  0  0  0  0  0
  150.3304  137.7506  154.6407 H   0  0  0  0  0  0  0  0  0  0  0  0
  151.0693  138.5322  153.2370 H   0  0  0  0  0  0  0  0  0  0  0  0
  149.4630  140.9879  156.2508 H   0  0  0  0  0  0  0  0  0  0  0  0
  1  2  2  0  0  0  0
  2  3  1  0  0  0  0
  2 11  1  0  0  0  0
  3  4  1  0  0  0  0
  3 17  1  0  0  0  0
  3 18  1  0  0  0  0
  4  9  1  0  0  0  0
  4  5  1  0  0  0  0
  5  6  2  0  0  0  0
  5 19  1  0  0  0  0
  6  7  1  0  0  0  0
  6 20  1  0  0  0  0
  7  8  2  0  0  0  0
  7 21  1  0  0  0  0
  8  9  1  0  0  0  0
  8 22  1  0  0  0  0
  9 10  2  0  0  0  0
 11 12  2  0  0  0  0
 12 16  1  0  0  0  0
 12 13  1  0  0  0  0
 13 14  1  0  0  0  0
 13 27  1  0  0  0  0
 14 15  1  0  0  0  0
 14 23  1  0  0  0  0
 14 24  1  0  0  0  0
 15 16  1  0  0  0  0
 15 25  1  0  0  0  0
 15 26  1  0  0  0  0
M  END
> <s_m_source_file>
AV-unprocessed.smi

> <i_m_source_file_index>
592

> <i_lp_mmshare_version>
43012

> <i_f3d_flags>
0

> <s_epik_input>
UzFbQ0gyXVtDSDJdTj1DMVtOSF1DKD1PKVtDSDJdbjJbY0hdW2NIXVtjSF1bY0hdYzI9Tw==

> <s_epik_cmdline>
J2VwaWtfcHl0aG9uJywgJy1waCcsICc3LjAnLCAnLXRuJywgJzgnLCAnLW1hJywgJzIwMCcsICctbWV0YWxfYmluZGluZycsICctaW1hZScsICc8aW5maWxlLm1hZT4nLCAnLW9tYWUnLCAnPG91dGZpbGUubWFlPic=

> <r_lp_tautomer_probability>
1

> <r_epik_Ionization_Penalty>
2.71369

> <r_epik_Ionization_Penalty_Charging>
3.63323e-07

> <r_epik_Ionization_Penalty_Neutral>
2.71369

> <r_epik_State_Penalty>
1.599

> <r_epik_Charging_Adjusted_Penalty>
1.599

> <i_epik_Tot_Q>
0

> <i_epik_Tot_abs_Q>
0

> <r_epik_Metal_State_Penalty>
1.59596

> <b_epik_Metal_Only>
1

> <s_epik_Chemistry_Notes>
This compound has an imine and may undergo hydrolysis.

> <s_lp_Force_Field>
OPLS_2005

> <r_lp_Energy>
29.0057

> <b_lp_Chiralities_Consistent>
1

> <s_lp_Variant>
AV-unprocessed.smi:592-3

> <Gold.Version>
5.8.1

> <Gold.Id.Protein>
6NUR|6NUR_protein|mol2

> <Gold.PLP.Fitness>
40.2407

> <Gold.PLP.PLP>
-41.3175

> <Gold.PLP.part.hbond>
0.0000

> <Gold.PLP.part.metal>
0.0000

> <Gold.PLP.part.buried>
-4.2994

> <Gold.PLP.part.nonpolar>
-36.5712

> <Gold.PLP.part.repulsive>
0.1057

> <Gold.PLP.ligand.clash>
0.0000

> <Gold.PLP.ligand.torsion>
0.5398

> <Gold.PLP.Chemscore.Hbond>
0.0000

> <Gold.PLP.Chemscore.CHOScore>
0.0000

> <Gold.PLP.Chemscore.Metal>
0.0000

> <Gold.PLP.Chemscore.Internal.Correction>
0.0027

> <Gold.Rescore>
     Score         DG    S(hbond)    S(metal)    S(lipo)     H(rot)  DE(clash)    DE(int)     intcor
     12.18     -14.04       0.89        0.00      76.99       1.33       0.03       1.83       ----

> <Gold.Chemscore.Fitness>
12.1769

> <Gold.Chemscore.DG>
-14.0372

> <Gold.Chemscore.ZeroCoef>
-5.4800

> <Gold.Chemscore.Hbond>
0.8851

> <Gold.Chemscore.Metal>
0.0000

> <Gold.Chemscore.Lipo>
76.9925

> <Gold.Chemscore.Internal_Hbond>
0.0000

> <Gold.Chemscore.DEClash>
0.0277

> <Gold.Chemscore.DEInternal>
1.8325

> <Gold.Chemscore.Rot>
1.3309

> <Gold.Chemscore.Internal.Correction>
   9.000000E+99

> <Gold.Chemscore.Hbond.Weighted>
-2.9561

> <Gold.Chemscore.Metal.Weighted>
-0.0000

> <Gold.Chemscore.Lipo.Weighted>
-9.0081

> <Gold.Chemscore.Internal_Hbond.Weighted>
0.0000

> <Gold.Chemscore.DEClash.Weighted>
0.0277

> <Gold.Chemscore.DEInternal.Weighted>
1.8325

> <Gold.Chemscore.Rot.Weighted>
3.4071

> <Gold.Chemscore.Internal.Correction.Weighted>
   9.000000E+99

> <Gold.Protein.RotatedTorsions>
[ 6907 6896 6895 6894 ] final   21.78 input  -60.11 | X-H torsion
[ 7974 7965 7964 7962 ] final  -92.48 input  175.53 | X-H torsion
[ 8008 7997 7996 7995 ] final -112.73 input   59.86 | X-H torsion
[ 10167 10162 10161 10158 ] final  -25.73 input  -65.29 | X-H torsion
[ 10718 10713 10712 10709 ] final  149.52 input   66.30 | X-H torsion
[ 10763 10752 10751 10750 ] final   40.11 input  -60.55 | X-H torsion
[ 11005 11000 10999 10996 ] final   60.85 input  -57.11 | X-H torsion

> <Gold.Protein.ActiveResidues>
 VAL166  LYS551  ARG553  GLY616  TRP617  ASP618  TYR619  PRO620  LYS621  CYS622 
 ASP623  PHE694  ASN695  SER759  ASP760  ASP761  ALA762  ILE779  LEU786  VAL792 
 PHE793  MET794  SER795  GLU796  ALA797  LYS798  CYS799  TRP800  GLU811  SER814 

> <Gold.Protein.RotatedAtoms>
  151.9171  135.0314  160.0518 H   0  0  0  0  0  0  0  0  0  0  0  0  # atno 6907 bound_to 6896
  152.2231  133.4994  159.5181 H   0  0  0  0  0  0  0  0  0  0  0  0  # atno 6908 bound_to 6896
  150.7005  134.1233  159.4085 H   0  0  0  0  0  0  0  0  0  0  0  0  # atno 6909 bound_to 6896
  145.3993  140.9536  143.2296 H   0  0  0  0  0  0  0  0  0  0  0  0  # atno 7974 bound_to 7965
  155.0098  140.0393  157.2394 H   0  0  0  0  0  0  0  0  0  0  0  0  # atno 8008 bound_to 7997
  154.7471  140.2760  155.6301 H   0  0  0  0  0  0  0  0  0  0  0  0  # atno 8009 bound_to 7997
  156.2877  140.2654  156.2214 H   0  0  0  0  0  0  0  0  0  0  0  0  # atno 8010 bound_to 7997
  140.7285  143.4239  151.0907 H   0  0  0  0  0  0  0  0  0  0  0  0  # atno 10167 bound_to 10162
  157.2951  131.0860  151.1433 H   0  0  0  0  0  0  0  0  0  0  0  0  # atno 10718 bound_to 10713
  152.9946  135.6201  154.2574 H   0  0  0  0  0  0  0  0  0  0  0  0  # atno 10763 bound_to 10752
  154.2311  135.2792  155.2891 H   0  0  0  0  0  0  0  0  0  0  0  0  # atno 10764 bound_to 10752
  154.5449  135.5750  153.6929 H   0  0  0  0  0  0  0  0  0  0  0  0  # atno 10765 bound_to 10752
  140.0202  134.6164  155.9650 H   0  0  0  0  0  0  0  0  0  0  0  0  # atno 11005 bound_to 11000
  144.8385  139.5511  143.6911 LP  0  0  0  0  0  0  0  0  0  0  0  0  # atno 17320 bound_to 7965
  146.2759  139.6753  142.9263 LP  0  0  0  0  0  0  0  0  0  0  0  0  # atno 17321 bound_to 7965
  139.7888  143.8248  152.3149 LP  0  0  0  0  0  0  0  0  0  0  0  0  # atno 17342 bound_to 10162
  139.8225  144.7289  150.9554 LP  0  0  0  0  0  0  0  0  0  0  0  0  # atno 17343 bound_to 10162
  157.2814  130.6752  149.6068 LP  0  0  0  0  0  0  0  0  0  0  0  0  # atno 17370 bound_to 10713
  155.9669  130.4448  150.5478 LP  0  0  0  0  0  0  0  0  0  0  0  0  # atno 17371 bound_to 10713
  141.1769  133.6541  156.4864 LP  0  0  0  0  0  0  0  0  0  0  0  0  # atno 17394 bound_to 11000
  140.4400  134.7024  157.4987 LP  0  0  0  0  0  0  0  0  0  0  0  0  # atno 17395 bound_to 11000

$$$$
