AV-unprocessed.smi:54|AV-procd|sdf|532|dock10
  -GOLD-   2262016413D 1   1.00000     0.00000
 Structure written by MMmdl.
 44 46  0  0  0  0  0  0  0  0  1 V2000
  146.3304  133.9584  151.6180 C   0  0  0  0  0  0  0  0  0  0  0  0
  147.2406  132.7869  152.0196 C   0  0  0  0  0  0  0  0  0  0  0  0
  146.4905  131.4467  151.9438 C   0  0  0  0  0  0  0  0  0  0  0  0
  147.8157  133.0068  153.4234 C   0  0  0  0  0  0  0  0  0  0  0  0
  147.6810  132.1752  154.3218 O   0  0  0  0  0  0  0  0  0  0  0  0
  148.5218  134.2609  153.6175 N   0  0  0  0  0  0  0  0  0  0  0  0
  149.1325  134.6931  154.7451 C   0  0  0  0  0  0  0  0  0  0  0  0
  149.1667  135.9674  155.1080 N   0  0  0  0  0  0  0  0  0  0  0  0
  149.8203  136.2063  156.2846 C   0  0  0  0  0  0  0  0  0  0  0  0
  150.4211  135.2679  157.0971 C   0  0  0  0  0  0  0  0  0  0  0  0
  150.9860  135.8861  158.2068 N   0  0  0  0  0  0  0  0  0  0  0  0
  150.7158  137.1503  158.0362 C   0  0  0  0  0  0  0  0  0  0  0  0
  150.0154  137.4313  156.8861 N   0  0  0  0  0  0  0  0  0  0  0  0
  149.5346  138.7513  156.3640 C   0  0  1  0  0  0  0  0  0  0  0  0
  149.6683  139.6825  157.3966 O   0  0  0  0  0  0  0  0  0  0  0  0
  150.5345  140.7514  157.0156 C   0  0  1  0  0  0  0  0  0  0  0  0
  151.3221  141.2829  158.2262 C   0  0  0  0  0  0  0  0  0  0  0  0
  150.4327  141.7924  159.1964 O   0  0  0  0  0  0  0  0  0  0  0  0
  151.3829  140.1849  155.8679 C   0  0  1  0  0  0  0  0  0  0  0  0
  152.5318  139.5078  156.3511 O   0  0  0  0  0  0  0  0  0  0  0  0
  150.3932  139.2502  155.1871 C   0  0  1  0  0  0  0  0  0  0  0  0
  151.0191  138.2419  154.4122 O   0  0  0  0  0  0  0  0  0  0  0  0
  150.3869  133.8839  156.7220 C   0  0  0  0  0  0  0  0  0  0  0  0
  150.8622  132.9206  157.3193 O   0  0  0  0  0  0  0  0  0  0  0  0
  149.7099  133.6811  155.5123 N   0  0  0  0  0  0  0  0  0  0  0  0
  148.4877  138.5857  156.1075 H   0  0  0  0  0  0  0  0  0  0  0  0
  149.9113  141.5459  156.6005 H   0  0  0  0  0  0  0  0  0  0  0  0
  151.7188  140.9729  155.1930 H   0  0  0  0  0  0  0  0  0  0  0  0
  149.7421  139.8378  154.5384 H   0  0  0  0  0  0  0  0  0  0  0  0
  146.8611  134.9098  151.6711 H   0  0  0  0  0  0  0  0  0  0  0  0
  145.4561  134.0279  152.2667 H   0  0  0  0  0  0  0  0  0  0  0  0
  145.9733  133.8406  150.5946 H   0  0  0  0  0  0  0  0  0  0  0  0
  148.0718  132.7467  151.3142 H   0  0  0  0  0  0  0  0  0  0  0  0
  147.1298  130.6157  152.2446 H   0  0  0  0  0  0  0  0  0  0  0  0
  146.1523  131.2469  150.9267 H   0  0  0  0  0  0  0  0  0  0  0  0
  145.6119  131.4415  152.5900 H   0  0  0  0  0  0  0  0  0  0  0  0
  148.5365  134.8862  152.8255 H   0  0  0  0  0  0  0  0  0  0  0  0
  151.0216  137.9065  158.7440 H   0  0  0  0  0  0  0  0  0  0  0  0
  151.9535  140.5082  158.6619 H   0  0  0  0  0  0  0  0  0  0  0  0
  151.9738  142.1022  157.9208 H   0  0  0  0  0  0  0  0  0  0  0  0
  150.9277  142.0143  159.9703 H   0  0  0  0  0  0  0  0  0  0  0  0
  152.4885  138.6077  156.0657 H   0  0  0  0  0  0  0  0  0  0  0  0
  151.4902  138.6612  153.7079 H   0  0  0  0  0  0  0  0  0  0  0  0
  149.6465  132.7282  155.1858 H   0  0  0  0  0  0  0  0  0  0  0  0
  1  2  1  0  0  0  0
  1 30  1  0  0  0  0
  1 31  1  0  0  0  0
  1 32  1  0  0  0  0
  2  3  1  0  0  0  0
  2  4  1  0  0  0  0
  2 33  1  0  0  0  0
  3 34  1  0  0  0  0
  3 35  1  0  0  0  0
  3 36  1  0  0  0  0
  4  5  2  0  0  0  0
  4  6  1  0  0  0  0
  6 37  1  0  0  0  0
  6  7  1  0  0  0  0
  7 25  1  0  0  0  0
  7  8  2  0  0  0  0
  8  9  1  0  0  0  0
  9 13  1  0  0  0  0
  9 10  2  0  0  0  0
 10 11  1  0  0  0  0
 10 23  1  0  0  0  0
 11 12  2  0  0  0  0
 12 13  1  0  0  0  0
 12 38  1  0  0  0  0
 13 14  1  0  0  0  0
 14 26  1  0  0  0  0
 14 21  1  0  0  0  0
 14 15  1  0  0  0  0
 15 16  1  0  0  0  0
 16 27  1  0  0  0  0
 16 17  1  0  0  0  0
 16 19  1  0  0  0  0
 17 18  1  0  0  0  0
 17 39  1  0  0  0  0
 17 40  1  0  0  0  0
 18 41  1  0  0  0  0
 19 28  1  0  0  0  0
 19 20  1  0  0  0  0
 19 21  1  0  0  0  0
 20 42  1  0  0  0  0
 21 29  1  0  0  0  0
 21 22  1  0  0  0  0
 22 43  1  0  0  0  0
 23 24  2  0  0  0  0
 23 25  1  0  0  0  0
 25 44  1  0  0  0  0
M  END
> <s_m_source_file>
AV-unprocessed.smi

> <i_m_source_file_index>
54

> <i_lp_mmshare_version>
43012

> <i_f3d_flags>
0

> <s_epik_input>
W0NIM11bQ0hdKFtDSDNdKUMoPU8pW05IXWMobjEpW25IXWMoPU8pYyhjMTIpbltjSF1uMltDQEBIXTNPW0NASF0oW0NIMl1bT0hdKVtDQEBIXShbT0hdKVtDQEhdM1tPSF0=

> <s_epik_cmdline>
J2VwaWtfcHl0aG9uJywgJy1waCcsICc3LjAnLCAnLXRuJywgJzgnLCAnLW1hJywgJzIwMCcsICctbWV0YWxfYmluZGluZycsICctaW1hZScsICc8aW5maWxlLm1hZT4nLCAnLW9tYWUnLCAnPG91dGZpbGUubWFlPic=

> <r_lp_tautomer_probability>
0.85571

> <r_epik_Ionization_Penalty>
0.0316551

> <r_epik_Ionization_Penalty_Charging>
0.0316043

> <r_epik_Ionization_Penalty_Neutral>
5.07097e-05

> <r_epik_State_Penalty>
3.15494e-07

> <r_epik_Charging_Adjusted_Penalty>
0.0316047

> <i_epik_Tot_Q>
0

> <i_epik_Tot_abs_Q>
0

> <r_epik_Metal_State_Penalty>
0.421206

> <b_epik_Metal_Only>
0

> <s_epik_Chemistry_Notes>
This compound contains an acetal/aminal-like group ( X-CH(R)-Y where X, Y are N, S, or O) that may be acid/base labile, releasing an aldehyde.

> <s_lp_Force_Field>
OPLS_2005

> <r_lp_Energy>
45.6479

> <b_lp_Chiralities_Consistent>
1

> <s_lp_Variant>
AV-unprocessed.smi:54-4

> <Gold.Version>
5.8.1

> <Gold.Id.Protein>
6NUR|6NUR_protein|mol2

> <Gold.PLP.Fitness>
38.8428

> <Gold.PLP.PLP>
-28.6650

> <Gold.PLP.part.hbond>
-4.5322

> <Gold.PLP.part.metal>
0.0000

> <Gold.PLP.part.buried>
-3.7077

> <Gold.PLP.part.nonpolar>
-20.4784

> <Gold.PLP.part.repulsive>
0.1929

> <Gold.PLP.ligand.clash>
0.0000

> <Gold.PLP.ligand.torsion>
0.6055

> <Gold.PLP.Chemscore.Hbond>
3.6480

> <Gold.PLP.Chemscore.CHOScore>
0.0000

> <Gold.PLP.Chemscore.Metal>
0.0000

> <Gold.Chemscore.Hbonds>
donor molecule, donor type, donor heavy atom, donor atom, acceptor molecule, acceptor atom, score
      L1  H     6    37       P1  7948  1.00
      P1  H  6896  6907       L1    24  1.00
      P1  H  6896  6908       L1    11  0.50
      P1  H  7997  8008       L1    20  1.00

> <Gold.PLP.Chemscore.Internal.Correction>
0.4449

> <Gold.Rescore>
     Score         DG    S(hbond)    S(metal)    S(lipo)     H(rot)  DE(clash)    DE(int)     intcor
     10.69     -12.12       3.47        0.00      46.24       4.05       0.00       1.43       ----

> <Gold.Chemscore.Fitness>
10.6894

> <Gold.Chemscore.DG>
-12.1230

> <Gold.Chemscore.ZeroCoef>
-5.4800

> <Gold.Chemscore.Hbond>
3.4726

> <Gold.Chemscore.Metal>
0.0000

> <Gold.Chemscore.Lipo>
46.2447

> <Gold.Chemscore.Internal_Hbond>
0.0000

> <Gold.Chemscore.DEClash>
0.0000

> <Gold.Chemscore.DEInternal>
1.4336

> <Gold.Chemscore.Rot>
4.0493

> <Gold.Chemscore.Internal.Correction>
   9.000000E+99

> <Gold.Chemscore.Hbonds>
donor molecule, donor type, donor heavy atom, donor atom, acceptor molecule, acceptor atom, score
      L1  H     6    37       P1  7948  0.39
      P1  H  6896  6907       L1    24  0.70
      P1  H  6896  6908       L1    11  0.46
      P1  H  7997  8008       L1    20  0.69

> <Gold.Chemscore.Hbond.Weighted>
-11.5986

> <Gold.Chemscore.Metal.Weighted>
-0.0000

> <Gold.Chemscore.Lipo.Weighted>
-5.4106

> <Gold.Chemscore.Internal_Hbond.Weighted>
0.0000

> <Gold.Chemscore.DEClash.Weighted>
0.0000

> <Gold.Chemscore.DEInternal.Weighted>
1.4336

> <Gold.Chemscore.Rot.Weighted>
10.3662

> <Gold.Chemscore.Internal.Correction.Weighted>
   9.000000E+99

> <Gold.Protein.RotatedTorsions>
[ 6907 6896 6895 6894 ] final -154.38 input  -60.11 | X-H torsion
[ 7974 7965 7964 7962 ] final    0.76 input  175.53 | X-H torsion
[ 8008 7997 7996 7995 ] final  -30.96 input   59.86 | X-H torsion
[ 10167 10162 10161 10158 ] final  111.67 input  -65.29 | X-H torsion
[ 10718 10713 10712 10709 ] final -170.74 input   66.30 | X-H torsion
[ 10763 10752 10751 10750 ] final -145.90 input  -60.55 | X-H torsion
[ 11005 11000 10999 10996 ] final  -84.86 input  -57.11 | X-H torsion

> <Gold.Protein.ActiveResidues>
 VAL166  LYS551  ARG553  GLY616  TRP617  ASP618  TYR619  PRO620  LYS621  CYS622 
 ASP623  PHE694  ASN695  SER759  ASP760  ASP761  ALA762  ILE779  LEU786  VAL792 
 PHE793  MET794  SER795  GLU796  ALA797  LYS798  CYS799  TRP800  GLU811  SER814 

> <Gold.Protein.RotatedAtoms>
  151.2566  133.4323  159.2613 H   0  0  0  0  0  0  0  0  0  0  0  0  # atno 6907 bound_to 6896
  151.0569  134.9711  159.8250 H   0  0  0  0  0  0  0  0  0  0  0  0  # atno 6908 bound_to 6896
  152.5392  134.2517  159.8954 H   0  0  0  0  0  0  0  0  0  0  0  0  # atno 6909 bound_to 6896
  146.2436  140.1090  142.8344 H   0  0  0  0  0  0  0  0  0  0  0  0  # atno 7974 bound_to 7965
  154.4231  140.1777  156.1490 H   0  0  0  0  0  0  0  0  0  0  0  0  # atno 8008 bound_to 7997
  155.9931  140.3367  155.6747 H   0  0  0  0  0  0  0  0  0  0  0  0  # atno 8009 bound_to 7997
  155.6346  140.0673  157.2629 H   0  0  0  0  0  0  0  0  0  0  0  0  # atno 8010 bound_to 7997
  139.6594  144.7129  151.1894 H   0  0  0  0  0  0  0  0  0  0  0  0  # atno 10167 bound_to 10162
  156.7306  130.9305  151.3104 H   0  0  0  0  0  0  0  0  0  0  0  0  # atno 10718 bound_to 10713
  154.8362  135.3401  154.6577 H   0  0  0  0  0  0  0  0  0  0  0  0  # atno 10763 bound_to 10752
  153.7192  135.6959  153.5022 H   0  0  0  0  0  0  0  0  0  0  0  0  # atno 10764 bound_to 10752
  153.2394  135.4389  155.0635 H   0  0  0  0  0  0  0  0  0  0  0  0  # atno 10765 bound_to 10752
  141.1647  133.7368  156.8930 H   0  0  0  0  0  0  0  0  0  0  0  0  # atno 11005 bound_to 11000
  145.0503  140.9013  143.4999 LP  0  0  0  0  0  0  0  0  0  0  0  0  # atno 17320 bound_to 7965
  145.1186  139.2708  143.5600 LP  0  0  0  0  0  0  0  0  0  0  0  0  # atno 17321 bound_to 7965
  140.7573  143.6019  150.8691 LP  0  0  0  0  0  0  0  0  0  0  0  0  # atno 17342 bound_to 10162
  139.9675  143.6094  152.2984 LP  0  0  0  0  0  0  0  0  0  0  0  0  # atno 17343 bound_to 10162
  157.6860  130.9186  150.0388 LP  0  0  0  0  0  0  0  0  0  0  0  0  # atno 17370 bound_to 10713
  156.1531  130.3642  149.9408 LP  0  0  0  0  0  0  0  0  0  0  0  0  # atno 17371 bound_to 10713
  140.1636  134.9149  157.2745 LP  0  0  0  0  0  0  0  0  0  0  0  0  # atno 17394 bound_to 11000
  140.2583  134.3601  155.7416 LP  0  0  0  0  0  0  0  0  0  0  0  0  # atno 17395 bound_to 11000

$$$$
