AV-unprocessed.smi:169|AV-procd|sdf|1404|dock10
  -GOLD-   2262019153D 1   1.00000     0.00000
 Structure written by MMmdl.
 56 60  0  0  0  0  0  0  0  0  2 V2000
  152.5440  142.9524  159.0183 C   0  0  0  0  0  0  0  0  0  0  0  0
  151.0434  143.1646  158.7488 C   0  0  0  0  0  0  0  0  0  0  0  0
  150.4584  142.2012  157.7794 N   0  3  2  0  0  0  0  0  0  0  0  0
  151.0813  142.2547  156.4327 C   0  0  0  0  0  0  0  0  0  0  0  0
  151.2460  140.8452  155.8332 C   0  0  0  0  0  0  0  0  0  0  0  0
  149.9403  140.0703  155.5563 C   0  0  2  0  0  0  0  0  0  0  0  0
  149.0076  140.7807  154.5692 C   0  0  0  0  0  0  0  0  0  0  0  0
  148.0228  141.5565  155.4517 C   0  0  0  0  0  0  0  0  0  0  0  0
  148.3147  141.1069  156.8983 C   0  0  2  0  0  0  0  0  0  0  0  0
  148.9694  142.2083  157.7692 C   0  0  0  0  0  0  0  0  0  0  0  0
  149.1463  139.9121  156.7725 N   0  0  0  0  0  0  0  0  0  0  0  0
  148.5237  138.7381  157.0525 C   0  0  0  0  0  0  0  0  0  0  0  0
  147.5053  138.2886  156.2728 N   0  0  0  0  0  0  0  0  0  0  0  0
  146.8921  137.1368  156.5621 C   0  0  0  0  0  0  0  0  0  0  0  0
  147.1337  136.2927  157.5670 N   0  0  0  0  0  0  0  0  0  0  0  0
  148.1548  136.7385  158.3534 C   0  0  0  0  0  0  0  0  0  0  0  0
  148.8995  137.9362  158.1657 C   0  0  0  0  0  0  0  0  0  0  0  0
  149.8731  138.0497  159.1504 N   0  0  0  0  0  0  0  0  0  0  0  0
  149.7081  136.9824  159.8832 C   0  0  0  0  0  0  0  0  0  0  0  0
  148.6866  136.1474  159.4869 N   0  0  0  0  0  0  0  0  0  0  0  0
  148.2818  134.8966  160.1136 C   0  0  0  0  0  0  0  0  0  0  0  0
  147.7179  135.0404  161.5483 C   0  0  0  0  0  0  0  0  0  0  0  0
  147.2670  133.6525  162.0242 C   0  0  0  0  0  0  0  0  0  0  0  0
  146.5654  133.7314  163.2486 O   0  0  0  0  0  0  0  0  0  0  0  0
  148.6012  135.8166  162.5401 C   0  0  0  0  0  0  0  0  0  0  0  0
  147.7967  137.0069  162.4052 O   0  0  0  0  0  0  0  0  0  0  0  0
  146.7479  136.2028  161.8252 C   0  0  0  0  0  0  0  0  0  0  0  0
  152.8979  143.6618  159.7666 H   0  0  0  0  0  0  0  0  0  0  0  0
  153.1456  143.1054  158.1229 H   0  0  0  0  0  0  0  0  0  0  0  0
  152.7519  141.9516  159.3974 H   0  0  0  0  0  0  0  0  0  0  0  0
  150.4930  143.0895  159.6877 H   0  0  0  0  0  0  0  0  0  0  0  0
  150.8762  144.1799  158.3873 H   0  0  0  0  0  0  0  0  0  0  0  0
  150.5229  142.9181  155.7717 H   0  0  0  0  0  0  0  0  0  0  0  0
  152.0800  142.6864  156.5118 H   0  0  0  0  0  0  0  0  0  0  0  0
  151.8054  140.9271  154.9008 H   0  0  0  0  0  0  0  0  0  0  0  0
  151.8732  140.2497  156.4981 H   0  0  0  0  0  0  0  0  0  0  0  0
  150.2342  139.1065  155.1396 H   0  0  0  0  0  0  0  0  0  0  0  0
  149.5414  141.4208  153.8660 H   0  0  0  0  0  0  0  0  0  0  0  0
  148.4611  140.0398  153.9839 H   0  0  0  0  0  0  0  0  0  0  0  0
  148.1308  142.6333  155.3200 H   0  0  0  0  0  0  0  0  0  0  0  0
  146.9994  141.3032  155.1728 H   0  0  0  0  0  0  0  0  0  0  0  0
  147.3521  140.8656  157.3526 H   0  0  0  0  0  0  0  0  0  0  0  0
  148.6483  142.0459  158.7990 H   0  0  0  0  0  0  0  0  0  0  0  0
  148.5833  143.1886  157.4904 H   0  0  0  0  0  0  0  0  0  0  0  0
  146.0923  136.8518  155.8944 H   0  0  0  0  0  0  0  0  0  0  0  0
  150.3331  136.7754  160.7395 H   0  0  0  0  0  0  0  0  0  0  0  0
  147.5522  134.4252  159.4545 H   0  0  0  0  0  0  0  0  0  0  0  0
  149.1478  134.2334  160.1154 H   0  0  0  0  0  0  0  0  0  0  0  0
  146.6320  133.1686  161.2813 H   0  0  0  0  0  0  0  0  0  0  0  0
  148.1232  132.9942  162.1749 H   0  0  0  0  0  0  0  0  0  0  0  0
  147.1268  133.4139  163.9394 H   0  0  0  0  0  0  0  0  0  0  0  0
  148.5723  135.4278  163.5595 H   0  0  0  0  0  0  0  0  0  0  0  0
  149.6319  135.9582  162.2184 H   0  0  0  0  0  0  0  0  0  0  0  0
  146.3045  136.6541  160.9392 H   0  0  0  0  0  0  0  0  0  0  0  0
  145.9745  135.9641  162.5575 H   0  0  0  0  0  0  0  0  0  0  0  0
  150.7134  141.2940  158.1436 H   0  0  0  0  0  0  0  0  0  0  0  0
  1  2  1  0  0  0  0
  1 28  1  0  0  0  0
  1 29  1  0  0  0  0
  1 30  1  0  0  0  0
  2  3  1  0  0  0  0
  2 31  1  0  0  0  0
  2 32  1  0  0  0  0
  3 10  1  0  0  0  0
  3  4  1  0  0  0  0
  3 56  1  0  0  0  0
  4  5  1  0  0  0  0
  4 33  1  0  0  0  0
  4 34  1  0  0  0  0
  5  6  1  0  0  0  0
  5 35  1  0  0  0  0
  5 36  1  0  0  0  0
  6 11  1  0  0  0  0
  6  7  1  0  0  0  0
  6 37  1  0  0  0  0
  7  8  1  0  0  0  0
  7 38  1  0  0  0  0
  7 39  1  0  0  0  0
  8  9  1  0  0  0  0
  8 40  1  0  0  0  0
  8 41  1  0  0  0  0
  9 10  1  0  0  0  0
  9 11  1  0  0  0  0
  9 42  1  0  0  0  0
 10 43  1  0  0  0  0
 10 44  1  0  0  0  0
 11 12  1  0  0  0  0
 12 17  1  0  0  0  0
 12 13  2  0  0  0  0
 13 14  1  0  0  0  0
 14 15  2  0  0  0  0
 14 45  1  0  0  0  0
 15 16  1  0  0  0  0
 16 20  1  0  0  0  0
 16 17  2  0  0  0  0
 17 18  1  0  0  0  0
 18 19  2  0  0  0  0
 19 20  1  0  0  0  0
 19 46  1  0  0  0  0
 20 21  1  0  0  0  0
 21 22  1  0  0  0  0
 21 47  1  0  0  0  0
 21 48  1  0  0  0  0
 22 27  1  0  0  0  0
 22 23  1  0  0  0  0
 22 25  1  0  0  0  0
 23 24  1  0  0  0  0
 23 49  1  0  0  0  0
 23 50  1  0  0  0  0
 24 51  1  0  0  0  0
 25 26  1  0  0  0  0
 25 52  1  0  0  0  0
 25 53  1  0  0  0  0
 26 27  1  0  0  0  0
 27 54  1  0  0  0  0
 27 55  1  0  0  0  0
M  CHG  1   3   1
M  END
> <s_m_source_file>
AV-unprocessed.smi

> <i_m_source_file_index>
169

> <i_lp_mmshare_version>
43012

> <i_f3d_flags>
0

> <s_epik_input>
W0NASF0xMltDSDJdW0NIMl1OKFtDSDJdW0NIM10pW0NIMl1bQ0BIXShbQ0gyXVtDSDJdMSlOMmMobltjSF1uMyljKGMzNCluW2NIXW40W0NIMl1DNShbQ0gyXVtPSF0pW0NIMl1PW0NIMl01

> <s_epik_cmdline>
J2VwaWtfcHl0aG9uJywgJy1waCcsICc3LjAnLCAnLXRuJywgJzgnLCAnLW1hJywgJzIwMCcsICctbWV0YWxfYmluZGluZycsICctaW1hZScsICc8aW5maWxlLm1hZT4nLCAnLW9tYWUnLCAnPG91dGZpbGUubWFlPic=

> <r_lp_tautomer_probability>
1

> <r_epik_Ionization_Penalty>
0.00274162

> <r_epik_Ionization_Penalty_Charging>
0.00243722

> <r_epik_Ionization_Penalty_Neutral>
0.000304399

> <r_epik_State_Penalty>
-0

> <r_epik_Charging_Adjusted_Penalty>
0.00243722

> <i_epik_Tot_Q>
1

> <i_epik_Tot_abs_Q>
1

> <r_epik_Metal_State_Penalty>
-0

> <b_epik_Metal_Only>
0

> <s_lp_Force_Field>
OPLS_2005

> <r_lp_Energy>
74.1365

> <b_lp_Chiralities_Consistent>
1

> <s_lp_Variant>
AV-unprocessed.smi:169-7

> <Gold.Version>
5.8.1

> <Gold.Id.Protein>
6NUR|6NUR_protein|mol2

> <Gold.PLP.Fitness>
41.0258

> <Gold.PLP.PLP>
-39.2747

> <Gold.PLP.part.hbond>
-4.1081

> <Gold.PLP.part.metal>
0.0000

> <Gold.PLP.part.buried>
-2.5805

> <Gold.PLP.part.nonpolar>
-31.3346

> <Gold.PLP.part.repulsive>
0.0468

> <Gold.PLP.ligand.clash>
0.0000

> <Gold.PLP.ligand.torsion>
0.3631

> <Gold.PLP.Chemscore.Hbond>
0.6506

> <Gold.PLP.Chemscore.CHOScore>
0.0000

> <Gold.PLP.Chemscore.Metal>
0.0000

> <Gold.Chemscore.Hbonds>
donor molecule, donor type, donor heavy atom, donor atom, acceptor molecule, acceptor atom, score
      P1  H  6931  6943       L1    26  0.99

> <Gold.PLP.Chemscore.Internal.Correction>
0.5255

> <Gold.Rescore>
     Score         DG    S(hbond)    S(metal)    S(lipo)     H(rot)  DE(clash)    DE(int)     intcor
     11.54     -12.48       0.69        0.00      97.55       2.62       0.47       0.48       ----

> <Gold.Chemscore.Fitness>
11.5360

> <Gold.Chemscore.DG>
-12.4831

> <Gold.Chemscore.ZeroCoef>
-5.4800

> <Gold.Chemscore.Hbond>
0.6885

> <Gold.Chemscore.Metal>
0.0000

> <Gold.Chemscore.Lipo>
97.5528

> <Gold.Chemscore.Internal_Hbond>
0.0000

> <Gold.Chemscore.DEClash>
0.4691

> <Gold.Chemscore.DEInternal>
0.4779

> <Gold.Chemscore.Rot>
2.6212

> <Gold.Chemscore.Internal.Correction>
   9.000000E+99

> <Gold.Chemscore.Hbonds>
donor molecule, donor type, donor heavy atom, donor atom, acceptor molecule, acceptor atom, score
      P1  H  6931  6943       L1    26  0.33

> <Gold.Chemscore.Hbond.Weighted>
-2.2996

> <Gold.Chemscore.Metal.Weighted>
-0.0000

> <Gold.Chemscore.Lipo.Weighted>
-11.4137

> <Gold.Chemscore.Internal_Hbond.Weighted>
0.0000

> <Gold.Chemscore.DEClash.Weighted>
0.4691

> <Gold.Chemscore.DEInternal.Weighted>
0.4779

> <Gold.Chemscore.Rot.Weighted>
6.7102

> <Gold.Chemscore.Internal.Correction.Weighted>
   9.000000E+99

> <Gold.Protein.RotatedTorsions>
[ 6907 6896 6895 6894 ] final  122.49 input  -60.11 | X-H torsion
[ 7974 7965 7964 7962 ] final  -42.04 input  175.53 | X-H torsion
[ 8008 7997 7996 7995 ] final -153.52 input   59.86 | X-H torsion
[ 10167 10162 10161 10158 ] final -102.89 input  -65.29 | X-H torsion
[ 10718 10713 10712 10709 ] final   80.97 input   66.30 | X-H torsion
[ 10763 10752 10751 10750 ] final  135.11 input  -60.55 | X-H torsion
[ 11005 11000 10999 10996 ] final   18.89 input  -57.11 | X-H torsion

> <Gold.Protein.ActiveResidues>
 VAL166  LYS551  ARG553  GLY616  TRP617  ASP618  TYR619  PRO620  LYS621  CYS622 
 ASP623  PHE694  ASN695  SER759  ASP760  ASP761  ALA762  ILE779  LEU786  VAL792 
 PHE793  MET794  SER795  GLU796  ALA797  LYS798  CYS799  TRP800  GLU811  SER814 

> <Gold.Protein.RotatedAtoms>
  152.4238  133.7161  159.6506 H   0  0  0  0  0  0  0  0  0  0  0  0  # atno 6907 bound_to 6896
  150.8114  133.8403  159.3186 H   0  0  0  0  0  0  0  0  0  0  0  0  # atno 6908 bound_to 6896
  151.6112  135.1042  160.0133 H   0  0  0  0  0  0  0  0  0  0  0  0  # atno 6909 bound_to 6896
  146.0153  140.6915  142.9204 H   0  0  0  0  0  0  0  0  0  0  0  0  # atno 7974 bound_to 7965
  155.6720  140.0734  157.2516 H   0  0  0  0  0  0  0  0  0  0  0  0  # atno 8008 bound_to 7997
  154.4121  140.1697  156.1941 H   0  0  0  0  0  0  0  0  0  0  0  0  # atno 8009 bound_to 7997
  155.9608  140.3370  155.6492 H   0  0  0  0  0  0  0  0  0  0  0  0  # atno 8010 bound_to 7997
  140.2258  143.3642  152.0930 H   0  0  0  0  0  0  0  0  0  0  0  0  # atno 10167 bound_to 10162
  157.6820  130.9983  150.2157 H   0  0  0  0  0  0  0  0  0  0  0  0  # atno 10718 bound_to 10713
  153.8346  135.3099  155.3421 H   0  0  0  0  0  0  0  0  0  0  0  0  # atno 10763 bound_to 10752
  154.7958  135.4756  154.0162 H   0  0  0  0  0  0  0  0  0  0  0  0  # atno 10764 bound_to 10752
  153.1613  135.6861  153.8830 H   0  0  0  0  0  0  0  0  0  0  0  0  # atno 10765 bound_to 10752
  140.4198  134.1531  155.7672 H   0  0  0  0  0  0  0  0  0  0  0  0  # atno 11005 bound_to 11000
  144.6968  140.3471  143.7188 LP  0  0  0  0  0  0  0  0  0  0  0  0  # atno 17320 bound_to 7965
  145.7278  139.1727  143.2448 LP  0  0  0  0  0  0  0  0  0  0  0  0  # atno 17321 bound_to 7965
  139.5127  144.6922  151.5729 LP  0  0  0  0  0  0  0  0  0  0  0  0  # atno 17342 bound_to 10162
  140.6221  143.9238  150.6535 LP  0  0  0  0  0  0  0  0  0  0  0  0  # atno 17343 bound_to 10162
  156.2819  130.3734  149.7927 LP  0  0  0  0  0  0  0  0  0  0  0  0  # atno 17370 bound_to 10713
  156.5613  130.8384  151.3329 LP  0  0  0  0  0  0  0  0  0  0  0  0  # atno 17371 bound_to 10713
  141.1788  133.8457  157.1328 LP  0  0  0  0  0  0  0  0  0  0  0  0  # atno 17394 bound_to 11000
  140.0208  134.9946  157.0588 LP  0  0  0  0  0  0  0  0  0  0  0  0  # atno 17395 bound_to 11000

$$$$
