AV-unprocessed.smi:1396|AV-procd|sdf|5675|dock1
  -GOLD-   22720 5303D 1   1.00000     0.00000
 Structure written by MMmdl.
 47 48  0  0  0  0  0  0  0  0  2 V2000
  149.0424  126.2461  150.5199 C   0  0  0  0  0  0  0  0  0  0  0  0
  148.0633  127.2963  150.7558 N   0  0  0  0  0  0  0  0  0  0  0  0
  147.8661  127.8901  151.9412 C   0  0  0  0  0  0  0  0  0  0  0  0
  148.5109  127.6095  152.9523 O   0  0  0  0  0  0  0  0  0  0  0  0
  146.7848  128.9751  151.9857 C   0  0  0  0  0  0  0  0  0  0  0  0
  147.3311  130.3299  152.2578 N   0  3  2  0  0  0  0  0  0  0  0  0
  147.9935  130.4364  153.5858 C   0  0  0  0  0  0  0  0  0  0  0  0
  148.6611  131.8099  153.7637 C   0  0  0  0  0  0  0  0  0  0  0  0
  147.6436  132.9471  153.5818 C   0  0  1  0  0  0  0  0  0  0  0  0
  148.3174  134.2388  153.6815 N   0  0  0  0  0  0  0  0  0  0  0  0
  149.2163  134.5692  154.6202 C   0  0  0  0  0  0  0  0  0  0  0  0
  149.5680  133.8033  155.5167 O   0  0  0  0  0  0  0  0  0  0  0  0
  149.6751  135.8192  154.4345 N   0  0  0  0  0  0  0  0  0  0  0  0
  150.6289  136.5434  155.2017 C   0  0  0  0  0  0  0  0  0  0  0  0
  151.1373  137.7402  154.6573 C   0  0  0  0  0  0  0  0  0  0  0  0
  152.0726  138.4900  155.3950 C   0  0  0  0  0  0  0  0  0  0  0  0
  152.4690  138.0215  156.6630 C   0  0  0  0  0  0  0  0  0  0  0  0
  153.3908  138.7564  157.3800 O   0  0  0  0  0  0  0  0  0  0  0  0
  153.7504  138.3050  158.6812 C   0  0  0  0  0  0  0  0  0  0  0  0
  151.9767  136.8794  157.2030 N   0  0  0  0  0  0  0  0  0  0  0  0
  151.0798  136.1646  156.4904 C   0  0  0  0  0  0  0  0  0  0  0  0
  146.9419  132.7956  152.2198 C   0  0  0  0  0  0  0  0  0  0  0  0
  146.3167  131.3983  152.0674 C   0  0  0  0  0  0  0  0  0  0  0  0
  148.9938  125.9186  149.4813 H   0  0  0  0  0  0  0  0  0  0  0  0
  148.8484  125.3828  151.1578 H   0  0  0  0  0  0  0  0  0  0  0  0
  150.0533  126.6053  150.7173 H   0  0  0  0  0  0  0  0  0  0  0  0
  147.5013  127.5869  149.9685 H   0  0  0  0  0  0  0  0  0  0  0  0
  146.2945  128.9658  151.0114 H   0  0  0  0  0  0  0  0  0  0  0  0
  146.0204  128.7257  152.7237 H   0  0  0  0  0  0  0  0  0  0  0  0
  147.2575  130.2730  154.3746 H   0  0  0  0  0  0  0  0  0  0  0  0
  148.7486  129.6575  153.6951 H   0  0  0  0  0  0  0  0  0  0  0  0
  149.1177  131.8711  154.7523 H   0  0  0  0  0  0  0  0  0  0  0  0
  149.4716  131.9144  153.0406 H   0  0  0  0  0  0  0  0  0  0  0  0
  146.8991  132.8685  154.3768 H   0  0  0  0  0  0  0  0  0  0  0  0
  148.0893  134.9280  152.9797 H   0  0  0  0  0  0  0  0  0  0  0  0
  149.3348  136.2967  153.6128 H   0  0  0  0  0  0  0  0  0  0  0  0
  150.8192  138.0811  153.6828 H   0  0  0  0  0  0  0  0  0  0  0  0
  152.4791  139.4075  154.9958 H   0  0  0  0  0  0  0  0  0  0  0  0
  154.4891  138.9838  159.1069 H   0  0  0  0  0  0  0  0  0  0  0  0
  154.1959  137.3096  158.6501 H   0  0  0  0  0  0  0  0  0  0  0  0
  152.8892  138.2914  159.3505 H   0  0  0  0  0  0  0  0  0  0  0  0
  150.7156  135.2821  156.9916 H   0  0  0  0  0  0  0  0  0  0  0  0
  146.1682  133.5560  152.1076 H   0  0  0  0  0  0  0  0  0  0  0  0
  147.6576  132.9621  151.4131 H   0  0  0  0  0  0  0  0  0  0  0  0
  145.8733  131.3123  151.0747 H   0  0  0  0  0  0  0  0  0  0  0  0
  145.5085  131.2669  152.7888 H   0  0  0  0  0  0  0  0  0  0  0  0
  148.0443  130.4870  151.5594 H   0  0  0  0  0  0  0  0  0  0  0  0
  1  2  1  0  0  0  0
  1 24  1  0  0  0  0
  1 25  1  0  0  0  0
  1 26  1  0  0  0  0
  2  3  1  0  0  0  0
  2 27  1  0  0  0  0
  3  4  2  0  0  0  0
  3  5  1  0  0  0  0
  5  6  1  0  0  0  0
  5 28  1  0  0  0  0
  5 29  1  0  0  0  0
  6 23  1  0  0  0  0
  6  7  1  0  0  0  0
  6 47  1  0  0  0  0
  7  8  1  0  0  0  0
  7 30  1  0  0  0  0
  7 31  1  0  0  0  0
  8  9  1  0  0  0  0
  8 32  1  0  0  0  0
  8 33  1  0  0  0  0
  9 10  1  0  0  0  0
  9 22  1  0  0  0  0
  9 34  1  0  0  0  0
 10 11  1  0  0  0  0
 10 35  1  0  0  0  0
 11 12  2  0  0  0  0
 11 13  1  0  0  0  0
 13 14  1  0  0  0  0
 13 36  1  0  0  0  0
 14 21  1  0  0  0  0
 14 15  2  0  0  0  0
 15 16  1  0  0  0  0
 15 37  1  0  0  0  0
 16 17  2  0  0  0  0
 16 38  1  0  0  0  0
 17 18  1  0  0  0  0
 17 20  1  0  0  0  0
 18 19  1  0  0  0  0
 19 39  1  0  0  0  0
 19 40  1  0  0  0  0
 19 41  1  0  0  0  0
 20 21  2  0  0  0  0
 21 42  1  0  0  0  0
 22 23  1  0  0  0  0
 22 43  1  0  0  0  0
 22 44  1  0  0  0  0
 23 45  1  0  0  0  0
 23 46  1  0  0  0  0
M  CHG  1   6   1
M  END
> <s_m_source_file>
AV-unprocessed.smi

> <i_m_source_file_index>
1396

> <i_lp_mmshare_version>
43012

> <i_f3d_flags>
0

> <s_epik_input>
W0NIM11bTkhdQyg9TylbQ0gyXU4xW0NIMl1bQ0gyXVtDSF0oW0NIMl1bQ0gyXTEpW05IXUMoPU8pW05IXWMyW2NIXVtjSF1jKE9bQ0gzXSluW2NIXTI=

> <s_epik_cmdline>
J2VwaWtfcHl0aG9uJywgJy1waCcsICc3LjAnLCAnLXRuJywgJzgnLCAnLW1hJywgJzIwMCcsICctbWV0YWxfYmluZGluZycsICctaW1hZScsICc8aW5maWxlLm1hZT4nLCAnLW9tYWUnLCAnPG91dGZpbGUubWFlPic=

> <r_lp_tautomer_probability>
1

> <r_epik_Ionization_Penalty>
0.838943

> <r_epik_Ionization_Penalty_Charging>
0.838844

> <r_epik_Ionization_Penalty_Neutral>
9.87511e-05

> <r_epik_State_Penalty>
0.8734

> <r_epik_Charging_Adjusted_Penalty>
1.71224

> <i_epik_Tot_Q>
1

> <i_epik_Tot_abs_Q>
1

> <r_epik_Metal_State_Penalty>
0.877926

> <b_epik_Metal_Only>
0

> <s_lp_Force_Field>
OPLS_2005

> <r_lp_Energy>
18.1916

> <b_lp_Chiralities_Consistent>
1

> <s_lp_Variant>
AV-unprocessed.smi:1396-2

> <Gold.Version>
5.8.1

> <Gold.Id.Protein>
6NUR|6NUR_protein|mol2

> <Gold.PLP.Fitness>
48.7042

> <Gold.PLP.PLP>
-37.6889

> <Gold.PLP.part.hbond>
-4.3753

> <Gold.PLP.part.metal>
0.0000

> <Gold.PLP.part.buried>
-5.4291

> <Gold.PLP.part.nonpolar>
-29.5676

> <Gold.PLP.part.repulsive>
0.3688

> <Gold.PLP.ligand.clash>
0.0000

> <Gold.PLP.ligand.torsion>
0.2668

> <Gold.PLP.Chemscore.Hbond>
3.8240

> <Gold.PLP.Chemscore.CHOScore>
0.0000

> <Gold.PLP.Chemscore.Metal>
0.0000

> <Gold.Chemscore.Hbonds>
donor molecule, donor type, donor heavy atom, donor atom, acceptor molecule, acceptor atom, score
      L1  H     6    47       P1 10747  1.00
      L1  H    10    35       P1  7948  0.78
      L1  H    13    36       P1  7948  0.94
      P1  H  7997  8008       L1    18  1.00

> <Gold.PLP.Chemscore.Internal.Correction>
0.0769

> <Gold.Rescore>
     Score         DG    S(hbond)    S(metal)    S(lipo)     H(rot)  DE(clash)    DE(int)     intcor
     16.93     -20.79       3.48        0.00      75.21       2.00       0.04       3.82       ----

> <Gold.Chemscore.Fitness>
16.9265

> <Gold.Chemscore.DG>
-20.7879

> <Gold.Chemscore.ZeroCoef>
-5.4800

> <Gold.Chemscore.Hbond>
3.4786

> <Gold.Chemscore.Metal>
0.0000

> <Gold.Chemscore.Lipo>
75.2117

> <Gold.Chemscore.Internal_Hbond>
0.0000

> <Gold.Chemscore.DEClash>
0.0443

> <Gold.Chemscore.DEInternal>
3.8171

> <Gold.Chemscore.Rot>
1.9963

> <Gold.Chemscore.Internal.Correction>
   9.000000E+99

> <Gold.Chemscore.Hbonds>
donor molecule, donor type, donor heavy atom, donor atom, acceptor molecule, acceptor atom, score
      L1  H     6    47       P1 10747  0.99
      L1  H    10    35       P1  7948  0.70
      L1  H    13    36       P1  7948  0.75
      P1  H  7997  8008       L1    18  0.87

> <Gold.Chemscore.Hbond.Weighted>
-11.6186

> <Gold.Chemscore.Metal.Weighted>
-0.0000

> <Gold.Chemscore.Lipo.Weighted>
-8.7998

> <Gold.Chemscore.Internal_Hbond.Weighted>
0.0000

> <Gold.Chemscore.DEClash.Weighted>
0.0443

> <Gold.Chemscore.DEInternal.Weighted>
3.8171

> <Gold.Chemscore.Rot.Weighted>
5.1105

> <Gold.Chemscore.Internal.Correction.Weighted>
   9.000000E+99

> <Gold.Protein.RotatedTorsions>
[ 6907 6896 6895 6894 ] final   43.11 input  -60.11 | X-H torsion
[ 7974 7965 7964 7962 ] final -152.98 input  175.53 | X-H torsion
[ 8008 7997 7996 7995 ] final  -66.43 input   59.86 | X-H torsion
[ 10167 10162 10161 10158 ] final -129.37 input  -65.29 | X-H torsion
[ 10718 10713 10712 10709 ] final   -1.69 input   66.30 | X-H torsion
[ 10763 10752 10751 10750 ] final  117.77 input  -60.55 | X-H torsion
[ 11005 11000 10999 10996 ] final    9.16 input  -57.11 | X-H torsion

> <Gold.Protein.ActiveResidues>
 VAL166  LYS551  ARG553  GLY616  TRP617  ASP618  TYR619  PRO620  LYS621  CYS622 
 ASP623  PHE694  ASN695  SER759  ASP760  ASP761  ALA762  ILE779  LEU786  VAL792 
 PHE793  MET794  SER795  GLU796  ALA797  LYS798  CYS799  TRP800  GLU811  SER814 

> <Gold.Protein.RotatedAtoms>
  152.2162  134.8456  160.0491 H   0  0  0  0  0  0  0  0  0  0  0  0  # atno 6907 bound_to 6896
  151.9256  133.3592  159.3920 H   0  0  0  0  0  0  0  0  0  0  0  0  # atno 6908 bound_to 6896
  150.6988  134.4515  159.5382 H   0  0  0  0  0  0  0  0  0  0  0  0  # atno 6909 bound_to 6896
  144.7765  140.4589  143.5869 H   0  0  0  0  0  0  0  0  0  0  0  0  # atno 7974 bound_to 7965
  154.4734  140.0913  156.7202 H   0  0  0  0  0  0  0  0  0  0  0  0  # atno 8008 bound_to 7997
  155.4662  140.3463  155.4301 H   0  0  0  0  0  0  0  0  0  0  0  0  # atno 8009 bound_to 7997
  156.1077  140.1439  156.9370 H   0  0  0  0  0  0  0  0  0  0  0  0  # atno 8010 bound_to 7997
  139.9405  143.6169  152.2505 H   0  0  0  0  0  0  0  0  0  0  0  0  # atno 10167 bound_to 10162
  156.8018  130.5395  149.5720 H   0  0  0  0  0  0  0  0  0  0  0  0  # atno 10718 bound_to 10713
  153.5574  135.3527  155.2785 H   0  0  0  0  0  0  0  0  0  0  0  0  # atno 10763 bound_to 10752
  154.8699  135.4128  154.2869 H   0  0  0  0  0  0  0  0  0  0  0  0  # atno 10764 bound_to 10752
  153.3608  135.7060  153.6783 H   0  0  0  0  0  0  0  0  0  0  0  0  # atno 10765 bound_to 10752
  140.5288  134.0487  155.7867 H   0  0  0  0  0  0  0  0  0  0  0  0  # atno 11005 bound_to 11000
  145.6171  139.1520  143.3043 LP  0  0  0  0  0  0  0  0  0  0  0  0  # atno 17320 bound_to 7965
  146.1948  140.6283  142.9129 LP  0  0  0  0  0  0  0  0  0  0  0  0  # atno 17321 bound_to 7965
  139.6709  144.7661  151.1786 LP  0  0  0  0  0  0  0  0  0  0  0  0  # atno 17342 bound_to 10162
  140.7612  143.5867  150.8838 LP  0  0  0  0  0  0  0  0  0  0  0  0  # atno 17343 bound_to 10162
  156.1096  130.6031  151.0027 LP  0  0  0  0  0  0  0  0  0  0  0  0  # atno 17370 bound_to 10713
  157.6550  131.0891  150.7968 LP  0  0  0  0  0  0  0  0  0  0  0  0  # atno 17371 bound_to 10713
  141.1293  133.9329  157.2569 LP  0  0  0  0  0  0  0  0  0  0  0  0  # atno 17394 bound_to 11000
  139.9565  135.0164  156.9143 LP  0  0  0  0  0  0  0  0  0  0  0  0  # atno 17395 bound_to 11000

$$$$
