AV-unprocessed.smi:929|AV-procd|sdf|4195|dock4
  -GOLD-   22720 2103D 1   1.00000     0.00000
 Structure written by MMmdl.
 34 35  0  0  0  0  0  0  0  0  1 V2000
  151.0100  141.1438  156.7312 C   0  0  0  0  0  0  0  0  0  0  0  0
  151.3387  139.9081  155.9525 C   0  0  0  0  0  0  0  0  0  0  0  0
  150.4056  138.8677  155.6446 C   0  0  0  0  0  0  0  0  0  0  0  0
  150.9738  137.8522  154.9164 C   0  0  0  0  0  0  0  0  0  0  0  0
  150.4620  136.6992  154.4177 N   0  0  0  0  0  0  0  0  0  0  0  0
  150.6251  135.4513  154.8885 C   0  0  0  0  0  0  0  0  0  0  0  0
  151.3108  135.1416  155.8633 O   0  0  0  0  0  0  0  0  0  0  0  0
  149.9366  134.5631  154.1562 N   0  0  0  0  0  0  0  0  0  0  0  0
  149.8700  133.1265  154.4178 C   0  0  0  0  0  0  0  0  0  0  0  0
  148.4386  132.6173  154.6726 C   0  0  0  0  0  0  0  0  0  0  0  0
  148.1041  132.2610  155.8041 O   0  0  0  0  0  0  0  0  0  0  0  0
  147.5801  132.5891  153.6325 N   0  0  0  0  0  0  0  0  0  0  0  0
  146.1955  132.1200  153.6796 C   0  0  0  0  0  0  0  0  0  0  0  0
  145.7356  132.0453  152.2231 C   0  0  0  0  0  0  0  0  0  0  0  0
  146.6166  133.0560  151.5023 C   0  0  0  0  0  0  0  0  0  0  0  0
  147.9307  133.0284  152.2832 C   0  0  0  0  0  0  0  0  0  0  0  0
  152.6373  138.2721  154.6715 S   0  0  0  0  0  0  0  0  0  0  0  0
  152.5627  139.7275  155.5034 N   0  0  0  0  0  0  0  0  0  0  0  0
  149.9326  141.2747  156.8349 H   0  0  0  0  0  0  0  0  0  0  0  0
  151.4019  142.0364  156.2431 H   0  0  0  0  0  0  0  0  0  0  0  0
  151.4344  141.1001  157.7343 H   0  0  0  0  0  0  0  0  0  0  0  0
  149.3763  138.9158  155.9663 H   0  0  0  0  0  0  0  0  0  0  0  0
  149.8779  136.8002  153.6006 H   0  0  0  0  0  0  0  0  0  0  0  0
  149.3956  134.9069  153.3765 H   0  0  0  0  0  0  0  0  0  0  0  0
  150.2770  132.6088  153.5490 H   0  0  0  0  0  0  0  0  0  0  0  0
  150.5130  132.8783  155.2638 H   0  0  0  0  0  0  0  0  0  0  0  0
  146.1020  131.1498  154.1693 H   0  0  0  0  0  0  0  0  0  0  0  0
  145.5921  132.8419  154.2317 H   0  0  0  0  0  0  0  0  0  0  0  0
  145.9306  131.0469  151.8292 H   0  0  0  0  0  0  0  0  0  0  0  0
  144.6711  132.2496  152.1044 H   0  0  0  0  0  0  0  0  0  0  0  0
  146.7476  132.8266  150.4444 H   0  0  0  0  0  0  0  0  0  0  0  0
  146.1683  134.0477  151.5762 H   0  0  0  0  0  0  0  0  0  0  0  0
  148.4131  134.0072  152.2816 H   0  0  0  0  0  0  0  0  0  0  0  0
  148.6229  132.3079  151.8448 H   0  0  0  0  0  0  0  0  0  0  0  0
  1  2  1  0  0  0  0
  1 19  1  0  0  0  0
  1 20  1  0  0  0  0
  1 21  1  0  0  0  0
  2 18  2  0  0  0  0
  2  3  1  0  0  0  0
  3  4  2  0  0  0  0
  3 22  1  0  0  0  0
  4  5  1  0  0  0  0
  4 17  1  0  0  0  0
  5  6  1  0  0  0  0
  5 23  1  0  0  0  0
  6  7  2  0  0  0  0
  6  8  1  0  0  0  0
  8  9  1  0  0  0  0
  8 24  1  0  0  0  0
  9 10  1  0  0  0  0
  9 25  1  0  0  0  0
  9 26  1  0  0  0  0
 10 11  2  0  0  0  0
 10 12  1  0  0  0  0
 12 16  1  0  0  0  0
 12 13  1  0  0  0  0
 13 14  1  0  0  0  0
 13 27  1  0  0  0  0
 13 28  1  0  0  0  0
 14 15  1  0  0  0  0
 14 29  1  0  0  0  0
 14 30  1  0  0  0  0
 15 16  1  0  0  0  0
 15 31  1  0  0  0  0
 15 32  1  0  0  0  0
 16 33  1  0  0  0  0
 16 34  1  0  0  0  0
 17 18  1  0  0  0  0
M  END
> <s_m_source_file>
AV-unprocessed.smi

> <i_m_source_file_index>
929

> <i_lp_mmshare_version>
43012

> <i_f3d_flags>
0

> <s_epik_input>
W0NIM11jMVtjSF1jKHNuMSlbTkhdQyg9TylbTkhdW0NIMl1DKD1PKU4yW0NIMl1bQ0gyXVtDSDJdW0NIMl0y

> <s_epik_cmdline>
J2VwaWtfcHl0aG9uJywgJy1waCcsICc3LjAnLCAnLXRuJywgJzgnLCAnLW1hJywgJzIwMCcsICctbWV0YWxfYmluZGluZycsICctaW1hZScsICc8aW5maWxlLm1hZT4nLCAnLW9tYWUnLCAnPG91dGZpbGUubWFlPic=

> <r_lp_tautomer_probability>
1

> <r_epik_Ionization_Penalty>
3.14678e-05

> <r_epik_Ionization_Penalty_Charging>
0

> <r_epik_Ionization_Penalty_Neutral>
3.14678e-05

> <r_epik_State_Penalty>
-0

> <r_epik_Charging_Adjusted_Penalty>
0

> <i_epik_Tot_Q>
0

> <i_epik_Tot_abs_Q>
0

> <r_epik_Metal_State_Penalty>
-0

> <b_epik_Metal_Only>
0

> <s_lp_Force_Field>
OPLS_2005

> <r_lp_Energy>
23.5851

> <b_lp_Chiralities_Consistent>
1

> <s_lp_Variant>
AV-unprocessed.smi:929-1

> <Gold.Version>
5.8.1

> <Gold.Id.Protein>
6NUR|6NUR_protein|mol2

> <Gold.PLP.Fitness>
41.1877

> <Gold.PLP.PLP>
-31.9592

> <Gold.PLP.part.hbond>
-6.4178

> <Gold.PLP.part.metal>
0.0000

> <Gold.PLP.part.buried>
-1.8827

> <Gold.PLP.part.nonpolar>
-24.9972

> <Gold.PLP.part.repulsive>
0.1693

> <Gold.PLP.ligand.clash>
0.0000

> <Gold.PLP.ligand.torsion>
0.8087

> <Gold.PLP.Chemscore.Hbond>
3.6137

> <Gold.PLP.Chemscore.CHOScore>
0.0000

> <Gold.PLP.Chemscore.Metal>
0.0000

> <Gold.Chemscore.Hbonds>
donor molecule, donor type, donor heavy atom, donor atom, acceptor molecule, acceptor atom, score
      L1  H     5    23       P1  7948  1.00
      L1  H     8    24       P1  7948  0.55
      P1  H  7997  8009       L1    18  1.00
      P1  H 10752 10765       L1     7  0.90

> <Gold.PLP.Chemscore.Internal.Correction>
0.0046

> <Gold.Rescore>
     Score         DG    S(hbond)    S(metal)    S(lipo)     H(rot)  DE(clash)    DE(int)     intcor
     14.31     -15.22       1.81        0.00      59.89       1.29       0.06       0.85       ----

> <Gold.Chemscore.Fitness>
14.3119

> <Gold.Chemscore.DG>
-15.2247

> <Gold.Chemscore.ZeroCoef>
-5.4800

> <Gold.Chemscore.Hbond>
1.8109

> <Gold.Chemscore.Metal>
0.0000

> <Gold.Chemscore.Lipo>
59.8867

> <Gold.Chemscore.Internal_Hbond>
0.0000

> <Gold.Chemscore.DEClash>
0.0590

> <Gold.Chemscore.DEInternal>
0.8538

> <Gold.Chemscore.Rot>
1.2931

> <Gold.Chemscore.Internal.Correction>
   9.000000E+99

> <Gold.Chemscore.Hbonds>
donor molecule, donor type, donor heavy atom, donor atom, acceptor molecule, acceptor atom, score
      L1  H     5    23       P1  7948  0.37
      L1  H     8    24       P1  7948  0.03
      P1  H  7997  8009       L1    18  0.54
      P1  H 10752 10765       L1     7  0.19

> <Gold.Chemscore.Hbond.Weighted>
-6.0484

> <Gold.Chemscore.Metal.Weighted>
-0.0000

> <Gold.Chemscore.Lipo.Weighted>
-7.0067

> <Gold.Chemscore.Internal_Hbond.Weighted>
0.0000

> <Gold.Chemscore.DEClash.Weighted>
0.0590

> <Gold.Chemscore.DEInternal.Weighted>
0.8538

> <Gold.Chemscore.Rot.Weighted>
3.3105

> <Gold.Chemscore.Internal.Correction.Weighted>
   9.000000E+99

> <Gold.Protein.RotatedTorsions>
[ 6907 6896 6895 6894 ] final   75.82 input  -60.11 | X-H torsion
[ 7974 7965 7964 7962 ] final  143.13 input  175.53 | X-H torsion
[ 8008 7997 7996 7995 ] final -137.53 input   59.86 | X-H torsion
[ 10167 10162 10161 10158 ] final  111.58 input  -65.29 | X-H torsion
[ 10718 10713 10712 10709 ] final -160.07 input   66.30 | X-H torsion
[ 10763 10752 10751 10750 ] final -149.06 input  -60.55 | X-H torsion
[ 11005 11000 10999 10996 ] final  -10.24 input  -57.11 | X-H torsion

> <Gold.Protein.ActiveResidues>
 VAL166  LYS551  ARG553  GLY616  TRP617  ASP618  TYR619  PRO620  LYS621  CYS622 
 ASP623  PHE694  ASN695  SER759  ASP760  ASP761  ALA762  ILE779  LEU786  VAL792 
 PHE793  MET794  SER795  GLU796  ALA797  LYS798  CYS799  TRP800  GLU811  SER814 

> <Gold.Protein.RotatedAtoms>
  152.5044  134.4063  159.9433 H   0  0  0  0  0  0  0  0  0  0  0  0  # atno 6907 bound_to 6896
  151.4029  133.3745  159.2742 H   0  0  0  0  0  0  0  0  0  0  0  0  # atno 6908 bound_to 6896
  150.9348  134.8782  159.7633 H   0  0  0  0  0  0  0  0  0  0  0  0  # atno 6909 bound_to 6896
  144.8947  139.5507  143.5782 H   0  0  0  0  0  0  0  0  0  0  0  0  # atno 7974 bound_to 7965
  155.4132  140.0513  157.3030 H   0  0  0  0  0  0  0  0  0  0  0  0  # atno 8008 bound_to 7997
  154.4936  140.2130  155.9454 H   0  0  0  0  0  0  0  0  0  0  0  0  # atno 8009 bound_to 7997
  156.1376  140.3160  155.8450 H   0  0  0  0  0  0  0  0  0  0  0  0  # atno 8010 bound_to 7997
  139.6600  144.7129  151.1883 H   0  0  0  0  0  0  0  0  0  0  0  0  # atno 10167 bound_to 10162
  156.5769  130.8713  151.2854 H   0  0  0  0  0  0  0  0  0  0  0  0  # atno 10718 bound_to 10713
  154.8199  135.3319  154.7069 H   0  0  0  0  0  0  0  0  0  0  0  0  # atno 10763 bound_to 10752
  153.7704  135.6926  153.4912 H   0  0  0  0  0  0  0  0  0  0  0  0  # atno 10764 bound_to 10752
  153.2048  135.4503  155.0259 H   0  0  0  0  0  0  0  0  0  0  0  0  # atno 10765 bound_to 10752
  140.7426  133.8657  155.8980 H   0  0  0  0  0  0  0  0  0  0  0  0  # atno 11005 bound_to 11000
  146.3074  139.7628  142.9045 LP  0  0  0  0  0  0  0  0  0  0  0  0  # atno 17320 bound_to 7965
  145.3720  141.0344  143.3225 LP  0  0  0  0  0  0  0  0  0  0  0  0  # atno 17321 bound_to 7965
  140.7576  143.6009  150.8700 LP  0  0  0  0  0  0  0  0  0  0  0  0  # atno 17342 bound_to 10162
  139.9666  143.6104  152.2986 LP  0  0  0  0  0  0  0  0  0  0  0  0  # atno 17343 bound_to 10162
  157.7335  130.9732  150.1983 LP  0  0  0  0  0  0  0  0  0  0  0  0  # atno 17370 bound_to 10713
  156.2665  130.3717  149.8076 LP  0  0  0  0  0  0  0  0  0  0  0  0  # atno 17371 bound_to 10713
  140.9823  134.1389  157.4483 LP  0  0  0  0  0  0  0  0  0  0  0  0  # atno 17394 bound_to 11000
  139.8803  135.0014  156.6067 LP  0  0  0  0  0  0  0  0  0  0  0  0  # atno 17395 bound_to 11000

$$$$
