AV-unprocessed.smi:1821|AV-procd|sdf|7387|dock10
  -GOLD-   22720 9 53D 1   1.00000     0.00000
 Structure written by MMmdl.
 35 37  0  0  0  0  0  0  0  0  1 V2000
  152.4162  139.4300  155.8438 C   0  0  0  0  0  0  0  0  0  0  0  0
  151.1005  140.1079  155.6252 C   0  0  0  0  0  0  0  0  0  0  0  0
  150.4614  140.0600  154.4564 N   0  0  0  0  0  0  0  0  0  0  0  0
  149.3208  140.7994  154.7045 C   0  0  0  0  0  0  0  0  0  0  0  0
  148.2344  141.1230  153.8604 C   0  0  0  0  0  0  0  0  0  0  0  0
  147.1643  141.9051  154.3422 C   0  0  0  0  0  0  0  0  0  0  0  0
  147.1650  142.3743  155.6719 C   0  0  0  0  0  0  0  0  0  0  0  0
  148.2376  142.0636  156.5296 C   0  0  0  0  0  0  0  0  0  0  0  0
  149.3032  141.2819  156.0441 C   0  0  0  0  0  0  0  0  0  0  0  0
  150.4840  140.8086  156.6083 N   0  0  0  0  0  0  0  0  0  0  0  0
  150.9430  141.0323  157.9723 C   0  0  0  0  0  0  0  0  0  0  0  0
  151.9141  142.2254  158.0878 C   0  0  1  0  0  0  0  0  0  0  0  0
  151.3513  143.3774  157.4885 O   0  0  0  0  0  0  0  0  0  0  0  0
  152.3309  142.4661  159.5348 C   0  0  0  0  0  0  0  0  0  0  0  0
  153.1015  141.5070  160.2353 C   0  0  0  0  0  0  0  0  0  0  0  0
  153.4861  140.3565  159.6317 F   0  0  0  0  0  0  0  0  0  0  0  0
  153.4837  141.7406  161.5706 C   0  0  0  0  0  0  0  0  0  0  0  0
  153.1074  142.9328  162.2158 C   0  0  0  0  0  0  0  0  0  0  0  0
  152.3500  143.8953  161.5231 C   0  0  0  0  0  0  0  0  0  0  0  0
  151.9637  143.6658  160.1882 C   0  0  0  0  0  0  0  0  0  0  0  0
  151.2398  144.6098  159.5396 F   0  0  0  0  0  0  0  0  0  0  0  0
  152.7440  138.9310  154.9313 H   0  0  0  0  0  0  0  0  0  0  0  0
  152.3296  138.6809  156.6310 H   0  0  0  0  0  0  0  0  0  0  0  0
  153.1771  140.1567  156.1272 H   0  0  0  0  0  0  0  0  0  0  0  0
  148.2250  140.7687  152.8402 H   0  0  0  0  0  0  0  0  0  0  0  0
  146.3394  142.1470  153.6880 H   0  0  0  0  0  0  0  0  0  0  0  0
  146.3422  142.9740  156.0327 H   0  0  0  0  0  0  0  0  0  0  0  0
  148.2438  142.4247  157.5473 H   0  0  0  0  0  0  0  0  0  0  0  0
  150.0707  141.1864  158.6085 H   0  0  0  0  0  0  0  0  0  0  0  0
  151.4208  140.1216  158.3346 H   0  0  0  0  0  0  0  0  0  0  0  0
  152.8050  142.0011  157.5023 H   0  0  0  0  0  0  0  0  0  0  0  0
  152.0346  143.8421  157.0299 H   0  0  0  0  0  0  0  0  0  0  0  0
  154.0693  141.0034  162.0999 H   0  0  0  0  0  0  0  0  0  0  0  0
  153.4026  143.1104  163.2394 H   0  0  0  0  0  0  0  0  0  0  0  0
  152.0653  144.8130  162.0162 H   0  0  0  0  0  0  0  0  0  0  0  0
  1  2  1  0  0  0  0
  1 22  1  0  0  0  0
  1 23  1  0  0  0  0
  1 24  1  0  0  0  0
  2 10  1  0  0  0  0
  2  3  2  0  0  0  0
  3  4  1  0  0  0  0
  4  9  2  0  0  0  0
  4  5  1  0  0  0  0
  5  6  2  0  0  0  0
  5 25  1  0  0  0  0
  6  7  1  0  0  0  0
  6 26  1  0  0  0  0
  7  8  2  0  0  0  0
  7 27  1  0  0  0  0
  8  9  1  0  0  0  0
  8 28  1  0  0  0  0
  9 10  1  0  0  0  0
 10 11  1  0  0  0  0
 11 12  1  0  0  0  0
 11 29  1  0  0  0  0
 11 30  1  0  0  0  0
 12 13  1  0  0  0  0
 12 14  1  0  0  0  0
 12 31  1  0  0  0  0
 13 32  1  0  0  0  0
 14 20  1  0  0  0  0
 14 15  2  0  0  0  0
 15 16  1  0  0  0  0
 15 17  1  0  0  0  0
 17 18  2  0  0  0  0
 17 33  1  0  0  0  0
 18 19  1  0  0  0  0
 18 34  1  0  0  0  0
 19 20  2  0  0  0  0
 19 35  1  0  0  0  0
 20 21  1  0  0  0  0
M  END
> <s_m_source_file>
AV-unprocessed.smi

> <i_m_source_file_index>
1821

> <i_lp_mmshare_version>
43012

> <i_f3d_flags>
0

> <s_epik_input>
W2NIXTFbY0hdW2NIXVtjSF1jKGMxMiluKGMobjIpW0NIM10pW0NIMl1bQ0BIXShbT0hdKWMzYyhGKVtjSF1bY0hdW2NIXWMzRg==

> <s_epik_cmdline>
J2VwaWtfcHl0aG9uJywgJy1waCcsICc3LjAnLCAnLXRuJywgJzgnLCAnLW1hJywgJzIwMCcsICctbWV0YWxfYmluZGluZycsICctaW1hZScsICc8aW5maWxlLm1hZT4nLCAnLW9tYWUnLCAnPG91dGZpbGUubWFlPic=

> <r_epik_Ionization_Penalty>
0.129663

> <r_epik_Ionization_Penalty_Charging>
0

> <r_epik_Ionization_Penalty_Neutral>
0.129663

> <r_epik_State_Penalty>
0.119073

> <r_epik_Charging_Adjusted_Penalty>
0.119073

> <i_epik_Tot_Q>
0

> <i_epik_Tot_abs_Q>
0

> <r_epik_Metal_State_Penalty>
0.000131867

> <b_epik_Metal_Only>
0

> <s_lp_Force_Field>
OPLS_2005

> <r_lp_Energy>
13.032

> <b_lp_Chiralities_Consistent>
1

> <s_lp_Variant>
AV-unprocessed.smi:1821-2

> <Gold.Version>
5.8.1

> <Gold.Id.Protein>
6NUR|6NUR_protein|mol2

> <Gold.PLP.Fitness>
48.7239

> <Gold.PLP.PLP>
-50.8917

> <Gold.PLP.part.hbond>
-1.2087

> <Gold.PLP.part.metal>
0.0000

> <Gold.PLP.part.buried>
-2.5387

> <Gold.PLP.part.nonpolar>
-46.4900

> <Gold.PLP.part.repulsive>
0.1029

> <Gold.PLP.ligand.clash>
4.0969

> <Gold.PLP.ligand.torsion>
0.4760

> <Gold.PLP.Chemscore.Hbond>
0.9500

> <Gold.PLP.Chemscore.CHOScore>
0.0000

> <Gold.PLP.Chemscore.Metal>
0.0000

> <Gold.Chemscore.Hbonds>
donor molecule, donor type, donor heavy atom, donor atom, acceptor molecule, acceptor atom, score
      P1  H  7989  7998       L1     3  0.95

> <Gold.PLP.Chemscore.Internal.Correction>
0.0312

> <Gold.Rescore>
     Score         DG    S(hbond)    S(metal)    S(lipo)     H(rot)  DE(clash)    DE(int)     intcor
     12.91     -15.43       0.21        0.00     120.33       1.88       0.10       2.43       ----

> <Gold.Chemscore.Fitness>
12.9054

> <Gold.Chemscore.DG>
-15.4334

> <Gold.Chemscore.ZeroCoef>
-5.4800

> <Gold.Chemscore.Hbond>
0.2090

> <Gold.Chemscore.Metal>
0.0000

> <Gold.Chemscore.Lipo>
120.3253

> <Gold.Chemscore.Internal_Hbond>
0.0000

> <Gold.Chemscore.DEClash>
0.1007

> <Gold.Chemscore.DEInternal>
2.4273

> <Gold.Chemscore.Rot>
1.8839

> <Gold.Chemscore.Internal.Correction>
   9.000000E+99

> <Gold.Chemscore.Hbonds>
donor molecule, donor type, donor heavy atom, donor atom, acceptor molecule, acceptor atom, score
      P1  H  7989  7998       L1     3  0.19

> <Gold.Chemscore.Hbond.Weighted>
-0.6981

> <Gold.Chemscore.Metal.Weighted>
-0.0000

> <Gold.Chemscore.Lipo.Weighted>
-14.0781

> <Gold.Chemscore.Internal_Hbond.Weighted>
0.0000

> <Gold.Chemscore.DEClash.Weighted>
0.1007

> <Gold.Chemscore.DEInternal.Weighted>
2.4273

> <Gold.Chemscore.Rot.Weighted>
4.8227

> <Gold.Chemscore.Internal.Correction.Weighted>
   9.000000E+99

> <Gold.Protein.RotatedTorsions>
[ 6907 6896 6895 6894 ] final  171.31 input  -60.11 | X-H torsion
[ 7974 7965 7964 7962 ] final  137.94 input  175.53 | X-H torsion
[ 8008 7997 7996 7995 ] final -106.33 input   59.86 | X-H torsion
[ 10167 10162 10161 10158 ] final  -40.06 input  -65.29 | X-H torsion
[ 10718 10713 10712 10709 ] final   92.94 input   66.30 | X-H torsion
[ 10763 10752 10751 10750 ] final  163.84 input  -60.55 | X-H torsion
[ 11005 11000 10999 10996 ] final   18.81 input  -57.11 | X-H torsion

> <Gold.Protein.ActiveResidues>
 VAL166  LYS551  ARG553  GLY616  TRP617  ASP618  TYR619  PRO620  LYS621  CYS622 
 ASP623  PHE694  ASN695  SER759  ASP760  ASP761  ALA762  ILE779  LEU786  VAL792 
 PHE793  MET794  SER795  GLU796  ALA797  LYS798  CYS799  TRP800  GLU811  SER814 

> <Gold.Protein.RotatedAtoms>
  151.8022  133.3371  159.3529 H   0  0  0  0  0  0  0  0  0  0  0  0  # atno 6907 bound_to 6896
  150.7355  134.5743  159.5915 H   0  0  0  0  0  0  0  0  0  0  0  0  # atno 6908 bound_to 6896
  152.3135  134.7469  160.0382 H   0  0  0  0  0  0  0  0  0  0  0  0  # atno 6909 bound_to 6896
  144.9420  139.4919  143.5567 H   0  0  0  0  0  0  0  0  0  0  0  0  # atno 7974 bound_to 7965
  154.9129  140.0409  157.1956 H   0  0  0  0  0  0  0  0  0  0  0  0  # atno 8008 bound_to 7997
  154.8330  140.2902  155.5688 H   0  0  0  0  0  0  0  0  0  0  0  0  # atno 8009 bound_to 7997
  156.2988  140.2497  156.3259 H   0  0  0  0  0  0  0  0  0  0  0  0  # atno 8010 bound_to 7997
  140.7046  143.3176  151.2871 H   0  0  0  0  0  0  0  0  0  0  0  0  # atno 10167 bound_to 10162
  157.6957  131.0461  150.3958 H   0  0  0  0  0  0  0  0  0  0  0  0  # atno 10718 bound_to 10713
  154.2999  135.2759  155.2616 H   0  0  0  0  0  0  0  0  0  0  0  0  # atno 10763 bound_to 10752
  154.5057  135.5796  153.6569 H   0  0  0  0  0  0  0  0  0  0  0  0  # atno 10764 bound_to 10752
  152.9902  135.6169  154.3169 H   0  0  0  0  0  0  0  0  0  0  0  0  # atno 10765 bound_to 10752
  140.4206  134.1522  155.7672 H   0  0  0  0  0  0  0  0  0  0  0  0  # atno 11005 bound_to 11000
  146.3289  139.8446  142.8884 LP  0  0  0  0  0  0  0  0  0  0  0  0  # atno 17320 bound_to 7965
  145.2976  141.0185  143.3627 LP  0  0  0  0  0  0  0  0  0  0  0  0  # atno 17321 bound_to 7965
  139.6620  144.0173  152.2698 LP  0  0  0  0  0  0  0  0  0  0  0  0  # atno 17342 bound_to 10162
  139.9743  144.6472  150.7960 LP  0  0  0  0  0  0  0  0  0  0  0  0  # atno 17343 bound_to 10162
  156.4356  130.3981  149.6731 LP  0  0  0  0  0  0  0  0  0  0  0  0  # atno 17370 bound_to 10713
  156.3932  130.7638  151.2640 LP  0  0  0  0  0  0  0  0  0  0  0  0  # atno 17371 bound_to 10713
  141.1785  133.8463  157.1339 LP  0  0  0  0  0  0  0  0  0  0  0  0  # atno 17394 bound_to 11000
  140.0202  134.9949  157.0577 LP  0  0  0  0  0  0  0  0  0  0  0  0  # atno 17395 bound_to 11000

$$$$
