AV-unprocessed.smi:290|AV-procd|sdf|2230|dock7
  -GOLD-   2262022 93D 1   1.00000     0.00000
 Structure written by MMmdl.
 59 62  0  0  0  0  0  0  0  0  2 V2000
  148.9331  139.1203  154.9346 C   0  0  0  0  0  0  0  0  0  0  0  0
  150.3281  138.6607  154.4834 C   0  0  1  0  0  0  0  0  0  0  0  0
  151.1793  139.7925  154.6708 O   0  0  0  0  0  0  0  0  0  0  0  0
  152.4359  139.3792  155.1779 C   0  0  0  0  0  0  0  0  0  0  0  0
  152.0697  138.2107  156.0797 C   0  0  0  0  0  0  0  0  0  0  0  0
  150.9871  137.4959  155.2805 C   0  0  2  0  0  0  0  0  0  0  0  0
  151.6501  136.6539  154.3523 O   0  0  0  0  0  0  0  0  0  0  0  0
  150.0891  136.6065  156.1867 C   0  0  0  0  0  0  0  0  0  0  0  0
  149.1381  135.7412  155.4948 N   0  0  0  0  0  0  0  0  0  0  0  0
  147.8847  136.0669  155.0214 C   0  0  0  0  0  0  0  0  0  0  0  0
  147.2477  135.1031  154.4149 N   0  0  0  0  0  0  0  0  0  0  0  0
  148.1352  134.0351  154.4446 C   0  0  0  0  0  0  0  0  0  0  0  0
  148.0919  132.6948  153.9629 C   0  0  0  0  0  0  0  0  0  0  0  0
  147.0080  132.1710  153.3311 N   0  0  0  0  0  0  0  0  0  0  0  0
  146.6843  130.7762  153.6246 C   0  0  0  0  0  0  0  0  0  0  0  0
  146.1670  130.1635  152.3189 C   0  0  0  0  0  0  0  0  0  0  0  0
  145.7034  131.3899  151.5256 C   0  0  2  0  0  0  0  0  0  0  0  0
  145.5526  131.1957  150.0548 N   0  3  2  0  0  0  0  0  0  0  0  0
  146.8023  130.7008  149.4301 C   0  0  0  0  0  0  0  0  0  0  0  0
  144.9543  132.3385  149.3112 C   0  0  0  0  0  0  0  0  0  0  0  0
  143.4988  132.5954  149.7332 C   0  0  0  0  0  0  0  0  0  0  0  0
  142.6151  132.0831  148.7577 O   0  0  0  0  0  0  0  0  0  0  0  0
  146.7224  132.4657  151.9268 C   0  0  1  0  0  0  0  0  0  0  0  0
  146.1968  133.8969  151.7166 C   0  0  0  0  0  0  0  0  0  0  0  0
  149.1963  131.9273  154.1615 N   0  0  0  0  0  0  0  0  0  0  0  0
  150.2647  132.4263  154.7891 C   0  0  0  0  0  0  0  0  0  0  0  0
  150.4386  133.6478  155.2950 N   0  0  0  0  0  0  0  0  0  0  0  0
  149.3366  134.4276  155.0998 C   0  0  0  0  0  0  0  0  0  0  0  0
  144.7360  131.6973  151.9290 H   0  0  0  0  0  0  0  0  0  0  0  0
  147.6437  132.3401  151.3596 H   0  0  0  0  0  0  0  0  0  0  0  0
  148.1662  138.3952  154.6704 H   0  0  0  0  0  0  0  0  0  0  0  0
  148.6596  140.0533  154.4416 H   0  0  0  0  0  0  0  0  0  0  0  0
  148.8939  139.2935  156.0102 H   0  0  0  0  0  0  0  0  0  0  0  0
  150.2909  138.4286  153.4174 H   0  0  0  0  0  0  0  0  0  0  0  0
  153.0757  139.0569  154.3550 H   0  0  0  0  0  0  0  0  0  0  0  0
  152.9392  140.1853  155.7121 H   0  0  0  0  0  0  0  0  0  0  0  0
  152.9233  137.5793  156.3304 H   0  0  0  0  0  0  0  0  0  0  0  0
  151.6580  138.5981  157.0129 H   0  0  0  0  0  0  0  0  0  0  0  0
  151.3955  136.9108  153.4792 H   0  0  0  0  0  0  0  0  0  0  0  0
  150.7140  135.9710  156.8156 H   0  0  0  0  0  0  0  0  0  0  0  0
  149.5325  137.2411  156.8767 H   0  0  0  0  0  0  0  0  0  0  0  0
  147.4445  137.0461  155.1326 H   0  0  0  0  0  0  0  0  0  0  0  0
  147.5425  130.2192  154.0044 H   0  0  0  0  0  0  0  0  0  0  0  0
  145.9057  130.7550  154.3878 H   0  0  0  0  0  0  0  0  0  0  0  0
  146.9902  129.6493  151.8231 H   0  0  0  0  0  0  0  0  0  0  0  0
  145.3709  129.4372  152.4842 H   0  0  0  0  0  0  0  0  0  0  0  0
  147.5952  131.4468  149.4973 H   0  0  0  0  0  0  0  0  0  0  0  0
  146.6519  130.4605  148.3782 H   0  0  0  0  0  0  0  0  0  0  0  0
  147.1482  129.7914  149.9224 H   0  0  0  0  0  0  0  0  0  0  0  0
  145.5181  133.2577  149.4631 H   0  0  0  0  0  0  0  0  0  0  0  0
  145.0026  132.1372  148.2400 H   0  0  0  0  0  0  0  0  0  0  0  0
  143.2904  132.0949  150.6793 H   0  0  0  0  0  0  0  0  0  0  0  0
  143.3006  133.6560  149.8856 H   0  0  0  0  0  0  0  0  0  0  0  0
  141.8702  132.6614  148.6882 H   0  0  0  0  0  0  0  0  0  0  0  0
  145.9561  134.0725  150.6677 H   0  0  0  0  0  0  0  0  0  0  0  0
  146.9327  134.6455  152.0092 H   0  0  0  0  0  0  0  0  0  0  0  0
  145.2933  134.0774  152.2997 H   0  0  0  0  0  0  0  0  0  0  0  0
  151.0984  131.7495  154.9053 H   0  0  0  0  0  0  0  0  0  0  0  0
  144.8864  130.4412  149.9643 H   0  0  0  0  0  0  0  0  0  0  0  0
  1  2  1  0  0  0  0
  1 31  1  0  0  0  0
  1 32  1  0  0  0  0
  1 33  1  0  0  0  0
  2  6  1  0  0  0  0
  2  3  1  0  0  0  0
  2 34  1  0  0  0  0
  3  4  1  0  0  0  0
  4  5  1  0  0  0  0
  4 35  1  0  0  0  0
  4 36  1  0  0  0  0
  5  6  1  0  0  0  0
  5 37  1  0  0  0  0
  5 38  1  0  0  0  0
  6  7  1  0  0  0  0
  6  8  1  0  0  0  0
  7 39  1  0  0  0  0
  8  9  1  0  0  0  0
  8 40  1  0  0  0  0
  8 41  1  0  0  0  0
  9 28  1  0  0  0  0
  9 10  1  0  0  0  0
 10 11  2  0  0  0  0
 10 42  1  0  0  0  0
 11 12  1  0  0  0  0
 12 28  2  0  0  0  0
 12 13  1  0  0  0  0
 13 14  1  0  0  0  0
 13 25  2  0  0  0  0
 14 23  1  0  0  0  0
 14 15  1  0  0  0  0
 15 16  1  0  0  0  0
 15 43  1  0  0  0  0
 15 44  1  0  0  0  0
 16 17  1  0  0  0  0
 16 45  1  0  0  0  0
 16 46  1  0  0  0  0
 17 29  1  0  0  0  0
 17 18  1  0  0  0  0
 17 23  1  0  0  0  0
 18 19  1  0  0  0  0
 18 20  1  0  0  0  0
 18 59  1  0  0  0  0
 19 47  1  0  0  0  0
 19 48  1  0  0  0  0
 19 49  1  0  0  0  0
 20 21  1  0  0  0  0
 20 50  1  0  0  0  0
 20 51  1  0  0  0  0
 21 22  1  0  0  0  0
 21 52  1  0  0  0  0
 21 53  1  0  0  0  0
 22 54  1  0  0  0  0
 23 30  1  0  0  0  0
 23 24  1  0  0  0  0
 24 55  1  0  0  0  0
 24 56  1  0  0  0  0
 24 57  1  0  0  0  0
 25 26  1  0  0  0  0
 26 27  2  0  0  0  0
 26 58  1  0  0  0  0
 27 28  1  0  0  0  0
M  CHG  1  18   1
M  END
> <s_m_source_file>
AV-unprocessed.smi

> <i_m_source_file_index>
290

> <i_lp_mmshare_version>
43012

> <i_f3d_flags>
0

> <s_epik_input>
W0NIMl0xW0NIMl1PW0NAQEhdKFtDSDNdKVtDQEBdMShbT0hdKVtDSDJdbihbY0hdbjIpYyhjMjMpbltjSF1uYzNONFtDSDJdW0NIMl1bQ0BIXShbQ0BIXTRbQ0gzXSlOKFtDSDNdKVtDSDJdW0NIMl1bT0hd

> <s_epik_cmdline>
J2VwaWtfcHl0aG9uJywgJy1waCcsICc3LjAnLCAnLXRuJywgJzgnLCAnLW1hJywgJzIwMCcsICctbWV0YWxfYmluZGluZycsICctaW1hZScsICc8aW5maWxlLm1hZT4nLCAnLW9tYWUnLCAnPG91dGZpbGUubWFlPic=

> <r_lp_tautomer_probability>
1

> <r_epik_Ionization_Penalty>
0.0036983

> <r_epik_Ionization_Penalty_Charging>
0.0032725

> <r_epik_Ionization_Penalty_Neutral>
0.000425798

> <r_epik_State_Penalty>
-0

> <r_epik_Charging_Adjusted_Penalty>
0.0032725

> <i_epik_Tot_Q>
1

> <i_epik_Tot_abs_Q>
1

> <r_epik_Metal_State_Penalty>
-0

> <b_epik_Metal_Only>
0

> <s_lp_Force_Field>
OPLS_2005

> <r_lp_Energy>
62.8721

> <b_lp_Chiralities_Consistent>
1

> <s_lp_Variant>
AV-unprocessed.smi:290-16

> <Gold.Version>
5.8.1

> <Gold.Id.Protein>
6NUR|6NUR_protein|mol2

> <Gold.PLP.Fitness>
48.8092

> <Gold.PLP.PLP>
-37.9465

> <Gold.PLP.part.hbond>
-5.9922

> <Gold.PLP.part.metal>
0.0000

> <Gold.PLP.part.buried>
1.4471

> <Gold.PLP.part.nonpolar>
-34.2137

> <Gold.PLP.part.repulsive>
0.5306

> <Gold.PLP.ligand.clash>
0.0000

> <Gold.PLP.ligand.torsion>
1.3582

> <Gold.PLP.Chemscore.Hbond>
4.3422

> <Gold.PLP.Chemscore.CHOScore>
0.0000

> <Gold.PLP.Chemscore.Metal>
0.0000

> <Gold.Chemscore.Hbonds>
donor molecule, donor type, donor heavy atom, donor atom, acceptor molecule, acceptor atom, score
      L1  H     7    39       P1  7949  0.44
      L1  H    22    54       P1 10186  0.69
      P1  H  7989  7998       L1     3  1.00
      P1  H 10752 10765       L1     7  1.00
      P1  H 10785 10796       L1    22  1.00

> <Gold.PLP.Chemscore.Internal.Correction>
0.5524

> <Gold.Rescore>
     Score         DG    S(hbond)    S(metal)    S(lipo)     H(rot)  DE(clash)    DE(int)     intcor
     16.13     -20.85       3.56        0.00     109.99       3.67       3.42       1.31       ----

> <Gold.Chemscore.Fitness>
16.1283

> <Gold.Chemscore.DG>
-20.8543

> <Gold.Chemscore.ZeroCoef>
-5.4800

> <Gold.Chemscore.Hbond>
3.5600

> <Gold.Chemscore.Metal>
0.0000

> <Gold.Chemscore.Lipo>
109.9869

> <Gold.Chemscore.Internal_Hbond>
0.0000

> <Gold.Chemscore.DEClash>
3.4199

> <Gold.Chemscore.DEInternal>
1.3060

> <Gold.Chemscore.Rot>
3.6658

> <Gold.Chemscore.Internal.Correction>
   9.000000E+99

> <Gold.Chemscore.Hbonds>
donor molecule, donor type, donor heavy atom, donor atom, acceptor molecule, acceptor atom, score
      L1  H     7    39       P1  7949  0.33
      L1  H    22    54       P1 10186  0.68
      P1  H  7989  7998       L1     3  0.30
      P1  H 10752 10765       L1     7  0.95
      P1  H 10785 10796       L1    22  0.28

> <Gold.Chemscore.Hbond.Weighted>
-11.8902

> <Gold.Chemscore.Metal.Weighted>
-0.0000

> <Gold.Chemscore.Lipo.Weighted>
-12.8685

> <Gold.Chemscore.Internal_Hbond.Weighted>
0.0000

> <Gold.Chemscore.DEClash.Weighted>
3.4199

> <Gold.Chemscore.DEInternal.Weighted>
1.3060

> <Gold.Chemscore.Rot.Weighted>
9.3844

> <Gold.Chemscore.Internal.Correction.Weighted>
   9.000000E+99

> <Gold.Protein.RotatedTorsions>
[ 6907 6896 6895 6894 ] final -112.33 input  -60.11 | X-H torsion
[ 7974 7965 7964 7962 ] final  -11.67 input  175.53 | X-H torsion
[ 8008 7997 7996 7995 ] final  154.63 input   59.86 | X-H torsion
[ 10167 10162 10161 10158 ] final  127.49 input  -65.29 | X-H torsion
[ 10718 10713 10712 10709 ] final -172.75 input   66.30 | X-H torsion
[ 10763 10752 10751 10750 ] final  176.35 input  -60.55 | X-H torsion
[ 11005 11000 10999 10996 ] final   65.91 input  -57.11 | X-H torsion

> <Gold.Protein.ActiveResidues>
 VAL166  LYS551  ARG553  GLY616  TRP617  ASP618  TYR619  PRO620  LYS621  CYS622 
 ASP623  PHE694  ASN695  SER759  ASP760  ASP761  ALA762  ILE779  LEU786  VAL792 
 PHE793  MET794  SER795  GLU796  ALA797  LYS798  CYS799  TRP800  GLU811  SER814 

> <Gold.Protein.RotatedAtoms>
  150.7751  133.9106  159.3368 H   0  0  0  0  0  0  0  0  0  0  0  0  # atno 6907 bound_to 6896
  151.6983  135.0933  160.0255 H   0  0  0  0  0  0  0  0  0  0  0  0  # atno 6908 bound_to 6896
  152.3783  133.6473  159.6177 H   0  0  0  0  0  0  0  0  0  0  0  0  # atno 6909 bound_to 6896
  146.2179  140.2945  142.8371 H   0  0  0  0  0  0  0  0  0  0  0  0  # atno 7974 bound_to 7965
  156.2521  140.1961  156.6676 H   0  0  0  0  0  0  0  0  0  0  0  0  # atno 8008 bound_to 7997
  154.6417  140.0583  156.9879 H   0  0  0  0  0  0  0  0  0  0  0  0  # atno 8009 bound_to 7997
  155.1552  140.3255  155.4425 H   0  0  0  0  0  0  0  0  0  0  0  0  # atno 8010 bound_to 7997
  139.5575  144.6859  151.4138 H   0  0  0  0  0  0  0  0  0  0  0  0  # atno 10167 bound_to 10162
  156.7602  130.9410  151.3117 H   0  0  0  0  0  0  0  0  0  0  0  0  # atno 10718 bound_to 10713
  154.4799  135.2774  155.1578 H   0  0  0  0  0  0  0  0  0  0  0  0  # atno 10763 bound_to 10752
  154.3293  135.6193  153.5547 H   0  0  0  0  0  0  0  0  0  0  0  0  # atno 10764 bound_to 10752
  152.9874  135.5761  154.5198 H   0  0  0  0  0  0  0  0  0  0  0  0  # atno 10765 bound_to 10752
  139.9865  134.6660  156.0167 H   0  0  0  0  0  0  0  0  0  0  0  0  # atno 11005 bound_to 11000
  144.9102  140.7748  143.5812 LP  0  0  0  0  0  0  0  0  0  0  0  0  # atno 17320 bound_to 7965
  145.2875  139.1895  143.4758 LP  0  0  0  0  0  0  0  0  0  0  0  0  # atno 17321 bound_to 7965
  140.6850  143.7993  150.7174 LP  0  0  0  0  0  0  0  0  0  0  0  0  # atno 17342 bound_to 10162
  140.1459  143.4400  152.2163 LP  0  0  0  0  0  0  0  0  0  0  0  0  # atno 17343 bound_to 10162
  157.6738  130.9075  150.0102 LP  0  0  0  0  0  0  0  0  0  0  0  0  # atno 17370 bound_to 10713
  156.1344  130.3643  149.9680 LP  0  0  0  0  0  0  0  0  0  0  0  0  # atno 17371 bound_to 10713
  141.1529  133.6546  156.4068 LP  0  0  0  0  0  0  0  0  0  0  0  0  # atno 17394 bound_to 11000
  140.4993  134.6501  157.5242 LP  0  0  0  0  0  0  0  0  0  0  0  0  # atno 17395 bound_to 11000

$$$$
