AV-unprocessed.smi:2735|AV-procd|sdf|10544|dock5
  -GOLD-   2272014593D 1   1.00000     0.00000
 Structure written by MMmdl.
 42 42  0  0  0  0  0  0  0  0  2 V2000
  154.4530  139.6055  159.6730 C   0  0  0  0  0  0  0  0  0  0  0  0
  153.7598  140.8056  160.2467 C   0  0  0  0  0  0  0  0  0  0  0  0
  153.7767  141.2773  161.5876 C   0  0  0  0  0  0  0  0  0  0  0  0
  152.9804  142.3877  161.5656 C   0  0  0  0  0  0  0  0  0  0  0  0
  152.5973  143.3057  162.6808 C   0  0  0  0  0  0  0  0  0  0  0  0
  152.5452  142.5515  160.2592 N   0  0  0  0  0  0  0  0  0  0  0  0
  151.6354  143.5601  159.7148 C   0  0  1  0  0  0  0  0  0  0  0  0
  152.1223  145.0037  159.9609 C   0  0  0  0  0  0  0  0  0  0  0  0
  151.3746  143.2863  158.2262 C   0  0  0  0  0  0  0  0  0  0  0  0
  151.6367  144.1387  157.3769 O   0  0  0  0  0  0  0  0  0  0  0  0
  150.8584  142.0829  157.9320 N   0  0  0  0  0  0  0  0  0  0  0  0
  150.5643  141.5572  156.6004 C   0  0  2  0  0  0  0  0  0  0  0  0
  149.0991  141.0694  156.4994 C   0  0  0  0  0  0  0  0  0  0  0  0
  148.6700  140.4779  155.1371 C   0  0  0  0  0  0  0  0  0  0  0  0
  148.8805  141.5053  154.0143 C   0  0  0  0  0  0  0  0  0  0  0  0
  147.2120  139.9877  155.1424 C   0  0  0  0  0  0  0  0  0  0  0  0
  151.5735  140.4530  156.2653 C   0  0  0  0  0  0  0  0  0  0  0  0
  151.5029  139.9354  155.1276 O   0  0  0  0  0  0  0  0  0  0  0  0
  152.4009  140.1434  157.1503 O   0  5  0  0  0  0  0  0  0  0  0  0
  153.0158  141.5642  159.4607 N   0  0  0  0  0  0  0  0  0  0  0  0
  150.7234  142.3439  155.8616 H   0  0  0  0  0  0  0  0  0  0  0  0
  155.0360  139.0862  160.4339 H   0  0  0  0  0  0  0  0  0  0  0  0
  155.1338  139.8913  158.8709 H   0  0  0  0  0  0  0  0  0  0  0  0
  153.7339  138.8953  159.2640 H   0  0  0  0  0  0  0  0  0  0  0  0
  154.2890  140.8579  162.4408 H   0  0  0  0  0  0  0  0  0  0  0  0
  153.1138  143.0343  163.6018 H   0  0  0  0  0  0  0  0  0  0  0  0
  151.5263  143.2577  162.8766 H   0  0  0  0  0  0  0  0  0  0  0  0
  152.8571  144.3378  162.4462 H   0  0  0  0  0  0  0  0  0  0  0  0
  150.6866  143.4608  160.2432 H   0  0  0  0  0  0  0  0  0  0  0  0
  151.3913  145.7281  159.6004 H   0  0  0  0  0  0  0  0  0  0  0  0
  153.0669  145.2142  159.4573 H   0  0  0  0  0  0  0  0  0  0  0  0
  152.2663  145.1884  161.0256 H   0  0  0  0  0  0  0  0  0  0  0  0
  150.6864  141.4477  158.6979 H   0  0  0  0  0  0  0  0  0  0  0  0
  148.9155  140.3228  157.2738 H   0  0  0  0  0  0  0  0  0  0  0  0
  148.4431  141.9069  156.7424 H   0  0  0  0  0  0  0  0  0  0  0  0
  149.3108  139.6274  154.9063 H   0  0  0  0  0  0  0  0  0  0  0  0
  148.2685  142.3944  154.1703 H   0  0  0  0  0  0  0  0  0  0  0  0
  148.6175  141.0864  153.0427 H   0  0  0  0  0  0  0  0  0  0  0  0
  149.9220  141.8234  153.9614 H   0  0  0  0  0  0  0  0  0  0  0  0
  146.5228  140.7956  155.3900 H   0  0  0  0  0  0  0  0  0  0  0  0
  147.0569  139.1854  155.8630 H   0  0  0  0  0  0  0  0  0  0  0  0
  146.9274  139.5973  154.1649 H   0  0  0  0  0  0  0  0  0  0  0  0
  1  2  1  0  0  0  0
  1 22  1  0  0  0  0
  1 23  1  0  0  0  0
  1 24  1  0  0  0  0
  2 20  2  0  0  0  0
  2  3  1  0  0  0  0
  3  4  2  0  0  0  0
  3 25  1  0  0  0  0
  4  5  1  0  0  0  0
  4  6  1  0  0  0  0
  5 26  1  0  0  0  0
  5 27  1  0  0  0  0
  5 28  1  0  0  0  0
  6  7  1  0  0  0  0
  6 20  1  0  0  0  0
  7  8  1  0  0  0  0
  7  9  1  0  0  0  0
  7 29  1  0  0  0  0
  8 30  1  0  0  0  0
  8 31  1  0  0  0  0
  8 32  1  0  0  0  0
  9 10  2  0  0  0  0
  9 11  1  0  0  0  0
 11 12  1  0  0  0  0
 11 33  1  0  0  0  0
 12 21  1  0  0  0  0
 12 13  1  0  0  0  0
 12 17  1  0  0  0  0
 13 14  1  0  0  0  0
 13 34  1  0  0  0  0
 13 35  1  0  0  0  0
 14 15  1  0  0  0  0
 14 16  1  0  0  0  0
 14 36  1  0  0  0  0
 15 37  1  0  0  0  0
 15 38  1  0  0  0  0
 15 39  1  0  0  0  0
 16 40  1  0  0  0  0
 16 41  1  0  0  0  0
 16 42  1  0  0  0  0
 17 18  2  0  0  0  0
 17 19  1  0  0  0  0
M  CHG  1  19  -1
M  END
> <s_m_source_file>
AV-unprocessed.smi

> <i_m_source_file_index>
2735

> <i_lp_mmshare_version>
43012

> <i_f3d_flags>
0

> <s_epik_input>
W0NIM11jMVtjSF1jKFtDSDNdKW4objEpW0NASF0oW0NIM10pQyg9TylbTkhdW0NASF0oQyg9TylbT0hdKVtDSDJdW0NIXShbQ0gzXSlbQ0gzXQ==

> <s_epik_cmdline>
J2VwaWtfcHl0aG9uJywgJy1waCcsICc3LjAnLCAnLXRuJywgJzgnLCAnLW1hJywgJzIwMCcsICctbWV0YWxfYmluZGluZycsICctaW1hZScsICc8aW5maWxlLm1hZT4nLCAnLW9tYWUnLCAnPG91dGZpbGUubWFlPic=

> <r_lp_tautomer_probability>
1

> <r_epik_Ionization_Penalty>
0.0012303

> <r_epik_Ionization_Penalty_Charging>
0.000186407

> <r_epik_Ionization_Penalty_Neutral>
0.0010439

> <r_epik_State_Penalty>
-0

> <r_epik_Charging_Adjusted_Penalty>
0.000186407

> <i_epik_Tot_Q>
-1

> <i_epik_Tot_abs_Q>
1

> <r_epik_Metal_State_Penalty>
-0

> <b_epik_Metal_Only>
0

> <s_lp_Force_Field>
OPLS_2005

> <r_lp_Energy>
6.63837

> <b_lp_Chiralities_Consistent>
1

> <s_lp_Variant>
AV-unprocessed.smi:2735-4

> <Gold.Version>
5.8.1

> <Gold.Id.Protein>
6NUR|6NUR_protein|mol2

> <Gold.PLP.Fitness>
52.3339

> <Gold.PLP.PLP>
-43.4721

> <Gold.PLP.part.hbond>
-2.0000

> <Gold.PLP.part.metal>
0.0000

> <Gold.PLP.part.buried>
-4.0688

> <Gold.PLP.part.nonpolar>
-36.5215

> <Gold.PLP.part.repulsive>
0.2171

> <Gold.PLP.ligand.clash>
0.0000

> <Gold.PLP.ligand.torsion>
0.1466

> <Gold.PLP.Chemscore.Hbond>
3.0000

> <Gold.PLP.Chemscore.CHOScore>
0.0000

> <Gold.PLP.Chemscore.Metal>
0.0000

> <Gold.Chemscore.Hbonds>
donor molecule, donor type, donor heavy atom, donor atom, acceptor molecule, acceptor atom, score
      P1  H  7989  7998       L1    18  1.00
      P1  H  7997  8008       L1    19  1.98

> <Gold.PLP.Chemscore.Internal.Correction>
0.1550

> <Gold.Rescore>
     Score         DG    S(hbond)    S(metal)    S(lipo)     H(rot)  DE(clash)    DE(int)     intcor
     13.40     -17.69       1.94        0.00      97.88       2.24       0.14       4.15       ----

> <Gold.Chemscore.Fitness>
13.4002

> <Gold.Chemscore.DG>
-17.6863

> <Gold.Chemscore.ZeroCoef>
-5.4800

> <Gold.Chemscore.Hbond>
1.9419

> <Gold.Chemscore.Metal>
0.0000

> <Gold.Chemscore.Lipo>
97.8780

> <Gold.Chemscore.Internal_Hbond>
0.0000

> <Gold.Chemscore.DEClash>
0.1356

> <Gold.Chemscore.DEInternal>
4.1506

> <Gold.Chemscore.Rot>
2.2388

> <Gold.Chemscore.Internal.Correction>
   9.000000E+99

> <Gold.Chemscore.Hbonds>
donor molecule, donor type, donor heavy atom, donor atom, acceptor molecule, acceptor atom, score
      P1  H  7989  7998       L1    18  0.98
      P1  H  7997  8008       L1    19  0.84

> <Gold.Chemscore.Hbond.Weighted>
-6.4860

> <Gold.Chemscore.Metal.Weighted>
-0.0000

> <Gold.Chemscore.Lipo.Weighted>
-11.4517

> <Gold.Chemscore.Internal_Hbond.Weighted>
0.0000

> <Gold.Chemscore.DEClash.Weighted>
0.1356

> <Gold.Chemscore.DEInternal.Weighted>
4.1506

> <Gold.Chemscore.Rot.Weighted>
5.7314

> <Gold.Chemscore.Internal.Correction.Weighted>
   9.000000E+99

> <Gold.Protein.RotatedTorsions>
[ 6907 6896 6895 6894 ] final  -97.73 input  -60.11 | X-H torsion
[ 7974 7965 7964 7962 ] final -101.93 input  175.53 | X-H torsion
[ 8008 7997 7996 7995 ] final  -55.64 input   59.86 | X-H torsion
[ 10167 10162 10161 10158 ] final   36.65 input  -65.29 | X-H torsion
[ 10718 10713 10712 10709 ] final   71.22 input   66.30 | X-H torsion
[ 10763 10752 10751 10750 ] final    5.96 input  -60.55 | X-H torsion
[ 11005 11000 10999 10996 ] final -122.55 input  -57.11 | X-H torsion

> <Gold.Protein.ActiveResidues>
 VAL166  LYS551  ARG553  GLY616  TRP617  ASP618  TYR619  PRO620  LYS621  CYS622 
 ASP623  PHE694  ASN695  SER759  ASP760  ASP761  ALA762  ILE779  LEU786  VAL792 
 PHE793  MET794  SER795  GLU796  ALA797  LYS798  CYS799  TRP800  GLU811  SER814 

> <Gold.Protein.RotatedAtoms>
  150.7025  134.1303  159.4066 H   0  0  0  0  0  0  0  0  0  0  0  0  # atno 6907 bound_to 6896
  151.9288  135.0263  160.0537 H   0  0  0  0  0  0  0  0  0  0  0  0  # atno 6908 bound_to 6896
  152.2193  133.4936  159.5190 H   0  0  0  0  0  0  0  0  0  0  0  0  # atno 6909 bound_to 6896
  145.2752  140.9310  143.2963 H   0  0  0  0  0  0  0  0  0  0  0  0  # atno 7974 bound_to 7965
  154.4202  140.1148  156.5510 H   0  0  0  0  0  0  0  0  0  0  0  0  # atno 8008 bound_to 7997
  155.6410  140.3496  155.4696 H   0  0  0  0  0  0  0  0  0  0  0  0  # atno 8009 bound_to 7997
  155.9871  140.1172  157.0663 H   0  0  0  0  0  0  0  0  0  0  0  0  # atno 8010 bound_to 7997
  140.4108  144.1595  150.6139 H   0  0  0  0  0  0  0  0  0  0  0  0  # atno 10167 bound_to 10162
  157.6440  130.9517  150.0759 H   0  0  0  0  0  0  0  0  0  0  0  0  # atno 10718 bound_to 10713
  153.2533  135.6916  153.7656 H   0  0  0  0  0  0  0  0  0  0  0  0  # atno 10763 bound_to 10752
  153.6742  135.3339  155.3162 H   0  0  0  0  0  0  0  0  0  0  0  0  # atno 10764 bound_to 10752
  154.8402  135.4507  154.1498 H   0  0  0  0  0  0  0  0  0  0  0  0  # atno 10765 bound_to 10752
  140.9986  134.0435  157.3566 H   0  0  0  0  0  0  0  0  0  0  0  0  # atno 11005 bound_to 11000
  144.9300  139.4309  143.6499 LP  0  0  0  0  0  0  0  0  0  0  0  0  # atno 17320 bound_to 7965
  146.3234  139.8206  142.8927 LP  0  0  0  0  0  0  0  0  0  0  0  0  # atno 17321 bound_to 7965
  140.4640  143.2438  151.9181 LP  0  0  0  0  0  0  0  0  0  0  0  0  # atno 17342 bound_to 10162
  139.4782  144.5438  151.8488 LP  0  0  0  0  0  0  0  0  0  0  0  0  # atno 17343 bound_to 10162
  156.1749  130.3648  149.9114 LP  0  0  0  0  0  0  0  0  0  0  0  0  # atno 17370 bound_to 10713
  156.7080  130.8959  151.3606 LP  0  0  0  0  0  0  0  0  0  0  0  0  # atno 17371 bound_to 10713
  139.9027  135.0170  156.7345 LP  0  0  0  0  0  0  0  0  0  0  0  0  # atno 17394 bound_to 11000
  140.6925  133.9377  155.7975 LP  0  0  0  0  0  0  0  0  0  0  0  0  # atno 17395 bound_to 11000

$$$$
