AV-unprocessed.smi:1403|AV-procd|sdf|5702|dock2
  -GOLD-   22720 5333D 1   1.00000     0.00000
 Structure written by MMmdl.
 35 36  0  0  0  0  0  0  0  0  2 V2000
  146.4853  129.2878  150.5101 C   0  0  0  0  0  0  0  0  0  0  0  0
  146.8261  130.4488  151.4592 C   0  0  1  0  0  0  0  0  0  0  0  0
  148.2620  130.4668  151.7269 N   0  0  0  0  0  0  0  0  0  0  0  0
  148.8661  129.8938  152.7789 C   0  0  0  0  0  0  0  0  0  0  0  0
  148.2569  129.2927  153.6646 O   0  0  0  0  0  0  0  0  0  0  0  0
  150.3906  130.0513  152.8497 C   0  0  0  0  0  0  0  0  0  0  0  0
  150.8419  130.6399  154.1206 N   0  0  0  0  0  0  0  0  0  0  0  0
  149.8858  131.2963  154.9156 C   0  0  0  0  0  0  0  0  0  0  0  0
  150.2095  131.8616  156.0943 C   0  0  0  0  0  0  0  0  0  0  0  0
  151.5945  131.7811  156.5414 C   0  0  0  0  0  0  0  0  0  0  0  0
  151.9096  132.2976  157.6119 O   0  0  0  0  0  0  0  0  0  0  0  0
  152.4839  131.1279  155.7375 N   0  5  0  0  0  0  0  0  0  0  0  0
  152.1401  130.5555  154.5420 C   0  0  0  0  0  0  0  0  0  0  0  0
  152.9585  129.9695  153.8322 O   0  0  0  0  0  0  0  0  0  0  0  0
  146.3875  131.8075  150.8806 C   0  0  2  0  0  0  0  0  0  0  0  0
  146.5770  132.9987  151.8242 C   0  0  0  0  0  0  0  0  0  0  0  0
  145.5056  133.9874  151.3871 C   0  0  0  0  0  0  0  0  0  0  0  0
  144.6203  133.1840  150.4317 C   0  0  0  0  0  0  0  0  0  0  0  0
  144.9876  131.8300  150.6486 O   0  0  0  0  0  0  0  0  0  0  0  0
  145.4144  129.2443  150.3098 H   0  0  0  0  0  0  0  0  0  0  0  0
  146.7754  128.3279  150.9385 H   0  0  0  0  0  0  0  0  0  0  0  0
  146.9985  129.3931  149.5537 H   0  0  0  0  0  0  0  0  0  0  0  0
  146.2933  130.2957  152.3997 H   0  0  0  0  0  0  0  0  0  0  0  0
  148.8441  130.9400  151.0512 H   0  0  0  0  0  0  0  0  0  0  0  0
  150.8746  129.0856  152.6918 H   0  0  0  0  0  0  0  0  0  0  0  0
  150.7060  130.6701  152.0087 H   0  0  0  0  0  0  0  0  0  0  0  0
  148.8827  131.3056  154.5154 H   0  0  0  0  0  0  0  0  0  0  0  0
  149.4626  132.3596  156.6950 H   0  0  0  0  0  0  0  0  0  0  0  0
  146.9020  132.0019  149.9373 H   0  0  0  0  0  0  0  0  0  0  0  0
  146.3933  132.6973  152.8564 H   0  0  0  0  0  0  0  0  0  0  0  0
  147.5831  133.4157  151.7722 H   0  0  0  0  0  0  0  0  0  0  0  0
  144.9400  134.3431  152.2489 H   0  0  0  0  0  0  0  0  0  0  0  0
  145.9332  134.8556  150.8843 H   0  0  0  0  0  0  0  0  0  0  0  0
  143.5566  133.3404  150.6123 H   0  0  0  0  0  0  0  0  0  0  0  0
  144.8330  133.4506  149.3953 H   0  0  0  0  0  0  0  0  0  0  0  0
  1  2  1  0  0  0  0
  1 20  1  0  0  0  0
  1 21  1  0  0  0  0
  1 22  1  0  0  0  0
  2  3  1  0  0  0  0
  2 15  1  0  0  0  0
  2 23  1  0  0  0  0
  3  4  1  0  0  0  0
  3 24  1  0  0  0  0
  4  5  2  0  0  0  0
  4  6  1  0  0  0  0
  6  7  1  0  0  0  0
  6 25  1  0  0  0  0
  6 26  1  0  0  0  0
  7 13  1  0  0  0  0
  7  8  1  0  0  0  0
  8  9  2  0  0  0  0
  8 27  1  0  0  0  0
  9 10  1  0  0  0  0
  9 28  1  0  0  0  0
 10 11  2  0  0  0  0
 10 12  1  0  0  0  0
 12 13  1  0  0  0  0
 13 14  2  0  0  0  0
 15 19  1  0  0  0  0
 15 16  1  0  0  0  0
 15 29  1  0  0  0  0
 16 17  1  0  0  0  0
 16 30  1  0  0  0  0
 16 31  1  0  0  0  0
 17 18  1  0  0  0  0
 17 32  1  0  0  0  0
 17 33  1  0  0  0  0
 18 19  1  0  0  0  0
 18 34  1  0  0  0  0
 18 35  1  0  0  0  0
M  CHG  1  12  -1
M  END
> <s_m_source_file>
AV-unprocessed.smi

> <i_m_source_file_index>
1403

> <i_lp_mmshare_version>
43012

> <i_f3d_flags>
0

> <s_epik_input>
TzFbQ0gyXVtDSDJdW0NIMl1bQ0BIXTFbQ0BIXShbQ0gzXSlbTkhdQyg9TylbQ0gyXW4yW2NIXVtjSF1jKD1PKVtuSF1jMj1P

> <s_epik_cmdline>
J2VwaWtfcHl0aG9uJywgJy1waCcsICc3LjAnLCAnLXRuJywgJzgnLCAnLW1hJywgJzIwMCcsICctbWV0YWxfYmluZGluZycsICctaW1hZScsICc8aW5maWxlLm1hZT4nLCAnLW9tYWUnLCAnPG91dGZpbGUubWFlPic=

> <r_lp_tautomer_probability>
0.999537

> <r_epik_Ionization_Penalty>
3.07438

> <r_epik_Ionization_Penalty_Charging>
2.82466e-08

> <r_epik_Ionization_Penalty_Neutral>
3.07438

> <r_epik_State_Penalty>
3.07341

> <r_epik_Charging_Adjusted_Penalty>
3.07341

> <i_epik_Tot_Q>
-1

> <i_epik_Tot_abs_Q>
1

> <r_epik_Metal_State_Penalty>
0.45947

> <b_epik_Metal_Only>
1

> <s_lp_Force_Field>
OPLS_2005

> <r_lp_Energy>
26.8934

> <b_lp_Chiralities_Consistent>
1

> <s_lp_Variant>
AV-unprocessed.smi:1403-6

> <Gold.Version>
5.8.1

> <Gold.Id.Protein>
6NUR|6NUR_protein|mol2

> <Gold.PLP.Fitness>
36.2913

> <Gold.PLP.PLP>
-31.4547

> <Gold.PLP.part.hbond>
-2.0000

> <Gold.PLP.part.metal>
0.0000

> <Gold.PLP.part.buried>
-4.8690

> <Gold.PLP.part.nonpolar>
-24.2370

> <Gold.PLP.part.repulsive>
0.2667

> <Gold.PLP.ligand.clash>
0.0000

> <Gold.PLP.ligand.torsion>
0.6024

> <Gold.PLP.Chemscore.Hbond>
2.0000

> <Gold.PLP.Chemscore.CHOScore>
0.0000

> <Gold.PLP.Chemscore.Metal>
0.0000

> <Gold.Chemscore.Hbonds>
donor molecule, donor type, donor heavy atom, donor atom, acceptor molecule, acceptor atom, score
      P1  H  6896  6907       L1    11  1.00

> <Gold.PLP.Chemscore.Internal.Correction>
0.0415

> <Gold.Rescore>
     Score         DG    S(hbond)    S(metal)    S(lipo)     H(rot)  DE(clash)    DE(int)     intcor
     11.93     -14.05       1.95        0.00      61.22       1.99       0.06       2.06       ----

> <Gold.Chemscore.Fitness>
11.9341

> <Gold.Chemscore.DG>
-14.0538

> <Gold.Chemscore.ZeroCoef>
-5.4800

> <Gold.Chemscore.Hbond>
1.9510

> <Gold.Chemscore.Metal>
0.0000

> <Gold.Chemscore.Lipo>
61.2159

> <Gold.Chemscore.Internal_Hbond>
0.0000

> <Gold.Chemscore.DEClash>
0.0563

> <Gold.Chemscore.DEInternal>
2.0634

> <Gold.Chemscore.Rot>
1.9940

> <Gold.Chemscore.Internal.Correction>
   9.000000E+99

> <Gold.Chemscore.Hbonds>
donor molecule, donor type, donor heavy atom, donor atom, acceptor molecule, acceptor atom, score
      P1  H  6896  6907       L1    11  0.98

> <Gold.Chemscore.Hbond.Weighted>
-6.5163

> <Gold.Chemscore.Metal.Weighted>
-0.0000

> <Gold.Chemscore.Lipo.Weighted>
-7.1623

> <Gold.Chemscore.Internal_Hbond.Weighted>
0.0000

> <Gold.Chemscore.DEClash.Weighted>
0.0563

> <Gold.Chemscore.DEInternal.Weighted>
2.0634

> <Gold.Chemscore.Rot.Weighted>
5.1047

> <Gold.Chemscore.Internal.Correction.Weighted>
   9.000000E+99

> <Gold.Protein.RotatedTorsions>
[ 6907 6896 6895 6894 ] final  172.31 input  -60.11 | X-H torsion
[ 7974 7965 7964 7962 ] final -132.86 input  175.53 | X-H torsion
[ 8008 7997 7996 7995 ] final -115.85 input   59.86 | X-H torsion
[ 10167 10162 10161 10158 ] final   72.65 input  -65.29 | X-H torsion
[ 10718 10713 10712 10709 ] final  -36.40 input   66.30 | X-H torsion
[ 10763 10752 10751 10750 ] final   70.93 input  -60.55 | X-H torsion
[ 11005 11000 10999 10996 ] final  -33.95 input  -57.11 | X-H torsion

> <Gold.Protein.ActiveResidues>
 VAL166  LYS551  ARG553  GLY616  TRP617  ASP618  TYR619  PRO620  LYS621  CYS622 
 ASP623  PHE694  ASN695  SER759  ASP760  ASP761  ALA762  ILE779  LEU786  VAL792 
 PHE793  MET794  SER795  GLU796  ALA797  LYS798  CYS799  TRP800  GLU811  SER814 

> <Gold.Protein.RotatedAtoms>
  151.7863  133.3354  159.3485 H   0  0  0  0  0  0  0  0  0  0  0  0  # atno 6907 bound_to 6896
  150.7408  134.5884  159.5984 H   0  0  0  0  0  0  0  0  0  0  0  0  # atno 6908 bound_to 6896
  152.3241  134.7344  160.0357 H   0  0  0  0  0  0  0  0  0  0  0  0  # atno 6909 bound_to 6896
  144.9246  140.7055  143.4944 H   0  0  0  0  0  0  0  0  0  0  0  0  # atno 7974 bound_to 7965
  155.0585  140.0393  157.2568 H   0  0  0  0  0  0  0  0  0  0  0  0  # atno 8008 bound_to 7997
  154.7079  140.2686  155.6633 H   0  0  0  0  0  0  0  0  0  0  0  0  # atno 8009 bound_to 7997
  156.2780  140.2727  156.1711 H   0  0  0  0  0  0  0  0  0  0  0  0  # atno 8010 bound_to 7997
  140.0330  144.5450  150.7492 H   0  0  0  0  0  0  0  0  0  0  0  0  # atno 10167 bound_to 10162
  156.3273  130.4274  149.7904 H   0  0  0  0  0  0  0  0  0  0  0  0  # atno 10718 bound_to 10713
  153.0369  135.5155  154.7516 H   0  0  0  0  0  0  0  0  0  0  0  0  # atno 10763 bound_to 10752
  154.6485  135.2922  155.0019 H   0  0  0  0  0  0  0  0  0  0  0  0  # atno 10764 bound_to 10752
  154.0912  135.6650  153.4905 H   0  0  0  0  0  0  0  0  0  0  0  0  # atno 10765 bound_to 10752
  140.9677  133.7127  156.1472 H   0  0  0  0  0  0  0  0  0  0  0  0  # atno 11005 bound_to 11000
  145.3240  139.1779  143.4572 LP  0  0  0  0  0  0  0  0  0  0  0  0  # atno 17320 bound_to 7965
  146.3220  140.3261  142.8637 LP  0  0  0  0  0  0  0  0  0  0  0  0  # atno 17321 bound_to 7965
  140.7293  143.2671  151.4007 LP  0  0  0  0  0  0  0  0  0  0  0  0  # atno 17342 bound_to 10162
  139.6063  144.1190  152.2253 LP  0  0  0  0  0  0  0  0  0  0  0  0  # atno 17343 bound_to 10162
  156.5190  130.8206  151.3196 LP  0  0  0  0  0  0  0  0  0  0  0  0  # atno 17370 bound_to 10713
  157.7424  130.9889  150.2512 LP  0  0  0  0  0  0  0  0  0  0  0  0  # atno 17371 bound_to 10713
  140.7375  134.4187  157.5559 LP  0  0  0  0  0  0  0  0  0  0  0  0  # atno 17394 bound_to 11000
  139.8900  134.8815  156.2390 LP  0  0  0  0  0  0  0  0  0  0  0  0  # atno 17395 bound_to 11000

$$$$
