AV-unprocessed.smi:3044|AV-procd|sdf|11606|dock8
  -GOLD-   2272016583D 1   1.00000     0.00000
 Structure written by MMmdl.
 41 42  0  0  0  0  0  0  0  0  1 V2000
  151.3817  141.9166  156.5223 C   0  0  0  0  0  0  0  0  0  0  0  0
  151.4625  140.5152  155.9415 C   0  0  0  0  0  0  0  0  0  0  0  0
  150.8808  140.3560  154.7316 N   0  0  0  0  0  0  0  0  0  0  0  0
  150.9211  139.1350  154.1590 C   0  0  0  0  0  0  0  0  0  0  0  0
  151.5456  138.0241  154.7559 C   0  0  0  0  0  0  0  0  0  0  0  0
  152.1495  138.1906  156.0162 C   0  0  0  0  0  0  0  0  0  0  0  0
  152.1010  139.4608  156.6403 C   0  0  0  0  0  0  0  0  0  0  0  0
  152.6956  139.7292  157.9042 N   0  0  0  0  0  0  0  0  0  0  0  0
  153.5345  138.9544  158.6159 C   0  0  0  0  0  0  0  0  0  0  0  0
  153.9574  137.8571  158.2541 O   0  0  0  0  0  0  0  0  0  0  0  0
  153.9544  139.5125  159.9790 C   0  0  0  0  0  0  0  0  0  0  0  0
  154.2157  140.9117  159.8988 O   0  0  0  0  0  0  0  0  0  0  0  0
  153.1030  141.7676  160.1482 C   0  0  1  0  0  0  0  0  0  0  0  0
  153.3546  142.4998  161.4764 C   0  0  0  0  0  0  0  0  0  0  0  0
  152.2528  143.5326  161.7583 C   0  0  0  0  0  0  0  0  0  0  0  0
  152.1183  144.5319  160.5981 C   0  0  0  0  0  0  0  0  0  0  0  0
  151.8640  143.8127  159.2592 C   0  0  1  0  0  0  0  0  0  0  0  0
  151.7389  144.8100  158.0985 C   0  0  0  0  0  0  0  0  0  0  0  0
  152.9671  142.7716  158.9880 C   0  0  0  0  0  0  0  0  0  0  0  0
  150.7984  141.9127  157.4425 H   0  0  0  0  0  0  0  0  0  0  0  0
  150.9087  142.6119  155.8278 H   0  0  0  0  0  0  0  0  0  0  0  0
  152.3793  142.2945  156.7470 H   0  0  0  0  0  0  0  0  0  0  0  0
  150.4472  139.0425  153.1929 H   0  0  0  0  0  0  0  0  0  0  0  0
  151.5649  137.0669  154.2562 H   0  0  0  0  0  0  0  0  0  0  0  0
  152.6487  137.3490  156.4711 H   0  0  0  0  0  0  0  0  0  0  0  0
  152.3697  140.5641  158.3697 H   0  0  0  0  0  0  0  0  0  0  0  0
  153.1974  139.3049  160.7371 H   0  0  0  0  0  0  0  0  0  0  0  0
  154.8669  139.0067  160.2955 H   0  0  0  0  0  0  0  0  0  0  0  0
  152.1742  141.2003  160.2388 H   0  0  0  0  0  0  0  0  0  0  0  0
  153.4067  141.7800  162.2938 H   0  0  0  0  0  0  0  0  0  0  0  0
  154.3225  143.0015  161.4428 H   0  0  0  0  0  0  0  0  0  0  0  0
  151.3022  143.0203  161.9124 H   0  0  0  0  0  0  0  0  0  0  0  0
  152.4710  144.0652  162.6844 H   0  0  0  0  0  0  0  0  0  0  0  0
  151.3058  145.2285  160.8085 H   0  0  0  0  0  0  0  0  0  0  0  0
  153.0273  145.1309  160.5281 H   0  0  0  0  0  0  0  0  0  0  0  0
  150.9143  143.2817  159.3388 H   0  0  0  0  0  0  0  0  0  0  0  0
  152.6627  145.3718  157.9571 H   0  0  0  0  0  0  0  0  0  0  0  0
  150.9381  145.5270  158.2811 H   0  0  0  0  0  0  0  0  0  0  0  0
  151.5143  144.2969  157.1628 H   0  0  0  0  0  0  0  0  0  0  0  0
  153.9202  143.2781  158.8305 H   0  0  0  0  0  0  0  0  0  0  0  0
  152.7439  142.2391  158.0638 H   0  0  0  0  0  0  0  0  0  0  0  0
  1  2  1  0  0  0  0
  1 20  1  0  0  0  0
  1 21  1  0  0  0  0
  1 22  1  0  0  0  0
  2  7  1  0  0  0  0
  2  3  2  0  0  0  0
  3  4  1  0  0  0  0
  4  5  2  0  0  0  0
  4 23  1  0  0  0  0
  5  6  1  0  0  0  0
  5 24  1  0  0  0  0
  6  7  2  0  0  0  0
  6 25  1  0  0  0  0
  7  8  1  0  0  0  0
  8  9  1  0  0  0  0
  8 26  1  0  0  0  0
  9 10  2  0  0  0  0
  9 11  1  0  0  0  0
 11 12  1  0  0  0  0
 11 27  1  0  0  0  0
 11 28  1  0  0  0  0
 12 13  1  0  0  0  0
 13 19  1  0  0  0  0
 13 14  1  0  0  0  0
 13 29  1  0  0  0  0
 14 15  1  0  0  0  0
 14 30  1  0  0  0  0
 14 31  1  0  0  0  0
 15 16  1  0  0  0  0
 15 32  1  0  0  0  0
 15 33  1  0  0  0  0
 16 17  1  0  0  0  0
 16 34  1  0  0  0  0
 16 35  1  0  0  0  0
 17 18  1  0  0  0  0
 17 19  1  0  0  0  0
 17 36  1  0  0  0  0
 18 37  1  0  0  0  0
 18 38  1  0  0  0  0
 18 39  1  0  0  0  0
 19 40  1  0  0  0  0
 19 41  1  0  0  0  0
M  END
> <s_m_source_file>
AV-unprocessed.smi

> <i_m_source_file_index>
3044

> <i_lp_mmshare_version>
43012

> <i_f3d_flags>
0

> <s_epik_input>
W0NIM11jMW5bY0hdW2NIXVtjSF1jMVtOSF1DKD1PKVtDSDJdT1tDQEBIXTJbQ0gyXVtDSDJdW0NIMl1bQ0BASF0oW0NIM10pW0NIMl0y

> <s_epik_cmdline>
J2VwaWtfcHl0aG9uJywgJy1waCcsICc3LjAnLCAnLXRuJywgJzgnLCAnLW1hJywgJzIwMCcsICctbWV0YWxfYmluZGluZycsICctaW1hZScsICc8aW5maWxlLm1hZT4nLCAnLW9tYWUnLCAnPG91dGZpbGUubWFlPic=

> <r_epik_Ionization_Penalty>
0.0077122

> <r_epik_Ionization_Penalty_Charging>
0

> <r_epik_Ionization_Penalty_Neutral>
0.0077122

> <r_epik_State_Penalty>
0.00577497

> <r_epik_Charging_Adjusted_Penalty>
0.00577497

> <i_epik_Tot_Q>
0

> <i_epik_Tot_abs_Q>
0

> <r_epik_Metal_State_Penalty>
-0

> <b_epik_Metal_Only>
0

> <s_lp_Force_Field>
OPLS_2005

> <r_lp_Energy>
17.5643

> <b_lp_Chiralities_Consistent>
1

> <s_lp_Variant>
AV-unprocessed.smi:3044-2

> <Gold.Version>
5.8.1

> <Gold.Id.Protein>
6NUR|6NUR_protein|mol2

> <Gold.PLP.Fitness>
47.2644

> <Gold.PLP.PLP>
-44.2664

> <Gold.PLP.part.hbond>
-1.0000

> <Gold.PLP.part.metal>
0.0000

> <Gold.PLP.part.buried>
-6.7718

> <Gold.PLP.part.nonpolar>
-35.9764

> <Gold.PLP.part.repulsive>
0.1585

> <Gold.PLP.ligand.clash>
0.0000

> <Gold.PLP.ligand.torsion>
1.2050

> <Gold.PLP.Chemscore.Hbond>
0.8000

> <Gold.PLP.Chemscore.CHOScore>
1.0000

> <Gold.PLP.Chemscore.Metal>
0.0000

> <Gold.Chemscore.Hbonds>
donor molecule, donor type, donor heavy atom, donor atom, acceptor molecule, acceptor atom, score
      P1  H  7989  7998       L1     3  0.35
      L1  C     4    23       P1  7957  1.00

> <Gold.PLP.Chemscore.Internal.Correction>
0.0081

> <Gold.Rescore>
     Score         DG    S(hbond)    S(metal)    S(lipo)     H(rot)  DE(clash)    DE(int)     intcor
     16.42     -19.16       0.65        0.00     126.99       1.31       0.22       2.51       ----

> <Gold.Chemscore.Fitness>
16.4208

> <Gold.Chemscore.DG>
-19.1560

> <Gold.Chemscore.ZeroCoef>
-5.4800

> <Gold.Chemscore.Hbond>
0.6473

> <Gold.Chemscore.Metal>
0.0000

> <Gold.Chemscore.Lipo>
126.9940

> <Gold.Chemscore.Internal_Hbond>
0.0000

> <Gold.Chemscore.DEClash>
0.2243

> <Gold.Chemscore.DEInternal>
2.5109

> <Gold.Chemscore.Rot>
1.3064

> <Gold.Chemscore.Internal.Correction>
   9.000000E+99

> <Gold.Chemscore.Hbonds>
donor molecule, donor type, donor heavy atom, donor atom, acceptor molecule, acceptor atom, score
      P1  H  7989  7998       L1     3  0.01

> <Gold.Chemscore.Hbond.Weighted>
-2.1620

> <Gold.Chemscore.Metal.Weighted>
-0.0000

> <Gold.Chemscore.Lipo.Weighted>
-14.8583

> <Gold.Chemscore.Internal_Hbond.Weighted>
0.0000

> <Gold.Chemscore.DEClash.Weighted>
0.2243

> <Gold.Chemscore.DEInternal.Weighted>
2.5109

> <Gold.Chemscore.Rot.Weighted>
3.3443

> <Gold.Chemscore.Internal.Correction.Weighted>
   9.000000E+99

> <Gold.Protein.RotatedTorsions>
[ 6907 6896 6895 6894 ] final -162.90 input  -60.11 | X-H torsion
[ 7974 7965 7964 7962 ] final  -11.59 input  175.53 | X-H torsion
[ 8008 7997 7996 7995 ] final  103.09 input   59.86 | X-H torsion
[ 10167 10162 10161 10158 ] final   -2.47 input  -65.29 | X-H torsion
[ 10718 10713 10712 10709 ] final -177.74 input   66.30 | X-H torsion
[ 10763 10752 10751 10750 ] final   29.60 input  -60.55 | X-H torsion
[ 11005 11000 10999 10996 ] final   91.25 input  -57.11 | X-H torsion

> <Gold.Protein.ActiveResidues>
 VAL166  LYS551  ARG553  GLY616  TRP617  ASP618  TYR619  PRO620  LYS621  CYS622 
 ASP623  PHE694  ASN695  SER759  ASP760  ASP761  ALA762  ILE779  LEU786  VAL792 
 PHE793  MET794  SER795  GLU796  ALA797  LYS798  CYS799  TRP800  GLU811  SER814 

> <Gold.Protein.RotatedAtoms>
  151.3875  133.3800  159.2716 H   0  0  0  0  0  0  0  0  0  0  0  0  # atno 6907 bound_to 6896
  150.9530  134.8929  159.7694 H   0  0  0  0  0  0  0  0  0  0  0  0  # atno 6908 bound_to 6896
  152.5119  134.3831  159.9410 H   0  0  0  0  0  0  0  0  0  0  0  0  # atno 6909 bound_to 6896
  146.2182  140.2933  142.8370 H   0  0  0  0  0  0  0  0  0  0  0  0  # atno 7974 bound_to 7965
  156.1453  140.3170  155.8560 H   0  0  0  0  0  0  0  0  0  0  0  0  # atno 8008 bound_to 7997
  155.4076  140.0504  157.3050 H   0  0  0  0  0  0  0  0  0  0  0  0  # atno 8009 bound_to 7997
  154.5011  140.2129  155.9357 H   0  0  0  0  0  0  0  0  0  0  0  0  # atno 8010 bound_to 7997
  140.6852  143.6653  150.8231 H   0  0  0  0  0  0  0  0  0  0  0  0  # atno 10167 bound_to 10162
  156.8340  130.9663  151.3104 H   0  0  0  0  0  0  0  0  0  0  0  0  # atno 10718 bound_to 10713
  153.0421  135.6485  154.0915 H   0  0  0  0  0  0  0  0  0  0  0  0  # atno 10763 bound_to 10752
  154.0620  135.2887  155.3324 H   0  0  0  0  0  0  0  0  0  0  0  0  # atno 10764 bound_to 10752
  154.6651  135.5377  153.8132 H   0  0  0  0  0  0  0  0  0  0  0  0  # atno 10765 bound_to 10752
  139.8842  134.8663  156.3401 H   0  0  0  0  0  0  0  0  0  0  0  0  # atno 11005 bound_to 11000
  144.9110  140.7758  143.5807 LP  0  0  0  0  0  0  0  0  0  0  0  0  # atno 17320 bound_to 7965
  145.2864  139.1899  143.4763 LP  0  0  0  0  0  0  0  0  0  0  0  0  # atno 17321 bound_to 7965
  140.0359  143.5396  152.2739 LP  0  0  0  0  0  0  0  0  0  0  0  0  # atno 17342 bound_to 10162
  139.6205  144.7628  151.2750 LP  0  0  0  0  0  0  0  0  0  0  0  0  # atno 17343 bound_to 10162
  157.6391  130.8791  149.9415 LP  0  0  0  0  0  0  0  0  0  0  0  0  # atno 17370 bound_to 10713
  156.0918  130.3663  150.0381 LP  0  0  0  0  0  0  0  0  0  0  0  0  # atno 17371 bound_to 10713
  140.9665  133.7355  156.0473 LP  0  0  0  0  0  0  0  0  0  0  0  0  # atno 17394 bound_to 11000
  140.7925  134.3601  157.5461 LP  0  0  0  0  0  0  0  0  0  0  0  0  # atno 17395 bound_to 11000

$$$$
