AV-unprocessed.smi:1003|AV-procd|sdf|4360|dock4
  -GOLD-   22720 2263D 1   1.00000     0.00000
 Structure written by MMmdl.
 43 44  0  0  0  0  0  0  0  0  1 V2000
  144.8250  144.3400  158.3412 C   0  0  0  0  0  0  0  0  0  0  0  0
  144.6503  142.9361  157.7513 C   0  0  0  0  0  0  0  0  0  0  0  0
  145.2197  142.8265  156.3674 C   0  0  0  0  0  0  0  0  0  0  0  0
  146.2263  141.8900  156.1131 N   0  0  0  0  0  0  0  0  0  0  0  0
  146.6331  141.9025  154.8424 C   0  0  0  0  0  0  0  0  0  0  0  0
  147.7166  141.0243  154.3146 C   0  0  0  0  0  0  0  0  0  0  0  0
  149.0446  141.7769  154.1347 C   0  0  0  0  0  0  0  0  0  0  0  0
  149.5769  142.2382  155.4112 N   0  0  0  0  0  0  0  0  0  0  0  0
  150.6961  141.7768  155.9907 C   0  0  0  0  0  0  0  0  0  0  0  0
  151.4019  140.9004  155.4900 O   0  0  0  0  0  0  0  0  0  0  0  0
  151.0737  142.3968  157.3429 C   0  0  0  0  0  0  0  0  0  0  0  0
  151.5448  143.8569  157.1705 C   0  0  0  0  0  0  0  0  0  0  0  0
  151.9409  144.4804  158.5190 C   0  0  0  0  0  0  0  0  0  0  0  0
  153.0178  143.6416  159.2251 C   0  0  0  0  0  0  0  0  0  0  0  0
  152.5626  142.1837  159.3958 C   0  0  0  0  0  0  0  0  0  0  0  0
  152.1659  141.5625  158.0465 C   0  0  0  0  0  0  0  0  0  0  0  0
  145.8120  143.1114  153.8659 S   0  0  0  0  0  0  0  0  0  0  0  0
  144.8772  143.5746  155.2648 C   0  0  0  0  0  0  0  0  0  0  0  0
  143.8596  144.6629  155.1752 C   0  0  0  0  0  0  0  0  0  0  0  0
  144.4039  144.3952  159.3451 H   0  0  0  0  0  0  0  0  0  0  0  0
  144.3234  145.0888  157.7275 H   0  0  0  0  0  0  0  0  0  0  0  0
  145.8791  144.6110  158.4070 H   0  0  0  0  0  0  0  0  0  0  0  0
  145.1296  142.2107  158.4095 H   0  0  0  0  0  0  0  0  0  0  0  0
  143.5913  142.6767  157.7477 H   0  0  0  0  0  0  0  0  0  0  0  0
  147.8504  140.1836  154.9968 H   0  0  0  0  0  0  0  0  0  0  0  0
  147.3847  140.6042  153.3645 H   0  0  0  0  0  0  0  0  0  0  0  0
  149.7778  141.1454  153.6299 H   0  0  0  0  0  0  0  0  0  0  0  0
  148.8938  142.6482  153.4965 H   0  0  0  0  0  0  0  0  0  0  0  0
  149.0568  142.9596  155.8896 H   0  0  0  0  0  0  0  0  0  0  0  0
  150.1863  142.3999  157.9791 H   0  0  0  0  0  0  0  0  0  0  0  0
  152.3990  143.8997  156.4924 H   0  0  0  0  0  0  0  0  0  0  0  0
  150.7567  144.4545  156.7104 H   0  0  0  0  0  0  0  0  0  0  0  0
  152.3032  145.4972  158.3661 H   0  0  0  0  0  0  0  0  0  0  0  0
  151.0609  144.5585  159.1586 H   0  0  0  0  0  0  0  0  0  0  0  0
  153.9413  143.6702  158.6449 H   0  0  0  0  0  0  0  0  0  0  0  0
  153.2502  144.0761  160.1978 H   0  0  0  0  0  0  0  0  0  0  0  0
  153.3588  141.5974  159.8553 H   0  0  0  0  0  0  0  0  0  0  0  0
  151.7143  142.1433  160.0803 H   0  0  0  0  0  0  0  0  0  0  0  0
  151.8156  140.5419  158.2050 H   0  0  0  0  0  0  0  0  0  0  0  0
  153.0511  141.4884  157.4124 H   0  0  0  0  0  0  0  0  0  0  0  0
  143.9495  145.3495  156.0173 H   0  0  0  0  0  0  0  0  0  0  0  0
  142.8512  144.2489  155.1821 H   0  0  0  0  0  0  0  0  0  0  0  0
  143.9799  145.2416  154.2590 H   0  0  0  0  0  0  0  0  0  0  0  0
  1  2  1  0  0  0  0
  1 20  1  0  0  0  0
  1 21  1  0  0  0  0
  1 22  1  0  0  0  0
  2  3  1  0  0  0  0
  2 23  1  0  0  0  0
  2 24  1  0  0  0  0
  3 18  2  0  0  0  0
  3  4  1  0  0  0  0
  4  5  2  0  0  0  0
  5  6  1  0  0  0  0
  5 17  1  0  0  0  0
  6  7  1  0  0  0  0
  6 25  1  0  0  0  0
  6 26  1  0  0  0  0
  7  8  1  0  0  0  0
  7 27  1  0  0  0  0
  7 28  1  0  0  0  0
  8  9  1  0  0  0  0
  8 29  1  0  0  0  0
  9 10  2  0  0  0  0
  9 11  1  0  0  0  0
 11 16  1  0  0  0  0
 11 12  1  0  0  0  0
 11 30  1  0  0  0  0
 12 13  1  0  0  0  0
 12 31  1  0  0  0  0
 12 32  1  0  0  0  0
 13 14  1  0  0  0  0
 13 33  1  0  0  0  0
 13 34  1  0  0  0  0
 14 15  1  0  0  0  0
 14 35  1  0  0  0  0
 14 36  1  0  0  0  0
 15 16  1  0  0  0  0
 15 37  1  0  0  0  0
 15 38  1  0  0  0  0
 16 39  1  0  0  0  0
 16 40  1  0  0  0  0
 17 18  1  0  0  0  0
 18 19  1  0  0  0  0
 19 41  1  0  0  0  0
 19 42  1  0  0  0  0
 19 43  1  0  0  0  0
M  END
> <s_m_source_file>
AV-unprocessed.smi

> <i_m_source_file_index>
1003

> <i_lp_mmshare_version>
43012

> <i_f3d_flags>
0

> <s_epik_input>
W0NIM11bQ0gyXWMxbmMoc2MxW0NIM10pW0NIMl1bQ0gyXVtOSF1DKD1PKVtDSF0yW0NIMl1bQ0gyXVtDSDJdW0NIMl1bQ0gyXTI=

> <s_epik_cmdline>
J2VwaWtfcHl0aG9uJywgJy1waCcsICc3LjAnLCAnLXRuJywgJzgnLCAnLW1hJywgJzIwMCcsICctbWV0YWxfYmluZGluZycsICctaW1hZScsICc8aW5maWxlLm1hZT4nLCAnLW9tYWUnLCAnPG91dGZpbGUubWFlPic=

> <r_epik_Ionization_Penalty>
0.00242092

> <r_epik_Ionization_Penalty_Charging>
0

> <r_epik_Ionization_Penalty_Neutral>
0.00242092

> <r_epik_State_Penalty>
0.00167523

> <r_epik_Charging_Adjusted_Penalty>
0.00167523

> <i_epik_Tot_Q>
0

> <i_epik_Tot_abs_Q>
0

> <r_epik_Metal_State_Penalty>
-0

> <b_epik_Metal_Only>
0

> <s_lp_Force_Field>
OPLS_2005

> <r_lp_Energy>
0.647585

> <b_lp_Chiralities_Consistent>
1

> <s_lp_Variant>
AV-unprocessed.smi:1003-1

> <Gold.Version>
5.8.1

> <Gold.Id.Protein>
6NUR|6NUR_protein|mol2

> <Gold.PLP.Fitness>
44.6387

> <Gold.PLP.PLP>
-41.3813

> <Gold.PLP.part.hbond>
-2.0000

> <Gold.PLP.part.metal>
0.0000

> <Gold.PLP.part.buried>
-2.6717

> <Gold.PLP.part.nonpolar>
-36.0120

> <Gold.PLP.part.repulsive>
0.3231

> <Gold.PLP.ligand.clash>
0.0000

> <Gold.PLP.ligand.torsion>
0.4990

> <Gold.PLP.Chemscore.Hbond>
1.4110

> <Gold.PLP.Chemscore.CHOScore>
0.0000

> <Gold.PLP.Chemscore.Metal>
0.0000

> <Gold.Chemscore.Hbonds>
donor molecule, donor type, donor heavy atom, donor atom, acceptor molecule, acceptor atom, score
      L1  H     8    29       P1  8028  0.69
      P1  H  7989  7998       L1    10  0.66

> <Gold.PLP.Chemscore.Internal.Correction>
0.0224

> <Gold.Rescore>
     Score         DG    S(hbond)    S(metal)    S(lipo)     H(rot)  DE(clash)    DE(int)     intcor
     17.02     -17.69       1.12        0.00     103.14       1.40       0.45       0.23       ----

> <Gold.Chemscore.Fitness>
17.0160

> <Gold.Chemscore.DG>
-17.6937

> <Gold.Chemscore.ZeroCoef>
-5.4800

> <Gold.Chemscore.Hbond>
1.1161

> <Gold.Chemscore.Metal>
0.0000

> <Gold.Chemscore.Lipo>
103.1358

> <Gold.Chemscore.Internal_Hbond>
0.0000

> <Gold.Chemscore.DEClash>
0.4457

> <Gold.Chemscore.DEInternal>
0.2321

> <Gold.Chemscore.Rot>
1.3988

> <Gold.Chemscore.Internal.Correction>
   9.000000E+99

> <Gold.Chemscore.Hbonds>
donor molecule, donor type, donor heavy atom, donor atom, acceptor molecule, acceptor atom, score
      L1  H     8    29       P1  8028  0.68
      P1  H  7989  7998       L1    10  0.61

> <Gold.Chemscore.Hbond.Weighted>
-3.7278

> <Gold.Chemscore.Metal.Weighted>
-0.0000

> <Gold.Chemscore.Lipo.Weighted>
-12.0669

> <Gold.Chemscore.Internal_Hbond.Weighted>
0.0000

> <Gold.Chemscore.DEClash.Weighted>
0.4457

> <Gold.Chemscore.DEInternal.Weighted>
0.2321

> <Gold.Chemscore.Rot.Weighted>
3.5810

> <Gold.Chemscore.Internal.Correction.Weighted>
   9.000000E+99

> <Gold.Protein.RotatedTorsions>
[ 6907 6896 6895 6894 ] final -166.14 input  -60.11 | X-H torsion
[ 7974 7965 7964 7962 ] final  -23.57 input  175.53 | X-H torsion
[ 8008 7997 7996 7995 ] final  -93.57 input   59.86 | X-H torsion
[ 10167 10162 10161 10158 ] final  140.82 input  -65.29 | X-H torsion
[ 10718 10713 10712 10709 ] final   90.67 input   66.30 | X-H torsion
[ 10763 10752 10751 10750 ] final  142.95 input  -60.55 | X-H torsion
[ 11005 11000 10999 10996 ] final   82.98 input  -57.11 | X-H torsion

> <Gold.Protein.ActiveResidues>
 VAL166  LYS551  ARG553  GLY616  TRP617  ASP618  TYR619  PRO620  LYS621  CYS622 
 ASP623  PHE694  ASN695  SER759  ASP760  ASP761  ALA762  ILE779  LEU786  VAL792 
 PHE793  MET794  SER795  GLU796  ALA797  LYS798  CYS799  TRP800  GLU811  SER814 

> <Gold.Protein.RotatedAtoms>
  151.4388  133.3649  159.2778 H   0  0  0  0  0  0  0  0  0  0  0  0  # atno 6907 bound_to 6896
  150.9172  134.8591  159.7475 H   0  0  0  0  0  0  0  0  0  0  0  0  # atno 6908 bound_to 6896
  152.4963  134.4323  159.9568 H   0  0  0  0  0  0  0  0  0  0  0  0  # atno 6909 bound_to 6896
  146.1608  140.4634  142.8572 H   0  0  0  0  0  0  0  0  0  0  0  0  # atno 7974 bound_to 7965
  154.7374  140.0497  157.0780 H   0  0  0  0  0  0  0  0  0  0  0  0  # atno 8008 bound_to 7997
  155.0223  140.3148  155.4769 H   0  0  0  0  0  0  0  0  0  0  0  0  # atno 8009 bound_to 7997
  156.2856  140.2165  156.5341 H   0  0  0  0  0  0  0  0  0  0  0  0  # atno 8010 bound_to 7997
  139.5038  144.6210  151.6050 H   0  0  0  0  0  0  0  0  0  0  0  0  # atno 10167 bound_to 10162
  157.6959  131.0379  150.3612 H   0  0  0  0  0  0  0  0  0  0  0  0  # atno 10718 bound_to 10713
  153.9643  135.2957  155.3431 H   0  0  0  0  0  0  0  0  0  0  0  0  # atno 10763 bound_to 10752
  154.7358  135.5047  153.9041 H   0  0  0  0  0  0  0  0  0  0  0  0  # atno 10764 bound_to 10752
  153.0931  135.6713  153.9926 H   0  0  0  0  0  0  0  0  0  0  0  0  # atno 10765 bound_to 10752
  139.9046  134.8111  156.2248 H   0  0  0  0  0  0  0  0  0  0  0  0  # atno 11005 bound_to 11000
  144.8024  140.6238  143.6469 LP  0  0  0  0  0  0  0  0  0  0  0  0  # atno 17320 bound_to 7965
  145.4593  139.1514  143.3875 LP  0  0  0  0  0  0  0  0  0  0  0  0  # atno 17321 bound_to 7965
  140.5912  143.9775  150.6326 LP  0  0  0  0  0  0  0  0  0  0  0  0  # atno 17342 bound_to 10162
  140.2957  143.3294  152.1020 LP  0  0  0  0  0  0  0  0  0  0  0  0  # atno 17343 bound_to 10162
  156.4048  130.3923  149.6933 LP  0  0  0  0  0  0  0  0  0  0  0  0  # atno 17370 bound_to 10713
  156.4238  130.7781  151.2799 LP  0  0  0  0  0  0  0  0  0  0  0  0  # atno 17371 bound_to 10713
  141.0383  133.6951  156.1552 LP  0  0  0  0  0  0  0  0  0  0  0  0  # atno 17394 bound_to 11000
  140.6994  134.4580  157.5586 LP  0  0  0  0  0  0  0  0  0  0  0  0  # atno 17395 bound_to 11000

$$$$
