AV-unprocessed.smi:40|AV-procd|sdf|371|dock2
  -GOLD-   2262016213D 1   1.00000     0.00000
 Structure written by MMmdl.
 47 48  0  0  0  0  0  0  0  0  1 V2000
  156.2181  132.7838  162.8375 C   0  0  0  0  0  0  0  0  0  0  0  0
  156.5022  133.7544  163.9891 C   0  0  0  0  0  0  0  0  0  0  0  0
  157.6907  134.6823  163.6989 C   0  0  0  0  0  0  0  0  0  0  0  0
  157.2803  135.9395  162.9208 C   0  0  0  0  0  0  0  0  0  0  0  0
  156.7858  135.6114  161.5040 C   0  0  0  0  0  0  0  0  0  0  0  0
  156.3601  136.7913  160.8360 O   0  0  0  0  0  0  0  0  0  0  0  0
  155.7431  136.7271  159.6369 C   0  0  0  0  0  0  0  0  0  0  0  0
  155.7193  135.7208  158.9286 O   0  0  0  0  0  0  0  0  0  0  0  0
  155.0854  137.9791  159.2982 N   0  0  0  0  0  0  0  0  0  0  0  0
  154.3694  138.3105  158.1953 C   0  0  0  0  0  0  0  0  0  0  0  0
  154.1340  137.4621  157.2074 N   0  0  0  0  0  0  0  0  0  0  0  0
  153.3984  137.7661  156.0944 C   0  0  0  0  0  0  0  0  0  0  0  0
  153.2710  136.9444  155.1879 O   0  0  0  0  0  0  0  0  0  0  0  0
  152.8089  139.0523  156.0272 N   0  0  0  0  0  0  0  0  0  0  0  0
  152.0190  139.4245  154.7821 C   0  0  2  0  0  0  0  0  0  0  0  0
  151.6252  140.7674  154.8579 O   0  0  0  0  0  0  0  0  0  0  0  0
  150.2361  140.8810  155.1549 C   0  0  2  0  0  0  0  0  0  0  0  0
  150.0071  140.9572  156.6777 C   0  0  0  0  0  0  0  0  0  0  0  0
  149.6441  139.6519  154.4623 C   0  0  2  0  0  0  0  0  0  0  0  0
  148.4115  139.2484  155.0267 O   0  0  0  0  0  0  0  0  0  0  0  0
  150.7217  138.5894  154.6390 C   0  0  1  0  0  0  0  0  0  0  0  0
  150.7527  137.7586  153.4957 O   0  0  0  0  0  0  0  0  0  0  0  0
  153.0738  139.9673  157.0390 C   0  0  0  0  0  0  0  0  0  0  0  0
  153.8135  139.6440  158.1217 C   0  0  0  0  0  0  0  0  0  0  0  0
  154.0303  140.5428  159.0977 F   0  0  0  0  0  0  0  0  0  0  0  0
  152.7271  139.2970  153.9611 H   0  0  0  0  0  0  0  0  0  0  0  0
  149.8500  141.7948  154.7018 H   0  0  0  0  0  0  0  0  0  0  0  0
  149.5029  139.8803  153.4042 H   0  0  0  0  0  0  0  0  0  0  0  0
  150.5456  138.0052  155.5440 H   0  0  0  0  0  0  0  0  0  0  0  0
  155.3705  132.1394  163.0722 H   0  0  0  0  0  0  0  0  0  0  0  0
  157.0785  132.1438  162.6407 H   0  0  0  0  0  0  0  0  0  0  0  0
  155.9824  133.3222  161.9190 H   0  0  0  0  0  0  0  0  0  0  0  0
  155.6103  134.3516  164.1825 H   0  0  0  0  0  0  0  0  0  0  0  0
  156.6956  133.1848  164.8989 H   0  0  0  0  0  0  0  0  0  0  0  0
  158.1596  134.9766  164.6387 H   0  0  0  0  0  0  0  0  0  0  0  0
  158.4473  134.1368  163.1336 H   0  0  0  0  0  0  0  0  0  0  0  0
  156.4937  136.4645  163.4638 H   0  0  0  0  0  0  0  0  0  0  0  0
  158.1279  136.6234  162.8655 H   0  0  0  0  0  0  0  0  0  0  0  0
  157.5567  135.0936  160.9315 H   0  0  0  0  0  0  0  0  0  0  0  0
  155.9347  134.9326  161.5626 H   0  0  0  0  0  0  0  0  0  0  0  0
  155.2012  138.7022  159.9936 H   0  0  0  0  0  0  0  0  0  0  0  0
  148.9517  141.1009  156.9103 H   0  0  0  0  0  0  0  0  0  0  0  0
  150.5482  141.7994  157.1091 H   0  0  0  0  0  0  0  0  0  0  0  0
  150.3349  140.0506  157.1862 H   0  0  0  0  0  0  0  0  0  0  0  0
  148.2121  139.8252  155.7486 H   0  0  0  0  0  0  0  0  0  0  0  0
  151.5260  137.2163  153.5448 H   0  0  0  0  0  0  0  0  0  0  0  0
  152.6895  140.9746  156.9930 H   0  0  0  0  0  0  0  0  0  0  0  0
  1  2  1  0  0  0  0
  1 30  1  0  0  0  0
  1 31  1  0  0  0  0
  1 32  1  0  0  0  0
  2  3  1  0  0  0  0
  2 33  1  0  0  0  0
  2 34  1  0  0  0  0
  3  4  1  0  0  0  0
  3 35  1  0  0  0  0
  3 36  1  0  0  0  0
  4  5  1  0  0  0  0
  4 37  1  0  0  0  0
  4 38  1  0  0  0  0
  5  6  1  0  0  0  0
  5 39  1  0  0  0  0
  5 40  1  0  0  0  0
  6  7  1  0  0  0  0
  7  8  2  0  0  0  0
  7  9  1  0  0  0  0
  9 10  1  0  0  0  0
  9 41  1  0  0  0  0
 10 24  1  0  0  0  0
 10 11  2  0  0  0  0
 11 12  1  0  0  0  0
 12 13  2  0  0  0  0
 12 14  1  0  0  0  0
 14 15  1  0  0  0  0
 14 23  1  0  0  0  0
 15 26  1  0  0  0  0
 15 21  1  0  0  0  0
 15 16  1  0  0  0  0
 16 17  1  0  0  0  0
 17 27  1  0  0  0  0
 17 18  1  0  0  0  0
 17 19  1  0  0  0  0
 18 42  1  0  0  0  0
 18 43  1  0  0  0  0
 18 44  1  0  0  0  0
 19 28  1  0  0  0  0
 19 20  1  0  0  0  0
 19 21  1  0  0  0  0
 20 45  1  0  0  0  0
 21 29  1  0  0  0  0
 21 22  1  0  0  0  0
 22 46  1  0  0  0  0
 23 24  2  0  0  0  0
 23 47  1  0  0  0  0
 24 25  1  0  0  0  0
M  END
> <s_m_source_file>
AV-unprocessed.smi

> <i_m_source_file_index>
40

> <i_lp_mmshare_version>
43012

> <i_f3d_flags>
0

> <s_epik_input>
W0NIM11bQ0gyXVtDSDJdW0NIMl1bQ0gyXU9DKD1PKVtOSF1jMW5jKD1PKW4oW2NIXWMxRilbQ0BASF0yT1tDQEhdKFtDSDNdKVtDQEBIXShbT0hdKVtDQEhdMltPSF0=

> <s_epik_cmdline>
J2VwaWtfcHl0aG9uJywgJy1waCcsICc3LjAnLCAnLXRuJywgJzgnLCAnLW1hJywgJzIwMCcsICctbWV0YWxfYmluZGluZycsICctaW1hZScsICc8aW5maWxlLm1hZT4nLCAnLW9tYWUnLCAnPG91dGZpbGUubWFlPic=

> <r_lp_tautomer_probability>
1

> <r_epik_Ionization_Penalty>
2.29506e-06

> <r_epik_Ionization_Penalty_Charging>
8.26867e-09

> <r_epik_Ionization_Penalty_Neutral>
2.2868e-06

> <r_epik_State_Penalty>
-0

> <r_epik_Charging_Adjusted_Penalty>
8.26867e-09

> <i_epik_Tot_Q>
0

> <i_epik_Tot_abs_Q>
0

> <r_epik_Metal_State_Penalty>
-0

> <b_epik_Metal_Only>
0

> <s_epik_Chemistry_Notes>
This compound has an ester and may undergo hydrolysis at high or low pH. This compound contains an acetal/aminal-like group ( X-CH(R)-Y where X, Y are N, S, or O) that may be acid/base labile, releasing an aldehyde.

> <s_lp_Force_Field>
OPLS_2005

> <r_lp_Energy>
32.726

> <b_lp_Chiralities_Consistent>
1

> <s_lp_Variant>
AV-unprocessed.smi:40-5

> <Gold.Version>
5.8.1

> <Gold.Id.Protein>
6NUR|6NUR_protein|mol2

> <Gold.PLP.Fitness>
42.7553

> <Gold.PLP.PLP>
-35.5527

> <Gold.PLP.part.hbond>
-4.5636

> <Gold.PLP.part.metal>
0.0000

> <Gold.PLP.part.buried>
-3.3786

> <Gold.PLP.part.nonpolar>
-27.7550

> <Gold.PLP.part.repulsive>
0.1009

> <Gold.PLP.ligand.clash>
0.0000

> <Gold.PLP.ligand.torsion>
0.3907

> <Gold.PLP.Chemscore.Hbond>
2.6208

> <Gold.PLP.Chemscore.CHOScore>
0.0000

> <Gold.PLP.Chemscore.Metal>
0.0000

> <Gold.Chemscore.Hbonds>
donor molecule, donor type, donor heavy atom, donor atom, acceptor molecule, acceptor atom, score
      P1  H  7989  7998       L1    16  0.23
      P1  H 10752 10764       L1    13  0.14

> <Gold.PLP.Chemscore.Internal.Correction>
0.1215

> <Gold.Rescore>
     Score         DG    S(hbond)    S(metal)    S(lipo)     H(rot)  DE(clash)    DE(int)     intcor
      7.79      -9.70       1.79        0.00      65.73       3.70       0.04       1.88       ----

> <Gold.Chemscore.Fitness>
7.7869

> <Gold.Chemscore.DG>
-9.7042

> <Gold.Chemscore.ZeroCoef>
-5.4800

> <Gold.Chemscore.Hbond>
1.7949

> <Gold.Chemscore.Metal>
0.0000

> <Gold.Chemscore.Lipo>
65.7287

> <Gold.Chemscore.Internal_Hbond>
0.0000

> <Gold.Chemscore.DEClash>
0.0354

> <Gold.Chemscore.DEInternal>
1.8820

> <Gold.Chemscore.Rot>
3.6957

> <Gold.Chemscore.Internal.Correction>
   9.000000E+99

> <Gold.Chemscore.Hbonds>
donor molecule, donor type, donor heavy atom, donor atom, acceptor molecule, acceptor atom, score
      P1  H  7989  7998       L1    16  0.01
      P1  H 10752 10764       L1    13  0.13

> <Gold.Chemscore.Hbond.Weighted>
-5.9950

> <Gold.Chemscore.Metal.Weighted>
-0.0000

> <Gold.Chemscore.Lipo.Weighted>
-7.6903

> <Gold.Chemscore.Internal_Hbond.Weighted>
0.0000

> <Gold.Chemscore.DEClash.Weighted>
0.0354

> <Gold.Chemscore.DEInternal.Weighted>
1.8820

> <Gold.Chemscore.Rot.Weighted>
9.4610

> <Gold.Chemscore.Internal.Correction.Weighted>
   9.000000E+99

> <Gold.Protein.RotatedTorsions>
[ 6907 6896 6895 6894 ] final -164.98 input  -60.11 | X-H torsion
[ 7974 7965 7964 7962 ] final  -64.19 input  175.53 | X-H torsion
[ 8008 7997 7996 7995 ] final   35.83 input   59.86 | X-H torsion
[ 10167 10162 10161 10158 ] final -118.32 input  -65.29 | X-H torsion
[ 10718 10713 10712 10709 ] final -113.79 input   66.30 | X-H torsion
[ 10763 10752 10751 10750 ] final  -47.80 input  -60.55 | X-H torsion
[ 11005 11000 10999 10996 ] final -144.45 input  -57.11 | X-H torsion

> <Gold.Protein.ActiveResidues>
 VAL166  LYS551  ARG553  GLY616  TRP617  ASP618  TYR619  PRO620  LYS621  CYS622 
 ASP623  PHE694  ASN695  SER759  ASP760  ASP761  ALA762  ILE779  LEU786  VAL792 
 PHE793  MET794  SER795  GLU796  ALA797  LYS798  CYS799  TRP800  GLU811  SER814 

> <Gold.Protein.RotatedAtoms>
  151.4203  133.3700  159.2755 H   0  0  0  0  0  0  0  0  0  0  0  0  # atno 6907 bound_to 6896
  150.9298  134.8715  159.7554 H   0  0  0  0  0  0  0  0  0  0  0  0  # atno 6908 bound_to 6896
  152.5022  134.4147  159.9512 H   0  0  0  0  0  0  0  0  0  0  0  0  # atno 6909 bound_to 6896
  145.7698  140.8818  143.0386 H   0  0  0  0  0  0  0  0  0  0  0  0  # atno 7974 bound_to 7965
  155.1775  140.3297  155.4381 H   0  0  0  0  0  0  0  0  0  0  0  0  # atno 8008 bound_to 7997
  156.2488  140.1932  156.6826 H   0  0  0  0  0  0  0  0  0  0  0  0  # atno 8009 bound_to 7997
  154.6294  140.0584  156.9700 H   0  0  0  0  0  0  0  0  0  0  0  0  # atno 8010 bound_to 7997
  140.0588  143.4988  152.2043 H   0  0  0  0  0  0  0  0  0  0  0  0  # atno 10167 bound_to 10162
  156.0789  130.5992  150.8690 H   0  0  0  0  0  0  0  0  0  0  0  0  # atno 10718 bound_to 10713
  154.0673  135.6609  153.4819 H   0  0  0  0  0  0  0  0  0  0  0  0  # atno 10763 bound_to 10752
  153.0404  135.5149  154.7601 H   0  0  0  0  0  0  0  0  0  0  0  0  # atno 10764 bound_to 10752
  154.6656  135.3021  154.9777 H   0  0  0  0  0  0  0  0  0  0  0  0  # atno 10765 bound_to 10752
  140.8023  134.2842  157.4974 H   0  0  0  0  0  0  0  0  0  0  0  0  # atno 11005 bound_to 11000
  144.6815  139.9840  143.7483 LP  0  0  0  0  0  0  0  0  0  0  0  0  # atno 17320 bound_to 7965
  146.0181  139.3227  143.0829 LP  0  0  0  0  0  0  0  0  0  0  0  0  # atno 17321 bound_to 7965
  139.5907  144.7549  151.3409 LP  0  0  0  0  0  0  0  0  0  0  0  0  # atno 17342 bound_to 10162
  140.7182  143.7209  150.7696 LP  0  0  0  0  0  0  0  0  0  0  0  0  # atno 17343 bound_to 10162
  157.5897  131.0945  150.9139 LP  0  0  0  0  0  0  0  0  0  0  0  0  # atno 17370 bound_to 10713
  156.9317  130.5352  149.5279 LP  0  0  0  0  0  0  0  0  0  0  0  0  # atno 17371 bound_to 10713
  139.8720  134.9436  156.3858 LP  0  0  0  0  0  0  0  0  0  0  0  0  # atno 17394 bound_to 11000
  140.9282  133.7597  155.9991 LP  0  0  0  0  0  0  0  0  0  0  0  0  # atno 17395 bound_to 11000

$$$$
