AV-unprocessed.smi:1252|AV-procd|sdf|5265|dock6
  -GOLD-   22720 4383D 1   1.00000     0.00000
 Structure written by MMmdl.
 43 44  0  0  0  0  0  0  0  0  1 V2000
  146.2674  137.3733  159.2771 C   0  0  0  0  0  0  0  0  0  0  0  0
  147.1159  136.1097  159.5285 C   0  0  1  0  0  0  0  0  0  0  0  0
  148.4391  136.1048  158.7432 C   0  0  0  0  0  0  0  0  0  0  0  0
  149.1833  135.1238  158.7571 O   0  0  0  0  0  0  0  0  0  0  0  0
  148.7190  137.2220  158.0568 N   0  0  0  0  0  0  0  0  0  0  0  0
  149.8824  137.4178  157.1994 C   0  0  0  0  0  0  0  0  0  0  0  0
  149.8271  138.7863  156.4619 C   0  0  0  0  0  0  0  0  0  0  0  0
  150.8154  138.7090  155.2733 C   0  0  0  0  0  0  0  0  0  0  0  0
  148.3989  138.9002  155.8684 C   0  0  0  0  0  0  0  0  0  0  0  0
  150.1136  139.9190  157.3871 N   0  0  0  0  0  0  0  0  0  0  0  0
  151.4168  139.8514  158.0591 C   0  0  0  0  0  0  0  0  0  0  0  0
  151.5938  140.9778  159.0910 C   0  0  0  0  0  0  0  0  0  0  0  0
  151.4276  142.2390  158.4550 O   0  0  0  0  0  0  0  0  0  0  0  0
  150.1526  142.3713  157.8384 C   0  0  0  0  0  0  0  0  0  0  0  0
  149.9588  141.2543  156.7987 C   0  0  0  0  0  0  0  0  0  0  0  0
  147.3694  135.8945  160.9491 N   0  0  0  0  0  0  0  0  0  0  0  0
  147.2455  134.7866  161.6837 C   0  0  0  0  0  0  0  0  0  0  0  0
  147.6229  134.9317  162.9461 N   0  0  0  0  0  0  0  0  0  0  0  0
  148.0041  136.2432  162.9203 C   0  0  0  0  0  0  0  0  0  0  0  0
  147.8829  136.8639  161.7471 N   0  0  0  0  0  0  0  0  0  0  0  0
  146.0072  137.4694  158.2225 H   0  0  0  0  0  0  0  0  0  0  0  0
  146.7914  138.2831  159.5728 H   0  0  0  0  0  0  0  0  0  0  0  0
  145.3341  137.3329  159.8394 H   0  0  0  0  0  0  0  0  0  0  0  0
  146.5369  135.2548  159.1753 H   0  0  0  0  0  0  0  0  0  0  0  0
  148.0630  137.9881  158.1050 H   0  0  0  0  0  0  0  0  0  0  0  0
  150.7868  137.3206  157.8004 H   0  0  0  0  0  0  0  0  0  0  0  0
  149.9317  136.6052  156.4718 H   0  0  0  0  0  0  0  0  0  0  0  0
  150.5667  137.8780  154.6122 H   0  0  0  0  0  0  0  0  0  0  0  0
  151.8422  138.5503  155.6020 H   0  0  0  0  0  0  0  0  0  0  0  0
  150.7977  139.6113  154.6627 H   0  0  0  0  0  0  0  0  0  0  0  0
  148.1153  137.9950  155.3300 H   0  0  0  0  0  0  0  0  0  0  0  0
  148.3132  139.7168  155.1517 H   0  0  0  0  0  0  0  0  0  0  0  0
  147.6498  139.0630  156.6446 H   0  0  0  0  0  0  0  0  0  0  0  0
  151.5386  138.9037  158.5798 H   0  0  0  0  0  0  0  0  0  0  0  0
  152.2224  139.9171  157.3276 H   0  0  0  0  0  0  0  0  0  0  0  0
  150.8738  140.8727  159.9043 H   0  0  0  0  0  0  0  0  0  0  0  0
  152.5880  140.9314  159.5353 H   0  0  0  0  0  0  0  0  0  0  0  0
  149.3684  142.3334  158.5961 H   0  0  0  0  0  0  0  0  0  0  0  0
  150.0882  143.3488  157.3603 H   0  0  0  0  0  0  0  0  0  0  0  0
  150.6776  141.3971  155.9918 H   0  0  0  0  0  0  0  0  0  0  0  0
  148.9675  141.3766  156.3660 H   0  0  0  0  0  0  0  0  0  0  0  0
  146.8805  133.8518  161.2839 H   0  0  0  0  0  0  0  0  0  0  0  0
  148.3892  136.7540  163.7906 H   0  0  0  0  0  0  0  0  0  0  0  0
  1  2  1  0  0  0  0
  1 21  1  0  0  0  0
  1 22  1  0  0  0  0
  1 23  1  0  0  0  0
  2  3  1  0  0  0  0
  2 16  1  0  0  0  0
  2 24  1  0  0  0  0
  3  4  2  0  0  0  0
  3  5  1  0  0  0  0
  5  6  1  0  0  0  0
  5 25  1  0  0  0  0
  6  7  1  0  0  0  0
  6 26  1  0  0  0  0
  6 27  1  0  0  0  0
  7  8  1  0  0  0  0
  7  9  1  0  0  0  0
  7 10  1  0  0  0  0
  8 28  1  0  0  0  0
  8 29  1  0  0  0  0
  8 30  1  0  0  0  0
  9 31  1  0  0  0  0
  9 32  1  0  0  0  0
  9 33  1  0  0  0  0
 10 15  1  0  0  0  0
 10 11  1  0  0  0  0
 11 12  1  0  0  0  0
 11 34  1  0  0  0  0
 11 35  1  0  0  0  0
 12 13  1  0  0  0  0
 12 36  1  0  0  0  0
 12 37  1  0  0  0  0
 13 14  1  0  0  0  0
 14 15  1  0  0  0  0
 14 38  1  0  0  0  0
 14 39  1  0  0  0  0
 15 40  1  0  0  0  0
 15 41  1  0  0  0  0
 16 20  1  0  0  0  0
 16 17  1  0  0  0  0
 17 18  2  0  0  0  0
 17 42  1  0  0  0  0
 18 19  1  0  0  0  0
 19 20  2  0  0  0  0
 19 43  1  0  0  0  0
M  END
> <s_m_source_file>
AV-unprocessed.smi

> <i_m_source_file_index>
1252

> <i_lp_mmshare_version>
43012

> <i_f3d_flags>
0

> <s_epik_input>
bjFbY0hdbltjSF1uMVtDQEhdKFtDSDNdKUMoPU8pW05IXVtDSDJdQyhbQ0gzXSkoW0NIM10pTjJbQ0gyXVtDSDJdT1tDSDJdW0NIMl0y

> <s_epik_cmdline>
J2VwaWtfcHl0aG9uJywgJy1waCcsICc3LjAnLCAnLXRuJywgJzgnLCAnLW1hJywgJzIwMCcsICctbWV0YWxfYmluZGluZycsICctaW1hZScsICc8aW5maWxlLm1hZT4nLCAnLW9tYWUnLCAnPG91dGZpbGUubWFlPic=

> <r_lp_tautomer_probability>
1

> <r_epik_Ionization_Penalty>
0.211373

> <r_epik_Ionization_Penalty_Charging>
0

> <r_epik_Ionization_Penalty_Neutral>
0.211373

> <r_epik_State_Penalty>
0.201459

> <r_epik_Charging_Adjusted_Penalty>
0.201459

> <i_epik_Tot_Q>
0

> <i_epik_Tot_abs_Q>
0

> <r_epik_Metal_State_Penalty>
0.201458

> <b_epik_Metal_Only>
0

> <s_lp_Force_Field>
OPLS_2005

> <r_lp_Energy>
47.0271

> <b_lp_Chiralities_Consistent>
1

> <s_lp_Variant>
AV-unprocessed.smi:1252-2

> <Gold.Version>
5.8.1

> <Gold.Id.Protein>
6NUR|6NUR_protein|mol2

> <Gold.PLP.Fitness>
33.1917

> <Gold.PLP.PLP>
-26.4884

> <Gold.PLP.part.hbond>
-3.0000

> <Gold.PLP.part.metal>
0.0000

> <Gold.PLP.part.buried>
-4.9136

> <Gold.PLP.part.nonpolar>
-18.7992

> <Gold.PLP.part.repulsive>
0.1268

> <Gold.PLP.ligand.clash>
0.2633

> <Gold.PLP.ligand.torsion>
0.5447

> <Gold.PLP.Chemscore.Hbond>
2.6292

> <Gold.PLP.Chemscore.CHOScore>
0.0000

> <Gold.PLP.Chemscore.Metal>
0.0000

> <Gold.Chemscore.Hbonds>
donor molecule, donor type, donor heavy atom, donor atom, acceptor molecule, acceptor atom, score
      P1  H  6896  6908       L1     4  1.00
      P1  H  6931  6943       L1    20  1.00
      P1  H  6934  6947       L1    20  0.05

> <Gold.PLP.Chemscore.Internal.Correction>
0.1683

> <Gold.Rescore>
     Score         DG    S(hbond)    S(metal)    S(lipo)     H(rot)  DE(clash)    DE(int)     intcor
     11.71     -12.31       2.29        0.00      48.14       2.52       0.00       0.60       ----

> <Gold.Chemscore.Fitness>
11.7086

> <Gold.Chemscore.DG>
-12.3053

> <Gold.Chemscore.ZeroCoef>
-5.4800

> <Gold.Chemscore.Hbond>
2.2850

> <Gold.Chemscore.Metal>
0.0000

> <Gold.Chemscore.Lipo>
48.1405

> <Gold.Chemscore.Internal_Hbond>
0.0000

> <Gold.Chemscore.DEClash>
0.0000

> <Gold.Chemscore.DEInternal>
0.5967

> <Gold.Chemscore.Rot>
2.5153

> <Gold.Chemscore.Internal.Correction>
   9.000000E+99

> <Gold.Chemscore.Hbonds>
donor molecule, donor type, donor heavy atom, donor atom, acceptor molecule, acceptor atom, score
      P1  H  6896  6908       L1     4  1.00
      P1  H  6931  6943       L1    20  0.35
      P1  H  6934  6947       L1    20  0.06

> <Gold.Chemscore.Hbond.Weighted>
-7.6320

> <Gold.Chemscore.Metal.Weighted>
-0.0000

> <Gold.Chemscore.Lipo.Weighted>
-5.6324

> <Gold.Chemscore.Internal_Hbond.Weighted>
0.0000

> <Gold.Chemscore.DEClash.Weighted>
0.0000

> <Gold.Chemscore.DEInternal.Weighted>
0.5967

> <Gold.Chemscore.Rot.Weighted>
6.4392

> <Gold.Chemscore.Internal.Correction.Weighted>
   9.000000E+99

> <Gold.Protein.RotatedTorsions>
[ 6907 6896 6895 6894 ] final  163.09 input  -60.11 | X-H torsion
[ 7974 7965 7964 7962 ] final  103.96 input  175.53 | X-H torsion
[ 8008 7997 7996 7995 ] final -155.98 input   59.86 | X-H torsion
[ 10167 10162 10161 10158 ] final   27.61 input  -65.29 | X-H torsion
[ 10718 10713 10712 10709 ] final -109.36 input   66.30 | X-H torsion
[ 10763 10752 10751 10750 ] final   67.80 input  -60.55 | X-H torsion
[ 11005 11000 10999 10996 ] final  120.48 input  -57.11 | X-H torsion

> <Gold.Protein.ActiveResidues>
 VAL166  LYS551  ARG553  GLY616  TRP617  ASP618  TYR619  PRO620  LYS621  CYS622 
 ASP623  PHE694  ASN695  SER759  ASP760  ASP761  ALA762  ILE779  LEU786  VAL792 
 PHE793  MET794  SER795  GLU796  ALA797  LYS798  CYS799  TRP800  GLU811  SER814 

> <Gold.Protein.RotatedAtoms>
  151.9305  133.3610  159.3928 H   0  0  0  0  0  0  0  0  0  0  0  0  # atno 6907 bound_to 6896
  150.7018  134.4542  159.5360 H   0  0  0  0  0  0  0  0  0  0  0  0  # atno 6908 bound_to 6896
  152.2182  134.8438  160.0540 H   0  0  0  0  0  0  0  0  0  0  0  0  # atno 6909 bound_to 6896
  145.3391  139.2467  143.3619 H   0  0  0  0  0  0  0  0  0  0  0  0  # atno 7974 bound_to 7965
  155.7102  140.0777  157.2374 H   0  0  0  0  0  0  0  0  0  0  0  0  # atno 8008 bound_to 7997
  154.4059  140.1631  156.2342 H   0  0  0  0  0  0  0  0  0  0  0  0  # atno 8009 bound_to 7997
  155.9289  140.3392  155.6236 H   0  0  0  0  0  0  0  0  0  0  0  0  # atno 8010 bound_to 7997
  140.4923  144.0447  150.6301 H   0  0  0  0  0  0  0  0  0  0  0  0  # atno 10167 bound_to 10162
  156.0533  130.5760  150.8089 H   0  0  0  0  0  0  0  0  0  0  0  0  # atno 10718 bound_to 10713
  153.0204  135.5271  154.7035 H   0  0  0  0  0  0  0  0  0  0  0  0  # atno 10763 bound_to 10752
  154.6137  135.2881  155.0405 H   0  0  0  0  0  0  0  0  0  0  0  0  # atno 10764 bound_to 10752
  154.1418  135.6577  153.4996 H   0  0  0  0  0  0  0  0  0  0  0  0  # atno 10765 bound_to 10752
  139.9187  134.9635  156.7814 H   0  0  0  0  0  0  0  0  0  0  0  0  # atno 11005 bound_to 11000
  146.3015  140.3985  142.8702 LP  0  0  0  0  0  0  0  0  0  0  0  0  # atno 17320 bound_to 7965
  144.8804  140.7393  143.5990 LP  0  0  0  0  0  0  0  0  0  0  0  0  # atno 17321 bound_to 7965
  140.3720  143.2849  152.0268 LP  0  0  0  0  0  0  0  0  0  0  0  0  # atno 17342 bound_to 10162
  139.4854  144.6223  151.7232 LP  0  0  0  0  0  0  0  0  0  0  0  0  # atno 17343 bound_to 10162
  157.5480  131.0943  150.9736 LP  0  0  0  0  0  0  0  0  0  0  0  0  # atno 17370 bound_to 10713
  157.0003  130.5597  149.5311 LP  0  0  0  0  0  0  0  0  0  0  0  0  # atno 17371 bound_to 10713
  140.6541  133.9704  155.7770 LP  0  0  0  0  0  0  0  0  0  0  0  0  # atno 17394 bound_to 11000
  141.0688  134.0237  157.3556 LP  0  0  0  0  0  0  0  0  0  0  0  0  # atno 17395 bound_to 11000

$$$$
