AV-unprocessed.smi:133|AV-procd|sdf|1166|dock9
  -GOLD-   2262018303D 1   1.00000     0.00000
 Structure written by MMmdl.
 47 50  0  0  0  0  0  0  0  0  1 V2000
  153.5324  139.2007  157.5311 O   0  0  0  0  0  0  0  0  0  0  0  0
  152.6426  139.4436  156.7171 C   0  0  0  0  0  0  0  0  0  0  0  0
  152.5048  138.5207  155.4922 C   0  0  0  0  0  0  0  0  0  0  0  0
  151.1408  137.9991  155.2414 N   0  0  0  0  0  0  0  0  0  0  0  0
  150.1369  138.9014  154.8082 C   0  0  0  0  0  0  0  0  0  0  0  0
  150.3818  140.0974  154.6447 O   0  0  0  0  0  0  0  0  0  0  0  0
  148.8171  138.3196  154.5903 C   0  0  0  0  0  0  0  0  0  0  0  0
  147.8021  139.1032  154.1888 F   0  0  0  0  0  0  0  0  0  0  0  0
  148.5965  137.0045  154.7926 C   0  0  0  0  0  0  0  0  0  0  0  0
  149.5869  136.1352  155.2103 N   0  0  0  0  0  0  0  0  0  0  0  0
  149.2913  134.6705  155.4358 C   0  0  1  0  0  0  0  0  0  0  0  0
  147.7861  134.4056  155.3083 C   0  0  0  0  0  0  0  0  0  0  0  0
  147.6763  133.8600  153.9001 C   0  0  0  0  0  0  0  0  0  0  0  0
  148.9980  133.1160  153.7558 C   0  0  0  0  0  0  0  0  0  0  0  0
  149.9438  133.9218  154.4505 O   0  0  0  0  0  0  0  0  0  0  0  0
  150.8869  136.6243  155.4627 C   0  0  0  0  0  0  0  0  0  0  0  0
  151.7733  135.8755  155.8792 O   0  0  0  0  0  0  0  0  0  0  0  0
  151.7901  140.4831  156.8181 N   0  0  0  0  0  0  0  0  0  0  0  0
  151.7162  141.4781  157.8287 C   0  0  0  0  0  0  0  0  0  0  0  0
  151.0696  142.7323  157.6452 C   0  0  0  0  0  0  0  0  0  0  0  0
  151.0396  143.6874  158.6852 C   0  0  0  0  0  0  0  0  0  0  0  0
  151.6725  143.3725  159.8990 C   0  0  0  0  0  0  0  0  0  0  0  0
  152.3212  142.1581  160.0779 C   0  0  0  0  0  0  0  0  0  0  0  0
  152.3625  141.1955  159.0546 C   0  0  0  0  0  0  0  0  0  0  0  0
  152.9267  142.0504  161.4506 C   0  0  0  0  0  0  0  0  0  0  0  0
  152.7210  143.4584  162.0601 C   0  0  0  0  0  0  0  0  0  0  0  0
  151.7577  144.2339  161.1291 C   0  0  0  0  0  0  0  0  0  0  0  0
  152.8756  139.0626  154.6208 H   0  0  0  0  0  0  0  0  0  0  0  0
  153.2170  137.7020  155.6070 H   0  0  0  0  0  0  0  0  0  0  0  0
  147.5988  136.6272  154.6233 H   0  0  0  0  0  0  0  0  0  0  0  0
  149.7013  134.4135  156.4136 H   0  0  0  0  0  0  0  0  0  0  0  0
  147.5047  133.6439  156.0363 H   0  0  0  0  0  0  0  0  0  0  0  0
  147.1887  135.3011  155.4857 H   0  0  0  0  0  0  0  0  0  0  0  0
  146.8073  133.2173  153.7564 H   0  0  0  0  0  0  0  0  0  0  0  0
  147.6213  134.6773  153.1800 H   0  0  0  0  0  0  0  0  0  0  0  0
  148.9411  132.1402  154.2406 H   0  0  0  0  0  0  0  0  0  0  0  0
  149.2863  132.9645  152.7153 H   0  0  0  0  0  0  0  0  0  0  0  0
  151.1688  140.6171  156.0340 H   0  0  0  0  0  0  0  0  0  0  0  0
  150.5997  142.9881  156.7082 H   0  0  0  0  0  0  0  0  0  0  0  0
  150.5454  144.6379  158.5480 H   0  0  0  0  0  0  0  0  0  0  0  0
  152.8715  140.2552  159.2100 H   0  0  0  0  0  0  0  0  0  0  0  0
  152.3944  141.2898  162.0225 H   0  0  0  0  0  0  0  0  0  0  0  0
  153.9805  141.7750  161.3991 H   0  0  0  0  0  0  0  0  0  0  0  0
  152.3701  143.4225  163.0918 H   0  0  0  0  0  0  0  0  0  0  0  0
  153.6820  143.9742  162.0692 H   0  0  0  0  0  0  0  0  0  0  0  0
  152.1294  145.2310  160.8908 H   0  0  0  0  0  0  0  0  0  0  0  0
  150.7667  144.3277  161.5742 H   0  0  0  0  0  0  0  0  0  0  0  0
  1  2  2  0  0  0  0
  2  3  1  0  0  0  0
  2 18  1  0  0  0  0
  3  4  1  0  0  0  0
  3 28  1  0  0  0  0
  3 29  1  0  0  0  0
  4 16  1  0  0  0  0
  4  5  1  0  0  0  0
  5  6  2  0  0  0  0
  5  7  1  0  0  0  0
  7  8  1  0  0  0  0
  7  9  2  0  0  0  0
  9 10  1  0  0  0  0
  9 30  1  0  0  0  0
 10 11  1  0  0  0  0
 10 16  1  0  0  0  0
 11 15  1  0  0  0  0
 11 12  1  0  0  0  0
 11 31  1  0  0  0  0
 12 13  1  0  0  0  0
 12 32  1  0  0  0  0
 12 33  1  0  0  0  0
 13 14  1  0  0  0  0
 13 34  1  0  0  0  0
 13 35  1  0  0  0  0
 14 15  1  0  0  0  0
 14 36  1  0  0  0  0
 14 37  1  0  0  0  0
 16 17  2  0  0  0  0
 18 19  1  0  0  0  0
 18 38  1  0  0  0  0
 19 24  1  0  0  0  0
 19 20  2  0  0  0  0
 20 21  1  0  0  0  0
 20 39  1  0  0  0  0
 21 22  2  0  0  0  0
 21 40  1  0  0  0  0
 22 27  1  0  0  0  0
 22 23  1  0  0  0  0
 23 24  2  0  0  0  0
 23 25  1  0  0  0  0
 24 41  1  0  0  0  0
 25 26  1  0  0  0  0
 25 42  1  0  0  0  0
 25 43  1  0  0  0  0
 26 27  1  0  0  0  0
 26 44  1  0  0  0  0
 26 45  1  0  0  0  0
 27 46  1  0  0  0  0
 27 47  1  0  0  0  0
M  END
> <s_m_source_file>
AV-unprocessed.smi

> <i_m_source_file_index>
133

> <i_lp_mmshare_version>
43012

> <i_f3d_flags>
0

> <s_epik_input>
W0NIMl0xW0NIMl1bQ0gyXWMoYzEyKVtjSF1jKFtjSF1bY0hdMilbTkhdQyg9TylbQ0gyXW4zYyg9TyljKEYpW2NIXW4oYzM9TylbQ0BASF00W0NIMl1bQ0gyXVtDSDJdTzQ=

> <s_epik_cmdline>
J2VwaWtfcHl0aG9uJywgJy1waCcsICc3LjAnLCAnLXRuJywgJzgnLCAnLW1hJywgJzIwMCcsICctbWV0YWxfYmluZGluZycsICctaW1hZScsICc8aW5maWxlLm1hZT4nLCAnLW9tYWUnLCAnPG91dGZpbGUubWFlPic=

> <r_lp_tautomer_probability>
1

> <r_epik_Ionization_Penalty>
4.05675e-06

> <r_epik_Ionization_Penalty_Charging>
3.88729e-08

> <r_epik_Ionization_Penalty_Neutral>
4.01788e-06

> <r_epik_State_Penalty>
-0

> <r_epik_Charging_Adjusted_Penalty>
3.88729e-08

> <i_epik_Tot_Q>
0

> <i_epik_Tot_abs_Q>
0

> <r_epik_Metal_State_Penalty>
-0

> <b_epik_Metal_Only>
0

> <s_epik_Chemistry_Notes>
This compound contains an acetal/aminal-like group ( X-CH(R)-Y where X, Y are N, S, or O) that may be acid/base labile, releasing an aldehyde.

> <s_lp_Force_Field>
OPLS_2005

> <r_lp_Energy>
47.0615

> <b_lp_Chiralities_Consistent>
1

> <s_lp_Variant>
AV-unprocessed.smi:133-2

> <Gold.Version>
5.8.1

> <Gold.Id.Protein>
6NUR|6NUR_protein|mol2

> <Gold.PLP.Fitness>
54.9842

> <Gold.PLP.PLP>
-47.0668

> <Gold.PLP.part.hbond>
-3.0000

> <Gold.PLP.part.metal>
0.0000

> <Gold.PLP.part.buried>
-2.5852

> <Gold.PLP.part.nonpolar>
-41.3993

> <Gold.PLP.part.repulsive>
0.3995

> <Gold.PLP.ligand.clash>
0.0000

> <Gold.PLP.ligand.torsion>
0.3952

> <Gold.PLP.Chemscore.Hbond>
2.8960

> <Gold.PLP.Chemscore.CHOScore>
0.0000

> <Gold.PLP.Chemscore.Metal>
0.0000

> <Gold.Chemscore.Hbonds>
donor molecule, donor type, donor heavy atom, donor atom, acceptor molecule, acceptor atom, score
      P1  H  7989  7998       L1     6  1.00
      P1  H  7997  8010       L1     1  0.83
      P1  H 10752 10763       L1    17  1.00

> <Gold.PLP.Chemscore.Internal.Correction>
0.0198

> <Gold.Rescore>
     Score         DG    S(hbond)    S(metal)    S(lipo)     H(rot)  DE(clash)    DE(int)     intcor
     18.60     -23.81       2.57        0.00     117.96       1.59       2.27       2.94       ----

> <Gold.Chemscore.Fitness>
18.6021

> <Gold.Chemscore.DG>
-23.8096

> <Gold.Chemscore.ZeroCoef>
-5.4800

> <Gold.Chemscore.Hbond>
2.5720

> <Gold.Chemscore.Metal>
0.0000

> <Gold.Chemscore.Lipo>
117.9616

> <Gold.Chemscore.Internal_Hbond>
0.0000

> <Gold.Chemscore.DEClash>
2.2695

> <Gold.Chemscore.DEInternal>
2.9381

> <Gold.Chemscore.Rot>
1.5869

> <Gold.Chemscore.Internal.Correction>
   9.000000E+99

> <Gold.Chemscore.Hbonds>
donor molecule, donor type, donor heavy atom, donor atom, acceptor molecule, acceptor atom, score
      P1  H  7989  7998       L1     6  0.99
      P1  H  7997  8010       L1     1  0.63
      P1  H 10752 10763       L1    17  0.87

> <Gold.Chemscore.Hbond.Weighted>
-8.5906

> <Gold.Chemscore.Metal.Weighted>
-0.0000

> <Gold.Chemscore.Lipo.Weighted>
-13.8015

> <Gold.Chemscore.Internal_Hbond.Weighted>
0.0000

> <Gold.Chemscore.DEClash.Weighted>
2.2695

> <Gold.Chemscore.DEInternal.Weighted>
2.9381

> <Gold.Chemscore.Rot.Weighted>
4.0624

> <Gold.Chemscore.Internal.Correction.Weighted>
   9.000000E+99

> <Gold.Protein.RotatedTorsions>
[ 6907 6896 6895 6894 ] final   48.63 input  -60.11 | X-H torsion
[ 7974 7965 7964 7962 ] final  119.83 input  175.53 | X-H torsion
[ 8008 7997 7996 7995 ] final   16.13 input   59.86 | X-H torsion
[ 10167 10162 10161 10158 ] final -111.64 input  -65.29 | X-H torsion
[ 10718 10713 10712 10709 ] final -178.33 input   66.30 | X-H torsion
[ 10763 10752 10751 10750 ] final   68.10 input  -60.55 | X-H torsion
[ 11005 11000 10999 10996 ] final  -61.36 input  -57.11 | X-H torsion

> <Gold.Protein.ActiveResidues>
 VAL166  LYS551  ARG553  GLY616  TRP617  ASP618  TYR619  PRO620  LYS621  CYS622 
 ASP623  PHE694  ASN695  SER759  ASP760  ASP761  ALA762  ILE779  LEU786  VAL792 
 PHE793  MET794  SER795  GLU796  ALA797  LYS798  CYS799  TRP800  GLU811  SER814 

> <Gold.Protein.RotatedAtoms>
  152.2817  134.7821  160.0395 H   0  0  0  0  0  0  0  0  0  0  0  0  # atno 6907 bound_to 6896
  151.8398  133.3416  159.3648 H   0  0  0  0  0  0  0  0  0  0  0  0  # atno 6908 bound_to 6896
  150.7192  134.5330  159.5754 H   0  0  0  0  0  0  0  0  0  0  0  0  # atno 6909 bound_to 6896
  145.1384  139.3283  143.4629 H   0  0  0  0  0  0  0  0  0  0  0  0  # atno 7974 bound_to 7965
  154.8725  140.2961  155.5472 H   0  0  0  0  0  0  0  0  0  0  0  0  # atno 8008 bound_to 7997
  156.3021  140.2457  156.3650 H   0  0  0  0  0  0  0  0  0  0  0  0  # atno 8009 bound_to 7997
  154.8802  140.0398  157.1766 H   0  0  0  0  0  0  0  0  0  0  0  0  # atno 8010 bound_to 7997
  140.1314  143.4357  152.1625 H   0  0  0  0  0  0  0  0  0  0  0  0  # atno 10167 bound_to 10162
  156.8427  130.9692  151.3098 H   0  0  0  0  0  0  0  0  0  0  0  0  # atno 10718 bound_to 10713
  153.0218  135.5260  154.7082 H   0  0  0  0  0  0  0  0  0  0  0  0  # atno 10763 bound_to 10752
  154.6172  135.2885  155.0369 H   0  0  0  0  0  0  0  0  0  0  0  0  # atno 10764 bound_to 10752
  154.1369  135.6584  153.4986 H   0  0  0  0  0  0  0  0  0  0  0  0  # atno 10765 bound_to 10752
  141.1321  133.6629  156.5363 H   0  0  0  0  0  0  0  0  0  0  0  0  # atno 11005 bound_to 11000
  146.3507  140.1411  142.8594 LP  0  0  0  0  0  0  0  0  0  0  0  0  # atno 17320 bound_to 7965
  145.0559  140.9052  143.4967 LP  0  0  0  0  0  0  0  0  0  0  0  0  # atno 17321 bound_to 7965
  139.5518  144.7343  151.4413 LP  0  0  0  0  0  0  0  0  0  0  0  0  # atno 17342 bound_to 10162
  140.6815  143.8071  150.7127 LP  0  0  0  0  0  0  0  0  0  0  0  0  # atno 17343 bound_to 10162
  157.6347  130.8757  149.9336 LP  0  0  0  0  0  0  0  0  0  0  0  0  # atno 17370 bound_to 10713
  156.0871  130.3667  150.0466 LP  0  0  0  0  0  0  0  0  0  0  0  0  # atno 17371 bound_to 10713
  140.4175  134.7217  157.4871 LP  0  0  0  0  0  0  0  0  0  0  0  0  # atno 17394 bound_to 11000
  140.0383  134.6305  155.9014 LP  0  0  0  0  0  0  0  0  0  0  0  0  # atno 17395 bound_to 11000

$$$$
