AV-unprocessed.smi:456|AV-procd|sdf|2616|dock5
  -GOLD-   2262023 13D 1   1.00000     0.00000
 Structure written by MMmdl.
 32 34  0  0  0  0  0  0  0  0  1 V2000
  152.4164  140.1753  157.1077 O   0  0  0  0  0  0  0  0  0  0  0  0
  151.2786  141.0129  157.1078 C   0  0  1  0  0  0  0  0  0  0  0  0
  151.7507  142.4713  156.9447 C   0  0  0  0  0  0  0  0  0  0  0  0
  151.6566  143.2213  158.1849 N   0  0  0  0  0  0  0  0  0  0  0  0
  150.9751  144.3653  158.3870 C   0  0  0  0  0  0  0  0  0  0  0  0
  151.0290  144.9003  159.6034 N   0  0  0  0  0  0  0  0  0  0  0  0
  151.8404  143.9982  160.2697 C   0  0  0  0  0  0  0  0  0  0  0  0
  152.2964  143.9905  161.6073 C   0  0  0  0  0  0  0  0  0  0  0  0
  153.1333  142.9545  162.0714 C   0  0  0  0  0  0  0  0  0  0  0  0
  153.5621  142.9631  163.3559 F   0  0  0  0  0  0  0  0  0  0  0  0
  153.5253  141.9112  161.2063 C   0  0  0  0  0  0  0  0  0  0  0  0
  154.3307  140.9213  161.6591 F   0  0  0  0  0  0  0  0  0  0  0  0
  153.0807  141.8959  159.8705 C   0  0  0  0  0  0  0  0  0  0  0  0
  152.2477  142.9330  159.4111 C   0  0  0  0  0  0  0  0  0  0  0  0
  150.2677  140.6108  156.0427 C   0  0  0  0  0  0  0  0  0  0  0  0
  149.6063  141.6042  155.2887 C   0  0  0  0  0  0  0  0  0  0  0  0
  148.6935  141.2403  154.2800 C   0  0  0  0  0  0  0  0  0  0  0  0
  148.4355  139.8809  154.0197 C   0  0  0  0  0  0  0  0  0  0  0  0
  149.0903  138.8854  154.7697 C   0  0  0  0  0  0  0  0  0  0  0  0
  150.0039  139.2484  155.7780 C   0  0  0  0  0  0  0  0  0  0  0  0
  152.1405  139.2971  157.3218 H   0  0  0  0  0  0  0  0  0  0  0  0
  150.8154  140.8992  158.0891 H   0  0  0  0  0  0  0  0  0  0  0  0
  152.7926  142.4935  156.6215 H   0  0  0  0  0  0  0  0  0  0  0  0
  151.1751  142.9842  156.1730 H   0  0  0  0  0  0  0  0  0  0  0  0
  150.4102  144.8338  157.5943 H   0  0  0  0  0  0  0  0  0  0  0  0
  152.0037  144.7843  162.2784 H   0  0  0  0  0  0  0  0  0  0  0  0
  153.3821  141.0997  159.2067 H   0  0  0  0  0  0  0  0  0  0  0  0
  149.8062  142.6495  155.4734 H   0  0  0  0  0  0  0  0  0  0  0  0
  148.1939  142.0046  153.7032 H   0  0  0  0  0  0  0  0  0  0  0  0
  147.7374  139.6018  153.2443 H   0  0  0  0  0  0  0  0  0  0  0  0
  148.8948  137.8424  154.5689 H   0  0  0  0  0  0  0  0  0  0  0  0
  150.5088  138.4767  156.3407 H   0  0  0  0  0  0  0  0  0  0  0  0
  1  2  1  0  0  0  0
  1 21  1  0  0  0  0
  2  3  1  0  0  0  0
  2 15  1  0  0  0  0
  2 22  1  0  0  0  0
  3  4  1  0  0  0  0
  3 23  1  0  0  0  0
  3 24  1  0  0  0  0
  4 14  1  0  0  0  0
  4  5  1  0  0  0  0
  5  6  2  0  0  0  0
  5 25  1  0  0  0  0
  6  7  1  0  0  0  0
  7 14  2  0  0  0  0
  7  8  1  0  0  0  0
  8  9  2  0  0  0  0
  8 26  1  0  0  0  0
  9 10  1  0  0  0  0
  9 11  1  0  0  0  0
 11 12  1  0  0  0  0
 11 13  2  0  0  0  0
 13 14  1  0  0  0  0
 13 27  1  0  0  0  0
 15 20  1  0  0  0  0
 15 16  2  0  0  0  0
 16 17  1  0  0  0  0
 16 28  1  0  0  0  0
 17 18  2  0  0  0  0
 17 29  1  0  0  0  0
 18 19  1  0  0  0  0
 18 30  1  0  0  0  0
 19 20  2  0  0  0  0
 19 31  1  0  0  0  0
 20 32  1  0  0  0  0
M  END
> <s_m_source_file>
AV-unprocessed.smi

> <i_m_source_file_index>
456

> <i_lp_mmshare_version>
43012

> <i_f3d_flags>
0

> <s_epik_input>
W2NIXTFbY0hdW2NIXVtjSF1bY0hdYzFbQ0BIXShbT0hdKVtDSDJdbihbY0hdbjIpYyhjMjMpW2NIXWMoRiljKEYpW2NIXTM=

> <s_epik_cmdline>
J2VwaWtfcHl0aG9uJywgJy1waCcsICc3LjAnLCAnLXRuJywgJzgnLCAnLW1hJywgJzIwMCcsICctbWV0YWxfYmluZGluZycsICctaW1hZScsICc8aW5maWxlLm1hZT4nLCAnLW9tYWUnLCAnPG91dGZpbGUubWFlPic=

> <r_epik_Ionization_Penalty>
0.0156354

> <r_epik_Ionization_Penalty_Charging>
0

> <r_epik_Ionization_Penalty_Neutral>
0.0156354

> <r_epik_State_Penalty>
0.0122974

> <r_epik_Charging_Adjusted_Penalty>
0.0122974

> <i_epik_Tot_Q>
0

> <i_epik_Tot_abs_Q>
0

> <r_epik_Metal_State_Penalty>
1.24258e-05

> <b_epik_Metal_Only>
0

> <s_lp_Force_Field>
OPLS_2005

> <r_lp_Energy>
11.2187

> <b_lp_Chiralities_Consistent>
1

> <s_lp_Variant>
AV-unprocessed.smi:456-2

> <Gold.Version>
5.8.1

> <Gold.Id.Protein>
6NUR|6NUR_protein|mol2

> <Gold.PLP.Fitness>
53.5210

> <Gold.PLP.PLP>
-49.8079

> <Gold.PLP.part.hbond>
-1.0000

> <Gold.PLP.part.metal>
0.0000

> <Gold.PLP.part.buried>
-2.3526

> <Gold.PLP.part.nonpolar>
-44.9712

> <Gold.PLP.part.repulsive>
0.1287

> <Gold.PLP.ligand.clash>
0.0000

> <Gold.PLP.ligand.torsion>
1.1986

> <Gold.PLP.Chemscore.Hbond>
1.0000

> <Gold.PLP.Chemscore.CHOScore>
1.0311

> <Gold.PLP.Chemscore.Metal>
0.0000

> <Gold.Chemscore.Hbonds>
donor molecule, donor type, donor heavy atom, donor atom, acceptor molecule, acceptor atom, score
      P1  H  7997  8009       L1     1  1.00
      L1  C     5    25       P1  8028  0.91
      L1  C     5    25       P1  8029  0.08

> <Gold.PLP.Chemscore.Internal.Correction>
0.0170

> <Gold.Rescore>
     Score         DG    S(hbond)    S(metal)    S(lipo)     H(rot)  DE(clash)    DE(int)     intcor
     15.18     -17.69       0.95        0.00     120.55       1.98       1.61       0.90       ----

> <Gold.Chemscore.Fitness>
15.1784

> <Gold.Chemscore.DG>
-17.6870

> <Gold.Chemscore.ZeroCoef>
-5.4800

> <Gold.Chemscore.Hbond>
0.9478

> <Gold.Chemscore.Metal>
0.0000

> <Gold.Chemscore.Lipo>
120.5465

> <Gold.Chemscore.Internal_Hbond>
0.0000

> <Gold.Chemscore.DEClash>
1.6121

> <Gold.Chemscore.DEInternal>
0.8965

> <Gold.Chemscore.Rot>
1.9776

> <Gold.Chemscore.Internal.Correction>
   9.000000E+99

> <Gold.Chemscore.Hbonds>
donor molecule, donor type, donor heavy atom, donor atom, acceptor molecule, acceptor atom, score
      P1  H  7997  8009       L1     1  0.56

> <Gold.Chemscore.Hbond.Weighted>
-3.1657

> <Gold.Chemscore.Metal.Weighted>
-0.0000

> <Gold.Chemscore.Lipo.Weighted>
-14.1039

> <Gold.Chemscore.Internal_Hbond.Weighted>
0.0000

> <Gold.Chemscore.DEClash.Weighted>
1.6121

> <Gold.Chemscore.DEInternal.Weighted>
0.8965

> <Gold.Chemscore.Rot.Weighted>
5.0626

> <Gold.Chemscore.Internal.Correction.Weighted>
   9.000000E+99

> <Gold.Protein.RotatedTorsions>
[ 6907 6896 6895 6894 ] final   69.75 input  -60.11 | X-H torsion
[ 7974 7965 7964 7962 ] final -167.67 input  175.53 | X-H torsion
[ 8008 7997 7996 7995 ] final  178.00 input   59.86 | X-H torsion
[ 10167 10162 10161 10158 ] final  149.06 input  -65.29 | X-H torsion
[ 10718 10713 10712 10709 ] final  141.23 input   66.30 | X-H torsion
[ 10763 10752 10751 10750 ] final  101.66 input  -60.55 | X-H torsion
[ 11005 11000 10999 10996 ] final  -85.11 input  -57.11 | X-H torsion

> <Gold.Protein.ActiveResidues>
 VAL166  LYS551  ARG553  GLY616  TRP617  ASP618  TYR619  PRO620  LYS621  CYS622 
 ASP623  PHE694  ASN695  SER759  ASP760  ASP761  ALA762  ILE779  LEU786  VAL792 
 PHE793  MET794  SER795  GLU796  ALA797  LYS798  CYS799  TRP800  GLU811  SER814 

> <Gold.Protein.RotatedAtoms>
  152.4706  134.4970  159.9712 H   0  0  0  0  0  0  0  0  0  0  0  0  # atno 6907 bound_to 6896
  151.4998  133.3501  159.2875 H   0  0  0  0  0  0  0  0  0  0  0  0  # atno 6908 bound_to 6896
  150.8713  134.8116  159.7219 H   0  0  0  0  0  0  0  0  0  0  0  0  # atno 6909 bound_to 6896
  144.7218  140.2483  143.6282 H   0  0  0  0  0  0  0  0  0  0  0  0  # atno 7974 bound_to 7965
  156.0595  140.1344  156.9957 H   0  0  0  0  0  0  0  0  0  0  0  0  # atno 8008 bound_to 7997
  154.4475  140.0994  156.6567 H   0  0  0  0  0  0  0  0  0  0  0  0  # atno 8009 bound_to 7997
  155.5399  140.3460  155.4447 H   0  0  0  0  0  0  0  0  0  0  0  0  # atno 8010 bound_to 7997
  139.4866  144.5631  151.7195 H   0  0  0  0  0  0  0  0  0  0  0  0  # atno 10167 bound_to 10162
  157.3943  131.1009  151.0615 H   0  0  0  0  0  0  0  0  0  0  0  0  # atno 10718 bound_to 10713
  153.3296  135.4037  155.1484 H   0  0  0  0  0  0  0  0  0  0  0  0  # atno 10763 bound_to 10752
  154.8620  135.3607  154.5488 H   0  0  0  0  0  0  0  0  0  0  0  0  # atno 10764 bound_to 10752
  153.5926  135.7073  153.5476 H   0  0  0  0  0  0  0  0  0  0  0  0  # atno 10765 bound_to 10752
  141.1644  133.7381  156.8966 H   0  0  0  0  0  0  0  0  0  0  0  0  # atno 11005 bound_to 11000
  145.8252  139.2061  143.1914 LP  0  0  0  0  0  0  0  0  0  0  0  0  # atno 17320 bound_to 7965
  146.0479  140.8099  142.9796 LP  0  0  0  0  0  0  0  0  0  0  0  0  # atno 17321 bound_to 7965
  140.5204  144.0888  150.6021 LP  0  0  0  0  0  0  0  0  0  0  0  0  # atno 17342 bound_to 10162
  140.3844  143.2786  152.0133 LP  0  0  0  0  0  0  0  0  0  0  0  0  # atno 17343 bound_to 10162
  157.1638  130.6237  149.5619 LP  0  0  0  0  0  0  0  0  0  0  0  0  # atno 17370 bound_to 10713
  155.9806  130.4808  150.6783 LP  0  0  0  0  0  0  0  0  0  0  0  0  # atno 17371 bound_to 10713
  140.1611  134.9165  157.2716 LP  0  0  0  0  0  0  0  0  0  0  0  0  # atno 17394 bound_to 11000
  140.2610  134.3571  155.7406 LP  0  0  0  0  0  0  0  0  0  0  0  0  # atno 17395 bound_to 11000

$$$$
