AV-unprocessed.smi:2813|AV-procd|sdf|10838|dock9
  -GOLD-   2272015283D 1   1.00000     0.00000
 Structure written by MMmdl.
 41 42  0  0  0  0  0  0  0  0  1 V2000
  154.4111  140.5341  162.6244 C   0  0  0  0  0  0  0  0  0  0  0  0
  154.1510  139.5177  161.5266 C   0  0  0  0  0  0  0  0  0  0  0  0
  154.0901  140.0334  160.2288 N   0  0  0  0  0  0  0  0  0  0  0  0
  153.8721  139.2420  159.2300 C   0  0  0  0  0  0  0  0  0  0  0  0
  153.6970  137.8597  159.4078 N   0  0  0  0  0  0  0  0  0  0  0  0
  153.4582  137.0697  158.1879 C   0  0  0  0  0  0  0  0  0  0  0  0
  152.2501  137.5965  157.3800 C   0  0  1  0  0  0  0  0  0  0  0  0
  152.0522  136.7287  156.2807 O   0  0  0  0  0  0  0  0  0  0  0  0
  150.9538  137.5816  158.2081 C   0  0  0  0  0  0  0  0  0  0  0  0
  150.9714  138.6825  159.1077 O   0  0  0  0  0  0  0  0  0  0  0  0
  150.9997  139.9571  158.5835 C   0  0  0  0  0  0  0  0  0  0  0  0
  150.4872  140.1226  157.2811 C   0  0  0  0  0  0  0  0  0  0  0  0
  150.4791  141.3885  156.6667 C   0  0  0  0  0  0  0  0  0  0  0  0
  150.9823  142.5080  157.3540 C   0  0  0  0  0  0  0  0  0  0  0  0
  151.4944  142.3663  158.6612 C   0  0  0  0  0  0  0  0  0  0  0  0
  152.0479  143.5702  159.4098 C   0  0  0  0  0  0  0  0  0  0  0  0
  153.0077  144.1643  158.6997 F   0  0  0  0  0  0  0  0  0  0  0  0
  151.0656  144.4454  159.6200 F   0  0  0  0  0  0  0  0  0  0  0  0
  152.5623  143.2128  160.5869 F   0  0  0  0  0  0  0  0  0  0  0  0
  151.5075  141.0908  159.2672 C   0  0  0  0  0  0  0  0  0  0  0  0
  153.7319  137.2758  160.6407 C   0  0  0  0  0  0  0  0  0  0  0  0
  153.5622  136.0638  160.7869 O   0  0  0  0  0  0  0  0  0  0  0  0
  153.9821  138.1888  161.7679 C   0  0  0  0  0  0  0  0  0  0  0  0
  154.0359  137.5708  163.1595 C   0  0  0  0  0  0  0  0  0  0  0  0
  155.3248  140.2875  163.1659 H   0  0  0  0  0  0  0  0  0  0  0  0
  153.5803  140.5533  163.3305 H   0  0  0  0  0  0  0  0  0  0  0  0
  154.5265  141.5391  162.2162 H   0  0  0  0  0  0  0  0  0  0  0  0
  153.8081  139.5951  158.1993 H   0  0  0  0  0  0  0  0  0  0  0  0
  154.3468  137.0095  157.5557 H   0  0  0  0  0  0  0  0  0  0  0  0
  153.2759  136.0358  158.4860 H   0  0  0  0  0  0  0  0  0  0  0  0
  152.4416  138.6100  157.0250 H   0  0  0  0  0  0  0  0  0  0  0  0
  151.2811  137.0078  155.8111 H   0  0  0  0  0  0  0  0  0  0  0  0
  150.0774  137.6034  157.5576 H   0  0  0  0  0  0  0  0  0  0  0  0
  150.9085  136.6651  158.7987 H   0  0  0  0  0  0  0  0  0  0  0  0
  150.0979  139.2688  156.7458 H   0  0  0  0  0  0  0  0  0  0  0  0
  150.0870  141.4998  155.6665 H   0  0  0  0  0  0  0  0  0  0  0  0
  150.9743  143.4738  156.8707 H   0  0  0  0  0  0  0  0  0  0  0  0
  151.9158  141.0042  160.2623 H   0  0  0  0  0  0  0  0  0  0  0  0
  153.0889  137.0821  163.3905 H   0  0  0  0  0  0  0  0  0  0  0  0
  154.2299  138.2985  163.9458 H   0  0  0  0  0  0  0  0  0  0  0  0
  154.8253  136.8199  163.2070 H   0  0  0  0  0  0  0  0  0  0  0  0
  1  2  1  0  0  0  0
  1 25  1  0  0  0  0
  1 26  1  0  0  0  0
  1 27  1  0  0  0  0
  2 23  2  0  0  0  0
  2  3  1  0  0  0  0
  3  4  2  0  0  0  0
  4  5  1  0  0  0  0
  4 28  1  0  0  0  0
  5  6  1  0  0  0  0
  5 21  1  0  0  0  0
  6  7  1  0  0  0  0
  6 29  1  0  0  0  0
  6 30  1  0  0  0  0
  7  8  1  0  0  0  0
  7  9  1  0  0  0  0
  7 31  1  0  0  0  0
  8 32  1  0  0  0  0
  9 10  1  0  0  0  0
  9 33  1  0  0  0  0
  9 34  1  0  0  0  0
 10 11  1  0  0  0  0
 11 20  1  0  0  0  0
 11 12  2  0  0  0  0
 12 13  1  0  0  0  0
 12 35  1  0  0  0  0
 13 14  2  0  0  0  0
 13 36  1  0  0  0  0
 14 15  1  0  0  0  0
 14 37  1  0  0  0  0
 15 16  1  0  0  0  0
 15 20  2  0  0  0  0
 16 17  1  0  0  0  0
 16 18  1  0  0  0  0
 16 19  1  0  0  0  0
 20 38  1  0  0  0  0
 21 22  2  0  0  0  0
 21 23  1  0  0  0  0
 23 24  1  0  0  0  0
 24 39  1  0  0  0  0
 24 40  1  0  0  0  0
 24 41  1  0  0  0  0
M  END
> <s_m_source_file>
AV-unprocessed.smi

> <i_m_source_file_index>
2813

> <i_lp_mmshare_version>
43012

> <i_f3d_flags>
0

> <s_epik_input>
W0NIM11jMW5bY0hdbihjKD1PKWMxW0NIM10pW0NIMl1bQ0BIXShbT0hdKVtDSDJdT2MyW2NIXVtjSF1bY0hdYyhDKEYpKEYpRilbY0hdMg==

> <s_epik_cmdline>
J2VwaWtfcHl0aG9uJywgJy1waCcsICc3LjAnLCAnLXRuJywgJzgnLCAnLW1hJywgJzIwMCcsICctbWV0YWxfYmluZGluZycsICctaW1hZScsICc8aW5maWxlLm1hZT4nLCAnLW9tYWUnLCAnPG91dGZpbGUubWFlPic=

> <r_lp_tautomer_probability>
1

> <r_epik_Ionization_Penalty>
3.72236e-05

> <r_epik_Ionization_Penalty_Charging>
8.38864e-08

> <r_epik_Ionization_Penalty_Neutral>
3.71397e-05

> <r_epik_State_Penalty>
-0

> <r_epik_Charging_Adjusted_Penalty>
8.38864e-08

> <i_epik_Tot_Q>
0

> <i_epik_Tot_abs_Q>
0

> <r_epik_Metal_State_Penalty>
-0

> <b_epik_Metal_Only>
0

> <s_lp_Force_Field>
OPLS_2005

> <r_lp_Energy>
24.625

> <b_lp_Chiralities_Consistent>
1

> <s_lp_Variant>
AV-unprocessed.smi:2813-2

> <Gold.Version>
5.8.1

> <Gold.Id.Protein>
6NUR|6NUR_protein|mol2

> <Gold.PLP.Fitness>
46.2325

> <Gold.PLP.PLP>
-41.8235

> <Gold.PLP.part.hbond>
-2.0000

> <Gold.PLP.part.metal>
0.0000

> <Gold.PLP.part.buried>
-4.8519

> <Gold.PLP.part.nonpolar>
-34.6107

> <Gold.PLP.part.repulsive>
0.0000

> <Gold.PLP.ligand.clash>
1.5477

> <Gold.PLP.ligand.torsion>
0.5367

> <Gold.PLP.Chemscore.Hbond>
2.0000

> <Gold.PLP.Chemscore.CHOScore>
0.0000

> <Gold.PLP.Chemscore.Metal>
0.0000

> <Gold.Chemscore.Hbonds>
donor molecule, donor type, donor heavy atom, donor atom, acceptor molecule, acceptor atom, score
      P1  H  6896  6909       L1    22  1.00
      P1  H 10752 10764       L1     8  0.83

> <Gold.PLP.Chemscore.Internal.Correction>
1.0301

> <Gold.Rescore>
     Score         DG    S(hbond)    S(metal)    S(lipo)     H(rot)  DE(clash)    DE(int)     intcor
     13.54     -15.35       1.90        0.00      89.91       2.73       0.07       1.74       ----

> <Gold.Chemscore.Fitness>
13.5370

> <Gold.Chemscore.DG>
-15.3487

> <Gold.Chemscore.ZeroCoef>
-5.4800

> <Gold.Chemscore.Hbond>
1.8977

> <Gold.Chemscore.Metal>
0.0000

> <Gold.Chemscore.Lipo>
89.9073

> <Gold.Chemscore.Internal_Hbond>
0.0000

> <Gold.Chemscore.DEClash>
0.0672

> <Gold.Chemscore.DEInternal>
1.7445

> <Gold.Chemscore.Rot>
2.7300

> <Gold.Chemscore.Internal.Correction>
   9.000000E+99

> <Gold.Chemscore.Hbonds>
donor molecule, donor type, donor heavy atom, donor atom, acceptor molecule, acceptor atom, score
      P1  H  6896  6909       L1    22  1.00
      P1  H 10752 10764       L1     8  0.70

> <Gold.Chemscore.Hbond.Weighted>
-6.3383

> <Gold.Chemscore.Metal.Weighted>
-0.0000

> <Gold.Chemscore.Lipo.Weighted>
-10.5192

> <Gold.Chemscore.Internal_Hbond.Weighted>
0.0000

> <Gold.Chemscore.DEClash.Weighted>
0.0672

> <Gold.Chemscore.DEInternal.Weighted>
1.7445

> <Gold.Chemscore.Rot.Weighted>
6.9888

> <Gold.Chemscore.Internal.Correction.Weighted>
   9.000000E+99

> <Gold.Protein.RotatedTorsions>
[ 6907 6896 6895 6894 ] final  160.81 input  -60.11 | X-H torsion
[ 7974 7965 7964 7962 ] final  103.37 input  175.53 | X-H torsion
[ 8008 7997 7996 7995 ] final   75.22 input   59.86 | X-H torsion
[ 10167 10162 10161 10158 ] final  168.27 input  -65.29 | X-H torsion
[ 10718 10713 10712 10709 ] final  -48.83 input   66.30 | X-H torsion
[ 10763 10752 10751 10750 ] final  -15.46 input  -60.55 | X-H torsion
[ 11005 11000 10999 10996 ] final -118.65 input  -57.11 | X-H torsion

> <Gold.Protein.ActiveResidues>
 VAL166  LYS551  ARG553  GLY616  TRP617  ASP618  TYR619  PRO620  LYS621  CYS622 
 ASP623  PHE694  ASN695  SER759  ASP760  ASP761  ALA762  ILE779  LEU786  VAL792 
 PHE793  MET794  SER795  GLU796  ALA797  LYS798  CYS799  TRP800  GLU811  SER814 

> <Gold.Protein.RotatedAtoms>
  151.9651  133.3707  159.4049 H   0  0  0  0  0  0  0  0  0  0  0  0  # atno 6907 bound_to 6896
  150.6958  134.4199  159.5209 H   0  0  0  0  0  0  0  0  0  0  0  0  # atno 6908 bound_to 6896
  152.1894  134.8685  160.0569 H   0  0  0  0  0  0  0  0  0  0  0  0  # atno 6909 bound_to 6896
  145.3468  139.2449  143.3579 H   0  0  0  0  0  0  0  0  0  0  0  0  # atno 7974 bound_to 7965
  155.8098  140.3473  155.5451 H   0  0  0  0  0  0  0  0  0  0  0  0  # atno 8008 bound_to 7997
  155.8453  140.0948  157.1729 H   0  0  0  0  0  0  0  0  0  0  0  0  # atno 8009 bound_to 7997
  154.4006  140.1387  156.3765 H   0  0  0  0  0  0  0  0  0  0  0  0  # atno 8010 bound_to 7997
  139.4964  144.3832  151.9599 H   0  0  0  0  0  0  0  0  0  0  0  0  # atno 10167 bound_to 10162
  156.1950  130.4154  149.9319 H   0  0  0  0  0  0  0  0  0  0  0  0  # atno 10718 bound_to 10713
  153.5437  135.7013  153.5624 H   0  0  0  0  0  0  0  0  0  0  0  0  # atno 10763 bound_to 10752
  153.3579  135.3977  155.1696 H   0  0  0  0  0  0  0  0  0  0  0  0  # atno 10764 bound_to 10752
  154.8670  135.3781  154.4943 H   0  0  0  0  0  0  0  0  0  0  0  0  # atno 10765 bound_to 10752
  141.0271  134.0037  157.3198 H   0  0  0  0  0  0  0  0  0  0  0  0  # atno 11005 bound_to 11000
  146.2984  140.4076  142.8713 LP  0  0  0  0  0  0  0  0  0  0  0  0  # atno 17320 bound_to 7965
  144.8748  140.7321  143.6024 LP  0  0  0  0  0  0  0  0  0  0  0  0  # atno 17321 bound_to 7965
  140.3269  144.3362  150.5996 LP  0  0  0  0  0  0  0  0  0  0  0  0  # atno 17342 bound_to 10162
  140.5677  143.2184  151.7654 LP  0  0  0  0  0  0  0  0  0  0  0  0  # atno 17343 bound_to 10162
  156.7047  130.8946  151.3603 LP  0  0  0  0  0  0  0  0  0  0  0  0  # atno 17370 bound_to 10713
  157.6952  130.9274  150.0625 LP  0  0  0  0  0  0  0  0  0  0  0  0  # atno 17371 bound_to 10713
  139.9183  135.0199  156.7967 LP  0  0  0  0  0  0  0  0  0  0  0  0  # atno 17394 bound_to 11000
  140.6472  133.9764  155.7737 LP  0  0  0  0  0  0  0  0  0  0  0  0  # atno 17395 bound_to 11000

$$$$
