AV-unprocessed.smi:2105|AV-procd|sdf|8592|dock9
  -GOLD-   2272011323D 1   1.00000     0.00000
 Structure written by MMmdl.
 43 44  0  0  0  0  0  0  0  0  2 V2000
  151.6191  142.4355  154.8837 C   0  0  0  0  0  0  0  0  0  0  0  0
  151.8456  140.9284  154.8377 C   0  0  0  0  0  0  0  0  0  0  0  0
  152.6143  140.3945  155.6365 O   0  0  0  0  0  0  0  0  0  0  0  0
  151.1686  140.2548  153.8954 N   0  0  0  0  0  0  0  0  0  0  0  0
  151.2270  138.8115  153.6860 C   0  0  0  0  0  0  0  0  0  0  0  0
  150.7055  138.0251  154.9049 C   0  0  0  0  0  0  0  0  0  0  0  0
  149.6071  137.1302  154.5541 N   0  0  0  0  0  0  0  0  0  0  0  0
  149.0157  136.2685  155.3934 C   0  0  0  0  0  0  0  0  0  0  0  0
  149.3356  136.1406  156.5751 O   0  0  0  0  0  0  0  0  0  0  0  0
  148.0553  135.5633  154.7725 N   0  0  0  0  0  0  0  0  0  0  0  0
  147.2266  134.5410  155.3169 C   0  0  0  0  0  0  0  0  0  0  0  0
  147.4919  133.9821  156.5938 C   0  0  0  0  0  0  0  0  0  0  0  0
  146.6692  132.9577  157.0983 C   0  0  0  0  0  0  0  0  0  0  0  0
  145.5885  132.5089  156.3208 C   0  0  0  0  0  0  0  0  0  0  0  0
  145.3489  133.0745  155.1198 N   0  3  0  0  0  0  0  0  0  0  0  0
  146.0950  134.0740  154.5859 C   0  0  0  0  0  0  0  0  0  0  0  0
  145.7125  134.5773  153.3213 N   0  0  0  0  0  0  0  0  0  0  0  0
  145.8505  133.7528  152.1263 C   0  0  0  0  0  0  0  0  0  0  0  0
  145.0371  134.4720  151.0538 C   0  0  0  0  0  0  0  0  0  0  0  0
  143.8758  135.0504  151.8566 C   0  0  0  0  0  0  0  0  0  0  0  0
  144.5027  135.3866  153.2142 C   0  0  0  0  0  0  0  0  0  0  0  0
  151.8001  142.8808  153.9051 H   0  0  0  0  0  0  0  0  0  0  0  0
  152.2911  142.9066  155.6018 H   0  0  0  0  0  0  0  0  0  0  0  0
  150.5935  142.6559  155.1806 H   0  0  0  0  0  0  0  0  0  0  0  0
  150.5576  140.7789  153.2858 H   0  0  0  0  0  0  0  0  0  0  0  0
  150.6338  138.5564  152.8064 H   0  0  0  0  0  0  0  0  0  0  0  0
  152.2526  138.5284  153.4477 H   0  0  0  0  0  0  0  0  0  0  0  0
  151.5043  137.4430  155.3654 H   0  0  0  0  0  0  0  0  0  0  0  0
  150.3646  138.7233  155.6711 H   0  0  0  0  0  0  0  0  0  0  0  0
  149.2826  137.1672  153.5989 H   0  0  0  0  0  0  0  0  0  0  0  0
  147.9765  135.7041  153.7760 H   0  0  0  0  0  0  0  0  0  0  0  0
  148.3147  134.3286  157.2004 H   0  0  0  0  0  0  0  0  0  0  0  0
  146.8665  132.5228  158.0675 H   0  0  0  0  0  0  0  0  0  0  0  0
  144.9072  131.7269  156.6233 H   0  0  0  0  0  0  0  0  0  0  0  0
  146.8956  133.6423  151.8358 H   0  0  0  0  0  0  0  0  0  0  0  0
  145.4324  132.7601  152.2974 H   0  0  0  0  0  0  0  0  0  0  0  0
  145.6266  135.2792  150.6162 H   0  0  0  0  0  0  0  0  0  0  0  0
  144.7149  133.8110  150.2487 H   0  0  0  0  0  0  0  0  0  0  0  0
  143.4141  135.9142  151.3770 H   0  0  0  0  0  0  0  0  0  0  0  0
  143.1066  134.2878  151.9865 H   0  0  0  0  0  0  0  0  0  0  0  0
  143.8056  135.1942  154.0311 H   0  0  0  0  0  0  0  0  0  0  0  0
  144.7815  136.4404  153.2440 H   0  0  0  0  0  0  0  0  0  0  0  0
  144.5507  132.7338  154.5838 H   0  0  0  0  0  0  0  0  0  0  0  0
  1  2  1  0  0  0  0
  1 22  1  0  0  0  0
  1 23  1  0  0  0  0
  1 24  1  0  0  0  0
  2  3  2  0  0  0  0
  2  4  1  0  0  0  0
  4  5  1  0  0  0  0
  4 25  1  0  0  0  0
  5  6  1  0  0  0  0
  5 26  1  0  0  0  0
  5 27  1  0  0  0  0
  6  7  1  0  0  0  0
  6 28  1  0  0  0  0
  6 29  1  0  0  0  0
  7  8  1  0  0  0  0
  7 30  1  0  0  0  0
  8  9  2  0  0  0  0
  8 10  1  0  0  0  0
 10 11  1  0  0  0  0
 10 31  1  0  0  0  0
 11 16  1  0  0  0  0
 11 12  2  0  0  0  0
 12 13  1  0  0  0  0
 12 32  1  0  0  0  0
 13 14  2  0  0  0  0
 13 33  1  0  0  0  0
 14 15  1  0  0  0  0
 14 34  1  0  0  0  0
 15 16  2  0  0  0  0
 15 43  1  0  0  0  0
 16 17  1  0  0  0  0
 17 21  1  0  0  0  0
 17 18  1  0  0  0  0
 18 19  1  0  0  0  0
 18 35  1  0  0  0  0
 18 36  1  0  0  0  0
 19 20  1  0  0  0  0
 19 37  1  0  0  0  0
 19 38  1  0  0  0  0
 20 21  1  0  0  0  0
 20 39  1  0  0  0  0
 20 40  1  0  0  0  0
 21 41  1  0  0  0  0
 21 42  1  0  0  0  0
M  CHG  1  15   1
M  END
> <s_m_source_file>
AV-unprocessed.smi

> <i_m_source_file_index>
2105

> <i_lp_mmshare_version>
43012

> <i_f3d_flags>
0

> <s_epik_input>
W0NIM11DKD1PKVtOSF1bQ0gyXVtDSDJdW05IXUMoPU8pW05IXWMxW2NIXVtjSF1bY0hdbmMxTjJbQ0gyXVtDSDJdW0NIMl1bQ0gyXTI=

> <s_epik_cmdline>
J2VwaWtfcHl0aG9uJywgJy1waCcsICc3LjAnLCAnLXRuJywgJzgnLCAnLW1hJywgJzIwMCcsICctbWV0YWxfYmluZGluZycsICctaW1hZScsICc8aW5maWxlLm1hZT4nLCAnLW9tYWUnLCAnPG91dGZpbGUubWFlPic=

> <r_lp_tautomer_probability>
0.999994

> <r_epik_Ionization_Penalty>
1.12691

> <r_epik_Ionization_Penalty_Charging>
1.12689

> <r_epik_Ionization_Penalty_Neutral>
1.95207e-05

> <r_epik_State_Penalty>
1.18624

> <r_epik_Charging_Adjusted_Penalty>
2.31313

> <i_epik_Tot_Q>
1

> <i_epik_Tot_abs_Q>
1

> <r_epik_Metal_State_Penalty>
1.26987

> <b_epik_Metal_Only>
0

> <s_lp_Force_Field>
OPLS_2005

> <r_lp_Energy>
38.5687

> <b_lp_Chiralities_Consistent>
1

> <s_lp_Variant>
AV-unprocessed.smi:2105-2

> <Gold.Version>
5.8.1

> <Gold.Id.Protein>
6NUR|6NUR_protein|mol2

> <Gold.PLP.Fitness>
44.3981

> <Gold.PLP.PLP>
-35.3360

> <Gold.PLP.part.hbond>
-4.9881

> <Gold.PLP.part.metal>
0.0000

> <Gold.PLP.part.buried>
-2.3483

> <Gold.PLP.part.nonpolar>
-26.6535

> <Gold.PLP.part.repulsive>
0.4119

> <Gold.PLP.ligand.clash>
0.0000

> <Gold.PLP.ligand.torsion>
0.6058

> <Gold.PLP.Chemscore.Hbond>
3.2969

> <Gold.PLP.Chemscore.CHOScore>
0.0000

> <Gold.PLP.Chemscore.Metal>
0.0000

> <Gold.Chemscore.Hbonds>
donor molecule, donor type, donor heavy atom, donor atom, acceptor molecule, acceptor atom, score
      L1  H     4    25       P1  7957  0.01
      L1  H     7    30       P1  7948  0.98
      L1  H    10    31       P1  7948  0.55
      L1  H    15    43       P1 10957  1.32
      P1  H  7997  8008       L1     3  0.66

> <Gold.PLP.Chemscore.Internal.Correction>
0.3831

> <Gold.Rescore>
     Score         DG    S(hbond)    S(metal)    S(lipo)     H(rot)  DE(clash)    DE(int)     intcor
     12.29     -14.49       2.31        0.00      54.44       1.98       0.05       2.15       ----

> <Gold.Chemscore.Fitness>
12.2935

> <Gold.Chemscore.DG>
-14.4933

> <Gold.Chemscore.ZeroCoef>
-5.4800

> <Gold.Chemscore.Hbond>
2.3060

> <Gold.Chemscore.Metal>
0.0000

> <Gold.Chemscore.Lipo>
54.4432

> <Gold.Chemscore.Internal_Hbond>
0.0000

> <Gold.Chemscore.DEClash>
0.0545

> <Gold.Chemscore.DEInternal>
2.1453

> <Gold.Chemscore.Rot>
1.9760

> <Gold.Chemscore.Internal.Correction>
   9.000000E+99

> <Gold.Chemscore.Hbonds>
donor molecule, donor type, donor heavy atom, donor atom, acceptor molecule, acceptor atom, score
      L1  H     4    25       P1  7957  0.04
      L1  H     7    30       P1  7948  0.90
      L1  H    10    31       P1  7948  0.52
      L1  H    15    43       P1 10957  0.61
      P1  H  7997  8008       L1     3  0.65

> <Gold.Chemscore.Hbond.Weighted>
-7.7020

> <Gold.Chemscore.Metal.Weighted>
-0.0000

> <Gold.Chemscore.Lipo.Weighted>
-6.3698

> <Gold.Chemscore.Internal_Hbond.Weighted>
0.0000

> <Gold.Chemscore.DEClash.Weighted>
0.0545

> <Gold.Chemscore.DEInternal.Weighted>
2.1453

> <Gold.Chemscore.Rot.Weighted>
5.0585

> <Gold.Chemscore.Internal.Correction.Weighted>
   9.000000E+99

> <Gold.Protein.RotatedTorsions>
[ 6907 6896 6895 6894 ] final  -13.36 input  -60.11 | X-H torsion
[ 7974 7965 7964 7962 ] final   32.03 input  175.53 | X-H torsion
[ 8008 7997 7996 7995 ] final  -55.64 input   59.86 | X-H torsion
[ 10167 10162 10161 10158 ] final   60.70 input  -65.29 | X-H torsion
[ 10718 10713 10712 10709 ] final  -30.46 input   66.30 | X-H torsion
[ 10763 10752 10751 10750 ] final  -38.65 input  -60.55 | X-H torsion
[ 11005 11000 10999 10996 ] final   33.02 input  -57.11 | X-H torsion

> <Gold.Protein.ActiveResidues>
 VAL166  LYS551  ARG553  GLY616  TRP617  ASP618  TYR619  PRO620  LYS621  CYS622 
 ASP623  PHE694  ASN695  SER759  ASP760  ASP761  ALA762  ILE779  LEU786  VAL792 
 PHE793  MET794  SER795  GLU796  ALA797  LYS798  CYS799  TRP800  GLU811  SER814 

> <Gold.Protein.RotatedAtoms>
  151.3561  135.0894  159.9418 H   0  0  0  0  0  0  0  0  0  0  0  0  # atno 6907 bound_to 6896
  152.5174  133.9304  159.7588 H   0  0  0  0  0  0  0  0  0  0  0  0  # atno 6908 bound_to 6896
  150.9689  133.6311  159.2771 H   0  0  0  0  0  0  0  0  0  0  0  0  # atno 6909 bound_to 6896
  146.1512  139.6578  142.9097 H   0  0  0  0  0  0  0  0  0  0  0  0  # atno 7974 bound_to 7965
  154.4202  140.1148  156.5509 H   0  0  0  0  0  0  0  0  0  0  0  0  # atno 8008 bound_to 7997
  155.6411  140.3496  155.4696 H   0  0  0  0  0  0  0  0  0  0  0  0  # atno 8009 bound_to 7997
  155.9870  140.1172  157.0663 H   0  0  0  0  0  0  0  0  0  0  0  0  # atno 8010 bound_to 7997
  140.1627  144.4354  150.6701 H   0  0  0  0  0  0  0  0  0  0  0  0  # atno 10167 bound_to 10162
  156.3995  130.4387  149.7333 H   0  0  0  0  0  0  0  0  0  0  0  0  # atno 10718 bound_to 10713
  153.9164  135.6787  153.4749 H   0  0  0  0  0  0  0  0  0  0  0  0  # atno 10763 bound_to 10752
  153.1051  135.4809  154.8935 H   0  0  0  0  0  0  0  0  0  0  0  0  # atno 10764 bound_to 10752
  154.7501  135.3182  154.8530 H   0  0  0  0  0  0  0  0  0  0  0  0  # atno 10765 bound_to 10752
  140.2674  134.3121  155.7838 H   0  0  0  0  0  0  0  0  0  0  0  0  # atno 11005 bound_to 11000
  145.4818  141.0438  143.2641 LP  0  0  0  0  0  0  0  0  0  0  0  0  # atno 17320 bound_to 7965
  144.7906  139.6335  143.7115 LP  0  0  0  0  0  0  0  0  0  0  0  0  # atno 17321 bound_to 7965
  140.6632  143.2259  151.5805 LP  0  0  0  0  0  0  0  0  0  0  0  0  # atno 17342 bound_to 10162
  139.5373  144.2744  152.1279 LP  0  0  0  0  0  0  0  0  0  0  0  0  # atno 17343 bound_to 10162
  156.4355  130.7836  151.2856 LP  0  0  0  0  0  0  0  0  0  0  0  0  # atno 17370 bound_to 10713
  157.7503  131.0141  150.3450 LP  0  0  0  0  0  0  0  0  0  0  0  0  # atno 17371 bound_to 10713
  141.2182  133.7446  156.9282 LP  0  0  0  0  0  0  0  0  0  0  0  0  # atno 17394 bound_to 11000
  140.1405  134.9296  157.2461 LP  0  0  0  0  0  0  0  0  0  0  0  0  # atno 17395 bound_to 11000

$$$$
