AV-unprocessed.smi:3028|AV-procd|sdf|11523|dock7
  -GOLD-   2272016463D 1   1.00000     0.00000
 Structure written by MMmdl.
 47 48  0  0  0  0  0  0  0  0  1 V2000
  152.7740  145.2381  158.5579 C   0  0  0  0  0  0  0  0  0  0  0  0
  152.3756  143.8138  158.2986 C   0  0  0  0  0  0  0  0  0  0  0  0
  152.7637  142.6523  159.0239 C   0  0  0  0  0  0  0  0  0  0  0  0
  152.2368  141.5427  158.5350 N   0  0  0  0  0  0  0  0  0  0  0  0
  151.4876  141.9507  157.4853 N   0  0  0  0  0  0  0  0  0  0  0  0
  150.7576  140.9831  156.6691 C   0  0  2  0  0  0  0  0  0  0  0  0
  151.6651  139.8342  156.1897 C   0  0  0  0  0  0  0  0  0  0  0  0
  149.9126  141.6405  155.5395 C   0  0  1  0  0  0  0  0  0  0  0  0
  149.3510  140.6025  154.5528 C   0  0  0  0  0  0  0  0  0  0  0  0
  148.7681  142.3786  156.0670 N   0  0  0  0  0  0  0  0  0  0  0  0
  147.6843  141.5119  156.5485 C   0  0  0  0  0  0  0  0  0  0  0  0
  146.3049  142.1844  156.4648 C   0  0  0  0  0  0  0  0  0  0  0  0
  145.2966  141.5839  156.8349 O   0  0  0  0  0  0  0  0  0  0  0  0
  146.2155  143.4376  155.9887 N   0  0  0  0  0  0  0  0  0  0  0  0
  145.0125  144.2512  155.8273 C   0  0  0  0  0  0  0  0  0  0  0  0
  144.8537  144.6471  154.3519 C   0  0  0  0  0  0  0  0  0  0  0  0
  143.6871  145.6327  154.1753 C   0  0  0  0  0  0  0  0  0  0  0  0
  143.8890  146.7774  154.9972 O   0  0  0  0  0  0  0  0  0  0  0  0
  143.9222  146.4647  156.3858 C   0  0  0  0  0  0  0  0  0  0  0  0
  145.0997  145.5234  156.6870 C   0  0  0  0  0  0  0  0  0  0  0  0
  151.5625  143.3186  157.3188 C   0  0  0  0  0  0  0  0  0  0  0  0
  153.7181  145.3017  159.0994 H   0  0  0  0  0  0  0  0  0  0  0  0
  152.0258  145.7616  159.1534 H   0  0  0  0  0  0  0  0  0  0  0  0
  152.8979  145.7982  157.6310 H   0  0  0  0  0  0  0  0  0  0  0  0
  153.4111  142.5831  159.8858 H   0  0  0  0  0  0  0  0  0  0  0  0
  150.0392  140.5123  157.3418 H   0  0  0  0  0  0  0  0  0  0  0  0
  151.0978  139.0986  155.6191 H   0  0  0  0  0  0  0  0  0  0  0  0
  152.1135  139.3158  157.0376 H   0  0  0  0  0  0  0  0  0  0  0  0
  152.4804  140.1892  155.5597 H   0  0  0  0  0  0  0  0  0  0  0  0
  150.5542  142.3089  154.9626 H   0  0  0  0  0  0  0  0  0  0  0  0
  150.1502  140.0007  154.1199 H   0  0  0  0  0  0  0  0  0  0  0  0
  148.8274  141.0888  153.7289 H   0  0  0  0  0  0  0  0  0  0  0  0
  148.6462  139.9222  155.0323 H   0  0  0  0  0  0  0  0  0  0  0  0
  148.4447  143.0311  155.3657 H   0  0  0  0  0  0  0  0  0  0  0  0
  147.6602  140.5943  155.9635 H   0  0  0  0  0  0  0  0  0  0  0  0
  147.8820  141.2354  157.5847 H   0  0  0  0  0  0  0  0  0  0  0  0
  147.0819  143.8758  155.7112 H   0  0  0  0  0  0  0  0  0  0  0  0
  144.1247  143.6872  156.1149 H   0  0  0  0  0  0  0  0  0  0  0  0
  145.7722  145.1123  153.9905 H   0  0  0  0  0  0  0  0  0  0  0  0
  144.6902  143.7607  153.7379 H   0  0  0  0  0  0  0  0  0  0  0  0
  143.6226  145.9530  153.1355 H   0  0  0  0  0  0  0  0  0  0  0  0
  142.7359  145.1580  154.4216 H   0  0  0  0  0  0  0  0  0  0  0  0
  144.0294  147.3902  156.9518 H   0  0  0  0  0  0  0  0  0  0  0  0
  142.9766  146.0136  156.6905 H   0  0  0  0  0  0  0  0  0  0  0  0
  145.1114  145.2704  157.7474 H   0  0  0  0  0  0  0  0  0  0  0  0
  146.0353  146.0459  156.4814 H   0  0  0  0  0  0  0  0  0  0  0  0
  151.0357  143.8228  156.5220 H   0  0  0  0  0  0  0  0  0  0  0  0
  1  2  1  0  0  0  0
  1 22  1  0  0  0  0
  1 23  1  0  0  0  0
  1 24  1  0  0  0  0
  2 21  2  0  0  0  0
  2  3  1  0  0  0  0
  3  4  2  0  0  0  0
  3 25  1  0  0  0  0
  4  5  1  0  0  0  0
  5  6  1  0  0  0  0
  5 21  1  0  0  0  0
  6  7  1  0  0  0  0
  6  8  1  0  0  0  0
  6 26  1  0  0  0  0
  7 27  1  0  0  0  0
  7 28  1  0  0  0  0
  7 29  1  0  0  0  0
  8  9  1  0  0  0  0
  8 10  1  0  0  0  0
  8 30  1  0  0  0  0
  9 31  1  0  0  0  0
  9 32  1  0  0  0  0
  9 33  1  0  0  0  0
 10 11  1  0  0  0  0
 10 34  1  0  0  0  0
 11 12  1  0  0  0  0
 11 35  1  0  0  0  0
 11 36  1  0  0  0  0
 12 13  2  0  0  0  0
 12 14  1  0  0  0  0
 14 15  1  0  0  0  0
 14 37  1  0  0  0  0
 15 20  1  0  0  0  0
 15 16  1  0  0  0  0
 15 38  1  0  0  0  0
 16 17  1  0  0  0  0
 16 39  1  0  0  0  0
 16 40  1  0  0  0  0
 17 18  1  0  0  0  0
 17 41  1  0  0  0  0
 17 42  1  0  0  0  0
 18 19  1  0  0  0  0
 19 20  1  0  0  0  0
 19 43  1  0  0  0  0
 19 44  1  0  0  0  0
 20 45  1  0  0  0  0
 20 46  1  0  0  0  0
 21 47  1  0  0  0  0
M  END
> <s_m_source_file>
AV-unprocessed.smi

> <i_m_source_file_index>
3028

> <i_lp_mmshare_version>
43012

> <i_f3d_flags>
0

> <s_epik_input>
W0NIM11jMVtjSF1ubihbY0hdMSlbQ0BIXShbQ0gzXSlbQ0BIXShbQ0gzXSlbTkhdW0NIMl1DKD1PKVtOSF1bQ0hdMltDSDJdW0NIMl1PW0NIMl1bQ0gyXTI=

> <s_epik_cmdline>
J2VwaWtfcHl0aG9uJywgJy1waCcsICc3LjAnLCAnLXRuJywgJzgnLCAnLW1hJywgJzIwMCcsICctbWV0YWxfYmluZGluZycsICctaW1hZScsICc8aW5maWxlLm1hZT4nLCAnLW9tYWUnLCAnPG91dGZpbGUubWFlPic=

> <r_lp_tautomer_probability>
1

> <r_epik_Ionization_Penalty>
0.88617

> <r_epik_Ionization_Penalty_Charging>
0

> <r_epik_Ionization_Penalty_Neutral>
0.88617

> <r_epik_State_Penalty>
0.921066

> <r_epik_Charging_Adjusted_Penalty>
0.921066

> <i_epik_Tot_Q>
0

> <i_epik_Tot_abs_Q>
0

> <r_epik_Metal_State_Penalty>
0.917309

> <b_epik_Metal_Only>
0

> <s_lp_Force_Field>
OPLS_2005

> <r_lp_Energy>
19.7658

> <b_lp_Chiralities_Consistent>
1

> <s_lp_Variant>
AV-unprocessed.smi:3028-7

> <Gold.Version>
5.8.1

> <Gold.Id.Protein>
6NUR|6NUR_protein|mol2

> <Gold.PLP.Fitness>
43.1194

> <Gold.PLP.PLP>
-39.7196

> <Gold.PLP.part.hbond>
-1.4677

> <Gold.PLP.part.metal>
0.0000

> <Gold.PLP.part.buried>
-4.0093

> <Gold.PLP.part.nonpolar>
-33.6722

> <Gold.PLP.part.repulsive>
0.0732

> <Gold.PLP.ligand.clash>
0.0000

> <Gold.PLP.ligand.torsion>
0.5335

> <Gold.PLP.Chemscore.Hbond>
0.4000

> <Gold.PLP.Chemscore.CHOScore>
1.0000

> <Gold.PLP.Chemscore.Metal>
0.0000

> <Gold.Chemscore.Hbonds>
donor molecule, donor type, donor heavy atom, donor atom, acceptor molecule, acceptor atom, score
      L1  H    10    34       P1  8028  0.32
      L1  C    21    47       P1  8028  1.00

> <Gold.PLP.Chemscore.Internal.Correction>
0.2667

> <Gold.Rescore>
     Score         DG    S(hbond)    S(metal)    S(lipo)     H(rot)  DE(clash)    DE(int)     intcor
     13.32     -14.28       0.54        0.00     101.79       1.92       0.12       0.84       ----

> <Gold.Chemscore.Fitness>
13.3212

> <Gold.Chemscore.DG>
-14.2770

> <Gold.Chemscore.ZeroCoef>
-5.4800

> <Gold.Chemscore.Hbond>
0.5422

> <Gold.Chemscore.Metal>
0.0000

> <Gold.Chemscore.Lipo>
101.7917

> <Gold.Chemscore.Internal_Hbond>
0.0000

> <Gold.Chemscore.DEClash>
0.1185

> <Gold.Chemscore.DEInternal>
0.8373

> <Gold.Chemscore.Rot>
1.9233

> <Gold.Chemscore.Internal.Correction>
   9.000000E+99

> <Gold.Chemscore.Hbonds>
donor molecule, donor type, donor heavy atom, donor atom, acceptor molecule, acceptor atom, score
      L1  H    10    34       P1  8028  0.32

> <Gold.Chemscore.Hbond.Weighted>
-1.8109

> <Gold.Chemscore.Metal.Weighted>
-0.0000

> <Gold.Chemscore.Lipo.Weighted>
-11.9096

> <Gold.Chemscore.Internal_Hbond.Weighted>
0.0000

> <Gold.Chemscore.DEClash.Weighted>
0.1185

> <Gold.Chemscore.DEInternal.Weighted>
0.8373

> <Gold.Chemscore.Rot.Weighted>
4.9235

> <Gold.Chemscore.Internal.Correction.Weighted>
   9.000000E+99

> <Gold.Protein.RotatedTorsions>
[ 6907 6896 6895 6894 ] final  -68.39 input  -60.11 | X-H torsion
[ 7974 7965 7964 7962 ] final  -94.54 input  175.53 | X-H torsion
[ 8008 7997 7996 7995 ] final  -95.35 input   59.86 | X-H torsion
[ 10167 10162 10161 10158 ] final   33.98 input  -65.29 | X-H torsion
[ 10718 10713 10712 10709 ] final   48.21 input   66.30 | X-H torsion
[ 10763 10752 10751 10750 ] final   -7.36 input  -60.55 | X-H torsion
[ 11005 11000 10999 10996 ] final   17.38 input  -57.11 | X-H torsion

> <Gold.Protein.ActiveResidues>
 VAL166  LYS551  ARG553  GLY616  TRP617  ASP618  TYR619  PRO620  LYS621  CYS622 
 ASP623  PHE694  ASN695  SER759  ASP760  ASP761  ALA762  ILE779  LEU786  VAL792 
 PHE793  MET794  SER795  GLU796  ALA797  LYS798  CYS799  TRP800  GLU811  SER814 

> <Gold.Protein.RotatedAtoms>
  150.7358  134.5746  159.5907 H   0  0  0  0  0  0  0  0  0  0  0  0  # atno 6907 bound_to 6896
  152.3176  134.7418  160.0330 H   0  0  0  0  0  0  0  0  0  0  0  0  # atno 6908 bound_to 6896
  151.7945  133.3327  159.3545 H   0  0  0  0  0  0  0  0  0  0  0  0  # atno 6909 bound_to 6896
  145.3720  140.9506  143.2442 H   0  0  0  0  0  0  0  0  0  0  0  0  # atno 7974 bound_to 7965
  154.7602  140.0481  157.0967 H   0  0  0  0  0  0  0  0  0  0  0  0  # atno 8008 bound_to 7997
  154.9947  140.3117  155.4872 H   0  0  0  0  0  0  0  0  0  0  0  0  # atno 8009 bound_to 7997
  156.2902  140.2212  156.5054 H   0  0  0  0  0  0  0  0  0  0  0  0  # atno 8010 bound_to 7997
  140.4357  144.1260  150.6166 H   0  0  0  0  0  0  0  0  0  0  0  0  # atno 10167 bound_to 10162
  157.4664  130.8228  149.7941 H   0  0  0  0  0  0  0  0  0  0  0  0  # atno 10718 bound_to 10713
  153.4253  135.7011  153.6266 H   0  0  0  0  0  0  0  0  0  0  0  0  # atno 10763 bound_to 10752
  153.4704  135.3716  155.2388 H   0  0  0  0  0  0  0  0  0  0  0  0  # atno 10764 bound_to 10752
  154.8723  135.4041  154.3628 H   0  0  0  0  0  0  0  0  0  0  0  0  # atno 10765 bound_to 10752
  140.4366  134.1365  155.7686 H   0  0  0  0  0  0  0  0  0  0  0  0  # atno 11005 bound_to 11000
  144.8570  139.5235  143.6830 LP  0  0  0  0  0  0  0  0  0  0  0  0  # atno 17320 bound_to 7965
  146.2881  139.7061  142.9181 LP  0  0  0  0  0  0  0  0  0  0  0  0  # atno 17321 bound_to 7965
  140.4376  143.2540  151.9515 LP  0  0  0  0  0  0  0  0  0  0  0  0  # atno 17342 bound_to 10162
  139.4787  144.5685  151.8126 LP  0  0  0  0  0  0  0  0  0  0  0  0  # atno 17343 bound_to 10162
  156.0052  130.3859  150.2456 LP  0  0  0  0  0  0  0  0  0  0  0  0  # atno 17370 bound_to 10713
  157.0637  131.0097  151.3214 LP  0  0  0  0  0  0  0  0  0  0  0  0  # atno 17371 bound_to 10713
  141.1723  133.8583  157.1531 LP  0  0  0  0  0  0  0  0  0  0  0  0  # atno 17394 bound_to 11000
  140.0098  134.9993  157.0371 LP  0  0  0  0  0  0  0  0  0  0  0  0  # atno 17395 bound_to 11000

$$$$
