AV-unprocessed.smi:3335|AV-procd|sdf|12849|dock2
  -GOLD-   2272019243D 1   1.00000     0.00000
 Structure written by MMmdl.
 46 47  0  0  0  0  0  0  0  0  1 V2000
  148.7164  132.1141  154.5971 C   0  0  0  0  0  0  0  0  0  0  0  0
  149.2638  133.4353  155.0547 C   0  0  0  0  0  0  0  0  0  0  0  0
  150.2719  133.6702  156.0320 C   0  0  0  0  0  0  0  0  0  0  0  0
  150.5294  134.9557  156.2064 N   0  0  0  0  0  0  0  0  0  0  0  0
  149.6962  135.5888  155.3503 N   0  0  0  0  0  0  0  0  0  0  0  0
  149.6926  137.0442  155.2667 C   0  0  2  0  0  0  0  0  0  0  0  0
  150.9407  137.5303  154.5048 C   0  0  0  0  0  0  0  0  0  0  0  0
  149.5413  137.7060  156.6640 C   0  0  2  0  0  0  0  0  0  0  0  0
  149.2795  139.2230  156.5988 C   0  0  0  0  0  0  0  0  0  0  0  0
  150.7784  137.5155  157.4222 N   0  0  0  0  0  0  0  0  0  0  0  0
  150.8017  138.1779  158.7398 C   0  0  1  0  0  0  0  0  0  0  0  0
  149.7071  137.5807  159.6366 C   0  0  0  0  0  0  0  0  0  0  0  0
  152.1732  138.0734  159.4444 C   0  0  0  0  0  0  0  0  0  0  0  0
  152.5972  136.9576  159.7505 O   0  0  0  0  0  0  0  0  0  0  0  0
  152.8751  139.1970  159.7081 N   0  0  0  0  0  0  0  0  0  0  0  0
  152.3884  140.5369  159.3824 C   0  0  0  0  0  0  0  0  0  0  0  0
  153.3596  141.5084  160.0530 C   0  0  0  0  0  0  0  0  0  0  0  0
  154.6566  140.7200  160.1594 C   0  0  0  0  0  0  0  0  0  0  0  0
  154.1996  139.2707  160.3247 C   0  0  0  0  0  0  0  0  0  0  0  0
  148.9234  134.6923  154.6420 C   0  0  0  0  0  0  0  0  0  0  0  0
  149.4934  131.4889  154.1568 H   0  0  0  0  0  0  0  0  0  0  0  0
  147.9372  132.2353  153.8444 H   0  0  0  0  0  0  0  0  0  0  0  0
  148.2803  131.5522  155.4232 H   0  0  0  0  0  0  0  0  0  0  0  0
  150.8214  132.9474  156.6169 H   0  0  0  0  0  0  0  0  0  0  0  0
  148.8198  137.3143  154.6696 H   0  0  0  0  0  0  0  0  0  0  0  0
  150.8822  138.5960  154.2842 H   0  0  0  0  0  0  0  0  0  0  0  0
  151.0448  137.0112  153.5516 H   0  0  0  0  0  0  0  0  0  0  0  0
  151.8526  137.3590  155.0782 H   0  0  0  0  0  0  0  0  0  0  0  0
  148.6918  137.2467  157.1721 H   0  0  0  0  0  0  0  0  0  0  0  0
  148.3272  139.4466  156.1182 H   0  0  0  0  0  0  0  0  0  0  0  0
  150.0621  139.7389  156.0413 H   0  0  0  0  0  0  0  0  0  0  0  0
  149.2383  139.6609  157.5965 H   0  0  0  0  0  0  0  0  0  0  0  0
  151.5717  137.7879  156.8593 H   0  0  0  0  0  0  0  0  0  0  0  0
  150.5473  139.2228  158.5705 H   0  0  0  0  0  0  0  0  0  0  0  0
  149.6742  138.0780  160.6068 H   0  0  0  0  0  0  0  0  0  0  0  0
  149.8689  136.5163  159.8133 H   0  0  0  0  0  0  0  0  0  0  0  0
  148.7235  137.6943  159.1795 H   0  0  0  0  0  0  0  0  0  0  0  0
  152.4038  140.6667  158.2993 H   0  0  0  0  0  0  0  0  0  0  0  0
  151.3662  140.6979  159.7288 H   0  0  0  0  0  0  0  0  0  0  0  0
  153.4744  142.4413  159.5003 H   0  0  0  0  0  0  0  0  0  0  0  0
  152.9997  141.7537  161.0530 H   0  0  0  0  0  0  0  0  0  0  0  0
  155.2220  140.8217  159.2321 H   0  0  0  0  0  0  0  0  0  0  0  0
  155.2928  141.0589  160.9777 H   0  0  0  0  0  0  0  0  0  0  0  0
  154.1142  139.0180  161.3827 H   0  0  0  0  0  0  0  0  0  0  0  0
  154.9100  138.5837  159.8627 H   0  0  0  0  0  0  0  0  0  0  0  0
  148.1994  135.0201  153.9103 H   0  0  0  0  0  0  0  0  0  0  0  0
  1  2  1  0  0  0  0
  1 21  1  0  0  0  0
  1 22  1  0  0  0  0
  1 23  1  0  0  0  0
  2 20  2  0  0  0  0
  2  3  1  0  0  0  0
  3  4  2  0  0  0  0
  3 24  1  0  0  0  0
  4  5  1  0  0  0  0
  5  6  1  0  0  0  0
  5 20  1  0  0  0  0
  6  7  1  0  0  0  0
  6  8  1  0  0  0  0
  6 25  1  0  0  0  0
  7 26  1  0  0  0  0
  7 27  1  0  0  0  0
  7 28  1  0  0  0  0
  8  9  1  0  0  0  0
  8 10  1  0  0  0  0
  8 29  1  0  0  0  0
  9 30  1  0  0  0  0
  9 31  1  0  0  0  0
  9 32  1  0  0  0  0
 10 11  1  0  0  0  0
 10 33  1  0  0  0  0
 11 12  1  0  0  0  0
 11 13  1  0  0  0  0
 11 34  1  0  0  0  0
 12 35  1  0  0  0  0
 12 36  1  0  0  0  0
 12 37  1  0  0  0  0
 13 14  2  0  0  0  0
 13 15  1  0  0  0  0
 15 19  1  0  0  0  0
 15 16  1  0  0  0  0
 16 17  1  0  0  0  0
 16 38  1  0  0  0  0
 16 39  1  0  0  0  0
 17 18  1  0  0  0  0
 17 40  1  0  0  0  0
 17 41  1  0  0  0  0
 18 19  1  0  0  0  0
 18 42  1  0  0  0  0
 18 43  1  0  0  0  0
 19 44  1  0  0  0  0
 19 45  1  0  0  0  0
 20 46  1  0  0  0  0
M  END
> <s_m_source_file>
AV-unprocessed.smi

> <i_m_source_file_index>
3335

> <i_lp_mmshare_version>
43012

> <i_f3d_flags>
0

> <s_epik_input>
W0NIM11jMVtjSF1ubihbY0hdMSlbQ0BIXShbQ0gzXSlbQ0BIXShbQ0gzXSlbTkhdW0NASF0oW0NIM10pQyg9TylOMltDSDJdW0NIMl1bQ0gyXVtDSDJdMg==

> <s_epik_cmdline>
J2VwaWtfcHl0aG9uJywgJy1waCcsICc3LjAnLCAnLXRuJywgJzgnLCAnLW1hJywgJzIwMCcsICctbWV0YWxfYmluZGluZycsICctaW1hZScsICc8aW5maWxlLm1hZT4nLCAnLW9tYWUnLCAnPG91dGZpbGUubWFlPic=

> <r_lp_tautomer_probability>
1

> <r_epik_Ionization_Penalty>
0.918803

> <r_epik_Ionization_Penalty_Charging>
0

> <r_epik_Ionization_Penalty_Neutral>
0.918803

> <r_epik_State_Penalty>
0.958258

> <r_epik_Charging_Adjusted_Penalty>
0.958258

> <i_epik_Tot_Q>
0

> <i_epik_Tot_abs_Q>
0

> <r_epik_Metal_State_Penalty>
0.956786

> <b_epik_Metal_Only>
0

> <s_lp_Force_Field>
OPLS_2005

> <r_lp_Energy>
37.1763

> <b_lp_Chiralities_Consistent>
1

> <s_lp_Variant>
AV-unprocessed.smi:3335-13

> <Gold.Version>
5.8.1

> <Gold.Id.Protein>
6NUR|6NUR_protein|mol2

> <Gold.PLP.Fitness>
37.0052

> <Gold.PLP.PLP>
-31.6718

> <Gold.PLP.part.hbond>
-1.3175

> <Gold.PLP.part.metal>
0.0000

> <Gold.PLP.part.buried>
-2.7438

> <Gold.PLP.part.nonpolar>
-27.3767

> <Gold.PLP.part.repulsive>
0.0155

> <Gold.PLP.ligand.clash>
0.0000

> <Gold.PLP.ligand.torsion>
0.3708

> <Gold.PLP.Chemscore.Hbond>
1.0000

> <Gold.PLP.Chemscore.CHOScore>
0.9980

> <Gold.PLP.Chemscore.Metal>
0.0000

> <Gold.Chemscore.Hbonds>
donor molecule, donor type, donor heavy atom, donor atom, acceptor molecule, acceptor atom, score
      P1  H  6896  6909       L1    14  1.00
      L1  C    20    46       P1  7948  0.79

> <Gold.PLP.Chemscore.Internal.Correction>
0.0810

> <Gold.Rescore>
     Score         DG    S(hbond)    S(metal)    S(lipo)     H(rot)  DE(clash)    DE(int)     intcor
     13.74     -14.00       0.99        0.00      79.99       1.62       0.00       0.26       ----

> <Gold.Chemscore.Fitness>
13.7415

> <Gold.Chemscore.DG>
-14.0012

> <Gold.Chemscore.ZeroCoef>
-5.4800

> <Gold.Chemscore.Hbond>
0.9912

> <Gold.Chemscore.Metal>
0.0000

> <Gold.Chemscore.Lipo>
79.9887

> <Gold.Chemscore.Internal_Hbond>
0.0000

> <Gold.Chemscore.DEClash>
0.0000

> <Gold.Chemscore.DEInternal>
0.2597

> <Gold.Chemscore.Rot>
1.6204

> <Gold.Chemscore.Internal.Correction>
   9.000000E+99

> <Gold.Chemscore.Hbonds>
donor molecule, donor type, donor heavy atom, donor atom, acceptor molecule, acceptor atom, score
      P1  H  6896  6909       L1    14  0.96

> <Gold.Chemscore.Hbond.Weighted>
-3.3107

> <Gold.Chemscore.Metal.Weighted>
-0.0000

> <Gold.Chemscore.Lipo.Weighted>
-9.3587

> <Gold.Chemscore.Internal_Hbond.Weighted>
0.0000

> <Gold.Chemscore.DEClash.Weighted>
0.0000

> <Gold.Chemscore.DEInternal.Weighted>
0.2597

> <Gold.Chemscore.Rot.Weighted>
4.1482

> <Gold.Chemscore.Internal.Correction.Weighted>
   9.000000E+99

> <Gold.Protein.RotatedTorsions>
[ 6907 6896 6895 6894 ] final  144.84 input  -60.11 | X-H torsion
[ 7974 7965 7964 7962 ] final -143.21 input  175.53 | X-H torsion
[ 8008 7997 7996 7995 ] final  126.24 input   59.86 | X-H torsion
[ 10167 10162 10161 10158 ] final   74.63 input  -65.29 | X-H torsion
[ 10718 10713 10712 10709 ] final  -28.89 input   66.30 | X-H torsion
[ 10763 10752 10751 10750 ] final  141.12 input  -60.55 | X-H torsion
[ 11005 11000 10999 10996 ] final   77.37 input  -57.11 | X-H torsion

> <Gold.Protein.ActiveResidues>
 VAL166  LYS551  ARG553  GLY616  TRP617  ASP618  TYR619  PRO620  LYS621  CYS622 
 ASP623  PHE694  ASN695  SER759  ASP760  ASP761  ALA762  ILE779  LEU786  VAL792 
 PHE793  MET794  SER795  GLU796  ALA797  LYS798  CYS799  TRP800  GLU811  SER814 

> <Gold.Protein.RotatedAtoms>
  152.1885  133.4756  159.4995 H   0  0  0  0  0  0  0  0  0  0  0  0  # atno 6907 bound_to 6896
  150.6947  134.1743  159.4233 H   0  0  0  0  0  0  0  0  0  0  0  0  # atno 6908 bound_to 6896
  151.9657  135.0101  160.0601 H   0  0  0  0  0  0  0  0  0  0  0  0  # atno 6909 bound_to 6896
  144.8386  140.5862  143.5467 H   0  0  0  0  0  0  0  0  0  0  0  0  # atno 7974 bound_to 7965
  156.2858  140.2697  156.2079 H   0  0  0  0  0  0  0  0  0  0  0  0  # atno 8008 bound_to 7997
  155.0294  140.0386  157.2486 H   0  0  0  0  0  0  0  0  0  0  0  0  # atno 8009 bound_to 7997
  154.7367  140.2717  155.6414 H   0  0  0  0  0  0  0  0  0  0  0  0  # atno 8010 bound_to 7997
  140.0116  144.5609  150.7654 H   0  0  0  0  0  0  0  0  0  0  0  0  # atno 10167 bound_to 10162
  156.4194  130.4423  149.7195 H   0  0  0  0  0  0  0  0  0  0  0  0  # atno 10718 bound_to 10713
  153.9340  135.2987  155.3445 H   0  0  0  0  0  0  0  0  0  0  0  0  # atno 10763 bound_to 10752
  154.7512  135.4979  153.9295 H   0  0  0  0  0  0  0  0  0  0  0  0  # atno 10764 bound_to 10752
  153.1077  135.6751  153.9663 H   0  0  0  0  0  0  0  0  0  0  0  0  # atno 10765 bound_to 10752
  139.9258  134.7677  156.1513 H   0  0  0  0  0  0  0  0  0  0  0  0  # atno 11005 bound_to 11000
  145.4742  139.1501  143.3797 LP  0  0  0  0  0  0  0  0  0  0  0  0  # atno 17320 bound_to 7965
  146.2681  140.4876  142.8825 LP  0  0  0  0  0  0  0  0  0  0  0  0  # atno 17321 bound_to 7965
  140.7379  143.2771  151.3709 LP  0  0  0  0  0  0  0  0  0  0  0  0  # atno 17342 bound_to 10162
  139.6201  144.0924  152.2383 LP  0  0  0  0  0  0  0  0  0  0  0  0  # atno 17343 bound_to 10162
  156.4142  130.7737  151.2751 LP  0  0  0  0  0  0  0  0  0  0  0  0  # atno 17370 bound_to 10713
  157.7508  131.0202  150.3700 LP  0  0  0  0  0  0  0  0  0  0  0  0  # atno 17371 bound_to 10713
  141.0813  133.6753  156.2343 LP  0  0  0  0  0  0  0  0  0  0  0  0  # atno 17394 bound_to 11000
  140.6342  134.5233  157.5563 LP  0  0  0  0  0  0  0  0  0  0  0  0  # atno 17395 bound_to 11000

$$$$
