AV-unprocessed.smi:148|AV-procd|sdf|1230|dock9
  -GOLD-   2262018433D 1   1.00000     0.00000
 Structure written by MMmdl.
 63 67  0  0  0  0  0  0  0  0  1 V2000
  146.5949  137.8000  152.5822 O   0  0  0  0  0  0  0  0  0  0  0  0
  146.4145  137.6535  153.9747 C   0  0  0  0  0  0  0  0  0  0  0  0
  147.5470  138.3429  154.7794 C   0  0  2  0  0  0  0  0  0  0  0  0
  147.6916  137.7250  156.1946 C   0  0  0  0  0  0  0  0  0  0  0  0
  148.7402  138.3358  156.9938 N   0  0  0  0  0  0  0  0  0  0  0  0
  148.8754  138.2755  158.3624 C   0  0  0  0  0  0  0  0  0  0  0  0
  149.9126  138.9021  158.8462 N   0  0  0  0  0  0  0  0  0  0  0  0
  150.5299  139.4515  157.7285 C   0  0  0  0  0  0  0  0  0  0  0  0
  151.6919  140.2491  157.5213 C   0  0  0  0  0  0  0  0  0  0  0  0
  152.5306  140.6713  158.4959 N   0  0  0  0  0  0  0  0  0  0  0  0
  153.3404  139.5441  158.9608 C   0  0  0  0  0  0  0  0  0  0  0  0
  154.4696  140.0032  159.8925 C   0  0  0  0  0  0  0  0  0  0  0  0
  153.9010  140.8178  161.0583 C   0  0  0  0  0  0  0  0  0  0  0  0
  153.0883  141.9994  160.5150 C   0  0  0  0  0  0  0  0  0  0  0  0
  151.9628  141.5258  159.5555 C   0  0  1  0  0  0  0  0  0  0  0  0
  151.0909  142.7012  159.0086 C   0  0  1  0  0  0  0  0  0  0  0  0
  150.8085  143.7987  160.0570 C   0  0  0  0  0  0  0  0  0  0  0  0
  151.4762  145.0713  159.5339 C   0  0  0  0  0  0  0  0  0  0  0  0
  151.3949  144.9293  158.0181 C   0  0  0  0  0  0  0  0  0  0  0  0
  151.6623  143.4420  157.7739 C   0  0  2  0  0  0  0  0  0  0  0  0
  151.0575  143.0210  156.5686 O   0  0  0  0  0  0  0  0  0  0  0  0
  152.0088  140.5900  156.2476 N   0  0  0  0  0  0  0  0  0  0  0  0
  151.2270  140.2002  155.2362 C   0  0  0  0  0  0  0  0  0  0  0  0
  150.1117  139.4679  155.2768 N   0  0  0  0  0  0  0  0  0  0  0  0
  149.8017  139.1073  156.5551 C   0  0  0  0  0  0  0  0  0  0  0  0
  147.3426  139.8803  154.8803 C   0  0  1  0  0  0  0  0  0  0  0  0
  147.3669  140.6187  153.5518 C   0  0  0  0  0  0  0  0  0  0  0  0
  146.7156  141.9513  153.9046 C   0  0  0  0  0  0  0  0  0  0  0  0
  145.7762  141.6597  154.9318 O   0  0  0  0  0  0  0  0  0  0  0  0
  145.9777  140.3343  155.4113 C   0  0  0  0  0  0  0  0  0  0  0  0
  147.3819  137.3414  152.3299 H   0  0  0  0  0  0  0  0  0  0  0  0
  145.4395  138.0485  154.2614 H   0  0  0  0  0  0  0  0  0  0  0  0
  146.3843  136.5806  154.1590 H   0  0  0  0  0  0  0  0  0  0  0  0
  148.4861  138.1594  154.2547 H   0  0  0  0  0  0  0  0  0  0  0  0
  146.7634  137.8241  156.7571 H   0  0  0  0  0  0  0  0  0  0  0  0
  147.8943  136.6561  156.1167 H   0  0  0  0  0  0  0  0  0  0  0  0
  148.1823  137.7390  158.9941 H   0  0  0  0  0  0  0  0  0  0  0  0
  152.6987  138.8328  159.4835 H   0  0  0  0  0  0  0  0  0  0  0  0
  153.7706  139.0146  158.1090 H   0  0  0  0  0  0  0  0  0  0  0  0
  155.0178  139.1393  160.2692 H   0  0  0  0  0  0  0  0  0  0  0  0
  155.1850  140.6082  159.3337 H   0  0  0  0  0  0  0  0  0  0  0  0
  153.2666  140.1853  161.6805 H   0  0  0  0  0  0  0  0  0  0  0  0
  154.7088  141.1775  161.6961 H   0  0  0  0  0  0  0  0  0  0  0  0
  152.6772  142.5564  161.3558 H   0  0  0  0  0  0  0  0  0  0  0  0
  153.7722  142.6781  160.0076 H   0  0  0  0  0  0  0  0  0  0  0  0
  151.3048  140.8920  160.1503 H   0  0  0  0  0  0  0  0  0  0  0  0
  150.1076  142.3093  158.7459 H   0  0  0  0  0  0  0  0  0  0  0  0
  149.7318  143.9644  160.1190 H   0  0  0  0  0  0  0  0  0  0  0  0
  151.1374  143.5414  161.0636 H   0  0  0  0  0  0  0  0  0  0  0  0
  150.9936  145.9786  159.8981 H   0  0  0  0  0  0  0  0  0  0  0  0
  152.5208  145.0985  159.8466 H   0  0  0  0  0  0  0  0  0  0  0  0
  150.3898  145.1962  157.6864 H   0  0  0  0  0  0  0  0  0  0  0  0
  152.1011  145.5747  157.4948 H   0  0  0  0  0  0  0  0  0  0  0  0
  152.7357  143.2893  157.6810 H   0  0  0  0  0  0  0  0  0  0  0  0
  150.3364  143.6019  156.3764 H   0  0  0  0  0  0  0  0  0  0  0  0
  151.5414  140.5187  154.2533 H   0  0  0  0  0  0  0  0  0  0  0  0
  148.1186  140.3047  155.5195 H   0  0  0  0  0  0  0  0  0  0  0  0
  148.3703  140.7481  153.1457 H   0  0  0  0  0  0  0  0  0  0  0  0
  146.7633  140.0912  152.8116 H   0  0  0  0  0  0  0  0  0  0  0  0
  147.4580  142.6445  154.3017 H   0  0  0  0  0  0  0  0  0  0  0  0
  146.2365  142.4221  153.0460 H   0  0  0  0  0  0  0  0  0  0  0  0
  145.1794  139.7054  155.0147 H   0  0  0  0  0  0  0  0  0  0  0  0
  145.9217  140.3062  156.4996 H   0  0  0  0  0  0  0  0  0  0  0  0
  1  2  1  0  0  0  0
  1 31  1  0  0  0  0
  2  3  1  0  0  0  0
  2 32  1  0  0  0  0
  2 33  1  0  0  0  0
  3  4  1  0  0  0  0
  3 26  1  0  0  0  0
  3 34  1  0  0  0  0
  4  5  1  0  0  0  0
  4 35  1  0  0  0  0
  4 36  1  0  0  0  0
  5 25  1  0  0  0  0
  5  6  1  0  0  0  0
  6  7  2  0  0  0  0
  6 37  1  0  0  0  0
  7  8  1  0  0  0  0
  8 25  2  0  0  0  0
  8  9  1  0  0  0  0
  9 10  1  0  0  0  0
  9 22  2  0  0  0  0
 10 15  1  0  0  0  0
 10 11  1  0  0  0  0
 11 12  1  0  0  0  0
 11 38  1  0  0  0  0
 11 39  1  0  0  0  0
 12 13  1  0  0  0  0
 12 40  1  0  0  0  0
 12 41  1  0  0  0  0
 13 14  1  0  0  0  0
 13 42  1  0  0  0  0
 13 43  1  0  0  0  0
 14 15  1  0  0  0  0
 14 44  1  0  0  0  0
 14 45  1  0  0  0  0
 15 16  1  0  0  0  0
 15 46  1  0  0  0  0
 16 20  1  0  0  0  0
 16 17  1  0  0  0  0
 16 47  1  0  0  0  0
 17 18  1  0  0  0  0
 17 48  1  0  0  0  0
 17 49  1  0  0  0  0
 18 19  1  0  0  0  0
 18 50  1  0  0  0  0
 18 51  1  0  0  0  0
 19 20  1  0  0  0  0
 19 52  1  0  0  0  0
 19 53  1  0  0  0  0
 20 21  1  0  0  0  0
 20 54  1  0  0  0  0
 21 55  1  0  0  0  0
 22 23  1  0  0  0  0
 23 24  2  0  0  0  0
 23 56  1  0  0  0  0
 24 25  1  0  0  0  0
 26 30  1  0  0  0  0
 26 27  1  0  0  0  0
 26 57  1  0  0  0  0
 27 28  1  0  0  0  0
 27 58  1  0  0  0  0
 27 59  1  0  0  0  0
 28 29  1  0  0  0  0
 28 60  1  0  0  0  0
 28 61  1  0  0  0  0
 29 30  1  0  0  0  0
 30 62  1  0  0  0  0
 30 63  1  0  0  0  0
M  END
> <s_m_source_file>
AV-unprocessed.smi

> <i_m_source_file_index>
148

> <i_lp_mmshare_version>
43012

> <i_f3d_flags>
0

> <s_epik_input>
W0NIMl0xT1tDSDJdW0NIMl1bQ0BIXTFbQ0BIXShbQ0gyXVtPSF0pW0NIMl1uKFtjSF1uMiljKGMyMyluW2NIXW5jM040W0NIMl1bQ0gyXVtDSDJdW0NIMl1bQ0BIXTRbQ0BASF01W0NIMl1bQ0gyXVtDSDJdW0NASF01W09IXQ==

> <s_epik_cmdline>
J2VwaWtfcHl0aG9uJywgJy1waCcsICc3LjAnLCAnLXRuJywgJzgnLCAnLW1hJywgJzIwMCcsICctbWV0YWxfYmluZGluZycsICctaW1hZScsICc8aW5maWxlLm1hZT4nLCAnLW9tYWUnLCAnPG91dGZpbGUubWFlPic=

> <r_lp_tautomer_probability>
1

> <r_epik_Ionization_Penalty>
0.00556303

> <r_epik_Ionization_Penalty_Charging>
0

> <r_epik_Ionization_Penalty_Neutral>
0.00556303

> <r_epik_State_Penalty>
0.00401767

> <r_epik_Charging_Adjusted_Penalty>
0.00401767

> <i_epik_Tot_Q>
0

> <i_epik_Tot_abs_Q>
0

> <r_epik_Metal_State_Penalty>
-0

> <b_epik_Metal_Only>
0

> <s_lp_Force_Field>
OPLS_2005

> <r_lp_Energy>
68.4818

> <b_lp_Chiralities_Consistent>
1

> <s_lp_Variant>
AV-unprocessed.smi:148-29

> <Gold.Version>
5.8.1

> <Gold.Id.Protein>
6NUR|6NUR_protein|mol2

> <Gold.PLP.Fitness>
45.4739

> <Gold.PLP.PLP>
-41.2509

> <Gold.PLP.part.hbond>
-2.9186

> <Gold.PLP.part.metal>
0.0000

> <Gold.PLP.part.buried>
-2.9692

> <Gold.PLP.part.nonpolar>
-35.0547

> <Gold.PLP.part.repulsive>
0.2070

> <Gold.PLP.ligand.clash>
0.0369

> <Gold.PLP.ligand.torsion>
1.0794

> <Gold.PLP.Chemscore.Hbond>
2.0000

> <Gold.PLP.Chemscore.CHOScore>
0.0000

> <Gold.PLP.Chemscore.Metal>
0.0000

> <Gold.Chemscore.Hbonds>
donor molecule, donor type, donor heavy atom, donor atom, acceptor molecule, acceptor atom, score
      L1  H     1    31       P1  7948  1.00
      L1  H    21    55       P1  8028  1.00

> <Gold.PLP.Chemscore.Internal.Correction>
0.4187

> <Gold.Rescore>
     Score         DG    S(hbond)    S(metal)    S(lipo)     H(rot)  DE(clash)    DE(int)     intcor
     10.54     -17.92       1.99        0.00     122.04       3.32       2.48       4.90       ----

> <Gold.Chemscore.Fitness>
10.5419

> <Gold.Chemscore.DG>
-17.9214

> <Gold.Chemscore.ZeroCoef>
-5.4800

> <Gold.Chemscore.Hbond>
1.9948

> <Gold.Chemscore.Metal>
0.0000

> <Gold.Chemscore.Lipo>
122.0408

> <Gold.Chemscore.Internal_Hbond>
0.0000

> <Gold.Chemscore.DEClash>
2.4815

> <Gold.Chemscore.DEInternal>
4.8979

> <Gold.Chemscore.Rot>
3.3203

> <Gold.Chemscore.Internal.Correction>
   9.000000E+99

> <Gold.Chemscore.Hbonds>
donor molecule, donor type, donor heavy atom, donor atom, acceptor molecule, acceptor atom, score
      L1  H     1    31       P1  7948  0.98
      L1  H    21    55       P1  8028  0.99

> <Gold.Chemscore.Hbond.Weighted>
-6.6626

> <Gold.Chemscore.Metal.Weighted>
-0.0000

> <Gold.Chemscore.Lipo.Weighted>
-14.2788

> <Gold.Chemscore.Internal_Hbond.Weighted>
0.0000

> <Gold.Chemscore.DEClash.Weighted>
2.4815

> <Gold.Chemscore.DEInternal.Weighted>
4.8979

> <Gold.Chemscore.Rot.Weighted>
8.5000

> <Gold.Chemscore.Internal.Correction.Weighted>
   9.000000E+99

> <Gold.Protein.RotatedTorsions>
[ 6907 6896 6895 6894 ] final  -92.16 input  -60.11 | X-H torsion
[ 7974 7965 7964 7962 ] final  -66.86 input  175.53 | X-H torsion
[ 8008 7997 7996 7995 ] final   22.45 input   59.86 | X-H torsion
[ 10167 10162 10161 10158 ] final   97.26 input  -65.29 | X-H torsion
[ 10718 10713 10712 10709 ] final  -58.92 input   66.30 | X-H torsion
[ 10763 10752 10751 10750 ] final -139.40 input  -60.55 | X-H torsion
[ 11005 11000 10999 10996 ] final   31.04 input  -57.11 | X-H torsion

> <Gold.Protein.ActiveResidues>
 VAL166  LYS551  ARG553  GLY616  TRP617  ASP618  TYR619  PRO620  LYS621  CYS622 
 ASP623  PHE694  ASN695  SER759  ASP760  ASP761  ALA762  ILE779  LEU786  VAL792 
 PHE793  MET794  SER795  GLU796  ALA797  LYS798  CYS799  TRP800  GLU811  SER814 

> <Gold.Protein.RotatedAtoms>
  150.6902  134.2164  159.4379 H   0  0  0  0  0  0  0  0  0  0  0  0  # atno 6907 bound_to 6896
  152.0123  134.9867  160.0577 H   0  0  0  0  0  0  0  0  0  0  0  0  # atno 6908 bound_to 6896
  152.1476  133.4467  159.4834 H   0  0  0  0  0  0  0  0  0  0  0  0  # atno 6909 bound_to 6896
  145.7365  140.8973  143.0552 H   0  0  0  0  0  0  0  0  0  0  0  0  # atno 7974 bound_to 7965
  154.9659  140.3084  155.5010 H   0  0  0  0  0  0  0  0  0  0  0  0  # atno 8008 bound_to 7997
  156.2971  140.2293  156.4687 H   0  0  0  0  0  0  0  0  0  0  0  0  # atno 8009 bound_to 7997
  154.7922  140.0439  157.1198 H   0  0  0  0  0  0  0  0  0  0  0  0  # atno 8010 bound_to 7997
  139.7817  144.6886  151.0013 H   0  0  0  0  0  0  0  0  0  0  0  0  # atno 10167 bound_to 10162
  156.1099  130.4176  150.0644 H   0  0  0  0  0  0  0  0  0  0  0  0  # atno 10718 bound_to 10713
  154.8610  135.3583  154.5540 H   0  0  0  0  0  0  0  0  0  0  0  0  # atno 10763 bound_to 10752
  153.6158  135.7008  153.5334 H   0  0  0  0  0  0  0  0  0  0  0  0  # atno 10764 bound_to 10752
  153.3171  135.4162  155.1345 H   0  0  0  0  0  0  0  0  0  0  0  0  # atno 10765 bound_to 10752
  140.2881  134.2896  155.7783 H   0  0  0  0  0  0  0  0  0  0  0  0  # atno 11005 bound_to 11000
  144.6880  139.9402  143.7475 LP  0  0  0  0  0  0  0  0  0  0  0  0  # atno 17320 bound_to 7965
  146.0488  139.3491  143.0652 LP  0  0  0  0  0  0  0  0  0  0  0  0  # atno 17321 bound_to 7965
  140.7818  143.4476  151.0460 LP  0  0  0  0  0  0  0  0  0  0  0  0  # atno 17342 bound_to 10162
  139.8156  143.7890  152.3174 LP  0  0  0  0  0  0  0  0  0  0  0  0  # atno 17343 bound_to 10162
  156.8609  130.9491  151.3618 LP  0  0  0  0  0  0  0  0  0  0  0  0  # atno 17370 bound_to 10713
  157.6280  130.8706  149.9223 LP  0  0  0  0  0  0  0  0  0  0  0  0  # atno 17371 bound_to 10713
  141.2151  133.7567  156.9583 LP  0  0  0  0  0  0  0  0  0  0  0  0  # atno 17394 bound_to 11000
  140.1221  134.9410  157.2218 LP  0  0  0  0  0  0  0  0  0  0  0  0  # atno 17395 bound_to 11000

$$$$
