AV-unprocessed.smi:290|AV-procd|sdf|2241|dock8
  -GOLD-   2262022113D 1   1.00000     0.00000
 Structure written by MMmdl.
 59 62  0  0  0  0  0  0  0  0  2 V2000
  150.1499  138.9639  153.5841 C   0  0  0  0  0  0  0  0  0  0  0  0
  150.8583  138.8266  154.9417 C   0  0  2  0  0  0  0  0  0  0  0  0
  151.7333  139.9227  155.1632 O   0  0  0  0  0  0  0  0  0  0  0  0
  152.6084  139.5472  156.2114 C   0  0  0  0  0  0  0  0  0  0  0  0
  152.9892  138.1193  155.8392 C   0  0  0  0  0  0  0  0  0  0  0  0
  151.7334  137.5641  155.1590 C   0  0  2  0  0  0  0  0  0  0  0  0
  152.1221  136.9796  153.9270 O   0  0  0  0  0  0  0  0  0  0  0  0
  151.0411  136.4763  156.0170 C   0  0  0  0  0  0  0  0  0  0  0  0
  149.8694  135.8887  155.3841 N   0  0  0  0  0  0  0  0  0  0  0  0
  148.7488  136.5563  154.9478 C   0  0  0  0  0  0  0  0  0  0  0  0
  147.8272  135.8032  154.4142 N   0  0  0  0  0  0  0  0  0  0  0  0
  148.3554  134.5172  154.4635 C   0  0  0  0  0  0  0  0  0  0  0  0
  147.8996  133.2263  154.0578 C   0  0  0  0  0  0  0  0  0  0  0  0
  146.7136  132.9678  153.4453 N   0  0  0  0  0  0  0  0  0  0  0  0
  145.6182  133.9202  153.4691 C   0  0  0  0  0  0  0  0  0  0  0  0
  144.8763  133.6731  152.1627 C   0  0  0  0  0  0  0  0  0  0  0  0
  145.0662  132.1698  151.8990 C   0  0  1  0  0  0  0  0  0  0  0  0
  144.9006  131.8231  150.4515 N   0  3  2  0  0  0  0  0  0  0  0  0
  146.1193  132.1555  149.6677 C   0  0  0  0  0  0  0  0  0  0  0  0
  143.6605  132.3648  149.8237 C   0  0  0  0  0  0  0  0  0  0  0  0
  143.7639  132.5748  148.3007 C   0  0  0  0  0  0  0  0  0  0  0  0
  142.4877  132.8358  147.7555 O   0  0  0  0  0  0  0  0  0  0  0  0
  146.4664  131.8783  152.5057 C   0  0  2  0  0  0  0  0  0  0  0  0
  146.5225  130.5188  153.2374 C   0  0  0  0  0  0  0  0  0  0  0  0
  148.7221  132.1729  154.3034 N   0  0  0  0  0  0  0  0  0  0  0  0
  149.9094  132.3568  154.8861 C   0  0  0  0  0  0  0  0  0  0  0  0
  150.4641  133.4948  155.3029 N   0  0  0  0  0  0  0  0  0  0  0  0
  149.6427  134.5584  155.0751 C   0  0  0  0  0  0  0  0  0  0  0  0
  144.3150  131.6277  152.4767 H   0  0  0  0  0  0  0  0  0  0  0  0
  147.2186  131.9349  151.7198 H   0  0  0  0  0  0  0  0  0  0  0  0
  149.4862  138.1193  153.3980 H   0  0  0  0  0  0  0  0  0  0  0  0
  150.8638  139.0225  152.7622 H   0  0  0  0  0  0  0  0  0  0  0  0
  149.5450  139.8704  153.5564 H   0  0  0  0  0  0  0  0  0  0  0  0
  150.1068  138.8831  155.7298 H   0  0  0  0  0  0  0  0  0  0  0  0
  153.4707  140.2111  156.2763 H   0  0  0  0  0  0  0  0  0  0  0  0
  152.0771  139.5754  157.1643 H   0  0  0  0  0  0  0  0  0  0  0  0
  153.8308  138.1500  155.1448 H   0  0  0  0  0  0  0  0  0  0  0  0
  153.3074  137.5395  156.7063 H   0  0  0  0  0  0  0  0  0  0  0  0
  151.5421  137.2954  153.2514 H   0  0  0  0  0  0  0  0  0  0  0  0
  151.7425  135.6721  156.2439 H   0  0  0  0  0  0  0  0  0  0  0  0
  150.7391  136.8932  156.9785 H   0  0  0  0  0  0  0  0  0  0  0  0
  148.6333  137.6263  155.0447 H   0  0  0  0  0  0  0  0  0  0  0  0
  144.9808  133.7085  154.3282 H   0  0  0  0  0  0  0  0  0  0  0  0
  145.9597  134.9540  153.5376 H   0  0  0  0  0  0  0  0  0  0  0  0
  143.8307  133.9741  152.2305 H   0  0  0  0  0  0  0  0  0  0  0  0
  145.3445  134.2557  151.3676 H   0  0  0  0  0  0  0  0  0  0  0  0
  146.2498  133.2356  149.5907 H   0  0  0  0  0  0  0  0  0  0  0  0
  146.0783  131.7424  148.6614 H   0  0  0  0  0  0  0  0  0  0  0  0
  147.0199  131.7396  150.1171 H   0  0  0  0  0  0  0  0  0  0  0  0
  142.8298  131.6791  149.9785 H   0  0  0  0  0  0  0  0  0  0  0  0
  143.3910  133.3031  150.3104 H   0  0  0  0  0  0  0  0  0  0  0  0
  144.3995  133.4370  148.0971 H   0  0  0  0  0  0  0  0  0  0  0  0
  144.2267  131.7317  147.7896 H   0  0  0  0  0  0  0  0  0  0  0  0
  141.9958  133.3550  148.3742 H   0  0  0  0  0  0  0  0  0  0  0  0
  146.3010  129.6807  152.5795 H   0  0  0  0  0  0  0  0  0  0  0  0
  145.8006  130.4859  154.0542 H   0  0  0  0  0  0  0  0  0  0  0  0
  147.5043  130.3319  153.6708 H   0  0  0  0  0  0  0  0  0  0  0  0
  150.4991  131.4651  155.0391 H   0  0  0  0  0  0  0  0  0  0  0  0
  144.8028  130.8181  150.4178 H   0  0  0  0  0  0  0  0  0  0  0  0
  1  2  1  0  0  0  0
  1 31  1  0  0  0  0
  1 32  1  0  0  0  0
  1 33  1  0  0  0  0
  2  6  1  0  0  0  0
  2  3  1  0  0  0  0
  2 34  1  0  0  0  0
  3  4  1  0  0  0  0
  4  5  1  0  0  0  0
  4 35  1  0  0  0  0
  4 36  1  0  0  0  0
  5  6  1  0  0  0  0
  5 37  1  0  0  0  0
  5 38  1  0  0  0  0
  6  7  1  0  0  0  0
  6  8  1  0  0  0  0
  7 39  1  0  0  0  0
  8  9  1  0  0  0  0
  8 40  1  0  0  0  0
  8 41  1  0  0  0  0
  9 28  1  0  0  0  0
  9 10  1  0  0  0  0
 10 11  2  0  0  0  0
 10 42  1  0  0  0  0
 11 12  1  0  0  0  0
 12 28  2  0  0  0  0
 12 13  1  0  0  0  0
 13 14  1  0  0  0  0
 13 25  2  0  0  0  0
 14 23  1  0  0  0  0
 14 15  1  0  0  0  0
 15 16  1  0  0  0  0
 15 43  1  0  0  0  0
 15 44  1  0  0  0  0
 16 17  1  0  0  0  0
 16 45  1  0  0  0  0
 16 46  1  0  0  0  0
 17 29  1  0  0  0  0
 17 18  1  0  0  0  0
 17 23  1  0  0  0  0
 18 19  1  0  0  0  0
 18 20  1  0  0  0  0
 18 59  1  0  0  0  0
 19 47  1  0  0  0  0
 19 48  1  0  0  0  0
 19 49  1  0  0  0  0
 20 21  1  0  0  0  0
 20 50  1  0  0  0  0
 20 51  1  0  0  0  0
 21 22  1  0  0  0  0
 21 52  1  0  0  0  0
 21 53  1  0  0  0  0
 22 54  1  0  0  0  0
 23 30  1  0  0  0  0
 23 24  1  0  0  0  0
 24 55  1  0  0  0  0
 24 56  1  0  0  0  0
 24 57  1  0  0  0  0
 25 26  1  0  0  0  0
 26 27  2  0  0  0  0
 26 58  1  0  0  0  0
 27 28  1  0  0  0  0
M  CHG  1  18   1
M  END
> <s_m_source_file>
AV-unprocessed.smi

> <i_m_source_file_index>
290

> <i_lp_mmshare_version>
43012

> <i_f3d_flags>
0

> <s_epik_input>
W0NIMl0xW0NIMl1PW0NAQEhdKFtDSDNdKVtDQEBdMShbT0hdKVtDSDJdbihbY0hdbjIpYyhjMjMpbltjSF1uYzNONFtDSDJdW0NIMl1bQ0BIXShbQ0BIXTRbQ0gzXSlOKFtDSDNdKVtDSDJdW0NIMl1bT0hd

> <s_epik_cmdline>
J2VwaWtfcHl0aG9uJywgJy1waCcsICc3LjAnLCAnLXRuJywgJzgnLCAnLW1hJywgJzIwMCcsICctbWV0YWxfYmluZGluZycsICctaW1hZScsICc8aW5maWxlLm1hZT4nLCAnLW9tYWUnLCAnPG91dGZpbGUubWFlPic=

> <r_lp_tautomer_probability>
1

> <r_epik_Ionization_Penalty>
0.0036983

> <r_epik_Ionization_Penalty_Charging>
0.0032725

> <r_epik_Ionization_Penalty_Neutral>
0.000425798

> <r_epik_State_Penalty>
-0

> <r_epik_Charging_Adjusted_Penalty>
0.0032725

> <i_epik_Tot_Q>
1

> <i_epik_Tot_abs_Q>
1

> <r_epik_Metal_State_Penalty>
-0

> <b_epik_Metal_Only>
0

> <s_lp_Force_Field>
OPLS_2005

> <r_lp_Energy>
64.4963

> <b_lp_Chiralities_Consistent>
1

> <s_lp_Variant>
AV-unprocessed.smi:290-27

> <Gold.Version>
5.8.1

> <Gold.Id.Protein>
6NUR|6NUR_protein|mol2

> <Gold.PLP.Fitness>
52.2615

> <Gold.PLP.PLP>
-44.7861

> <Gold.PLP.part.hbond>
-5.5279

> <Gold.PLP.part.metal>
0.0000

> <Gold.PLP.part.buried>
-2.5907

> <Gold.PLP.part.nonpolar>
-38.7770

> <Gold.PLP.part.repulsive>
1.2992

> <Gold.PLP.ligand.clash>
0.0000

> <Gold.PLP.ligand.torsion>
0.9254

> <Gold.PLP.Chemscore.Hbond>
3.0546

> <Gold.PLP.Chemscore.CHOScore>
0.0000

> <Gold.PLP.Chemscore.Metal>
0.0000

> <Gold.Chemscore.Hbonds>
donor molecule, donor type, donor heavy atom, donor atom, acceptor molecule, acceptor atom, score
      L1  H     7    39       P1  7949  0.19
      L1  H    22    54       P1 10186  1.00
      P1  H  7989  7998       L1     3  0.99
      P1  H 10752 10764       L1     7  1.00

> <Gold.PLP.Chemscore.Internal.Correction>
0.1624

> <Gold.Rescore>
     Score         DG    S(hbond)    S(metal)    S(lipo)     H(rot)  DE(clash)    DE(int)     intcor
     14.40     -19.99       3.05        0.00     110.25       3.35       2.32       3.28       ----

> <Gold.Chemscore.Fitness>
14.4016

> <Gold.Chemscore.DG>
-19.9932

> <Gold.Chemscore.ZeroCoef>
-5.4800

> <Gold.Chemscore.Hbond>
3.0524

> <Gold.Chemscore.Metal>
0.0000

> <Gold.Chemscore.Lipo>
110.2463

> <Gold.Chemscore.Internal_Hbond>
0.0000

> <Gold.Chemscore.DEClash>
2.3166

> <Gold.Chemscore.DEInternal>
3.2751

> <Gold.Chemscore.Rot>
3.3518

> <Gold.Chemscore.Internal.Correction>
   9.000000E+99

> <Gold.Chemscore.Hbonds>
donor molecule, donor type, donor heavy atom, donor atom, acceptor molecule, acceptor atom, score
      L1  H     7    39       P1  7949  0.17
      L1  H    22    54       P1 10186  1.00
      P1  H  7989  7998       L1     3  0.37
      P1  H 10752 10764       L1     7  0.87

> <Gold.Chemscore.Hbond.Weighted>
-10.1950

> <Gold.Chemscore.Metal.Weighted>
-0.0000

> <Gold.Chemscore.Lipo.Weighted>
-12.8988

> <Gold.Chemscore.Internal_Hbond.Weighted>
0.0000

> <Gold.Chemscore.DEClash.Weighted>
2.3166

> <Gold.Chemscore.DEInternal.Weighted>
3.2751

> <Gold.Chemscore.Rot.Weighted>
8.5806

> <Gold.Chemscore.Internal.Correction.Weighted>
   9.000000E+99

> <Gold.Protein.RotatedTorsions>
[ 6907 6896 6895 6894 ] final  155.90 input  -60.11 | X-H torsion
[ 7974 7965 7964 7962 ] final   73.61 input  175.53 | X-H torsion
[ 8008 7997 7996 7995 ] final  -32.71 input   59.86 | X-H torsion
[ 10167 10162 10161 10158 ] final  120.71 input  -65.29 | X-H torsion
[ 10718 10713 10712 10709 ] final  -23.29 input   66.30 | X-H torsion
[ 10763 10752 10751 10750 ] final  -95.81 input  -60.55 | X-H torsion
[ 11005 11000 10999 10996 ] final  122.11 input  -57.11 | X-H torsion

> <Gold.Protein.ActiveResidues>
 VAL166  LYS551  ARG553  GLY616  TRP617  ASP618  TYR619  PRO620  LYS621  CYS622 
 ASP623  PHE694  ASN695  SER759  ASP760  ASP761  ALA762  ILE779  LEU786  VAL792 
 PHE793  MET794  SER795  GLU796  ALA797  LYS798  CYS799  TRP800  GLU811  SER814 

> <Gold.Protein.RotatedAtoms>
  152.0375  133.3963  159.4322 H   0  0  0  0  0  0  0  0  0  0  0  0  # atno 6907 bound_to 6896
  150.6878  134.3451  159.4894 H   0  0  0  0  0  0  0  0  0  0  0  0  # atno 6908 bound_to 6896
  152.1246  134.9180  160.0612 H   0  0  0  0  0  0  0  0  0  0  0  0  # atno 6909 bound_to 6896
  145.7387  139.2712  143.1499 H   0  0  0  0  0  0  0  0  0  0  0  0  # atno 7974 bound_to 7965
  154.4171  140.1730  156.1771 H   0  0  0  0  0  0  0  0  0  0  0  0  # atno 8008 bound_to 7997
  155.9712  140.3385  155.6554 H   0  0  0  0  0  0  0  0  0  0  0  0  # atno 8009 bound_to 7997
  155.6622  140.0702  157.2540 H   0  0  0  0  0  0  0  0  0  0  0  0  # atno 8010 bound_to 7997
  139.5965  144.7043  151.3165 H   0  0  0  0  0  0  0  0  0  0  0  0  # atno 10167 bound_to 10162
  156.4931  130.4571  149.6744 H   0  0  0  0  0  0  0  0  0  0  0  0  # atno 10718 bound_to 10713
  154.7182  135.5107  153.8771 H   0  0  0  0  0  0  0  0  0  0  0  0  # atno 10763 bound_to 10752
  153.0839  135.6639  153.9997 H   0  0  0  0  0  0  0  0  0  0  0  0  # atno 10764 bound_to 10752
  153.9825  135.3027  155.3398 H   0  0  0  0  0  0  0  0  0  0  0  0  # atno 10765 bound_to 10752
  139.9254  134.9640  156.8059 H   0  0  0  0  0  0  0  0  0  0  0  0  # atno 11005 bound_to 11000
  146.0468  140.8110  142.9801 LP  0  0  0  0  0  0  0  0  0  0  0  0  # atno 17320 bound_to 7965
  144.6875  140.2993  143.7266 LP  0  0  0  0  0  0  0  0  0  0  0  0  # atno 17321 bound_to 7965
  140.7216  143.7121  150.7761 LP  0  0  0  0  0  0  0  0  0  0  0  0  # atno 17342 bound_to 10162
  140.0688  143.5082  152.2590 LP  0  0  0  0  0  0  0  0  0  0  0  0  # atno 17343 bound_to 10162
  156.3407  130.7380  151.2325 LP  0  0  0  0  0  0  0  0  0  0  0  0  # atno 17370 bound_to 10713
  157.7471  131.0404  150.4598 LP  0  0  0  0  0  0  0  0  0  0  0  0  # atno 17371 bound_to 10713
  140.6351  133.9869  155.7680 LP  0  0  0  0  0  0  0  0  0  0  0  0  # atno 17394 bound_to 11000
  141.0808  134.0066  157.3389 LP  0  0  0  0  0  0  0  0  0  0  0  0  # atno 17395 bound_to 11000

$$$$
