AV-unprocessed.smi:2481|AV-procd|sdf|9772|dock4
  -GOLD-   2272013413D 1   1.00000     0.00000
 Structure written by MMmdl.
 37 38  0  0  0  0  0  0  0  0  1 V2000
  151.2926  138.2206  154.4487 C   0  0  0  0  0  0  0  0  0  0  0  0
  150.2051  139.1799  154.4606 N   0  0  0  0  0  0  0  0  0  0  0  0
  150.4181  140.4699  154.8121 N   0  0  0  0  0  0  0  0  0  0  0  0
  149.2047  141.0099  154.6951 C   0  0  0  0  0  0  0  0  0  0  0  0
  148.2098  140.1656  154.2916 N   0  0  0  0  0  0  0  0  0  0  0  0
  148.9093  139.0425  154.1647 C   0  0  0  0  0  0  0  0  0  0  0  0
  148.3996  137.7797  153.7599 N   0  0  0  0  0  0  0  0  0  0  0  0
  147.2671  137.1810  154.1659 C   0  0  0  0  0  0  0  0  0  0  0  0
  146.4640  137.6526  154.9714 O   0  0  0  0  0  0  0  0  0  0  0  0
  147.1109  135.9885  153.5737 N   0  0  0  0  0  0  0  0  0  0  0  0
  145.9880  135.0733  153.7857 C   0  0  1  0  0  0  0  0  0  0  0  0
  144.6886  135.6547  153.1879 C   0  0  0  0  0  0  0  0  0  0  0  0
  144.7163  135.6756  151.6505 C   0  0  0  0  0  0  0  0  0  0  0  0
  145.0105  134.2795  151.0834 C   0  0  0  0  0  0  0  0  0  0  0  0
  146.3138  133.7039  151.6601 C   0  0  0  0  0  0  0  0  0  0  0  0
  146.2889  133.6663  153.2033 C   0  0  1  0  0  0  0  0  0  0  0  0
  147.5768  133.0266  153.7644 C   0  0  0  0  0  0  0  0  0  0  0  0
  148.6988  133.8444  153.5056 O   0  0  0  0  0  0  0  0  0  0  0  0
  151.4548  137.8648  153.4309 H   0  0  0  0  0  0  0  0  0  0  0  0
  151.0420  137.3735  155.0879 H   0  0  0  0  0  0  0  0  0  0  0  0
  152.2127  138.6787  154.8141 H   0  0  0  0  0  0  0  0  0  0  0  0
  149.0295  142.0538  154.9092 H   0  0  0  0  0  0  0  0  0  0  0  0
  148.9600  137.2786  153.0867 H   0  0  0  0  0  0  0  0  0  0  0  0
  147.8207  135.6856  152.9234 H   0  0  0  0  0  0  0  0  0  0  0  0
  145.8375  134.9632  154.8611 H   0  0  0  0  0  0  0  0  0  0  0  0
  143.8433  135.0506  153.5196 H   0  0  0  0  0  0  0  0  0  0  0  0
  144.5076  136.6595  153.5719 H   0  0  0  0  0  0  0  0  0  0  0  0
  143.7617  136.0377  151.2678 H   0  0  0  0  0  0  0  0  0  0  0  0
  145.4732  136.3800  151.3033 H   0  0  0  0  0  0  0  0  0  0  0  0
  144.1819  133.6093  151.3158 H   0  0  0  0  0  0  0  0  0  0  0  0
  145.0737  134.3262  149.9959 H   0  0  0  0  0  0  0  0  0  0  0  0
  146.4674  132.6987  151.2662 H   0  0  0  0  0  0  0  0  0  0  0  0
  147.1599  134.2993  151.3146 H   0  0  0  0  0  0  0  0  0  0  0  0
  145.4607  133.0147  153.4879 H   0  0  0  0  0  0  0  0  0  0  0  0
  147.4954  132.9026  154.8448 H   0  0  0  0  0  0  0  0  0  0  0  0
  147.7475  132.0348  153.3452 H   0  0  0  0  0  0  0  0  0  0  0  0
  148.4113  134.6100  153.0320 H   0  0  0  0  0  0  0  0  0  0  0  0
  1  2  1  0  0  0  0
  1 19  1  0  0  0  0
  1 20  1  0  0  0  0
  1 21  1  0  0  0  0
  2  6  1  0  0  0  0
  2  3  1  0  0  0  0
  3  4  2  0  0  0  0
  4  5  1  0  0  0  0
  4 22  1  0  0  0  0
  5  6  2  0  0  0  0
  6  7  1  0  0  0  0
  7  8  1  0  0  0  0
  7 23  1  0  0  0  0
  8  9  2  0  0  0  0
  8 10  1  0  0  0  0
 10 11  1  0  0  0  0
 10 24  1  0  0  0  0
 11 16  1  0  0  0  0
 11 12  1  0  0  0  0
 11 25  1  0  0  0  0
 12 13  1  0  0  0  0
 12 26  1  0  0  0  0
 12 27  1  0  0  0  0
 13 14  1  0  0  0  0
 13 28  1  0  0  0  0
 13 29  1  0  0  0  0
 14 15  1  0  0  0  0
 14 30  1  0  0  0  0
 14 31  1  0  0  0  0
 15 16  1  0  0  0  0
 15 32  1  0  0  0  0
 15 33  1  0  0  0  0
 16 17  1  0  0  0  0
 16 34  1  0  0  0  0
 17 18  1  0  0  0  0
 17 35  1  0  0  0  0
 17 36  1  0  0  0  0
 18 37  1  0  0  0  0
M  END
> <s_m_source_file>
AV-unprocessed.smi

> <i_m_source_file_index>
2481

> <i_lp_mmshare_version>
43012

> <i_f3d_flags>
0

> <s_epik_input>
W0NIM11uMW5bY0hdbmMxW05IXUMoPU8pW05IXVtDQEBIXTJbQ0gyXVtDSDJdW0NIMl1bQ0gyXVtDQEhdMltDSDJdW09IXQ==

> <s_epik_cmdline>
J2VwaWtfcHl0aG9uJywgJy1waCcsICc3LjAnLCAnLXRuJywgJzgnLCAnLW1hJywgJzIwMCcsICctbWV0YWxfYmluZGluZycsICctaW1hZScsICc8aW5maWxlLm1hZT4nLCAnLW9tYWUnLCAnPG91dGZpbGUubWFlPic=

> <r_lp_tautomer_probability>
1

> <r_epik_Ionization_Penalty>
2.32704e-05

> <r_epik_Ionization_Penalty_Charging>
0

> <r_epik_Ionization_Penalty_Neutral>
2.32704e-05

> <r_epik_State_Penalty>
-0

> <r_epik_Charging_Adjusted_Penalty>
0

> <i_epik_Tot_Q>
0

> <i_epik_Tot_abs_Q>
0

> <r_epik_Metal_State_Penalty>
-0

> <b_epik_Metal_Only>
0

> <s_lp_Force_Field>
OPLS_2005

> <r_lp_Energy>
12.0368

> <b_lp_Chiralities_Consistent>
1

> <s_lp_Variant>
AV-unprocessed.smi:2481-2

> <Gold.Version>
5.8.1

> <Gold.Id.Protein>
6NUR|6NUR_protein|mol2

> <Gold.PLP.Fitness>
37.3941

> <Gold.PLP.PLP>
-26.0065

> <Gold.PLP.part.hbond>
-3.8005

> <Gold.PLP.part.metal>
0.0000

> <Gold.PLP.part.buried>
-2.8973

> <Gold.PLP.part.nonpolar>
-19.3324

> <Gold.PLP.part.repulsive>
0.2754

> <Gold.PLP.ligand.clash>
0.0000

> <Gold.PLP.ligand.torsion>
0.4940

> <Gold.PLP.Chemscore.Hbond>
3.6608

> <Gold.PLP.Chemscore.CHOScore>
0.4585

> <Gold.PLP.Chemscore.Metal>
0.0000

> <Gold.Chemscore.Hbonds>
donor molecule, donor type, donor heavy atom, donor atom, acceptor molecule, acceptor atom, score
      L1  H     7    23       P1  7948  0.94
      L1  H    10    24       P1  7948  0.88
      L1  H    18    37       P1  7948  0.90
      P1  H  7989  7998       L1     3  0.90
      L1  C     4    22       P1  8028  0.42

> <Gold.PLP.Chemscore.Internal.Correction>
0.0179

> <Gold.Rescore>
     Score         DG    S(hbond)    S(metal)    S(lipo)     H(rot)  DE(clash)    DE(int)     intcor
     11.46     -13.55       2.73        0.00      34.46       1.99       0.03       2.06       ----

> <Gold.Chemscore.Fitness>
11.4623

> <Gold.Chemscore.DG>
-13.5488

> <Gold.Chemscore.ZeroCoef>
-5.4800

> <Gold.Chemscore.Hbond>
2.7321

> <Gold.Chemscore.Metal>
0.0000

> <Gold.Chemscore.Lipo>
34.4631

> <Gold.Chemscore.Internal_Hbond>
0.0000

> <Gold.Chemscore.DEClash>
0.0275

> <Gold.Chemscore.DEInternal>
2.0590

> <Gold.Chemscore.Rot>
1.9877

> <Gold.Chemscore.Internal.Correction>
   9.000000E+99

> <Gold.Chemscore.Hbonds>
donor molecule, donor type, donor heavy atom, donor atom, acceptor molecule, acceptor atom, score
      L1  H     7    23       P1  7948  0.89
      L1  H    10    24       P1  7948  0.86
      L1  H    18    37       P1  7948  0.37
      P1  H  7989  7998       L1     3  0.16

> <Gold.Chemscore.Hbond.Weighted>
-9.1251

> <Gold.Chemscore.Metal.Weighted>
-0.0000

> <Gold.Chemscore.Lipo.Weighted>
-4.0322

> <Gold.Chemscore.Internal_Hbond.Weighted>
0.0000

> <Gold.Chemscore.DEClash.Weighted>
0.0275

> <Gold.Chemscore.DEInternal.Weighted>
2.0590

> <Gold.Chemscore.Rot.Weighted>
5.0885

> <Gold.Chemscore.Internal.Correction.Weighted>
   9.000000E+99

> <Gold.Protein.RotatedTorsions>
[ 6907 6896 6895 6894 ] final   32.13 input  -60.11 | X-H torsion
[ 7974 7965 7964 7962 ] final   16.11 input  175.53 | X-H torsion
[ 8008 7997 7996 7995 ] final  107.21 input   59.86 | X-H torsion
[ 10167 10162 10161 10158 ] final -107.87 input  -65.29 | X-H torsion
[ 10718 10713 10712 10709 ] final  -47.56 input   66.30 | X-H torsion
[ 10763 10752 10751 10750 ] final   -9.80 input  -60.55 | X-H torsion
[ 11005 11000 10999 10996 ] final -132.04 input  -57.11 | X-H torsion

> <Gold.Protein.ActiveResidues>
 VAL166  LYS551  ARG553  GLY616  TRP617  ASP618  TYR619  PRO620  LYS621  CYS622 
 ASP623  PHE694  ASN695  SER759  ASP760  ASP761  ALA762  ILE779  LEU786  VAL792 
 PHE793  MET794  SER795  GLU796  ALA797  LYS798  CYS799  TRP800  GLU811  SER814 

> <Gold.Protein.RotatedAtoms>
  152.0701  134.9539  160.0574 H   0  0  0  0  0  0  0  0  0  0  0  0  # atno 6907 bound_to 6896
  152.0868  133.4176  159.4534 H   0  0  0  0  0  0  0  0  0  0  0  0  # atno 6908 bound_to 6896
  150.6836  134.2837  159.4681 H   0  0  0  0  0  0  0  0  0  0  0  0  # atno 6909 bound_to 6896
  146.2259  139.8795  142.8573 H   0  0  0  0  0  0  0  0  0  0  0  0  # atno 7974 bound_to 7965
  156.1806  140.3099  155.9141 H   0  0  0  0  0  0  0  0  0  0  0  0  # atno 8008 bound_to 7997
  155.3392  140.0465  157.3061 H   0  0  0  0  0  0  0  0  0  0  0  0  # atno 8009 bound_to 7997
  154.5338  140.2239  155.8768 H   0  0  0  0  0  0  0  0  0  0  0  0  # atno 8010 bound_to 7997
  140.1723  143.4033  152.1345 H   0  0  0  0  0  0  0  0  0  0  0  0  # atno 10167 bound_to 10162
  156.2073  130.4159  149.9161 H   0  0  0  0  0  0  0  0  0  0  0  0  # atno 10718 bound_to 10713
  153.4600  135.7016  153.6056 H   0  0  0  0  0  0  0  0  0  0  0  0  # atno 10763 bound_to 10752
  153.4355  135.3792  155.2196 H   0  0  0  0  0  0  0  0  0  0  0  0  # atno 10764 bound_to 10752
  154.8727  135.3961  154.4024 H   0  0  0  0  0  0  0  0  0  0  0  0  # atno 10765 bound_to 10752
  140.9205  134.1450  157.4318 H   0  0  0  0  0  0  0  0  0  0  0  0  # atno 11005 bound_to 11000
  145.2526  141.0049  143.3872 LP  0  0  0  0  0  0  0  0  0  0  0  0  # atno 17320 bound_to 7965
  144.9362  139.4241  143.6471 LP  0  0  0  0  0  0  0  0  0  0  0  0  # atno 17321 bound_to 7965
  139.5333  144.7182  151.4981 LP  0  0  0  0  0  0  0  0  0  0  0  0  # atno 17342 bound_to 10162
  140.6574  143.8570  150.6850 LP  0  0  0  0  0  0  0  0  0  0  0  0  # atno 17343 bound_to 10162
  156.6851  130.8873  151.3581 LP  0  0  0  0  0  0  0  0  0  0  0  0  # atno 17370 bound_to 10713
  157.7019  130.9342  150.0811 LP  0  0  0  0  0  0  0  0  0  0  0  0  # atno 17371 bound_to 10713
  139.8774  134.9969  156.5822 LP  0  0  0  0  0  0  0  0  0  0  0  0  # atno 17394 bound_to 11000
  140.7994  133.8518  155.8713 LP  0  0  0  0  0  0  0  0  0  0  0  0  # atno 17395 bound_to 11000

$$$$
