AV-unprocessed.smi:696|AV-procd|sdf|3388|dock9
  -GOLD-   22720 0373D 1   1.00000     0.00000
 Structure written by MMmdl.
 37 38  0  0  0  0  0  0  0  0  2 V2000
  152.5941  139.6511  157.3963 O   0  0  0  0  0  0  0  0  0  0  0  0
  151.9394  139.8612  158.4182 C   0  0  0  0  0  0  0  0  0  0  0  0
  151.3940  138.8822  159.1568 N   0  0  0  0  0  0  0  0  0  0  0  0
  151.4967  137.4562  158.8686 C   0  0  0  0  0  0  0  0  0  0  0  0
  150.1102  136.8212  158.6577 C   0  0  0  0  0  0  0  0  0  0  0  0
  149.5109  136.3644  159.9597 C   0  0  0  0  0  0  0  0  0  0  0  0
  149.1422  137.1180  160.9274 N   0  0  0  0  0  0  0  0  0  0  0  0
  148.6909  136.2403  161.8385 N   0  0  0  0  0  0  0  0  0  0  0  0
  148.7941  134.9806  161.4082 C   0  0  0  0  0  0  0  0  0  0  0  0
  148.4452  134.0056  162.0701 O   0  0  0  0  0  0  0  0  0  0  0  0
  149.3290  135.0340  160.1753 N   0  5  0  0  0  0  0  0  0  0  0  0
  151.7092  141.2999  158.9052 C   0  0  0  0  0  0  0  0  0  0  0  0
  150.8255  142.0683  157.8949 C   0  0  0  0  0  0  0  0  0  0  0  0
  150.1950  143.3381  158.4922 C   0  0  0  0  0  0  0  0  0  0  0  0
  151.0566  144.6106  158.4037 C   0  0  0  0  0  0  0  0  0  0  0  0
  152.5700  144.4369  158.6239 C   0  0  0  0  0  0  0  0  0  0  0  0
  152.9684  143.4258  159.7110 C   0  0  0  0  0  0  0  0  0  0  0  0
  153.0649  141.9838  159.1814 C   0  0  0  0  0  0  0  0  0  0  0  0
  148.3315  136.5655  162.7238 H   0  0  0  0  0  0  0  0  0  0  0  0
  150.8725  139.1425  159.9811 H   0  0  0  0  0  0  0  0  0  0  0  0
  152.1020  137.3424  157.9683 H   0  0  0  0  0  0  0  0  0  0  0  0
  152.0367  136.9500  159.6710 H   0  0  0  0  0  0  0  0  0  0  0  0
  149.4399  137.5396  158.1839 H   0  0  0  0  0  0  0  0  0  0  0  0
  150.1882  135.9790  157.9686 H   0  0  0  0  0  0  0  0  0  0  0  0
  151.1675  141.2382  159.8508 H   0  0  0  0  0  0  0  0  0  0  0  0
  151.3797  142.3051  156.9854 H   0  0  0  0  0  0  0  0  0  0  0  0
  150.0084  141.4168  157.5803 H   0  0  0  0  0  0  0  0  0  0  0  0
  149.2529  143.5382  157.9805 H   0  0  0  0  0  0  0  0  0  0  0  0
  149.9195  143.1545  159.5312 H   0  0  0  0  0  0  0  0  0  0  0  0
  150.9092  145.0734  157.4272 H   0  0  0  0  0  0  0  0  0  0  0  0
  150.6710  145.3304  159.1267 H   0  0  0  0  0  0  0  0  0  0  0  0
  153.0470  144.1626  157.6821 H   0  0  0  0  0  0  0  0  0  0  0  0
  152.9845  145.4130  158.8789 H   0  0  0  0  0  0  0  0  0  0  0  0
  153.9552  143.7055  160.0815 H   0  0  0  0  0  0  0  0  0  0  0  0
  152.2999  143.4875  160.5705 H   0  0  0  0  0  0  0  0  0  0  0  0
  153.6057  141.3902  159.9204 H   0  0  0  0  0  0  0  0  0  0  0  0
  153.6867  141.9696  158.2848 H   0  0  0  0  0  0  0  0  0  0  0  0
  1  2  2  0  0  0  0
  2  3  1  0  0  0  0
  2 12  1  0  0  0  0
  3  4  1  0  0  0  0
  3 20  1  0  0  0  0
  4  5  1  0  0  0  0
  4 21  1  0  0  0  0
  4 22  1  0  0  0  0
  5  6  1  0  0  0  0
  5 23  1  0  0  0  0
  5 24  1  0  0  0  0
  6 11  1  0  0  0  0
  6  7  2  0  0  0  0
  7  8  1  0  0  0  0
  8 19  1  0  0  0  0
  8  9  1  0  0  0  0
  9 10  2  0  0  0  0
  9 11  1  0  0  0  0
 12 18  1  0  0  0  0
 12 13  1  0  0  0  0
 12 25  1  0  0  0  0
 13 14  1  0  0  0  0
 13 26  1  0  0  0  0
 13 27  1  0  0  0  0
 14 15  1  0  0  0  0
 14 28  1  0  0  0  0
 14 29  1  0  0  0  0
 15 16  1  0  0  0  0
 15 30  1  0  0  0  0
 15 31  1  0  0  0  0
 16 17  1  0  0  0  0
 16 32  1  0  0  0  0
 16 33  1  0  0  0  0
 17 18  1  0  0  0  0
 17 34  1  0  0  0  0
 17 35  1  0  0  0  0
 18 36  1  0  0  0  0
 18 37  1  0  0  0  0
M  CHG  1  11  -1
M  END
> <s_m_source_file>
AV-unprocessed.smi

> <i_m_source_file_index>
696

> <i_lp_mmshare_version>
43012

> <i_f3d_flags>
0

> <s_epik_input>
W0NIMl0xW0NIMl1bQ0gyXVtDSDJdW0NIMl1bQ0gyXVtDSF0xQyg9TylbTkhdW0NIMl1bQ0gyXWMybltuSF1jKD1PKVtuSF0y

> <s_epik_cmdline>
J2VwaWtfcHl0aG9uJywgJy1waCcsICc3LjAnLCAnLXRuJywgJzgnLCAnLW1hJywgJzIwMCcsICctbWV0YWxfYmluZGluZycsICctaW1hZScsICc8aW5maWxlLm1hZT4nLCAnLW9tYWUnLCAnPG91dGZpbGUubWFlPic=

> <r_lp_tautomer_probability>
1

> <r_epik_Ionization_Penalty>
13.715

> <r_epik_Ionization_Penalty_Charging>
13.715

> <r_epik_Ionization_Penalty_Neutral>
5.16152e-06

> <r_epik_State_Penalty>
4.03036

> <r_epik_Charging_Adjusted_Penalty>
17.7454

> <i_epik_Tot_Q>
-1

> <i_epik_Tot_abs_Q>
1

> <r_epik_Metal_State_Penalty>
0.449398

> <b_epik_Metal_Only>
1

> <s_lp_Force_Field>
OPLS_2005

> <r_lp_Energy>
29.0226

> <b_lp_Chiralities_Consistent>
1

> <s_lp_Variant>
AV-unprocessed.smi:696-3

> <Gold.Version>
5.8.1

> <Gold.Id.Protein>
6NUR|6NUR_protein|mol2

> <Gold.PLP.Fitness>
43.9029

> <Gold.PLP.PLP>
-34.2158

> <Gold.PLP.part.hbond>
-4.0000

> <Gold.PLP.part.metal>
0.0000

> <Gold.PLP.part.buried>
-4.9291

> <Gold.PLP.part.nonpolar>
-26.1305

> <Gold.PLP.part.repulsive>
0.3539

> <Gold.PLP.ligand.clash>
0.0000

> <Gold.PLP.ligand.torsion>
0.2431

> <Gold.PLP.Chemscore.Hbond>
3.3784

> <Gold.PLP.Chemscore.CHOScore>
0.0000

> <Gold.PLP.Chemscore.Metal>
0.0000

> <Gold.Chemscore.Hbonds>
donor molecule, donor type, donor heavy atom, donor atom, acceptor molecule, acceptor atom, score
      P1  H  6896  6908       L1    11  1.18
      P1  H  6931  6943       L1     7  0.44
      P1  H  7997  8008       L1     1  1.00

> <Gold.PLP.Chemscore.Internal.Correction>
0.0382

> <Gold.Rescore>
     Score         DG    S(hbond)    S(metal)    S(lipo)     H(rot)  DE(clash)    DE(int)     intcor
     14.98     -15.68       1.92        0.00      81.61       2.25       0.01       0.69       ----

> <Gold.Chemscore.Fitness>
14.9837

> <Gold.Chemscore.DG>
-15.6801

> <Gold.Chemscore.ZeroCoef>
-5.4800

> <Gold.Chemscore.Hbond>
1.9199

> <Gold.Chemscore.Metal>
0.0000

> <Gold.Chemscore.Lipo>
81.6053

> <Gold.Chemscore.Internal_Hbond>
0.0000

> <Gold.Chemscore.DEClash>
0.0103

> <Gold.Chemscore.DEInternal>
0.6861

> <Gold.Chemscore.Rot>
2.2501

> <Gold.Chemscore.Internal.Correction>
   9.000000E+99

> <Gold.Chemscore.Hbonds>
donor molecule, donor type, donor heavy atom, donor atom, acceptor molecule, acceptor atom, score
      P1  H  6896  6908       L1    11  0.17
      P1  H  6931  6943       L1     7  0.04
      P1  H  7997  8008       L1     1  0.97

> <Gold.Chemscore.Hbond.Weighted>
-6.4126

> <Gold.Chemscore.Metal.Weighted>
-0.0000

> <Gold.Chemscore.Lipo.Weighted>
-9.5478

> <Gold.Chemscore.Internal_Hbond.Weighted>
0.0000

> <Gold.Chemscore.DEClash.Weighted>
0.0103

> <Gold.Chemscore.DEInternal.Weighted>
0.6861

> <Gold.Chemscore.Rot.Weighted>
5.7603

> <Gold.Chemscore.Internal.Correction.Weighted>
   9.000000E+99

> <Gold.Protein.RotatedTorsions>
[ 6907 6896 6895 6894 ] final  160.00 input  -60.11 | X-H torsion
[ 7974 7965 7964 7962 ] final -176.88 input  175.53 | X-H torsion
[ 8008 7997 7996 7995 ] final  -56.56 input   59.86 | X-H torsion
[ 10167 10162 10161 10158 ] final  -24.24 input  -65.29 | X-H torsion
[ 10718 10713 10712 10709 ] final -122.60 input   66.30 | X-H torsion
[ 10763 10752 10751 10750 ] final  128.02 input  -60.55 | X-H torsion
[ 11005 11000 10999 10996 ] final  102.59 input  -57.11 | X-H torsion

> <Gold.Protein.ActiveResidues>
 VAL166  LYS551  ARG553  GLY616  TRP617  ASP618  TYR619  PRO620  LYS621  CYS622 
 ASP623  PHE694  ASN695  SER759  ASP760  ASP761  ALA762  ILE779  LEU786  VAL792 
 PHE793  MET794  SER795  GLU796  ALA797  LYS798  CYS799  TRP800  GLU811  SER814 

> <Gold.Protein.RotatedAtoms>
  151.9772  133.3745  159.4093 H   0  0  0  0  0  0  0  0  0  0  0  0  # atno 6907 bound_to 6896
  150.6940  134.4078  159.5157 H   0  0  0  0  0  0  0  0  0  0  0  0  # atno 6908 bound_to 6896
  152.1791  134.8769  160.0578 H   0  0  0  0  0  0  0  0  0  0  0  0  # atno 6909 bound_to 6896
  144.7127  140.1103  143.6411 H   0  0  0  0  0  0  0  0  0  0  0  0  # atno 7974 bound_to 7965
  154.4234  140.1127  156.5657 H   0  0  0  0  0  0  0  0  0  0  0  0  # atno 8008 bound_to 7997
  155.6265  140.3495  155.4650 H   0  0  0  0  0  0  0  0  0  0  0  0  # atno 8009 bound_to 7997
  155.9982  140.1193  157.0562 H   0  0  0  0  0  0  0  0  0  0  0  0  # atno 8010 bound_to 7997
  140.7288  143.4371  151.0713 H   0  0  0  0  0  0  0  0  0  0  0  0  # atno 10167 bound_to 10162
  156.1432  130.6481  150.9802 H   0  0  0  0  0  0  0  0  0  0  0  0  # atno 10718 bound_to 10713
  153.7188  135.3256  155.3262 H   0  0  0  0  0  0  0  0  0  0  0  0  # atno 10763 bound_to 10752
  154.8362  135.4494  154.1239 H   0  0  0  0  0  0  0  0  0  0  0  0  # atno 10764 bound_to 10752
  153.2353  135.6964  153.7923 H   0  0  0  0  0  0  0  0  0  0  0  0  # atno 10765 bound_to 10752
  139.8778  134.9230  156.5081 H   0  0  0  0  0  0  0  0  0  0  0  0  # atno 11005 bound_to 11000
  145.9460  139.2701  143.1240 LP  0  0  0  0  0  0  0  0  0  0  0  0  # atno 17320 bound_to 7965
  145.9373  140.9005  143.0325 LP  0  0  0  0  0  0  0  0  0  0  0  0  # atno 17321 bound_to 7965
  139.8034  143.8051  152.3165 LP  0  0  0  0  0  0  0  0  0  0  0  0  # atno 17342 bound_to 10162
  139.8076  144.7349  150.9740 LP  0  0  0  0  0  0  0  0  0  0  0  0  # atno 17343 bound_to 10162
  157.6594  131.0883  150.7874 LP  0  0  0  0  0  0  0  0  0  0  0  0  # atno 17370 bound_to 10713
  156.7948  130.4901  149.5379 LP  0  0  0  0  0  0  0  0  0  0  0  0  # atno 17371 bound_to 10713
  140.8540  133.8110  155.9197 LP  0  0  0  0  0  0  0  0  0  0  0  0  # atno 17394 bound_to 11000
  140.9116  134.2254  157.4982 LP  0  0  0  0  0  0  0  0  0  0  0  0  # atno 17395 bound_to 11000

$$$$
