AV-unprocessed.smi:2297|AV-procd|sdf|9222|dock3
  -GOLD-   2272012443D 1   1.00000     0.00000
 Structure written by MMmdl.
 44 45  0  0  0  0  0  0  0  0  1 V2000
  151.6958  145.1245  158.9715 C   0  0  0  0  0  0  0  0  0  0  0  0
  152.0503  143.6701  158.7396 C   0  0  0  0  0  0  0  0  0  0  0  0
  152.9837  143.0226  159.5736 C   0  0  0  0  0  0  0  0  0  0  0  0
  153.3096  141.6705  159.3521 C   0  0  0  0  0  0  0  0  0  0  0  0
  154.3150  140.9814  160.2515 C   0  0  0  0  0  0  0  0  0  0  0  0
  152.6979  140.9678  158.2940 C   0  0  0  0  0  0  0  0  0  0  0  0
  151.7623  141.6006  157.4503 C   0  0  0  0  0  0  0  0  0  0  0  0
  151.2148  140.8368  156.4423 O   0  0  0  0  0  0  0  0  0  0  0  0
  150.2181  141.4252  155.6149 C   0  0  0  0  0  0  0  0  0  0  0  0
  149.5115  140.3396  154.7852 C   0  0  2  0  0  0  0  0  0  0  0  0
  150.4203  139.8866  153.8018 O   0  0  0  0  0  0  0  0  0  0  0  0
  148.2050  140.8365  154.1260 C   0  0  0  0  0  0  0  0  0  0  0  0
  147.2956  139.7290  153.7880 N   0  0  0  0  0  0  0  0  0  0  0  0
  147.0209  139.5433  152.4234 C   0  0  0  0  0  0  0  0  0  0  0  0
  146.2378  138.6009  152.0105 N   0  0  0  0  0  0  0  0  0  0  0  0
  145.6383  137.7383  152.9328 C   0  0  0  0  0  0  0  0  0  0  0  0
  144.7301  136.6745  152.3422 C   0  0  0  0  0  0  0  0  0  0  0  0
  145.8662  137.8628  154.2689 C   0  0  0  0  0  0  0  0  0  0  0  0
  145.2362  136.9579  155.3206 C   0  0  0  0  0  0  0  0  0  0  0  0
  146.7635  138.9242  154.7528 C   0  0  0  0  0  0  0  0  0  0  0  0
  147.0275  139.0837  155.9462 O   0  0  0  0  0  0  0  0  0  0  0  0
  151.4435  142.9624  157.6823 C   0  0  0  0  0  0  0  0  0  0  0  0
  152.1600  145.5082  159.8807 H   0  0  0  0  0  0  0  0  0  0  0  0
  150.6160  145.2407  159.0672 H   0  0  0  0  0  0  0  0  0  0  0  0
  152.0342  145.7329  158.1326 H   0  0  0  0  0  0  0  0  0  0  0  0
  153.4519  143.5614  160.3846 H   0  0  0  0  0  0  0  0  0  0  0  0
  154.4530  139.9373  159.9691 H   0  0  0  0  0  0  0  0  0  0  0  0
  153.9786  141.0119  161.2881 H   0  0  0  0  0  0  0  0  0  0  0  0
  155.2817  141.4815  160.1892 H   0  0  0  0  0  0  0  0  0  0  0  0
  152.9458  139.9304  158.1227 H   0  0  0  0  0  0  0  0  0  0  0  0
  149.4922  141.9844  156.2083 H   0  0  0  0  0  0  0  0  0  0  0  0
  150.6963  142.1273  154.9301 H   0  0  0  0  0  0  0  0  0  0  0  0
  149.3075  139.4982  155.4486 H   0  0  0  0  0  0  0  0  0  0  0  0
  149.9515  139.7674  152.9902 H   0  0  0  0  0  0  0  0  0  0  0  0
  147.6864  141.5066  154.8142 H   0  0  0  0  0  0  0  0  0  0  0  0
  148.4280  141.4649  153.2608 H   0  0  0  0  0  0  0  0  0  0  0  0
  147.5136  140.2422  151.7451 H   0  0  0  0  0  0  0  0  0  0  0  0
  143.7105  136.7980  152.7080 H   0  0  0  0  0  0  0  0  0  0  0  0
  145.0806  135.6786  152.6142 H   0  0  0  0  0  0  0  0  0  0  0  0
  144.7046  136.7328  151.2535 H   0  0  0  0  0  0  0  0  0  0  0  0
  146.0118  136.4536  155.8980 H   0  0  0  0  0  0  0  0  0  0  0  0
  144.5920  136.1895  154.8966 H   0  0  0  0  0  0  0  0  0  0  0  0
  144.6317  137.5485  156.0100 H   0  0  0  0  0  0  0  0  0  0  0  0
  150.7339  143.4868  157.0604 H   0  0  0  0  0  0  0  0  0  0  0  0
  1  2  1  0  0  0  0
  1 23  1  0  0  0  0
  1 24  1  0  0  0  0
  1 25  1  0  0  0  0
  2 22  1  0  0  0  0
  2  3  2  0  0  0  0
  3  4  1  0  0  0  0
  3 26  1  0  0  0  0
  4  5  1  0  0  0  0
  4  6  2  0  0  0  0
  5 27  1  0  0  0  0
  5 28  1  0  0  0  0
  5 29  1  0  0  0  0
  6  7  1  0  0  0  0
  6 30  1  0  0  0  0
  7  8  1  0  0  0  0
  7 22  2  0  0  0  0
  8  9  1  0  0  0  0
  9 10  1  0  0  0  0
  9 31  1  0  0  0  0
  9 32  1  0  0  0  0
 10 11  1  0  0  0  0
 10 12  1  0  0  0  0
 10 33  1  0  0  0  0
 11 34  1  0  0  0  0
 12 13  1  0  0  0  0
 12 35  1  0  0  0  0
 12 36  1  0  0  0  0
 13 20  1  0  0  0  0
 13 14  1  0  0  0  0
 14 15  2  0  0  0  0
 14 37  1  0  0  0  0
 15 16  1  0  0  0  0
 16 17  1  0  0  0  0
 16 18  2  0  0  0  0
 17 38  1  0  0  0  0
 17 39  1  0  0  0  0
 17 40  1  0  0  0  0
 18 19  1  0  0  0  0
 18 20  1  0  0  0  0
 19 41  1  0  0  0  0
 19 42  1  0  0  0  0
 19 43  1  0  0  0  0
 20 21  2  0  0  0  0
 22 44  1  0  0  0  0
M  END
> <s_m_source_file>
AV-unprocessed.smi

> <i_m_source_file_index>
2297

> <i_lp_mmshare_version>
43012

> <i_f3d_flags>
0

> <s_epik_input>
W0NIM11jMVtjSF1jKFtDSDNdKVtjSF1jKFtjSF0xKU9bQ0gyXVtDQEhdKFtPSF0pW0NIMl1uMltjSF1uYyhbQ0gzXSljKFtDSDNdKWMyPU8=

> <s_epik_cmdline>
J2VwaWtfcHl0aG9uJywgJy1waCcsICc3LjAnLCAnLXRuJywgJzgnLCAnLW1hJywgJzIwMCcsICctbWV0YWxfYmluZGluZycsICctaW1hZScsICc8aW5maWxlLm1hZT4nLCAnLW9tYWUnLCAnPG91dGZpbGUubWFlPic=

> <r_lp_tautomer_probability>
1

> <r_epik_Ionization_Penalty>
3.72236e-05

> <r_epik_Ionization_Penalty_Charging>
8.38864e-08

> <r_epik_Ionization_Penalty_Neutral>
3.71397e-05

> <r_epik_State_Penalty>
-0

> <r_epik_Charging_Adjusted_Penalty>
8.38864e-08

> <i_epik_Tot_Q>
0

> <i_epik_Tot_abs_Q>
0

> <r_epik_Metal_State_Penalty>
-0

> <b_epik_Metal_Only>
0

> <s_lp_Force_Field>
OPLS_2005

> <r_lp_Energy>
24.6499

> <b_lp_Chiralities_Consistent>
1

> <s_lp_Variant>
AV-unprocessed.smi:2297-1

> <Gold.Version>
5.8.1

> <Gold.Id.Protein>
6NUR|6NUR_protein|mol2

> <Gold.PLP.Fitness>
51.0579

> <Gold.PLP.PLP>
-42.6923

> <Gold.PLP.part.hbond>
-2.0000

> <Gold.PLP.part.metal>
0.0000

> <Gold.PLP.part.buried>
-3.8810

> <Gold.PLP.part.nonpolar>
-37.3979

> <Gold.PLP.part.repulsive>
0.3625

> <Gold.PLP.ligand.clash>
0.0000

> <Gold.PLP.ligand.torsion>
0.3545

> <Gold.PLP.Chemscore.Hbond>
2.0000

> <Gold.PLP.Chemscore.CHOScore>
0.9958

> <Gold.PLP.Chemscore.Metal>
0.0000

> <Gold.Chemscore.Hbonds>
donor molecule, donor type, donor heavy atom, donor atom, acceptor molecule, acceptor atom, score
      L1  H    11    34       P1  7957  1.00
      P1  H  7989  7998       L1    11  0.98
      L1  C    14    37       P1  7957  0.87

> <Gold.PLP.Chemscore.Internal.Correction>
0.0874

> <Gold.Rescore>
     Score         DG    S(hbond)    S(metal)    S(lipo)     H(rot)  DE(clash)    DE(int)     intcor
     16.60     -17.41       1.49        0.00     110.32       2.32       0.04       0.77       ----

> <Gold.Chemscore.Fitness>
16.5974

> <Gold.Chemscore.DG>
-17.4071

> <Gold.Chemscore.ZeroCoef>
-5.4800

> <Gold.Chemscore.Hbond>
1.4873

> <Gold.Chemscore.Metal>
0.0000

> <Gold.Chemscore.Lipo>
110.3231

> <Gold.Chemscore.Internal_Hbond>
0.0000

> <Gold.Chemscore.DEClash>
0.0427

> <Gold.Chemscore.DEInternal>
0.7670

> <Gold.Chemscore.Rot>
2.3236

> <Gold.Chemscore.Internal.Correction>
   9.000000E+99

> <Gold.Chemscore.Hbonds>
donor molecule, donor type, donor heavy atom, donor atom, acceptor molecule, acceptor atom, score
      L1  H    11    34       P1  7957  0.98
      P1  H  7989  7998       L1    11  0.46

> <Gold.Chemscore.Hbond.Weighted>
-4.9677

> <Gold.Chemscore.Metal.Weighted>
-0.0000

> <Gold.Chemscore.Lipo.Weighted>
-12.9078

> <Gold.Chemscore.Internal_Hbond.Weighted>
0.0000

> <Gold.Chemscore.DEClash.Weighted>
0.0427

> <Gold.Chemscore.DEInternal.Weighted>
0.7670

> <Gold.Chemscore.Rot.Weighted>
5.9484

> <Gold.Chemscore.Internal.Correction.Weighted>
   9.000000E+99

> <Gold.Protein.RotatedTorsions>
[ 6907 6896 6895 6894 ] final  168.67 input  -60.11 | X-H torsion
[ 7974 7965 7964 7962 ] final  173.07 input  175.53 | X-H torsion
[ 8008 7997 7996 7995 ] final -114.30 input   59.86 | X-H torsion
[ 10167 10162 10161 10158 ] final  123.73 input  -65.29 | X-H torsion
[ 10718 10713 10712 10709 ] final  -13.02 input   66.30 | X-H torsion
[ 10763 10752 10751 10750 ] final -147.63 input  -60.55 | X-H torsion
[ 11005 11000 10999 10996 ] final   89.39 input  -57.11 | X-H torsion

> <Gold.Protein.ActiveResidues>
 VAL166  LYS551  ARG553  GLY616  TRP617  ASP618  TYR619  PRO620  LYS621  CYS622 
 ASP623  PHE694  ASN695  SER759  ASP760  ASP761  ALA762  ILE779  LEU786  VAL792 
 PHE793  MET794  SER795  GLU796  ALA797  LYS798  CYS799  TRP800  GLU811  SER814 

> <Gold.Protein.RotatedAtoms>
  151.8440  133.3428  159.3651 H   0  0  0  0  0  0  0  0  0  0  0  0  # atno 6907 bound_to 6896
  150.7226  134.5364  159.5735 H   0  0  0  0  0  0  0  0  0  0  0  0  # atno 6908 bound_to 6896
  152.2843  134.7794  160.0441 H   0  0  0  0  0  0  0  0  0  0  0  0  # atno 6909 bound_to 6896
  144.7252  139.9593  143.6434 H   0  0  0  0  0  0  0  0  0  0  0  0  # atno 7974 bound_to 7965
  155.0342  140.0393  157.2485 H   0  0  0  0  0  0  0  0  0  0  0  0  # atno 8008 bound_to 7997
  154.7271  140.2723  155.6465 H   0  0  0  0  0  0  0  0  0  0  0  0  # atno 8009 bound_to 7997
  156.2832  140.2691  156.1960 H   0  0  0  0  0  0  0  0  0  0  0  0  # atno 8010 bound_to 7997
  139.5782  144.6974  151.3597 H   0  0  0  0  0  0  0  0  0  0  0  0  # atno 10167 bound_to 10162
  156.6363  130.4915  149.6111 H   0  0  0  0  0  0  0  0  0  0  0  0  # atno 10718 bound_to 10713
  154.8276  135.3355  154.6848 H   0  0  0  0  0  0  0  0  0  0  0  0  # atno 10763 bound_to 10752
  153.7472  135.6942  153.4958 H   0  0  0  0  0  0  0  0  0  0  0  0  # atno 10764 bound_to 10752
  153.2202  135.4451  155.0431 H   0  0  0  0  0  0  0  0  0  0  0  0  # atno 10765 bound_to 10752
  139.8876  134.8548  156.3135 H   0  0  0  0  0  0  0  0  0  0  0  0  # atno 11005 bound_to 11000
  146.0650  139.3641  143.0558 LP  0  0  0  0  0  0  0  0  0  0  0  0  # atno 17320 bound_to 7965
  145.8043  140.9756  143.0982 LP  0  0  0  0  0  0  0  0  0  0  0  0  # atno 17321 bound_to 7965
  140.7063  143.7505  150.7488 LP  0  0  0  0  0  0  0  0  0  0  0  0  # atno 17342 bound_to 10162
  140.1031  143.4769  152.2414 LP  0  0  0  0  0  0  0  0  0  0  0  0  # atno 17343 bound_to 10162
  156.2194  130.6728  151.1353 LP  0  0  0  0  0  0  0  0  0  0  0  0  # atno 17370 bound_to 10713
  157.7185  131.0696  150.6233 LP  0  0  0  0  0  0  0  0  0  0  0  0  # atno 17371 bound_to 10713
  140.9835  133.7253  156.0706 LP  0  0  0  0  0  0  0  0  0  0  0  0  # atno 17394 bound_to 11000
  140.7719  134.3823  157.5506 LP  0  0  0  0  0  0  0  0  0  0  0  0  # atno 17395 bound_to 11000

$$$$
