AV-unprocessed.smi:2931|AV-procd|sdf|11249|dock5
  -GOLD-   2272016143D 1   1.00000     0.00000
 Structure written by MMmdl.
 43 44  0  0  0  0  0  0  0  0  3 V2000
  145.3124  130.9422  151.0116 C   0  0  0  0  0  0  0  0  0  0  0  0
  144.9521  132.1305  151.8143 N   0  3  2  0  0  0  0  0  0  0  0  0
  143.8079  132.8786  151.2356 C   0  0  0  0  0  0  0  0  0  0  0  0
  143.3796  134.0317  152.1587 C   0  0  0  0  0  0  0  0  0  0  0  0
  144.5594  134.9657  152.4612 C   0  0  0  0  0  0  0  0  0  0  0  0
  145.7413  134.1599  153.0296 C   0  0  2  0  0  0  0  0  0  0  0  0
  146.8961  135.0263  153.2477 N   0  0  0  0  0  0  0  0  0  0  0  0
  147.3179  135.4564  154.4452 C   0  0  0  0  0  0  0  0  0  0  0  0
  146.7821  135.1553  155.5119 O   0  0  0  0  0  0  0  0  0  0  0  0
  148.3961  136.2470  154.3413 N   0  0  0  0  0  0  0  0  0  0  0  0
  149.0893  136.8825  155.4602 C   0  0  0  0  0  0  0  0  0  0  0  0
  150.3413  137.6638  155.0160 C   0  0  0  0  0  0  0  0  0  0  0  0
  150.2846  139.1486  155.3335 C   0  0  0  0  0  0  0  0  0  0  0  0
  149.2233  139.9426  154.8455 C   0  0  0  0  0  0  0  0  0  0  0  0
  149.1830  141.3135  155.1716 C   0  0  0  0  0  0  0  0  0  0  0  0
  150.1564  141.8516  155.9386 N   0  3  0  0  0  0  0  0  0  0  0  0
  151.1911  141.1293  156.4212 C   0  0  0  0  0  0  0  0  0  0  0  0
  151.2829  139.7529  156.1303 C   0  0  0  0  0  0  0  0  0  0  0  0
  146.1184  133.0113  152.0750 C   0  0  0  0  0  0  0  0  0  0  0  0
  145.6597  131.2312  150.0189 H   0  0  0  0  0  0  0  0  0  0  0  0
  144.4534  130.2804  150.8954 H   0  0  0  0  0  0  0  0  0  0  0  0
  146.1052  130.3743  151.4997 H   0  0  0  0  0  0  0  0  0  0  0  0
  144.0828  133.2651  150.2529 H   0  0  0  0  0  0  0  0  0  0  0  0
  142.9663  132.2012  151.0863 H   0  0  0  0  0  0  0  0  0  0  0  0
  142.5671  134.5955  151.6994 H   0  0  0  0  0  0  0  0  0  0  0  0
  142.9859  133.6266  153.0918 H   0  0  0  0  0  0  0  0  0  0  0  0
  144.8627  135.4793  151.5476 H   0  0  0  0  0  0  0  0  0  0  0  0
  144.2496  135.7390  153.1655 H   0  0  0  0  0  0  0  0  0  0  0  0
  145.4403  133.7182  153.9819 H   0  0  0  0  0  0  0  0  0  0  0  0
  147.4003  135.3321  152.4279 H   0  0  0  0  0  0  0  0  0  0  0  0
  148.7587  136.4378  153.4184 H   0  0  0  0  0  0  0  0  0  0  0  0
  148.3897  137.5662  155.9420 H   0  0  0  0  0  0  0  0  0  0  0  0
  149.3552  136.1430  156.2174 H   0  0  0  0  0  0  0  0  0  0  0  0
  151.2276  137.2298  155.4807 H   0  0  0  0  0  0  0  0  0  0  0  0
  150.4790  137.5473  153.9403 H   0  0  0  0  0  0  0  0  0  0  0  0
  148.4439  139.5055  154.2384 H   0  0  0  0  0  0  0  0  0  0  0  0
  148.4061  141.9897  154.8460 H   0  0  0  0  0  0  0  0  0  0  0  0
  151.9081  141.6699  157.0217 H   0  0  0  0  0  0  0  0  0  0  0  0
  152.1060  139.1706  156.5181 H   0  0  0  0  0  0  0  0  0  0  0  0
  146.9246  132.4215  152.5136 H   0  0  0  0  0  0  0  0  0  0  0  0
  146.4925  133.4079  151.1293 H   0  0  0  0  0  0  0  0  0  0  0  0
  144.6441  131.7861  152.7127 H   0  0  0  0  0  0  0  0  0  0  0  0
  150.1081  142.8463  156.1617 H   0  0  0  0  0  0  0  0  0  0  0  0
  1  2  1  0  0  0  0
  1 20  1  0  0  0  0
  1 21  1  0  0  0  0
  1 22  1  0  0  0  0
  2 19  1  0  0  0  0
  2  3  1  0  0  0  0
  2 42  1  0  0  0  0
  3  4  1  0  0  0  0
  3 23  1  0  0  0  0
  3 24  1  0  0  0  0
  4  5  1  0  0  0  0
  4 25  1  0  0  0  0
  4 26  1  0  0  0  0
  5  6  1  0  0  0  0
  5 27  1  0  0  0  0
  5 28  1  0  0  0  0
  6  7  1  0  0  0  0
  6 19  1  0  0  0  0
  6 29  1  0  0  0  0
  7  8  1  0  0  0  0
  7 30  1  0  0  0  0
  8  9  2  0  0  0  0
  8 10  1  0  0  0  0
 10 11  1  0  0  0  0
 10 31  1  0  0  0  0
 11 12  1  0  0  0  0
 11 32  1  0  0  0  0
 11 33  1  0  0  0  0
 12 13  1  0  0  0  0
 12 34  1  0  0  0  0
 12 35  1  0  0  0  0
 13 18  1  0  0  0  0
 13 14  2  0  0  0  0
 14 15  1  0  0  0  0
 14 36  1  0  0  0  0
 15 16  2  0  0  0  0
 15 37  1  0  0  0  0
 16 17  1  0  0  0  0
 16 43  1  0  0  0  0
 17 18  2  0  0  0  0
 17 38  1  0  0  0  0
 18 39  1  0  0  0  0
 19 40  1  0  0  0  0
 19 41  1  0  0  0  0
M  CHG  1   2   1
M  CHG  1  16   1
M  END
> <s_m_source_file>
AV-unprocessed.smi

> <i_m_source_file_index>
2931

> <i_lp_mmshare_version>
43012

> <i_f3d_flags>
0

> <s_epik_input>
W0NIM11OMVtDSDJdW0NIMl1bQ0gyXVtDQEhdKFtDSDJdMSlbTkhdQyg9TylbTkhdW0NIMl1bQ0gyXWMyW2NIXVtjSF1uW2NIXVtjSF0y

> <s_epik_cmdline>
J2VwaWtfcHl0aG9uJywgJy1waCcsICc3LjAnLCAnLXRuJywgJzgnLCAnLW1hJywgJzIwMCcsICctbWV0YWxfYmluZGluZycsICctaW1hZScsICc8aW5maWxlLm1hZT4nLCAnLW9tYWUnLCAnPG91dGZpbGUubWFlPic=

> <r_epik_Ionization_Penalty>
1.43754

> <r_epik_Ionization_Penalty_Charging>
1.4375

> <r_epik_Ionization_Penalty_Neutral>
3.7629e-05

> <r_epik_State_Penalty>
1.52008

> <r_epik_Charging_Adjusted_Penalty>
2.95758

> <i_epik_Tot_Q>
2

> <i_epik_Tot_abs_Q>
2

> <r_epik_Metal_State_Penalty>
1.57105

> <b_epik_Metal_Only>
0

> <s_lp_Force_Field>
OPLS_2005

> <r_lp_Energy>
22.8727

> <b_lp_Chiralities_Consistent>
1

> <s_lp_Variant>
AV-unprocessed.smi:2931-8

> <Gold.Version>
5.8.1

> <Gold.Id.Protein>
6NUR|6NUR_protein|mol2

> <Gold.PLP.Fitness>
41.5965

> <Gold.PLP.PLP>
-30.9759

> <Gold.PLP.part.hbond>
-3.0000

> <Gold.PLP.part.metal>
0.0000

> <Gold.PLP.part.buried>
-3.4699

> <Gold.PLP.part.nonpolar>
-24.0908

> <Gold.PLP.part.repulsive>
0.2455

> <Gold.PLP.ligand.clash>
0.0000

> <Gold.PLP.ligand.torsion>
0.5466

> <Gold.PLP.Chemscore.Hbond>
3.8960

> <Gold.PLP.Chemscore.CHOScore>
0.0000

> <Gold.PLP.Chemscore.Metal>
0.0000

> <Gold.Chemscore.Hbonds>
donor molecule, donor type, donor heavy atom, donor atom, acceptor molecule, acceptor atom, score
      L1  H     7    30       P1  7948  0.90
      L1  H    10    31       P1  7948  1.00
      L1  H    16    43       P1  8028  0.56

> <Gold.PLP.Chemscore.Internal.Correction>
0.0258

> <Gold.Rescore>
     Score         DG    S(hbond)    S(metal)    S(lipo)     H(rot)  DE(clash)    DE(int)     intcor
     19.18     -19.85       2.86        0.00      77.12       1.65       0.06       0.60       ----

> <Gold.Chemscore.Fitness>
19.1774

> <Gold.Chemscore.DG>
-19.8451

> <Gold.Chemscore.ZeroCoef>
-5.4800

> <Gold.Chemscore.Hbond>
2.8614

> <Gold.Chemscore.Metal>
0.0000

> <Gold.Chemscore.Lipo>
77.1173

> <Gold.Chemscore.Internal_Hbond>
0.0000

> <Gold.Chemscore.DEClash>
0.0645

> <Gold.Chemscore.DEInternal>
0.6032

> <Gold.Chemscore.Rot>
1.6464

> <Gold.Chemscore.Internal.Correction>
   9.000000E+99

> <Gold.Chemscore.Hbonds>
donor molecule, donor type, donor heavy atom, donor atom, acceptor molecule, acceptor atom, score
      L1  H     7    30       P1  7948  0.86
      L1  H    10    31       P1  7948  0.96
      L1  H    16    43       P1  8028  0.29

> <Gold.Chemscore.Hbond.Weighted>
-9.5572

> <Gold.Chemscore.Metal.Weighted>
-0.0000

> <Gold.Chemscore.Lipo.Weighted>
-9.0227

> <Gold.Chemscore.Internal_Hbond.Weighted>
0.0000

> <Gold.Chemscore.DEClash.Weighted>
0.0645

> <Gold.Chemscore.DEInternal.Weighted>
0.6032

> <Gold.Chemscore.Rot.Weighted>
4.2148

> <Gold.Chemscore.Internal.Correction.Weighted>
   9.000000E+99

> <Gold.Protein.RotatedTorsions>
[ 6907 6896 6895 6894 ] final -118.31 input  -60.11 | X-H torsion
[ 7974 7965 7964 7962 ] final  169.99 input  175.53 | X-H torsion
[ 8008 7997 7996 7995 ] final   40.35 input   59.86 | X-H torsion
[ 10167 10162 10161 10158 ] final  -56.94 input  -65.29 | X-H torsion
[ 10718 10713 10712 10709 ] final   55.60 input   66.30 | X-H torsion
[ 10763 10752 10751 10750 ] final -136.54 input  -60.55 | X-H torsion
[ 11005 11000 10999 10996 ] final -166.76 input  -57.11 | X-H torsion

> <Gold.Protein.ActiveResidues>
 VAL166  LYS551  ARG553  GLY616  TRP617  ASP618  TYR619  PRO620  LYS621  CYS622 
 ASP623  PHE694  ASN695  SER759  ASP760  ASP761  ALA762  ILE779  LEU786  VAL792 
 PHE793  MET794  SER795  GLU796  ALA797  LYS798  CYS799  TRP800  GLU811  SER814 

> <Gold.Protein.RotatedAtoms>
  150.8209  133.8255  159.3139 H   0  0  0  0  0  0  0  0  0  0  0  0  # atno 6907 bound_to 6896
  151.6013  135.1045  160.0070 H   0  0  0  0  0  0  0  0  0  0  0  0  # atno 6908 bound_to 6896
  152.4298  133.7216  159.6593 H   0  0  0  0  0  0  0  0  0  0  0  0  # atno 6909 bound_to 6896
  144.7337  139.9136  143.6416 H   0  0  0  0  0  0  0  0  0  0  0  0  # atno 7974 bound_to 7965
  155.2517  140.3353  155.4281 H   0  0  0  0  0  0  0  0  0  0  0  0  # atno 8008 bound_to 7997
  156.2213  140.1810  156.7514 H   0  0  0  0  0  0  0  0  0  0  0  0  # atno 8009 bound_to 7997
  154.5829  140.0650  156.9115 H   0  0  0  0  0  0  0  0  0  0  0  0  # atno 8010 bound_to 7997
  140.6287  143.2450  151.5296 H   0  0  0  0  0  0  0  0  0  0  0  0  # atno 10167 bound_to 10162
  157.5359  130.8663  149.8752 H   0  0  0  0  0  0  0  0  0  0  0  0  # atno 10718 bound_to 10713
  154.8681  135.3669  154.5077 H   0  0  0  0  0  0  0  0  0  0  0  0  # atno 10763 bound_to 10752
  153.5714  135.7020  153.5508 H   0  0  0  0  0  0  0  0  0  0  0  0  # atno 10764 bound_to 10752
  153.3538  135.4065  155.1630 H   0  0  0  0  0  0  0  0  0  0  0  0  # atno 10765 bound_to 10752
  140.5609  134.5334  157.5143 H   0  0  0  0  0  0  0  0  0  0  0  0  # atno 11005 bound_to 11000
  146.0983  139.3976  143.0363 LP  0  0  0  0  0  0  0  0  0  0  0  0  # atno 17320 bound_to 7965
  145.7615  140.9933  143.1197 LP  0  0  0  0  0  0  0  0  0  0  0  0  # atno 17321 bound_to 7965
  139.5504  144.2410  152.1520 LP  0  0  0  0  0  0  0  0  0  0  0  0  # atno 17342 bound_to 10162
  140.1648  144.4992  150.6612 LP  0  0  0  0  0  0  0  0  0  0  0  0  # atno 17343 bound_to 10162
  156.0458  130.3728  150.1321 LP  0  0  0  0  0  0  0  0  0  0  0  0  # atno 17370 bound_to 10713
  156.9504  130.9773  151.3499 LP  0  0  0  0  0  0  0  0  0  0  0  0  # atno 17371 bound_to 10713
  139.9408  134.7790  156.0683 LP  0  0  0  0  0  0  0  0  0  0  0  0  # atno 17394 bound_to 11000
  141.1115  133.6642  156.2990 LP  0  0  0  0  0  0  0  0  0  0  0  0  # atno 17395 bound_to 11000

$$$$
