AV-unprocessed.smi:1047|AV-procd|sdf|4580|dock10
  -GOLD-   22720 3 43D 1   1.00000     0.00000
 Structure written by MMmdl.
 58 60  0  0  0  0  0  0  0  0  4 V2000
  143.3266  140.6800  156.2536 C   0  0  0  0  0  0  0  0  0  0  0  0
  144.4009  141.7430  155.9826 C   0  0  0  0  0  0  0  0  0  0  0  0
  145.4357  141.2790  155.0246 N   0  3  1  0  0  0  0  0  0  0  0  0
  146.5540  142.2436  154.8941 C   0  0  0  0  0  0  0  0  0  0  0  0
  147.5690  141.7556  153.8468 C   0  0  0  0  0  0  0  0  0  0  0  0
  148.0472  140.4648  154.2066 O   0  0  0  0  0  0  0  0  0  0  0  0
  147.0015  139.5005  154.2651 C   0  0  1  0  0  0  0  0  0  0  0  0
  147.6141  138.1140  154.5283 C   0  0  0  0  0  0  0  0  0  0  0  0
  149.0066  138.0187  154.0428 N   0  3  0  0  0  0  0  0  0  0  0  0
  149.9882  137.6728  155.0901 C   0  0  0  0  0  0  0  0  0  0  0  0
  151.2511  138.5471  154.9790 C   0  0  2  0  0  0  0  0  0  0  0  0
  152.3146  137.7514  154.4972 O   0  0  0  0  0  0  0  0  0  0  0  0
  151.7014  139.1752  156.3130 C   0  0  0  0  0  0  0  0  0  0  0  0
  151.2541  140.5664  156.4710 N   0  0  0  0  0  0  0  0  0  0  0  0
  150.4163  141.2981  155.6863 C   0  0  0  0  0  0  0  0  0  0  0  0
  150.3147  142.5387  156.2376 N   0  3  0  0  0  0  0  0  0  0  0  0
  151.1026  142.6035  157.3883 C   0  0  0  0  0  0  0  0  0  0  0  0
  151.3220  143.6454  158.2814 C   0  0  0  0  0  0  0  0  0  0  0  0
  152.1903  143.3925  159.3669 C   0  0  0  0  0  0  0  0  0  0  0  0
  152.4533  144.5117  160.3605 C   0  0  0  0  0  0  0  0  0  0  0  0
  152.8045  142.1239  159.5296 C   0  0  0  0  0  0  0  0  0  0  0  0
  153.7357  141.8625  160.7014 C   0  0  0  0  0  0  0  0  0  0  0  0
  152.5696  141.0771  158.6094 C   0  0  0  0  0  0  0  0  0  0  0  0
  151.7118  141.3425  157.5438 C   0  0  0  0  0  0  0  0  0  0  0  0
  145.9580  139.9219  155.3220 C   0  0  0  0  0  0  0  0  0  0  0  0
  142.5329  141.0896  156.8790 H   0  0  0  0  0  0  0  0  0  0  0  0
  143.7301  139.8126  156.7750 H   0  0  0  0  0  0  0  0  0  0  0  0
  142.8693  140.3346  155.3260 H   0  0  0  0  0  0  0  0  0  0  0  0
  143.9044  142.6216  155.5683 H   0  0  0  0  0  0  0  0  0  0  0  0
  144.8683  142.0633  156.9149 H   0  0  0  0  0  0  0  0  0  0  0  0
  146.1685  143.2209  154.6003 H   0  0  0  0  0  0  0  0  0  0  0  0
  147.0447  142.3699  155.8606 H   0  0  0  0  0  0  0  0  0  0  0  0
  147.1201  141.7273  152.8526 H   0  0  0  0  0  0  0  0  0  0  0  0
  148.4139  142.4425  153.7939 H   0  0  0  0  0  0  0  0  0  0  0  0
  146.5135  139.4629  153.2891 H   0  0  0  0  0  0  0  0  0  0  0  0
  147.5883  137.8981  155.5972 H   0  0  0  0  0  0  0  0  0  0  0  0
  147.0151  137.3472  154.0351 H   0  0  0  0  0  0  0  0  0  0  0  0
  149.0493  137.3117  153.3218 H   0  0  0  0  0  0  0  0  0  0  0  0
  149.5070  137.8253  156.0562 H   0  0  0  0  0  0  0  0  0  0  0  0
  150.2480  136.6150  155.0248 H   0  0  0  0  0  0  0  0  0  0  0  0
  151.0760  139.3453  154.2562 H   0  0  0  0  0  0  0  0  0  0  0  0
  152.9425  138.3098  154.0632 H   0  0  0  0  0  0  0  0  0  0  0  0
  151.3660  138.5839  157.1651 H   0  0  0  0  0  0  0  0  0  0  0  0
  152.7912  139.1894  156.3653 H   0  0  0  0  0  0  0  0  0  0  0  0
  149.9228  140.9572  154.7873 H   0  0  0  0  0  0  0  0  0  0  0  0
  150.8502  144.6087  158.1514 H   0  0  0  0  0  0  0  0  0  0  0  0
  153.5217  144.7154  160.4375 H   0  0  0  0  0  0  0  0  0  0  0  0
  152.0797  144.2414  161.3484 H   0  0  0  0  0  0  0  0  0  0  0  0
  151.9606  145.4367  160.0592 H   0  0  0  0  0  0  0  0  0  0  0  0
  154.0655  140.8234  160.7256 H   0  0  0  0  0  0  0  0  0  0  0  0
  153.2355  142.0732  161.6467 H   0  0  0  0  0  0  0  0  0  0  0  0
  154.6225  142.4928  160.6301 H   0  0  0  0  0  0  0  0  0  0  0  0
  153.0410  140.1142  158.7376 H   0  0  0  0  0  0  0  0  0  0  0  0
  146.3991  139.9196  156.3201 H   0  0  0  0  0  0  0  0  0  0  0  0
  145.1445  139.1970  155.3303 H   0  0  0  0  0  0  0  0  0  0  0  0
  149.2729  138.9051  153.6390 H   0  0  0  0  0  0  0  0  0  0  0  0
  144.9908  141.2359  154.1185 H   0  0  0  0  0  0  0  0  0  0  0  0
  149.7527  143.2870  155.8512 H   0  0  0  0  0  0  0  0  0  0  0  0
  1  2  1  0  0  0  0
  1 26  1  0  0  0  0
  1 27  1  0  0  0  0
  1 28  1  0  0  0  0
  2  3  1  0  0  0  0
  2 29  1  0  0  0  0
  2 30  1  0  0  0  0
  3 25  1  0  0  0  0
  3  4  1  0  0  0  0
  3 57  1  0  0  0  0
  4  5  1  0  0  0  0
  4 31  1  0  0  0  0
  4 32  1  0  0  0  0
  5  6  1  0  0  0  0
  5 33  1  0  0  0  0
  5 34  1  0  0  0  0
  6  7  1  0  0  0  0
  7  8  1  0  0  0  0
  7 25  1  0  0  0  0
  7 35  1  0  0  0  0
  8  9  1  0  0  0  0
  8 36  1  0  0  0  0
  8 37  1  0  0  0  0
  9 10  1  0  0  0  0
  9 38  1  0  0  0  0
  9 56  1  0  0  0  0
 10 11  1  0  0  0  0
 10 39  1  0  0  0  0
 10 40  1  0  0  0  0
 11 12  1  0  0  0  0
 11 13  1  0  0  0  0
 11 41  1  0  0  0  0
 12 42  1  0  0  0  0
 13 14  1  0  0  0  0
 13 43  1  0  0  0  0
 13 44  1  0  0  0  0
 14 24  1  0  0  0  0
 14 15  1  0  0  0  0
 15 16  2  0  0  0  0
 15 45  1  0  0  0  0
 16 17  1  0  0  0  0
 16 58  1  0  0  0  0
 17 24  2  0  0  0  0
 17 18  1  0  0  0  0
 18 19  2  0  0  0  0
 18 46  1  0  0  0  0
 19 20  1  0  0  0  0
 19 21  1  0  0  0  0
 20 47  1  0  0  0  0
 20 48  1  0  0  0  0
 20 49  1  0  0  0  0
 21 22  1  0  0  0  0
 21 23  2  0  0  0  0
 22 50  1  0  0  0  0
 22 51  1  0  0  0  0
 22 52  1  0  0  0  0
 23 24  1  0  0  0  0
 23 53  1  0  0  0  0
 25 54  1  0  0  0  0
 25 55  1  0  0  0  0
M  CHG  1   3   1
M  CHG  1   9   1
M  CHG  1  16   1
M  END
> <s_m_source_file>
AV-unprocessed.smi

> <i_m_source_file_index>
1047

> <i_lp_mmshare_version>
43012

> <i_f3d_flags>
0

> <s_epik_input>
W0NIM11bQ0gyXU4xW0NIMl1bQ0gyXU9bQ0BIXShbQ0gyXTEpW0NIMl1bTkhdW0NIMl1bQ0BIXShbT0hdKVtDSDJdbihbY0hdbjIpYyhjMjMpW2NIXWMoW0NIM10pYyhbY0hdMylbQ0gzXQ==

> <s_epik_cmdline>
J2VwaWtfcHl0aG9uJywgJy1waCcsICc3LjAnLCAnLXRuJywgJzgnLCAnLW1hJywgJzIwMCcsICctbWV0YWxfYmluZGluZycsICctaW1hZScsICc8aW5maWxlLm1hZT4nLCAnLW9tYWUnLCAnPG91dGZpbGUubWFlPic=

> <r_epik_Ionization_Penalty>
1.6114

> <r_epik_Ionization_Penalty_Charging>
1.61139

> <r_epik_Ionization_Penalty_Neutral>
5.04732e-06

> <r_epik_State_Penalty>
1.63724

> <r_epik_Charging_Adjusted_Penalty>
3.24864

> <i_epik_Tot_Q>
3

> <i_epik_Tot_abs_Q>
3

> <r_epik_Metal_State_Penalty>
5.64594

> <b_epik_Metal_Only>
0

> <s_lp_Force_Field>
OPLS_2005

> <r_lp_Energy>
43.5462

> <b_lp_Chiralities_Consistent>
1

> <s_lp_Variant>
AV-unprocessed.smi:1047-21

> <Gold.Version>
5.8.1

> <Gold.Id.Protein>
6NUR|6NUR_protein|mol2

> <Gold.PLP.Fitness>
63.6445

> <Gold.PLP.PLP>
-49.1329

> <Gold.PLP.part.hbond>
-4.0000

> <Gold.PLP.part.metal>
0.0000

> <Gold.PLP.part.buried>
-8.4200

> <Gold.PLP.part.nonpolar>
-37.5390

> <Gold.PLP.part.repulsive>
0.2658

> <Gold.PLP.ligand.clash>
0.0000

> <Gold.PLP.ligand.torsion>
2.4410

> <Gold.PLP.Chemscore.Hbond>
6.3952

> <Gold.PLP.Chemscore.CHOScore>
0.0000

> <Gold.PLP.Chemscore.Metal>
0.0000

> <Gold.Chemscore.Hbonds>
donor molecule, donor type, donor heavy atom, donor atom, acceptor molecule, acceptor atom, score
      L1  H     3    57       P1 10175  1.07
      L1  H     9    38       P1  7948  2.00
      L1  H    16    58       P1  8028  2.00
      P1  H 10752 10765       L1    12  0.43

> <Gold.PLP.Chemscore.Internal.Correction>
0.2080

> <Gold.Rescore>
     Score         DG    S(hbond)    S(metal)    S(lipo)     H(rot)  DE(clash)    DE(int)     intcor
     20.93     -23.44       3.29        0.00     120.57       2.78       0.13       2.38       ----

> <Gold.Chemscore.Fitness>
20.9252

> <Gold.Chemscore.DG>
-23.4395

> <Gold.Chemscore.ZeroCoef>
-5.4800

> <Gold.Chemscore.Hbond>
3.2881

> <Gold.Chemscore.Metal>
0.0000

> <Gold.Chemscore.Lipo>
120.5666

> <Gold.Chemscore.Internal_Hbond>
0.0000

> <Gold.Chemscore.DEClash>
0.1330

> <Gold.Chemscore.DEInternal>
2.3813

> <Gold.Chemscore.Rot>
2.7848

> <Gold.Chemscore.Internal.Correction>
   9.000000E+99

> <Gold.Chemscore.Hbonds>
donor molecule, donor type, donor heavy atom, donor atom, acceptor molecule, acceptor atom, score
      L1  H     3    57       P1 10175  0.38
      L1  H     9    38       P1  7948  1.00
      L1  H    16    58       P1  8028  1.00
      P1  H 10752 10765       L1    12  0.23

> <Gold.Chemscore.Hbond.Weighted>
-10.9823

> <Gold.Chemscore.Metal.Weighted>
-0.0000

> <Gold.Chemscore.Lipo.Weighted>
-14.1063

> <Gold.Chemscore.Internal_Hbond.Weighted>
0.0000

> <Gold.Chemscore.DEClash.Weighted>
0.1330

> <Gold.Chemscore.DEInternal.Weighted>
2.3813

> <Gold.Chemscore.Rot.Weighted>
7.1291

> <Gold.Chemscore.Internal.Correction.Weighted>
   9.000000E+99

> <Gold.Protein.RotatedTorsions>
[ 6907 6896 6895 6894 ] final -156.92 input  -60.11 | X-H torsion
[ 7974 7965 7964 7962 ] final   47.60 input  175.53 | X-H torsion
[ 8008 7997 7996 7995 ] final  -19.22 input   59.86 | X-H torsion
[ 10167 10162 10161 10158 ] final  -53.78 input  -65.29 | X-H torsion
[ 10718 10713 10712 10709 ] final  130.96 input   66.30 | X-H torsion
[ 10763 10752 10751 10750 ] final  154.20 input  -60.55 | X-H torsion
[ 11005 11000 10999 10996 ] final -175.31 input  -57.11 | X-H torsion

> <Gold.Protein.ActiveResidues>
 VAL166  LYS551  ARG553  GLY616  TRP617  ASP618  TYR619  PRO620  LYS621  CYS622 
 ASP623  PHE694  ASN695  SER759  ASP760  ASP761  ALA762  ILE779  LEU786  VAL792 
 PHE793  MET794  SER795  GLU796  ALA797  LYS798  CYS799  TRP800  GLU811  SER814 

> <Gold.Protein.RotatedAtoms>
  151.2950  133.4148  159.2635 H   0  0  0  0  0  0  0  0  0  0  0  0  # atno 6907 bound_to 6896
  151.0244  134.9494  159.8087 H   0  0  0  0  0  0  0  0  0  0  0  0  # atno 6908 bound_to 6896
  152.5332  134.2912  159.9096 H   0  0  0  0  0  0  0  0  0  0  0  0  # atno 6909 bound_to 6896
  146.0282  139.4732  142.9854 H   0  0  0  0  0  0  0  0  0  0  0  0  # atno 7974 bound_to 7965
  154.4852  140.2095  155.9673 H   0  0  0  0  0  0  0  0  0  0  0  0  # atno 8008 bound_to 7997
  156.1225  140.3211  155.8197 H   0  0  0  0  0  0  0  0  0  0  0  0  # atno 8009 bound_to 7997
  155.4443  140.0512  157.2998 H   0  0  0  0  0  0  0  0  0  0  0  0  # atno 8010 bound_to 7997
  140.6466  143.2539  151.4841 H   0  0  0  0  0  0  0  0  0  0  0  0  # atno 10167 bound_to 10162
  157.5012  131.1094  150.9424 H   0  0  0  0  0  0  0  0  0  0  0  0  # atno 10718 bound_to 10713
  154.1485  135.2816  155.3142 H   0  0  0  0  0  0  0  0  0  0  0  0  # atno 10763 bound_to 10752
  154.6235  135.5459  153.7604 H   0  0  0  0  0  0  0  0  0  0  0  0  # atno 10764 bound_to 10752
  153.0228  135.6445  154.1630 H   0  0  0  0  0  0  0  0  0  0  0  0  # atno 10765 bound_to 10752
  140.4648  134.6221  157.4857 H   0  0  0  0  0  0  0  0  0  0  0  0  # atno 11005 bound_to 11000
  145.7083  141.0114  143.1467 LP  0  0  0  0  0  0  0  0  0  0  0  0  # atno 17320 bound_to 7965
  144.7019  139.8727  143.7441 LP  0  0  0  0  0  0  0  0  0  0  0  0  # atno 17321 bound_to 7965
  139.5677  144.2002  152.1790 LP  0  0  0  0  0  0  0  0  0  0  0  0  # atno 17342 bound_to 10162
  140.1289  144.5306  150.6815 LP  0  0  0  0  0  0  0  0  0  0  0  0  # atno 17343 bound_to 10162
  157.0094  130.5630  149.5319 LP  0  0  0  0  0  0  0  0  0  0  0  0  # atno 17370 bound_to 10713
  156.0230  130.5325  150.8330 LP  0  0  0  0  0  0  0  0  0  0  0  0  # atno 17371 bound_to 10713
  139.9922  134.6967  155.9669 LP  0  0  0  0  0  0  0  0  0  0  0  0  # atno 17394 bound_to 11000
  141.1605  133.6539  156.4302 LP  0  0  0  0  0  0  0  0  0  0  0  0  # atno 17395 bound_to 11000

$$$$
