AV-unprocessed.smi:1786|AV-procd|sdf|7205|dock3
  -GOLD-   22720 8443D 1   1.00000     0.00000
 Structure written by MMmdl.
 44 45  0  0  0  0  0  0  0  0  2 V2000
  151.3806  142.1940  158.5379 C   0  0  0  0  0  0  0  0  0  0  0  0
  152.6060  141.3234  158.8787 C   0  0  1  0  0  0  0  0  0  0  0  0
  153.2964  141.8955  160.1365 C   0  0  0  0  0  0  0  0  0  0  0  0
  154.5199  141.0703  160.5463 C   0  0  0  0  0  0  0  0  0  0  0  0
  154.1071  139.6104  160.7429 C   0  0  0  0  0  0  0  0  0  0  0  0
  153.4389  139.0658  159.4725 C   0  0  0  0  0  0  0  0  0  0  0  0
  152.2578  139.8789  159.0717 N   0  3  2  0  0  0  0  0  0  0  0  0
  151.5479  139.2632  157.9171 C   0  0  0  0  0  0  0  0  0  0  0  0
  151.1233  137.8120  158.2148 C   0  0  0  0  0  0  0  0  0  0  0  0
  149.7870  137.7571  158.7949 N   0  0  0  0  0  0  0  0  0  0  0  0
  149.0976  136.6279  159.0190 C   0  0  0  0  0  0  0  0  0  0  0  0
  149.5189  135.5113  158.7146 O   0  0  0  0  0  0  0  0  0  0  0  0
  147.7203  136.7877  159.6759 C   0  0  0  0  0  0  0  0  0  0  0  0
  147.4332  135.7207  160.6488 N   0  0  0  0  0  0  0  0  0  0  0  0
  147.3424  134.4040  160.1549 C   0  0  0  0  0  0  0  0  0  0  0  0
  147.0919  133.3597  160.9604 C   0  0  0  0  0  0  0  0  0  0  0  0
  146.9103  133.6126  162.3703 C   0  0  0  0  0  0  0  0  0  0  0  0
  146.9982  134.8677  162.8535 C   0  0  0  0  0  0  0  0  0  0  0  0
  147.2784  136.0112  161.9780 C   0  0  0  0  0  0  0  0  0  0  0  0
  147.3715  137.1601  162.4125 O   0  0  0  0  0  0  0  0  0  0  0  0
  151.6619  143.2443  158.4569 H   0  0  0  0  0  0  0  0  0  0  0  0
  150.6141  142.1213  159.3102 H   0  0  0  0  0  0  0  0  0  0  0  0
  150.9284  141.9205  157.5848 H   0  0  0  0  0  0  0  0  0  0  0  0
  153.3085  141.3879  158.0459 H   0  0  0  0  0  0  0  0  0  0  0  0
  153.6015  142.9274  159.9579 H   0  0  0  0  0  0  0  0  0  0  0  0
  152.5876  141.9250  160.9653 H   0  0  0  0  0  0  0  0  0  0  0  0
  155.2908  141.1401  159.7777 H   0  0  0  0  0  0  0  0  0  0  0  0
  154.9539  141.4681  161.4641 H   0  0  0  0  0  0  0  0  0  0  0  0
  154.9802  139.0069  160.9933 H   0  0  0  0  0  0  0  0  0  0  0  0
  153.4204  139.5285  161.5866 H   0  0  0  0  0  0  0  0  0  0  0  0
  154.1587  139.0421  158.6524 H   0  0  0  0  0  0  0  0  0  0  0  0
  153.1292  138.0354  159.6533 H   0  0  0  0  0  0  0  0  0  0  0  0
  150.6961  139.8793  157.6257 H   0  0  0  0  0  0  0  0  0  0  0  0
  152.1945  139.2447  157.0382 H   0  0  0  0  0  0  0  0  0  0  0  0
  151.1154  137.2329  157.2910 H   0  0  0  0  0  0  0  0  0  0  0  0
  151.8276  137.3148  158.8817 H   0  0  0  0  0  0  0  0  0  0  0  0
  149.3645  138.6347  159.0627 H   0  0  0  0  0  0  0  0  0  0  0  0
  147.6480  137.7633  160.1610 H   0  0  0  0  0  0  0  0  0  0  0  0
  146.9680  136.8042  158.8861 H   0  0  0  0  0  0  0  0  0  0  0  0
  147.4969  134.2985  159.0907 H   0  0  0  0  0  0  0  0  0  0  0  0
  147.0311  132.3565  160.5647 H   0  0  0  0  0  0  0  0  0  0  0  0
  146.7031  132.7916  163.0410 H   0  0  0  0  0  0  0  0  0  0  0  0
  146.8590  135.0379  163.9112 H   0  0  0  0  0  0  0  0  0  0  0  0
  151.6175  139.8374  159.8516 H   0  0  0  0  0  0  0  0  0  0  0  0
  1  2  1  0  0  0  0
  1 21  1  0  0  0  0
  1 22  1  0  0  0  0
  1 23  1  0  0  0  0
  2  7  1  0  0  0  0
  2  3  1  0  0  0  0
  2 24  1  0  0  0  0
  3  4  1  0  0  0  0
  3 25  1  0  0  0  0
  3 26  1  0  0  0  0
  4  5  1  0  0  0  0
  4 27  1  0  0  0  0
  4 28  1  0  0  0  0
  5  6  1  0  0  0  0
  5 29  1  0  0  0  0
  5 30  1  0  0  0  0
  6  7  1  0  0  0  0
  6 31  1  0  0  0  0
  6 32  1  0  0  0  0
  7  8  1  0  0  0  0
  7 44  1  0  0  0  0
  8  9  1  0  0  0  0
  8 33  1  0  0  0  0
  8 34  1  0  0  0  0
  9 10  1  0  0  0  0
  9 35  1  0  0  0  0
  9 36  1  0  0  0  0
 10 11  1  0  0  0  0
 10 37  1  0  0  0  0
 11 12  2  0  0  0  0
 11 13  1  0  0  0  0
 13 14  1  0  0  0  0
 13 38  1  0  0  0  0
 13 39  1  0  0  0  0
 14 19  1  0  0  0  0
 14 15  1  0  0  0  0
 15 16  2  0  0  0  0
 15 40  1  0  0  0  0
 16 17  1  0  0  0  0
 16 41  1  0  0  0  0
 17 18  2  0  0  0  0
 17 42  1  0  0  0  0
 18 19  1  0  0  0  0
 18 43  1  0  0  0  0
 19 20  2  0  0  0  0
M  CHG  1   7   1
M  END
> <s_m_source_file>
AV-unprocessed.smi

> <i_m_source_file_index>
1786

> <i_lp_mmshare_version>
43012

> <i_f3d_flags>
0

> <s_epik_input>
W0NIM11bQ0BASF0xW0NIMl1bQ0gyXVtDSDJdW0NIMl1OMVtDSDJdW0NIMl1bTkhdQyg9TylbQ0gyXW4yW2NIXVtjSF1bY0hdW2NIXWMyPU8=

> <s_epik_cmdline>
J2VwaWtfcHl0aG9uJywgJy1waCcsICc3LjAnLCAnLXRuJywgJzgnLCAnLW1hJywgJzIwMCcsICctbWV0YWxfYmluZGluZycsICctaW1hZScsICc8aW5maWxlLm1hZT4nLCAnLW9tYWUnLCAnPG91dGZpbGUubWFlPic=

> <r_lp_tautomer_probability>
1

> <r_epik_Ionization_Penalty>
0.00237247

> <r_epik_Ionization_Penalty_Charging>
0.00237238

> <r_epik_Ionization_Penalty_Neutral>
8.2065e-08

> <r_epik_State_Penalty>
0.00163922

> <r_epik_Charging_Adjusted_Penalty>
0.0040116

> <i_epik_Tot_Q>
1

> <i_epik_Tot_abs_Q>
1

> <r_epik_Metal_State_Penalty>
-0

> <b_epik_Metal_Only>
0

> <s_lp_Force_Field>
OPLS_2005

> <r_lp_Energy>
27.3139

> <b_lp_Chiralities_Consistent>
1

> <s_lp_Variant>
AV-unprocessed.smi:1786-4

> <Gold.Version>
5.8.1

> <Gold.Id.Protein>
6NUR|6NUR_protein|mol2

> <Gold.PLP.Fitness>
48.3954

> <Gold.PLP.PLP>
-42.4977

> <Gold.PLP.part.hbond>
-3.0000

> <Gold.PLP.part.metal>
0.0000

> <Gold.PLP.part.buried>
-5.1391

> <Gold.PLP.part.nonpolar>
-34.3817

> <Gold.PLP.part.repulsive>
0.3195

> <Gold.PLP.ligand.clash>
0.0000

> <Gold.PLP.ligand.torsion>
0.5549

> <Gold.PLP.Chemscore.Hbond>
2.3120

> <Gold.PLP.Chemscore.CHOScore>
0.0000

> <Gold.PLP.Chemscore.Metal>
0.0000

> <Gold.Chemscore.Hbonds>
donor molecule, donor type, donor heavy atom, donor atom, acceptor molecule, acceptor atom, score
      P1  H  6896  6909       L1    12  1.00
      P1  H  6931  6943       L1    20  0.82
      P1  H  6934  6947       L1    20  0.09

> <Gold.PLP.Chemscore.Internal.Correction>
0.0714

> <Gold.Rescore>
     Score         DG    S(hbond)    S(metal)    S(lipo)     H(rot)  DE(clash)    DE(int)     intcor
     17.96     -19.82       2.55        0.00      90.51       1.86       0.00       1.85       ----

> <Gold.Chemscore.Fitness>
17.9624

> <Gold.Chemscore.DG>
-19.8150

> <Gold.Chemscore.ZeroCoef>
-5.4800

> <Gold.Chemscore.Hbond>
2.5458

> <Gold.Chemscore.Metal>
0.0000

> <Gold.Chemscore.Lipo>
90.5138

> <Gold.Chemscore.Internal_Hbond>
0.0000

> <Gold.Chemscore.DEClash>
0.0000

> <Gold.Chemscore.DEInternal>
1.8526

> <Gold.Chemscore.Rot>
1.8586

> <Gold.Chemscore.Internal.Correction>
   9.000000E+99

> <Gold.Chemscore.Hbonds>
donor molecule, donor type, donor heavy atom, donor atom, acceptor molecule, acceptor atom, score
      P1  H  6896  6909       L1    12  1.00
      P1  H  6931  6943       L1    20  0.73
      P1  H  6934  6947       L1    20  0.10

> <Gold.Chemscore.Hbond.Weighted>
-8.5030

> <Gold.Chemscore.Metal.Weighted>
-0.0000

> <Gold.Chemscore.Lipo.Weighted>
-10.5901

> <Gold.Chemscore.Internal_Hbond.Weighted>
0.0000

> <Gold.Chemscore.DEClash.Weighted>
0.0000

> <Gold.Chemscore.DEInternal.Weighted>
1.8526

> <Gold.Chemscore.Rot.Weighted>
4.7581

> <Gold.Chemscore.Internal.Correction.Weighted>
   9.000000E+99

> <Gold.Protein.RotatedTorsions>
[ 6907 6896 6895 6894 ] final   49.51 input  -60.11 | X-H torsion
[ 7974 7965 7964 7962 ] final    4.82 input  175.53 | X-H torsion
[ 8008 7997 7996 7995 ] final  -87.43 input   59.86 | X-H torsion
[ 10167 10162 10161 10158 ] final -165.66 input  -65.29 | X-H torsion
[ 10718 10713 10712 10709 ] final -145.74 input   66.30 | X-H torsion
[ 10763 10752 10751 10750 ] final  172.25 input  -60.55 | X-H torsion
[ 11005 11000 10999 10996 ] final  102.23 input  -57.11 | X-H torsion

> <Gold.Protein.ActiveResidues>
 VAL166  LYS551  ARG553  GLY616  TRP617  ASP618  TYR619  PRO620  LYS621  CYS622 
 ASP623  PHE694  ASN695  SER759  ASP760  ASP761  ALA762  ILE779  LEU786  VAL792 
 PHE793  MET794  SER795  GLU796  ALA797  LYS798  CYS799  TRP800  GLU811  SER814 

> <Gold.Protein.RotatedAtoms>
  152.2916  134.7715  160.0376 H   0  0  0  0  0  0  0  0  0  0  0  0  # atno 6907 bound_to 6896
  151.8259  133.3396  159.3606 H   0  0  0  0  0  0  0  0  0  0  0  0  # atno 6908 bound_to 6896
  150.7233  134.5458  159.5814 H   0  0  0  0  0  0  0  0  0  0  0  0  # atno 6909 bound_to 6896
  146.2443  140.0477  142.8377 H   0  0  0  0  0  0  0  0  0  0  0  0  # atno 7974 bound_to 7965
  154.6632  140.0566  157.0085 H   0  0  0  0  0  0  0  0  0  0  0  0  # atno 8008 bound_to 7997
  155.1198  140.3246  155.4481 H   0  0  0  0  0  0  0  0  0  0  0  0  # atno 8009 bound_to 7997
  156.2627  140.1999  156.6320 H   0  0  0  0  0  0  0  0  0  0  0  0  # atno 8010 bound_to 7997
  139.6167  144.0706  152.1894 H   0  0  0  0  0  0  0  0  0  0  0  0  # atno 10167 bound_to 10162
  156.3862  130.7862  151.2060 H   0  0  0  0  0  0  0  0  0  0  0  0  # atno 10718 bound_to 10713
  154.4235  135.2758  155.1960 H   0  0  0  0  0  0  0  0  0  0  0  0  # atno 10763 bound_to 10752
  154.3896  135.6069  153.5839 H   0  0  0  0  0  0  0  0  0  0  0  0  # atno 10764 bound_to 10752
  152.9833  135.5900  154.4534 H   0  0  0  0  0  0  0  0  0  0  0  0  # atno 10765 bound_to 10752
  139.8776  134.9215  156.5026 H   0  0  0  0  0  0  0  0  0  0  0  0  # atno 11005 bound_to 11000
  145.1012  140.9347  143.4711 LP  0  0  0  0  0  0  0  0  0  0  0  0  # atno 17320 bound_to 7965
  145.0671  139.3060  143.5851 LP  0  0  0  0  0  0  0  0  0  0  0  0  # atno 17321 bound_to 7965
  140.0338  144.6060  150.7466 LP  0  0  0  0  0  0  0  0  0  0  0  0  # atno 17342 bound_to 10162
  140.7355  143.2742  151.3793 LP  0  0  0  0  0  0  0  0  0  0  0  0  # atno 17343 bound_to 10162
  157.7496  131.0329  150.4248 LP  0  0  0  0  0  0  0  0  0  0  0  0  # atno 17370 bound_to 10713
  156.4501  130.4010  149.6641 LP  0  0  0  0  0  0  0  0  0  0  0  0  # atno 17371 bound_to 10713
  140.8578  133.8082  155.9234 LP  0  0  0  0  0  0  0  0  0  0  0  0  # atno 17394 bound_to 11000
  140.9080  134.2296  157.5003 LP  0  0  0  0  0  0  0  0  0  0  0  0  # atno 17395 bound_to 11000

$$$$
