AV-unprocessed.smi:148|AV-procd|sdf|1210|dock2
  -GOLD-   2262018383D 1   1.00000     0.00000
 Structure written by MMmdl.
 63 67  0  0  0  0  0  0  0  0  1 V2000
  149.2410  137.8862  153.8779 O   0  0  0  0  0  0  0  0  0  0  0  0
  148.7704  137.1464  154.9866 C   0  0  0  0  0  0  0  0  0  0  0  0
  147.4719  137.7517  155.5689 C   0  0  2  0  0  0  0  0  0  0  0  0
  147.5139  137.6523  157.1167 C   0  0  0  0  0  0  0  0  0  0  0  0
  148.6570  138.3112  157.7197 N   0  0  0  0  0  0  0  0  0  0  0  0
  149.4292  137.8343  158.7553 C   0  0  0  0  0  0  0  0  0  0  0  0
  150.4327  138.5953  159.0965 N   0  0  0  0  0  0  0  0  0  0  0  0
  150.3288  139.6866  158.2440 C   0  0  0  0  0  0  0  0  0  0  0  0
  151.1078  140.8534  158.0394 C   0  0  0  0  0  0  0  0  0  0  0  0
  152.2552  141.0687  158.7201 N   0  0  0  0  0  0  0  0  0  0  0  0
  152.9769  139.8156  158.9390 C   0  0  0  0  0  0  0  0  0  0  0  0
  154.3911  140.0751  159.4730 C   0  0  0  0  0  0  0  0  0  0  0  0
  154.3298  140.9289  160.7435 C   0  0  0  0  0  0  0  0  0  0  0  0
  153.5681  142.2318  160.4650 C   0  0  0  0  0  0  0  0  0  0  0  0
  152.1512  141.9632  159.8891 C   0  0  1  0  0  0  0  0  0  0  0  0
  151.3398  143.2730  159.5925 C   0  0  2  0  0  0  0  0  0  0  0  0
  151.9374  144.1450  158.4627 C   0  0  0  0  0  0  0  0  0  0  0  0
  152.1594  145.5486  159.0427 C   0  0  0  0  0  0  0  0  0  0  0  0
  152.1545  145.3696  160.5596 C   0  0  0  0  0  0  0  0  0  0  0  0
  151.1398  144.2483  160.7739 C   0  0  2  0  0  0  0  0  0  0  0  0
  151.2116  143.6662  162.0597 O   0  0  0  0  0  0  0  0  0  0  0  0
  150.6973  141.7412  157.0953 N   0  0  0  0  0  0  0  0  0  0  0  0
  149.5963  141.4879  156.3809 C   0  0  0  0  0  0  0  0  0  0  0  0
  148.7882  140.4264  156.4396 N   0  0  0  0  0  0  0  0  0  0  0  0
  149.1988  139.5420  157.3939 C   0  0  0  0  0  0  0  0  0  0  0  0
  146.1875  137.1560  154.9154 C   0  0  2  0  0  0  0  0  0  0  0  0
  146.0908  137.3542  153.4100 C   0  0  0  0  0  0  0  0  0  0  0  0
  144.6110  137.1187  153.1481 C   0  0  0  0  0  0  0  0  0  0  0  0
  143.9633  137.7347  154.2493 O   0  0  0  0  0  0  0  0  0  0  0  0
  144.8491  137.7713  155.3645 C   0  0  0  0  0  0  0  0  0  0  0  0
  148.9372  137.4692  153.0859 H   0  0  0  0  0  0  0  0  0  0  0  0
  148.6011  136.1169  154.6697 H   0  0  0  0  0  0  0  0  0  0  0  0
  149.5575  137.1036  155.7393 H   0  0  0  0  0  0  0  0  0  0  0  0
  147.4996  138.8117  155.3136 H   0  0  0  0  0  0  0  0  0  0  0  0
  146.6033  138.0710  157.5460 H   0  0  0  0  0  0  0  0  0  0  0  0
  147.5431  136.6064  157.4243 H   0  0  0  0  0  0  0  0  0  0  0  0
  149.2393  136.8848  159.2345 H   0  0  0  0  0  0  0  0  0  0  0  0
  152.4244  139.1972  159.6480 H   0  0  0  0  0  0  0  0  0  0  0  0
  153.0375  139.2540  158.0054 H   0  0  0  0  0  0  0  0  0  0  0  0
  154.8933  139.1295  159.6787 H   0  0  0  0  0  0  0  0  0  0  0  0
  154.9835  140.5857  158.7127 H   0  0  0  0  0  0  0  0  0  0  0  0
  153.8324  140.3731  161.5393 H   0  0  0  0  0  0  0  0  0  0  0  0
  155.3369  141.1501  161.0976 H   0  0  0  0  0  0  0  0  0  0  0  0
  153.5115  142.7984  161.3925 H   0  0  0  0  0  0  0  0  0  0  0  0
  154.1531  142.8378  159.7736 H   0  0  0  0  0  0  0  0  0  0  0  0
  151.5989  141.4062  160.6476 H   0  0  0  0  0  0  0  0  0  0  0  0
  150.3317  142.9820  159.2962 H   0  0  0  0  0  0  0  0  0  0  0  0
  152.8777  143.7373  158.0930 H   0  0  0  0  0  0  0  0  0  0  0  0
  151.2654  144.1897  157.6051 H   0  0  0  0  0  0  0  0  0  0  0  0
  153.0792  146.0088  158.6814 H   0  0  0  0  0  0  0  0  0  0  0  0
  151.3314  146.1959  158.7506 H   0  0  0  0  0  0  0  0  0  0  0  0
  153.1453  145.0692  160.9008 H   0  0  0  0  0  0  0  0  0  0  0  0
  151.8851  146.2852  161.0871 H   0  0  0  0  0  0  0  0  0  0  0  0
  150.1446  144.6870  160.6839 H   0  0  0  0  0  0  0  0  0  0  0  0
  151.8482  144.1434  162.5697 H   0  0  0  0  0  0  0  0  0  0  0  0
  149.3307  142.2376  155.6502 H   0  0  0  0  0  0  0  0  0  0  0  0
  146.1530  136.0831  155.1119 H   0  0  0  0  0  0  0  0  0  0  0  0
  146.3579  138.3767  153.1386 H   0  0  0  0  0  0  0  0  0  0  0  0
  146.7248  136.6709  152.8442 H   0  0  0  0  0  0  0  0  0  0  0  0
  144.2765  137.5375  152.1988 H   0  0  0  0  0  0  0  0  0  0  0  0
  144.3855  136.0514  153.1525 H   0  0  0  0  0  0  0  0  0  0  0  0
  144.4081  137.2279  156.1993 H   0  0  0  0  0  0  0  0  0  0  0  0
  144.9670  138.8134  155.6625 H   0  0  0  0  0  0  0  0  0  0  0  0
  1  2  1  0  0  0  0
  1 31  1  0  0  0  0
  2  3  1  0  0  0  0
  2 32  1  0  0  0  0
  2 33  1  0  0  0  0
  3  4  1  0  0  0  0
  3 26  1  0  0  0  0
  3 34  1  0  0  0  0
  4  5  1  0  0  0  0
  4 35  1  0  0  0  0
  4 36  1  0  0  0  0
  5 25  1  0  0  0  0
  5  6  1  0  0  0  0
  6  7  2  0  0  0  0
  6 37  1  0  0  0  0
  7  8  1  0  0  0  0
  8 25  2  0  0  0  0
  8  9  1  0  0  0  0
  9 10  1  0  0  0  0
  9 22  2  0  0  0  0
 10 15  1  0  0  0  0
 10 11  1  0  0  0  0
 11 12  1  0  0  0  0
 11 38  1  0  0  0  0
 11 39  1  0  0  0  0
 12 13  1  0  0  0  0
 12 40  1  0  0  0  0
 12 41  1  0  0  0  0
 13 14  1  0  0  0  0
 13 42  1  0  0  0  0
 13 43  1  0  0  0  0
 14 15  1  0  0  0  0
 14 44  1  0  0  0  0
 14 45  1  0  0  0  0
 15 16  1  0  0  0  0
 15 46  1  0  0  0  0
 16 20  1  0  0  0  0
 16 17  1  0  0  0  0
 16 47  1  0  0  0  0
 17 18  1  0  0  0  0
 17 48  1  0  0  0  0
 17 49  1  0  0  0  0
 18 19  1  0  0  0  0
 18 50  1  0  0  0  0
 18 51  1  0  0  0  0
 19 20  1  0  0  0  0
 19 52  1  0  0  0  0
 19 53  1  0  0  0  0
 20 21  1  0  0  0  0
 20 54  1  0  0  0  0
 21 55  1  0  0  0  0
 22 23  1  0  0  0  0
 23 24  2  0  0  0  0
 23 56  1  0  0  0  0
 24 25  1  0  0  0  0
 26 30  1  0  0  0  0
 26 27  1  0  0  0  0
 26 57  1  0  0  0  0
 27 28  1  0  0  0  0
 27 58  1  0  0  0  0
 27 59  1  0  0  0  0
 28 29  1  0  0  0  0
 28 60  1  0  0  0  0
 28 61  1  0  0  0  0
 29 30  1  0  0  0  0
 30 62  1  0  0  0  0
 30 63  1  0  0  0  0
M  END
> <s_m_source_file>
AV-unprocessed.smi

> <i_m_source_file_index>
148

> <i_lp_mmshare_version>
43012

> <i_f3d_flags>
0

> <s_epik_input>
W0NIMl0xT1tDSDJdW0NIMl1bQ0BIXTFbQ0BIXShbQ0gyXVtPSF0pW0NIMl1uKFtjSF1uMiljKGMyMyluW2NIXW5jM040W0NIMl1bQ0gyXVtDSDJdW0NIMl1bQ0BIXTRbQ0BASF01W0NIMl1bQ0gyXVtDSDJdW0NASF01W09IXQ==

> <s_epik_cmdline>
J2VwaWtfcHl0aG9uJywgJy1waCcsICc3LjAnLCAnLXRuJywgJzgnLCAnLW1hJywgJzIwMCcsICctbWV0YWxfYmluZGluZycsICctaW1hZScsICc8aW5maWxlLm1hZT4nLCAnLW9tYWUnLCAnPG91dGZpbGUubWFlPic=

> <r_lp_tautomer_probability>
1

> <r_epik_Ionization_Penalty>
0.00556303

> <r_epik_Ionization_Penalty_Charging>
0

> <r_epik_Ionization_Penalty_Neutral>
0.00556303

> <r_epik_State_Penalty>
0.00401767

> <r_epik_Charging_Adjusted_Penalty>
0.00401767

> <i_epik_Tot_Q>
0

> <i_epik_Tot_abs_Q>
0

> <r_epik_Metal_State_Penalty>
-0

> <b_epik_Metal_Only>
0

> <s_lp_Force_Field>
OPLS_2005

> <r_lp_Energy>
71.2164

> <b_lp_Chiralities_Consistent>
1

> <s_lp_Variant>
AV-unprocessed.smi:148-9

> <Gold.Version>
5.8.1

> <Gold.Id.Protein>
6NUR|6NUR_protein|mol2

> <Gold.PLP.Fitness>
48.1148

> <Gold.PLP.PLP>
-44.5470

> <Gold.PLP.part.hbond>
-4.7854

> <Gold.PLP.part.metal>
0.0000

> <Gold.PLP.part.buried>
-7.3249

> <Gold.PLP.part.nonpolar>
-32.4626

> <Gold.PLP.part.repulsive>
0.2108

> <Gold.PLP.ligand.clash>
0.3323

> <Gold.PLP.ligand.torsion>
1.3724

> <Gold.PLP.Chemscore.Hbond>
1.1248

> <Gold.PLP.Chemscore.CHOScore>
0.9520

> <Gold.PLP.Chemscore.Metal>
0.0000

> <Gold.Chemscore.Hbonds>
donor molecule, donor type, donor heavy atom, donor atom, acceptor molecule, acceptor atom, score
      L1  H     1    31       P1  7948  1.00
      P1  H  6933  6945       L1    21  0.27
      L1  C    23    56       P1  8028  1.00

> <Gold.PLP.Chemscore.Internal.Correction>
0.4146

> <Gold.Rescore>
     Score         DG    S(hbond)    S(metal)    S(lipo)     H(rot)  DE(clash)    DE(int)     intcor
     10.31     -15.33       1.50        0.00     114.12       3.32       1.80       3.22       ----

> <Gold.Chemscore.Fitness>
10.3069

> <Gold.Chemscore.DG>
-15.3261

> <Gold.Chemscore.ZeroCoef>
-5.4800

> <Gold.Chemscore.Hbond>
1.4953

> <Gold.Chemscore.Metal>
0.0000

> <Gold.Chemscore.Lipo>
114.1183

> <Gold.Chemscore.Internal_Hbond>
0.0000

> <Gold.Chemscore.DEClash>
1.7955

> <Gold.Chemscore.DEInternal>
3.2237

> <Gold.Chemscore.Rot>
3.3203

> <Gold.Chemscore.Internal.Correction>
   9.000000E+99

> <Gold.Chemscore.Hbonds>
donor molecule, donor type, donor heavy atom, donor atom, acceptor molecule, acceptor atom, score
      L1  H     1    31       P1  7948  0.98
      P1  H  6933  6945       L1    21  0.23

> <Gold.Chemscore.Hbond.Weighted>
-4.9943

> <Gold.Chemscore.Metal.Weighted>
-0.0000

> <Gold.Chemscore.Lipo.Weighted>
-13.3518

> <Gold.Chemscore.Internal_Hbond.Weighted>
0.0000

> <Gold.Chemscore.DEClash.Weighted>
1.7955

> <Gold.Chemscore.DEInternal.Weighted>
3.2237

> <Gold.Chemscore.Rot.Weighted>
8.5000

> <Gold.Chemscore.Internal.Correction.Weighted>
   9.000000E+99

> <Gold.Protein.RotatedTorsions>
[ 6907 6896 6895 6894 ] final  -34.10 input  -60.11 | X-H torsion
[ 7974 7965 7964 7962 ] final  107.32 input  175.53 | X-H torsion
[ 8008 7997 7996 7995 ] final  159.30 input   59.86 | X-H torsion
[ 10167 10162 10161 10158 ] final  -93.22 input  -65.29 | X-H torsion
[ 10718 10713 10712 10709 ] final   47.23 input   66.30 | X-H torsion
[ 10763 10752 10751 10750 ] final   25.70 input  -60.55 | X-H torsion
[ 11005 11000 10999 10996 ] final -111.98 input  -57.11 | X-H torsion

> <Gold.Protein.ActiveResidues>
 VAL166  LYS551  ARG553  GLY616  TRP617  ASP618  TYR619  PRO620  LYS621  CYS622 
 ASP623  PHE694  ASN695  SER759  ASP760  ASP761  ALA762  ILE779  LEU786  VAL792 
 PHE793  MET794  SER795  GLU796  ALA797  LYS798  CYS799  TRP800  GLU811  SER814 

> <Gold.Protein.RotatedAtoms>
  151.0570  134.9711  159.8240 H   0  0  0  0  0  0  0  0  0  0  0  0  # atno 6907 bound_to 6896
  152.5390  134.2465  159.8892 H   0  0  0  0  0  0  0  0  0  0  0  0  # atno 6908 bound_to 6896
  151.2483  133.4320  159.2644 H   0  0  0  0  0  0  0  0  0  0  0  0  # atno 6909 bound_to 6896
  145.2951  139.2587  143.3844 H   0  0  0  0  0  0  0  0  0  0  0  0  # atno 7974 bound_to 7965
  156.2248  140.1835  156.7390 H   0  0  0  0  0  0  0  0  0  0  0  0  # atno 8008 bound_to 7997
  154.5923  140.0649  156.9284 H   0  0  0  0  0  0  0  0  0  0  0  0  # atno 8009 bound_to 7997
  155.2315  140.3315  155.4305 H   0  0  0  0  0  0  0  0  0  0  0  0  # atno 8010 bound_to 7997
  140.3269  143.3017  151.9985 H   0  0  0  0  0  0  0  0  0  0  0  0  # atno 10167 bound_to 10162
  157.4564  130.8169  149.7840 H   0  0  0  0  0  0  0  0  0  0  0  0  # atno 10718 bound_to 10713
  153.0673  135.6577  154.0325 H   0  0  0  0  0  0  0  0  0  0  0  0  # atno 10763 bound_to 10752
  153.9979  135.2940  155.3407 H   0  0  0  0  0  0  0  0  0  0  0  0  # atno 10764 bound_to 10752
  154.7036  135.5234  153.8631 H   0  0  0  0  0  0  0  0  0  0  0  0  # atno 10765 bound_to 10752
  141.0702  133.9392  157.2500 H   0  0  0  0  0  0  0  0  0  0  0  0  # atno 11005 bound_to 11000
  146.3171  140.3451  142.8651 LP  0  0  0  0  0  0  0  0  0  0  0  0  # atno 17320 bound_to 7965
  144.9140  140.7791  143.5789 LP  0  0  0  0  0  0  0  0  0  0  0  0  # atno 17321 bound_to 7965
  139.4863  144.6266  151.7152 LP  0  0  0  0  0  0  0  0  0  0  0  0  # atno 17342 bound_to 10162
  140.5433  144.0544  150.6097 LP  0  0  0  0  0  0  0  0  0  0  0  0  # atno 17343 bound_to 10162
  156.0009  130.3881  150.2610 LP  0  0  0  0  0  0  0  0  0  0  0  0  # atno 17370 bound_to 10713
  157.0785  131.0137  151.3165 LP  0  0  0  0  0  0  0  0  0  0  0  0  # atno 17371 bound_to 10713
  139.9516  135.0174  156.9009 LP  0  0  0  0  0  0  0  0  0  0  0  0  # atno 17394 bound_to 11000
  140.5689  134.0462  155.7424 LP  0  0  0  0  0  0  0  0  0  0  0  0  # atno 17395 bound_to 11000

$$$$
