AV-unprocessed.smi:1398|AV-procd|sdf|5680|dock5
  -GOLD-   22720 5303D 1   1.00000     0.00000
 Structure written by MMmdl.
 41 42  0  0  0  0  0  0  0  0  1 V2000
  144.5888  135.1828  150.3394 C   0  0  0  0  0  0  0  0  0  0  0  0
  145.6844  134.6555  151.0795 O   0  0  0  0  0  0  0  0  0  0  0  0
  145.6907  133.3061  151.3775 C   0  0  0  0  0  0  0  0  0  0  0  0
  144.7420  132.5162  150.8146 N   0  0  0  0  0  0  0  0  0  0  0  0
  144.7497  131.1984  151.1021 C   0  0  0  0  0  0  0  0  0  0  0  0
  145.6980  130.6006  151.9524 C   0  0  0  0  0  0  0  0  0  0  0  0
  146.6822  131.4177  152.5382 C   0  0  0  0  0  0  0  0  0  0  0  0
  146.6776  132.8054  152.2583 C   0  0  0  0  0  0  0  0  0  0  0  0
  147.6379  133.7134  152.7823 N   0  0  0  0  0  0  0  0  0  0  0  0
  148.2382  133.6887  153.9839 C   0  0  0  0  0  0  0  0  0  0  0  0
  148.0468  132.8435  154.8582 O   0  0  0  0  0  0  0  0  0  0  0  0
  149.0685  134.7305  154.1305 N   0  0  0  0  0  0  0  0  0  0  0  0
  149.8404  135.0252  155.3321 C   0  0  0  0  0  0  0  0  0  0  0  0
  149.6567  136.4924  155.7705 C   0  0  0  0  0  0  0  0  0  0  0  0
  150.8089  137.4164  155.3429 C   0  0  0  0  0  0  0  0  0  0  0  0
  151.7242  136.9750  154.6465 O   0  0  0  0  0  0  0  0  0  0  0  0
  150.7747  138.7031  155.7476 N   0  0  0  0  0  0  0  0  0  0  0  0
  151.7619  139.7299  155.4146 C   0  0  0  0  0  0  0  0  0  0  0  0
  151.1674  141.0509  155.9047 C   0  0  0  0  0  0  0  0  0  0  0  0
  150.2116  140.6414  157.0165 C   0  0  0  0  0  0  0  0  0  0  0  0
  149.7207  139.2558  156.5963 C   0  0  0  0  0  0  0  0  0  0  0  0
  144.7356  136.2527  150.1924 H   0  0  0  0  0  0  0  0  0  0  0  0
  143.6459  135.0489  150.8713 H   0  0  0  0  0  0  0  0  0  0  0  0
  144.5137  134.7211  149.3540 H   0  0  0  0  0  0  0  0  0  0  0  0
  143.9805  130.6016  150.6348 H   0  0  0  0  0  0  0  0  0  0  0  0
  145.6740  129.5385  152.1463 H   0  0  0  0  0  0  0  0  0  0  0  0
  147.4266  130.9652  153.1750 H   0  0  0  0  0  0  0  0  0  0  0  0
  147.8261  134.5214  152.2068 H   0  0  0  0  0  0  0  0  0  0  0  0
  149.1624  135.3761  153.3600 H   0  0  0  0  0  0  0  0  0  0  0  0
  149.5585  134.3416  156.1351 H   0  0  0  0  0  0  0  0  0  0  0  0
  150.8888  134.8263  155.1060 H   0  0  0  0  0  0  0  0  0  0  0  0
  148.7283  136.8764  155.3462 H   0  0  0  0  0  0  0  0  0  0  0  0
  149.5560  136.5412  156.8552 H   0  0  0  0  0  0  0  0  0  0  0  0
  152.6934  139.5144  155.9399 H   0  0  0  0  0  0  0  0  0  0  0  0
  151.9730  139.7706  154.3453 H   0  0  0  0  0  0  0  0  0  0  0  0
  151.9270  141.7584  156.2386 H   0  0  0  0  0  0  0  0  0  0  0  0
  150.6056  141.5211  155.0963 H   0  0  0  0  0  0  0  0  0  0  0  0
  150.7583  140.5656  157.9574 H   0  0  0  0  0  0  0  0  0  0  0  0
  149.3982  141.3533  157.1592 H   0  0  0  0  0  0  0  0  0  0  0  0
  148.8013  139.3343  156.0142 H   0  0  0  0  0  0  0  0  0  0  0  0
  149.5198  138.6268  157.4652 H   0  0  0  0  0  0  0  0  0  0  0  0
  1  2  1  0  0  0  0
  1 22  1  0  0  0  0
  1 23  1  0  0  0  0
  1 24  1  0  0  0  0
  2  3  1  0  0  0  0
  3  8  1  0  0  0  0
  3  4  2  0  0  0  0
  4  5  1  0  0  0  0
  5  6  2  0  0  0  0
  5 25  1  0  0  0  0
  6  7  1  0  0  0  0
  6 26  1  0  0  0  0
  7  8  2  0  0  0  0
  7 27  1  0  0  0  0
  8  9  1  0  0  0  0
  9 10  1  0  0  0  0
  9 28  1  0  0  0  0
 10 11  2  0  0  0  0
 10 12  1  0  0  0  0
 12 13  1  0  0  0  0
 12 29  1  0  0  0  0
 13 14  1  0  0  0  0
 13 30  1  0  0  0  0
 13 31  1  0  0  0  0
 14 15  1  0  0  0  0
 14 32  1  0  0  0  0
 14 33  1  0  0  0  0
 15 16  2  0  0  0  0
 15 17  1  0  0  0  0
 17 21  1  0  0  0  0
 17 18  1  0  0  0  0
 18 19  1  0  0  0  0
 18 34  1  0  0  0  0
 18 35  1  0  0  0  0
 19 20  1  0  0  0  0
 19 36  1  0  0  0  0
 19 37  1  0  0  0  0
 20 21  1  0  0  0  0
 20 38  1  0  0  0  0
 20 39  1  0  0  0  0
 21 40  1  0  0  0  0
 21 41  1  0  0  0  0
M  END
> <s_m_source_file>
AV-unprocessed.smi

> <i_m_source_file_index>
1398

> <i_lp_mmshare_version>
43012

> <i_f3d_flags>
0

> <s_epik_input>
W0NIM11PYzFuW2NIXVtjSF1bY0hdYzFbTkhdQyg9TylbTkhdW0NIMl1bQ0gyXUMoPU8pTjJbQ0gyXVtDSDJdW0NIMl1bQ0gyXTI=

> <s_epik_cmdline>
J2VwaWtfcHl0aG9uJywgJy1waCcsICc3LjAnLCAnLXRuJywgJzgnLCAnLW1hJywgJzIwMCcsICctbWV0YWxfYmluZGluZycsICctaW1hZScsICc8aW5maWxlLm1hZT4nLCAnLW9tYWUnLCAnPG91dGZpbGUubWFlPic=

> <r_lp_tautomer_probability>
1

> <r_epik_Ionization_Penalty>
8.61088e-05

> <r_epik_Ionization_Penalty_Charging>
0

> <r_epik_Ionization_Penalty_Neutral>
8.61088e-05

> <r_epik_State_Penalty>
-0

> <r_epik_Charging_Adjusted_Penalty>
0

> <i_epik_Tot_Q>
0

> <i_epik_Tot_abs_Q>
0

> <r_epik_Metal_State_Penalty>
-0

> <b_epik_Metal_Only>
0

> <s_lp_Force_Field>
OPLS_2005

> <r_lp_Energy>
29.8369

> <b_lp_Chiralities_Consistent>
1

> <s_lp_Variant>
AV-unprocessed.smi:1398-1

> <Gold.Version>
5.8.1

> <Gold.Id.Protein>
6NUR|6NUR_protein|mol2

> <Gold.PLP.Fitness>
41.3183

> <Gold.PLP.PLP>
-33.6283

> <Gold.PLP.part.hbond>
-3.0000

> <Gold.PLP.part.metal>
0.0000

> <Gold.PLP.part.buried>
-4.3748

> <Gold.PLP.part.nonpolar>
-25.9084

> <Gold.PLP.part.repulsive>
0.4840

> <Gold.PLP.ligand.clash>
0.0000

> <Gold.PLP.ligand.torsion>
0.6347

> <Gold.PLP.Chemscore.Hbond>
2.9760

> <Gold.PLP.Chemscore.CHOScore>
0.0000

> <Gold.PLP.Chemscore.Metal>
0.0000

> <Gold.Chemscore.Hbonds>
donor molecule, donor type, donor heavy atom, donor atom, acceptor molecule, acceptor atom, score
      L1  H     9    28       P1  7948  0.98
      L1  H    12    29       P1  7948  1.00
      P1  H 10752 10763       L1    16  1.00

> <Gold.PLP.Chemscore.Internal.Correction>
0.0313

> <Gold.Rescore>
     Score         DG    S(hbond)    S(metal)    S(lipo)     H(rot)  DE(clash)    DE(int)     intcor
     14.70     -16.58       2.48        0.00      63.99       1.83       0.28       1.60       ----

> <Gold.Chemscore.Fitness>
14.7036

> <Gold.Chemscore.DG>
-16.5796

> <Gold.Chemscore.ZeroCoef>
-5.4800

> <Gold.Chemscore.Hbond>
2.4812

> <Gold.Chemscore.Metal>
0.0000

> <Gold.Chemscore.Lipo>
63.9911

> <Gold.Chemscore.Internal_Hbond>
0.0000

> <Gold.Chemscore.DEClash>
0.2753

> <Gold.Chemscore.DEInternal>
1.6007

> <Gold.Chemscore.Rot>
1.8260

> <Gold.Chemscore.Internal.Correction>
   9.000000E+99

> <Gold.Chemscore.Hbonds>
donor molecule, donor type, donor heavy atom, donor atom, acceptor molecule, acceptor atom, score
      L1  H     9    28       P1  7948  0.39
      L1  H    12    29       P1  7948  0.35
      P1  H 10752 10763       L1    16  0.99

> <Gold.Chemscore.Hbond.Weighted>
-8.2870

> <Gold.Chemscore.Metal.Weighted>
-0.0000

> <Gold.Chemscore.Lipo.Weighted>
-7.4870

> <Gold.Chemscore.Internal_Hbond.Weighted>
0.0000

> <Gold.Chemscore.DEClash.Weighted>
0.2753

> <Gold.Chemscore.DEInternal.Weighted>
1.6007

> <Gold.Chemscore.Rot.Weighted>
4.6744

> <Gold.Chemscore.Internal.Correction.Weighted>
   9.000000E+99

> <Gold.Protein.RotatedTorsions>
[ 6907 6896 6895 6894 ] final  155.47 input  -60.11 | X-H torsion
[ 7974 7965 7964 7962 ] final   87.91 input  175.53 | X-H torsion
[ 8008 7997 7996 7995 ] final   14.46 input   59.86 | X-H torsion
[ 10167 10162 10161 10158 ] final  -69.71 input  -65.29 | X-H torsion
[ 10718 10713 10712 10709 ] final   53.31 input   66.30 | X-H torsion
[ 10763 10752 10751 10750 ] final   43.44 input  -60.55 | X-H torsion
[ 11005 11000 10999 10996 ] final -100.30 input  -57.11 | X-H torsion

> <Gold.Protein.ActiveResidues>
 VAL166  LYS551  ARG553  GLY616  TRP617  ASP618  TYR619  PRO620  LYS621  CYS622 
 ASP623  PHE694  ASN695  SER759  ASP760  ASP761  ALA762  ILE779  LEU786  VAL792 
 PHE793  MET794  SER795  GLU796  ALA797  LYS798  CYS799  TRP800  GLU811  SER814 

> <Gold.Protein.RotatedAtoms>
  152.0437  133.3988  159.4347 H   0  0  0  0  0  0  0  0  0  0  0  0  # atno 6907 bound_to 6896
  150.6874  134.3386  159.4867 H   0  0  0  0  0  0  0  0  0  0  0  0  # atno 6908 bound_to 6896
  152.1188  134.9220  160.0614 H   0  0  0  0  0  0  0  0  0  0  0  0  # atno 6909 bound_to 6896
  145.5528  139.2297  143.2503 H   0  0  0  0  0  0  0  0  0  0  0  0  # atno 7974 bound_to 7965
  154.8488  140.2926  155.5611 H   0  0  0  0  0  0  0  0  0  0  0  0  # atno 8008 bound_to 7997
  156.3015  140.2500  156.3376 H   0  0  0  0  0  0  0  0  0  0  0  0  # atno 8009 bound_to 7997
  154.9043  140.0390  157.1900 H   0  0  0  0  0  0  0  0  0  0  0  0  # atno 8010 bound_to 7997
  140.5410  143.2315  151.7090 H   0  0  0  0  0  0  0  0  0  0  0  0  # atno 10167 bound_to 10162
  157.5155  130.8529  149.8490 H   0  0  0  0  0  0  0  0  0  0  0  0  # atno 10718 bound_to 10713
  152.9861  135.6101  154.3112 H   0  0  0  0  0  0  0  0  0  0  0  0  # atno 10763 bound_to 10752
  154.2827  135.2776  155.2692 H   0  0  0  0  0  0  0  0  0  0  0  0  # atno 10764 bound_to 10752
  154.5023  135.5863  153.6597 H   0  0  0  0  0  0  0  0  0  0  0  0  # atno 10765 bound_to 10752
  141.1276  133.8388  157.1084 H   0  0  0  0  0  0  0  0  0  0  0  0  # atno 11005 bound_to 11000
  146.1905  140.6351  142.9148 LP  0  0  0  0  0  0  0  0  0  0  0  0  # atno 17320 bound_to 7965
  144.7521  140.5217  143.6794 LP  0  0  0  0  0  0  0  0  0  0  0  0  # atno 17321 bound_to 7965
  139.4989  144.3969  152.0222 LP  0  0  0  0  0  0  0  0  0  0  0  0  # atno 17342 bound_to 10162
  140.3078  144.3573  150.6042 LP  0  0  0  0  0  0  0  0  0  0  0  0  # atno 17343 bound_to 10162
  156.0317  130.3762  150.1669 LP  0  0  0  0  0  0  0  0  0  0  0  0  # atno 17370 bound_to 10713
  156.9858  130.9878  151.3426 LP  0  0  0  0  0  0  0  0  0  0  0  0  # atno 17371 bound_to 10713
  140.0290  134.9910  157.0743 LP  0  0  0  0  0  0  0  0  0  0  0  0  # atno 17394 bound_to 11000
  140.4316  134.1775  155.7168 LP  0  0  0  0  0  0  0  0  0  0  0  0  # atno 17395 bound_to 11000

$$$$
