AV-unprocessed.smi:422|AV-procd|sdf|2537|dock7
  -GOLD-   2262022493D 1   1.00000     0.00000
 Structure written by MMmdl.
 43 45  0  0  0  0  0  0  0  0  1 V2000
  153.6339  140.3678  160.3247 C   0  0  0  0  0  0  0  0  0  0  0  0
  152.8179  141.2419  159.4907 N   0  0  0  0  0  0  0  0  0  0  0  0
  152.4087  141.0028  158.2228 C   0  0  0  0  0  0  0  0  0  0  0  0
  152.6632  139.9995  157.5565 O   0  0  0  0  0  0  0  0  0  0  0  0
  151.6857  142.0693  157.8077 N   0  0  0  0  0  0  0  0  0  0  0  0
  151.0670  142.2424  156.4953 C   0  0  0  0  0  0  0  0  0  0  0  0
  149.9723  141.1864  156.2399 C   0  0  1  0  0  0  0  0  0  0  0  0
  148.8938  141.3697  157.1349 O   0  0  0  0  0  0  0  0  0  0  0  0
  149.4075  141.2355  154.8101 C   0  0  0  0  0  0  0  0  0  0  0  0
  148.4037  140.2457  154.6463 O   0  0  0  0  0  0  0  0  0  0  0  0
  147.6415  140.4231  153.4653 C   0  0  0  0  0  0  0  0  0  0  0  0
  147.0791  139.1043  152.9736 C   0  0  0  0  0  0  0  0  0  0  0  0
  147.1520  138.7738  151.6040 C   0  0  0  0  0  0  0  0  0  0  0  0
  146.6347  137.5475  151.1427 C   0  0  0  0  0  0  0  0  0  0  0  0
  146.0443  136.6463  152.0494 C   0  0  0  0  0  0  0  0  0  0  0  0
  145.9722  136.9716  153.4177 C   0  0  0  0  0  0  0  0  0  0  0  0
  146.4893  138.1974  153.8810 C   0  0  0  0  0  0  0  0  0  0  0  0
  146.4173  138.4983  155.1999 F   0  0  0  0  0  0  0  0  0  0  0  0
  151.6536  143.0287  158.8301 C   0  0  0  0  0  0  0  0  0  0  0  0
  151.0621  144.3029  158.8867 C   0  0  0  0  0  0  0  0  0  0  0  0
  151.2213  145.0363  160.0859 C   0  0  0  0  0  0  0  0  0  0  0  0
  151.9526  144.4975  161.1765 C   0  0  0  0  0  0  0  0  0  0  0  0
  152.5410  143.2138  161.0911 C   0  0  0  0  0  0  0  0  0  0  0  0
  152.3656  142.5064  159.8894 C   0  0  0  0  0  0  0  0  0  0  0  0
  153.6232  139.3386  159.9640 H   0  0  0  0  0  0  0  0  0  0  0  0
  153.2656  140.3622  161.3508 H   0  0  0  0  0  0  0  0  0  0  0  0
  154.6673  140.7153  160.3332 H   0  0  0  0  0  0  0  0  0  0  0  0
  150.6728  143.2537  156.3795 H   0  0  0  0  0  0  0  0  0  0  0  0
  151.8519  142.1482  155.7440 H   0  0  0  0  0  0  0  0  0  0  0  0
  150.3715  140.1851  156.4080 H   0  0  0  0  0  0  0  0  0  0  0  0
  149.1381  142.0248  157.7710 H   0  0  0  0  0  0  0  0  0  0  0  0
  148.9616  142.2165  154.6382 H   0  0  0  0  0  0  0  0  0  0  0  0
  150.2036  141.1126  154.0736 H   0  0  0  0  0  0  0  0  0  0  0  0
  146.8193  141.1172  153.6479 H   0  0  0  0  0  0  0  0  0  0  0  0
  148.2632  140.8661  152.6852 H   0  0  0  0  0  0  0  0  0  0  0  0
  147.6068  139.4589  150.9035 H   0  0  0  0  0  0  0  0  0  0  0  0
  146.6922  137.2981  150.0934 H   0  0  0  0  0  0  0  0  0  0  0  0
  145.6478  135.7058  151.6962 H   0  0  0  0  0  0  0  0  0  0  0  0
  145.5205  136.2797  154.1133 H   0  0  0  0  0  0  0  0  0  0  0  0
  150.5103  144.7101  158.0523 H   0  0  0  0  0  0  0  0  0  0  0  0
  150.7822  146.0194  160.1716 H   0  0  0  0  0  0  0  0  0  0  0  0
  152.0633  145.0750  162.0823 H   0  0  0  0  0  0  0  0  0  0  0  0
  153.1020  142.7995  161.9157 H   0  0  0  0  0  0  0  0  0  0  0  0
  1  2  1  0  0  0  0
  1 25  1  0  0  0  0
  1 26  1  0  0  0  0
  1 27  1  0  0  0  0
  2 24  1  0  0  0  0
  2  3  1  0  0  0  0
  3  4  2  0  0  0  0
  3  5  1  0  0  0  0
  5  6  1  0  0  0  0
  5 19  1  0  0  0  0
  6  7  1  0  0  0  0
  6 28  1  0  0  0  0
  6 29  1  0  0  0  0
  7  8  1  0  0  0  0
  7  9  1  0  0  0  0
  7 30  1  0  0  0  0
  8 31  1  0  0  0  0
  9 10  1  0  0  0  0
  9 32  1  0  0  0  0
  9 33  1  0  0  0  0
 10 11  1  0  0  0  0
 11 12  1  0  0  0  0
 11 34  1  0  0  0  0
 11 35  1  0  0  0  0
 12 17  1  0  0  0  0
 12 13  2  0  0  0  0
 13 14  1  0  0  0  0
 13 36  1  0  0  0  0
 14 15  2  0  0  0  0
 14 37  1  0  0  0  0
 15 16  1  0  0  0  0
 15 38  1  0  0  0  0
 16 17  2  0  0  0  0
 16 39  1  0  0  0  0
 17 18  1  0  0  0  0
 19 24  2  0  0  0  0
 19 20  1  0  0  0  0
 20 21  2  0  0  0  0
 20 40  1  0  0  0  0
 21 22  1  0  0  0  0
 21 41  1  0  0  0  0
 22 23  2  0  0  0  0
 22 42  1  0  0  0  0
 23 24  1  0  0  0  0
 23 43  1  0  0  0  0
M  END
> <s_m_source_file>
AV-unprocessed.smi

> <i_m_source_file_index>
422

> <i_lp_mmshare_version>
43012

> <i_f3d_flags>
0

> <s_epik_input>
W2NIXTFbY0hdW2NIXVtjSF1jKGMxMiluKFtDSDNdKWMoPU8pbjJbQ0gyXVtDQEhdKFtPSF0pW0NIMl1PW0NIMl1jM1tjSF1bY0hdW2NIXVtjSF1jM0Y=

> <s_epik_cmdline>
J2VwaWtfcHl0aG9uJywgJy1waCcsICc3LjAnLCAnLXRuJywgJzgnLCAnLW1hJywgJzIwMCcsICctbWV0YWxfYmluZGluZycsICctaW1hZScsICc8aW5maWxlLm1hZT4nLCAnLW9tYWUnLCAnPG91dGZpbGUubWFlPic=

> <r_lp_tautomer_probability>
1

> <r_epik_Ionization_Penalty>
1.0795e-06

> <r_epik_Ionization_Penalty_Charging>
2.82452e-09

> <r_epik_Ionization_Penalty_Neutral>
1.07667e-06

> <r_epik_State_Penalty>
-0

> <r_epik_Charging_Adjusted_Penalty>
2.82452e-09

> <i_epik_Tot_Q>
0

> <i_epik_Tot_abs_Q>
0

> <r_epik_Metal_State_Penalty>
-0

> <b_epik_Metal_Only>
0

> <s_lp_Force_Field>
OPLS_2005

> <r_lp_Energy>
48.6782

> <b_lp_Chiralities_Consistent>
1

> <s_lp_Variant>
AV-unprocessed.smi:422-2

> <Gold.Version>
5.8.1

> <Gold.Id.Protein>
6NUR|6NUR_protein|mol2

> <Gold.PLP.Fitness>
52.8260

> <Gold.PLP.PLP>
-50.5355

> <Gold.PLP.part.hbond>
-1.0000

> <Gold.PLP.part.metal>
0.0000

> <Gold.PLP.part.buried>
-2.2710

> <Gold.PLP.part.nonpolar>
-47.8043

> <Gold.PLP.part.repulsive>
0.0906

> <Gold.PLP.ligand.clash>
0.0000

> <Gold.PLP.ligand.torsion>
0.4244

> <Gold.PLP.Chemscore.Hbond>
1.0000

> <Gold.PLP.Chemscore.CHOScore>
0.0000

> <Gold.PLP.Chemscore.Metal>
0.0000

> <Gold.Chemscore.Hbonds>
donor molecule, donor type, donor heavy atom, donor atom, acceptor molecule, acceptor atom, score
      P1  H  7997  8010       L1     4  1.00

> <Gold.PLP.Chemscore.Internal.Correction>
0.1393

> <Gold.Rescore>
     Score         DG    S(hbond)    S(metal)    S(lipo)     H(rot)  DE(clash)    DE(int)     intcor
     16.40     -18.62       0.88        0.00     139.24       2.38       0.70       1.52       ----

> <Gold.Chemscore.Fitness>
16.4042

> <Gold.Chemscore.DG>
-18.6229

> <Gold.Chemscore.ZeroCoef>
-5.4800

> <Gold.Chemscore.Hbond>
0.8824

> <Gold.Chemscore.Metal>
0.0000

> <Gold.Chemscore.Lipo>
139.2379

> <Gold.Chemscore.Internal_Hbond>
0.0000

> <Gold.Chemscore.DEClash>
0.7033

> <Gold.Chemscore.DEInternal>
1.5155

> <Gold.Chemscore.Rot>
2.3809

> <Gold.Chemscore.Internal.Correction>
   9.000000E+99

> <Gold.Chemscore.Hbonds>
donor molecule, donor type, donor heavy atom, donor atom, acceptor molecule, acceptor atom, score
      P1  H  7997  8010       L1     4  0.80

> <Gold.Chemscore.Hbond.Weighted>
-2.9471

> <Gold.Chemscore.Metal.Weighted>
-0.0000

> <Gold.Chemscore.Lipo.Weighted>
-16.2908

> <Gold.Chemscore.Internal_Hbond.Weighted>
0.0000

> <Gold.Chemscore.DEClash.Weighted>
0.7033

> <Gold.Chemscore.DEInternal.Weighted>
1.5155

> <Gold.Chemscore.Rot.Weighted>
6.0951

> <Gold.Chemscore.Internal.Correction.Weighted>
   9.000000E+99

> <Gold.Protein.RotatedTorsions>
[ 6907 6896 6895 6894 ] final -163.24 input  -60.11 | X-H torsion
[ 7974 7965 7964 7962 ] final   32.64 input  175.53 | X-H torsion
[ 8008 7997 7996 7995 ] final   55.69 input   59.86 | X-H torsion
[ 10167 10162 10161 10158 ] final   55.19 input  -65.29 | X-H torsion
[ 10718 10713 10712 10709 ] final  -31.38 input   66.30 | X-H torsion
[ 10763 10752 10751 10750 ] final   25.67 input  -60.55 | X-H torsion
[ 11005 11000 10999 10996 ] final  -23.85 input  -57.11 | X-H torsion

> <Gold.Protein.ActiveResidues>
 VAL166  LYS551  ARG553  GLY616  TRP617  ASP618  TYR619  PRO620  LYS621  CYS622 
 ASP623  PHE694  ASN695  SER759  ASP760  ASP761  ALA762  ILE779  LEU786  VAL792 
 PHE793  MET794  SER795  GLU796  ALA797  LYS798  CYS799  TRP800  GLU811  SER814 

> <Gold.Protein.RotatedAtoms>
  151.3930  133.3782  159.2722 H   0  0  0  0  0  0  0  0  0  0  0  0  # atno 6907 bound_to 6896
  150.9491  134.8894  159.7671 H   0  0  0  0  0  0  0  0  0  0  0  0  # atno 6908 bound_to 6896
  152.5104  134.3884  159.9427 H   0  0  0  0  0  0  0  0  0  0  0  0  # atno 6909 bound_to 6896
  146.1473  139.6500  142.9122 H   0  0  0  0  0  0  0  0  0  0  0  0  # atno 7974 bound_to 7965
  155.5052  140.3475  155.4378 H   0  0  0  0  0  0  0  0  0  0  0  0  # atno 8008 bound_to 7997
  156.0887  140.1405  156.9648 H   0  0  0  0  0  0  0  0  0  0  0  0  # atno 8009 bound_to 7997
  154.4622  140.0931  156.6900 H   0  0  0  0  0  0  0  0  0  0  0  0  # atno 8010 bound_to 7997
  140.2221  144.3777  150.6446 H   0  0  0  0  0  0  0  0  0  0  0  0  # atno 10167 bound_to 10162
  156.3880  130.4368  149.7417 H   0  0  0  0  0  0  0  0  0  0  0  0  # atno 10718 bound_to 10713
  153.0676  135.6578  154.0320 H   0  0  0  0  0  0  0  0  0  0  0  0  # atno 10763 bound_to 10752
  153.9973  135.2940  155.3407 H   0  0  0  0  0  0  0  0  0  0  0  0  # atno 10764 bound_to 10752
  154.7039  135.5233  153.8636 H   0  0  0  0  0  0  0  0  0  0  0  0  # atno 10765 bound_to 10752
  140.8791  133.7667  156.0279 H   0  0  0  0  0  0  0  0  0  0  0  0  # atno 11005 bound_to 11000
  145.4907  141.0438  143.2595 LP  0  0  0  0  0  0  0  0  0  0  0  0  # atno 17320 bound_to 7965
  144.7861  139.6423  143.7133 LP  0  0  0  0  0  0  0  0  0  0  0  0  # atno 17321 bound_to 7965
  140.6247  143.2180  151.6621 LP  0  0  0  0  0  0  0  0  0  0  0  0  # atno 17342 bound_to 10162
  139.5140  144.3424  152.0728 LP  0  0  0  0  0  0  0  0  0  0  0  0  # atno 17343 bound_to 10162
  156.4481  130.7893  151.2915 LP  0  0  0  0  0  0  0  0  0  0  0  0  # atno 17370 bound_to 10713
  157.7497  131.0104  150.3304 LP  0  0  0  0  0  0  0  0  0  0  0  0  # atno 17371 bound_to 10713
  140.8483  134.2984  157.5286 LP  0  0  0  0  0  0  0  0  0  0  0  0  # atno 17394 bound_to 11000
  139.8718  134.9454  156.3908 LP  0  0  0  0  0  0  0  0  0  0  0  0  # atno 17395 bound_to 11000

$$$$
