AV-unprocessed.smi:1808|AV-procd|sdf|7307|dock9
  -GOLD-   22720 8563D 1   1.00000     0.00000
 Structure written by MMmdl.
 27 28  0  0  0  0  0  0  0  0  2 V2000
  151.2386  140.7680  158.1679 O   0  0  0  0  0  0  0  0  0  0  0  0
  152.4338  140.5526  157.9527 C   0  0  0  0  0  0  0  0  0  0  0  0
  153.3616  141.0362  158.7910 N   0  0  0  0  0  0  0  0  0  0  0  0
  153.1002  141.8179  159.9948 C   0  0  0  0  0  0  0  0  0  0  0  0
  152.0358  142.8993  159.7471 C   0  0  2  0  0  0  0  0  0  0  0  0
  152.4124  143.8976  158.6577 C   0  0  0  0  0  0  0  0  0  0  0  0
  151.5133  145.0783  158.9731 C   0  0  0  0  0  0  0  0  0  0  0  0
  151.2536  144.9453  160.4773 C   0  0  0  0  0  0  0  0  0  0  0  0
  151.8914  143.7389  160.8826 O   0  0  0  0  0  0  0  0  0  0  0  0
  152.9475  139.8466  156.9198 N   0  5  0  0  0  0  0  0  0  0  0  0
  152.1284  139.2995  156.0067 C   0  0  0  0  0  0  0  0  0  0  0  0
  151.1801  139.9941  155.3677 N   0  0  0  0  0  0  0  0  0  0  0  0
  150.4496  139.2284  154.4571 C   0  0  0  0  0  0  0  0  0  0  0  0
  150.8566  137.9220  154.3949 C   0  0  0  0  0  0  0  0  0  0  0  0
  152.1775  137.6128  155.4853 S   0  0  0  0  0  0  0  0  0  0  0  0
  154.3278  140.8338  158.5799 H   0  0  0  0  0  0  0  0  0  0  0  0
  152.7712  141.1395  160.7822 H   0  0  0  0  0  0  0  0  0  0  0  0
  154.0276  142.2729  160.3464 H   0  0  0  0  0  0  0  0  0  0  0  0
  151.0700  142.4488  159.5101 H   0  0  0  0  0  0  0  0  0  0  0  0
  153.4581  144.1916  158.7586 H   0  0  0  0  0  0  0  0  0  0  0  0
  152.2640  143.5045  157.6516 H   0  0  0  0  0  0  0  0  0  0  0  0
  151.9757  146.0296  158.7086 H   0  0  0  0  0  0  0  0  0  0  0  0
  150.5743  144.9956  158.4246 H   0  0  0  0  0  0  0  0  0  0  0  0
  151.6590  145.7866  161.0396 H   0  0  0  0  0  0  0  0  0  0  0  0
  150.1839  144.8847  160.6812 H   0  0  0  0  0  0  0  0  0  0  0  0
  149.6569  139.6967  153.8931 H   0  0  0  0  0  0  0  0  0  0  0  0
  150.4644  137.1277  153.7782 H   0  0  0  0  0  0  0  0  0  0  0  0
  1  2  2  0  0  0  0
  2  3  1  0  0  0  0
  2 10  1  0  0  0  0
  3  4  1  0  0  0  0
  3 16  1  0  0  0  0
  4  5  1  0  0  0  0
  4 17  1  0  0  0  0
  4 18  1  0  0  0  0
  5  9  1  0  0  0  0
  5  6  1  0  0  0  0
  5 19  1  0  0  0  0
  6  7  1  0  0  0  0
  6 20  1  0  0  0  0
  6 21  1  0  0  0  0
  7  8  1  0  0  0  0
  7 22  1  0  0  0  0
  7 23  1  0  0  0  0
  8  9  1  0  0  0  0
  8 24  1  0  0  0  0
  8 25  1  0  0  0  0
 10 11  1  0  0  0  0
 11 15  1  0  0  0  0
 11 12  2  0  0  0  0
 12 13  1  0  0  0  0
 13 14  2  0  0  0  0
 13 26  1  0  0  0  0
 14 15  1  0  0  0  0
 14 27  1  0  0  0  0
M  CHG  1  10  -1
M  END
> <s_m_source_file>
AV-unprocessed.smi

> <i_m_source_file_index>
1808

> <i_lp_mmshare_version>
43012

> <i_f3d_flags>
0

> <s_epik_input>
czFbY0hdW2NIXW5jMVtOSF1DKD1PKVtOSF1bQ0gyXVtDQEBIXTJbQ0gyXVtDSDJdW0NIMl1PMg==

> <s_epik_cmdline>
J2VwaWtfcHl0aG9uJywgJy1waCcsICc3LjAnLCAnLXRuJywgJzgnLCAnLW1hJywgJzIwMCcsICctbWV0YWxfYmluZGluZycsICctaW1hZScsICc8aW5maWxlLm1hZT4nLCAnLW9tYWUnLCAnPG91dGZpbGUubWFlPic=

> <r_lp_tautomer_probability>
0.999

> <r_epik_Ionization_Penalty>
8.26346

> <r_epik_Ionization_Penalty_Charging>
6.6559

> <r_epik_Ionization_Penalty_Neutral>
1.60756

> <r_epik_State_Penalty>
6.65607

> <r_epik_Charging_Adjusted_Penalty>
13.312

> <i_epik_Tot_Q>
-1

> <i_epik_Tot_abs_Q>
1

> <r_epik_Metal_State_Penalty>
2.5789

> <b_epik_Metal_Only>
1

> <s_lp_Force_Field>
OPLS_2005

> <r_lp_Energy>
12.338

> <b_lp_Chiralities_Consistent>
1

> <s_lp_Variant>
AV-unprocessed.smi:1808-3

> <Gold.Version>
5.8.1

> <Gold.Id.Protein>
6NUR|6NUR_protein|mol2

> <Gold.PLP.Fitness>
46.1736

> <Gold.PLP.PLP>
-34.9268

> <Gold.PLP.part.hbond>
-2.0000

> <Gold.PLP.part.metal>
0.0000

> <Gold.PLP.part.buried>
-3.8021

> <Gold.PLP.part.nonpolar>
-29.9081

> <Gold.PLP.part.repulsive>
0.2176

> <Gold.PLP.ligand.clash>
0.0000

> <Gold.PLP.ligand.torsion>
0.5681

> <Gold.PLP.Chemscore.Hbond>
2.0000

> <Gold.PLP.Chemscore.CHOScore>
2.1229

> <Gold.PLP.Chemscore.Metal>
0.0000

> <Gold.Chemscore.Hbonds>
donor molecule, donor type, donor heavy atom, donor atom, acceptor molecule, acceptor atom, score
      P1  H  7997  8010       L1    10  1.98
      L1  C    13    26       P1  7957  0.40
      L1  C    14    27       P1  7948  0.70
      L1  C    14    27       P1  7949  0.36

> <Gold.PLP.Chemscore.Internal.Correction>
0.0143

> <Gold.Rescore>
     Score         DG    S(hbond)    S(metal)    S(lipo)     H(rot)  DE(clash)    DE(int)     intcor
     11.27     -14.56       0.87        0.00      81.19       1.30       0.00       3.29       ----

> <Gold.Chemscore.Fitness>
11.2668

> <Gold.Chemscore.DG>
-14.5558

> <Gold.Chemscore.ZeroCoef>
-5.4800

> <Gold.Chemscore.Hbond>
0.8697

> <Gold.Chemscore.Metal>
0.0000

> <Gold.Chemscore.Lipo>
81.1889

> <Gold.Chemscore.Internal_Hbond>
0.0000

> <Gold.Chemscore.DEClash>
0.0038

> <Gold.Chemscore.DEInternal>
3.2852

> <Gold.Chemscore.Rot>
1.3000

> <Gold.Chemscore.Internal.Correction>
   9.000000E+99

> <Gold.Chemscore.Hbonds>
donor molecule, donor type, donor heavy atom, donor atom, acceptor molecule, acceptor atom, score
      P1  H  7997  8010       L1    10  0.66

> <Gold.Chemscore.Hbond.Weighted>
-2.9047

> <Gold.Chemscore.Metal.Weighted>
-0.0000

> <Gold.Chemscore.Lipo.Weighted>
-9.4991

> <Gold.Chemscore.Internal_Hbond.Weighted>
0.0000

> <Gold.Chemscore.DEClash.Weighted>
0.0038

> <Gold.Chemscore.DEInternal.Weighted>
3.2852

> <Gold.Chemscore.Rot.Weighted>
3.3280

> <Gold.Chemscore.Internal.Correction.Weighted>
   9.000000E+99

> <Gold.Protein.RotatedTorsions>
[ 6907 6896 6895 6894 ] final  135.09 input  -60.11 | X-H torsion
[ 7974 7965 7964 7962 ] final   80.50 input  175.53 | X-H torsion
[ 8008 7997 7996 7995 ] final   45.34 input   59.86 | X-H torsion
[ 10167 10162 10161 10158 ] final  -74.61 input  -65.29 | X-H torsion
[ 10718 10713 10712 10709 ] final -110.47 input   66.30 | X-H torsion
[ 10763 10752 10751 10750 ] final  174.19 input  -60.55 | X-H torsion
[ 11005 11000 10999 10996 ] final  127.62 input  -57.11 | X-H torsion

> <Gold.Protein.ActiveResidues>
 VAL166  LYS551  ARG553  GLY616  TRP617  ASP618  TYR619  PRO620  LYS621  CYS622 
 ASP623  PHE694  ASN695  SER759  ASP760  ASP761  ALA762  ILE779  LEU786  VAL792 
 PHE793  MET794  SER795  GLU796  ALA797  LYS798  CYS799  TRP800  GLU811  SER814 

> <Gold.Protein.RotatedAtoms>
  152.3042  133.5686  159.5638 H   0  0  0  0  0  0  0  0  0  0  0  0  # atno 6907 bound_to 6896
  150.7292  134.0247  159.3722 H   0  0  0  0  0  0  0  0  0  0  0  0  # atno 6908 bound_to 6896
  151.8144  135.0671  160.0468 H   0  0  0  0  0  0  0  0  0  0  0  0  # atno 6909 bound_to 6896
  145.6504  139.2446  143.1980 H   0  0  0  0  0  0  0  0  0  0  0  0  # atno 7974 bound_to 7965
  155.3343  140.3404  155.4239 H   0  0  0  0  0  0  0  0  0  0  0  0  # atno 8008 bound_to 7997
  156.1846  140.1676  156.8246 H   0  0  0  0  0  0  0  0  0  0  0  0  # atno 8009 bound_to 7997
  154.5371  140.0732  156.8430 H   0  0  0  0  0  0  0  0  0  0  0  0  # atno 8010 bound_to 7997
  140.5012  143.2361  151.7748 H   0  0  0  0  0  0  0  0  0  0  0  0  # atno 10167 bound_to 10162
  156.0593  130.5817  150.8242 H   0  0  0  0  0  0  0  0  0  0  0  0  # atno 10718 bound_to 10713
  154.4505  135.2764  155.1784 H   0  0  0  0  0  0  0  0  0  0  0  0  # atno 10763 bound_to 10752
  154.3614  135.6128  153.5696 H   0  0  0  0  0  0  0  0  0  0  0  0  # atno 10764 bound_to 10752
  152.9847  135.5835  154.4848 H   0  0  0  0  0  0  0  0  0  0  0  0  # atno 10765 bound_to 10752
  139.9517  134.9621  156.8882 H   0  0  0  0  0  0  0  0  0  0  0  0  # atno 11005 bound_to 11000
  146.1208  140.7311  142.9458 LP  0  0  0  0  0  0  0  0  0  0  0  0  # atno 17320 bound_to 7965
  144.7124  140.4089  143.7070 LP  0  0  0  0  0  0  0  0  0  0  0  0  # atno 17321 bound_to 7965
  139.4873  144.4519  151.9644 LP  0  0  0  0  0  0  0  0  0  0  0  0  # atno 17342 bound_to 10162
  140.3608  144.2975  150.5934 LP  0  0  0  0  0  0  0  0  0  0  0  0  # atno 17343 bound_to 10162
  157.5589  131.0945  150.9588 LP  0  0  0  0  0  0  0  0  0  0  0  0  # atno 17370 bound_to 10713
  156.9831  130.5534  149.5297 LP  0  0  0  0  0  0  0  0  0  0  0  0  # atno 17371 bound_to 10713
  140.5703  134.0449  155.7428 LP  0  0  0  0  0  0  0  0  0  0  0  0  # atno 17394 bound_to 11000
  141.1181  133.9506  157.2783 LP  0  0  0  0  0  0  0  0  0  0  0  0  # atno 17395 bound_to 11000

$$$$
