AV-unprocessed.smi:873|AV-procd|sdf|4016|dock8
  -GOLD-   22720 1503D 1   1.00000     0.00000
 Structure written by MMmdl.
 45 48  0  0  0  0  0  0  0  0  1 V2000
  148.5421  135.6435  155.5779 O   0  0  0  0  0  0  0  0  0  0  0  0
  149.3849  135.4909  154.6945 C   0  0  0  0  0  0  0  0  0  0  0  0
  150.2962  136.4044  154.3183 N   0  0  0  0  0  0  0  0  0  0  0  0
  150.5426  137.6962  154.8579 C   0  0  0  0  0  0  0  0  0  0  0  0
  150.8266  138.8638  154.1060 C   0  0  0  0  0  0  0  0  0  0  0  0
  151.0325  140.0584  154.7020 N   0  0  0  0  0  0  0  0  0  0  0  0
  150.9437  140.0961  156.0342 C   0  0  0  0  0  0  0  0  0  0  0  0
  151.2095  141.4162  156.6889 C   0  0  0  0  0  0  0  0  0  0  0  0
  151.2609  141.5379  158.1985 C   0  0  0  0  0  0  0  0  0  0  0  0
  150.1126  142.1431  157.4403 C   0  0  0  0  0  0  0  0  0  0  0  0
  150.6909  139.0646  156.8442 N   0  0  0  0  0  0  0  0  0  0  0  0
  150.4837  137.8666  156.2571 C   0  0  0  0  0  0  0  0  0  0  0  0
  149.4984  134.3707  153.9672 N   0  0  0  0  0  0  0  0  0  0  0  0
  148.6635  133.1820  154.1137 C   0  0  0  0  0  0  0  0  0  0  0  0
  149.5260  131.9212  154.3027 C   0  0  0  0  0  0  0  0  0  0  0  0
  148.6562  130.6518  154.3033 C   0  0  0  0  0  0  0  0  0  0  0  0
  147.9024  130.5531  153.0531 N   0  0  0  0  0  0  0  0  0  0  0  0
  147.1243  129.3251  153.0694 C   0  0  0  0  0  0  0  0  0  0  0  0
  147.6877  128.1288  152.3368 C   0  0  0  0  0  0  0  0  0  0  0  0
  146.5039  128.8725  151.7672 C   0  0  0  0  0  0  0  0  0  0  0  0
  146.9884  131.6890  152.9326 C   0  0  0  0  0  0  0  0  0  0  0  0
  147.7829  133.0052  152.8668 C   0  0  0  0  0  0  0  0  0  0  0  0
  150.8814  136.1470  153.5370 H   0  0  0  0  0  0  0  0  0  0  0  0
  150.8822  138.8728  153.0293 H   0  0  0  0  0  0  0  0  0  0  0  0
  151.9090  142.0132  156.1069 H   0  0  0  0  0  0  0  0  0  0  0  0
  151.0559  140.6464  158.7880 H   0  0  0  0  0  0  0  0  0  0  0  0
  151.9973  142.2174  158.6223 H   0  0  0  0  0  0  0  0  0  0  0  0
  150.0806  143.2270  157.3537 H   0  0  0  0  0  0  0  0  0  0  0  0
  149.1443  141.6539  157.5271 H   0  0  0  0  0  0  0  0  0  0  0  0
  150.2697  137.0356  156.9132 H   0  0  0  0  0  0  0  0  0  0  0  0
  150.2182  134.3342  153.2606 H   0  0  0  0  0  0  0  0  0  0  0  0
  148.0113  133.3029  154.9809 H   0  0  0  0  0  0  0  0  0  0  0  0
  150.2671  131.8519  153.5048 H   0  0  0  0  0  0  0  0  0  0  0  0
  150.0839  131.9823  155.2378 H   0  0  0  0  0  0  0  0  0  0  0  0
  149.2948  129.7744  154.4124 H   0  0  0  0  0  0  0  0  0  0  0  0
  147.9744  130.6600  155.1556 H   0  0  0  0  0  0  0  0  0  0  0  0
  146.5468  129.0902  153.9623 H   0  0  0  0  0  0  0  0  0  0  0  0
  148.6435  128.2443  151.8290 H   0  0  0  0  0  0  0  0  0  0  0  0
  147.5046  127.1462  152.7666 H   0  0  0  0  0  0  0  0  0  0  0  0
  145.5319  128.3861  151.8182 H   0  0  0  0  0  0  0  0  0  0  0  0
  146.6740  129.4818  150.8813 H   0  0  0  0  0  0  0  0  0  0  0  0
  146.3910  131.5805  152.0266 H   0  0  0  0  0  0  0  0  0  0  0  0
  146.2939  131.7062  153.7743 H   0  0  0  0  0  0  0  0  0  0  0  0
  147.0954  133.8462  152.7722 H   0  0  0  0  0  0  0  0  0  0  0  0
  148.4013  133.0081  151.9676 H   0  0  0  0  0  0  0  0  0  0  0  0
  1  2  2  0  0  0  0
  2  3  1  0  0  0  0
  2 13  1  0  0  0  0
  3  4  1  0  0  0  0
  3 23  1  0  0  0  0
  4 12  1  0  0  0  0
  4  5  2  0  0  0  0
  5  6  1  0  0  0  0
  5 24  1  0  0  0  0
  6  7  2  0  0  0  0
  7  8  1  0  0  0  0
  7 11  1  0  0  0  0
  8 10  1  0  0  0  0
  8  9  1  0  0  0  0
  8 25  1  0  0  0  0
  9 10  1  0  0  0  0
  9 26  1  0  0  0  0
  9 27  1  0  0  0  0
 10 28  1  0  0  0  0
 10 29  1  0  0  0  0
 11 12  2  0  0  0  0
 12 30  1  0  0  0  0
 13 14  1  0  0  0  0
 13 31  1  0  0  0  0
 14 22  1  0  0  0  0
 14 15  1  0  0  0  0
 14 32  1  0  0  0  0
 15 16  1  0  0  0  0
 15 33  1  0  0  0  0
 15 34  1  0  0  0  0
 16 17  1  0  0  0  0
 16 35  1  0  0  0  0
 16 36  1  0  0  0  0
 17 18  1  0  0  0  0
 17 21  1  0  0  0  0
 18 20  1  0  0  0  0
 18 19  1  0  0  0  0
 18 37  1  0  0  0  0
 19 20  1  0  0  0  0
 19 38  1  0  0  0  0
 19 39  1  0  0  0  0
 20 40  1  0  0  0  0
 20 41  1  0  0  0  0
 21 22  1  0  0  0  0
 21 42  1  0  0  0  0
 21 43  1  0  0  0  0
 22 44  1  0  0  0  0
 22 45  1  0  0  0  0
M  END
> <s_m_source_file>
AV-unprocessed.smi

> <i_m_source_file_index>
873

> <i_lp_mmshare_version>
43012

> <i_f3d_flags>
0

> <s_epik_input>
W0NIMl0xW0NIMl1bQ0hdMU4oW0NIMl1bQ0gyXTIpW0NIMl1bQ0gyXVtDSF0yW05IXUMoPU8pW05IXWMzW2NIXW5jKG5bY0hdMylbQ0hdNFtDSDJdW0NIMl00

> <s_epik_cmdline>
J2VwaWtfcHl0aG9uJywgJy1waCcsICc3LjAnLCAnLXRuJywgJzgnLCAnLW1hJywgJzIwMCcsICctbWV0YWxfYmluZGluZycsICctaW1hZScsICc8aW5maWxlLm1hZT4nLCAnLW9tYWUnLCAnPG91dGZpbGUubWFlPic=

> <r_lp_tautomer_probability>
1

> <r_epik_Ionization_Penalty>
0.990889

> <r_epik_Ionization_Penalty_Charging>
0

> <r_epik_Ionization_Penalty_Neutral>
0.990889

> <r_epik_State_Penalty>
1.03856

> <r_epik_Charging_Adjusted_Penalty>
1.03856

> <i_epik_Tot_Q>
0

> <i_epik_Tot_abs_Q>
0

> <r_epik_Metal_State_Penalty>
1.03856

> <b_epik_Metal_Only>
0

> <s_lp_Force_Field>
OPLS_2005

> <r_lp_Energy>
20.0784

> <b_lp_Chiralities_Consistent>
1

> <s_lp_Variant>
AV-unprocessed.smi:873-3

> <Gold.Version>
5.8.1

> <Gold.Id.Protein>
6NUR|6NUR_protein|mol2

> <Gold.PLP.Fitness>
43.6808

> <Gold.PLP.PLP>
-35.7922

> <Gold.PLP.part.hbond>
-4.0000

> <Gold.PLP.part.metal>
0.0000

> <Gold.PLP.part.buried>
-3.7912

> <Gold.PLP.part.nonpolar>
-27.3743

> <Gold.PLP.part.repulsive>
0.7829

> <Gold.PLP.ligand.clash>
0.0000

> <Gold.PLP.ligand.torsion>
1.0452

> <Gold.PLP.Chemscore.Hbond>
1.9108

> <Gold.PLP.Chemscore.CHOScore>
0.9873

> <Gold.PLP.Chemscore.Metal>
0.0000

> <Gold.Chemscore.Hbonds>
donor molecule, donor type, donor heavy atom, donor atom, acceptor molecule, acceptor atom, score
      L1  H     3    23       P1  7949  0.72
      P1  H  7989  7998       L1     6  1.00
      L1  C     5    24       P1  7957  0.96

> <Gold.PLP.Chemscore.Internal.Correction>
1.2845

> <Gold.Rescore>
     Score         DG    S(hbond)    S(metal)    S(lipo)     H(rot)  DE(clash)    DE(int)     intcor
     10.85     -12.82       0.04        0.00      90.80       1.33       0.02       1.95       ----

> <Gold.Chemscore.Fitness>
10.8537

> <Gold.Chemscore.DG>
-12.8209

> <Gold.Chemscore.ZeroCoef>
-5.4800

> <Gold.Chemscore.Hbond>
0.0374

> <Gold.Chemscore.Metal>
0.0000

> <Gold.Chemscore.Lipo>
90.7992

> <Gold.Chemscore.Internal_Hbond>
0.0000

> <Gold.Chemscore.DEClash>
0.0200

> <Gold.Chemscore.DEInternal>
1.9471

> <Gold.Chemscore.Rot>
1.3310

> <Gold.Chemscore.Internal.Correction>
   9.000000E+99

> <Gold.Chemscore.Hbonds>
donor molecule, donor type, donor heavy atom, donor atom, acceptor molecule, acceptor atom, score
      L1  H     3    23       P1  7949  0.10
      P1  H  7989  7998       L1     6  0.25

> <Gold.Chemscore.Hbond.Weighted>
-0.1248

> <Gold.Chemscore.Metal.Weighted>
-0.0000

> <Gold.Chemscore.Lipo.Weighted>
-10.6235

> <Gold.Chemscore.Internal_Hbond.Weighted>
0.0000

> <Gold.Chemscore.DEClash.Weighted>
0.0200

> <Gold.Chemscore.DEInternal.Weighted>
1.9471

> <Gold.Chemscore.Rot.Weighted>
3.4075

> <Gold.Chemscore.Internal.Correction.Weighted>
   9.000000E+99

> <Gold.Protein.RotatedTorsions>
[ 6907 6896 6895 6894 ] final  115.60 input  -60.11 | X-H torsion
[ 7974 7965 7964 7962 ] final  130.68 input  175.53 | X-H torsion
[ 8008 7997 7996 7995 ] final  -28.81 input   59.86 | X-H torsion
[ 10167 10162 10161 10158 ] final -168.26 input  -65.29 | X-H torsion
[ 10718 10713 10712 10709 ] final -164.17 input   66.30 | X-H torsion
[ 10763 10752 10751 10750 ] final -143.57 input  -60.55 | X-H torsion
[ 11005 11000 10999 10996 ] final   93.15 input  -57.11 | X-H torsion

> <Gold.Protein.ActiveResidues>
 VAL166  LYS551  ARG553  GLY616  TRP617  ASP618  TYR619  PRO620  LYS621  CYS622 
 ASP623  PHE694  ASN695  SER759  ASP760  ASP761  ALA762  ILE779  LEU786  VAL792 
 PHE793  MET794  SER795  GLU796  ALA797  LYS798  CYS799  TRP800  GLU811  SER814 

> <Gold.Protein.RotatedAtoms>
  152.4731  133.8075  159.6985 H   0  0  0  0  0  0  0  0  0  0  0  0  # atno 6907 bound_to 6896
  150.8732  133.7467  159.2961 H   0  0  0  0  0  0  0  0  0  0  0  0  # atno 6908 bound_to 6896
  151.4995  135.1064  159.9877 H   0  0  0  0  0  0  0  0  0  0  0  0  # atno 6909 bound_to 6896
  145.0154  139.4181  143.5224 H   0  0  0  0  0  0  0  0  0  0  0  0  # atno 7974 bound_to 7965
  154.4316  140.1835  156.1149 H   0  0  0  0  0  0  0  0  0  0  0  0  # atno 8008 bound_to 7997
  156.0188  140.3343  155.6992 H   0  0  0  0  0  0  0  0  0  0  0  0  # atno 8009 bound_to 7997
  155.6005  140.0640  157.2725 H   0  0  0  0  0  0  0  0  0  0  0  0  # atno 8010 bound_to 7997
  139.5996  144.1038  152.1728 H   0  0  0  0  0  0  0  0  0  0  0  0  # atno 10167 bound_to 10162
  156.6351  130.8946  151.2985 H   0  0  0  0  0  0  0  0  0  0  0  0  # atno 10718 bound_to 10713
  154.8464  135.3464  154.6208 H   0  0  0  0  0  0  0  0  0  0  0  0  # atno 10763 bound_to 10752
  153.6817  135.6979  153.5120 H   0  0  0  0  0  0  0  0  0  0  0  0  # atno 10764 bound_to 10752
  153.2663  135.4307  155.0900 H   0  0  0  0  0  0  0  0  0  0  0  0  # atno 10765 bound_to 10752
  139.8814  134.8774  156.3676 H   0  0  0  0  0  0  0  0  0  0  0  0  # atno 11005 bound_to 11000
  146.3477  139.9621  142.8716 LP  0  0  0  0  0  0  0  0  0  0  0  0  # atno 17320 bound_to 7965
  145.1967  140.9836  143.4179 LP  0  0  0  0  0  0  0  0  0  0  0  0  # atno 17321 bound_to 7965
  140.0632  144.5840  150.7247 LP  0  0  0  0  0  0  0  0  0  0  0  0  # atno 17342 bound_to 10162
  140.7239  143.2616  151.4185 LP  0  0  0  0  0  0  0  0  0  0  0  0  # atno 17343 bound_to 10162
  157.7188  130.9531  150.1357 LP  0  0  0  0  0  0  0  0  0  0  0  0  # atno 17370 bound_to 10713
  156.2203  130.3673  149.8563 LP  0  0  0  0  0  0  0  0  0  0  0  0  # atno 17371 bound_to 10713
  140.9486  133.7466  156.0242 LP  0  0  0  0  0  0  0  0  0  0  0  0  # atno 17394 bound_to 11000
  140.8133  134.3374  157.5405 LP  0  0  0  0  0  0  0  0  0  0  0  0  # atno 17395 bound_to 11000

$$$$
