AV-unprocessed.smi:72|AV-procd|sdf|750|dock8
  -GOLD-   2262017 83D 1   1.00000     0.00000
 Structure written by MMmdl.
 29 30  0  0  0  0  0  0  0  0  1 V2000
  153.4125  143.0430  159.4885 N   0  0  0  0  0  0  0  0  0  0  0  0
  152.4692  142.3385  158.7701 C   0  0  0  0  0  0  0  0  0  0  0  0
  151.5169  143.0987  158.0769 N   0  0  0  0  0  0  0  0  0  0  0  0
  150.6258  142.4396  157.4063 C   0  0  0  0  0  0  0  0  0  0  0  0
  150.6179  140.9877  157.3879 N   0  0  0  0  0  0  0  0  0  0  0  0
  149.5764  140.2192  156.6013 C   0  0  1  0  0  0  0  0  0  0  0  0
  148.6096  141.1127  156.1460 O   0  0  0  0  0  0  0  0  0  0  0  0
  148.0806  140.6231  154.9239 C   0  0  1  0  0  0  0  0  0  0  0  0
  147.4071  141.7671  154.1513 C   0  0  0  0  0  0  0  0  0  0  0  0
  148.2574  142.8932  154.1176 O   0  0  0  0  0  0  0  0  0  0  0  0
  149.3208  140.0569  154.2231 C   0  0  2  0  0  0  0  0  0  0  0  0
  148.9471  139.0422  153.3120 O   0  0  0  0  0  0  0  0  0  0  0  0
  150.1463  139.4782  155.3695 C   0  0  1  0  0  0  0  0  0  0  0  0
  151.5293  139.6855  155.1448 O   0  0  0  0  0  0  0  0  0  0  0  0
  151.6264  140.2798  158.0966 C   0  0  0  0  0  0  0  0  0  0  0  0
  151.6609  139.0498  158.0639 O   0  0  0  0  0  0  0  0  0  0  0  0
  152.5620  141.0399  158.8086 N   0  0  0  0  0  0  0  0  0  0  0  0
  149.0856  139.5435  157.3034 H   0  0  0  0  0  0  0  0  0  0  0  0
  147.3739  139.8184  155.1392 H   0  0  0  0  0  0  0  0  0  0  0  0
  149.8637  140.8546  153.7125 H   0  0  0  0  0  0  0  0  0  0  0  0
  149.9564  138.4126  155.5077 H   0  0  0  0  0  0  0  0  0  0  0  0
  154.1463  142.6028  160.0240 H   0  0  0  0  0  0  0  0  0  0  0  0
  153.4388  144.0513  159.5330 H   0  0  0  0  0  0  0  0  0  0  0  0
  149.8421  142.9195  156.8182 H   0  0  0  0  0  0  0  0  0  0  0  0
  147.1398  141.4605  153.1396 H   0  0  0  0  0  0  0  0  0  0  0  0
  146.4867  142.0676  154.6527 H   0  0  0  0  0  0  0  0  0  0  0  0
  148.8326  142.8553  154.8666 H   0  0  0  0  0  0  0  0  0  0  0  0
  149.2296  139.2970  152.4470 H   0  0  0  0  0  0  0  0  0  0  0  0
  151.9505  138.8428  155.0709 H   0  0  0  0  0  0  0  0  0  0  0  0
  1  2  1  0  0  0  0
  1 22  1  0  0  0  0
  1 23  1  0  0  0  0
  2 17  2  0  0  0  0
  2  3  1  0  0  0  0
  3  4  2  0  0  0  0
  4  5  1  0  0  0  0
  4 24  1  0  0  0  0
  5  6  1  0  0  0  0
  5 15  1  0  0  0  0
  6 18  1  0  0  0  0
  6 13  1  0  0  0  0
  6  7  1  0  0  0  0
  7  8  1  0  0  0  0
  8 19  1  0  0  0  0
  8  9  1  0  0  0  0
  8 11  1  0  0  0  0
  9 10  1  0  0  0  0
  9 25  1  0  0  0  0
  9 26  1  0  0  0  0
 10 27  1  0  0  0  0
 11 20  1  0  0  0  0
 11 12  1  0  0  0  0
 11 13  1  0  0  0  0
 12 28  1  0  0  0  0
 13 21  1  0  0  0  0
 13 14  1  0  0  0  0
 14 29  1  0  0  0  0
 15 16  2  0  0  0  0
 15 17  1  0  0  0  0
M  END
> <s_m_source_file>
AV-unprocessed.smi

> <i_m_source_file_index>
72

> <i_lp_mmshare_version>
43012

> <i_f3d_flags>
0

> <s_epik_input>
W05IMl1jMW5bY0hdbihjKD1PKW4xKVtDQEBIXTJPW0NASF0oW0NIMl1bT0hdKVtDQEBIXShbT0hdKVtDQEhdMltPSF0=

> <s_epik_cmdline>
J2VwaWtfcHl0aG9uJywgJy1waCcsICc3LjAnLCAnLXRuJywgJzgnLCAnLW1hJywgJzIwMCcsICctbWV0YWxfYmluZGluZycsICctaW1hZScsICc8aW5maWxlLm1hZT4nLCAnLW9tYWUnLCAnPG91dGZpbGUubWFlPic=

> <r_lp_tautomer_probability>
4.77166e-05

> <r_epik_Ionization_Penalty>
1.3546

> <r_epik_Ionization_Penalty_Charging>
1.46833e-10

> <r_epik_Ionization_Penalty_Neutral>
1.3546

> <r_epik_State_Penalty>
3.51908

> <r_epik_Charging_Adjusted_Penalty>
3.51908

> <i_epik_Tot_Q>
0

> <i_epik_Tot_abs_Q>
0

> <r_epik_Metal_State_Penalty>
3.44088

> <b_epik_Metal_Only>
1

> <s_epik_Chemistry_Notes>
This compound contains an acetal/aminal-like group ( X-CH(R)-Y where X, Y are N, S, or O) that may be acid/base labile, releasing an aldehyde.

> <s_lp_Force_Field>
OPLS_2005

> <r_lp_Energy>
31.5358

> <b_lp_Chiralities_Consistent>
1

> <s_lp_Variant>
AV-unprocessed.smi:72-88

> <Gold.Version>
5.8.1

> <Gold.Id.Protein>
6NUR|6NUR_protein|mol2

> <Gold.PLP.Fitness>
37.4725

> <Gold.PLP.PLP>
-25.4456

> <Gold.PLP.part.hbond>
-5.0846

> <Gold.PLP.part.metal>
0.0000

> <Gold.PLP.part.buried>
-4.4483

> <Gold.PLP.part.nonpolar>
-16.0960

> <Gold.PLP.part.repulsive>
0.1761

> <Gold.PLP.ligand.clash>
0.0000

> <Gold.PLP.ligand.torsion>
0.1855

> <Gold.PLP.Chemscore.Hbond>
3.0533

> <Gold.PLP.Chemscore.CHOScore>
1.0000

> <Gold.PLP.Chemscore.Metal>
0.0000

> <Gold.Chemscore.Hbonds>
donor molecule, donor type, donor heavy atom, donor atom, acceptor molecule, acceptor atom, score
      L1  H    10    27       P1  8028  0.11
      L1  H    12    28       P1  7957  0.99
      P1  H  7989  7998       L1    14  1.00
      P1  H  8022  8030       L1    10  0.90
      L1  C     4    24       P1  8028  1.00

> <Gold.PLP.Chemscore.Internal.Correction>
0.2382

> <Gold.Rescore>
     Score         DG    S(hbond)    S(metal)    S(lipo)     H(rot)  DE(clash)    DE(int)     intcor
      4.99      -6.08       2.45        0.00      23.98       4.06       0.71       0.39       ----

> <Gold.Chemscore.Fitness>
4.9921

> <Gold.Chemscore.DG>
-6.0840

> <Gold.Chemscore.ZeroCoef>
-5.4800

> <Gold.Chemscore.Hbond>
2.4527

> <Gold.Chemscore.Metal>
0.0000

> <Gold.Chemscore.Lipo>
23.9786

> <Gold.Chemscore.Internal_Hbond>
0.0000

> <Gold.Chemscore.DEClash>
0.7067

> <Gold.Chemscore.DEInternal>
0.3852

> <Gold.Chemscore.Rot>
4.0600

> <Gold.Chemscore.Internal.Correction>
   9.000000E+99

> <Gold.Chemscore.Hbonds>
donor molecule, donor type, donor heavy atom, donor atom, acceptor molecule, acceptor atom, score
      L1  H    10    27       P1  8028  0.13
      L1  H    12    28       P1  7957  0.92
      P1  H  7989  7998       L1    14  0.46
      P1  H  8022  8030       L1    10  0.17

> <Gold.Chemscore.Hbond.Weighted>
-8.1921

> <Gold.Chemscore.Metal.Weighted>
-0.0000

> <Gold.Chemscore.Lipo.Weighted>
-2.8055

> <Gold.Chemscore.Internal_Hbond.Weighted>
0.0000

> <Gold.Chemscore.DEClash.Weighted>
0.7067

> <Gold.Chemscore.DEInternal.Weighted>
0.3852

> <Gold.Chemscore.Rot.Weighted>
10.3936

> <Gold.Chemscore.Internal.Correction.Weighted>
   9.000000E+99

> <Gold.Protein.RotatedTorsions>
[ 6907 6896 6895 6894 ] final   40.08 input  -60.11 | X-H torsion
[ 7974 7965 7964 7962 ] final  -32.18 input  175.53 | X-H torsion
[ 8008 7997 7996 7995 ] final   32.13 input   59.86 | X-H torsion
[ 10167 10162 10161 10158 ] final   28.99 input  -65.29 | X-H torsion
[ 10718 10713 10712 10709 ] final  -67.56 input   66.30 | X-H torsion
[ 10763 10752 10751 10750 ] final  128.90 input  -60.55 | X-H torsion
[ 11005 11000 10999 10996 ] final  113.75 input  -57.11 | X-H torsion

> <Gold.Protein.ActiveResidues>
 VAL166  LYS551  ARG553  GLY616  TRP617  ASP618  TYR619  PRO620  LYS621  CYS622 
 ASP623  PHE694  ASN695  SER759  ASP760  ASP761  ALA762  ILE779  LEU786  VAL792 
 PHE793  MET794  SER795  GLU796  ALA797  LYS798  CYS799  TRP800  GLU811  SER814 

> <Gold.Protein.RotatedAtoms>
  152.1778  134.8780  160.0528 H   0  0  0  0  0  0  0  0  0  0  0  0  # atno 6907 bound_to 6896
  151.9715  133.3722  159.4081 H   0  0  0  0  0  0  0  0  0  0  0  0  # atno 6908 bound_to 6896
  150.6912  134.4058  159.5183 H   0  0  0  0  0  0  0  0  0  0  0  0  # atno 6909 bound_to 6896
  146.1010  140.5760  142.8821 H   0  0  0  0  0  0  0  0  0  0  0  0  # atno 7974 bound_to 7965
  155.1175  140.3245  155.4505 H   0  0  0  0  0  0  0  0  0  0  0  0  # atno 8008 bound_to 7997
  156.2672  140.2033  156.6246 H   0  0  0  0  0  0  0  0  0  0  0  0  # atno 8009 bound_to 7997
  154.6709  140.0536  157.0151 H   0  0  0  0  0  0  0  0  0  0  0  0  # atno 8010 bound_to 7997
  140.4805  144.0623  150.6264 H   0  0  0  0  0  0  0  0  0  0  0  0  # atno 10167 bound_to 10162
  156.0551  130.4280  150.1872 H   0  0  0  0  0  0  0  0  0  0  0  0  # atno 10718 bound_to 10713
  153.7331  135.3235  155.3289 H   0  0  0  0  0  0  0  0  0  0  0  0  # atno 10763 bound_to 10752
  154.8319  135.4527  154.1102 H   0  0  0  0  0  0  0  0  0  0  0  0  # atno 10764 bound_to 10752
  153.2255  135.6953  153.8031 H   0  0  0  0  0  0  0  0  0  0  0  0  # atno 10765 bound_to 10752
  139.8961  134.9555  156.6786 H   0  0  0  0  0  0  0  0  0  0  0  0  # atno 11005 bound_to 11000
  144.7432  140.4999  143.6854 LP  0  0  0  0  0  0  0  0  0  0  0  0  # atno 17320 bound_to 7965
  145.5855  139.1492  143.3211 LP  0  0  0  0  0  0  0  0  0  0  0  0  # atno 17321 bound_to 7965
  140.3864  143.2775  152.0111 LP  0  0  0  0  0  0  0  0  0  0  0  0  # atno 17342 bound_to 10162
  139.4832  144.6113  151.7428 LP  0  0  0  0  0  0  0  0  0  0  0  0  # atno 17343 bound_to 10162
  156.9950  130.9905  151.3405 LP  0  0  0  0  0  0  0  0  0  0  0  0  # atno 17370 bound_to 10713
  157.5513  130.8184  149.8149 LP  0  0  0  0  0  0  0  0  0  0  0  0  # atno 17371 bound_to 10713
  140.7317  133.9053  155.8216 LP  0  0  0  0  0  0  0  0  0  0  0  0  # atno 17394 bound_to 11000
  141.0148  134.0971  157.4184 LP  0  0  0  0  0  0  0  0  0  0  0  0  # atno 17395 bound_to 11000

$$$$
