AV-unprocessed.smi:85|AV-procd|sdf|810|dock8
  -GOLD-   2262017203D 1   1.00000     0.00000
 Structure written by MMmdl.
 62 65  0  0  0  0  0  0  0  0  1 V2000
  153.0555  137.7516  158.3822 C   0  0  0  0  0  0  0  0  0  0  0  0
  152.1088  138.1905  159.5120 C   0  0  0  0  0  0  0  0  0  0  0  0
  150.7424  138.4610  159.0596 N   0  0  0  0  0  0  0  0  0  0  0  0
  150.0458  137.3787  158.6318 C   0  0  0  0  0  0  0  0  0  0  0  0
  150.4228  136.8276  157.4508 N   0  0  0  0  0  0  0  0  0  0  0  0
  149.7774  135.7606  156.9722 C   0  0  0  0  0  0  0  0  0  0  0  0
  148.7488  135.0989  157.5055 N   0  0  0  0  0  0  0  0  0  0  0  0
  148.3639  135.6510  158.6919 C   0  0  0  0  0  0  0  0  0  0  0  0
  148.9436  136.7908  159.3173 C   0  0  0  0  0  0  0  0  0  0  0  0
  148.2745  137.0687  160.5035 N   0  0  0  0  0  0  0  0  0  0  0  0
  147.3610  136.1410  160.5800 C   0  0  0  0  0  0  0  0  0  0  0  0
  147.3567  135.2331  159.5450 N   0  0  0  0  0  0  0  0  0  0  0  0
  146.4580  134.0980  159.3901 C   0  0  0  0  0  0  0  0  0  0  0  0
  146.6300  132.9760  160.4579 C   0  0  0  0  0  0  0  0  0  0  0  0
  146.5410  133.5583  161.8980 C   0  0  0  0  0  0  0  0  0  0  0  0
  145.2877  134.1594  162.1556 O   0  0  0  0  0  0  0  0  0  0  0  0
  145.5390  131.9029  160.2156 C   0  0  0  0  0  0  0  0  0  0  0  0
  145.7802  130.6096  161.0140 C   0  0  0  0  0  0  0  0  0  0  0  0
  147.0614  130.0800  160.7000 O   0  0  0  0  0  0  0  0  0  0  0  0
  148.1220  130.9582  161.0526 C   0  0  0  0  0  0  0  0  0  0  0  0
  148.0008  132.2780  160.2687 C   0  0  0  0  0  0  0  0  0  0  0  0
  150.5324  139.7106  158.3119 C   0  0  2  0  0  0  0  0  0  0  0  0
  150.9906  139.6505  156.8438 C   0  0  0  0  0  0  0  0  0  0  0  0
  150.6606  140.9699  156.1336 C   0  0  0  0  0  0  0  0  0  0  0  0
  151.2711  142.0662  156.8132 O   0  0  0  0  0  0  0  0  0  0  0  0
  150.9033  142.2489  158.1848 C   0  0  0  0  0  0  0  0  0  0  0  0
  151.8237  143.3671  158.7017 C   0  0  0  0  0  0  0  0  0  0  0  0
  149.4359  142.7145  158.3020 C   0  0  0  0  0  0  0  0  0  0  0  0
  151.1759  140.9462  158.9741 C   0  0  0  0  0  0  0  0  0  0  0  0
  154.0361  137.4942  158.7826 H   0  0  0  0  0  0  0  0  0  0  0  0
  153.2031  138.5397  157.6435 H   0  0  0  0  0  0  0  0  0  0  0  0
  152.6676  136.8734  157.8658 H   0  0  0  0  0  0  0  0  0  0  0  0
  152.0714  137.3979  160.2599 H   0  0  0  0  0  0  0  0  0  0  0  0
  152.5181  139.0630  160.0196 H   0  0  0  0  0  0  0  0  0  0  0  0
  150.1390  135.3803  156.0282 H   0  0  0  0  0  0  0  0  0  0  0  0
  146.6670  136.0864  161.4060 H   0  0  0  0  0  0  0  0  0  0  0  0
  145.4362  134.4792  159.4078 H   0  0  0  0  0  0  0  0  0  0  0  0
  146.6006  133.6922  158.3876 H   0  0  0  0  0  0  0  0  0  0  0  0
  146.6962  132.7904  162.6537 H   0  0  0  0  0  0  0  0  0  0  0  0
  147.3212  134.3006  162.0670 H   0  0  0  0  0  0  0  0  0  0  0  0
  144.6649  133.4782  162.3586 H   0  0  0  0  0  0  0  0  0  0  0  0
  144.5489  132.2989  160.4433 H   0  0  0  0  0  0  0  0  0  0  0  0
  145.5171  131.6432  159.1564 H   0  0  0  0  0  0  0  0  0  0  0  0
  145.6912  130.7764  162.0878 H   0  0  0  0  0  0  0  0  0  0  0  0
  145.0254  129.8680  160.7521 H   0  0  0  0  0  0  0  0  0  0  0  0
  148.1292  131.1283  162.1295 H   0  0  0  0  0  0  0  0  0  0  0  0
  149.0676  130.4724  160.8108 H   0  0  0  0  0  0  0  0  0  0  0  0
  148.1503  132.0539  159.2117 H   0  0  0  0  0  0  0  0  0  0  0  0
  148.8147  132.9439  160.5564 H   0  0  0  0  0  0  0  0  0  0  0  0
  149.4528  139.8601  158.2993 H   0  0  0  0  0  0  0  0  0  0  0  0
  152.0663  139.4818  156.7807 H   0  0  0  0  0  0  0  0  0  0  0  0
  150.5074  138.8200  156.3280 H   0  0  0  0  0  0  0  0  0  0  0  0
  151.0413  140.9443  155.1125 H   0  0  0  0  0  0  0  0  0  0  0  0
  149.5829  141.1120  156.0545 H   0  0  0  0  0  0  0  0  0  0  0  0
  151.6392  143.5778  159.7557 H   0  0  0  0  0  0  0  0  0  0  0  0
  151.6703  144.2933  158.1471 H   0  0  0  0  0  0  0  0  0  0  0  0
  152.8749  143.0954  158.5979 H   0  0  0  0  0  0  0  0  0  0  0  0
  149.1822  142.9437  159.3374 H   0  0  0  0  0  0  0  0  0  0  0  0
  148.7251  141.9643  157.9594 H   0  0  0  0  0  0  0  0  0  0  0  0
  149.2639  143.6173  157.7154 H   0  0  0  0  0  0  0  0  0  0  0  0
  150.8302  141.0581  160.0022 H   0  0  0  0  0  0  0  0  0  0  0  0
  152.2542  140.7971  159.0270 H   0  0  0  0  0  0  0  0  0  0  0  0
  1  2  1  0  0  0  0
  1 30  1  0  0  0  0
  1 31  1  0  0  0  0
  1 32  1  0  0  0  0
  2  3  1  0  0  0  0
  2 33  1  0  0  0  0
  2 34  1  0  0  0  0
  3  4  1  0  0  0  0
  3 22  1  0  0  0  0
  4  9  1  0  0  0  0
  4  5  2  0  0  0  0
  5  6  1  0  0  0  0
  6  7  2  0  0  0  0
  6 35  1  0  0  0  0
  7  8  1  0  0  0  0
  8 12  1  0  0  0  0
  8  9  2  0  0  0  0
  9 10  1  0  0  0  0
 10 11  2  0  0  0  0
 11 12  1  0  0  0  0
 11 36  1  0  0  0  0
 12 13  1  0  0  0  0
 13 14  1  0  0  0  0
 13 37  1  0  0  0  0
 13 38  1  0  0  0  0
 14 21  1  0  0  0  0
 14 15  1  0  0  0  0
 14 17  1  0  0  0  0
 15 16  1  0  0  0  0
 15 39  1  0  0  0  0
 15 40  1  0  0  0  0
 16 41  1  0  0  0  0
 17 18  1  0  0  0  0
 17 42  1  0  0  0  0
 17 43  1  0  0  0  0
 18 19  1  0  0  0  0
 18 44  1  0  0  0  0
 18 45  1  0  0  0  0
 19 20  1  0  0  0  0
 20 21  1  0  0  0  0
 20 46  1  0  0  0  0
 20 47  1  0  0  0  0
 21 48  1  0  0  0  0
 21 49  1  0  0  0  0
 22 29  1  0  0  0  0
 22 23  1  0  0  0  0
 22 50  1  0  0  0  0
 23 24  1  0  0  0  0
 23 51  1  0  0  0  0
 23 52  1  0  0  0  0
 24 25  1  0  0  0  0
 24 53  1  0  0  0  0
 24 54  1  0  0  0  0
 25 26  1  0  0  0  0
 26 27  1  0  0  0  0
 26 28  1  0  0  0  0
 26 29  1  0  0  0  0
 27 55  1  0  0  0  0
 27 56  1  0  0  0  0
 27 57  1  0  0  0  0
 28 58  1  0  0  0  0
 28 59  1  0  0  0  0
 28 60  1  0  0  0  0
 29 61  1  0  0  0  0
 29 62  1  0  0  0  0
M  END
> <s_m_source_file>
AV-unprocessed.smi

> <i_m_source_file_index>
85

> <i_lp_mmshare_version>
43012

> <i_f3d_flags>
0

> <s_epik_input>
W0NIM11DMShbQ0gzXSlPW0NIMl1bQ0gyXVtDQEhdKFtDSDJdMSlOKFtDSDJdW0NIM10pYyhuW2NIXW4yKWMoYzIzKW5bY0hdbjNbQ0gyXUM0KFtDSDJdW09IXSlbQ0gyXVtDSDJdT1tDSDJdW0NIMl00

> <s_epik_cmdline>
J2VwaWtfcHl0aG9uJywgJy1waCcsICc3LjAnLCAnLXRuJywgJzgnLCAnLW1hJywgJzIwMCcsICctbWV0YWxfYmluZGluZycsICctaW1hZScsICc8aW5maWxlLm1hZT4nLCAnLW9tYWUnLCAnPG91dGZpbGUubWFlPic=

> <r_lp_tautomer_probability>
1

> <r_epik_Ionization_Penalty>
0.00336056

> <r_epik_Ionization_Penalty_Charging>
0

> <r_epik_Ionization_Penalty_Neutral>
0.00336056

> <r_epik_State_Penalty>
0.00222191

> <r_epik_Charging_Adjusted_Penalty>
0.00222191

> <i_epik_Tot_Q>
0

> <i_epik_Tot_abs_Q>
0

> <r_epik_Metal_State_Penalty>
-0

> <b_epik_Metal_Only>
0

> <s_lp_Force_Field>
OPLS_2005

> <r_lp_Energy>
35.7443

> <b_lp_Chiralities_Consistent>
1

> <s_lp_Variant>
AV-unprocessed.smi:85-1

> <Gold.Version>
5.8.1

> <Gold.Id.Protein>
6NUR|6NUR_protein|mol2

> <Gold.PLP.Fitness>
42.2808

> <Gold.PLP.PLP>
-39.1072

> <Gold.PLP.part.hbond>
-2.2726

> <Gold.PLP.part.metal>
0.0000

> <Gold.PLP.part.buried>
-5.1079

> <Gold.PLP.part.nonpolar>
-31.4321

> <Gold.PLP.part.repulsive>
0.0692

> <Gold.PLP.ligand.clash>
0.0000

> <Gold.PLP.ligand.torsion>
0.4925

> <Gold.PLP.Chemscore.Hbond>
1.1085

> <Gold.PLP.Chemscore.CHOScore>
0.0000

> <Gold.PLP.Chemscore.Metal>
0.0000

> <Gold.Chemscore.Hbonds>
donor molecule, donor type, donor heavy atom, donor atom, acceptor molecule, acceptor atom, score
      P1  H  6931  6943       L1    10  0.80
      P1  H  6934  6947       L1    10  0.27

> <Gold.PLP.Chemscore.Internal.Correction>
0.8332

> <Gold.Rescore>
     Score         DG    S(hbond)    S(metal)    S(lipo)     H(rot)  DE(clash)    DE(int)     intcor
     11.15     -13.06       1.02        0.00      93.46       2.65       0.12       1.79       ----

> <Gold.Chemscore.Fitness>
11.1545

> <Gold.Chemscore.DG>
-13.0600

> <Gold.Chemscore.ZeroCoef>
-5.4800

> <Gold.Chemscore.Hbond>
1.0245

> <Gold.Chemscore.Metal>
0.0000

> <Gold.Chemscore.Lipo>
93.4567

> <Gold.Chemscore.Internal_Hbond>
0.0000

> <Gold.Chemscore.DEClash>
0.1151

> <Gold.Chemscore.DEInternal>
1.7904

> <Gold.Chemscore.Rot>
2.6469

> <Gold.Chemscore.Internal.Correction>
   9.000000E+99

> <Gold.Chemscore.Hbonds>
donor molecule, donor type, donor heavy atom, donor atom, acceptor molecule, acceptor atom, score
      P1  H  6931  6943       L1    10  0.77
      P1  H  6934  6947       L1    10  0.14

> <Gold.Chemscore.Hbond.Weighted>
-3.4217

> <Gold.Chemscore.Metal.Weighted>
-0.0000

> <Gold.Chemscore.Lipo.Weighted>
-10.9344

> <Gold.Chemscore.Internal_Hbond.Weighted>
0.0000

> <Gold.Chemscore.DEClash.Weighted>
0.1151

> <Gold.Chemscore.DEInternal.Weighted>
1.7904

> <Gold.Chemscore.Rot.Weighted>
6.7761

> <Gold.Chemscore.Internal.Correction.Weighted>
   9.000000E+99

> <Gold.Protein.RotatedTorsions>
[ 6907 6896 6895 6894 ] final  107.22 input  -60.11 | X-H torsion
[ 7974 7965 7964 7962 ] final  105.31 input  175.53 | X-H torsion
[ 8008 7997 7996 7995 ] final  118.44 input   59.86 | X-H torsion
[ 10167 10162 10161 10158 ] final  -97.35 input  -65.29 | X-H torsion
[ 10718 10713 10712 10709 ] final   14.99 input   66.30 | X-H torsion
[ 10763 10752 10751 10750 ] final  -88.51 input  -60.55 | X-H torsion
[ 11005 11000 10999 10996 ] final  -94.61 input  -57.11 | X-H torsion

> <Gold.Protein.ActiveResidues>
 VAL166  LYS551  ARG553  GLY616  TRP617  ASP618  TYR619  PRO620  LYS621  CYS622 
 ASP623  PHE694  ASN695  SER759  ASP760  ASP761  ALA762  ILE779  LEU786  VAL792 
 PHE793  MET794  SER795  GLU796  ALA797  LYS798  CYS799  TRP800  GLU811  SER814 

> <Gold.Protein.RotatedAtoms>
  152.5163  133.9267  159.7560 H   0  0  0  0  0  0  0  0  0  0  0  0  # atno 6907 bound_to 6896
  150.9626  133.6420  159.2758 H   0  0  0  0  0  0  0  0  0  0  0  0  # atno 6908 bound_to 6896
  151.3659  135.0918  159.9502 H   0  0  0  0  0  0  0  0  0  0  0  0  # atno 6909 bound_to 6896
  145.3213  139.2512  143.3710 H   0  0  0  0  0  0  0  0  0  0  0  0  # atno 7974 bound_to 7965
  156.2546  140.2874  156.0835 H   0  0  0  0  0  0  0  0  0  0  0  0  # atno 8008 bound_to 7997
  155.1540  140.0398  157.2845 H   0  0  0  0  0  0  0  0  0  0  0  0  # atno 8009 bound_to 7997
  154.6440  140.2529  155.7296 H   0  0  0  0  0  0  0  0  0  0  0  0  # atno 8010 bound_to 7997
  140.2843  143.3262  152.0410 H   0  0  0  0  0  0  0  0  0  0  0  0  # atno 10167 bound_to 10162
  157.0470  130.6254  149.5761 H   0  0  0  0  0  0  0  0  0  0  0  0  # atno 10718 bound_to 10713
  154.6454  135.5374  153.7838 H   0  0  0  0  0  0  0  0  0  0  0  0  # atno 10763 bound_to 10752
  153.0356  135.6469  154.1098 H   0  0  0  0  0  0  0  0  0  0  0  0  # atno 10764 bound_to 10752
  154.1019  135.2932  155.3229 H   0  0  0  0  0  0  0  0  0  0  0  0  # atno 10765 bound_to 10752
  141.1465  133.7968  157.0322 H   0  0  0  0  0  0  0  0  0  0  0  0  # atno 11005 bound_to 11000
  146.3081  140.3771  142.8680 LP  0  0  0  0  0  0  0  0  0  0  0  0  # atno 17320 bound_to 7965
  144.8937  140.7556  143.5910 LP  0  0  0  0  0  0  0  0  0  0  0  0  # atno 17321 bound_to 7965
  139.4954  144.6570  151.6551 LP  0  0  0  0  0  0  0  0  0  0  0  0  # atno 17342 bound_to 10162
  140.5786  143.9986  150.6255 LP  0  0  0  0  0  0  0  0  0  0  0  0  # atno 17343 bound_to 10162
  156.0020  130.5100  150.7696 LP  0  0  0  0  0  0  0  0  0  0  0  0  # atno 17370 bound_to 10713
  157.5060  131.0922  151.0257 LP  0  0  0  0  0  0  0  0  0  0  0  0  # atno 17371 bound_to 10713
  140.0747  134.9682  157.1525 LP  0  0  0  0  0  0  0  0  0  0  0  0  # atno 17394 bound_to 11000
  140.3661  134.2441  155.7182 LP  0  0  0  0  0  0  0  0  0  0  0  0  # atno 17395 bound_to 11000

$$$$
