AV-unprocessed.smi:3303|AV-procd|sdf|12683|dock8
  -GOLD-   2272019 23D 1   1.00000     0.00000
 Structure written by MMmdl.
 44 45  0  0  0  0  0  0  0  0  2 V2000
  145.9645  142.9531  158.0516 C   0  0  0  0  0  0  0  0  0  0  0  0
  146.4052  142.7227  156.5953 C   0  0  2  0  0  0  0  0  0  0  0  0
  145.1960  142.2626  155.7488 C   0  0  0  0  0  0  0  0  0  0  0  0
  145.5596  141.9814  154.3363 N   0  3  1  0  0  0  0  0  0  0  0  0
  145.7943  143.2149  153.5435 C   0  0  0  0  0  0  0  0  0  0  0  0
  146.6280  140.9456  154.2454 C   0  0  1  0  0  0  0  0  0  0  0  0
  146.9438  140.5354  152.7966 C   0  0  0  0  0  0  0  0  0  0  0  0
  147.8870  141.3740  155.0239 C   0  0  0  0  0  0  0  0  0  0  0  0
  147.5606  141.6981  156.4944 C   0  0  1  0  0  0  0  0  0  0  0  0
  148.7633  142.2574  157.0998 N   0  0  0  0  0  0  0  0  0  0  0  0
  149.8985  141.3597  156.9529 C   0  0  0  0  0  0  0  0  0  0  0  0
  151.1854  142.1799  156.7907 C   0  0  0  0  0  0  0  0  0  0  0  0
  151.7739  142.5944  158.1260 C   0  0  0  0  0  0  0  0  0  0  0  0
  151.8451  143.9557  158.4910 C   0  0  0  0  0  0  0  0  0  0  0  0
  152.4011  144.2869  159.7418 C   0  0  0  0  0  0  0  0  0  0  0  0
  152.8641  143.2500  160.5744 C   0  0  0  0  0  0  0  0  0  0  0  0
  152.7491  141.9219  160.1174 C   0  0  0  0  0  0  0  0  0  0  0  0
  152.2167  141.5935  158.9203 N   0  0  0  0  0  0  0  0  0  0  0  0
  145.6275  142.0254  158.5151 H   0  0  0  0  0  0  0  0  0  0  0  0
  145.1430  143.6683  158.1041 H   0  0  0  0  0  0  0  0  0  0  0  0
  146.7776  143.3512  158.6590 H   0  0  0  0  0  0  0  0  0  0  0  0
  146.7518  143.6795  156.2020 H   0  0  0  0  0  0  0  0  0  0  0  0
  144.7735  141.3533  156.1792 H   0  0  0  0  0  0  0  0  0  0  0  0
  144.4008  143.0085  155.7811 H   0  0  0  0  0  0  0  0  0  0  0  0
  146.7109  143.7251  153.8389 H   0  0  0  0  0  0  0  0  0  0  0  0
  144.9675  143.9136  153.6740 H   0  0  0  0  0  0  0  0  0  0  0  0
  145.8544  142.9959  152.4779 H   0  0  0  0  0  0  0  0  0  0  0  0
  146.2290  140.0555  154.7351 H   0  0  0  0  0  0  0  0  0  0  0  0
  147.6091  139.6717  152.7780 H   0  0  0  0  0  0  0  0  0  0  0  0
  147.4396  141.3334  152.2437 H   0  0  0  0  0  0  0  0  0  0  0  0
  146.0368  140.2613  152.2567 H   0  0  0  0  0  0  0  0  0  0  0  0
  148.6295  140.5755  154.9847 H   0  0  0  0  0  0  0  0  0  0  0  0
  148.3470  142.2361  154.5387 H   0  0  0  0  0  0  0  0  0  0  0  0
  147.2601  140.7769  156.9975 H   0  0  0  0  0  0  0  0  0  0  0  0
  148.9793  143.1504  156.6799 H   0  0  0  0  0  0  0  0  0  0  0  0
  149.9731  140.7168  157.8311 H   0  0  0  0  0  0  0  0  0  0  0  0
  149.7487  140.7171  156.0844 H   0  0  0  0  0  0  0  0  0  0  0  0
  151.9285  141.6058  156.2353 H   0  0  0  0  0  0  0  0  0  0  0  0
  150.9873  143.0766  156.2012 H   0  0  0  0  0  0  0  0  0  0  0  0
  151.4825  144.7296  157.8303 H   0  0  0  0  0  0  0  0  0  0  0  0
  152.4709  145.3175  160.0568 H   0  0  0  0  0  0  0  0  0  0  0  0
  153.2967  143.4672  161.5398 H   0  0  0  0  0  0  0  0  0  0  0  0
  153.0936  141.1016  160.7296 H   0  0  0  0  0  0  0  0  0  0  0  0
  144.7369  141.5629  153.9258 H   0  0  0  0  0  0  0  0  0  0  0  0
  1  2  1  0  0  0  0
  1 19  1  0  0  0  0
  1 20  1  0  0  0  0
  1 21  1  0  0  0  0
  2  9  1  0  0  0  0
  2  3  1  0  0  0  0
  2 22  1  0  0  0  0
  3  4  1  0  0  0  0
  3 23  1  0  0  0  0
  3 24  1  0  0  0  0
  4  5  1  0  0  0  0
  4  6  1  0  0  0  0
  4 44  1  0  0  0  0
  5 25  1  0  0  0  0
  5 26  1  0  0  0  0
  5 27  1  0  0  0  0
  6  7  1  0  0  0  0
  6  8  1  0  0  0  0
  6 28  1  0  0  0  0
  7 29  1  0  0  0  0
  7 30  1  0  0  0  0
  7 31  1  0  0  0  0
  8  9  1  0  0  0  0
  8 32  1  0  0  0  0
  8 33  1  0  0  0  0
  9 10  1  0  0  0  0
  9 34  1  0  0  0  0
 10 11  1  0  0  0  0
 10 35  1  0  0  0  0
 11 12  1  0  0  0  0
 11 36  1  0  0  0  0
 11 37  1  0  0  0  0
 12 13  1  0  0  0  0
 12 38  1  0  0  0  0
 12 39  1  0  0  0  0
 13 18  1  0  0  0  0
 13 14  2  0  0  0  0
 14 15  1  0  0  0  0
 14 40  1  0  0  0  0
 15 16  2  0  0  0  0
 15 41  1  0  0  0  0
 16 17  1  0  0  0  0
 16 42  1  0  0  0  0
 17 18  2  0  0  0  0
 17 43  1  0  0  0  0
M  CHG  1   4   1
M  END
> <s_m_source_file>
AV-unprocessed.smi

> <i_m_source_file_index>
3303

> <i_lp_mmshare_version>
43012

> <i_f3d_flags>
0

> <s_epik_input>
W0NIM11bQ0BASF0xW0NIMl1OKFtDSDNdKVtDQEBIXShbQ0gzXSlbQ0gyXVtDQEhdMVtOSF1bQ0gyXVtDSDJdYzJbY0hdW2NIXVtjSF1bY0hdbjI=

> <s_epik_cmdline>
J2VwaWtfcHl0aG9uJywgJy1waCcsICc3LjAnLCAnLXRuJywgJzgnLCAnLW1hJywgJzIwMCcsICctbWV0YWxfYmluZGluZycsICctaW1hZScsICc8aW5maWxlLm1hZT4nLCAnLW9tYWUnLCAnPG91dGZpbGUubWFlPic=

> <r_epik_Ionization_Penalty>
2.31085

> <r_epik_Ionization_Penalty_Charging>
0.000313057

> <r_epik_Ionization_Penalty_Neutral>
2.31054

> <r_epik_State_Penalty>
2.4087

> <r_epik_Charging_Adjusted_Penalty>
2.40902

> <i_epik_Tot_Q>
1

> <i_epik_Tot_abs_Q>
1

> <r_epik_Metal_State_Penalty>
2.30979

> <b_epik_Metal_Only>
0

> <s_lp_Force_Field>
OPLS_2005

> <r_lp_Energy>
25.8109

> <b_lp_Chiralities_Consistent>
1

> <s_lp_Variant>
AV-unprocessed.smi:3303-27

> <Gold.Version>
5.8.1

> <Gold.Id.Protein>
6NUR|6NUR_protein|mol2

> <Gold.PLP.Fitness>
45.8911

> <Gold.PLP.PLP>
-37.7119

> <Gold.PLP.part.hbond>
-2.0000

> <Gold.PLP.part.metal>
0.0000

> <Gold.PLP.part.buried>
-5.3620

> <Gold.PLP.part.nonpolar>
-31.6230

> <Gold.PLP.part.repulsive>
0.0062

> <Gold.PLP.ligand.clash>
0.0000

> <Gold.PLP.ligand.torsion>
0.3904

> <Gold.PLP.Chemscore.Hbond>
2.9825

> <Gold.PLP.Chemscore.CHOScore>
0.0000

> <Gold.PLP.Chemscore.Metal>
0.0000

> <Gold.Chemscore.Hbonds>
donor molecule, donor type, donor heavy atom, donor atom, acceptor molecule, acceptor atom, score
      L1  H     4    44       P1 10175  1.64
      L1  H    10    35       P1  8028  1.00

> <Gold.PLP.Chemscore.Internal.Correction>
0.0124

> <Gold.Rescore>
     Score         DG    S(hbond)    S(metal)    S(lipo)     H(rot)  DE(clash)    DE(int)     intcor
     19.76     -20.20       1.72        0.00     105.67       1.33       0.09       0.35       ----

> <Gold.Chemscore.Fitness>
19.7639

> <Gold.Chemscore.DG>
-20.1977

> <Gold.Chemscore.ZeroCoef>
-5.4800

> <Gold.Chemscore.Hbond>
1.7220

> <Gold.Chemscore.Metal>
0.0000

> <Gold.Chemscore.Lipo>
105.6734

> <Gold.Chemscore.Internal_Hbond>
0.0000

> <Gold.Chemscore.DEClash>
0.0876

> <Gold.Chemscore.DEInternal>
0.3463

> <Gold.Chemscore.Rot>
1.3272

> <Gold.Chemscore.Internal.Correction>
   9.000000E+99

> <Gold.Chemscore.Hbonds>
donor molecule, donor type, donor heavy atom, donor atom, acceptor molecule, acceptor atom, score
      L1  H     4    44       P1 10175  0.15
      L1  H    10    35       P1  8028  0.96

> <Gold.Chemscore.Hbond.Weighted>
-5.7516

> <Gold.Chemscore.Metal.Weighted>
-0.0000

> <Gold.Chemscore.Lipo.Weighted>
-12.3638

> <Gold.Chemscore.Internal_Hbond.Weighted>
0.0000

> <Gold.Chemscore.DEClash.Weighted>
0.0876

> <Gold.Chemscore.DEInternal.Weighted>
0.3463

> <Gold.Chemscore.Rot.Weighted>
3.3976

> <Gold.Chemscore.Internal.Correction.Weighted>
   9.000000E+99

> <Gold.Protein.RotatedTorsions>
[ 6907 6896 6895 6894 ] final   65.20 input  -60.11 | X-H torsion
[ 7974 7965 7964 7962 ] final  -21.14 input  175.53 | X-H torsion
[ 8008 7997 7996 7995 ] final    4.42 input   59.86 | X-H torsion
[ 10167 10162 10161 10158 ] final -110.35 input  -65.29 | X-H torsion
[ 10718 10713 10712 10709 ] final   14.92 input   66.30 | X-H torsion
[ 10763 10752 10751 10750 ] final   88.08 input  -60.55 | X-H torsion
[ 11005 11000 10999 10996 ] final -139.56 input  -57.11 | X-H torsion

> <Gold.Protein.ActiveResidues>
 VAL166  LYS551  ARG553  GLY616  TRP617  ASP618  TYR619  PRO620  LYS621  CYS622 
 ASP623  PHE694  ASN695  SER759  ASP760  ASP761  ALA762  ILE779  LEU786  VAL792 
 PHE793  MET794  SER795  GLU796  ALA797  LYS798  CYS799  TRP800  GLU811  SER814 

> <Gold.Protein.RotatedAtoms>
  152.4390  134.5629  159.9899 H   0  0  0  0  0  0  0  0  0  0  0  0  # atno 6907 bound_to 6896
  151.5732  133.3381  159.3001 H   0  0  0  0  0  0  0  0  0  0  0  0  # atno 6908 bound_to 6896
  150.8292  134.7572  159.6903 H   0  0  0  0  0  0  0  0  0  0  0  0  # atno 6909 bound_to 6896
  146.1749  140.4300  142.8517 H   0  0  0  0  0  0  0  0  0  0  0  0  # atno 7974 bound_to 7965
  154.7157  140.2701  155.6587 H   0  0  0  0  0  0  0  0  0  0  0  0  # atno 8008 bound_to 7997
  156.2809  140.2744  156.1737 H   0  0  0  0  0  0  0  0  0  0  0  0  # atno 8009 bound_to 7997
  155.0574  140.0371  157.2555 H   0  0  0  0  0  0  0  0  0  0  0  0  # atno 8010 bound_to 7997
  140.1454  143.4244  152.1533 H   0  0  0  0  0  0  0  0  0  0  0  0  # atno 10167 bound_to 10162
  157.0461  130.6251  149.5759 H   0  0  0  0  0  0  0  0  0  0  0  0  # atno 10718 bound_to 10713
  153.1732  135.4520  154.9931 H   0  0  0  0  0  0  0  0  0  0  0  0  # atno 10763 bound_to 10752
  154.7980  135.3245  154.7621 H   0  0  0  0  0  0  0  0  0  0  0  0  # atno 10764 bound_to 10752
  153.8095  135.6956  153.4898 H   0  0  0  0  0  0  0  0  0  0  0  0  # atno 10765 bound_to 10752
  140.8508  134.2288  157.4761 H   0  0  0  0  0  0  0  0  0  0  0  0  # atno 11005 bound_to 11000
  144.8221  140.6567  143.6346 LP  0  0  0  0  0  0  0  0  0  0  0  0  # atno 17320 bound_to 7965
  145.4239  139.1559  143.4059 LP  0  0  0  0  0  0  0  0  0  0  0  0  # atno 17321 bound_to 7965
  139.5452  144.7292  151.4607 LP  0  0  0  0  0  0  0  0  0  0  0  0  # atno 17342 bound_to 10162
  140.6735  143.8241  150.7029 LP  0  0  0  0  0  0  0  0  0  0  0  0  # atno 17343 bound_to 10162
  156.0022  130.5103  150.7705 LP  0  0  0  0  0  0  0  0  0  0  0  0  # atno 17370 bound_to 10713
  157.5067  131.0922  151.0249 LP  0  0  0  0  0  0  0  0  0  0  0  0  # atno 17371 bound_to 10713
  139.8704  134.9682  156.4624 LP  0  0  0  0  0  0  0  0  0  0  0  0  # atno 17394 bound_to 11000
  140.8792  133.7930  155.9448 LP  0  0  0  0  0  0  0  0  0  0  0  0  # atno 17395 bound_to 11000

$$$$
