AV-unprocessed.smi:3354|AV-procd|sdf|12957|dock3
  -GOLD-   2272019393D 1   1.00000     0.00000
 Structure written by MMmdl.
 38 40  0  0  0  0  0  0  0  0  1 V2000
  150.2707  139.0497  154.8660 C   0  0  0  0  0  0  0  0  0  0  0  0
  150.0555  140.5338  154.6403 C   0  0  2  0  0  0  0  0  0  0  0  0
  149.1800  141.3377  155.5731 C   0  0  0  0  0  0  0  0  0  0  0  0
  148.7364  141.0929  154.1435 C   0  0  2  0  0  0  0  0  0  0  0  0
  147.6547  140.1976  153.8480 N   0  0  0  0  0  0  0  0  0  0  0  0
  147.5052  139.5659  152.5437 C   0  0  0  0  0  0  0  0  0  0  0  0
  146.2617  138.6666  152.6583 C   0  0  1  0  0  0  0  0  0  0  0  0
  146.5200  137.3419  152.0997 N   0  0  0  0  0  0  0  0  0  0  0  0
  145.5897  136.3940  151.9202 C   0  0  0  0  0  0  0  0  0  0  0  0
  144.4034  136.5462  152.2112 O   0  0  0  0  0  0  0  0  0  0  0  0
  146.1288  135.2733  151.4101 N   0  0  0  0  0  0  0  0  0  0  0  0
  145.4804  134.0548  151.0716 C   0  0  0  0  0  0  0  0  0  0  0  0
  146.1189  132.9611  150.4376 C   0  0  0  0  0  0  0  0  0  0  0  0
  145.3700  131.7991  150.1707 C   0  0  0  0  0  0  0  0  0  0  0  0
  144.0147  131.7691  150.5525 C   0  0  0  0  0  0  0  0  0  0  0  0
  143.3971  132.7983  151.1696 N   0  0  0  0  0  0  0  0  0  0  0  0
  144.1217  133.9090  151.4232 C   0  0  0  0  0  0  0  0  0  0  0  0
  145.9246  138.6173  154.1566 C   0  0  0  0  0  0  0  0  0  0  0  0
  146.8512  139.6530  154.7686 C   0  0  0  0  0  0  0  0  0  0  0  0
  146.8410  139.9237  155.9687 O   0  0  0  0  0  0  0  0  0  0  0  0
  149.3918  138.5868  155.3152 H   0  0  0  0  0  0  0  0  0  0  0  0
  151.1197  138.8936  155.5318 H   0  0  0  0  0  0  0  0  0  0  0  0
  150.4781  138.5550  153.9169 H   0  0  0  0  0  0  0  0  0  0  0  0
  150.9428  141.0403  154.2650 H   0  0  0  0  0  0  0  0  0  0  0  0
  148.6950  140.8004  156.3847 H   0  0  0  0  0  0  0  0  0  0  0  0
  149.5157  142.3411  155.8267 H   0  0  0  0  0  0  0  0  0  0  0  0
  148.8090  141.9590  153.4875 H   0  0  0  0  0  0  0  0  0  0  0  0
  147.3687  140.3051  151.7543 H   0  0  0  0  0  0  0  0  0  0  0  0
  148.4076  138.9943  152.3199 H   0  0  0  0  0  0  0  0  0  0  0  0
  145.4372  139.1395  152.1206 H   0  0  0  0  0  0  0  0  0  0  0  0
  147.4728  137.1326  151.8399 H   0  0  0  0  0  0  0  0  0  0  0  0
  147.1326  135.2725  151.3026 H   0  0  0  0  0  0  0  0  0  0  0  0
  147.1624  132.9826  150.1655 H   0  0  0  0  0  0  0  0  0  0  0  0
  145.8261  130.9477  149.6876 H   0  0  0  0  0  0  0  0  0  0  0  0
  143.4128  130.8928  150.3631 H   0  0  0  0  0  0  0  0  0  0  0  0
  143.5952  134.7106  151.9208 H   0  0  0  0  0  0  0  0  0  0  0  0
  144.8804  138.8673  154.3465 H   0  0  0  0  0  0  0  0  0  0  0  0
  146.1333  137.6425  154.5997 H   0  0  0  0  0  0  0  0  0  0  0  0
  1  2  1  0  0  0  0
  1 21  1  0  0  0  0
  1 22  1  0  0  0  0
  1 23  1  0  0  0  0
  2  4  1  0  0  0  0
  2  3  1  0  0  0  0
  2 24  1  0  0  0  0
  3  4  1  0  0  0  0
  3 25  1  0  0  0  0
  3 26  1  0  0  0  0
  4  5  1  0  0  0  0
  4 27  1  0  0  0  0
  5 19  1  0  0  0  0
  5  6  1  0  0  0  0
  6  7  1  0  0  0  0
  6 28  1  0  0  0  0
  6 29  1  0  0  0  0
  7  8  1  0  0  0  0
  7 18  1  0  0  0  0
  7 30  1  0  0  0  0
  8  9  1  0  0  0  0
  8 31  1  0  0  0  0
  9 10  2  0  0  0  0
  9 11  1  0  0  0  0
 11 12  1  0  0  0  0
 11 32  1  0  0  0  0
 12 17  1  0  0  0  0
 12 13  2  0  0  0  0
 13 14  1  0  0  0  0
 13 33  1  0  0  0  0
 14 15  2  0  0  0  0
 14 34  1  0  0  0  0
 15 16  1  0  0  0  0
 15 35  1  0  0  0  0
 16 17  2  0  0  0  0
 17 36  1  0  0  0  0
 18 19  1  0  0  0  0
 18 37  1  0  0  0  0
 18 38  1  0  0  0  0
 19 20  2  0  0  0  0
M  END
> <s_m_source_file>
AV-unprocessed.smi

> <i_m_source_file_index>
3354

> <i_lp_mmshare_version>
43012

> <i_f3d_flags>
0

> <s_epik_input>
W0NIM11bQ0BASF0xW0NIMl1bQ0BIXTFOMltDSDJdW0NASF0oW0NIMl1DMj1PKVtOSF1DKD1PKVtOSF1jM1tjSF1bY0hdW2NIXW5bY0hdMw==

> <s_epik_cmdline>
J2VwaWtfcHl0aG9uJywgJy1waCcsICc3LjAnLCAnLXRuJywgJzgnLCAnLW1hJywgJzIwMCcsICctbWV0YWxfYmluZGluZycsICctaW1hZScsICc8aW5maWxlLm1hZT4nLCAnLW9tYWUnLCAnPG91dGZpbGUubWFlPic=

> <r_epik_Ionization_Penalty>
0.00456191

> <r_epik_Ionization_Penalty_Charging>
0

> <r_epik_Ionization_Penalty_Neutral>
0.00456191

> <r_epik_State_Penalty>
0.00327094

> <r_epik_Charging_Adjusted_Penalty>
0.00327094

> <i_epik_Tot_Q>
0

> <i_epik_Tot_abs_Q>
0

> <r_epik_Metal_State_Penalty>
-0

> <b_epik_Metal_Only>
0

> <s_lp_Force_Field>
OPLS_2005

> <r_lp_Energy>
41.3899

> <b_lp_Chiralities_Consistent>
1

> <s_lp_Variant>
AV-unprocessed.smi:3354-3

> <Gold.Version>
5.8.1

> <Gold.Id.Protein>
6NUR|6NUR_protein|mol2

> <Gold.PLP.Fitness>
38.3695

> <Gold.PLP.PLP>
-32.2026

> <Gold.PLP.part.hbond>
-2.0000

> <Gold.PLP.part.metal>
0.0000

> <Gold.PLP.part.buried>
1.4017

> <Gold.PLP.part.nonpolar>
-33.1015

> <Gold.PLP.part.repulsive>
1.0048

> <Gold.PLP.ligand.clash>
0.0000

> <Gold.PLP.ligand.torsion>
0.6013

> <Gold.PLP.Chemscore.Hbond>
1.8590

> <Gold.PLP.Chemscore.CHOScore>
0.5072

> <Gold.PLP.Chemscore.Metal>
0.0000

> <Gold.Chemscore.Hbonds>
donor molecule, donor type, donor heavy atom, donor atom, acceptor molecule, acceptor atom, score
      L1  H     8    31       P1  7948  1.00
      L1  H    11    32       P1  7948  0.81
      L1  C    15    35       P1 10952  0.41

> <Gold.PLP.Chemscore.Internal.Correction>
0.2706

> <Gold.Rescore>
     Score         DG    S(hbond)    S(metal)    S(lipo)     H(rot)  DE(clash)    DE(int)     intcor
     14.08     -17.53       1.94        0.00      74.71       1.24       0.08       3.37       ----

> <Gold.Chemscore.Fitness>
14.0766

> <Gold.Chemscore.DG>
-17.5306

> <Gold.Chemscore.ZeroCoef>
-5.4800

> <Gold.Chemscore.Hbond>
1.9383

> <Gold.Chemscore.Metal>
0.0000

> <Gold.Chemscore.Lipo>
74.7094

> <Gold.Chemscore.Internal_Hbond>
0.0000

> <Gold.Chemscore.DEClash>
0.0813

> <Gold.Chemscore.DEInternal>
3.3727

> <Gold.Chemscore.Rot>
1.2361

> <Gold.Chemscore.Internal.Correction>
   9.000000E+99

> <Gold.Chemscore.Hbonds>
donor molecule, donor type, donor heavy atom, donor atom, acceptor molecule, acceptor atom, score
      L1  H     8    31       P1  7948  0.99
      L1  H    11    32       P1  7948  0.66

> <Gold.Chemscore.Hbond.Weighted>
-6.4739

> <Gold.Chemscore.Metal.Weighted>
-0.0000

> <Gold.Chemscore.Lipo.Weighted>
-8.7410

> <Gold.Chemscore.Internal_Hbond.Weighted>
0.0000

> <Gold.Chemscore.DEClash.Weighted>
0.0813

> <Gold.Chemscore.DEInternal.Weighted>
3.3727

> <Gold.Chemscore.Rot.Weighted>
3.1643

> <Gold.Chemscore.Internal.Correction.Weighted>
   9.000000E+99

> <Gold.Protein.RotatedTorsions>
[ 6907 6896 6895 6894 ] final -175.05 input  -60.11 | X-H torsion
[ 7974 7965 7964 7962 ] final   -1.20 input  175.53 | X-H torsion
[ 8008 7997 7996 7995 ] final -159.09 input   59.86 | X-H torsion
[ 10167 10162 10161 10158 ] final  154.31 input  -65.29 | X-H torsion
[ 10718 10713 10712 10709 ] final  -54.60 input   66.30 | X-H torsion
[ 10763 10752 10751 10750 ] final  -62.54 input  -60.55 | X-H torsion
[ 11005 11000 10999 10996 ] final  138.57 input  -57.11 | X-H torsion

> <Gold.Protein.ActiveResidues>
 VAL166  LYS551  ARG553  GLY616  TRP617  ASP618  TYR619  PRO620  LYS621  CYS622 
 ASP623  PHE694  ASN695  SER759  ASP760  ASP761  ALA762  ILE779  LEU786  VAL792 
 PHE793  MET794  SER795  GLU796  ALA797  LYS798  CYS799  TRP800  GLU811  SER814 

> <Gold.Protein.RotatedAtoms>
  151.5823  133.3376  159.3010 H   0  0  0  0  0  0  0  0  0  0  0  0  # atno 6907 bound_to 6896
  150.8306  134.7561  159.6862 H   0  0  0  0  0  0  0  0  0  0  0  0  # atno 6908 bound_to 6896
  152.4390  134.5635  159.9952 H   0  0  0  0  0  0  0  0  0  0  0  0  # atno 6909 bound_to 6896
  146.2419  140.1385  142.8336 H   0  0  0  0  0  0  0  0  0  0  0  0  # atno 7974 bound_to 7965
  155.7574  140.0834  157.2172 H   0  0  0  0  0  0  0  0  0  0  0  0  # atno 8008 bound_to 7997
  154.4006  140.1549  156.2849 H   0  0  0  0  0  0  0  0  0  0  0  0  # atno 8009 bound_to 7997
  155.8872  140.3417  155.5933 H   0  0  0  0  0  0  0  0  0  0  0  0  # atno 8010 bound_to 7997
  139.4824  144.5197  151.7895 H   0  0  0  0  0  0  0  0  0  0  0  0  # atno 10167 bound_to 10162
  156.1437  130.4153  150.0060 H   0  0  0  0  0  0  0  0  0  0  0  0  # atno 10718 bound_to 10713
  154.3014  135.6234  153.5426 H   0  0  0  0  0  0  0  0  0  0  0  0  # atno 10763 bound_to 10752
  152.9840  135.5679  154.5279 H   0  0  0  0  0  0  0  0  0  0  0  0  # atno 10764 bound_to 10752
  154.4911  135.2867  155.1472 H   0  0  0  0  0  0  0  0  0  0  0  0  # atno 10765 bound_to 10752
  140.0193  134.9404  157.0441 H   0  0  0  0  0  0  0  0  0  0  0  0  # atno 11005 bound_to 11000
  145.0266  140.8837  143.5134 LP  0  0  0  0  0  0  0  0  0  0  0  0  # atno 17320 bound_to 7965
  145.1442  139.2553  143.5474 LP  0  0  0  0  0  0  0  0  0  0  0  0  # atno 17321 bound_to 7965
  140.4710  144.1587  150.5918 LP  0  0  0  0  0  0  0  0  0  0  0  0  # atno 17342 bound_to 10162
  140.4382  143.2538  151.9507 LP  0  0  0  0  0  0  0  0  0  0  0  0  # atno 17343 bound_to 10162
  156.7938  130.9266  151.3646 LP  0  0  0  0  0  0  0  0  0  0  0  0  # atno 17370 bound_to 10713
  157.6598  130.8956  149.9805 LP  0  0  0  0  0  0  0  0  0  0  0  0  # atno 17371 bound_to 10713
  140.4415  134.1676  155.7174 LP  0  0  0  0  0  0  0  0  0  0  0  0  # atno 17394 bound_to 11000
  141.1763  133.8506  157.1408 LP  0  0  0  0  0  0  0  0  0  0  0  0  # atno 17395 bound_to 11000

$$$$
