AV-unprocessed.smi:2153|AV-procd|sdf|8769|dock7
  -GOLD-   2272011553D 1   1.00000     0.00000
 Structure written by MMmdl.
 48 49  0  0  0  0  0  0  0  0  1 V2000
  151.9513  141.1920  157.7563 C   0  0  0  0  0  0  0  0  0  0  0  0
  152.3779  142.4966  158.4481 C   0  0  1  0  0  0  0  0  0  0  0  0
  151.6967  143.7121  157.7873 C   0  0  0  0  0  0  0  0  0  0  0  0
  152.1059  145.0315  158.4591 C   0  0  0  0  0  0  0  0  0  0  0  0
  151.7993  144.9987  159.9616 C   0  0  0  0  0  0  0  0  0  0  0  0
  152.4786  143.7977  160.6320 C   0  0  0  0  0  0  0  0  0  0  0  0
  152.0885  142.4602  159.9662 C   0  0  2  0  0  0  0  0  0  0  0  0
  152.8774  141.4206  160.5302 O   0  0  0  0  0  0  0  0  0  0  0  0
  154.2565  141.4681  160.1904 C   0  0  0  0  0  0  0  0  0  0  0  0
  154.9643  140.2621  160.8294 C   0  0  0  0  0  0  0  0  0  0  0  0
  154.8535  140.2831  162.2848 N   0  0  0  0  0  0  0  0  0  0  0  0
  155.8715  140.4583  163.1410 C   0  0  0  0  0  0  0  0  0  0  0  0
  157.0230  140.7077  162.7854 O   0  0  0  0  0  0  0  0  0  0  0  0
  155.5388  140.3189  164.6298 C   0  0  0  0  0  0  0  0  0  0  0  0
  155.6250  141.6137  165.3167 N   0  0  0  0  0  0  0  0  0  0  0  0
  156.3012  141.6993  166.5207 C   0  0  0  0  0  0  0  0  0  0  0  0
  156.4627  142.8525  167.2058 C   0  0  0  0  0  0  0  0  0  0  0  0
  155.9259  144.1082  166.6959 C   0  0  0  0  0  0  0  0  0  0  0  0
  156.0506  145.1802  167.2888 O   0  0  0  0  0  0  0  0  0  0  0  0
  155.2453  143.9945  165.4597 N   0  0  0  0  0  0  0  0  0  0  0  0
  154.6763  145.1855  164.8637 C   0  0  0  0  0  0  0  0  0  0  0  0
  155.0588  142.7813  164.7601 C   0  0  0  0  0  0  0  0  0  0  0  0
  154.4306  142.7331  163.6999 O   0  0  0  0  0  0  0  0  0  0  0  0
  150.8814  141.0147  157.8708 H   0  0  0  0  0  0  0  0  0  0  0  0
  152.4767  140.3316  158.1715 H   0  0  0  0  0  0  0  0  0  0  0  0
  152.1713  141.2238  156.6891 H   0  0  0  0  0  0  0  0  0  0  0  0
  153.4552  142.6062  158.3123 H   0  0  0  0  0  0  0  0  0  0  0  0
  151.9507  143.7513  156.7276 H   0  0  0  0  0  0  0  0  0  0  0  0
  150.6128  143.6006  157.8401 H   0  0  0  0  0  0  0  0  0  0  0  0
  153.1712  145.2078  158.3055 H   0  0  0  0  0  0  0  0  0  0  0  0
  151.5834  145.8662  157.9913 H   0  0  0  0  0  0  0  0  0  0  0  0
  152.1362  145.9241  160.4295 H   0  0  0  0  0  0  0  0  0  0  0  0
  150.7211  144.9452  160.1180 H   0  0  0  0  0  0  0  0  0  0  0  0
  153.5580  143.9170  160.5674 H   0  0  0  0  0  0  0  0  0  0  0  0
  152.2359  143.7966  161.6938 H   0  0  0  0  0  0  0  0  0  0  0  0
  151.0266  142.2591  160.1216 H   0  0  0  0  0  0  0  0  0  0  0  0
  154.4098  141.4544  159.1118 H   0  0  0  0  0  0  0  0  0  0  0  0
  154.6857  142.4018  160.5547 H   0  0  0  0  0  0  0  0  0  0  0  0
  154.5570  139.3291  160.4377 H   0  0  0  0  0  0  0  0  0  0  0  0
  156.0232  140.2762  160.5706 H   0  0  0  0  0  0  0  0  0  0  0  0
  153.9411  140.0886  162.6708 H   0  0  0  0  0  0  0  0  0  0  0  0
  154.5412  139.8903  164.7402 H   0  0  0  0  0  0  0  0  0  0  0  0
  156.2180  139.5999  165.0911 H   0  0  0  0  0  0  0  0  0  0  0  0
  156.7277  140.7979  166.9364 H   0  0  0  0  0  0  0  0  0  0  0  0
  157.0028  142.8472  168.1413 H   0  0  0  0  0  0  0  0  0  0  0  0
  154.9257  145.1858  163.8009 H   0  0  0  0  0  0  0  0  0  0  0  0
  155.0957  146.0844  165.3150 H   0  0  0  0  0  0  0  0  0  0  0  0
  153.5980  145.1348  165.0221 H   0  0  0  0  0  0  0  0  0  0  0  0
  1  2  1  0  0  0  0
  1 24  1  0  0  0  0
  1 25  1  0  0  0  0
  1 26  1  0  0  0  0
  2  7  1  0  0  0  0
  2  3  1  0  0  0  0
  2 27  1  0  0  0  0
  3  4  1  0  0  0  0
  3 28  1  0  0  0  0
  3 29  1  0  0  0  0
  4  5  1  0  0  0  0
  4 30  1  0  0  0  0
  4 31  1  0  0  0  0
  5  6  1  0  0  0  0
  5 32  1  0  0  0  0
  5 33  1  0  0  0  0
  6  7  1  0  0  0  0
  6 34  1  0  0  0  0
  6 35  1  0  0  0  0
  7  8  1  0  0  0  0
  7 36  1  0  0  0  0
  8  9  1  0  0  0  0
  9 10  1  0  0  0  0
  9 37  1  0  0  0  0
  9 38  1  0  0  0  0
 10 11  1  0  0  0  0
 10 39  1  0  0  0  0
 10 40  1  0  0  0  0
 11 12  1  0  0  0  0
 11 41  1  0  0  0  0
 12 13  2  0  0  0  0
 12 14  1  0  0  0  0
 14 15  1  0  0  0  0
 14 42  1  0  0  0  0
 14 43  1  0  0  0  0
 15 22  1  0  0  0  0
 15 16  1  0  0  0  0
 16 17  2  0  0  0  0
 16 44  1  0  0  0  0
 17 18  1  0  0  0  0
 17 45  1  0  0  0  0
 18 19  2  0  0  0  0
 18 20  1  0  0  0  0
 20 21  1  0  0  0  0
 20 22  1  0  0  0  0
 21 46  1  0  0  0  0
 21 47  1  0  0  0  0
 21 48  1  0  0  0  0
 22 23  2  0  0  0  0
M  END
> <s_m_source_file>
AV-unprocessed.smi

> <i_m_source_file_index>
2153

> <i_lp_mmshare_version>
43012

> <i_f3d_flags>
0

> <s_epik_input>
W0NIM11bQ0BASF0xW0NIMl1bQ0gyXVtDSDJdW0NIMl1bQ0BIXTFPW0NIMl1bQ0gyXVtOSF1DKD1PKVtDSDJdbjJbY0hdW2NIXWMoPU8pbihbQ0gzXSljMj1P

> <s_epik_cmdline>
J2VwaWtfcHl0aG9uJywgJy1waCcsICc3LjAnLCAnLXRuJywgJzgnLCAnLW1hJywgJzIwMCcsICctbWV0YWxfYmluZGluZycsICctaW1hZScsICc8aW5maWxlLm1hZT4nLCAnLW9tYWUnLCAnPG91dGZpbGUubWFlPic=

> <r_lp_tautomer_probability>
1

> <r_epik_Ionization_Penalty>
4.02205e-08

> <r_epik_Ionization_Penalty_Charging>
1.23606e-08

> <r_epik_Ionization_Penalty_Neutral>
2.78599e-08

> <r_epik_State_Penalty>
-0

> <r_epik_Charging_Adjusted_Penalty>
1.23606e-08

> <i_epik_Tot_Q>
0

> <i_epik_Tot_abs_Q>
0

> <r_epik_Metal_State_Penalty>
-0

> <b_epik_Metal_Only>
0

> <s_lp_Force_Field>
OPLS_2005

> <r_lp_Energy>
17.7366

> <b_lp_Chiralities_Consistent>
1

> <s_lp_Variant>
AV-unprocessed.smi:2153-4

> <Gold.Version>
5.8.1

> <Gold.Id.Protein>
6NUR|6NUR_protein|mol2

> <Gold.PLP.Fitness>
51.8389

> <Gold.PLP.PLP>
-52.4072

> <Gold.PLP.part.hbond>
-3.0000

> <Gold.PLP.part.metal>
0.0000

> <Gold.PLP.part.buried>
-6.8930

> <Gold.PLP.part.nonpolar>
-41.2140

> <Gold.PLP.part.repulsive>
0.0617

> <Gold.PLP.ligand.clash>
0.0000

> <Gold.PLP.ligand.torsion>
0.3156

> <Gold.PLP.Chemscore.Hbond>
0.0000

> <Gold.PLP.Chemscore.CHOScore>
0.0000

> <Gold.PLP.Chemscore.Metal>
0.0000

> <Gold.PLP.Chemscore.Internal.Correction>
0.0629

> <Gold.Rescore>
     Score         DG    S(hbond)    S(metal)    S(lipo)     H(rot)  DE(clash)    DE(int)     intcor
     10.86     -14.06       0.00        0.00     121.41       2.20       0.31       2.89       ----

> <Gold.Chemscore.Fitness>
10.8610

> <Gold.Chemscore.DG>
-14.0611

> <Gold.Chemscore.ZeroCoef>
-5.4800

> <Gold.Chemscore.Hbond>
0.0000

> <Gold.Chemscore.Metal>
0.0000

> <Gold.Chemscore.Lipo>
121.4087

> <Gold.Chemscore.Internal_Hbond>
0.0000

> <Gold.Chemscore.DEClash>
0.3125

> <Gold.Chemscore.DEInternal>
2.8875

> <Gold.Chemscore.Rot>
2.1968

> <Gold.Chemscore.Internal.Correction>
   9.000000E+99

> <Gold.Chemscore.Hbond.Weighted>
-0.0000

> <Gold.Chemscore.Metal.Weighted>
-0.0000

> <Gold.Chemscore.Lipo.Weighted>
-14.2048

> <Gold.Chemscore.Internal_Hbond.Weighted>
0.0000

> <Gold.Chemscore.DEClash.Weighted>
0.3125

> <Gold.Chemscore.DEInternal.Weighted>
2.8875

> <Gold.Chemscore.Rot.Weighted>
5.6238

> <Gold.Chemscore.Internal.Correction.Weighted>
   9.000000E+99

> <Gold.Protein.RotatedTorsions>
[ 6907 6896 6895 6894 ] final -147.01 input  -60.11 | X-H torsion
[ 7974 7965 7964 7962 ] final  104.64 input  175.53 | X-H torsion
[ 8008 7997 7996 7995 ] final  -82.35 input   59.86 | X-H torsion
[ 10167 10162 10161 10158 ] final -103.77 input  -65.29 | X-H torsion
[ 10718 10713 10712 10709 ] final   84.95 input   66.30 | X-H torsion
[ 10763 10752 10751 10750 ] final   23.70 input  -60.55 | X-H torsion
[ 11005 11000 10999 10996 ] final -138.55 input  -57.11 | X-H torsion

> <Gold.Protein.ActiveResidues>
 VAL166  LYS551  ARG553  GLY616  TRP617  ASP618  TYR619  PRO620  LYS621  CYS622 
 ASP623  PHE694  ASN695  SER759  ASP760  ASP761  ALA762  ILE779  LEU786  VAL792 
 PHE793  MET794  SER795  GLU796  ALA797  LYS798  CYS799  TRP800  GLU811  SER814 

> <Gold.Protein.RotatedAtoms>
  151.1497  133.4916  159.2595 H   0  0  0  0  0  0  0  0  0  0  0  0  # atno 6907 bound_to 6896
  151.1567  135.0253  159.8702 H   0  0  0  0  0  0  0  0  0  0  0  0  # atno 6908 bound_to 6896
  152.5463  134.1375  159.8518 H   0  0  0  0  0  0  0  0  0  0  0  0  # atno 6909 bound_to 6896
  145.3301  139.2489  143.3665 H   0  0  0  0  0  0  0  0  0  0  0  0  # atno 7974 bound_to 7965
  154.6077  140.0634  156.9453 H   0  0  0  0  0  0  0  0  0  0  0  0  # atno 8008 bound_to 7997
  155.2025  140.3316  155.4323 H   0  0  0  0  0  0  0  0  0  0  0  0  # atno 8009 bound_to 7997
  156.2358  140.1862  156.7107 H   0  0  0  0  0  0  0  0  0  0  0  0  # atno 8010 bound_to 7997
  140.2164  143.3708  152.1007 H   0  0  0  0  0  0  0  0  0  0  0  0  # atno 10167 bound_to 10162
  157.6907  131.0154  150.2749 H   0  0  0  0  0  0  0  0  0  0  0  0  # atno 10718 bound_to 10713
  153.0819  135.6621  154.0028 H   0  0  0  0  0  0  0  0  0  0  0  0  # atno 10763 bound_to 10752
  153.9648  135.2970  155.3432 H   0  0  0  0  0  0  0  0  0  0  0  0  # atno 10764 bound_to 10752
  154.7220  135.5160  153.8898 H   0  0  0  0  0  0  0  0  0  0  0  0  # atno 10765 bound_to 10752
  140.8605  134.2175  157.4710 H   0  0  0  0  0  0  0  0  0  0  0  0  # atno 11005 bound_to 11000
  146.3049  140.3876  142.8691 LP  0  0  0  0  0  0  0  0  0  0  0  0  # atno 17320 bound_to 7965
  144.8871  140.7476  143.5950 LP  0  0  0  0  0  0  0  0  0  0  0  0  # atno 17321 bound_to 7965
  139.5160  144.6971  151.5598 LP  0  0  0  0  0  0  0  0  0  0  0  0  # atno 17342 bound_to 10162
  140.6286  143.9119  150.6586 LP  0  0  0  0  0  0  0  0  0  0  0  0  # atno 17343 bound_to 10162
  156.3305  130.3799  149.7495 LP  0  0  0  0  0  0  0  0  0  0  0  0  # atno 17370 bound_to 10713
  156.5036  130.8140  151.3142 LP  0  0  0  0  0  0  0  0  0  0  0  0  # atno 17371 bound_to 10713
  139.8707  134.9727  156.4783 LP  0  0  0  0  0  0  0  0  0  0  0  0  # atno 17394 bound_to 11000
  140.8688  133.8004  155.9342 LP  0  0  0  0  0  0  0  0  0  0  0  0  # atno 17395 bound_to 11000

$$$$
