AV-unprocessed.smi:2293|AV-procd|sdf|9214|dock8
  -GOLD-   2272012433D 1   1.00000     0.00000
 Structure written by MMmdl.
 34 35  0  0  0  0  0  0  0  0  1 V2000
  149.6736  140.5938  154.7969 C   0  0  0  0  0  0  0  0  0  0  0  0
  150.5376  140.3131  156.0140 C   0  0  0  0  0  0  0  0  0  0  0  0
  150.1136  140.9077  157.2059 N   0  0  0  0  0  0  0  0  0  0  0  0
  150.7858  140.7214  158.2945 C   0  0  0  0  0  0  0  0  0  0  0  0
  151.9470  139.9315  158.3186 N   0  0  0  0  0  0  0  0  0  0  0  0
  152.6137  139.7902  159.6241 C   0  0  0  0  0  0  0  0  0  0  0  0
  153.7443  140.8252  159.8183 C   0  0  2  0  0  0  0  0  0  0  0  0
  154.5800  140.3907  160.8730 O   0  0  0  0  0  0  0  0  0  0  0  0
  153.1761  142.2086  160.0964 C   0  0  0  0  0  0  0  0  0  0  0  0
  153.0149  142.6474  161.4283 C   0  0  0  0  0  0  0  0  0  0  0  0
  152.4949  143.9288  161.6962 C   0  0  0  0  0  0  0  0  0  0  0  0
  152.1361  144.7803  160.6337 C   0  0  0  0  0  0  0  0  0  0  0  0
  152.2999  144.3506  159.3026 C   0  0  0  0  0  0  0  0  0  0  0  0
  151.9583  145.1698  158.2800 F   0  0  0  0  0  0  0  0  0  0  0  0
  152.8200  143.0695  159.0344 C   0  0  0  0  0  0  0  0  0  0  0  0
  152.4287  139.3134  157.2014 C   0  0  0  0  0  0  0  0  0  0  0  0
  153.4441  138.6149  157.2359 O   0  0  0  0  0  0  0  0  0  0  0  0
  151.6531  139.5344  155.9702 C   0  0  0  0  0  0  0  0  0  0  0  0
  152.1617  138.8596  154.7023 C   0  0  0  0  0  0  0  0  0  0  0  0
  150.2591  141.0797  154.0159 H   0  0  0  0  0  0  0  0  0  0  0  0
  148.8387  141.2503  155.0453 H   0  0  0  0  0  0  0  0  0  0  0  0
  149.2621  139.6658  154.3992 H   0  0  0  0  0  0  0  0  0  0  0  0
  150.4938  141.1573  159.2516 H   0  0  0  0  0  0  0  0  0  0  0  0
  151.8601  139.9326  160.4014 H   0  0  0  0  0  0  0  0  0  0  0  0
  152.9866  138.7781  159.7955 H   0  0  0  0  0  0  0  0  0  0  0  0
  154.3581  140.8863  158.9187 H   0  0  0  0  0  0  0  0  0  0  0  0
  154.9948  141.1479  161.2576 H   0  0  0  0  0  0  0  0  0  0  0  0
  153.2910  142.0033  162.2504 H   0  0  0  0  0  0  0  0  0  0  0  0
  152.3726  144.2585  162.7174 H   0  0  0  0  0  0  0  0  0  0  0  0
  151.7378  145.7629  160.8395 H   0  0  0  0  0  0  0  0  0  0  0  0
  152.9463  142.7505  158.0100 H   0  0  0  0  0  0  0  0  0  0  0  0
  152.2011  137.7788  154.8420 H   0  0  0  0  0  0  0  0  0  0  0  0
  153.1684  139.2082  154.4688 H   0  0  0  0  0  0  0  0  0  0  0  0
  151.5372  139.0541  153.8318 H   0  0  0  0  0  0  0  0  0  0  0  0
  1  2  1  0  0  0  0
  1 20  1  0  0  0  0
  1 21  1  0  0  0  0
  1 22  1  0  0  0  0
  2 18  2  0  0  0  0
  2  3  1  0  0  0  0
  3  4  2  0  0  0  0
  4  5  1  0  0  0  0
  4 23  1  0  0  0  0
  5  6  1  0  0  0  0
  5 16  1  0  0  0  0
  6  7  1  0  0  0  0
  6 24  1  0  0  0  0
  6 25  1  0  0  0  0
  7  8  1  0  0  0  0
  7  9  1  0  0  0  0
  7 26  1  0  0  0  0
  8 27  1  0  0  0  0
  9 15  1  0  0  0  0
  9 10  2  0  0  0  0
 10 11  1  0  0  0  0
 10 28  1  0  0  0  0
 11 12  2  0  0  0  0
 11 29  1  0  0  0  0
 12 13  1  0  0  0  0
 12 30  1  0  0  0  0
 13 14  1  0  0  0  0
 13 15  2  0  0  0  0
 15 31  1  0  0  0  0
 16 17  2  0  0  0  0
 16 18  1  0  0  0  0
 18 19  1  0  0  0  0
 19 32  1  0  0  0  0
 19 33  1  0  0  0  0
 19 34  1  0  0  0  0
M  END
> <s_m_source_file>
AV-unprocessed.smi

> <i_m_source_file_index>
2293

> <i_lp_mmshare_version>
43012

> <i_f3d_flags>
0

> <s_epik_input>
W0NIM11jMW5bY0hdbihjKD1PKWMxW0NIM10pW0NIMl1bQ0BIXShbT0hdKWMyW2NIXVtjSF1bY0hdYyhGKVtjSF0y

> <s_epik_cmdline>
J2VwaWtfcHl0aG9uJywgJy1waCcsICc3LjAnLCAnLXRuJywgJzgnLCAnLW1hJywgJzIwMCcsICctbWV0YWxfYmluZGluZycsICctaW1hZScsICc8aW5maWxlLm1hZT4nLCAnLW9tYWUnLCAnPG91dGZpbGUubWFlPic=

> <r_lp_tautomer_probability>
1

> <r_epik_Ionization_Penalty>
5.08222e-05

> <r_epik_Ionization_Penalty_Charging>
7.56727e-08

> <r_epik_Ionization_Penalty_Neutral>
5.07465e-05

> <r_epik_State_Penalty>
-0

> <r_epik_Charging_Adjusted_Penalty>
7.56727e-08

> <i_epik_Tot_Q>
0

> <i_epik_Tot_abs_Q>
0

> <r_epik_Metal_State_Penalty>
-0

> <b_epik_Metal_Only>
0

> <s_lp_Force_Field>
OPLS_2005

> <r_lp_Energy>
18.7837

> <b_lp_Chiralities_Consistent>
1

> <s_lp_Variant>
AV-unprocessed.smi:2293-1

> <Gold.Version>
5.8.1

> <Gold.Id.Protein>
6NUR|6NUR_protein|mol2

> <Gold.PLP.Fitness>
48.8069

> <Gold.PLP.PLP>
-48.7221

> <Gold.PLP.part.hbond>
-1.0000

> <Gold.PLP.part.metal>
0.0000

> <Gold.PLP.part.buried>
-3.4984

> <Gold.PLP.part.nonpolar>
-42.7386

> <Gold.PLP.part.repulsive>
0.0319

> <Gold.PLP.ligand.clash>
0.0000

> <Gold.PLP.ligand.torsion>
1.2051

> <Gold.PLP.Chemscore.Hbond>
0.8296

> <Gold.PLP.Chemscore.CHOScore>
0.0000

> <Gold.PLP.Chemscore.Metal>
0.0000

> <Gold.Chemscore.Hbonds>
donor molecule, donor type, donor heavy atom, donor atom, acceptor molecule, acceptor atom, score
      P1  H  7997  8010       L1    17  0.74

> <Gold.PLP.Chemscore.Internal.Correction>
0.0062

> <Gold.Rescore>
     Score         DG    S(hbond)    S(metal)    S(lipo)     H(rot)  DE(clash)    DE(int)     intcor
     14.97     -15.95       0.80        0.00     110.78       2.02       0.03       0.94       ----

> <Gold.Chemscore.Fitness>
14.9747

> <Gold.Chemscore.DG>
-15.9505

> <Gold.Chemscore.ZeroCoef>
-5.4800

> <Gold.Chemscore.Hbond>
0.8010

> <Gold.Chemscore.Metal>
0.0000

> <Gold.Chemscore.Lipo>
110.7823

> <Gold.Chemscore.Internal_Hbond>
0.0000

> <Gold.Chemscore.DEClash>
0.0323

> <Gold.Chemscore.DEInternal>
0.9434

> <Gold.Chemscore.Rot>
2.0181

> <Gold.Chemscore.Internal.Correction>
   9.000000E+99

> <Gold.Chemscore.Hbonds>
donor molecule, donor type, donor heavy atom, donor atom, acceptor molecule, acceptor atom, score
      P1  H  7997  8010       L1    17  0.09

> <Gold.Chemscore.Hbond.Weighted>
-2.6753

> <Gold.Chemscore.Metal.Weighted>
-0.0000

> <Gold.Chemscore.Lipo.Weighted>
-12.9615

> <Gold.Chemscore.Internal_Hbond.Weighted>
0.0000

> <Gold.Chemscore.DEClash.Weighted>
0.0323

> <Gold.Chemscore.DEInternal.Weighted>
0.9434

> <Gold.Chemscore.Rot.Weighted>
5.1663

> <Gold.Chemscore.Internal.Correction.Weighted>
   9.000000E+99

> <Gold.Protein.RotatedTorsions>
[ 6907 6896 6895 6894 ] final -137.74 input  -60.11 | X-H torsion
[ 7974 7965 7964 7962 ] final -171.38 input  175.53 | X-H torsion
[ 8008 7997 7996 7995 ] final   34.39 input   59.86 | X-H torsion
[ 10167 10162 10161 10158 ] final  -31.94 input  -65.29 | X-H torsion
[ 10718 10713 10712 10709 ] final -120.04 input   66.30 | X-H torsion
[ 10763 10752 10751 10750 ] final  -92.99 input  -60.55 | X-H torsion
[ 11005 11000 10999 10996 ] final   39.41 input  -57.11 | X-H torsion

> <Gold.Protein.ActiveResidues>
 VAL166  LYS551  ARG553  GLY616  TRP617  ASP618  TYR619  PRO620  LYS621  CYS622 
 ASP623  PHE694  ASN695  SER759  ASP760  ASP761  ALA762  ILE779  LEU786  VAL792 
 PHE793  MET794  SER795  GLU796  ALA797  LYS798  CYS799  TRP800  GLU811  SER814 

> <Gold.Protein.RotatedAtoms>
  151.0263  133.5831  159.2665 H   0  0  0  0  0  0  0  0  0  0  0  0  # atno 6907 bound_to 6896
  151.2929  135.0746  159.9220 H   0  0  0  0  0  0  0  0  0  0  0  0  # atno 6908 bound_to 6896
  152.5335  133.9958  159.7926 H   0  0  0  0  0  0  0  0  0  0  0  0  # atno 6909 bound_to 6896
  144.7158  140.1930  143.6346 H   0  0  0  0  0  0  0  0  0  0  0  0  # atno 7974 bound_to 7965
  155.1540  140.3277  155.4425 H   0  0  0  0  0  0  0  0  0  0  0  0  # atno 8008 bound_to 7997
  156.2565  140.1972  156.6601 H   0  0  0  0  0  0  0  0  0  0  0  0  # atno 8009 bound_to 7997
  154.6452  140.0565  156.9879 H   0  0  0  0  0  0  0  0  0  0  0  0  # atno 8010 bound_to 7997
  140.7229  143.3733  151.1738 H   0  0  0  0  0  0  0  0  0  0  0  0  # atno 10167 bound_to 10162
  156.1227  130.6336  150.9491 H   0  0  0  0  0  0  0  0  0  0  0  0  # atno 10718 bound_to 10713
  154.6915  135.5211  153.8399 H   0  0  0  0  0  0  0  0  0  0  0  0  # atno 10763 bound_to 10752
  153.0636  135.6577  154.0416 H   0  0  0  0  0  0  0  0  0  0  0  0  # atno 10764 bound_to 10752
  154.0289  135.2987  155.3351 H   0  0  0  0  0  0  0  0  0  0  0  0  # atno 10765 bound_to 10752
  140.2031  134.3846  155.8086 H   0  0  0  0  0  0  0  0  0  0  0  0  # atno 11005 bound_to 11000
  145.8750  139.2292  143.1638 LP  0  0  0  0  0  0  0  0  0  0  0  0  # atno 17320 bound_to 7965
  146.0049  140.8488  143.0000 LP  0  0  0  0  0  0  0  0  0  0  0  0  # atno 17321 bound_to 7965
  139.7308  143.9076  152.3018 LP  0  0  0  0  0  0  0  0  0  0  0  0  # atno 17342 bound_to 10162
  139.8864  144.6989  150.8819 LP  0  0  0  0  0  0  0  0  0  0  0  0  # atno 17343 bound_to 10162
  157.6410  131.0910  150.8251 LP  0  0  0  0  0  0  0  0  0  0  0  0  # atno 17370 bound_to 10713
  156.8345  130.5027  149.5328 LP  0  0  0  0  0  0  0  0  0  0  0  0  # atno 17371 bound_to 10713
  141.2227  133.7104  156.8291 LP  0  0  0  0  0  0  0  0  0  0  0  0  # atno 17394 bound_to 11000
  140.2033  134.8881  157.3193 LP  0  0  0  0  0  0  0  0  0  0  0  0  # atno 17395 bound_to 11000

$$$$
