AV-unprocessed.smi:295|AV-procd|sdf|2255|dock9
  -GOLD-   2262022143D 1   1.00000     0.00000
 Structure written by MMmdl.
 35 36  0  0  0  0  0  0  0  0  1 V2000
  144.2390  135.2866  152.5401 C   0  0  0  0  0  0  0  0  0  0  0  0
  144.1328  133.9757  151.7423 C   0  0  1  0  0  0  0  0  0  0  0  0
  144.4069  134.2014  150.2411 C   0  0  0  0  0  0  0  0  0  0  0  0
  144.2398  132.9036  149.4342 C   0  0  0  0  0  0  0  0  0  0  0  0
  145.1291  131.7804  149.9883 C   0  0  0  0  0  0  0  0  0  0  0  0
  144.8648  131.5484  151.4865 C   0  0  0  0  0  0  0  0  0  0  0  0
  145.0214  132.8411  152.3129 C   0  0  1  0  0  0  0  0  0  0  0  0
  146.4331  133.2245  152.3574 N   0  0  0  0  0  0  0  0  0  0  0  0
  147.4392  132.5003  152.8732 C   0  0  0  0  0  0  0  0  0  0  0  0
  147.2834  131.4150  153.4315 O   0  0  0  0  0  0  0  0  0  0  0  0
  148.8411  133.0981  152.7410 C   0  0  0  0  0  0  0  0  0  0  0  0
  149.4042  133.4084  154.0430 N   0  0  0  0  0  0  0  0  0  0  0  0
  149.5854  134.5846  154.6534 C   0  0  0  0  0  0  0  0  0  0  0  0
  150.1568  134.4906  155.8476 N   0  0  0  0  0  0  0  0  0  0  0  0
  150.3052  133.1350  155.9047 C   0  0  0  0  0  0  0  0  0  0  0  0
  150.9126  132.4854  157.0539 C   0  0  0  0  0  0  0  0  0  0  0  0
  151.3966  131.9681  157.9689 N   0  0  0  0  0  0  0  0  0  0  0  0
  149.8737  132.4332  154.8589 N   0  0  0  0  0  0  0  0  0  0  0  0
  145.2310  135.7311  152.4575 H   0  0  0  0  0  0  0  0  0  0  0  0
  144.0353  135.1191  153.5981 H   0  0  0  0  0  0  0  0  0  0  0  0
  143.5193  136.0219  152.1794 H   0  0  0  0  0  0  0  0  0  0  0  0
  143.0977  133.6421  151.8323 H   0  0  0  0  0  0  0  0  0  0  0  0
  143.7281  134.9599  149.8498 H   0  0  0  0  0  0  0  0  0  0  0  0
  145.4156  134.5920  150.1006 H   0  0  0  0  0  0  0  0  0  0  0  0
  143.1957  132.5893  149.4625 H   0  0  0  0  0  0  0  0  0  0  0  0
  144.4789  133.0844  148.3858 H   0  0  0  0  0  0  0  0  0  0  0  0
  144.9497  130.8587  149.4340 H   0  0  0  0  0  0  0  0  0  0  0  0
  146.1785  132.0325  149.8314 H   0  0  0  0  0  0  0  0  0  0  0  0
  143.8522  131.1633  151.6133 H   0  0  0  0  0  0  0  0  0  0  0  0
  145.5319  130.7738  151.8671 H   0  0  0  0  0  0  0  0  0  0  0  0
  144.6782  132.6187  153.3248 H   0  0  0  0  0  0  0  0  0  0  0  0
  146.6663  134.1096  151.9317 H   0  0  0  0  0  0  0  0  0  0  0  0
  149.4969  132.3921  152.2303 H   0  0  0  0  0  0  0  0  0  0  0  0
  148.8105  134.0061  152.1367 H   0  0  0  0  0  0  0  0  0  0  0  0
  149.3005  135.5283  154.2115 H   0  0  0  0  0  0  0  0  0  0  0  0
  1  2  1  0  0  0  0
  1 19  1  0  0  0  0
  1 20  1  0  0  0  0
  1 21  1  0  0  0  0
  2  7  1  0  0  0  0
  2  3  1  0  0  0  0
  2 22  1  0  0  0  0
  3  4  1  0  0  0  0
  3 23  1  0  0  0  0
  3 24  1  0  0  0  0
  4  5  1  0  0  0  0
  4 25  1  0  0  0  0
  4 26  1  0  0  0  0
  5  6  1  0  0  0  0
  5 27  1  0  0  0  0
  5 28  1  0  0  0  0
  6  7  1  0  0  0  0
  6 29  1  0  0  0  0
  6 30  1  0  0  0  0
  7  8  1  0  0  0  0
  7 31  1  0  0  0  0
  8  9  1  0  0  0  0
  8 32  1  0  0  0  0
  9 10  2  0  0  0  0
  9 11  1  0  0  0  0
 11 12  1  0  0  0  0
 11 33  1  0  0  0  0
 11 34  1  0  0  0  0
 12 18  1  0  0  0  0
 12 13  1  0  0  0  0
 13 14  2  0  0  0  0
 13 35  1  0  0  0  0
 14 15  1  0  0  0  0
 15 16  1  0  0  0  0
 15 18  2  0  0  0  0
 16 17  3  0  0  0  0
M  END
> <s_m_source_file>
AV-unprocessed.smi

> <i_m_source_file_index>
295

> <i_lp_mmshare_version>
43012

> <i_f3d_flags>
0

> <s_epik_input>
W0NIM11bQ0BASF0xW0NIMl1bQ0gyXVtDSDJdW0NIMl1bQ0BIXTFbTkhdQyg9TylbQ0gyXW4yW2NIXW5jKG4yKUMjTg==

> <s_epik_cmdline>
J2VwaWtfcHl0aG9uJywgJy1waCcsICc3LjAnLCAnLXRuJywgJzgnLCAnLW1hJywgJzIwMCcsICctbWV0YWxfYmluZGluZycsICctaW1hZScsICc8aW5maWxlLm1hZT4nLCAnLW9tYWUnLCAnPG91dGZpbGUubWFlPic=

> <r_lp_tautomer_probability>
1

> <r_epik_Ionization_Penalty>
5.31112e-08

> <r_epik_Ionization_Penalty_Charging>
0

> <r_epik_Ionization_Penalty_Neutral>
5.31112e-08

> <r_epik_State_Penalty>
-0

> <r_epik_Charging_Adjusted_Penalty>
0

> <i_epik_Tot_Q>
0

> <i_epik_Tot_abs_Q>
0

> <r_epik_Metal_State_Penalty>
-0

> <b_epik_Metal_Only>
0

> <s_lp_Force_Field>
OPLS_2005

> <r_lp_Energy>
13.099

> <b_lp_Chiralities_Consistent>
1

> <s_lp_Variant>
AV-unprocessed.smi:295-2

> <Gold.Version>
5.8.1

> <Gold.Id.Protein>
6NUR|6NUR_protein|mol2

> <Gold.PLP.Fitness>
36.7927

> <Gold.PLP.PLP>
-31.2044

> <Gold.PLP.part.hbond>
-1.0000

> <Gold.PLP.part.metal>
0.0000

> <Gold.PLP.part.buried>
-3.9331

> <Gold.PLP.part.nonpolar>
-25.7652

> <Gold.PLP.part.repulsive>
0.1371

> <Gold.PLP.ligand.clash>
0.0000

> <Gold.PLP.ligand.torsion>
0.2104

> <Gold.PLP.Chemscore.Hbond>
1.0000

> <Gold.PLP.Chemscore.CHOScore>
1.0000

> <Gold.PLP.Chemscore.Metal>
0.0000

> <Gold.Chemscore.Hbonds>
donor molecule, donor type, donor heavy atom, donor atom, acceptor molecule, acceptor atom, score
      P1  H  6896  6907       L1    17  1.00
      L1  C    13    35       P1  7948  1.00

> <Gold.PLP.Chemscore.Internal.Correction>
0.0091

> <Gold.Rescore>
     Score         DG    S(hbond)    S(metal)    S(lipo)     H(rot)  DE(clash)    DE(int)     intcor
     10.25     -10.56       0.96        0.00      58.69       1.95       0.01       0.30       ----

> <Gold.Chemscore.Fitness>
10.2471

> <Gold.Chemscore.DG>
-10.5559

> <Gold.Chemscore.ZeroCoef>
-5.4800

> <Gold.Chemscore.Hbond>
0.9564

> <Gold.Chemscore.Metal>
0.0000

> <Gold.Chemscore.Lipo>
58.6916

> <Gold.Chemscore.Internal_Hbond>
0.0000

> <Gold.Chemscore.DEClash>
0.0098

> <Gold.Chemscore.DEInternal>
0.2990

> <Gold.Chemscore.Rot>
1.9474

> <Gold.Chemscore.Internal.Correction>
   9.000000E+99

> <Gold.Chemscore.Hbonds>
donor molecule, donor type, donor heavy atom, donor atom, acceptor molecule, acceptor atom, score
      P1  H  6896  6907       L1    17  0.50

> <Gold.Chemscore.Hbond.Weighted>
-3.1943

> <Gold.Chemscore.Metal.Weighted>
-0.0000

> <Gold.Chemscore.Lipo.Weighted>
-6.8669

> <Gold.Chemscore.Internal_Hbond.Weighted>
0.0000

> <Gold.Chemscore.DEClash.Weighted>
0.0098

> <Gold.Chemscore.DEInternal.Weighted>
0.2990

> <Gold.Chemscore.Rot.Weighted>
4.9852

> <Gold.Chemscore.Internal.Correction.Weighted>
   9.000000E+99

> <Gold.Protein.RotatedTorsions>
[ 6907 6896 6895 6894 ] final -174.44 input  -60.11 | X-H torsion
[ 7974 7965 7964 7962 ] final -149.72 input  175.53 | X-H torsion
[ 8008 7997 7996 7995 ] final  -94.58 input   59.86 | X-H torsion
[ 10167 10162 10161 10158 ] final   77.90 input  -65.29 | X-H torsion
[ 10718 10713 10712 10709 ] final  154.73 input   66.30 | X-H torsion
[ 10763 10752 10751 10750 ] final   85.42 input  -60.55 | X-H torsion
[ 11005 11000 10999 10996 ] final  109.55 input  -57.11 | X-H torsion

> <Gold.Protein.ActiveResidues>
 VAL166  LYS551  ARG553  GLY616  TRP617  ASP618  TYR619  PRO620  LYS621  CYS622 
 ASP623  PHE694  ASN695  SER759  ASP760  ASP761  ALA762  ILE779  LEU786  VAL792 
 PHE793  MET794  SER795  GLU796  ALA797  LYS798  CYS799  TRP800  GLU811  SER814 

> <Gold.Protein.RotatedAtoms>
  151.5724  133.3388  159.2992 H   0  0  0  0  0  0  0  0  0  0  0  0  # atno 6907 bound_to 6896
  150.8360  134.7636  159.6904 H   0  0  0  0  0  0  0  0  0  0  0  0  # atno 6908 bound_to 6896
  152.4436  134.5548  159.9928 H   0  0  0  0  0  0  0  0  0  0  0  0  # atno 6909 bound_to 6896
  144.7951  140.5028  143.5746 H   0  0  0  0  0  0  0  0  0  0  0  0  # atno 7974 bound_to 7965
  154.7503  140.0488  157.0888 H   0  0  0  0  0  0  0  0  0  0  0  0  # atno 8008 bound_to 7997
  155.0065  140.3131  155.4827 H   0  0  0  0  0  0  0  0  0  0  0  0  # atno 8009 bound_to 7997
  156.2884  140.2192  156.5178 H   0  0  0  0  0  0  0  0  0  0  0  0  # atno 8010 bound_to 7997
  139.9767  144.5856  150.7937 H   0  0  0  0  0  0  0  0  0  0  0  0  # atno 10167 bound_to 10162
  157.2278  131.0732  151.1872 H   0  0  0  0  0  0  0  0  0  0  0  0  # atno 10718 bound_to 10713
  153.1473  135.4618  154.9585 H   0  0  0  0  0  0  0  0  0  0  0  0  # atno 10763 bound_to 10752
  154.7797  135.3184  154.8019 H   0  0  0  0  0  0  0  0  0  0  0  0  # atno 10764 bound_to 10752
  153.8531  135.6919  153.4844 H   0  0  0  0  0  0  0  0  0  0  0  0  # atno 10765 bound_to 10752
  139.8864  134.9461  156.6143 H   0  0  0  0  0  0  0  0  0  0  0  0  # atno 11005 bound_to 11000
  145.5695  139.1483  143.3296 LP  0  0  0  0  0  0  0  0  0  0  0  0  # atno 17320 bound_to 7965
  146.2216  140.5829  142.9015 LP  0  0  0  0  0  0  0  0  0  0  0  0  # atno 17321 bound_to 7965
  140.7503  143.2954  151.3219 LP  0  0  0  0  0  0  0  0  0  0  0  0  # atno 17342 bound_to 10162
  139.6441  144.0485  152.2577 LP  0  0  0  0  0  0  0  0  0  0  0  0  # atno 17343 bound_to 10162
  157.3510  130.7082  149.6440 LP  0  0  0  0  0  0  0  0  0  0  0  0  # atno 17370 bound_to 10713
  155.9677  130.4252  150.4645 LP  0  0  0  0  0  0  0  0  0  0  0  0  # atno 17371 bound_to 10713
  140.7787  133.8678  155.8550 LP  0  0  0  0  0  0  0  0  0  0  0  0  # atno 17394 bound_to 11000
  140.9779  134.1445  157.4520 LP  0  0  0  0  0  0  0  0  0  0  0  0  # atno 17395 bound_to 11000

$$$$
