AV-unprocessed.smi:1821|AV-procd|sdf|7387|dock1
  -GOLD-   22720 9 53D 1   1.00000     0.00000
 Structure written by MMmdl.
 35 37  0  0  0  0  0  0  0  0  1 V2000
  151.7214  139.5241  156.1916 C   0  0  0  0  0  0  0  0  0  0  0  0
  152.0990  140.2802  157.4261 C   0  0  0  0  0  0  0  0  0  0  0  0
  153.1174  139.9106  158.2028 N   0  0  0  0  0  0  0  0  0  0  0  0
  153.1033  140.8697  159.1973 C   0  0  0  0  0  0  0  0  0  0  0  0
  153.9369  141.0339  160.3267 C   0  0  0  0  0  0  0  0  0  0  0  0
  153.7281  142.1065  161.2183 C   0  0  0  0  0  0  0  0  0  0  0  0
  152.6848  143.0283  160.9943 C   0  0  0  0  0  0  0  0  0  0  0  0
  151.8425  142.8830  159.8753 C   0  0  0  0  0  0  0  0  0  0  0  0
  152.0555  141.8110  158.9878 C   0  0  0  0  0  0  0  0  0  0  0  0
  151.4246  141.3874  157.8220 N   0  0  0  0  0  0  0  0  0  0  0  0
  150.2791  142.0166  157.1792 C   0  0  0  0  0  0  0  0  0  0  0  0
  149.1474  141.0168  156.8634 C   0  0  1  0  0  0  0  0  0  0  0  0
  148.7526  140.3338  158.0384 O   0  0  0  0  0  0  0  0  0  0  0  0
  147.9769  141.7024  156.1670 C   0  0  0  0  0  0  0  0  0  0  0  0
  146.9852  142.3806  156.9162 C   0  0  0  0  0  0  0  0  0  0  0  0
  147.0590  142.4357  158.2680 F   0  0  0  0  0  0  0  0  0  0  0  0
  145.9098  143.0131  156.2628 C   0  0  0  0  0  0  0  0  0  0  0  0
  145.8172  142.9809  154.8593 C   0  0  0  0  0  0  0  0  0  0  0  0
  146.8040  142.3173  154.1072 C   0  0  0  0  0  0  0  0  0  0  0  0
  147.8807  141.6816  154.7558 C   0  0  0  0  0  0  0  0  0  0  0  0
  148.8221  141.0542  154.0103 F   0  0  0  0  0  0  0  0  0  0  0  0
  152.3785  138.6646  156.0552 H   0  0  0  0  0  0  0  0  0  0  0  0
  151.8093  140.1646  155.3139 H   0  0  0  0  0  0  0  0  0  0  0  0
  150.6965  139.1613  156.2653 H   0  0  0  0  0  0  0  0  0  0  0  0
  154.7384  140.3328  160.5071 H   0  0  0  0  0  0  0  0  0  0  0  0
  154.3709  142.2220  162.0787 H   0  0  0  0  0  0  0  0  0  0  0  0
  152.5306  143.8462  161.6828 H   0  0  0  0  0  0  0  0  0  0  0  0
  151.0398  143.5844  159.7028 H   0  0  0  0  0  0  0  0  0  0  0  0
  149.9148  142.8139  157.8280 H   0  0  0  0  0  0  0  0  0  0  0  0
  150.6158  142.5052  156.2644 H   0  0  0  0  0  0  0  0  0  0  0  0
  149.5435  140.2476  156.2013 H   0  0  0  0  0  0  0  0  0  0  0  0
  148.9744  140.8681  158.7857 H   0  0  0  0  0  0  0  0  0  0  0  0
  145.1555  143.5265  156.8407 H   0  0  0  0  0  0  0  0  0  0  0  0
  144.9922  143.4676  154.3603 H   0  0  0  0  0  0  0  0  0  0  0  0
  146.7362  142.2967  153.0295 H   0  0  0  0  0  0  0  0  0  0  0  0
  1  2  1  0  0  0  0
  1 22  1  0  0  0  0
  1 23  1  0  0  0  0
  1 24  1  0  0  0  0
  2 10  1  0  0  0  0
  2  3  2  0  0  0  0
  3  4  1  0  0  0  0
  4  9  2  0  0  0  0
  4  5  1  0  0  0  0
  5  6  2  0  0  0  0
  5 25  1  0  0  0  0
  6  7  1  0  0  0  0
  6 26  1  0  0  0  0
  7  8  2  0  0  0  0
  7 27  1  0  0  0  0
  8  9  1  0  0  0  0
  8 28  1  0  0  0  0
  9 10  1  0  0  0  0
 10 11  1  0  0  0  0
 11 12  1  0  0  0  0
 11 29  1  0  0  0  0
 11 30  1  0  0  0  0
 12 13  1  0  0  0  0
 12 14  1  0  0  0  0
 12 31  1  0  0  0  0
 13 32  1  0  0  0  0
 14 20  1  0  0  0  0
 14 15  2  0  0  0  0
 15 16  1  0  0  0  0
 15 17  1  0  0  0  0
 17 18  2  0  0  0  0
 17 33  1  0  0  0  0
 18 19  1  0  0  0  0
 18 34  1  0  0  0  0
 19 20  2  0  0  0  0
 19 35  1  0  0  0  0
 20 21  1  0  0  0  0
M  END
> <s_m_source_file>
AV-unprocessed.smi

> <i_m_source_file_index>
1821

> <i_lp_mmshare_version>
43012

> <i_f3d_flags>
0

> <s_epik_input>
W2NIXTFbY0hdW2NIXVtjSF1jKGMxMiluKGMobjIpW0NIM10pW0NIMl1bQ0BIXShbT0hdKWMzYyhGKVtjSF1bY0hdW2NIXWMzRg==

> <s_epik_cmdline>
J2VwaWtfcHl0aG9uJywgJy1waCcsICc3LjAnLCAnLXRuJywgJzgnLCAnLW1hJywgJzIwMCcsICctbWV0YWxfYmluZGluZycsICctaW1hZScsICc8aW5maWxlLm1hZT4nLCAnLW9tYWUnLCAnPG91dGZpbGUubWFlPic=

> <r_epik_Ionization_Penalty>
0.129663

> <r_epik_Ionization_Penalty_Charging>
0

> <r_epik_Ionization_Penalty_Neutral>
0.129663

> <r_epik_State_Penalty>
0.119073

> <r_epik_Charging_Adjusted_Penalty>
0.119073

> <i_epik_Tot_Q>
0

> <i_epik_Tot_abs_Q>
0

> <r_epik_Metal_State_Penalty>
0.000131867

> <b_epik_Metal_Only>
0

> <s_lp_Force_Field>
OPLS_2005

> <r_lp_Energy>
13.032

> <b_lp_Chiralities_Consistent>
1

> <s_lp_Variant>
AV-unprocessed.smi:1821-2

> <Gold.Version>
5.8.1

> <Gold.Id.Protein>
6NUR|6NUR_protein|mol2

> <Gold.PLP.Fitness>
45.5483

> <Gold.PLP.PLP>
-43.8917

> <Gold.PLP.part.hbond>
-1.2675

> <Gold.PLP.part.metal>
0.0000

> <Gold.PLP.part.buried>
-2.2883

> <Gold.PLP.part.nonpolar>
-38.5646

> <Gold.PLP.part.repulsive>
0.0000

> <Gold.PLP.ligand.clash>
0.0000

> <Gold.PLP.ligand.torsion>
0.6981

> <Gold.PLP.Chemscore.Hbond>
1.0000

> <Gold.PLP.Chemscore.CHOScore>
0.0000

> <Gold.PLP.Chemscore.Metal>
0.0000

> <Gold.Chemscore.Hbonds>
donor molecule, donor type, donor heavy atom, donor atom, acceptor molecule, acceptor atom, score
      P1  H  7997  8009       L1     3  1.00

> <Gold.PLP.Chemscore.Internal.Correction>
0.0530

> <Gold.Rescore>
     Score         DG    S(hbond)    S(metal)    S(lipo)     H(rot)  DE(clash)    DE(int)     intcor
     12.81     -15.16       0.65        0.00     105.33       1.88       0.35       2.01       ----

> <Gold.Chemscore.Fitness>
12.8101

> <Gold.Chemscore.DG>
-15.1619

> <Gold.Chemscore.ZeroCoef>
-5.4800

> <Gold.Chemscore.Hbond>
0.6531

> <Gold.Chemscore.Metal>
0.0000

> <Gold.Chemscore.Lipo>
105.3286

> <Gold.Chemscore.Internal_Hbond>
0.0000

> <Gold.Chemscore.DEClash>
0.3451

> <Gold.Chemscore.DEInternal>
2.0067

> <Gold.Chemscore.Rot>
1.8839

> <Gold.Chemscore.Internal.Correction>
   9.000000E+99

> <Gold.Chemscore.Hbonds>
donor molecule, donor type, donor heavy atom, donor atom, acceptor molecule, acceptor atom, score
      P1  H  7997  8009       L1     3  0.45

> <Gold.Chemscore.Hbond.Weighted>
-2.1812

> <Gold.Chemscore.Metal.Weighted>
-0.0000

> <Gold.Chemscore.Lipo.Weighted>
-12.3234

> <Gold.Chemscore.Internal_Hbond.Weighted>
0.0000

> <Gold.Chemscore.DEClash.Weighted>
0.3451

> <Gold.Chemscore.DEInternal.Weighted>
2.0067

> <Gold.Chemscore.Rot.Weighted>
4.8227

> <Gold.Chemscore.Internal.Correction.Weighted>
   9.000000E+99

> <Gold.Protein.RotatedTorsions>
[ 6907 6896 6895 6894 ] final   50.73 input  -60.11 | X-H torsion
[ 7974 7965 7964 7962 ] final  145.99 input  175.53 | X-H torsion
[ 8008 7997 7996 7995 ] final  143.76 input   59.86 | X-H torsion
[ 10167 10162 10161 10158 ] final  -33.76 input  -65.29 | X-H torsion
[ 10718 10713 10712 10709 ] final   78.69 input   66.30 | X-H torsion
[ 10763 10752 10751 10750 ] final -152.21 input  -60.55 | X-H torsion
[ 11005 11000 10999 10996 ] final  -23.29 input  -57.11 | X-H torsion

> <Gold.Protein.ActiveResidues>
 VAL166  LYS551  ARG553  GLY616  TRP617  ASP618  TYR619  PRO620  LYS621  CYS622 
 ASP623  PHE694  ASN695  SER759  ASP760  ASP761  ALA762  ILE779  LEU786  VAL792 
 PHE793  MET794  SER795  GLU796  ALA797  LYS798  CYS799  TRP800  GLU811  SER814 

> <Gold.Protein.RotatedAtoms>
  152.3050  134.7565  160.0349 H   0  0  0  0  0  0  0  0  0  0  0  0  # atno 6907 bound_to 6896
  151.8065  133.3371  159.3551 H   0  0  0  0  0  0  0  0  0  0  0  0  # atno 6908 bound_to 6896
  150.7292  134.5634  159.5898 H   0  0  0  0  0  0  0  0  0  0  0  0  # atno 6909 bound_to 6896
  144.8707  139.5850  143.5888 H   0  0  0  0  0  0  0  0  0  0  0  0  # atno 7974 bound_to 7965
  156.2923  140.2254  156.4942 H   0  0  0  0  0  0  0  0  0  0  0  0  # atno 8008 bound_to 7997
  154.7745  140.0464  157.1099 H   0  0  0  0  0  0  0  0  0  0  0  0  # atno 8009 bound_to 7997
  154.9834  140.3081  155.4940 H   0  0  0  0  0  0  0  0  0  0  0  0  # atno 8010 bound_to 7997
  140.7198  143.3597  151.1989 H   0  0  0  0  0  0  0  0  0  0  0  0  # atno 10167 bound_to 10162
  157.6753  130.9880  150.1824 H   0  0  0  0  0  0  0  0  0  0  0  0  # atno 10718 bound_to 10713
  154.8009  135.3241  154.7553 H   0  0  0  0  0  0  0  0  0  0  0  0  # atno 10763 bound_to 10752
  153.8221  135.6886  153.4830 H   0  0  0  0  0  0  0  0  0  0  0  0  # atno 10764 bound_to 10752
  153.1725  135.4618  154.9864 H   0  0  0  0  0  0  0  0  0  0  0  0  # atno 10765 bound_to 10752
  140.8738  133.7702  156.0218 H   0  0  0  0  0  0  0  0  0  0  0  0  # atno 11005 bound_to 11000
  146.2928  139.7190  142.9148 LP  0  0  0  0  0  0  0  0  0  0  0  0  # atno 17320 bound_to 7965
  145.4135  141.0399  143.3004 LP  0  0  0  0  0  0  0  0  0  0  0  0  # atno 17321 bound_to 7965
  139.7146  143.9322  152.2961 LP  0  0  0  0  0  0  0  0  0  0  0  0  # atno 17342 bound_to 10162
  139.9058  144.6885  150.8615 LP  0  0  0  0  0  0  0  0  0  0  0  0  # atno 17343 bound_to 10162
  156.2553  130.3705  149.8188 LP  0  0  0  0  0  0  0  0  0  0  0  0  # atno 17370 bound_to 10713
  156.5949  130.8522  151.3417 LP  0  0  0  0  0  0  0  0  0  0  0  0  # atno 17371 bound_to 10713
  140.8542  134.2918  157.5262 LP  0  0  0  0  0  0  0  0  0  0  0  0  # atno 17394 bound_to 11000
  139.8714  134.9484  156.3995 LP  0  0  0  0  0  0  0  0  0  0  0  0  # atno 17395 bound_to 11000

$$$$
