AV-unprocessed.smi:3207|AV-procd|sdf|12259|dock1
  -GOLD-   2272018 93D 1   1.00000     0.00000
 Structure written by MMmdl.
 32 33  0  0  0  0  0  0  0  0  1 V2000
  149.8744  139.7110  154.2355 C   0  0  0  0  0  0  0  0  0  0  0  0
  149.7401  141.1381  154.7867 C   0  0  1  0  0  0  0  0  0  0  0  0
  148.3531  141.3866  155.0004 O   0  0  0  0  0  0  0  0  0  0  0  0
  147.5502  141.4112  153.8267 C   0  0  0  0  0  0  0  0  0  0  0  0
  146.1095  141.6408  154.2282 C   0  0  0  0  0  0  0  0  0  0  0  0
  145.4681  142.9954  154.0297 C   0  0  0  0  0  0  0  0  0  0  0  0
  145.7718  142.5045  155.4223 C   0  0  0  0  0  0  0  0  0  0  0  0
  150.5221  141.3062  156.0998 C   0  0  0  0  0  0  0  0  0  0  0  0
  151.0858  140.3333  156.6002 O   0  0  0  0  0  0  0  0  0  0  0  0
  150.4977  142.5412  156.6348 N   0  0  0  0  0  0  0  0  0  0  0  0
  151.1018  143.0168  157.8304 C   0  0  0  0  0  0  0  0  0  0  0  0
  151.5322  142.0552  158.7679 C   0  0  0  0  0  0  0  0  0  0  0  0
  152.1219  142.4936  159.9701 C   0  0  0  0  0  0  0  0  0  0  0  0
  152.2925  143.7957  160.2805 N   0  0  0  0  0  0  0  0  0  0  0  0
  151.8694  144.7155  159.3880 C   0  0  0  0  0  0  0  0  0  0  0  0
  151.2673  144.3846  158.1573 C   0  0  0  0  0  0  0  0  0  0  0  0
  150.9187  139.4523  154.0573 H   0  0  0  0  0  0  0  0  0  0  0  0
  149.3450  139.6123  153.2875 H   0  0  0  0  0  0  0  0  0  0  0  0
  149.4577  138.9734  154.9225 H   0  0  0  0  0  0  0  0  0  0  0  0
  150.1196  141.8326  154.0344 H   0  0  0  0  0  0  0  0  0  0  0  0
  147.8643  142.1985  153.1404 H   0  0  0  0  0  0  0  0  0  0  0  0
  147.6216  140.4590  153.2998 H   0  0  0  0  0  0  0  0  0  0  0  0
  145.4627  140.7825  154.0576 H   0  0  0  0  0  0  0  0  0  0  0  0
  146.0882  143.7979  153.6346 H   0  0  0  0  0  0  0  0  0  0  0  0
  144.4251  143.0164  153.7203 H   0  0  0  0  0  0  0  0  0  0  0  0
  144.9326  142.1962  156.0425 H   0  0  0  0  0  0  0  0  0  0  0  0
  146.5952  142.9774  155.9544 H   0  0  0  0  0  0  0  0  0  0  0  0
  149.9313  143.2169  156.1430 H   0  0  0  0  0  0  0  0  0  0  0  0
  151.4186  140.9988  158.5725 H   0  0  0  0  0  0  0  0  0  0  0  0
  152.4637  141.7777  160.7029 H   0  0  0  0  0  0  0  0  0  0  0  0
  152.0090  145.7497  159.6656 H   0  0  0  0  0  0  0  0  0  0  0  0
  150.9396  145.1802  157.5070 H   0  0  0  0  0  0  0  0  0  0  0  0
  1  2  1  0  0  0  0
  1 17  1  0  0  0  0
  1 18  1  0  0  0  0
  1 19  1  0  0  0  0
  2  3  1  0  0  0  0
  2  8  1  0  0  0  0
  2 20  1  0  0  0  0
  3  4  1  0  0  0  0
  4  5  1  0  0  0  0
  4 21  1  0  0  0  0
  4 22  1  0  0  0  0
  5  7  1  0  0  0  0
  5  6  1  0  0  0  0
  5 23  1  0  0  0  0
  6  7  1  0  0  0  0
  6 24  1  0  0  0  0
  6 25  1  0  0  0  0
  7 26  1  0  0  0  0
  7 27  1  0  0  0  0
  8  9  2  0  0  0  0
  8 10  1  0  0  0  0
 10 11  1  0  0  0  0
 10 28  1  0  0  0  0
 11 16  1  0  0  0  0
 11 12  2  0  0  0  0
 12 13  1  0  0  0  0
 12 29  1  0  0  0  0
 13 14  2  0  0  0  0
 13 30  1  0  0  0  0
 14 15  1  0  0  0  0
 15 16  2  0  0  0  0
 15 31  1  0  0  0  0
 16 32  1  0  0  0  0
M  END
> <s_m_source_file>
AV-unprocessed.smi

> <i_m_source_file_index>
3207

> <i_lp_mmshare_version>
43012

> <i_f3d_flags>
0

> <s_epik_input>
W0NIMl0xW0NIMl1bQ0hdMVtDSDJdT1tDQEBIXShbQ0gzXSlDKD1PKVtOSF1jMltjSF1bY0hdbltjSF1bY0hdMg==

> <s_epik_cmdline>
J2VwaWtfcHl0aG9uJywgJy1waCcsICc3LjAnLCAnLXRuJywgJzgnLCAnLW1hJywgJzIwMCcsICctbWV0YWxfYmluZGluZycsICctaW1hZScsICc8aW5maWxlLm1hZT4nLCAnLW9tYWUnLCAnPG91dGZpbGUubWFlPic=

> <r_epik_Ionization_Penalty>
0.00446435

> <r_epik_Ionization_Penalty_Charging>
0

> <r_epik_Ionization_Penalty_Neutral>
0.00446435

> <r_epik_State_Penalty>
0.00321941

> <r_epik_Charging_Adjusted_Penalty>
0.00321941

> <i_epik_Tot_Q>
0

> <i_epik_Tot_abs_Q>
0

> <r_epik_Metal_State_Penalty>
-0

> <b_epik_Metal_Only>
0

> <s_lp_Force_Field>
OPLS_2005

> <r_lp_Energy>
19.7696

> <b_lp_Chiralities_Consistent>
1

> <s_lp_Variant>
AV-unprocessed.smi:3207-2

> <Gold.Version>
5.8.1

> <Gold.Id.Protein>
6NUR|6NUR_protein|mol2

> <Gold.PLP.Fitness>
42.6638

> <Gold.PLP.PLP>
-40.2291

> <Gold.PLP.part.hbond>
-1.0000

> <Gold.PLP.part.metal>
0.0000

> <Gold.PLP.part.buried>
-5.3100

> <Gold.PLP.part.nonpolar>
-34.8950

> <Gold.PLP.part.repulsive>
0.2215

> <Gold.PLP.ligand.clash>
0.0000

> <Gold.PLP.ligand.torsion>
0.5667

> <Gold.PLP.Chemscore.Hbond>
1.0000

> <Gold.PLP.Chemscore.CHOScore>
0.0000

> <Gold.PLP.Chemscore.Metal>
0.0000

> <Gold.Chemscore.Hbonds>
donor molecule, donor type, donor heavy atom, donor atom, acceptor molecule, acceptor atom, score
      L1  H    10    28       P1  8028  1.00

> <Gold.PLP.Chemscore.Internal.Correction>
0.5682

> <Gold.Rescore>
     Score         DG    S(hbond)    S(metal)    S(lipo)     H(rot)  DE(clash)    DE(int)     intcor
     14.35     -16.42       0.99        0.00      97.63       1.48       0.10       1.97       ----

> <Gold.Chemscore.Fitness>
14.3455

> <Gold.Chemscore.DG>
-16.4163

> <Gold.Chemscore.ZeroCoef>
-5.4800

> <Gold.Chemscore.Hbond>
0.9891

> <Gold.Chemscore.Metal>
0.0000

> <Gold.Chemscore.Lipo>
97.6345

> <Gold.Chemscore.Internal_Hbond>
0.0000

> <Gold.Chemscore.DEClash>
0.1007

> <Gold.Chemscore.DEInternal>
1.9701

> <Gold.Chemscore.Rot>
1.4807

> <Gold.Chemscore.Internal.Correction>
   9.000000E+99

> <Gold.Chemscore.Hbonds>
donor molecule, donor type, donor heavy atom, donor atom, acceptor molecule, acceptor atom, score
      L1  H    10    28       P1  8028  1.00

> <Gold.Chemscore.Hbond.Weighted>
-3.3035

> <Gold.Chemscore.Metal.Weighted>
-0.0000

> <Gold.Chemscore.Lipo.Weighted>
-11.4232

> <Gold.Chemscore.Internal_Hbond.Weighted>
0.0000

> <Gold.Chemscore.DEClash.Weighted>
0.1007

> <Gold.Chemscore.DEInternal.Weighted>
1.9701

> <Gold.Chemscore.Rot.Weighted>
3.7905

> <Gold.Chemscore.Internal.Correction.Weighted>
   9.000000E+99

> <Gold.Protein.RotatedTorsions>
[ 6907 6896 6895 6894 ] final -163.58 input  -60.11 | X-H torsion
[ 7974 7965 7964 7962 ] final  122.63 input  175.53 | X-H torsion
[ 8008 7997 7996 7995 ] final  -11.36 input   59.86 | X-H torsion
[ 10167 10162 10161 10158 ] final  164.21 input  -65.29 | X-H torsion
[ 10718 10713 10712 10709 ] final  -72.37 input   66.30 | X-H torsion
[ 10763 10752 10751 10750 ] final  -92.01 input  -60.55 | X-H torsion
[ 11005 11000 10999 10996 ] final  -67.78 input  -57.11 | X-H torsion

> <Gold.Protein.ActiveResidues>
 VAL166  LYS551  ARG553  GLY616  TRP617  ASP618  TYR619  PRO620  LYS621  CYS622 
 ASP623  PHE694  ASN695  SER759  ASP760  ASP761  ALA762  ILE779  LEU786  VAL792 
 PHE793  MET794  SER795  GLU796  ALA797  LYS798  CYS799  TRP800  GLU811  SER814 

> <Gold.Protein.RotatedAtoms>
  151.3983  133.3766  159.2728 H   0  0  0  0  0  0  0  0  0  0  0  0  # atno 6907 bound_to 6896
  150.9452  134.8859  159.7648 H   0  0  0  0  0  0  0  0  0  0  0  0  # atno 6908 bound_to 6896
  152.5089  134.3936  159.9444 H   0  0  0  0  0  0  0  0  0  0  0  0  # atno 6909 bound_to 6896
  145.1053  139.3490  143.4791 H   0  0  0  0  0  0  0  0  0  0  0  0  # atno 7974 bound_to 7965
  154.5471  140.2304  155.8545 H   0  0  0  0  0  0  0  0  0  0  0  0  # atno 8008 bound_to 7997
  156.1913  140.3076  155.9299 H   0  0  0  0  0  0  0  0  0  0  0  0  # atno 8009 bound_to 7997
  155.3143  140.0437  157.3027 H   0  0  0  0  0  0  0  0  0  0  0  0  # atno 8010 bound_to 7997
  139.4885  144.4259  151.9130 H   0  0  0  0  0  0  0  0  0  0  0  0  # atno 10167 bound_to 10162
  156.0323  130.4371  150.2583 H   0  0  0  0  0  0  0  0  0  0  0  0  # atno 10718 bound_to 10713
  154.6818  135.5247  153.8273 H   0  0  0  0  0  0  0  0  0  0  0  0  # atno 10763 bound_to 10752
  153.0570  135.6554  154.0563 H   0  0  0  0  0  0  0  0  0  0  0  0  # atno 10764 bound_to 10752
  154.0449  135.2974  155.3329 H   0  0  0  0  0  0  0  0  0  0  0  0  # atno 10765 bound_to 10752
  141.1516  133.6726  156.6346 H   0  0  0  0  0  0  0  0  0  0  0  0  # atno 11005 bound_to 11000
  146.3528  140.0948  142.8611 LP  0  0  0  0  0  0  0  0  0  0  0  0  # atno 17320 bound_to 7965
  145.0909  140.9284  143.4769 LP  0  0  0  0  0  0  0  0  0  0  0  0  # atno 17321 bound_to 7965
  140.3704  144.2862  150.5921 LP  0  0  0  0  0  0  0  0  0  0  0  0  # atno 17342 bound_to 10162
  140.5324  143.2240  151.8218 LP  0  0  0  0  0  0  0  0  0  0  0  0  # atno 17343 bound_to 10162
  157.0684  131.0110  151.3198 LP  0  0  0  0  0  0  0  0  0  0  0  0  # atno 17370 bound_to 10713
  157.5018  130.7884  149.7612 LP  0  0  0  0  0  0  0  0  0  0  0  0  # atno 17371 bound_to 10713
  140.3440  134.7824  157.4419 LP  0  0  0  0  0  0  0  0  0  0  0  0  # atno 17394 bound_to 11000
  140.0914  134.5596  155.8440 LP  0  0  0  0  0  0  0  0  0  0  0  0  # atno 17395 bound_to 11000

$$$$
