AV-unprocessed.smi:2970|AV-procd|sdf|11331|dock6
  -GOLD-   2272016243D 1   1.00000     0.00000
 Structure written by MMmdl.
 38 39  0  0  0  0  0  0  0  0  1 V2000
  152.5839  138.7718  154.9631 C   0  0  0  0  0  0  0  0  0  0  0  0
  151.0666  138.7496  155.0303 C   0  0  0  0  0  0  0  0  0  0  0  0
  150.2387  138.9897  154.0083 C   0  0  0  0  0  0  0  0  0  0  0  0
  148.5558  138.9127  154.4695 S   0  0  0  0  0  0  0  0  0  0  0  0
  149.0287  138.5346  156.1649 C   0  0  0  0  0  0  0  0  0  0  0  0
  148.2069  138.3537  157.0620 O   0  0  0  0  0  0  0  0  0  0  0  0
  150.4202  138.4881  156.2468 N   0  0  0  0  0  0  0  0  0  0  0  0
  151.1332  138.1894  157.4959 C   0  0  0  0  0  0  0  0  0  0  0  0
  152.0425  139.3327  157.9660 C   0  0  0  0  0  0  0  0  0  0  0  0
  153.2662  139.1961  158.0094 O   0  0  0  0  0  0  0  0  0  0  0  0
  151.4162  140.4627  158.3290 N   0  0  0  0  0  0  0  0  0  0  0  0
  152.0681  141.6786  158.8105 C   0  0  0  0  0  0  0  0  0  0  0  0
  152.6923  141.4098  160.1962 C   0  0  0  0  0  0  0  0  0  0  0  0
  153.3847  142.6179  160.8501 C   0  0  0  0  0  0  0  0  0  0  0  0
  152.3877  143.6501  161.4000 C   0  0  0  0  0  0  0  0  0  0  0  0
  151.8996  144.7015  160.3880 C   0  0  0  0  0  0  0  0  0  0  0  0
  151.6845  144.2192  158.9428 C   0  0  0  0  0  0  0  0  0  0  0  0
  151.0411  142.8301  158.7940 C   0  0  0  0  0  0  0  0  0  0  0  0
  152.9152  139.2902  154.0629 H   0  0  0  0  0  0  0  0  0  0  0  0
  152.9769  137.7555  154.9328 H   0  0  0  0  0  0  0  0  0  0  0  0
  153.0185  139.2919  155.8167 H   0  0  0  0  0  0  0  0  0  0  0  0
  150.5253  139.2222  152.9933 H   0  0  0  0  0  0  0  0  0  0  0  0
  150.4094  137.9825  158.2859 H   0  0  0  0  0  0  0  0  0  0  0  0
  151.7194  137.2757  157.3974 H   0  0  0  0  0  0  0  0  0  0  0  0
  150.4088  140.4851  158.2633 H   0  0  0  0  0  0  0  0  0  0  0  0
  152.8675  141.9338  158.1121 H   0  0  0  0  0  0  0  0  0  0  0  0
  151.9353  141.0137  160.8745 H   0  0  0  0  0  0  0  0  0  0  0  0
  153.4337  140.6164  160.0929 H   0  0  0  0  0  0  0  0  0  0  0  0
  153.9740  142.2439  161.6881 H   0  0  0  0  0  0  0  0  0  0  0  0
  154.0994  143.0812  160.1688 H   0  0  0  0  0  0  0  0  0  0  0  0
  151.5301  143.1307  161.8295 H   0  0  0  0  0  0  0  0  0  0  0  0
  152.8484  144.1783  162.2355 H   0  0  0  0  0  0  0  0  0  0  0  0
  150.9700  145.1297  160.7649 H   0  0  0  0  0  0  0  0  0  0  0  0
  152.6110  145.5277  160.3633 H   0  0  0  0  0  0  0  0  0  0  0  0
  151.0563  144.9542  158.4383 H   0  0  0  0  0  0  0  0  0  0  0  0
  152.6329  144.2398  158.4047 H   0  0  0  0  0  0  0  0  0  0  0  0
  150.5279  142.8120  157.8313 H   0  0  0  0  0  0  0  0  0  0  0  0
  150.2659  142.6790  159.5466 H   0  0  0  0  0  0  0  0  0  0  0  0
  1  2  1  0  0  0  0
  1 19  1  0  0  0  0
  1 20  1  0  0  0  0
  1 21  1  0  0  0  0
  2  7  1  0  0  0  0
  2  3  2  0  0  0  0
  3  4  1  0  0  0  0
  3 22  1  0  0  0  0
  4  5  1  0  0  0  0
  5  6  2  0  0  0  0
  5  7  1  0  0  0  0
  7  8  1  0  0  0  0
  8  9  1  0  0  0  0
  8 23  1  0  0  0  0
  8 24  1  0  0  0  0
  9 10  2  0  0  0  0
  9 11  1  0  0  0  0
 11 12  1  0  0  0  0
 11 25  1  0  0  0  0
 12 18  1  0  0  0  0
 12 13  1  0  0  0  0
 12 26  1  0  0  0  0
 13 14  1  0  0  0  0
 13 27  1  0  0  0  0
 13 28  1  0  0  0  0
 14 15  1  0  0  0  0
 14 29  1  0  0  0  0
 14 30  1  0  0  0  0
 15 16  1  0  0  0  0
 15 31  1  0  0  0  0
 15 32  1  0  0  0  0
 16 17  1  0  0  0  0
 16 33  1  0  0  0  0
 16 34  1  0  0  0  0
 17 18  1  0  0  0  0
 17 35  1  0  0  0  0
 17 36  1  0  0  0  0
 18 37  1  0  0  0  0
 18 38  1  0  0  0  0
M  END
> <s_m_source_file>
AV-unprocessed.smi

> <i_m_source_file_index>
2970

> <i_lp_mmshare_version>
43012

> <i_f3d_flags>
0

> <s_epik_input>
W0NIM11jMVtjSF1zYyg9TyluMVtDSDJdQyg9TylbTkhdW0NIXTJbQ0gyXVtDSDJdW0NIMl1bQ0gyXVtDSDJdW0NIMl0y

> <s_epik_cmdline>
J2VwaWtfcHl0aG9uJywgJy1waCcsICc3LjAnLCAnLXRuJywgJzgnLCAnLW1hJywgJzIwMCcsICctbWV0YWxfYmluZGluZycsICctaW1hZScsICc8aW5maWxlLm1hZT4nLCAnLW9tYWUnLCAnPG91dGZpbGUubWFlPic=

> <r_lp_tautomer_probability>
1

> <r_epik_Ionization_Penalty>
1.32564e-06

> <r_epik_Ionization_Penalty_Charging>
1.22505e-06

> <r_epik_Ionization_Penalty_Neutral>
1.00582e-07

> <r_epik_State_Penalty>
-0

> <r_epik_Charging_Adjusted_Penalty>
1.22505e-06

> <i_epik_Tot_Q>
0

> <i_epik_Tot_abs_Q>
0

> <r_epik_Metal_State_Penalty>
-0

> <b_epik_Metal_Only>
0

> <s_lp_Force_Field>
OPLS_2005

> <r_lp_Energy>
18.3304

> <b_lp_Chiralities_Consistent>
1

> <s_lp_Variant>
AV-unprocessed.smi:2970-1

> <Gold.Version>
5.8.1

> <Gold.Id.Protein>
6NUR|6NUR_protein|mol2

> <Gold.PLP.Fitness>
41.5341

> <Gold.PLP.PLP>
-35.8059

> <Gold.PLP.part.hbond>
-1.0000

> <Gold.PLP.part.metal>
0.0000

> <Gold.PLP.part.buried>
-4.8458

> <Gold.PLP.part.nonpolar>
-29.9639

> <Gold.PLP.part.repulsive>
0.1191

> <Gold.PLP.ligand.clash>
0.0000

> <Gold.PLP.ligand.torsion>
0.1440

> <Gold.PLP.Chemscore.Hbond>
1.0000

> <Gold.PLP.Chemscore.CHOScore>
1.0000

> <Gold.PLP.Chemscore.Metal>
0.0000

> <Gold.Chemscore.Hbonds>
donor molecule, donor type, donor heavy atom, donor atom, acceptor molecule, acceptor atom, score
      P1  H  7997  8010       L1    10  1.00
      L1  C     3    22       P1  7957  1.00

> <Gold.PLP.Chemscore.Internal.Correction>
0.0161

> <Gold.Rescore>
     Score         DG    S(hbond)    S(metal)    S(lipo)     H(rot)  DE(clash)    DE(int)     intcor
     18.20     -18.47       0.99        0.00     113.48       1.40       0.12       0.15       ----

> <Gold.Chemscore.Fitness>
18.2047

> <Gold.Chemscore.DG>
-18.4715

> <Gold.Chemscore.ZeroCoef>
-5.4800

> <Gold.Chemscore.Hbond>
0.9850

> <Gold.Chemscore.Metal>
0.0000

> <Gold.Chemscore.Lipo>
113.4831

> <Gold.Chemscore.Internal_Hbond>
0.0000

> <Gold.Chemscore.DEClash>
0.1176

> <Gold.Chemscore.DEInternal>
0.1493

> <Gold.Chemscore.Rot>
1.3969

> <Gold.Chemscore.Internal.Correction>
   9.000000E+99

> <Gold.Chemscore.Hbonds>
donor molecule, donor type, donor heavy atom, donor atom, acceptor molecule, acceptor atom, score
      P1  H  7997  8010       L1    10  0.99

> <Gold.Chemscore.Hbond.Weighted>
-3.2901

> <Gold.Chemscore.Metal.Weighted>
-0.0000

> <Gold.Chemscore.Lipo.Weighted>
-13.2775

> <Gold.Chemscore.Internal_Hbond.Weighted>
0.0000

> <Gold.Chemscore.DEClash.Weighted>
0.1176

> <Gold.Chemscore.DEInternal.Weighted>
0.1493

> <Gold.Chemscore.Rot.Weighted>
3.5761

> <Gold.Chemscore.Internal.Correction.Weighted>
   9.000000E+99

> <Gold.Protein.RotatedTorsions>
[ 6907 6896 6895 6894 ] final  -91.92 input  -60.11 | X-H torsion
[ 7974 7965 7964 7962 ] final  -87.99 input  175.53 | X-H torsion
[ 8008 7997 7996 7995 ] final   20.82 input   59.86 | X-H torsion
[ 10167 10162 10161 10158 ] final   79.07 input  -65.29 | X-H torsion
[ 10718 10713 10712 10709 ] final -147.18 input   66.30 | X-H torsion
[ 10763 10752 10751 10750 ] final  151.97 input  -60.55 | X-H torsion
[ 11005 11000 10999 10996 ] final   97.34 input  -57.11 | X-H torsion

> <Gold.Protein.ActiveResidues>
 VAL166  LYS551  ARG553  GLY616  TRP617  ASP618  TYR619  PRO620  LYS621  CYS622 
 ASP623  PHE694  ASN695  SER759  ASP760  ASP761  ALA762  ILE779  LEU786  VAL792 
 PHE793  MET794  SER795  GLU796  ALA797  LYS798  CYS799  TRP800  GLU811  SER814 

> <Gold.Protein.RotatedAtoms>
  150.6899  134.2203  159.4393 H   0  0  0  0  0  0  0  0  0  0  0  0  # atno 6907 bound_to 6896
  152.0159  134.9847  160.0578 H   0  0  0  0  0  0  0  0  0  0  0  0  # atno 6908 bound_to 6896
  152.1443  133.4448  159.4819 H   0  0  0  0  0  0  0  0  0  0  0  0  # atno 6909 bound_to 6896
  145.4591  140.9561  143.1979 H   0  0  0  0  0  0  0  0  0  0  0  0  # atno 7974 bound_to 7965
  154.9414  140.3053  155.5119 H   0  0  0  0  0  0  0  0  0  0  0  0  # atno 8008 bound_to 7997
  156.2995  140.2335  156.4421 H   0  0  0  0  0  0  0  0  0  0  0  0  # atno 8009 bound_to 7997
  154.8142  140.0427  157.1353 H   0  0  0  0  0  0  0  0  0  0  0  0  # atno 8010 bound_to 7997
  139.9642  144.5939  150.8044 H   0  0  0  0  0  0  0  0  0  0  0  0  # atno 10167 bound_to 10162
  156.4043  130.7949  151.2162 H   0  0  0  0  0  0  0  0  0  0  0  0  # atno 10718 bound_to 10713
  154.1124  135.2838  155.3227 H   0  0  0  0  0  0  0  0  0  0  0  0  # atno 10763 bound_to 10752
  154.6480  135.5379  153.7871 H   0  0  0  0  0  0  0  0  0  0  0  0  # atno 10764 bound_to 10752
  153.0341  135.6503  154.1282 H   0  0  0  0  0  0  0  0  0  0  0  0  # atno 10765 bound_to 10752
  139.8776  134.8996  156.4292 H   0  0  0  0  0  0  0  0  0  0  0  0  # atno 11005 bound_to 11000
  144.8014  139.6134  143.7070 LP  0  0  0  0  0  0  0  0  0  0  0  0  # atno 17320 bound_to 7965
  146.2461  139.6101  142.9458 LP  0  0  0  0  0  0  0  0  0  0  0  0  # atno 17321 bound_to 7965
  140.7543  143.3025  151.3045 LP  0  0  0  0  0  0  0  0  0  0  0  0  # atno 17342 bound_to 10162
  139.6530  144.0327  152.2640 LP  0  0  0  0  0  0  0  0  0  0  0  0  # atno 17343 bound_to 10162
  157.7505  131.0277  150.4018 LP  0  0  0  0  0  0  0  0  0  0  0  0  # atno 17370 bound_to 10713
  156.4303  130.3971  149.6765 LP  0  0  0  0  0  0  0  0  0  0  0  0  # atno 17371 bound_to 10713
  140.9079  133.7733  155.9756 LP  0  0  0  0  0  0  0  0  0  0  0  0  # atno 17394 bound_to 11000
  140.8579  134.2876  157.5247 LP  0  0  0  0  0  0  0  0  0  0  0  0  # atno 17395 bound_to 11000

$$$$
