AV-unprocessed.smi:1404|AV-procd|sdf|5705|dock1
  -GOLD-   22720 5333D 1   1.00000     0.00000
 Structure written by MMmdl.
 47 48  0  0  0  0  0  0  0  0  1 V2000
  152.8731  143.6244  162.7145 C   0  0  0  0  0  0  0  0  0  0  0  0
  152.8219  143.0912  161.3692 N   0  0  0  0  0  0  0  0  0  0  0  0
  152.0300  143.7460  160.3947 C   0  0  0  0  0  0  0  0  0  0  0  0
  151.3759  144.7600  160.6405 O   0  0  0  0  0  0  0  0  0  0  0  0
  152.0565  143.1209  159.0778 C   0  0  0  0  0  0  0  0  0  0  0  0
  152.7922  142.0110  158.8501 C   0  0  0  0  0  0  0  0  0  0  0  0
  153.5607  141.3936  159.8200 N   0  0  0  0  0  0  0  0  0  0  0  0
  154.3256  140.1855  159.4859 C   0  0  0  0  0  0  0  0  0  0  0  0
  153.4330  139.0157  159.0519 C   0  0  0  0  0  0  0  0  0  0  0  0
  153.1313  138.1252  159.8476 O   0  0  0  0  0  0  0  0  0  0  0  0
  153.0030  139.0429  157.7838 N   0  0  0  0  0  0  0  0  0  0  0  0
  152.1711  138.0147  157.1671 C   0  0  0  0  0  0  0  0  0  0  0  0
  151.6143  138.4598  155.7847 C   0  0  0  0  0  0  0  0  0  0  0  0
  152.8275  138.6318  154.8395 C   0  0  0  0  0  0  0  0  0  0  0  0
  150.7770  137.2707  155.2488 C   0  0  0  0  0  0  0  0  0  0  0  0
  150.7813  139.6905  155.8970 N   0  0  0  0  0  0  0  0  0  0  0  0
  150.0511  140.0568  154.6775 C   0  0  0  0  0  0  0  0  0  0  0  0
  149.3127  141.3979  154.8257 C   0  0  0  0  0  0  0  0  0  0  0  0
  148.4286  141.3378  155.9385 O   0  0  0  0  0  0  0  0  0  0  0  0
  149.1064  141.0449  157.1540 C   0  0  0  0  0  0  0  0  0  0  0  0
  149.8445  139.7014  157.0263 C   0  0  0  0  0  0  0  0  0  0  0  0
  153.5909  141.9325  161.1240 C   0  0  0  0  0  0  0  0  0  0  0  0
  154.2677  141.4030  162.0098 O   0  0  0  0  0  0  0  0  0  0  0  0
  152.2159  144.4860  162.8268 H   0  0  0  0  0  0  0  0  0  0  0  0
  153.9074  143.9158  162.9052 H   0  0  0  0  0  0  0  0  0  0  0  0
  152.5521  142.8303  163.3912 H   0  0  0  0  0  0  0  0  0  0  0  0
  151.4784  143.5531  158.2744 H   0  0  0  0  0  0  0  0  0  0  0  0
  152.7751  141.5848  157.8575 H   0  0  0  0  0  0  0  0  0  0  0  0
  155.0245  140.3973  158.6758 H   0  0  0  0  0  0  0  0  0  0  0  0
  154.9415  139.8881  160.3369 H   0  0  0  0  0  0  0  0  0  0  0  0
  153.2961  139.8080  157.1933 H   0  0  0  0  0  0  0  0  0  0  0  0
  152.7382  137.0872  157.0749 H   0  0  0  0  0  0  0  0  0  0  0  0
  151.3534  137.7827  157.8515 H   0  0  0  0  0  0  0  0  0  0  0  0
  153.4110  137.7121  154.7821 H   0  0  0  0  0  0  0  0  0  0  0  0
  153.5064  139.4131  155.1807 H   0  0  0  0  0  0  0  0  0  0  0  0
  152.5265  138.8751  153.8208 H   0  0  0  0  0  0  0  0  0  0  0  0
  151.3228  136.3296  155.3258 H   0  0  0  0  0  0  0  0  0  0  0  0
  150.5212  137.3863  154.1957 H   0  0  0  0  0  0  0  0  0  0  0  0
  149.8452  137.1518  155.8031 H   0  0  0  0  0  0  0  0  0  0  0  0
  150.7284  140.1471  153.8303 H   0  0  0  0  0  0  0  0  0  0  0  0
  149.3268  139.2826  154.4239 H   0  0  0  0  0  0  0  0  0  0  0  0
  150.0219  142.2169  154.9576 H   0  0  0  0  0  0  0  0  0  0  0  0
  148.7375  141.6146  153.9255 H   0  0  0  0  0  0  0  0  0  0  0  0
  149.8049  141.8483  157.3931 H   0  0  0  0  0  0  0  0  0  0  0  0
  148.3791  141.0009  157.9648 H   0  0  0  0  0  0  0  0  0  0  0  0
  149.1072  138.9067  156.9124 H   0  0  0  0  0  0  0  0  0  0  0  0
  150.3643  139.5194  157.9649 H   0  0  0  0  0  0  0  0  0  0  0  0
  1  2  1  0  0  0  0
  1 24  1  0  0  0  0
  1 25  1  0  0  0  0
  1 26  1  0  0  0  0
  2 22  1  0  0  0  0
  2  3  1  0  0  0  0
  3  4  2  0  0  0  0
  3  5  1  0  0  0  0
  5  6  2  0  0  0  0
  5 27  1  0  0  0  0
  6  7  1  0  0  0  0
  6 28  1  0  0  0  0
  7  8  1  0  0  0  0
  7 22  1  0  0  0  0
  8  9  1  0  0  0  0
  8 29  1  0  0  0  0
  8 30  1  0  0  0  0
  9 10  2  0  0  0  0
  9 11  1  0  0  0  0
 11 12  1  0  0  0  0
 11 31  1  0  0  0  0
 12 13  1  0  0  0  0
 12 32  1  0  0  0  0
 12 33  1  0  0  0  0
 13 14  1  0  0  0  0
 13 15  1  0  0  0  0
 13 16  1  0  0  0  0
 14 34  1  0  0  0  0
 14 35  1  0  0  0  0
 14 36  1  0  0  0  0
 15 37  1  0  0  0  0
 15 38  1  0  0  0  0
 15 39  1  0  0  0  0
 16 21  1  0  0  0  0
 16 17  1  0  0  0  0
 17 18  1  0  0  0  0
 17 40  1  0  0  0  0
 17 41  1  0  0  0  0
 18 19  1  0  0  0  0
 18 42  1  0  0  0  0
 18 43  1  0  0  0  0
 19 20  1  0  0  0  0
 20 21  1  0  0  0  0
 20 44  1  0  0  0  0
 20 45  1  0  0  0  0
 21 46  1  0  0  0  0
 21 47  1  0  0  0  0
 22 23  2  0  0  0  0
M  END
> <s_m_source_file>
AV-unprocessed.smi

> <i_m_source_file_index>
1404

> <i_lp_mmshare_version>
43012

> <i_f3d_flags>
0

> <s_epik_input>
W0NIM11uMWMoPU8pW2NIXVtjSF1uKGMxPU8pW0NIMl1DKD1PKVtOSF1bQ0gyXUMoW0NIM10pKFtDSDNdKU4yW0NIMl1bQ0gyXU9bQ0gyXVtDSDJdMg==

> <s_epik_cmdline>
J2VwaWtfcHl0aG9uJywgJy1waCcsICc3LjAnLCAnLXRuJywgJzgnLCAnLW1hJywgJzIwMCcsICctbWV0YWxfYmluZGluZycsICctaW1hZScsICc8aW5maWxlLm1hZT4nLCAnLW9tYWUnLCAnPG91dGZpbGUubWFlPic=

> <r_lp_tautomer_probability>
1

> <r_epik_Ionization_Penalty>
0.237382

> <r_epik_Ionization_Penalty_Charging>
1.16427e-08

> <r_epik_Ionization_Penalty_Neutral>
0.237382

> <r_epik_State_Penalty>
0.228245

> <r_epik_Charging_Adjusted_Penalty>
0.228245

> <i_epik_Tot_Q>
0

> <i_epik_Tot_abs_Q>
0

> <r_epik_Metal_State_Penalty>
0.22822

> <b_epik_Metal_Only>
0

> <s_lp_Force_Field>
OPLS_2005

> <r_lp_Energy>
49.615

> <b_lp_Chiralities_Consistent>
1

> <s_lp_Variant>
AV-unprocessed.smi:1404-1

> <Gold.Version>
5.8.1

> <Gold.Id.Protein>
6NUR|6NUR_protein|mol2

> <Gold.PLP.Fitness>
41.7962

> <Gold.PLP.PLP>
-42.8428

> <Gold.PLP.part.hbond>
-0.9749

> <Gold.PLP.part.metal>
0.0000

> <Gold.PLP.part.buried>
-4.7471

> <Gold.PLP.part.nonpolar>
-37.6722

> <Gold.PLP.part.repulsive>
1.2798

> <Gold.PLP.ligand.clash>
0.0000

> <Gold.PLP.ligand.torsion>
0.5850

> <Gold.PLP.Chemscore.Hbond>
0.0000

> <Gold.PLP.Chemscore.CHOScore>
0.0000

> <Gold.PLP.Chemscore.Metal>
0.0000

> <Gold.PLP.Chemscore.Internal.Correction>
0.1233

> <Gold.Rescore>
     Score         DG    S(hbond)    S(metal)    S(lipo)     H(rot)  DE(clash)    DE(int)     intcor
      9.79     -10.32       0.00        0.00      86.57       2.07       0.11       0.42       ----

> <Gold.Chemscore.Fitness>
9.7906

> <Gold.Chemscore.DG>
-10.3191

> <Gold.Chemscore.ZeroCoef>
-5.4800

> <Gold.Chemscore.Hbond>
0.0000

> <Gold.Chemscore.Metal>
0.0000

> <Gold.Chemscore.Lipo>
86.5728

> <Gold.Chemscore.Internal_Hbond>
0.0000

> <Gold.Chemscore.DEClash>
0.1067

> <Gold.Chemscore.DEInternal>
0.4218

> <Gold.Chemscore.Rot>
2.0664

> <Gold.Chemscore.Internal.Correction>
   9.000000E+99

> <Gold.Chemscore.Hbond.Weighted>
-0.0000

> <Gold.Chemscore.Metal.Weighted>
-0.0000

> <Gold.Chemscore.Lipo.Weighted>
-10.1290

> <Gold.Chemscore.Internal_Hbond.Weighted>
0.0000

> <Gold.Chemscore.DEClash.Weighted>
0.1067

> <Gold.Chemscore.DEInternal.Weighted>
0.4218

> <Gold.Chemscore.Rot.Weighted>
5.2899

> <Gold.Chemscore.Internal.Correction.Weighted>
   9.000000E+99

> <Gold.Protein.RotatedTorsions>
[ 6907 6896 6895 6894 ] final  155.37 input  -60.11 | X-H torsion
[ 7974 7965 7964 7962 ] final  114.82 input  175.53 | X-H torsion
[ 8008 7997 7996 7995 ] final  -78.88 input   59.86 | X-H torsion
[ 10167 10162 10161 10158 ] final  159.92 input  -65.29 | X-H torsion
[ 10718 10713 10712 10709 ] final  153.54 input   66.30 | X-H torsion
[ 10763 10752 10751 10750 ] final -117.22 input  -60.55 | X-H torsion
[ 11005 11000 10999 10996 ] final -140.69 input  -57.11 | X-H torsion

> <Gold.Protein.ActiveResidues>
 VAL166  LYS551  ARG553  GLY616  TRP617  ASP618  TYR619  PRO620  LYS621  CYS622 
 ASP623  PHE694  ASN695  SER759  ASP760  ASP761  ALA762  ILE779  LEU786  VAL792 
 PHE793  MET794  SER795  GLU796  ALA797  LYS798  CYS799  TRP800  GLU811  SER814 

> <Gold.Protein.RotatedAtoms>
  152.0452  133.3994  159.4353 H   0  0  0  0  0  0  0  0  0  0  0  0  # atno 6907 bound_to 6896
  150.6873  134.3370  159.4861 H   0  0  0  0  0  0  0  0  0  0  0  0  # atno 6908 bound_to 6896
  152.1173  134.9230  160.0615 H   0  0  0  0  0  0  0  0  0  0  0  0  # atno 6909 bound_to 6896
  145.1997  139.2958  143.4325 H   0  0  0  0  0  0  0  0  0  0  0  0  # atno 7974 bound_to 7965
  154.5732  140.0687  156.8995 H   0  0  0  0  0  0  0  0  0  0  0  0  # atno 8008 bound_to 7997
  155.2597  140.3357  155.4256 H   0  0  0  0  0  0  0  0  0  0  0  0  # atno 8009 bound_to 7997
  156.2134  140.1768  156.7630 H   0  0  0  0  0  0  0  0  0  0  0  0  # atno 8010 bound_to 7997
  139.4836  144.4684  151.8610 H   0  0  0  0  0  0  0  0  0  0  0  0  # atno 10167 bound_to 10162
  157.2434  131.0764  151.1778 H   0  0  0  0  0  0  0  0  0  0  0  0  # atno 10718 bound_to 10713
  154.8547  135.4317  154.1945 H   0  0  0  0  0  0  0  0  0  0  0  0  # atno 10763 bound_to 10752
  153.3005  135.6968  153.7213 H   0  0  0  0  0  0  0  0  0  0  0  0  # atno 10764 bound_to 10752
  153.6345  135.3479  155.3026 H   0  0  0  0  0  0  0  0  0  0  0  0  # atno 10765 bound_to 10752
  140.8398  134.2416  157.4816 H   0  0  0  0  0  0  0  0  0  0  0  0  # atno 11005 bound_to 11000
  146.3420  140.2237  142.8592 LP  0  0  0  0  0  0  0  0  0  0  0  0  # atno 17320 bound_to 7965
  144.9960  140.8589  143.5310 LP  0  0  0  0  0  0  0  0  0  0  0  0  # atno 17321 bound_to 7965
  140.4151  144.2318  150.5888 LP  0  0  0  0  0  0  0  0  0  0  0  0  # atno 17342 bound_to 10162
  140.4929  143.2342  151.8793 LP  0  0  0  0  0  0  0  0  0  0  0  0  # atno 17343 bound_to 10162
  157.3355  130.7007  149.6350 LP  0  0  0  0  0  0  0  0  0  0  0  0  # atno 17370 bound_to 10713
  155.9669  130.4295  150.4835 LP  0  0  0  0  0  0  0  0  0  0  0  0  # atno 17371 bound_to 10713
  139.8703  134.9629  156.4445 LP  0  0  0  0  0  0  0  0  0  0  0  0  # atno 17394 bound_to 11000
  140.8908  133.7850  155.9569 LP  0  0  0  0  0  0  0  0  0  0  0  0  # atno 17395 bound_to 11000

$$$$
