AV-unprocessed.smi:3250|AV-procd|sdf|12429|dock4
  -GOLD-   2272018313D 1   1.00000     0.00000
 Structure written by MMmdl.
 38 39  0  0  0  0  0  0  0  0  1 V2000
  151.8912  145.8797  160.1181 C   0  0  0  0  0  0  0  0  0  0  0  0
  151.4127  144.6335  159.3600 C   0  0  0  0  0  0  0  0  0  0  0  0
  152.3306  143.4967  159.4003 N   0  0  0  0  0  0  0  0  0  0  0  0
  152.6698  143.0978  160.7641 C   0  0  0  0  0  0  0  0  0  0  0  0
  153.6063  141.8781  160.7877 C   0  0  0  0  0  0  0  0  0  0  0  0
  153.0069  140.8043  160.0710 O   0  0  0  0  0  0  0  0  0  0  0  0
  152.7190  141.1332  158.7140 C   0  0  1  0  0  0  0  0  0  0  0  0
  152.0838  139.9085  158.0427 C   0  0  0  0  0  0  0  0  0  0  0  0
  152.3685  139.8701  156.6162 N   0  0  0  0  0  0  0  0  0  0  0  0
  151.4007  139.7530  155.6370 C   0  0  0  0  0  0  0  0  0  0  0  0
  151.3087  138.5534  155.0584 N   0  0  0  0  0  0  0  0  0  0  0  0
  150.3673  138.4052  154.1011 C   0  0  0  0  0  0  0  0  0  0  0  0
  149.5177  139.4642  153.7240 C   0  0  0  0  0  0  0  0  0  0  0  0
  149.7033  140.6888  154.3964 C   0  0  0  0  0  0  0  0  0  0  0  0
  148.9079  141.7683  154.0725 O   0  0  0  0  0  0  0  0  0  0  0  0
  147.5890  141.5119  153.6029 C   0  0  0  0  0  0  0  0  0  0  0  0
  150.6514  140.8257  155.3571 N   0  0  0  0  0  0  0  0  0  0  0  0
  151.7696  142.3477  158.6972 C   0  0  0  0  0  0  0  0  0  0  0  0
  151.2045  146.7110  159.9582 H   0  0  0  0  0  0  0  0  0  0  0  0
  152.8772  146.1945  159.7749 H   0  0  0  0  0  0  0  0  0  0  0  0
  151.9449  145.7082  161.1928 H   0  0  0  0  0  0  0  0  0  0  0  0
  150.4330  144.3333  159.7347 H   0  0  0  0  0  0  0  0  0  0  0  0
  151.2592  144.9238  158.3198 H   0  0  0  0  0  0  0  0  0  0  0  0
  153.1552  143.9192  161.2897 H   0  0  0  0  0  0  0  0  0  0  0  0
  151.7598  142.8642  161.3190 H   0  0  0  0  0  0  0  0  0  0  0  0
  154.5736  142.1244  160.3470 H   0  0  0  0  0  0  0  0  0  0  0  0
  153.7921  141.5621  161.8141 H   0  0  0  0  0  0  0  0  0  0  0  0
  153.6451  141.3917  158.1965 H   0  0  0  0  0  0  0  0  0  0  0  0
  152.4404  138.9911  158.5123 H   0  0  0  0  0  0  0  0  0  0  0  0
  151.0017  139.9385  158.1761 H   0  0  0  0  0  0  0  0  0  0  0  0
  153.3336  139.8311  156.3222 H   0  0  0  0  0  0  0  0  0  0  0  0
  150.2911  137.4350  153.6329 H   0  0  0  0  0  0  0  0  0  0  0  0
  148.7648  139.3436  152.9592 H   0  0  0  0  0  0  0  0  0  0  0  0
  147.0886  142.4579  153.3974 H   0  0  0  0  0  0  0  0  0  0  0  0
  146.9969  140.9797  154.3487 H   0  0  0  0  0  0  0  0  0  0  0  0
  147.6001  140.9352  152.6771 H   0  0  0  0  0  0  0  0  0  0  0  0
  150.8161  142.0688  159.1492 H   0  0  0  0  0  0  0  0  0  0  0  0
  151.5547  142.6201  157.6631 H   0  0  0  0  0  0  0  0  0  0  0  0
  1  2  1  0  0  0  0
  1 19  1  0  0  0  0
  1 20  1  0  0  0  0
  1 21  1  0  0  0  0
  2  3  1  0  0  0  0
  2 22  1  0  0  0  0
  2 23  1  0  0  0  0
  3 18  1  0  0  0  0
  3  4  1  0  0  0  0
  4  5  1  0  0  0  0
  4 24  1  0  0  0  0
  4 25  1  0  0  0  0
  5  6  1  0  0  0  0
  5 26  1  0  0  0  0
  5 27  1  0  0  0  0
  6  7  1  0  0  0  0
  7  8  1  0  0  0  0
  7 18  1  0  0  0  0
  7 28  1  0  0  0  0
  8  9  1  0  0  0  0
  8 29  1  0  0  0  0
  8 30  1  0  0  0  0
  9 10  1  0  0  0  0
  9 31  1  0  0  0  0
 10 17  1  0  0  0  0
 10 11  2  0  0  0  0
 11 12  1  0  0  0  0
 12 13  2  0  0  0  0
 12 32  1  0  0  0  0
 13 14  1  0  0  0  0
 13 33  1  0  0  0  0
 14 15  1  0  0  0  0
 14 17  2  0  0  0  0
 15 16  1  0  0  0  0
 16 34  1  0  0  0  0
 16 35  1  0  0  0  0
 16 36  1  0  0  0  0
 18 37  1  0  0  0  0
 18 38  1  0  0  0  0
M  END
> <s_m_source_file>
AV-unprocessed.smi

> <i_m_source_file_index>
3250

> <i_lp_mmshare_version>
43012

> <i_f3d_flags>
0

> <s_epik_input>
W0NIM11bQ0gyXU4xW0NIMl1bQ0gyXU9bQ0BIXShbQ0gyXTEpW0NIMl1bTkhdYzJuW2NIXVtjSF1jKG4yKU9bQ0gzXQ==

> <s_epik_cmdline>
J2VwaWtfcHl0aG9uJywgJy1waCcsICc3LjAnLCAnLXRuJywgJzgnLCAnLW1hJywgJzIwMCcsICctbWV0YWxfYmluZGluZycsICctaW1hZScsICc8aW5maWxlLm1hZT4nLCAnLW9tYWUnLCAnPG91dGZpbGUubWFlPic=

> <r_lp_tautomer_probability>
1

> <r_epik_Ionization_Penalty>
0.832605

> <r_epik_Ionization_Penalty_Charging>
0

> <r_epik_Ionization_Penalty_Neutral>
0.832605

> <r_epik_State_Penalty>
0.927194

> <r_epik_Charging_Adjusted_Penalty>
0.927194

> <i_epik_Tot_Q>
0

> <i_epik_Tot_abs_Q>
0

> <r_epik_Metal_State_Penalty>
0.908632

> <b_epik_Metal_Only>
0

> <s_lp_Force_Field>
OPLS_2005

> <r_lp_Energy>
15.3419

> <b_lp_Chiralities_Consistent>
1

> <s_lp_Variant>
AV-unprocessed.smi:3250-5

> <Gold.Version>
5.8.1

> <Gold.Id.Protein>
6NUR|6NUR_protein|mol2

> <Gold.PLP.Fitness>
39.0846

> <Gold.PLP.PLP>
-37.2707

> <Gold.PLP.part.hbond>
-2.0000

> <Gold.PLP.part.metal>
0.0000

> <Gold.PLP.part.buried>
-1.8187

> <Gold.PLP.part.nonpolar>
-33.1749

> <Gold.PLP.part.repulsive>
1.2454

> <Gold.PLP.ligand.clash>
0.0000

> <Gold.PLP.ligand.torsion>
1.4647

> <Gold.PLP.Chemscore.Hbond>
0.4508

> <Gold.PLP.Chemscore.CHOScore>
1.1252

> <Gold.PLP.Chemscore.Metal>
0.0000

> <Gold.Chemscore.Hbonds>
donor molecule, donor type, donor heavy atom, donor atom, acceptor molecule, acceptor atom, score
      P1  H  8011  8017       L1    15  0.50
      L1  C    12    32       P1  7948  0.94
      L1  C    12    32       P1  7949  0.18

> <Gold.PLP.Chemscore.Internal.Correction>
0.0151

> <Gold.Rescore>
     Score         DG    S(hbond)    S(metal)    S(lipo)     H(rot)  DE(clash)    DE(int)     intcor
     10.14     -11.51       0.00        0.00      87.98       1.67       0.04       1.32       ----

> <Gold.Chemscore.Fitness>
10.1420

> <Gold.Chemscore.DG>
-11.5089

> <Gold.Chemscore.ZeroCoef>
-5.4800

> <Gold.Chemscore.Hbond>
0.0000

> <Gold.Chemscore.Metal>
0.0000

> <Gold.Chemscore.Lipo>
87.9753

> <Gold.Chemscore.Internal_Hbond>
0.0000

> <Gold.Chemscore.DEClash>
0.0443

> <Gold.Chemscore.DEInternal>
1.3225

> <Gold.Chemscore.Rot>
1.6657

> <Gold.Chemscore.Internal.Correction>
   9.000000E+99

> <Gold.Chemscore.Hbonds>
donor molecule, donor type, donor heavy atom, donor atom, acceptor molecule, acceptor atom, score
      P1  H  8011  8017       L1    15  0.04

> <Gold.Chemscore.Hbond.Weighted>
-0.0000

> <Gold.Chemscore.Metal.Weighted>
-0.0000

> <Gold.Chemscore.Lipo.Weighted>
-10.2931

> <Gold.Chemscore.Internal_Hbond.Weighted>
0.0000

> <Gold.Chemscore.DEClash.Weighted>
0.0443

> <Gold.Chemscore.DEInternal.Weighted>
1.3225

> <Gold.Chemscore.Rot.Weighted>
4.2642

> <Gold.Chemscore.Internal.Correction.Weighted>
   9.000000E+99

> <Gold.Protein.RotatedTorsions>
[ 6907 6896 6895 6894 ] final -114.47 input  -60.11 | X-H torsion
[ 7974 7965 7964 7962 ] final   39.53 input  175.53 | X-H torsion
[ 8008 7997 7996 7995 ] final  -32.35 input   59.86 | X-H torsion
[ 10167 10162 10161 10158 ] final  111.28 input  -65.29 | X-H torsion
[ 10718 10713 10712 10709 ] final  -10.80 input   66.30 | X-H torsion
[ 10763 10752 10751 10750 ] final -176.57 input  -60.55 | X-H torsion
[ 11005 11000 10999 10996 ] final  125.68 input  -57.11 | X-H torsion

> <Gold.Protein.ActiveResidues>
 VAL166  LYS551  ARG553  GLY616  TRP617  ASP618  TYR619  PRO620  LYS621  CYS622 
 ASP623  PHE694  ASN695  SER759  ASP760  ASP761  ALA762  ILE779  LEU786  VAL792 
 PHE793  MET794  SER795  GLU796  ALA797  LYS798  CYS799  TRP800  GLU811  SER814 

> <Gold.Protein.RotatedAtoms>
  150.7905  133.8796  159.3281 H   0  0  0  0  0  0  0  0  0  0  0  0  # atno 6907 bound_to 6896
  151.6635  135.0984  160.0193 H   0  0  0  0  0  0  0  0  0  0  0  0  # atno 6908 bound_to 6896
  152.3978  133.6733  159.6326 H   0  0  0  0  0  0  0  0  0  0  0  0  # atno 6909 bound_to 6896
  146.0976  139.5640  142.9435 H   0  0  0  0  0  0  0  0  0  0  0  0  # atno 7974 bound_to 7965
  154.4183  140.1740  156.1714 H   0  0  0  0  0  0  0  0  0  0  0  0  # atno 8008 bound_to 7997
  155.9757  140.3382  155.6593 H   0  0  0  0  0  0  0  0  0  0  0  0  # atno 8009 bound_to 7997
  155.6566  140.0696  157.2559 H   0  0  0  0  0  0  0  0  0  0  0  0  # atno 8010 bound_to 7997
  139.6623  144.7128  151.1841 H   0  0  0  0  0  0  0  0  0  0  0  0  # atno 10167 bound_to 10162
  156.6682  130.5001  149.6008 H   0  0  0  0  0  0  0  0  0  0  0  0  # atno 10718 bound_to 10713
  154.5707  135.2827  155.0830 H   0  0  0  0  0  0  0  0  0  0  0  0  # atno 10763 bound_to 10752
  154.2203  135.6392  153.5146 H   0  0  0  0  0  0  0  0  0  0  0  0  # atno 10764 bound_to 10752
  153.0057  135.5513  154.6330 H   0  0  0  0  0  0  0  0  0  0  0  0  # atno 10765 bound_to 10752
  139.9418  134.9634  156.8594 H   0  0  0  0  0  0  0  0  0  0  0  0  # atno 11005 bound_to 11000
  145.5917  141.0368  143.2067 LP  0  0  0  0  0  0  0  0  0  0  0  0  # atno 17320 bound_to 7965
  144.7408  139.7455  143.7311 LP  0  0  0  0  0  0  0  0  0  0  0  0  # atno 17321 bound_to 7965
  140.7585  143.5974  150.8734 LP  0  0  0  0  0  0  0  0  0  0  0  0  # atno 17342 bound_to 10162
  139.9632  143.6140  152.2996 LP  0  0  0  0  0  0  0  0  0  0  0  0  # atno 17343 bound_to 10162
  156.1959  130.6589  151.1113 LP  0  0  0  0  0  0  0  0  0  0  0  0  # atno 17370 bound_to 10713
  157.7086  131.0745  150.6580 LP  0  0  0  0  0  0  0  0  0  0  0  0  # atno 17371 bound_to 10713
  140.5932  134.0242  155.7508 LP  0  0  0  0  0  0  0  0  0  0  0  0  # atno 17394 bound_to 11000
  141.1056  133.9699  157.3003 LP  0  0  0  0  0  0  0  0  0  0  0  0  # atno 17395 bound_to 11000

$$$$
