AV-unprocessed.smi:2548|AV-procd|sdf|10008|dock9
  -GOLD-   2272014 53D 1   1.00000     0.00000
 Structure written by MMmdl.
 44 45  0  0  0  0  0  0  0  0  1 V2000
  146.9661  142.2253  154.3532 C   0  0  0  0  0  0  0  0  0  0  0  0
  148.1539  141.6525  155.0685 C   0  0  0  0  0  0  0  0  0  0  0  0
  149.4002  141.2377  154.5140 C   0  0  0  0  0  0  0  0  0  0  0  0
  150.1215  140.8032  155.5908 C   0  0  0  0  0  0  0  0  0  0  0  0
  151.5065  140.2436  155.6938 C   0  0  0  0  0  0  0  0  0  0  0  0
  152.0178  140.1936  157.1385 C   0  0  0  0  0  0  0  0  0  0  0  0
  152.9135  139.4145  157.4680 O   0  0  0  0  0  0  0  0  0  0  0  0
  151.4396  141.0528  157.9926 N   0  0  0  0  0  0  0  0  0  0  0  0
  151.7546  141.1889  159.4150 C   0  0  0  0  0  0  0  0  0  0  0  0
  152.9074  142.1957  159.7153 C   0  0  0  0  0  0  0  0  0  0  0  0
  154.2297  141.4024  159.8432 C   0  0  0  0  0  0  0  0  0  0  0  0
  153.0973  143.1868  158.5303 C   0  0  0  0  0  0  0  0  0  0  0  0
  151.8809  144.0477  158.1299 C   0  0  0  0  0  0  0  0  0  0  0  0
  151.7002  145.3622  158.9076 C   0  0  0  0  0  0  0  0  0  0  0  0
  151.9044  145.3028  160.4305 C   0  0  0  0  0  0  0  0  0  0  0  0
  151.5407  143.9692  161.1020 C   0  0  0  0  0  0  0  0  0  0  0  0
  152.6929  142.9476  161.0559 C   0  0  0  0  0  0  0  0  0  0  0  0
  149.3066  140.9672  156.6885 N   0  0  0  0  0  0  0  0  0  0  0  0
  148.1032  141.4855  156.3815 N   0  0  0  0  0  0  0  0  0  0  0  0
  149.5573  140.7380  157.6397 H   0  0  0  0  0  0  0  0  0  0  0  0
  147.1407  142.2764  153.2783 H   0  0  0  0  0  0  0  0  0  0  0  0
  146.7471  143.2349  154.7019 H   0  0  0  0  0  0  0  0  0  0  0  0
  146.0775  141.6146  154.5160 H   0  0  0  0  0  0  0  0  0  0  0  0
  149.7174  141.2598  153.4818 H   0  0  0  0  0  0  0  0  0  0  0  0
  152.1871  140.8481  155.0928 H   0  0  0  0  0  0  0  0  0  0  0  0
  151.5351  139.2355  155.2789 H   0  0  0  0  0  0  0  0  0  0  0  0
  150.7180  141.6598  157.6317 H   0  0  0  0  0  0  0  0  0  0  0  0
  150.8432  141.5259  159.9101 H   0  0  0  0  0  0  0  0  0  0  0  0
  151.9606  140.2034  159.8294 H   0  0  0  0  0  0  0  0  0  0  0  0
  155.0837  142.0695  159.9668 H   0  0  0  0  0  0  0  0  0  0  0  0
  154.4185  140.7958  158.9569 H   0  0  0  0  0  0  0  0  0  0  0  0
  154.2247  140.7317  160.7031 H   0  0  0  0  0  0  0  0  0  0  0  0
  153.9494  143.8414  158.7192 H   0  0  0  0  0  0  0  0  0  0  0  0
  153.3780  142.6034  157.6522 H   0  0  0  0  0  0  0  0  0  0  0  0
  151.9879  144.3135  157.0777 H   0  0  0  0  0  0  0  0  0  0  0  0
  150.9584  143.4732  158.1672 H   0  0  0  0  0  0  0  0  0  0  0  0
  152.3775  146.1150  158.5027 H   0  0  0  0  0  0  0  0  0  0  0  0
  150.6968  145.7363  158.7007 H   0  0  0  0  0  0  0  0  0  0  0  0
  152.9390  145.5544  160.6660 H   0  0  0  0  0  0  0  0  0  0  0  0
  151.3105  146.0996  160.8799 H   0  0  0  0  0  0  0  0  0  0  0  0
  151.3364  144.1777  162.1527 H   0  0  0  0  0  0  0  0  0  0  0  0
  150.6127  143.5610  160.7021 H   0  0  0  0  0  0  0  0  0  0  0  0
  152.5377  142.2223  161.8540 H   0  0  0  0  0  0  0  0  0  0  0  0
  153.6155  143.4583  161.3352 H   0  0  0  0  0  0  0  0  0  0  0  0
  1 21  1  0  0  0  0
  1 22  1  0  0  0  0
  1 23  1  0  0  0  0
  1  2  1  0  0  0  0
  2 19  2  0  0  0  0
  2  3  1  0  0  0  0
  3  4  2  0  0  0  0
  3 24  1  0  0  0  0
  4 18  1  0  0  0  0
  4  5  1  0  0  0  0
  5  6  1  0  0  0  0
  5 25  1  0  0  0  0
  5 26  1  0  0  0  0
  6  7  2  0  0  0  0
  6  8  1  0  0  0  0
  8  9  1  0  0  0  0
  8 27  1  0  0  0  0
  9 10  1  0  0  0  0
  9 28  1  0  0  0  0
  9 29  1  0  0  0  0
 10 17  1  0  0  0  0
 10 11  1  0  0  0  0
 10 12  1  0  0  0  0
 11 30  1  0  0  0  0
 11 31  1  0  0  0  0
 11 32  1  0  0  0  0
 12 13  1  0  0  0  0
 12 33  1  0  0  0  0
 12 34  1  0  0  0  0
 13 14  1  0  0  0  0
 13 35  1  0  0  0  0
 13 36  1  0  0  0  0
 14 15  1  0  0  0  0
 14 37  1  0  0  0  0
 14 38  1  0  0  0  0
 15 16  1  0  0  0  0
 15 39  1  0  0  0  0
 15 40  1  0  0  0  0
 16 17  1  0  0  0  0
 16 41  1  0  0  0  0
 16 42  1  0  0  0  0
 17 43  1  0  0  0  0
 17 44  1  0  0  0  0
 18 19  1  0  0  0  0
 18 20  1  0  0  0  0
M  END
> <s_m_source_file>
AV-unprocessed.smi

> <i_m_source_file_index>
2548

> <i_lp_mmshare_version>
43012

> <i_f3d_flags>
0

> <s_epik_input>
W0NIM11jMVtjSF1jKG5bbkhdMSlbQ0gyXUMoPU8pW05IXVtDSDJdQzIoW0NIM10pW0NIMl1bQ0gyXVtDSDJdW0NIMl1bQ0gyXVtDSDJdMg==

> <s_epik_cmdline>
J2VwaWtfcHl0aG9uJywgJy1waCcsICc3LjAnLCAnLXRuJywgJzgnLCAnLW1hJywgJzIwMCcsICctbWV0YWxfYmluZGluZycsICctaW1hZScsICc8aW5maWxlLm1hZT4nLCAnLW9tYWUnLCAnPG91dGZpbGUubWFlPic=

> <r_lp_tautomer_probability>
0.5

> <r_epik_Ionization_Penalty>
0.000120089

> <r_epik_Ionization_Penalty_Charging>
0

> <r_epik_Ionization_Penalty_Neutral>
0.000120089

> <r_epik_State_Penalty>
0.41068

> <r_epik_Charging_Adjusted_Penalty>
0.41068

> <i_epik_Tot_Q>
0

> <i_epik_Tot_abs_Q>
0

> <r_epik_Metal_State_Penalty>
0.410662

> <b_epik_Metal_Only>
0

> <s_lp_Force_Field>
OPLS_2005

> <r_lp_Energy>
21.4694

> <b_lp_Chiralities_Consistent>
1

> <s_lp_Variant>
AV-unprocessed.smi:2548-2

> <Gold.Version>
5.8.1

> <Gold.Id.Protein>
6NUR|6NUR_protein|mol2

> <Gold.PLP.Fitness>
45.7213

> <Gold.PLP.PLP>
-45.5421

> <Gold.PLP.part.hbond>
-1.0000

> <Gold.PLP.part.metal>
0.0000

> <Gold.PLP.part.buried>
-2.4590

> <Gold.PLP.part.nonpolar>
-41.7875

> <Gold.PLP.part.repulsive>
0.2081

> <Gold.PLP.ligand.clash>
0.0000

> <Gold.PLP.ligand.torsion>
1.4158

> <Gold.PLP.Chemscore.Hbond>
1.0000

> <Gold.PLP.Chemscore.CHOScore>
0.0000

> <Gold.PLP.Chemscore.Metal>
0.0000

> <Gold.Chemscore.Hbonds>
donor molecule, donor type, donor heavy atom, donor atom, acceptor molecule, acceptor atom, score
      P1  H  7997  8009       L1     7  1.00

> <Gold.PLP.Chemscore.Internal.Correction>
0.0107

> <Gold.Rescore>
     Score         DG    S(hbond)    S(metal)    S(lipo)     H(rot)  DE(clash)    DE(int)     intcor
     17.10     -20.36       0.97        0.00     133.50       1.55       0.24       3.02       ----

> <Gold.Chemscore.Fitness>
17.0973

> <Gold.Chemscore.DG>
-20.3588

> <Gold.Chemscore.ZeroCoef>
-5.4800

> <Gold.Chemscore.Hbond>
0.9653

> <Gold.Chemscore.Metal>
0.0000

> <Gold.Chemscore.Lipo>
133.5028

> <Gold.Chemscore.Internal_Hbond>
0.0000

> <Gold.Chemscore.DEClash>
0.2415

> <Gold.Chemscore.DEInternal>
3.0200

> <Gold.Chemscore.Rot>
1.5489

> <Gold.Chemscore.Internal.Correction>
   9.000000E+99

> <Gold.Chemscore.Hbonds>
donor molecule, donor type, donor heavy atom, donor atom, acceptor molecule, acceptor atom, score
      P1  H  7997  8009       L1     7  0.50

> <Gold.Chemscore.Hbond.Weighted>
-3.2242

> <Gold.Chemscore.Metal.Weighted>
-0.0000

> <Gold.Chemscore.Lipo.Weighted>
-15.6198

> <Gold.Chemscore.Internal_Hbond.Weighted>
0.0000

> <Gold.Chemscore.DEClash.Weighted>
0.2415

> <Gold.Chemscore.DEInternal.Weighted>
3.0200

> <Gold.Chemscore.Rot.Weighted>
3.9652

> <Gold.Chemscore.Internal.Correction.Weighted>
   9.000000E+99

> <Gold.Protein.RotatedTorsions>
[ 6907 6896 6895 6894 ] final  -51.43 input  -60.11 | X-H torsion
[ 7974 7965 7964 7962 ] final  -41.36 input  175.53 | X-H torsion
[ 8008 7997 7996 7995 ] final  175.01 input   59.86 | X-H torsion
[ 10167 10162 10161 10158 ] final   68.12 input  -65.29 | X-H torsion
[ 10718 10713 10712 10709 ] final   -5.71 input   66.30 | X-H torsion
[ 10763 10752 10751 10750 ] final   99.02 input  -60.55 | X-H torsion
[ 11005 11000 10999 10996 ] final -137.54 input  -57.11 | X-H torsion

> <Gold.Protein.ActiveResidues>
 VAL166  LYS551  ARG553  GLY616  TRP617  ASP618  TYR619  PRO620  LYS621  CYS622 
 ASP623  PHE694  ASN695  SER759  ASP760  ASP761  ALA762  ILE779  LEU786  VAL792 
 PHE793  MET794  SER795  GLU796  ALA797  LYS798  CYS799  TRP800  GLU811  SER814 

> <Gold.Protein.RotatedAtoms>
  150.8612  134.7964  159.7083 H   0  0  0  0  0  0  0  0  0  0  0  0  # atno 6907 bound_to 6896
  152.4648  134.5097  159.9760 H   0  0  0  0  0  0  0  0  0  0  0  0  # atno 6908 bound_to 6896
  151.5201  133.3430  159.2935 H   0  0  0  0  0  0  0  0  0  0  0  0  # atno 6909 bound_to 6896
  146.0218  140.6841  142.9175 H   0  0  0  0  0  0  0  0  0  0  0  0  # atno 7974 bound_to 7965
  156.0915  140.1420  156.9586 H   0  0  0  0  0  0  0  0  0  0  0  0  # atno 8008 bound_to 7997
  154.4645  140.0931  156.7029 H   0  0  0  0  0  0  0  0  0  0  0  0  # atno 8009 bound_to 7997
  155.4912  140.3448  155.4357 H   0  0  0  0  0  0  0  0  0  0  0  0  # atno 8010 bound_to 7997
  140.0821  144.5061  150.7155 H   0  0  0  0  0  0  0  0  0  0  0  0  # atno 10167 bound_to 10162
  156.7426  130.5214  149.5821 H   0  0  0  0  0  0  0  0  0  0  0  0  # atno 10718 bound_to 10713
  153.2962  135.4128  155.1212 H   0  0  0  0  0  0  0  0  0  0  0  0  # atno 10763 bound_to 10752
  154.8535  135.3530  154.5914 H   0  0  0  0  0  0  0  0  0  0  0  0  # atno 10764 bound_to 10752
  153.6338  135.7059  153.5324 H   0  0  0  0  0  0  0  0  0  0  0  0  # atno 10765 bound_to 10752
  140.8701  134.2061  157.4656 H   0  0  0  0  0  0  0  0  0  0  0  0  # atno 11005 bound_to 11000
  144.6993  140.3579  143.7169 LP  0  0  0  0  0  0  0  0  0  0  0  0  # atno 17320 bound_to 7965
  145.7181  139.1702  143.2500 LP  0  0  0  0  0  0  0  0  0  0  0  0  # atno 17321 bound_to 7965
  140.7072  143.2477  151.4690 LP  0  0  0  0  0  0  0  0  0  0  0  0  # atno 17342 bound_to 10162
  139.5773  144.1789  152.1921 LP  0  0  0  0  0  0  0  0  0  0  0  0  # atno 17343 bound_to 10162
  156.1454  130.6273  151.0524 LP  0  0  0  0  0  0  0  0  0  0  0  0  # atno 17370 bound_to 10713
  157.6812  131.0837  150.7365 LP  0  0  0  0  0  0  0  0  0  0  0  0  # atno 17371 bound_to 10713
  139.8711  134.9770  156.4943 LP  0  0  0  0  0  0  0  0  0  0  0  0  # atno 17394 bound_to 11000
  140.8583  133.8079  155.9239 LP  0  0  0  0  0  0  0  0  0  0  0  0  # atno 17395 bound_to 11000

$$$$
