AV-unprocessed.smi:845|AV-procd|sdf|3933|dock7
  -GOLD-   22720 1393D 1   1.00000     0.00000
 Structure written by MMmdl.
 41 42  0  0  0  0  0  0  0  0  2 V2000
  148.9453  140.9445  155.2452 C   0  0  0  0  0  0  0  0  0  0  0  0
  148.8151  140.0052  156.4562 C   0  0  0  0  0  0  0  0  0  0  0  0
  147.6919  140.4752  157.4012 C   0  0  0  0  0  0  0  0  0  0  0  0
  150.1983  139.6882  157.1092 C   0  0  2  0  0  0  0  0  0  0  0  0
  150.2709  138.2872  157.7752 C   0  0  0  0  0  0  0  0  0  0  0  0
  149.2592  138.1290  158.8174 N   0  0  0  0  0  0  0  0  0  0  0  0
  148.9080  136.9875  159.4269 C   0  0  0  0  0  0  0  0  0  0  0  0
  149.4441  135.9234  159.1093 O   0  0  0  0  0  0  0  0  0  0  0  0
  147.9533  137.1506  160.3709 N   0  5  0  0  0  0  0  0  0  0  0  0
  147.4507  136.0811  161.0089 C   0  0  0  0  0  0  0  0  0  0  0  0
  146.7826  136.1678  162.1650 N   0  0  0  0  0  0  0  0  0  0  0  0
  146.3451  134.9328  162.6473 C   0  0  0  0  0  0  0  0  0  0  0  0
  146.6789  133.8825  161.8341 C   0  0  0  0  0  0  0  0  0  0  0  0
  147.5594  134.4159  160.4307 S   0  0  0  0  0  0  0  0  0  0  0  0
  150.7711  140.7862  157.9143 N   0  0  0  0  0  0  0  0  0  0  0  0
  151.9613  140.4414  158.6915 C   0  0  0  0  0  0  0  0  0  0  0  0
  152.4245  141.6160  159.5703 C   0  0  0  0  0  0  0  0  0  0  0  0
  152.6608  142.7611  158.7573 O   0  0  0  0  0  0  0  0  0  0  0  0
  151.5108  143.1543  158.0152 C   0  0  0  0  0  0  0  0  0  0  0  0
  151.0446  141.9874  157.1283 C   0  0  0  0  0  0  0  0  0  0  0  0
  149.2429  141.9488  155.5478 H   0  0  0  0  0  0  0  0  0  0  0  0
  147.9979  141.0285  154.7121 H   0  0  0  0  0  0  0  0  0  0  0  0
  149.6883  140.5749  154.5379 H   0  0  0  0  0  0  0  0  0  0  0  0
  148.4591  139.0600  156.0448 H   0  0  0  0  0  0  0  0  0  0  0  0
  147.8037  141.5163  157.6959 H   0  0  0  0  0  0  0  0  0  0  0  0
  147.6251  139.8680  158.3025 H   0  0  0  0  0  0  0  0  0  0  0  0
  146.7264  140.4010  156.9002 H   0  0  0  0  0  0  0  0  0  0  0  0
  150.8528  139.6031  156.2402 H   0  0  0  0  0  0  0  0  0  0  0  0
  150.0828  137.5044  157.0418 H   0  0  0  0  0  0  0  0  0  0  0  0
  151.2727  138.0987  158.1609 H   0  0  0  0  0  0  0  0  0  0  0  0
  148.7869  138.9693  159.1167 H   0  0  0  0  0  0  0  0  0  0  0  0
  145.8005  134.8948  163.5788 H   0  0  0  0  0  0  0  0  0  0  0  0
  146.4614  132.8342  161.9726 H   0  0  0  0  0  0  0  0  0  0  0  0
  151.7740  139.5867  159.3328 H   0  0  0  0  0  0  0  0  0  0  0  0
  152.7767  140.1606  158.0246 H   0  0  0  0  0  0  0  0  0  0  0  0
  151.6756  141.8482  160.3290 H   0  0  0  0  0  0  0  0  0  0  0  0
  153.3433  141.3567  160.0961 H   0  0  0  0  0  0  0  0  0  0  0  0
  150.7169  143.4622  158.6974 H   0  0  0  0  0  0  0  0  0  0  0  0
  151.7606  144.0203  157.4022 H   0  0  0  0  0  0  0  0  0  0  0  0
  151.8131  141.7855  156.3821 H   0  0  0  0  0  0  0  0  0  0  0  0
  150.1494  142.2888  156.5835 H   0  0  0  0  0  0  0  0  0  0  0  0
  1  2  1  0  0  0  0
  1 21  1  0  0  0  0
  1 22  1  0  0  0  0
  1 23  1  0  0  0  0
  2  3  1  0  0  0  0
  2  4  1  0  0  0  0
  2 24  1  0  0  0  0
  3 25  1  0  0  0  0
  3 26  1  0  0  0  0
  3 27  1  0  0  0  0
  4  5  1  0  0  0  0
  4 15  1  0  0  0  0
  4 28  1  0  0  0  0
  5  6  1  0  0  0  0
  5 29  1  0  0  0  0
  5 30  1  0  0  0  0
  6  7  1  0  0  0  0
  6 31  1  0  0  0  0
  7  8  2  0  0  0  0
  7  9  1  0  0  0  0
  9 10  1  0  0  0  0
 10 14  1  0  0  0  0
 10 11  2  0  0  0  0
 11 12  1  0  0  0  0
 12 13  2  0  0  0  0
 12 32  1  0  0  0  0
 13 14  1  0  0  0  0
 13 33  1  0  0  0  0
 15 20  1  0  0  0  0
 15 16  1  0  0  0  0
 16 17  1  0  0  0  0
 16 34  1  0  0  0  0
 16 35  1  0  0  0  0
 17 18  1  0  0  0  0
 17 36  1  0  0  0  0
 17 37  1  0  0  0  0
 18 19  1  0  0  0  0
 19 20  1  0  0  0  0
 19 38  1  0  0  0  0
 19 39  1  0  0  0  0
 20 40  1  0  0  0  0
 20 41  1  0  0  0  0
M  CHG  1   9  -1
M  END
> <s_m_source_file>
AV-unprocessed.smi

> <i_m_source_file_index>
845

> <i_lp_mmshare_version>
43012

> <i_f3d_flags>
0

> <s_epik_input>
W0NIMl0xW0NIMl1PW0NIMl1bQ0gyXU4xW0NASF0oW0NIXShbQ0gzXSlbQ0gzXSlbQ0gyXVtOSF1DKD1PKVtOSF1jMm5bY0hdW2NIXXMy

> <s_epik_cmdline>
J2VwaWtfcHl0aG9uJywgJy1waCcsICc3LjAnLCAnLXRuJywgJzgnLCAnLW1hJywgJzIwMCcsICctbWV0YWxfYmluZGluZycsICctaW1hZScsICc8aW5maWxlLm1hZT4nLCAnLW9tYWUnLCAnPG91dGZpbGUubWFlPic=

> <r_lp_tautomer_probability>
0.999

> <r_epik_Ionization_Penalty>
9.02543

> <r_epik_Ionization_Penalty_Charging>
6.76546

> <r_epik_Ionization_Penalty_Neutral>
2.25997

> <r_epik_State_Penalty>
7.18984

> <r_epik_Charging_Adjusted_Penalty>
13.9553

> <i_epik_Tot_Q>
-1

> <i_epik_Tot_abs_Q>
1

> <r_epik_Metal_State_Penalty>
3.11401

> <b_epik_Metal_Only>
1

> <s_lp_Force_Field>
OPLS_2005

> <r_lp_Energy>
34.1255

> <b_lp_Chiralities_Consistent>
1

> <s_lp_Variant>
AV-unprocessed.smi:845-7

> <Gold.Version>
5.8.1

> <Gold.Id.Protein>
6NUR|6NUR_protein|mol2

> <Gold.PLP.Fitness>
42.5197

> <Gold.PLP.PLP>
-31.6630

> <Gold.PLP.part.hbond>
-3.0000

> <Gold.PLP.part.metal>
0.0000

> <Gold.PLP.part.buried>
-6.0213

> <Gold.PLP.part.nonpolar>
-24.3078

> <Gold.PLP.part.repulsive>
0.2340

> <Gold.PLP.ligand.clash>
0.0000

> <Gold.PLP.ligand.torsion>
0.7724

> <Gold.PLP.Chemscore.Hbond>
3.9704

> <Gold.PLP.Chemscore.CHOScore>
0.0000

> <Gold.PLP.Chemscore.Metal>
0.0000

> <Gold.Chemscore.Hbonds>
donor molecule, donor type, donor heavy atom, donor atom, acceptor molecule, acceptor atom, score
      P1  H  6896  6909       L1     8  1.00
      P1  H  6931  6943       L1     9  0.96
      P1  H  6934  6947       L1     9  1.32

> <Gold.PLP.Chemscore.Internal.Correction>
0.4903

> <Gold.Rescore>
     Score         DG    S(hbond)    S(metal)    S(lipo)     H(rot)  DE(clash)    DE(int)     intcor
     13.07     -15.61       1.77        0.00      73.31       1.71       0.09       2.46       ----

> <Gold.Chemscore.Fitness>
13.0677

> <Gold.Chemscore.DG>
-15.6081

> <Gold.Chemscore.ZeroCoef>
-5.4800

> <Gold.Chemscore.Hbond>
1.7734

> <Gold.Chemscore.Metal>
0.0000

> <Gold.Chemscore.Lipo>
73.3126

> <Gold.Chemscore.Internal_Hbond>
0.0000

> <Gold.Chemscore.DEClash>
0.0853

> <Gold.Chemscore.DEInternal>
2.4550

> <Gold.Chemscore.Rot>
1.7081

> <Gold.Chemscore.Internal.Correction>
   9.000000E+99

> <Gold.Chemscore.Hbonds>
donor molecule, donor type, donor heavy atom, donor atom, acceptor molecule, acceptor atom, score
      P1  H  6896  6909       L1     8  0.99
      P1  H  6931  6943       L1     9  0.07
      P1  H  6934  6947       L1     9  0.60

> <Gold.Chemscore.Hbond.Weighted>
-5.9233

> <Gold.Chemscore.Metal.Weighted>
-0.0000

> <Gold.Chemscore.Lipo.Weighted>
-8.5776

> <Gold.Chemscore.Internal_Hbond.Weighted>
0.0000

> <Gold.Chemscore.DEClash.Weighted>
0.0853

> <Gold.Chemscore.DEInternal.Weighted>
2.4550

> <Gold.Chemscore.Rot.Weighted>
4.3728

> <Gold.Chemscore.Internal.Correction.Weighted>
   9.000000E+99

> <Gold.Protein.RotatedTorsions>
[ 6907 6896 6895 6894 ] final   47.28 input  -60.11 | X-H torsion
[ 7974 7965 7964 7962 ] final  -11.55 input  175.53 | X-H torsion
[ 8008 7997 7996 7995 ] final  149.07 input   59.86 | X-H torsion
[ 10167 10162 10161 10158 ] final  131.84 input  -65.29 | X-H torsion
[ 10718 10713 10712 10709 ] final  -41.10 input   66.30 | X-H torsion
[ 10763 10752 10751 10750 ] final  -80.54 input  -60.55 | X-H torsion
[ 11005 11000 10999 10996 ] final  -40.70 input  -57.11 | X-H torsion

> <Gold.Protein.ActiveResidues>
 VAL166  LYS551  ARG553  GLY616  TRP617  ASP618  TYR619  PRO620  LYS621  CYS622 
 ASP623  PHE694  ASN695  SER759  ASP760  ASP761  ALA762  ILE779  LEU786  VAL792 
 PHE793  MET794  SER795  GLU796  ALA797  LYS798  CYS799  TRP800  GLU811  SER814 

> <Gold.Protein.RotatedAtoms>
  152.2662  134.7981  160.0421 H   0  0  0  0  0  0  0  0  0  0  0  0  # atno 6907 bound_to 6896
  151.8610  133.3452  159.3712 H   0  0  0  0  0  0  0  0  0  0  0  0  # atno 6908 bound_to 6896
  150.7135  134.5134  159.5662 H   0  0  0  0  0  0  0  0  0  0  0  0  # atno 6909 bound_to 6896
  146.2183  140.2927  142.8369 H   0  0  0  0  0  0  0  0  0  0  0  0  # atno 7974 bound_to 7965
  156.2768  140.2112  156.5799 H   0  0  0  0  0  0  0  0  0  0  0  0  # atno 8008 bound_to 7997
  154.7067  140.0516  157.0534 H   0  0  0  0  0  0  0  0  0  0  0  0  # atno 8009 bound_to 7997
  155.0661  140.3171  155.4648 H   0  0  0  0  0  0  0  0  0  0  0  0  # atno 8010 bound_to 7997
  139.5366  144.6689  151.4765 H   0  0  0  0  0  0  0  0  0  0  0  0  # atno 10167 bound_to 10162
  156.2740  130.4210  149.8407 H   0  0  0  0  0  0  0  0  0  0  0  0  # atno 10718 bound_to 10713
  154.5525  135.5657  153.6934 H   0  0  0  0  0  0  0  0  0  0  0  0  # atno 10763 bound_to 10752
  152.9993  135.6254  154.2355 H   0  0  0  0  0  0  0  0  0  0  0  0  # atno 10764 bound_to 10752
  154.2290  135.2866  155.2876 H   0  0  0  0  0  0  0  0  0  0  0  0  # atno 10765 bound_to 10752
  141.0193  133.6870  156.2357 H   0  0  0  0  0  0  0  0  0  0  0  0  # atno 11005 bound_to 11000
  144.9115  140.7762  143.5805 LP  0  0  0  0  0  0  0  0  0  0  0  0  # atno 17320 bound_to 7965
  145.2858  139.1901  143.4766 LP  0  0  0  0  0  0  0  0  0  0  0  0  # atno 17321 bound_to 7965
  140.6576  143.8567  150.6852 LP  0  0  0  0  0  0  0  0  0  0  0  0  # atno 17342 bound_to 10162
  140.1952  143.4004  152.1833 LP  0  0  0  0  0  0  0  0  0  0  0  0  # atno 17343 bound_to 10162
  156.5878  130.8493  151.3400 LP  0  0  0  0  0  0  0  0  0  0  0  0  # atno 17370 bound_to 10713
  157.7293  130.9669  150.1782 LP  0  0  0  0  0  0  0  0  0  0  0  0  # atno 17371 bound_to 10713
  140.6600  134.4978  157.5583 LP  0  0  0  0  0  0  0  0  0  0  0  0  # atno 17394 bound_to 11000
  139.9136  134.8292  156.1441 LP  0  0  0  0  0  0  0  0  0  0  0  0  # atno 17395 bound_to 11000

$$$$
