AV-unprocessed.smi:1821|AV-procd|sdf|7387|dock6
  -GOLD-   22720 9 53D 1   1.00000     0.00000
 Structure written by MMmdl.
 35 37  0  0  0  0  0  0  0  0  1 V2000
  154.3509  137.0826  158.4917 C   0  0  0  0  0  0  0  0  0  0  0  0
  153.8861  138.4347  158.9324 C   0  0  0  0  0  0  0  0  0  0  0  0
  154.4119  139.0587  159.9864 N   0  0  0  0  0  0  0  0  0  0  0  0
  153.7028  140.2441  160.0211 C   0  0  0  0  0  0  0  0  0  0  0  0
  153.7889  141.3401  160.9093 C   0  0  0  0  0  0  0  0  0  0  0  0
  152.9476  142.4600  160.7450 C   0  0  0  0  0  0  0  0  0  0  0  0
  152.0098  142.5001  159.6928 C   0  0  0  0  0  0  0  0  0  0  0  0
  151.9074  141.4188  158.7967 C   0  0  0  0  0  0  0  0  0  0  0  0
  152.7500  140.3034  158.9645 C   0  0  0  0  0  0  0  0  0  0  0  0
  152.9028  139.1015  158.2799 N   0  0  0  0  0  0  0  0  0  0  0  0
  152.1514  138.6697  157.1094 C   0  0  0  0  0  0  0  0  0  0  0  0
  152.0860  139.7495  156.0095 C   0  0  1  0  0  0  0  0  0  0  0  0
  153.1172  139.5486  155.0612 O   0  0  0  0  0  0  0  0  0  0  0  0
  150.7050  139.8055  155.3653 C   0  0  0  0  0  0  0  0  0  0  0  0
  150.2255  138.7252  154.5857 C   0  0  0  0  0  0  0  0  0  0  0  0
  150.9846  137.6185  154.3992 F   0  0  0  0  0  0  0  0  0  0  0  0
  148.9472  138.7858  153.9977 C   0  0  0  0  0  0  0  0  0  0  0  0
  148.1347  139.9187  154.1866 C   0  0  0  0  0  0  0  0  0  0  0  0
  148.6002  140.9922  154.9682 C   0  0  0  0  0  0  0  0  0  0  0  0
  149.8785  140.9373  155.5571 C   0  0  0  0  0  0  0  0  0  0  0  0
  150.3028  141.9804  156.3106 F   0  0  0  0  0  0  0  0  0  0  0  0
  155.1384  136.7166  159.1513 H   0  0  0  0  0  0  0  0  0  0  0  0
  154.7489  137.1311  157.4780 H   0  0  0  0  0  0  0  0  0  0  0  0
  153.5272  136.3696  158.5160 H   0  0  0  0  0  0  0  0  0  0  0  0
  154.5037  141.3185  161.7186 H   0  0  0  0  0  0  0  0  0  0  0  0
  153.0215  143.2918  161.4302 H   0  0  0  0  0  0  0  0  0  0  0  0
  151.3680  143.3610  159.5747 H   0  0  0  0  0  0  0  0  0  0  0  0
  151.1874  141.4440  157.9923 H   0  0  0  0  0  0  0  0  0  0  0  0
  152.6087  137.7580  156.7233 H   0  0  0  0  0  0  0  0  0  0  0  0
  151.1451  138.3904  157.4229 H   0  0  0  0  0  0  0  0  0  0  0  0
  152.2965  140.7167  156.4647 H   0  0  0  0  0  0  0  0  0  0  0  0
  153.2908  138.6217  154.9976 H   0  0  0  0  0  0  0  0  0  0  0  0
  148.5887  137.9593  153.4020 H   0  0  0  0  0  0  0  0  0  0  0  0
  147.1543  139.9626  153.7357 H   0  0  0  0  0  0  0  0  0  0  0  0
  147.9748  141.8599  155.1179 H   0  0  0  0  0  0  0  0  0  0  0  0
  1  2  1  0  0  0  0
  1 22  1  0  0  0  0
  1 23  1  0  0  0  0
  1 24  1  0  0  0  0
  2 10  1  0  0  0  0
  2  3  2  0  0  0  0
  3  4  1  0  0  0  0
  4  9  2  0  0  0  0
  4  5  1  0  0  0  0
  5  6  2  0  0  0  0
  5 25  1  0  0  0  0
  6  7  1  0  0  0  0
  6 26  1  0  0  0  0
  7  8  2  0  0  0  0
  7 27  1  0  0  0  0
  8  9  1  0  0  0  0
  8 28  1  0  0  0  0
  9 10  1  0  0  0  0
 10 11  1  0  0  0  0
 11 12  1  0  0  0  0
 11 29  1  0  0  0  0
 11 30  1  0  0  0  0
 12 13  1  0  0  0  0
 12 14  1  0  0  0  0
 12 31  1  0  0  0  0
 13 32  1  0  0  0  0
 14 20  1  0  0  0  0
 14 15  2  0  0  0  0
 15 16  1  0  0  0  0
 15 17  1  0  0  0  0
 17 18  2  0  0  0  0
 17 33  1  0  0  0  0
 18 19  1  0  0  0  0
 18 34  1  0  0  0  0
 19 20  2  0  0  0  0
 19 35  1  0  0  0  0
 20 21  1  0  0  0  0
M  END
> <s_m_source_file>
AV-unprocessed.smi

> <i_m_source_file_index>
1821

> <i_lp_mmshare_version>
43012

> <i_f3d_flags>
0

> <s_epik_input>
W2NIXTFbY0hdW2NIXVtjSF1jKGMxMiluKGMobjIpW0NIM10pW0NIMl1bQ0BIXShbT0hdKWMzYyhGKVtjSF1bY0hdW2NIXWMzRg==

> <s_epik_cmdline>
J2VwaWtfcHl0aG9uJywgJy1waCcsICc3LjAnLCAnLXRuJywgJzgnLCAnLW1hJywgJzIwMCcsICctbWV0YWxfYmluZGluZycsICctaW1hZScsICc8aW5maWxlLm1hZT4nLCAnLW9tYWUnLCAnPG91dGZpbGUubWFlPic=

> <r_epik_Ionization_Penalty>
0.129663

> <r_epik_Ionization_Penalty_Charging>
0

> <r_epik_Ionization_Penalty_Neutral>
0.129663

> <r_epik_State_Penalty>
0.119073

> <r_epik_Charging_Adjusted_Penalty>
0.119073

> <i_epik_Tot_Q>
0

> <i_epik_Tot_abs_Q>
0

> <r_epik_Metal_State_Penalty>
0.000131867

> <b_epik_Metal_Only>
0

> <s_lp_Force_Field>
OPLS_2005

> <r_lp_Energy>
13.032

> <b_lp_Chiralities_Consistent>
1

> <s_lp_Variant>
AV-unprocessed.smi:1821-2

> <Gold.Version>
5.8.1

> <Gold.Id.Protein>
6NUR|6NUR_protein|mol2

> <Gold.PLP.Fitness>
45.5742

> <Gold.PLP.PLP>
-43.9278

> <Gold.PLP.part.hbond>
-1.6254

> <Gold.PLP.part.metal>
0.0000

> <Gold.PLP.part.buried>
-1.6368

> <Gold.PLP.part.nonpolar>
-41.1374

> <Gold.PLP.part.repulsive>
0.0000

> <Gold.PLP.ligand.clash>
0.0000

> <Gold.PLP.ligand.torsion>
0.6924

> <Gold.PLP.Chemscore.Hbond>
1.0000

> <Gold.PLP.Chemscore.CHOScore>
0.0000

> <Gold.PLP.Chemscore.Metal>
0.0000

> <Gold.Chemscore.Hbonds>
donor molecule, donor type, donor heavy atom, donor atom, acceptor molecule, acceptor atom, score
      P1  H  7997  8010       L1    13  1.00

> <Gold.PLP.Chemscore.Internal.Correction>
0.0312

> <Gold.Rescore>
     Score         DG    S(hbond)    S(metal)    S(lipo)     H(rot)  DE(clash)    DE(int)     intcor
     13.53     -15.32       0.52        0.00     110.56       1.88       0.07       1.72       ----

> <Gold.Chemscore.Fitness>
13.5260

> <Gold.Chemscore.DG>
-15.3194

> <Gold.Chemscore.ZeroCoef>
-5.4800

> <Gold.Chemscore.Hbond>
0.5169

> <Gold.Chemscore.Metal>
0.0000

> <Gold.Chemscore.Lipo>
110.5616

> <Gold.Chemscore.Internal_Hbond>
0.0000

> <Gold.Chemscore.DEClash>
0.0747

> <Gold.Chemscore.DEInternal>
1.7188

> <Gold.Chemscore.Rot>
1.8839

> <Gold.Chemscore.Internal.Correction>
   9.000000E+99

> <Gold.Chemscore.Hbonds>
donor molecule, donor type, donor heavy atom, donor atom, acceptor molecule, acceptor atom, score
      P1  H  7997  8010       L1    13  0.20

> <Gold.Chemscore.Hbond.Weighted>
-1.7265

> <Gold.Chemscore.Metal.Weighted>
-0.0000

> <Gold.Chemscore.Lipo.Weighted>
-12.9357

> <Gold.Chemscore.Internal_Hbond.Weighted>
0.0000

> <Gold.Chemscore.DEClash.Weighted>
0.0747

> <Gold.Chemscore.DEInternal.Weighted>
1.7188

> <Gold.Chemscore.Rot.Weighted>
4.8227

> <Gold.Chemscore.Internal.Correction.Weighted>
   9.000000E+99

> <Gold.Protein.RotatedTorsions>
[ 6907 6896 6895 6894 ] final  106.67 input  -60.11 | X-H torsion
[ 7974 7965 7964 7962 ] final -156.41 input  175.53 | X-H torsion
[ 8008 7997 7996 7995 ] final  108.04 input   59.86 | X-H torsion
[ 10167 10162 10161 10158 ] final   11.58 input  -65.29 | X-H torsion
[ 10718 10713 10712 10709 ] final  152.75 input   66.30 | X-H torsion
[ 10763 10752 10751 10750 ] final  158.60 input  -60.55 | X-H torsion
[ 11005 11000 10999 10996 ] final  -52.20 input  -57.11 | X-H torsion

> <Gold.Protein.ActiveResidues>
 VAL166  LYS551  ARG553  GLY616  TRP617  ASP618  TYR619  PRO620  LYS621  CYS622 
 ASP623  PHE694  ASN695  SER759  ASP760  ASP761  ALA762  ILE779  LEU786  VAL792 
 PHE793  MET794  SER795  GLU796  ALA797  LYS798  CYS799  TRP800  GLU811  SER814 

> <Gold.Protein.RotatedAtoms>
  152.5185  133.9348  159.7597 H   0  0  0  0  0  0  0  0  0  0  0  0  # atno 6907 bound_to 6896
  150.9690  133.6355  159.2748 H   0  0  0  0  0  0  0  0  0  0  0  0  # atno 6908 bound_to 6896
  151.3573  135.0902  159.9476 H   0  0  0  0  0  0  0  0  0  0  0  0  # atno 6909 bound_to 6896
  144.7594  140.4113  143.5988 H   0  0  0  0  0  0  0  0  0  0  0  0  # atno 7974 bound_to 7965
  156.1872  140.3084  155.9261 H   0  0  0  0  0  0  0  0  0  0  0  0  # atno 8008 bound_to 7997
  155.3255  140.0458  157.3058 H   0  0  0  0  0  0  0  0  0  0  0  0  # atno 8009 bound_to 7997
  154.5409  140.2261  155.8652 H   0  0  0  0  0  0  0  0  0  0  0  0  # atno 8010 bound_to 7997
  140.6123  143.8382  150.7079 H   0  0  0  0  0  0  0  0  0  0  0  0  # atno 10167 bound_to 10162
  157.2537  131.0784  151.1713 H   0  0  0  0  0  0  0  0  0  0  0  0  # atno 10718 bound_to 10713
  154.2185  135.2783  155.2933 H   0  0  0  0  0  0  0  0  0  0  0  0  # atno 10763 bound_to 10752
  154.5721  135.5615  153.7108 H   0  0  0  0  0  0  0  0  0  0  0  0  # atno 10764 bound_to 10752
  153.0047  135.6324  154.2325 H   0  0  0  0  0  0  0  0  0  0  0  0  # atno 10765 bound_to 10752
  141.0912  133.6632  156.3990 H   0  0  0  0  0  0  0  0  0  0  0  0  # atno 11005 bound_to 11000
  145.6669  139.1592  143.2776 LP  0  0  0  0  0  0  0  0  0  0  0  0  # atno 17320 bound_to 7965
  146.1641  140.6744  142.9264 LP  0  0  0  0  0  0  0  0  0  0  0  0  # atno 17321 bound_to 7965
  140.1953  143.4003  152.1832 LP  0  0  0  0  0  0  0  0  0  0  0  0  # atno 17342 bound_to 10162
  139.5371  144.7220  151.4858 LP  0  0  0  0  0  0  0  0  0  0  0  0  # atno 17343 bound_to 10162
  157.3251  130.6956  149.6291 LP  0  0  0  0  0  0  0  0  0  0  0  0  # atno 17370 bound_to 10713
  155.9665  130.4324  150.4961 LP  0  0  0  0  0  0  0  0  0  0  0  0  # atno 17371 bound_to 10713
  140.5248  134.6270  157.5330 LP  0  0  0  0  0  0  0  0  0  0  0  0  # atno 17394 bound_to 11000
  139.9738  134.7249  155.9989 LP  0  0  0  0  0  0  0  0  0  0  0  0  # atno 17395 bound_to 11000

$$$$
