AV-unprocessed.smi:2758|AV-procd|sdf|10623|dock6
  -GOLD-   2272015 73D 1   1.00000     0.00000
 Structure written by MMmdl.
 32 33  0  0  0  0  0  0  0  0  1 V2000
  146.4993  142.5915  153.7552 C   0  0  0  0  0  0  0  0  0  0  0  0
  147.4103  142.0784  154.7114 O   0  0  0  0  0  0  0  0  0  0  0  0
  148.1445  140.9677  154.2230 C   0  0  0  0  0  0  0  0  0  0  0  0
  149.1881  140.5479  155.2709 C   0  0  2  0  0  0  0  0  0  0  0  0
  148.5134  140.2148  156.4687 O   0  0  0  0  0  0  0  0  0  0  0  0
  150.1996  141.6775  155.5554 C   0  0  0  0  0  0  0  0  0  0  0  0
  151.1561  141.3351  156.6003 N   0  0  0  0  0  0  0  0  0  0  0  0
  151.8979  140.2060  156.7133 C   0  0  0  0  0  0  0  0  0  0  0  0
  151.8192  139.1051  155.7038 C   0  0  0  0  0  0  0  0  0  0  0  0
  152.7036  140.1423  157.7736 N   0  0  0  0  0  0  0  0  0  0  0  0
  152.4649  141.3463  158.4079 C   0  0  0  0  0  0  0  0  0  0  0  0
  153.0146  141.8843  159.5936 C   0  0  0  0  0  0  0  0  0  0  0  0
  152.6135  143.1557  160.0536 C   0  0  0  0  0  0  0  0  0  0  0  0
  151.6586  143.9056  159.3367 C   0  0  0  0  0  0  0  0  0  0  0  0
  151.0979  143.3880  158.1531 C   0  0  0  0  0  0  0  0  0  0  0  0
  151.5019  142.1185  157.6977 C   0  0  0  0  0  0  0  0  0  0  0  0
  149.7250  139.6679  154.9161 H   0  0  0  0  0  0  0  0  0  0  0  0
  145.9653  143.4426  154.1777 H   0  0  0  0  0  0  0  0  0  0  0  0
  145.7622  141.8402  153.4687 H   0  0  0  0  0  0  0  0  0  0  0  0
  147.0193  142.9324  152.8591 H   0  0  0  0  0  0  0  0  0  0  0  0
  147.4447  140.1475  154.0544 H   0  0  0  0  0  0  0  0  0  0  0  0
  148.6156  141.1907  153.2637 H   0  0  0  0  0  0  0  0  0  0  0  0
  148.8690  139.4043  156.7991 H   0  0  0  0  0  0  0  0  0  0  0  0
  150.7497  141.9297  154.6485 H   0  0  0  0  0  0  0  0  0  0  0  0
  149.6755  142.5876  155.8498 H   0  0  0  0  0  0  0  0  0  0  0  0
  152.4623  138.2738  155.9945 H   0  0  0  0  0  0  0  0  0  0  0  0
  152.1448  139.4649  154.7277 H   0  0  0  0  0  0  0  0  0  0  0  0
  150.7982  138.7339  155.6226 H   0  0  0  0  0  0  0  0  0  0  0  0
  153.7461  141.3176  160.1504 H   0  0  0  0  0  0  0  0  0  0  0  0
  153.0399  143.5572  160.9611 H   0  0  0  0  0  0  0  0  0  0  0  0
  151.3561  144.8780  159.6965 H   0  0  0  0  0  0  0  0  0  0  0  0
  150.3650  143.9594  157.6037 H   0  0  0  0  0  0  0  0  0  0  0  0
  1  2  1  0  0  0  0
  1 18  1  0  0  0  0
  1 19  1  0  0  0  0
  1 20  1  0  0  0  0
  2  3  1  0  0  0  0
  3  4  1  0  0  0  0
  3 21  1  0  0  0  0
  3 22  1  0  0  0  0
  4 17  1  0  0  0  0
  4  5  1  0  0  0  0
  4  6  1  0  0  0  0
  5 23  1  0  0  0  0
  6  7  1  0  0  0  0
  6 24  1  0  0  0  0
  6 25  1  0  0  0  0
  7 16  1  0  0  0  0
  7  8  1  0  0  0  0
  8  9  1  0  0  0  0
  8 10  2  0  0  0  0
  9 26  1  0  0  0  0
  9 27  1  0  0  0  0
  9 28  1  0  0  0  0
 10 11  1  0  0  0  0
 11 16  2  0  0  0  0
 11 12  1  0  0  0  0
 12 13  2  0  0  0  0
 12 29  1  0  0  0  0
 13 14  1  0  0  0  0
 13 30  1  0  0  0  0
 14 15  2  0  0  0  0
 14 31  1  0  0  0  0
 15 16  1  0  0  0  0
 15 32  1  0  0  0  0
M  END
> <s_m_source_file>
AV-unprocessed.smi

> <i_m_source_file_index>
2758

> <i_lp_mmshare_version>
43012

> <i_f3d_flags>
0

> <s_epik_input>
W0NIM11PW0NIMl1bQ0BASF0oW09IXSlbQ0gyXW4oYyhuMSlbQ0gzXSljKGMxMilbY0hdW2NIXVtjSF1bY0hdMg==

> <s_epik_cmdline>
J2VwaWtfcHl0aG9uJywgJy1waCcsICc3LjAnLCAnLXRuJywgJzgnLCAnLW1hJywgJzIwMCcsICctbWV0YWxfYmluZGluZycsICctaW1hZScsICc8aW5maWxlLm1hZT4nLCAnLW9tYWUnLCAnPG91dGZpbGUubWFlPic=

> <r_epik_Ionization_Penalty>
0.126985

> <r_epik_Ionization_Penalty_Charging>
0

> <r_epik_Ionization_Penalty_Neutral>
0.126985

> <r_epik_State_Penalty>
0.116428

> <r_epik_Charging_Adjusted_Penalty>
0.116428

> <i_epik_Tot_Q>
0

> <i_epik_Tot_abs_Q>
0

> <r_epik_Metal_State_Penalty>
0.000128642

> <b_epik_Metal_Only>
0

> <s_lp_Force_Field>
OPLS_2005

> <r_lp_Energy>
9.16729

> <b_lp_Chiralities_Consistent>
1

> <s_lp_Variant>
AV-unprocessed.smi:2758-2

> <Gold.Version>
5.8.1

> <Gold.Id.Protein>
6NUR|6NUR_protein|mol2

> <Gold.PLP.Fitness>
37.8831

> <Gold.PLP.PLP>
-35.1131

> <Gold.PLP.part.hbond>
-1.0000

> <Gold.PLP.part.metal>
0.0000

> <Gold.PLP.part.buried>
-4.2862

> <Gold.PLP.part.nonpolar>
-29.2900

> <Gold.PLP.part.repulsive>
0.1488

> <Gold.PLP.ligand.clash>
0.0000

> <Gold.PLP.ligand.torsion>
0.1261

> <Gold.PLP.Chemscore.Hbond>
1.0000

> <Gold.PLP.Chemscore.CHOScore>
0.0000

> <Gold.PLP.Chemscore.Metal>
0.0000

> <Gold.Chemscore.Hbonds>
donor molecule, donor type, donor heavy atom, donor atom, acceptor molecule, acceptor atom, score
      P1  H  7997  8008       L1    10  0.90

> <Gold.PLP.Chemscore.Internal.Correction>
0.0223

> <Gold.Rescore>
     Score         DG    S(hbond)    S(metal)    S(lipo)     H(rot)  DE(clash)    DE(int)     intcor
     13.44     -13.60       0.73        0.00      93.41       2.05       0.10       0.06       ----

> <Gold.Chemscore.Fitness>
13.4443

> <Gold.Chemscore.DG>
-13.6008

> <Gold.Chemscore.ZeroCoef>
-5.4800

> <Gold.Chemscore.Hbond>
0.7316

> <Gold.Chemscore.Metal>
0.0000

> <Gold.Chemscore.Lipo>
93.4069

> <Gold.Chemscore.Internal_Hbond>
0.0000

> <Gold.Chemscore.DEClash>
0.1009

> <Gold.Chemscore.DEInternal>
0.0556

> <Gold.Chemscore.Rot>
2.0513

> <Gold.Chemscore.Internal.Correction>
   9.000000E+99

> <Gold.Chemscore.Hbonds>
donor molecule, donor type, donor heavy atom, donor atom, acceptor molecule, acceptor atom, score
      P1  H  7997  8008       L1    10  0.15

> <Gold.Chemscore.Hbond.Weighted>
-2.4436

> <Gold.Chemscore.Metal.Weighted>
-0.0000

> <Gold.Chemscore.Lipo.Weighted>
-10.9286

> <Gold.Chemscore.Internal_Hbond.Weighted>
0.0000

> <Gold.Chemscore.DEClash.Weighted>
0.1009

> <Gold.Chemscore.DEInternal.Weighted>
0.0556

> <Gold.Chemscore.Rot.Weighted>
5.2514

> <Gold.Chemscore.Internal.Correction.Weighted>
   9.000000E+99

> <Gold.Protein.RotatedTorsions>
[ 6907 6896 6895 6894 ] final -115.41 input  -60.11 | X-H torsion
[ 7974 7965 7964 7962 ] final   37.66 input  175.53 | X-H torsion
[ 8008 7997 7996 7995 ] final  -69.92 input   59.86 | X-H torsion
[ 10167 10162 10161 10158 ] final  -86.41 input  -65.29 | X-H torsion
[ 10718 10713 10712 10709 ] final  148.77 input   66.30 | X-H torsion
[ 10763 10752 10751 10750 ] final    2.20 input  -60.55 | X-H torsion
[ 11005 11000 10999 10996 ] final  -60.80 input  -57.11 | X-H torsion

> <Gold.Protein.ActiveResidues>
 VAL166  LYS551  ARG553  GLY616  TRP617  ASP618  TYR619  PRO620  LYS621  CYS622 
 ASP623  PHE694  ASN695  SER759  ASP760  ASP761  ALA762  ILE779  LEU786  VAL792 
 PHE793  MET794  SER795  GLU796  ALA797  LYS798  CYS799  TRP800  GLU811  SER814 

> <Gold.Protein.RotatedAtoms>
  150.7976  133.8662  159.3245 H   0  0  0  0  0  0  0  0  0  0  0  0  # atno 6907 bound_to 6896
  151.6483  135.1003  160.0165 H   0  0  0  0  0  0  0  0  0  0  0  0  # atno 6908 bound_to 6896
  152.4059  133.6849  159.6391 H   0  0  0  0  0  0  0  0  0  0  0  0  # atno 6909 bound_to 6896
  146.1121  139.5867  142.9345 H   0  0  0  0  0  0  0  0  0  0  0  0  # atno 7974 bound_to 7965
  154.4973  140.0844  156.7724 H   0  0  0  0  0  0  0  0  0  0  0  0  # atno 8008 bound_to 7997
  155.4085  140.3440  155.4244 H   0  0  0  0  0  0  0  0  0  0  0  0  # atno 8009 bound_to 7997
  156.1411  140.1529  156.8907 H   0  0  0  0  0  0  0  0  0  0  0  0  # atno 8010 bound_to 7997
  140.3944  143.2690  151.9223 H   0  0  0  0  0  0  0  0  0  0  0  0  # atno 10167 bound_to 10162
  157.3044  131.0876  151.1365 H   0  0  0  0  0  0  0  0  0  0  0  0  # atno 10718 bound_to 10713
  153.2986  135.6954  153.7225 H   0  0  0  0  0  0  0  0  0  0  0  0  # atno 10763 bound_to 10752
  153.6148  135.3438  155.2992 H   0  0  0  0  0  0  0  0  0  0  0  0  # atno 10764 bound_to 10752
  154.8544  135.4372  154.2090 H   0  0  0  0  0  0  0  0  0  0  0  0  # atno 10765 bound_to 10752
  141.1301  133.6625  156.5278 H   0  0  0  0  0  0  0  0  0  0  0  0  # atno 11005 bound_to 11000
  145.5643  141.0401  143.2209 LP  0  0  0  0  0  0  0  0  0  0  0  0  # atno 17320 bound_to 7965
  144.7520  139.7169  143.7269 LP  0  0  0  0  0  0  0  0  0  0  0  0  # atno 17321 bound_to 7965
  139.4787  144.5695  151.8111 LP  0  0  0  0  0  0  0  0  0  0  0  0  # atno 17342 bound_to 10162
  140.4805  144.1456  150.5932 LP  0  0  0  0  0  0  0  0  0  0  0  0  # atno 17343 bound_to 10162
  157.2711  130.6705  149.6020 LP  0  0  0  0  0  0  0  0  0  0  0  0  # atno 17370 bound_to 10713
  155.9673  130.4479  150.5597 LP  0  0  0  0  0  0  0  0  0  0  0  0  # atno 17371 bound_to 10713
  140.4240  134.7161  157.4906 LP  0  0  0  0  0  0  0  0  0  0  0  0  # atno 17394 bound_to 11000
  140.0340  134.6365  155.9068 LP  0  0  0  0  0  0  0  0  0  0  0  0  # atno 17395 bound_to 11000

$$$$
