AV-unprocessed.smi:2636|AV-procd|sdf|10259|dock9
  -GOLD-   2272014273D 1   1.00000     0.00000
 Structure written by MMmdl.
 35 36  0  0  0  0  0  0  0  0  2 V2000
  149.8968  137.9341  158.2397 C   0  0  0  0  0  0  0  0  0  0  0  0
  151.3922  138.1933  158.2674 C   0  0  0  0  0  0  0  0  0  0  0  0
  152.1805  137.8037  159.2905 C   0  0  0  0  0  0  0  0  0  0  0  0
  153.5637  138.0462  159.3041 N   0  0  0  0  0  0  0  0  0  0  0  0
  154.3501  137.5435  160.4176 C   0  0  0  0  0  0  0  0  0  0  0  0
  154.0770  138.3114  161.5433 O   0  0  0  0  0  0  0  0  0  0  0  0
  154.6659  139.6011  161.4934 C   0  0  0  0  0  0  0  0  0  0  0  0
  153.7878  140.6012  160.7654 C   0  0  0  0  0  0  0  0  0  0  0  0
  153.7745  141.9300  160.9854 C   0  0  0  0  0  0  0  0  0  0  0  0
  152.9331  142.9251  160.2957 C   0  0  0  0  0  0  0  0  0  0  0  0
  152.9245  143.0745  158.8882 C   0  0  0  0  0  0  0  0  0  0  0  0
  152.1017  144.0398  158.2754 C   0  0  0  0  0  0  0  0  0  0  0  0
  151.2765  144.8656  159.0608 C   0  0  0  0  0  0  0  0  0  0  0  0
  151.2759  144.7249  160.4608 C   0  0  0  0  0  0  0  0  0  0  0  0
  152.1003  143.7604  161.0724 C   0  0  0  0  0  0  0  0  0  0  0  0
  154.1663  138.6605  158.2429 C   0  0  0  0  0  0  0  0  0  0  0  0
  155.3864  138.8299  158.2580 O   0  0  0  0  0  0  0  0  0  0  0  0
  153.3849  139.0729  157.1981 N   0  5  0  0  0  0  0  0  0  0  0  0
  152.0337  138.8836  157.1453 C   0  0  0  0  0  0  0  0  0  0  0  0
  151.3511  139.2688  156.1967 O   0  0  0  0  0  0  0  0  0  0  0  0
  149.5684  137.4245  159.1458 H   0  0  0  0  0  0  0  0  0  0  0  0
  149.6350  137.3090  157.3853 H   0  0  0  0  0  0  0  0  0  0  0  0
  149.3482  138.8731  158.1613 H   0  0  0  0  0  0  0  0  0  0  0  0
  151.8005  137.2790  160.1548 H   0  0  0  0  0  0  0  0  0  0  0  0
  154.0951  136.4948  160.5853 H   0  0  0  0  0  0  0  0  0  0  0  0
  155.4116  137.6006  160.1707 H   0  0  0  0  0  0  0  0  0  0  0  0
  154.8438  139.9688  162.5049 H   0  0  0  0  0  0  0  0  0  0  0  0
  155.6295  139.5546  160.9842 H   0  0  0  0  0  0  0  0  0  0  0  0
  153.1382  140.1661  160.0220 H   0  0  0  0  0  0  0  0  0  0  0  0
  154.4388  142.3301  161.7380 H   0  0  0  0  0  0  0  0  0  0  0  0
  153.5445  142.4568  158.2573 H   0  0  0  0  0  0  0  0  0  0  0  0
  152.1041  144.1462  157.2005 H   0  0  0  0  0  0  0  0  0  0  0  0
  150.6457  145.6053  158.5901 H   0  0  0  0  0  0  0  0  0  0  0  0
  150.6443  145.3573  161.0670 H   0  0  0  0  0  0  0  0  0  0  0  0
  152.0899  143.6648  162.1487 H   0  0  0  0  0  0  0  0  0  0  0  0
  1  2  1  0  0  0  0
  1 21  1  0  0  0  0
  1 22  1  0  0  0  0
  1 23  1  0  0  0  0
  2 19  1  0  0  0  0
  2  3  2  0  0  0  0
  3  4  1  0  0  0  0
  3 24  1  0  0  0  0
  4  5  1  0  0  0  0
  4 16  1  0  0  0  0
  5  6  1  0  0  0  0
  5 25  1  0  0  0  0
  5 26  1  0  0  0  0
  6  7  1  0  0  0  0
  7  8  1  0  0  0  0
  7 27  1  0  0  0  0
  7 28  1  0  0  0  0
  8  9  2  0  0  0  0
  8 29  1  0  0  0  0
  9 10  1  0  0  0  0
  9 30  1  0  0  0  0
 10 15  1  0  0  0  0
 10 11  2  0  0  0  0
 11 12  1  0  0  0  0
 11 31  1  0  0  0  0
 12 13  2  0  0  0  0
 12 32  1  0  0  0  0
 13 14  1  0  0  0  0
 13 33  1  0  0  0  0
 14 15  2  0  0  0  0
 14 34  1  0  0  0  0
 15 35  1  0  0  0  0
 16 17  2  0  0  0  0
 16 18  1  0  0  0  0
 18 19  1  0  0  0  0
 19 20  2  0  0  0  0
M  CHG  1  18  -1
M  END
> <s_m_source_file>
AV-unprocessed.smi

> <i_m_source_file_index>
2636

> <i_lp_mmshare_version>
43012

> <i_f3d_flags>
0

> <s_epik_input>
Tz1jMVtuSF1jKD1PKW4oW2NIXWMxW0NIM10pW0NIMl1PW0NIMl0vW0NIXT1bQ0hdL2MyW2NIXVtjSF1bY0hdW2NIXVtjSF0y

> <s_epik_cmdline>
J2VwaWtfcHl0aG9uJywgJy1waCcsICc3LjAnLCAnLXRuJywgJzgnLCAnLW1hJywgJzIwMCcsICctbWV0YWxfYmluZGluZycsICctaW1hZScsICc8aW5maWxlLm1hZT4nLCAnLW9tYWUnLCAnPG91dGZpbGUubWFlPic=

> <r_lp_tautomer_probability>
0.999537

> <r_epik_Ionization_Penalty>
3.43625

> <r_epik_Ionization_Penalty_Charging>
7.29021e-08

> <r_epik_Ionization_Penalty_Neutral>
3.43625

> <r_epik_State_Penalty>
3.43567

> <r_epik_Charging_Adjusted_Penalty>
3.43567

> <i_epik_Tot_Q>
-1

> <i_epik_Tot_abs_Q>
1

> <r_epik_Metal_State_Penalty>
0.168611

> <b_epik_Metal_Only>
1

> <s_epik_Chemistry_Notes>
This compound contains an acetal/aminal-like group ( X-CH(R)-Y where X, Y are N, S, or O) that may be acid/base labile, releasing an aldehyde.

> <s_lp_Force_Field>
OPLS_2005

> <r_lp_Energy>
15.3134

> <b_lp_Chiralities_Consistent>
1

> <s_lp_Variant>
AV-unprocessed.smi:2636-3

> <Gold.Version>
5.8.1

> <Gold.Id.Protein>
6NUR|6NUR_protein|mol2

> <Gold.PLP.Fitness>
47.2855

> <Gold.PLP.PLP>
-42.0414

> <Gold.PLP.part.hbond>
-2.0000

> <Gold.PLP.part.metal>
0.0000

> <Gold.PLP.part.buried>
-4.0438

> <Gold.PLP.part.nonpolar>
-35.7761

> <Gold.PLP.part.repulsive>
0.0000

> <Gold.PLP.ligand.clash>
0.0000

> <Gold.PLP.ligand.torsion>
0.9988

> <Gold.PLP.Chemscore.Hbond>
2.4000

> <Gold.PLP.Chemscore.CHOScore>
0.0000

> <Gold.PLP.Chemscore.Metal>
0.0000

> <Gold.Chemscore.Hbonds>
donor molecule, donor type, donor heavy atom, donor atom, acceptor molecule, acceptor atom, score
      P1  H  7997  8008       L1    18  1.90
      P1  H  7997  8010       L1    17  0.45

> <Gold.PLP.Chemscore.Internal.Correction>
0.0417

> <Gold.Rescore>
     Score         DG    S(hbond)    S(metal)    S(lipo)     H(rot)  DE(clash)    DE(int)     intcor
     14.93     -17.30       0.89        0.00     116.80       1.88       0.18       2.19       ----

> <Gold.Chemscore.Fitness>
14.9349

> <Gold.Chemscore.DG>
-17.2965

> <Gold.Chemscore.ZeroCoef>
-5.4800

> <Gold.Chemscore.Hbond>
0.8872

> <Gold.Chemscore.Metal>
0.0000

> <Gold.Chemscore.Lipo>
116.8033

> <Gold.Chemscore.Internal_Hbond>
0.0000

> <Gold.Chemscore.DEClash>
0.1758

> <Gold.Chemscore.DEInternal>
2.1858

> <Gold.Chemscore.Rot>
1.8800

> <Gold.Chemscore.Internal.Correction>
   9.000000E+99

> <Gold.Chemscore.Hbonds>
donor molecule, donor type, donor heavy atom, donor atom, acceptor molecule, acceptor atom, score
      P1  H  7997  8008       L1    18  0.20
      P1  H  7997  8010       L1    17  0.38

> <Gold.Chemscore.Hbond.Weighted>
-2.9634

> <Gold.Chemscore.Metal.Weighted>
-0.0000

> <Gold.Chemscore.Lipo.Weighted>
-13.6660

> <Gold.Chemscore.Internal_Hbond.Weighted>
0.0000

> <Gold.Chemscore.DEClash.Weighted>
0.1758

> <Gold.Chemscore.DEInternal.Weighted>
2.1858

> <Gold.Chemscore.Rot.Weighted>
4.8129

> <Gold.Chemscore.Internal.Correction.Weighted>
   9.000000E+99

> <Gold.Protein.RotatedTorsions>
[ 6907 6896 6895 6894 ] final  -71.71 input  -60.11 | X-H torsion
[ 7974 7965 7964 7962 ] final  -47.06 input  175.53 | X-H torsion
[ 8008 7997 7996 7995 ] final  -52.45 input   59.86 | X-H torsion
[ 10167 10162 10161 10158 ] final   29.25 input  -65.29 | X-H torsion
[ 10718 10713 10712 10709 ] final -125.27 input   66.30 | X-H torsion
[ 10763 10752 10751 10750 ] final   11.77 input  -60.55 | X-H torsion
[ 11005 11000 10999 10996 ] final -156.96 input  -57.11 | X-H torsion

> <Gold.Protein.ActiveResidues>
 VAL166  LYS551  ARG553  GLY616  TRP617  ASP618  TYR619  PRO620  LYS621  CYS622 
 ASP623  PHE694  ASN695  SER759  ASP760  ASP761  ALA762  ILE779  LEU786  VAL792 
 PHE793  MET794  SER795  GLU796  ALA797  LYS798  CYS799  TRP800  GLU811  SER814 

> <Gold.Protein.RotatedAtoms>
  150.7200  134.5269  159.5680 H   0  0  0  0  0  0  0  0  0  0  0  0  # atno 6907 bound_to 6896
  152.2811  134.7825  160.0405 H   0  0  0  0  0  0  0  0  0  0  0  0  # atno 6908 bound_to 6896
  151.8471  133.3398  159.3698 H   0  0  0  0  0  0  0  0  0  0  0  0  # atno 6909 bound_to 6896
  145.9655  140.7436  142.9436 H   0  0  0  0  0  0  0  0  0  0  0  0  # atno 7974 bound_to 7965
  154.4107  140.1223  156.4993 H   0  0  0  0  0  0  0  0  0  0  0  0  # atno 8008 bound_to 7997
  155.6911  140.3495  155.4874 H   0  0  0  0  0  0  0  0  0  0  0  0  # atno 8009 bound_to 7997
  155.9468  140.1097  157.1000 H   0  0  0  0  0  0  0  0  0  0  0  0  # atno 8010 bound_to 7997
  140.4782  144.0658  150.6257 H   0  0  0  0  0  0  0  0  0  0  0  0  # atno 10167 bound_to 10162
  156.1661  130.6635  151.0116 H   0  0  0  0  0  0  0  0  0  0  0  0  # atno 10718 bound_to 10713
  153.1891  135.6839  153.8376 H   0  0  0  0  0  0  0  0  0  0  0  0  # atno 10763 bound_to 10752
  153.7681  135.3200  155.3349 H   0  0  0  0  0  0  0  0  0  0  0  0  # atno 10764 bound_to 10752
  154.8107  135.4719  154.0606 H   0  0  0  0  0  0  0  0  0  0  0  0  # atno 10765 bound_to 10752
  140.6698  134.4259  157.5232 H   0  0  0  0  0  0  0  0  0  0  0  0  # atno 11005 bound_to 11000
  144.6824  140.2662  143.7312 LP  0  0  0  0  0  0  0  0  0  0  0  0  # atno 17320 bound_to 7965
  145.7980  139.1953  143.2064 LP  0  0  0  0  0  0  0  0  0  0  0  0  # atno 17321 bound_to 7965
  140.3892  143.2761  152.0080 LP  0  0  0  0  0  0  0  0  0  0  0  0  # atno 17342 bound_to 10162
  139.4829  144.6091  151.7466 LP  0  0  0  0  0  0  0  0  0  0  0  0  # atno 17343 bound_to 10162
  157.6768  131.0848  150.7472 LP  0  0  0  0  0  0  0  0  0  0  0  0  # atno 17370 bound_to 10713
  156.7533  130.4775  149.5452 LP  0  0  0  0  0  0  0  0  0  0  0  0  # atno 17371 bound_to 10713
  139.8985  134.8612  156.1998 LP  0  0  0  0  0  0  0  0  0  0  0  0  # atno 17394 bound_to 11000
  141.0401  133.6942  156.1582 LP  0  0  0  0  0  0  0  0  0  0  0  0  # atno 17395 bound_to 11000

$$$$
