AV-unprocessed.smi:560|AV-procd|sdf|2933|dock3
  -GOLD-   2262023423D 1   1.00000     0.00000
 Structure written by MMmdl.
 41 42  0  0  0  0  0  0  0  0  3 V2000
  142.6595  134.3444  152.3001 C   0  0  0  0  0  0  0  0  0  0  0  0
  143.9282  134.7147  151.5058 C   0  0  1  0  0  0  0  0  0  0  0  0
  144.8909  135.6057  152.3067 C   0  0  0  0  0  0  0  0  0  0  0  0
  145.3650  135.2190  153.3758 O   0  0  0  0  0  0  0  0  0  0  0  0
  145.1711  136.8060  151.7738 N   0  0  0  0  0  0  0  0  0  0  0  0
  146.0629  137.8007  152.3614 C   0  0  2  0  0  0  0  0  0  0  0  0
  145.5035  138.3162  153.7008 C   0  0  0  0  0  0  0  0  0  0  0  0
  146.3777  139.4441  154.2718 C   0  0  0  0  0  0  0  0  0  0  0  0
  146.5135  140.5586  153.2970 N   0  3  1  0  0  0  0  0  0  0  0  0
  147.2218  141.7419  153.8491 C   0  0  0  0  0  0  0  0  0  0  0  0
  148.5788  141.3406  154.4390 C   0  0  0  0  0  0  0  0  0  0  0  0
  149.5131  141.1361  153.4884 N   0  5  0  0  0  0  0  0  0  0  0  0
  148.7064  141.2408  155.6568 O   0  0  0  0  0  0  0  0  0  0  0  0
  147.0953  140.0949  152.0127 C   0  0  0  0  0  0  0  0  0  0  0  0
  146.2414  138.9782  151.3891 C   0  0  0  0  0  0  0  0  0  0  0  0
  144.6258  133.5371  151.0029 N   0  0  0  0  0  0  0  0  0  0  0  0
  144.1730  132.2337  150.9682 C   0  0  0  0  0  0  0  0  0  0  0  0
  145.1461  131.4756  150.3831 C   0  0  0  0  0  0  0  0  0  0  0  0
  146.1680  132.4161  150.0758 C   0  0  0  0  0  0  0  0  0  0  0  0
  145.8520  133.6478  150.4402 N   0  0  0  0  0  0  0  0  0  0  0  0
  142.1218  135.2377  152.6200 H   0  0  0  0  0  0  0  0  0  0  0  0
  142.8875  133.7595  153.1921 H   0  0  0  0  0  0  0  0  0  0  0  0
  141.9773  133.7554  151.6862 H   0  0  0  0  0  0  0  0  0  0  0  0
  143.6028  135.2890  150.6367 H   0  0  0  0  0  0  0  0  0  0  0  0
  144.7383  137.0449  150.8933 H   0  0  0  0  0  0  0  0  0  0  0  0
  147.0406  137.3458  152.5330 H   0  0  0  0  0  0  0  0  0  0  0  0
  144.4856  138.6840  153.5619 H   0  0  0  0  0  0  0  0  0  0  0  0
  145.4414  137.5022  154.4239 H   0  0  0  0  0  0  0  0  0  0  0  0
  145.9314  139.8049  155.1989 H   0  0  0  0  0  0  0  0  0  0  0  0
  147.3663  139.0596  154.5271 H   0  0  0  0  0  0  0  0  0  0  0  0
  147.3455  142.5056  153.0793 H   0  0  0  0  0  0  0  0  0  0  0  0
  146.6350  142.1977  154.6484 H   0  0  0  0  0  0  0  0  0  0  0  0
  149.3953  140.3437  152.8451 H   0  0  0  0  0  0  0  0  0  0  0  0
  147.1550  140.9301  151.3140 H   0  0  0  0  0  0  0  0  0  0  0  0
  148.1154  139.7451  152.1790 H   0  0  0  0  0  0  0  0  0  0  0  0
  146.7053  138.6332  150.4643 H   0  0  0  0  0  0  0  0  0  0  0  0
  145.2665  139.3836  151.1134 H   0  0  0  0  0  0  0  0  0  0  0  0
  143.2056  131.9559  151.3601 H   0  0  0  0  0  0  0  0  0  0  0  0
  145.1293  130.4119  150.1988 H   0  0  0  0  0  0  0  0  0  0  0  0
  147.1213  132.2425  149.5987 H   0  0  0  0  0  0  0  0  0  0  0  0
  145.5797  140.8846  153.0879 H   0  0  0  0  0  0  0  0  0  0  0  0
  1  2  1  0  0  0  0
  1 21  1  0  0  0  0
  1 22  1  0  0  0  0
  1 23  1  0  0  0  0
  2  3  1  0  0  0  0
  2 16  1  0  0  0  0
  2 24  1  0  0  0  0
  3  4  2  0  0  0  0
  3  5  1  0  0  0  0
  5  6  1  0  0  0  0
  5 25  1  0  0  0  0
  6 15  1  0  0  0  0
  6  7  1  0  0  0  0
  6 26  1  0  0  0  0
  7  8  1  0  0  0  0
  7 27  1  0  0  0  0
  7 28  1  0  0  0  0
  8  9  1  0  0  0  0
  8 29  1  0  0  0  0
  8 30  1  0  0  0  0
  9 10  1  0  0  0  0
  9 14  1  0  0  0  0
  9 41  1  0  0  0  0
 10 11  1  0  0  0  0
 10 31  1  0  0  0  0
 10 32  1  0  0  0  0
 11 12  1  0  0  0  0
 11 13  2  0  0  0  0
 12 33  1  0  0  0  0
 14 15  1  0  0  0  0
 14 34  1  0  0  0  0
 14 35  1  0  0  0  0
 15 36  1  0  0  0  0
 15 37  1  0  0  0  0
 16 20  1  0  0  0  0
 16 17  1  0  0  0  0
 17 18  2  0  0  0  0
 17 38  1  0  0  0  0
 18 19  1  0  0  0  0
 18 39  1  0  0  0  0
 19 20  2  0  0  0  0
 19 40  1  0  0  0  0
M  CHG  1   9   1
M  CHG  1  12  -1
M  END
> <s_m_source_file>
AV-unprocessed.smi

> <i_m_source_file_index>
560

> <i_lp_mmshare_version>
43012

> <i_f3d_flags>
0

> <s_epik_input>
bjFbY0hdW2NIXVtjSF1uMVtDQEhdKFtDSDNdKUMoPU8pW05IXVtDSF0yW0NIMl1bQ0gyXU4oW0NIMl1bQ0gyXTIpW0NIMl1DKD1PKVtOSDJd

> <s_epik_cmdline>
J2VwaWtfcHl0aG9uJywgJy1waCcsICc3LjAnLCAnLXRuJywgJzgnLCAnLW1hJywgJzIwMCcsICctbWV0YWxfYmluZGluZycsICctaW1hZScsICc8aW5maWxlLm1hZT4nLCAnLW9tYWUnLCAnPG91dGZpbGUubWFlPic=

> <r_lp_tautomer_probability>
1

> <r_epik_Ionization_Penalty>
5.71084

> <r_epik_Ionization_Penalty_Charging>
5.71081

> <r_epik_Ionization_Penalty_Neutral>
3.04611e-05

> <r_epik_State_Penalty>
6.71277

> <r_epik_Charging_Adjusted_Penalty>
12.4236

> <i_epik_Tot_Q>
0

> <i_epik_Tot_abs_Q>
2

> <r_epik_Metal_State_Penalty>
2.67562

> <b_epik_Metal_Only>
1

> <s_lp_Force_Field>
OPLS_2005

> <r_lp_Energy>
10.2497

> <b_lp_Chiralities_Consistent>
1

> <s_lp_Variant>
AV-unprocessed.smi:560-8

> <Gold.Version>
5.8.1

> <Gold.Id.Protein>
6NUR|6NUR_protein|mol2

> <Gold.PLP.Fitness>
48.2324

> <Gold.PLP.PLP>
-32.6249

> <Gold.PLP.part.hbond>
-5.0000

> <Gold.PLP.part.metal>
0.0000

> <Gold.PLP.part.buried>
3.4081

> <Gold.PLP.part.nonpolar>
-31.9217

> <Gold.PLP.part.repulsive>
0.7786

> <Gold.PLP.ligand.clash>
0.0000

> <Gold.PLP.ligand.torsion>
0.6908

> <Gold.PLP.Chemscore.Hbond>
4.6189

> <Gold.PLP.Chemscore.CHOScore>
1.0000

> <Gold.PLP.Chemscore.Metal>
0.0000

> <Gold.Chemscore.Hbonds>
donor molecule, donor type, donor heavy atom, donor atom, acceptor molecule, acceptor atom, score
      L1  H     5    25       P1 10171  0.80
      L1  H     9    41       P1 10175  2.00
      L1  H    12    33       P1  7957  0.74
      P1  H  7989  7998       L1    12  0.10
      P1  H  8011  8017       L1    12  1.00
      L1  C    19    40       P1 10747  1.00

> <Gold.PLP.Chemscore.Internal.Correction>
0.1325

> <Gold.Rescore>
     Score         DG    S(hbond)    S(metal)    S(lipo)     H(rot)  DE(clash)    DE(int)     intcor
     11.63     -16.30       2.22        0.00      83.18       2.47       2.94       1.73       ----

> <Gold.Chemscore.Fitness>
11.6343

> <Gold.Chemscore.DG>
-16.3017

> <Gold.Chemscore.ZeroCoef>
-5.4800

> <Gold.Chemscore.Hbond>
2.2219

> <Gold.Chemscore.Metal>
0.0000

> <Gold.Chemscore.Lipo>
83.1818

> <Gold.Chemscore.Internal_Hbond>
0.0000

> <Gold.Chemscore.DEClash>
2.9419

> <Gold.Chemscore.DEInternal>
1.7256

> <Gold.Chemscore.Rot>
2.4734

> <Gold.Chemscore.Internal.Correction>
   9.000000E+99

> <Gold.Chemscore.Hbonds>
donor molecule, donor type, donor heavy atom, donor atom, acceptor molecule, acceptor atom, score
      L1  H     5    25       P1 10171  0.77
      L1  H     9    41       P1 10175  0.44
      L1  H    12    33       P1  7957  0.74
      P1  H  7989  7998       L1    12  0.01
      P1  H  8011  8017       L1    12  0.24

> <Gold.Chemscore.Hbond.Weighted>
-7.4213

> <Gold.Chemscore.Metal.Weighted>
-0.0000

> <Gold.Chemscore.Lipo.Weighted>
-9.7323

> <Gold.Chemscore.Internal_Hbond.Weighted>
0.0000

> <Gold.Chemscore.DEClash.Weighted>
2.9419

> <Gold.Chemscore.DEInternal.Weighted>
1.7256

> <Gold.Chemscore.Rot.Weighted>
6.3318

> <Gold.Chemscore.Internal.Correction.Weighted>
   9.000000E+99

> <Gold.Protein.RotatedTorsions>
[ 6907 6896 6895 6894 ] final  140.37 input  -60.11 | X-H torsion
[ 7974 7965 7964 7962 ] final  -75.35 input  175.53 | X-H torsion
[ 8008 7997 7996 7995 ] final   -0.64 input   59.86 | X-H torsion
[ 10167 10162 10161 10158 ] final   63.20 input  -65.29 | X-H torsion
[ 10718 10713 10712 10709 ] final  -54.79 input   66.30 | X-H torsion
[ 10763 10752 10751 10750 ] final -130.46 input  -60.55 | X-H torsion
[ 11005 11000 10999 10996 ] final   59.77 input  -57.11 | X-H torsion

> <Gold.Protein.ActiveResidues>
 VAL166  LYS551  ARG553  GLY616  TRP617  ASP618  TYR619  PRO620  LYS621  CYS622 
 ASP623  PHE694  ASN695  SER759  ASP760  ASP761  ALA762  ILE779  LEU786  VAL792 
 PHE793  MET794  SER795  GLU796  ALA797  LYS798  CYS799  TRP800  GLU811  SER814 

> <Gold.Protein.RotatedAtoms>
  152.2439  133.5158  159.5285 H   0  0  0  0  0  0  0  0  0  0  0  0  # atno 6907 bound_to 6896
  150.7072  134.1052  159.3989 H   0  0  0  0  0  0  0  0  0  0  0  0  # atno 6908 bound_to 6896
  151.8973  135.0392  160.0554 H   0  0  0  0  0  0  0  0  0  0  0  0  # atno 6909 bound_to 6896
  145.6271  140.9347  143.1107 H   0  0  0  0  0  0  0  0  0  0  0  0  # atno 7974 bound_to 7965
  154.6557  140.2579  155.7164 H   0  0  0  0  0  0  0  0  0  0  0  0  # atno 8008 bound_to 7997
  156.2596  140.2859  156.0931 H   0  0  0  0  0  0  0  0  0  0  0  0  # atno 8009 bound_to 7997
  155.1383  140.0380  157.2782 H   0  0  0  0  0  0  0  0  0  0  0  0  # atno 8010 bound_to 7997
  140.1356  144.4602  150.6840 H   0  0  0  0  0  0  0  0  0  0  0  0  # atno 10167 bound_to 10162
  156.1422  130.4154  150.0085 H   0  0  0  0  0  0  0  0  0  0  0  0  # atno 10718 bound_to 10713
  154.8755  135.3862  154.4086 H   0  0  0  0  0  0  0  0  0  0  0  0  # atno 10763 bound_to 10752
  153.4803  135.7030  153.5947 H   0  0  0  0  0  0  0  0  0  0  0  0  # atno 10764 bound_to 10752
  153.4366  135.3866  155.2170 H   0  0  0  0  0  0  0  0  0  0  0  0  # atno 10765 bound_to 10752
  140.0280  134.6055  155.9547 H   0  0  0  0  0  0  0  0  0  0  0  0  # atno 11005 bound_to 11000
  144.7208  139.8037  143.7382 LP  0  0  0  0  0  0  0  0  0  0  0  0  # atno 17320 bound_to 7965
  146.1385  139.4437  143.0123 LP  0  0  0  0  0  0  0  0  0  0  0  0  # atno 17321 bound_to 7965
  140.6791  143.2318  151.5431 LP  0  0  0  0  0  0  0  0  0  0  0  0  # atno 17342 bound_to 10162
  139.5497  144.2427  152.1508 LP  0  0  0  0  0  0  0  0  0  0  0  0  # atno 17343 bound_to 10162
  156.7967  130.9275  151.3646 LP  0  0  0  0  0  0  0  0  0  0  0  0  # atno 17370 bound_to 10713
  157.6585  130.8945  149.9780 LP  0  0  0  0  0  0  0  0  0  0  0  0  # atno 17371 bound_to 10713
  141.1814  133.6547  156.5035 LP  0  0  0  0  0  0  0  0  0  0  0  0  # atno 17394 bound_to 11000
  140.4274  134.7132  157.4923 LP  0  0  0  0  0  0  0  0  0  0  0  0  # atno 17395 bound_to 11000

$$$$
