AV-unprocessed.smi:809|AV-procd|sdf|3808|dock5
  -GOLD-   22720 1243D 1   1.00000     0.00000
 Structure written by MMmdl.
 39 40  0  0  0  0  0  0  0  0  3 V2000
  153.7792  140.8475  160.5037 C   0  0  0  0  0  0  0  0  0  0  0  0
  152.9946  142.0006  159.9620 C   0  0  0  0  0  0  0  0  0  0  0  0
  153.1651  143.3278  160.2588 C   0  0  0  0  0  0  0  0  0  0  0  0
  152.0279  144.3291  159.4023 S   0  0  0  0  0  0  0  0  0  0  0  0
  151.3456  142.8874  158.6463 C   0  0  0  0  0  0  0  0  0  0  0  0
  150.3228  142.8871  157.7761 N   0  5  0  0  0  0  0  0  0  0  0  0
  150.0975  141.8039  156.9999 C   0  0  0  0  0  0  0  0  0  0  0  0
  150.6444  140.7041  157.1085 O   0  0  0  0  0  0  0  0  0  0  0  0
  149.1957  142.0172  156.0302 N   0  0  0  0  0  0  0  0  0  0  0  0
  148.7910  141.0725  154.9903 C   0  0  0  0  0  0  0  0  0  0  0  0
  147.4968  141.5095  154.2504 C   0  0  1  0  0  0  0  0  0  0  0  0
  147.6260  142.8976  154.0057 O   0  0  0  0  0  0  0  0  0  0  0  0
  147.2293  140.8008  152.9015 C   0  0  0  0  0  0  0  0  0  0  0  0
  146.8141  139.3326  153.0972 C   0  0  0  0  0  0  0  0  0  0  0  0
  145.6144  139.2319  153.9636 N   0  3  1  0  0  0  0  0  0  0  0  0
  145.1204  137.8428  154.0771 C   0  0  0  0  0  0  0  0  0  0  0  0
  145.8236  139.8665  155.2889 C   0  0  0  0  0  0  0  0  0  0  0  0
  146.2482  141.3414  155.1443 C   0  0  0  0  0  0  0  0  0  0  0  0
  151.9583  141.7704  159.0540 N   0  0  0  0  0  0  0  0  0  0  0  0
  154.6927  141.1831  160.9950 H   0  0  0  0  0  0  0  0  0  0  0  0
  154.0678  140.1584  159.7095 H   0  0  0  0  0  0  0  0  0  0  0  0
  153.1971  140.2865  161.2350 H   0  0  0  0  0  0  0  0  0  0  0  0
  153.8852  143.7761  160.9264 H   0  0  0  0  0  0  0  0  0  0  0  0
  148.7756  142.9347  155.9908 H   0  0  0  0  0  0  0  0  0  0  0  0
  149.6057  140.9350  154.2803 H   0  0  0  0  0  0  0  0  0  0  0  0
  148.6517  140.0942  155.4522 H   0  0  0  0  0  0  0  0  0  0  0  0
  148.1303  143.2845  154.7045 H   0  0  0  0  0  0  0  0  0  0  0  0
  146.4237  141.3164  152.3761 H   0  0  0  0  0  0  0  0  0  0  0  0
  148.0925  140.8629  152.2386 H   0  0  0  0  0  0  0  0  0  0  0  0
  146.5990  138.8862  152.1255 H   0  0  0  0  0  0  0  0  0  0  0  0
  147.6285  138.7550  153.5337 H   0  0  0  0  0  0  0  0  0  0  0  0
  145.8595  137.2039  154.5624 H   0  0  0  0  0  0  0  0  0  0  0  0
  144.9046  137.4289  153.0915 H   0  0  0  0  0  0  0  0  0  0  0  0
  144.2003  137.8077  154.6614 H   0  0  0  0  0  0  0  0  0  0  0  0
  144.8972  139.8147  155.8621 H   0  0  0  0  0  0  0  0  0  0  0  0
  146.5667  139.3016  155.8525 H   0  0  0  0  0  0  0  0  0  0  0  0
  146.4246  141.7758  156.1292 H   0  0  0  0  0  0  0  0  0  0  0  0
  145.4126  141.8968  154.7144 H   0  0  0  0  0  0  0  0  0  0  0  0
  144.8856  139.7585  153.5040 H   0  0  0  0  0  0  0  0  0  0  0  0
  1  2  1  0  0  0  0
  1 20  1  0  0  0  0
  1 21  1  0  0  0  0
  1 22  1  0  0  0  0
  2 19  1  0  0  0  0
  2  3  2  0  0  0  0
  3  4  1  0  0  0  0
  3 23  1  0  0  0  0
  4  5  1  0  0  0  0
  5  6  1  0  0  0  0
  5 19  2  0  0  0  0
  6  7  1  0  0  0  0
  7  8  2  0  0  0  0
  7  9  1  0  0  0  0
  9 10  1  0  0  0  0
  9 24  1  0  0  0  0
 10 11  1  0  0  0  0
 10 25  1  0  0  0  0
 10 26  1  0  0  0  0
 11 18  1  0  0  0  0
 11 12  1  0  0  0  0
 11 13  1  0  0  0  0
 12 27  1  0  0  0  0
 13 14  1  0  0  0  0
 13 28  1  0  0  0  0
 13 29  1  0  0  0  0
 14 15  1  0  0  0  0
 14 30  1  0  0  0  0
 14 31  1  0  0  0  0
 15 16  1  0  0  0  0
 15 17  1  0  0  0  0
 15 39  1  0  0  0  0
 16 32  1  0  0  0  0
 16 33  1  0  0  0  0
 16 34  1  0  0  0  0
 17 18  1  0  0  0  0
 17 35  1  0  0  0  0
 17 36  1  0  0  0  0
 18 37  1  0  0  0  0
 18 38  1  0  0  0  0
M  CHG  1   6  -1
M  CHG  1  15   1
M  END
> <s_m_source_file>
AV-unprocessed.smi

> <i_m_source_file_index>
809

> <i_lp_mmshare_version>
43012

> <i_f3d_flags>
0

> <s_epik_input>
W0NIM11jMVtjSF1zYyhuMSlbTkhdQyg9TylbTkhdW0NIMl1DMihbT0hdKVtDSDJdW0NIMl1OKFtDSDNdKVtDSDJdW0NIMl0y

> <s_epik_cmdline>
J2VwaWtfcHl0aG9uJywgJy1waCcsICc3LjAnLCAnLXRuJywgJzgnLCAnLW1hJywgJzIwMCcsICctbWV0YWxfYmluZGluZycsICctaW1hZScsICc8aW5maWxlLm1hZT4nLCAnLW9tYWUnLCAnPG91dGZpbGUubWFlPic=

> <r_lp_tautomer_probability>
0.999

> <r_epik_Ionization_Penalty>
8.50704

> <r_epik_Ionization_Penalty_Charging>
6.65046

> <r_epik_Ionization_Penalty_Neutral>
1.85657

> <r_epik_State_Penalty>
6.64992

> <r_epik_Charging_Adjusted_Penalty>
13.3004

> <i_epik_Tot_Q>
0

> <i_epik_Tot_abs_Q>
2

> <r_epik_Metal_State_Penalty>
2.57297

> <b_epik_Metal_Only>
1

> <s_lp_Force_Field>
OPLS_2005

> <r_lp_Energy>
8.4344

> <b_lp_Chiralities_Consistent>
1

> <s_lp_Variant>
AV-unprocessed.smi:809-4

> <Gold.Version>
5.8.1

> <Gold.Id.Protein>
6NUR|6NUR_protein|mol2

> <Gold.PLP.Fitness>
45.6594

> <Gold.PLP.PLP>
-34.3370

> <Gold.PLP.part.hbond>
-4.7171

> <Gold.PLP.part.metal>
0.0000

> <Gold.PLP.part.buried>
-4.0009

> <Gold.PLP.part.nonpolar>
-26.6233

> <Gold.PLP.part.repulsive>
0.2477

> <Gold.PLP.ligand.clash>
0.0000

> <Gold.PLP.ligand.torsion>
0.3457

> <Gold.PLP.Chemscore.Hbond>
4.0000

> <Gold.PLP.Chemscore.CHOScore>
0.0000

> <Gold.PLP.Chemscore.Metal>
0.0000

> <Gold.Chemscore.Hbonds>
donor molecule, donor type, donor heavy atom, donor atom, acceptor molecule, acceptor atom, score
      L1  H     9    24       P1  8028  1.00
      L1  H    12    27       P1  8028  1.00
      L1  H    15    39       P1 10175  2.00

> <Gold.PLP.Chemscore.Internal.Correction>
0.0137

> <Gold.Rescore>
     Score         DG    S(hbond)    S(metal)    S(lipo)     H(rot)  DE(clash)    DE(int)     intcor
     17.55     -19.82       2.91        0.00      79.28       1.82       0.18       2.09       ----

> <Gold.Chemscore.Fitness>
17.5534

> <Gold.Chemscore.DG>
-19.8194

> <Gold.Chemscore.ZeroCoef>
-5.4800

> <Gold.Chemscore.Hbond>
2.9099

> <Gold.Chemscore.Metal>
0.0000

> <Gold.Chemscore.Lipo>
79.2821

> <Gold.Chemscore.Internal_Hbond>
0.0000

> <Gold.Chemscore.DEClash>
0.1770

> <Gold.Chemscore.DEInternal>
2.0890

> <Gold.Chemscore.Rot>
1.8186

> <Gold.Chemscore.Internal.Correction>
   9.000000E+99

> <Gold.Chemscore.Hbonds>
donor molecule, donor type, donor heavy atom, donor atom, acceptor molecule, acceptor atom, score
      L1  H     9    24       P1  8028  0.96
      L1  H    12    27       P1  8028  0.91
      L1  H    15    39       P1 10175  1.00

> <Gold.Chemscore.Hbond.Weighted>
-9.7191

> <Gold.Chemscore.Metal.Weighted>
-0.0000

> <Gold.Chemscore.Lipo.Weighted>
-9.2760

> <Gold.Chemscore.Internal_Hbond.Weighted>
0.0000

> <Gold.Chemscore.DEClash.Weighted>
0.1770

> <Gold.Chemscore.DEInternal.Weighted>
2.0890

> <Gold.Chemscore.Rot.Weighted>
4.6557

> <Gold.Chemscore.Internal.Correction.Weighted>
   9.000000E+99

> <Gold.Protein.RotatedTorsions>
[ 6907 6896 6895 6894 ] final   50.58 input  -60.11 | X-H torsion
[ 7974 7965 7964 7962 ] final -118.52 input  175.53 | X-H torsion
[ 8008 7997 7996 7995 ] final   83.94 input   59.86 | X-H torsion
[ 10167 10162 10161 10158 ] final   78.52 input  -65.29 | X-H torsion
[ 10718 10713 10712 10709 ] final   78.81 input   66.30 | X-H torsion
[ 10763 10752 10751 10750 ] final  118.34 input  -60.55 | X-H torsion
[ 11005 11000 10999 10996 ] final  -53.21 input  -57.11 | X-H torsion

> <Gold.Protein.ActiveResidues>
 VAL166  LYS551  ARG553  GLY616  TRP617  ASP618  TYR619  PRO620  LYS621  CYS622 
 ASP623  PHE694  ASN695  SER759  ASP760  ASP761  ALA762  ILE779  LEU786  VAL792 
 PHE793  MET794  SER795  GLU796  ALA797  LYS798  CYS799  TRP800  GLU811  SER814 

> <Gold.Protein.RotatedAtoms>
  152.3034  134.7584  160.0352 H   0  0  0  0  0  0  0  0  0  0  0  0  # atno 6907 bound_to 6896
  151.8090  133.3374  159.3557 H   0  0  0  0  0  0  0  0  0  0  0  0  # atno 6908 bound_to 6896
  150.7284  134.5612  159.5887 H   0  0  0  0  0  0  0  0  0  0  0  0  # atno 6909 bound_to 6896
  145.0729  140.8372  143.4085 H   0  0  0  0  0  0  0  0  0  0  0  0  # atno 7974 bound_to 7965
  155.9305  140.3415  155.6245 H   0  0  0  0  0  0  0  0  0  0  0  0  # atno 8008 bound_to 7997
  155.7163  140.0778  157.2368 H   0  0  0  0  0  0  0  0  0  0  0  0  # atno 8009 bound_to 7997
  154.4084  140.1613  156.2340 H   0  0  0  0  0  0  0  0  0  0  0  0  # atno 8010 bound_to 7997
  139.9701  144.5900  150.7993 H   0  0  0  0  0  0  0  0  0  0  0  0  # atno 10167 bound_to 10162
  157.6757  130.9885  150.1841 H   0  0  0  0  0  0  0  0  0  0  0  0  # atno 10718 bound_to 10713
  153.5662  135.3511  155.2819 H   0  0  0  0  0  0  0  0  0  0  0  0  # atno 10763 bound_to 10752
  154.8688  135.4148  154.2776 H   0  0  0  0  0  0  0  0  0  0  0  0  # atno 10764 bound_to 10752
  153.3532  135.7056  153.6841 H   0  0  0  0  0  0  0  0  0  0  0  0  # atno 10765 bound_to 10752
  141.0964  133.6624  156.4138 H   0  0  0  0  0  0  0  0  0  0  0  0  # atno 11005 bound_to 11000
  145.1271  139.2656  143.5558 LP  0  0  0  0  0  0  0  0  0  0  0  0  # atno 17320 bound_to 7965
  146.3529  140.0911  142.8612 LP  0  0  0  0  0  0  0  0  0  0  0  0  # atno 17321 bound_to 7965
  140.7525  143.2991  151.3127 LP  0  0  0  0  0  0  0  0  0  0  0  0  # atno 17342 bound_to 10162
  139.6488  144.0402  152.2610 LP  0  0  0  0  0  0  0  0  0  0  0  0  # atno 17343 bound_to 10162
  156.2567  130.3706  149.8174 LP  0  0  0  0  0  0  0  0  0  0  0  0  # atno 17370 bound_to 10713
  156.5931  130.8514  151.3413 LP  0  0  0  0  0  0  0  0  0  0  0  0  # atno 17371 bound_to 10713
  140.5129  134.6378  157.5291 LP  0  0  0  0  0  0  0  0  0  0  0  0  # atno 17394 bound_to 11000
  139.9802  134.7149  155.9874 LP  0  0  0  0  0  0  0  0  0  0  0  0  # atno 17395 bound_to 11000

$$$$
