AV-unprocessed.smi:648|AV-procd|sdf|3174|dock2
  -GOLD-   22720 0 93D 1   1.00000     0.00000
 Structure written by MMmdl.
 45 46  0  0  0  0  0  0  0  0  1 V2000
  145.9067  137.2042  151.1112 C   0  0  0  0  0  0  0  0  0  0  0  0
  145.3265  135.8799  151.6290 C   0  0  2  0  0  0  0  0  0  0  0  0
  145.2305  134.8374  150.5011 C   0  0  0  0  0  0  0  0  0  0  0  0
  144.6623  133.4775  150.9671 C   0  0  0  0  0  0  0  0  0  0  0  0
  144.3756  132.6147  149.7210 C   0  0  0  0  0  0  0  0  0  0  0  0
  145.7014  132.7111  151.8172 C   0  0  0  0  0  0  0  0  0  0  0  0
  143.3256  133.6889  151.7343 C   0  0  0  0  0  0  0  0  0  0  0  0
  143.3137  134.7902  152.8349 C   0  0  1  0  0  0  0  0  0  0  0  0
  141.8414  135.1083  153.2162 C   0  0  0  0  0  0  0  0  0  0  0  0
  141.1867  133.9951  153.7941 O   0  0  0  0  0  0  0  0  0  0  0  0
  144.0346  134.3022  154.0293 N   0  0  0  0  0  0  0  0  0  0  0  0
  144.1483  135.1852  155.1931 C   0  0  0  0  0  0  0  0  0  0  0  0
  145.1565  134.6160  156.1990 C   0  0  0  0  0  0  0  0  0  0  0  0
  146.3607  134.1521  155.5404 N   0  0  0  0  0  0  0  0  0  0  0  0
  146.9166  132.9402  155.5001 C   0  0  0  0  0  0  0  0  0  0  0  0
  148.0317  132.8868  154.7846 N   0  0  0  0  0  0  0  0  0  0  0  0
  148.1096  134.1919  154.3862 C   0  0  0  0  0  0  0  0  0  0  0  0
  147.1318  134.9921  154.8113 N   0  0  0  0  0  0  0  0  0  0  0  0
  143.9441  136.0915  152.2703 C   0  0  0  0  0  0  0  0  0  0  0  0
  145.2738  137.6400  150.3376 H   0  0  0  0  0  0  0  0  0  0  0  0
  146.8997  137.0577  150.6857 H   0  0  0  0  0  0  0  0  0  0  0  0
  145.9985  137.9339  151.9162 H   0  0  0  0  0  0  0  0  0  0  0  0
  146.0101  135.5139  152.3946 H   0  0  0  0  0  0  0  0  0  0  0  0
  144.5957  135.2416  149.7110 H   0  0  0  0  0  0  0  0  0  0  0  0
  146.2122  134.6914  150.0482 H   0  0  0  0  0  0  0  0  0  0  0  0
  143.9708  131.6403  149.9970 H   0  0  0  0  0  0  0  0  0  0  0  0
  145.2819  132.4408  149.1398 H   0  0  0  0  0  0  0  0  0  0  0  0
  143.6525  133.0914  149.0580 H   0  0  0  0  0  0  0  0  0  0  0  0
  145.3006  131.7589  152.1666 H   0  0  0  0  0  0  0  0  0  0  0  0
  146.0276  133.2658  152.6945 H   0  0  0  0  0  0  0  0  0  0  0  0
  146.5981  132.4920  151.2369 H   0  0  0  0  0  0  0  0  0  0  0  0
  142.5669  133.9588  150.9978 H   0  0  0  0  0  0  0  0  0  0  0  0
  142.9902  132.7371  152.1494 H   0  0  0  0  0  0  0  0  0  0  0  0
  141.7702  135.9575  153.8952 H   0  0  0  0  0  0  0  0  0  0  0  0
  141.2758  135.3929  152.3281 H   0  0  0  0  0  0  0  0  0  0  0  0
  141.7983  133.2760  153.8369 H   0  0  0  0  0  0  0  0  0  0  0  0
  143.6261  133.4195  154.3205 H   0  0  0  0  0  0  0  0  0  0  0  0
  144.4766  136.1796  154.8933 H   0  0  0  0  0  0  0  0  0  0  0  0
  143.1849  135.2986  155.6885 H   0  0  0  0  0  0  0  0  0  0  0  0
  145.4313  135.3709  156.9373 H   0  0  0  0  0  0  0  0  0  0  0  0
  144.7172  133.7802  156.7457 H   0  0  0  0  0  0  0  0  0  0  0  0
  146.4965  132.0806  156.0015 H   0  0  0  0  0  0  0  0  0  0  0  0
  148.9106  134.5632  153.7642 H   0  0  0  0  0  0  0  0  0  0  0  0
  143.9945  136.8702  153.0306 H   0  0  0  0  0  0  0  0  0  0  0  0
  143.2817  136.4961  151.5035 H   0  0  0  0  0  0  0  0  0  0  0  0
  1  2  1  0  0  0  0
  1 20  1  0  0  0  0
  1 21  1  0  0  0  0
  1 22  1  0  0  0  0
  2 19  1  0  0  0  0
  2  3  1  0  0  0  0
  2 23  1  0  0  0  0
  3  4  1  0  0  0  0
  3 24  1  0  0  0  0
  3 25  1  0  0  0  0
  4  5  1  0  0  0  0
  4  6  1  0  0  0  0
  4  7  1  0  0  0  0
  5 26  1  0  0  0  0
  5 27  1  0  0  0  0
  5 28  1  0  0  0  0
  6 29  1  0  0  0  0
  6 30  1  0  0  0  0
  6 31  1  0  0  0  0
  7  8  1  0  0  0  0
  7 32  1  0  0  0  0
  7 33  1  0  0  0  0
  8  9  1  0  0  0  0
  8 11  1  0  0  0  0
  8 19  1  0  0  0  0
  9 10  1  0  0  0  0
  9 34  1  0  0  0  0
  9 35  1  0  0  0  0
 10 36  1  0  0  0  0
 11 12  1  0  0  0  0
 11 37  1  0  0  0  0
 12 13  1  0  0  0  0
 12 38  1  0  0  0  0
 12 39  1  0  0  0  0
 13 14  1  0  0  0  0
 13 40  1  0  0  0  0
 13 41  1  0  0  0  0
 14 18  1  0  0  0  0
 14 15  1  0  0  0  0
 15 16  2  0  0  0  0
 15 42  1  0  0  0  0
 16 17  1  0  0  0  0
 17 18  2  0  0  0  0
 17 43  1  0  0  0  0
 19 44  1  0  0  0  0
 19 45  1  0  0  0  0
M  END
> <s_m_source_file>
AV-unprocessed.smi

> <i_m_source_file_index>
648

> <i_lp_mmshare_version>
43012

> <i_f3d_flags>
0

> <s_epik_input>
W0NIM11DMShbQ0gzXSlbQ0gyXVtDQEBIXShbQ0gzXSlbQ0gyXVtDQF0oW0NIMl0xKShbQ0gyXVtPSF0pW05IXVtDSDJdW0NIMl1uMltjSF1uW2NIXW4y

> <s_epik_cmdline>
J2VwaWtfcHl0aG9uJywgJy1waCcsICc3LjAnLCAnLXRuJywgJzgnLCAnLW1hJywgJzIwMCcsICctbWV0YWxfYmluZGluZycsICctaW1hZScsICc8aW5maWxlLm1hZT4nLCAnLW9tYWUnLCAnPG91dGZpbGUubWFlPic=

> <r_lp_tautomer_probability>
1

> <r_epik_Ionization_Penalty>
2.45849

> <r_epik_Ionization_Penalty_Charging>
0

> <r_epik_Ionization_Penalty_Neutral>
2.45849

> <r_epik_State_Penalty>
2.62037

> <r_epik_Charging_Adjusted_Penalty>
2.62037

> <i_epik_Tot_Q>
0

> <i_epik_Tot_abs_Q>
0

> <r_epik_Metal_State_Penalty>
2.62024

> <b_epik_Metal_Only>
0

> <s_lp_Force_Field>
OPLS_2005

> <r_lp_Energy>
32.3104

> <b_lp_Chiralities_Consistent>
1

> <s_lp_Variant>
AV-unprocessed.smi:648-5

> <Gold.Version>
5.8.1

> <Gold.Id.Protein>
6NUR|6NUR_protein|mol2

> <Gold.PLP.Fitness>
41.1046

> <Gold.PLP.PLP>
-29.1564

> <Gold.PLP.part.hbond>
-4.0000

> <Gold.PLP.part.metal>
0.0000

> <Gold.PLP.part.buried>
-0.7991

> <Gold.PLP.part.nonpolar>
-24.7027

> <Gold.PLP.part.repulsive>
0.0940

> <Gold.PLP.ligand.clash>
0.0000

> <Gold.PLP.ligand.torsion>
0.0976

> <Gold.PLP.Chemscore.Hbond>
3.0468

> <Gold.PLP.Chemscore.CHOScore>
1.0000

> <Gold.PLP.Chemscore.Metal>
0.0000

> <Gold.Chemscore.Hbonds>
donor molecule, donor type, donor heavy atom, donor atom, acceptor molecule, acceptor atom, score
      L1  H    10    36       P1 10957  1.00
      L1  H    11    37       P1 10957  1.00
      P1  H 10995 11001       L1    10  0.05
      P1  H 11000 11005       L1    10  1.00
      L1  C    17    43       P1  7948  1.00

> <Gold.PLP.Chemscore.Internal.Correction>
0.0029

> <Gold.Rescore>
     Score         DG    S(hbond)    S(metal)    S(lipo)     H(rot)  DE(clash)    DE(int)     intcor
     12.96     -14.38       2.83        0.00      63.43       3.12       1.32       0.10       ----

> <Gold.Chemscore.Fitness>
12.9629

> <Gold.Chemscore.DG>
-14.3820

> <Gold.Chemscore.ZeroCoef>
-5.4800

> <Gold.Chemscore.Hbond>
2.8336

> <Gold.Chemscore.Metal>
0.0000

> <Gold.Chemscore.Lipo>
63.4262

> <Gold.Chemscore.Internal_Hbond>
0.0000

> <Gold.Chemscore.DEClash>
1.3240

> <Gold.Chemscore.DEInternal>
0.0951

> <Gold.Chemscore.Rot>
3.1183

> <Gold.Chemscore.Internal.Correction>
   9.000000E+99

> <Gold.Chemscore.Hbonds>
donor molecule, donor type, donor heavy atom, donor atom, acceptor molecule, acceptor atom, score
      L1  H    10    36       P1 10957  0.94
      L1  H    11    37       P1 10957  0.98
      P1  H 10995 11001       L1    10  0.02
      P1  H 11000 11005       L1    10  0.24

> <Gold.Chemscore.Hbond.Weighted>
-9.4641

> <Gold.Chemscore.Metal.Weighted>
-0.0000

> <Gold.Chemscore.Lipo.Weighted>
-7.4209

> <Gold.Chemscore.Internal_Hbond.Weighted>
0.0000

> <Gold.Chemscore.DEClash.Weighted>
1.3240

> <Gold.Chemscore.DEInternal.Weighted>
0.0951

> <Gold.Chemscore.Rot.Weighted>
7.9829

> <Gold.Chemscore.Internal.Correction.Weighted>
   9.000000E+99

> <Gold.Protein.RotatedTorsions>
[ 6907 6896 6895 6894 ] final  151.07 input  -60.11 | X-H torsion
[ 7974 7965 7964 7962 ] final   61.14 input  175.53 | X-H torsion
[ 8008 7997 7996 7995 ] final  170.73 input   59.86 | X-H torsion
[ 10167 10162 10161 10158 ] final  -35.03 input  -65.29 | X-H torsion
[ 10718 10713 10712 10709 ] final   84.76 input   66.30 | X-H torsion
[ 10763 10752 10751 10750 ] final  -20.89 input  -60.55 | X-H torsion
[ 11005 11000 10999 10996 ] final    9.08 input  -57.11 | X-H torsion

> <Gold.Protein.ActiveResidues>
 VAL166  LYS551  ARG553  GLY616  TRP617  ASP618  TYR619  PRO620  LYS621  CYS622 
 ASP623  PHE694  ASN695  SER759  ASP760  ASP761  ALA762  ILE779  LEU786  VAL792 
 PHE793  MET794  SER795  GLU796  ALA797  LYS798  CYS799  TRP800  GLU811  SER814 

> <Gold.Protein.RotatedAtoms>
  152.1057  133.4273  159.4607 H   0  0  0  0  0  0  0  0  0  0  0  0  # atno 6907 bound_to 6896
  150.6865  134.2708  159.4596 H   0  0  0  0  0  0  0  0  0  0  0  0  # atno 6908 bound_to 6896
  152.0572  134.9616  160.0625 H   0  0  0  0  0  0  0  0  0  0  0  0  # atno 6909 bound_to 6896
  145.8881  139.3491  143.0666 H   0  0  0  0  0  0  0  0  0  0  0  0  # atno 7974 bound_to 7965
  156.1338  140.1530  156.9025 H   0  0  0  0  0  0  0  0  0  0  0  0  # atno 8008 bound_to 7997
  154.4931  140.0846  156.7677 H   0  0  0  0  0  0  0  0  0  0  0  0  # atno 8009 bound_to 7997
  155.4206  140.3423  155.4273 H   0  0  0  0  0  0  0  0  0  0  0  0  # atno 8010 bound_to 7997
  140.7173  143.3506  151.2164 H   0  0  0  0  0  0  0  0  0  0  0  0  # atno 10167 bound_to 10162
  157.6903  131.0146  150.2720 H   0  0  0  0  0  0  0  0  0  0  0  0  # atno 10718 bound_to 10713
  153.6275  135.6990  153.5288 H   0  0  0  0  0  0  0  0  0  0  0  0  # atno 10763 bound_to 10752
  153.2887  135.4163  155.1146 H   0  0  0  0  0  0  0  0  0  0  0  0  # atno 10764 bound_to 10752
  154.8529  135.3620  154.5817 H   0  0  0  0  0  0  0  0  0  0  0  0  # atno 10765 bound_to 10752
  140.5298  134.0478  155.7870 H   0  0  0  0  0  0  0  0  0  0  0  0  # atno 11005 bound_to 11000
  145.8942  140.9284  143.0536 LP  0  0  0  0  0  0  0  0  0  0  0  0  # atno 17320 bound_to 7965
  144.6729  140.0946  143.7463 LP  0  0  0  0  0  0  0  0  0  0  0  0  # atno 17321 bound_to 7965
  139.7036  143.9492  152.2916 LP  0  0  0  0  0  0  0  0  0  0  0  0  # atno 17342 bound_to 10162
  139.9194  144.6809  150.8478 LP  0  0  0  0  0  0  0  0  0  0  0  0  # atno 17343 bound_to 10162
  156.3281  130.3796  149.7515 LP  0  0  0  0  0  0  0  0  0  0  0  0  # atno 17370 bound_to 10713
  156.5063  130.8152  151.3152 LP  0  0  0  0  0  0  0  0  0  0  0  0  # atno 17371 bound_to 10713
  141.1288  133.9338  157.2580 LP  0  0  0  0  0  0  0  0  0  0  0  0  # atno 17394 bound_to 11000
  139.9560  135.0165  156.9130 LP  0  0  0  0  0  0  0  0  0  0  0  0  # atno 17395 bound_to 11000

$$$$
