AV-unprocessed.smi:2852|AV-procd|sdf|10972|dock6
  -GOLD-   2272015423D 1   1.00000     0.00000
 Structure written by MMmdl.
 28 29  0  0  0  0  0  0  0  0  1 V2000
  146.8425  138.9030  152.5442 C   0  0  0  0  0  0  0  0  0  0  0  0
  147.7435  139.9639  152.9674 N   0  0  0  0  0  0  0  0  0  0  0  0
  147.8042  140.4505  154.2159 C   0  0  0  0  0  0  0  0  0  0  0  0
  147.1064  140.0320  155.1397 O   0  0  0  0  0  0  0  0  0  0  0  0
  148.8056  141.5802  154.4634 C   0  0  0  0  0  0  0  0  0  0  0  0
  149.9341  141.1051  155.3219 C   0  0  0  0  0  0  0  0  0  0  0  0
  150.7562  140.1451  154.9140 N   0  0  0  0  0  0  0  0  0  0  0  0
  151.6459  140.0015  155.9886 O   0  0  0  0  0  0  0  0  0  0  0  0
  151.2523  140.9029  156.9199 C   0  0  0  0  0  0  0  0  0  0  0  0
  152.0020  140.9685  158.1694 C   0  0  0  0  0  0  0  0  0  0  0  0
  152.2257  142.0865  158.8827 C   0  0  0  0  0  0  0  0  0  0  0  0
  152.9701  142.2924  160.1798 C   0  0  0  0  0  0  0  0  0  0  0  0
  152.5876  143.7724  159.9893 C   0  0  0  0  0  0  0  0  0  0  0  0
  151.8265  143.5294  158.6727 C   0  0  0  0  0  0  0  0  0  0  0  0
  150.1936  141.6239  156.5545 N   0  0  0  0  0  0  0  0  0  0  0  0
  147.0057  138.6748  151.4911 H   0  0  0  0  0  0  0  0  0  0  0  0
  145.8025  139.2065  152.6697 H   0  0  0  0  0  0  0  0  0  0  0  0
  147.0126  137.9931  153.1211 H   0  0  0  0  0  0  0  0  0  0  0  0
  148.3510  140.3621  152.2657 H   0  0  0  0  0  0  0  0  0  0  0  0
  149.1924  141.9440  153.5104 H   0  0  0  0  0  0  0  0  0  0  0  0
  148.3071  142.4227  154.9447 H   0  0  0  0  0  0  0  0  0  0  0  0
  152.3994  140.0337  158.5371 H   0  0  0  0  0  0  0  0  0  0  0  0
  152.5300  141.8636  161.0807 H   0  0  0  0  0  0  0  0  0  0  0  0
  154.0493  142.1378  160.1670 H   0  0  0  0  0  0  0  0  0  0  0  0
  151.9453  144.1502  160.7861 H   0  0  0  0  0  0  0  0  0  0  0  0
  153.4557  144.4211  159.8629 H   0  0  0  0  0  0  0  0  0  0  0  0
  152.2768  144.0549  157.8300 H   0  0  0  0  0  0  0  0  0  0  0  0
  150.7664  143.7708  158.7555 H   0  0  0  0  0  0  0  0  0  0  0  0
  1  2  1  0  0  0  0
  1 16  1  0  0  0  0
  1 17  1  0  0  0  0
  1 18  1  0  0  0  0
  2  3  1  0  0  0  0
  2 19  1  0  0  0  0
  3  4  2  0  0  0  0
  3  5  1  0  0  0  0
  5  6  1  0  0  0  0
  5 20  1  0  0  0  0
  5 21  1  0  0  0  0
  6 15  1  0  0  0  0
  6  7  2  0  0  0  0
  7  8  1  0  0  0  0
  8  9  1  0  0  0  0
  9 10  1  0  0  0  0
  9 15  2  0  0  0  0
 10 11  2  0  0  0  0
 10 22  1  0  0  0  0
 11 14  1  0  0  0  0
 11 12  1  0  0  0  0
 12 13  1  0  0  0  0
 12 23  1  0  0  0  0
 12 24  1  0  0  0  0
 13 14  1  0  0  0  0
 13 25  1  0  0  0  0
 13 26  1  0  0  0  0
 14 27  1  0  0  0  0
 14 28  1  0  0  0  0
M  END
> <s_m_source_file>
AV-unprocessed.smi

> <i_m_source_file_index>
2852

> <i_lp_mmshare_version>
43012

> <i_f3d_flags>
0

> <s_epik_input>
W0NIM11bTkhdQyg9TylbQ0gyXWMxbm9jKG4xKVtDSF09QzJbQ0gyXVtDSDJdW0NIMl0y

> <s_epik_cmdline>
J2VwaWtfcHl0aG9uJywgJy1waCcsICc3LjAnLCAnLXRuJywgJzgnLCAnLW1hJywgJzIwMCcsICctbWV0YWxfYmluZGluZycsICctaW1hZScsICc8aW5maWxlLm1hZT4nLCAnLW9tYWUnLCAnPG91dGZpbGUubWFlPic=

> <r_lp_tautomer_probability>
1

> <r_epik_Ionization_Penalty>
1.02917e-07

> <r_epik_Ionization_Penalty_Charging>
0

> <r_epik_Ionization_Penalty_Neutral>
1.02917e-07

> <r_epik_State_Penalty>
-0

> <r_epik_Charging_Adjusted_Penalty>
0

> <i_epik_Tot_Q>
0

> <i_epik_Tot_abs_Q>
0

> <r_epik_Metal_State_Penalty>
-0

> <b_epik_Metal_Only>
0

> <s_lp_Force_Field>
OPLS_2005

> <r_lp_Energy>
12.6474

> <b_lp_Chiralities_Consistent>
1

> <s_lp_Variant>
AV-unprocessed.smi:2852-1

> <Gold.Version>
5.8.1

> <Gold.Id.Protein>
6NUR|6NUR_protein|mol2

> <Gold.PLP.Fitness>
37.6820

> <Gold.PLP.PLP>
-32.4083

> <Gold.PLP.part.hbond>
-2.0000

> <Gold.PLP.part.metal>
0.0000

> <Gold.PLP.part.buried>
-3.9077

> <Gold.PLP.part.nonpolar>
-26.9795

> <Gold.PLP.part.repulsive>
0.2803

> <Gold.PLP.ligand.clash>
0.0000

> <Gold.PLP.ligand.torsion>
0.3274

> <Gold.PLP.Chemscore.Hbond>
1.9760

> <Gold.PLP.Chemscore.CHOScore>
0.0000

> <Gold.PLP.Chemscore.Metal>
0.0000

> <Gold.Chemscore.Hbonds>
donor molecule, donor type, donor heavy atom, donor atom, acceptor molecule, acceptor atom, score
      L1  H     2    19       P1  7957  0.91
      P1  H  7989  7998       L1     7  1.00

> <Gold.PLP.Chemscore.Internal.Correction>
0.0006

> <Gold.Rescore>
     Score         DG    S(hbond)    S(metal)    S(lipo)     H(rot)  DE(clash)    DE(int)     intcor
     15.29     -15.56       1.58        0.00      70.51       1.35       0.00       0.27       ----

> <Gold.Chemscore.Fitness>
15.2856

> <Gold.Chemscore.DG>
-15.5568

> <Gold.Chemscore.ZeroCoef>
-5.4800

> <Gold.Chemscore.Hbond>
1.5833

> <Gold.Chemscore.Metal>
0.0000

> <Gold.Chemscore.Lipo>
70.5079

> <Gold.Chemscore.Internal_Hbond>
0.0000

> <Gold.Chemscore.DEClash>
0.0013

> <Gold.Chemscore.DEInternal>
0.2699

> <Gold.Chemscore.Rot>
1.3519

> <Gold.Chemscore.Internal.Correction>
   9.000000E+99

> <Gold.Chemscore.Hbonds>
donor molecule, donor type, donor heavy atom, donor atom, acceptor molecule, acceptor atom, score
      L1  H     2    19       P1  7957  0.90
      P1  H  7989  7998       L1     7  0.31

> <Gold.Chemscore.Hbond.Weighted>
-5.2883

> <Gold.Chemscore.Metal.Weighted>
-0.0000

> <Gold.Chemscore.Lipo.Weighted>
-8.2494

> <Gold.Chemscore.Internal_Hbond.Weighted>
0.0000

> <Gold.Chemscore.DEClash.Weighted>
0.0013

> <Gold.Chemscore.DEInternal.Weighted>
0.2699

> <Gold.Chemscore.Rot.Weighted>
3.4610

> <Gold.Chemscore.Internal.Correction.Weighted>
   9.000000E+99

> <Gold.Protein.RotatedTorsions>
[ 6907 6896 6895 6894 ] final    0.04 input  -60.11 | X-H torsion
[ 7974 7965 7964 7962 ] final   35.82 input  175.53 | X-H torsion
[ 8008 7997 7996 7995 ] final  -44.95 input   59.86 | X-H torsion
[ 10167 10162 10161 10158 ] final -137.77 input  -65.29 | X-H torsion
[ 10718 10713 10712 10709 ] final   29.38 input   66.30 | X-H torsion
[ 10763 10752 10751 10750 ] final  -89.21 input  -60.55 | X-H torsion
[ 11005 11000 10999 10996 ] final  151.83 input  -57.11 | X-H torsion

> <Gold.Protein.ActiveResidues>
 VAL166  LYS551  ARG553  GLY616  TRP617  ASP618  TYR619  PRO620  LYS621  CYS622 
 ASP623  PHE694  ASN695  SER759  ASP760  ASP761  ALA762  ILE779  LEU786  VAL792 
 PHE793  MET794  SER795  GLU796  ALA797  LYS798  CYS799  TRP800  GLU811  SER814 

> <Gold.Protein.RotatedAtoms>
  151.5701  135.1063  159.9992 H   0  0  0  0  0  0  0  0  0  0  0  0  # atno 6907 bound_to 6896
  152.4405  133.7435  159.6665 H   0  0  0  0  0  0  0  0  0  0  0  0  # atno 6908 bound_to 6896
  150.8310  133.8023  159.3122 H   0  0  0  0  0  0  0  0  0  0  0  0  # atno 6909 bound_to 6896
  146.1256  139.6095  142.9261 H   0  0  0  0  0  0  0  0  0  0  0  0  # atno 7974 bound_to 7965
  154.3999  140.1409  156.3767 H   0  0  0  0  0  0  0  0  0  0  0  0  # atno 8008 bound_to 7997
  155.8042  140.3475  155.5399 H   0  0  0  0  0  0  0  0  0  0  0  0  # atno 8009 bound_to 7997
  155.8452  140.0933  157.1700 H   0  0  0  0  0  0  0  0  0  0  0  0  # atno 8010 bound_to 7997
  139.8544  143.7157  152.2655 H   0  0  0  0  0  0  0  0  0  0  0  0  # atno 10167 bound_to 10162
  157.2459  130.7091  149.6381 H   0  0  0  0  0  0  0  0  0  0  0  0  # atno 10718 bound_to 10713
  154.6528  135.5349  153.7923 H   0  0  0  0  0  0  0  0  0  0  0  0  # atno 10763 bound_to 10752
  153.0396  135.6486  154.0990 H   0  0  0  0  0  0  0  0  0  0  0  0  # atno 10764 bound_to 10752
  154.0906  135.2940  155.3252 H   0  0  0  0  0  0  0  0  0  0  0  0  # atno 10765 bound_to 10752
  140.1253  134.8837  157.2129 H   0  0  0  0  0  0  0  0  0  0  0  0  # atno 11005 bound_to 11000
  145.5373  141.0423  143.2350 LP  0  0  0  0  0  0  0  0  0  0  0  0  # atno 17320 bound_to 7965
  144.7639  139.6891  143.7223 LP  0  0  0  0  0  0  0  0  0  0  0  0  # atno 17321 bound_to 7965
  139.7434  144.7553  151.0618 LP  0  0  0  0  0  0  0  0  0  0  0  0  # atno 17342 bound_to 10162
  140.7783  143.4945  150.9850 LP  0  0  0  0  0  0  0  0  0  0  0  0  # atno 17343 bound_to 10162
  155.9668  130.4443  150.5457 LP  0  0  0  0  0  0  0  0  0  0  0  0  # atno 17370 bound_to 10713
  157.3330  131.0703  151.1846 LP  0  0  0  0  0  0  0  0  0  0  0  0  # atno 17371 bound_to 10713
  140.2912  134.3239  155.7315 LP  0  0  0  0  0  0  0  0  0  0  0  0  # atno 17394 bound_to 11000
  141.2160  133.7535  156.9505 LP  0  0  0  0  0  0  0  0  0  0  0  0  # atno 17395 bound_to 11000

$$$$
