AV-unprocessed.smi:2768|AV-procd|sdf|10655|dock3
  -GOLD-   2272015103D 1   1.00000     0.00000
 Structure written by MMmdl.
 34 35  0  0  0  0  0  0  0  0  2 V2000
  149.9606  136.5659  159.4535 O   0  0  0  0  0  0  0  0  0  0  0  0
  149.1219  136.6134  158.5460 C   0  0  0  0  0  0  0  0  0  0  0  0
  149.3032  136.6992  157.1964 N   0  5  0  0  0  0  0  0  0  0  0  0
  149.8644  137.8670  156.5132 C   0  0  1  0  0  0  0  0  0  0  0  0
  151.2625  138.1986  157.0955 C   0  0  0  0  0  0  0  0  0  0  0  0
  151.9950  139.3289  156.3296 C   0  0  0  0  0  0  0  0  0  0  0  0
  152.1399  139.0259  154.8237 C   0  0  0  0  0  0  0  0  0  0  0  0
  150.7533  138.7080  154.2264 C   0  0  0  0  0  0  0  0  0  0  0  0
  150.0186  137.5777  154.9950 C   0  0  2  0  0  0  0  0  0  0  0  0
  148.7416  137.3964  154.4167 O   0  0  0  0  0  0  0  0  0  0  0  0
  147.6287  136.5490  158.9335 C   0  0  0  0  0  0  0  0  0  0  0  0
  147.0541  137.7060  158.5950 F   0  0  0  0  0  0  0  0  0  0  0  0
  147.0062  135.5830  158.2481 F   0  0  0  0  0  0  0  0  0  0  0  0
  147.4756  136.3326  160.4380 C   0  0  0  0  0  0  0  0  0  0  0  0
  147.8195  135.0946  161.0283 C   0  0  0  0  0  0  0  0  0  0  0  0
  147.6530  134.9377  162.4176 C   0  0  0  0  0  0  0  0  0  0  0  0
  147.1502  136.0178  163.1672 C   0  0  0  0  0  0  0  0  0  0  0  0
  146.8318  137.2110  162.4894 C   0  0  0  0  0  0  0  0  0  0  0  0
  146.9886  137.3718  161.1585 N   0  0  0  0  0  0  0  0  0  0  0  0
  149.2320  138.7497  156.6272 H   0  0  0  0  0  0  0  0  0  0  0  0
  150.5775  136.6499  154.8626 H   0  0  0  0  0  0  0  0  0  0  0  0
  151.1680  138.4786  158.1455 H   0  0  0  0  0  0  0  0  0  0  0  0
  151.8869  137.3038  157.0769 H   0  0  0  0  0  0  0  0  0  0  0  0
  151.4656  140.2749  156.4609 H   0  0  0  0  0  0  0  0  0  0  0  0
  152.9832  139.4790  156.7650 H   0  0  0  0  0  0  0  0  0  0  0  0
  152.5942  139.8708  154.3058 H   0  0  0  0  0  0  0  0  0  0  0  0
  152.8049  138.1730  154.6823 H   0  0  0  0  0  0  0  0  0  0  0  0
  150.1486  139.6177  154.2202 H   0  0  0  0  0  0  0  0  0  0  0  0
  150.8708  138.4223  153.1804 H   0  0  0  0  0  0  0  0  0  0  0  0
  148.8731  137.1184  153.5223 H   0  0  0  0  0  0  0  0  0  0  0  0
  148.1965  134.2800  160.4278 H   0  0  0  0  0  0  0  0  0  0  0  0
  147.9054  134.0046  162.8996 H   0  0  0  0  0  0  0  0  0  0  0  0
  147.0103  135.9340  164.2348 H   0  0  0  0  0  0  0  0  0  0  0  0
  146.4429  138.0602  163.0315 H   0  0  0  0  0  0  0  0  0  0  0  0
  1  2  2  0  0  0  0
  2  3  1  0  0  0  0
  2 11  1  0  0  0  0
  3  4  1  0  0  0  0
  4 20  1  0  0  0  0
  4  9  1  0  0  0  0
  4  5  1  0  0  0  0
  5  6  1  0  0  0  0
  5 22  1  0  0  0  0
  5 23  1  0  0  0  0
  6  7  1  0  0  0  0
  6 24  1  0  0  0  0
  6 25  1  0  0  0  0
  7  8  1  0  0  0  0
  7 26  1  0  0  0  0
  7 27  1  0  0  0  0
  8  9  1  0  0  0  0
  8 28  1  0  0  0  0
  8 29  1  0  0  0  0
  9 21  1  0  0  0  0
  9 10  1  0  0  0  0
 10 30  1  0  0  0  0
 11 12  1  0  0  0  0
 11 13  1  0  0  0  0
 11 14  1  0  0  0  0
 14 19  1  0  0  0  0
 14 15  2  0  0  0  0
 15 16  1  0  0  0  0
 15 31  1  0  0  0  0
 16 17  2  0  0  0  0
 16 32  1  0  0  0  0
 17 18  1  0  0  0  0
 17 33  1  0  0  0  0
 18 19  2  0  0  0  0
 18 34  1  0  0  0  0
M  CHG  1   3  -1
M  END
> <s_m_source_file>
AV-unprocessed.smi

> <i_m_source_file_index>
2768

> <i_lp_mmshare_version>
43012

> <i_f3d_flags>
0

> <s_epik_input>
bjFbY0hdW2NIXVtjSF1bY0hdYzFDKEYpKEYpQyg9TylbTkhdW0NAQEhdMltDSDJdW0NIMl1bQ0gyXVtDSDJdW0NASF0yW09IXQ==

> <s_epik_cmdline>
J2VwaWtfcHl0aG9uJywgJy1waCcsICc3LjAnLCAnLXRuJywgJzgnLCAnLW1hJywgJzIwMCcsICctbWV0YWxfYmluZGluZycsICctaW1hZScsICc8aW5maWxlLm1hZT4nLCAnLW9tYWUnLCAnPG91dGZpbGUubWFlPic=

> <r_lp_tautomer_probability>
1

> <r_epik_Ionization_Penalty>
5.70553

> <r_epik_Ionization_Penalty_Charging>
5.70553

> <r_epik_Ionization_Penalty_Neutral>
5.5493e-06

> <r_epik_State_Penalty>
5.70549

> <r_epik_Charging_Adjusted_Penalty>
11.411

> <i_epik_Tot_Q>
-1

> <i_epik_Tot_abs_Q>
1

> <r_epik_Metal_State_Penalty>
1.6859

> <b_epik_Metal_Only>
1

> <s_lp_Force_Field>
OPLS_2005

> <r_lp_Energy>
26.4517

> <b_lp_Chiralities_Consistent>
1

> <s_lp_Variant>
AV-unprocessed.smi:2768-8

> <Gold.Version>
5.8.1

> <Gold.Id.Protein>
6NUR|6NUR_protein|mol2

> <Gold.PLP.Fitness>
37.4223

> <Gold.PLP.PLP>
-30.3228

> <Gold.PLP.part.hbond>
-3.5604

> <Gold.PLP.part.metal>
0.0000

> <Gold.PLP.part.buried>
-3.6416

> <Gold.PLP.part.nonpolar>
-22.5072

> <Gold.PLP.part.repulsive>
0.0000

> <Gold.PLP.ligand.clash>
0.0000

> <Gold.PLP.ligand.torsion>
0.9710

> <Gold.PLP.Chemscore.Hbond>
3.0000

> <Gold.PLP.Chemscore.CHOScore>
0.0000

> <Gold.PLP.Chemscore.Metal>
0.0000

> <Gold.Chemscore.Hbonds>
donor molecule, donor type, donor heavy atom, donor atom, acceptor molecule, acceptor atom, score
      L1  H    10    30       P1  7948  1.00
      P1  H  6896  6909       L1     1  1.00
      P1  H  6934  6947       L1    19  1.00

> <Gold.PLP.Chemscore.Internal.Correction>
0.0415

> <Gold.Rescore>
     Score         DG    S(hbond)    S(metal)    S(lipo)     H(rot)  DE(clash)    DE(int)     intcor
     17.09     -19.37       2.89        0.00      78.99       1.95       0.09       2.19       ----

> <Gold.Chemscore.Fitness>
17.0903

> <Gold.Chemscore.DG>
-19.3697

> <Gold.Chemscore.ZeroCoef>
-5.4800

> <Gold.Chemscore.Hbond>
2.8865

> <Gold.Chemscore.Metal>
0.0000

> <Gold.Chemscore.Lipo>
78.9873

> <Gold.Chemscore.Internal_Hbond>
0.0000

> <Gold.Chemscore.DEClash>
0.0898

> <Gold.Chemscore.DEInternal>
2.1896

> <Gold.Chemscore.Rot>
1.9503

> <Gold.Chemscore.Internal.Correction>
   9.000000E+99

> <Gold.Chemscore.Hbonds>
donor molecule, donor type, donor heavy atom, donor atom, acceptor molecule, acceptor atom, score
      L1  H    10    30       P1  7948  1.00
      P1  H  6896  6909       L1     1  0.99
      P1  H  6934  6947       L1    19  0.50

> <Gold.Chemscore.Hbond.Weighted>
-9.6410

> <Gold.Chemscore.Metal.Weighted>
-0.0000

> <Gold.Chemscore.Lipo.Weighted>
-9.2415

> <Gold.Chemscore.Internal_Hbond.Weighted>
0.0000

> <Gold.Chemscore.DEClash.Weighted>
0.0898

> <Gold.Chemscore.DEInternal.Weighted>
2.1896

> <Gold.Chemscore.Rot.Weighted>
4.9928

> <Gold.Chemscore.Internal.Correction.Weighted>
   9.000000E+99

> <Gold.Protein.RotatedTorsions>
[ 6907 6896 6895 6894 ] final   85.50 input  -60.11 | X-H torsion
[ 7974 7965 7964 7962 ] final  -10.32 input  175.53 | X-H torsion
[ 8008 7997 7996 7995 ] final  -95.30 input   59.86 | X-H torsion
[ 10167 10162 10161 10158 ] final  -11.83 input  -65.29 | X-H torsion
[ 10718 10713 10712 10709 ] final   13.02 input   66.30 | X-H torsion
[ 10763 10752 10751 10750 ] final  -53.40 input  -60.55 | X-H torsion
[ 11005 11000 10999 10996 ] final   59.90 input  -57.11 | X-H torsion

> <Gold.Protein.ActiveResidues>
 VAL166  LYS551  ARG553  GLY616  TRP617  ASP618  TYR619  PRO620  LYS621  CYS622 
 ASP623  PHE694  ASN695  SER759  ASP760  ASP761  ALA762  ILE779  LEU786  VAL792 
 PHE793  MET794  SER795  GLU796  ALA797  LYS798  CYS799  TRP800  GLU811  SER814 

> <Gold.Protein.RotatedAtoms>
  152.5376  134.2576  159.8922 H   0  0  0  0  0  0  0  0  0  0  0  0  # atno 6907 bound_to 6896
  151.2537  133.4330  159.2620 H   0  0  0  0  0  0  0  0  0  0  0  0  # atno 6908 bound_to 6896
  151.0516  134.9691  159.8270 H   0  0  0  0  0  0  0  0  0  0  0  0  # atno 6909 bound_to 6896
  146.2224  140.2747  142.8359 H   0  0  0  0  0  0  0  0  0  0  0  0  # atno 7974 bound_to 7965
  154.7596  140.0481  157.0962 H   0  0  0  0  0  0  0  0  0  0  0  0  # atno 8008 bound_to 7997
  154.9954  140.3118  155.4869 H   0  0  0  0  0  0  0  0  0  0  0  0  # atno 8009 bound_to 7997
  156.2901  140.2211  156.5061 H   0  0  0  0  0  0  0  0  0  0  0  0  # atno 8010 bound_to 7997
  140.7147  143.5597  150.9209 H   0  0  0  0  0  0  0  0  0  0  0  0  # atno 10167 bound_to 10162
  157.0186  130.6145  149.5718 H   0  0  0  0  0  0  0  0  0  0  0  0  # atno 10718 bound_to 10713
  154.1582  135.6479  153.4979 H   0  0  0  0  0  0  0  0  0  0  0  0  # atno 10763 bound_to 10752
  153.0118  135.5354  154.6738 H   0  0  0  0  0  0  0  0  0  0  0  0  # atno 10764 bound_to 10752
  154.6044  135.2947  155.0472 H   0  0  0  0  0  0  0  0  0  0  0  0  # atno 10765 bound_to 10752
  140.0270  134.6068  155.9559 H   0  0  0  0  0  0  0  0  0  0  0  0  # atno 11005 bound_to 11000
  144.9241  140.7902  143.5730 LP  0  0  0  0  0  0  0  0  0  0  0  0  # atno 17320 bound_to 7965
  145.2686  139.1963  143.4854 LP  0  0  0  0  0  0  0  0  0  0  0  0  # atno 17321 bound_to 7965
  139.9323  143.6479  152.3073 LP  0  0  0  0  0  0  0  0  0  0  0  0  # atno 17342 bound_to 10162
  139.6934  144.7644  151.1398 LP  0  0  0  0  0  0  0  0  0  0  0  0  # atno 17343 bound_to 10162
  156.0110  130.5202  150.7989 LP  0  0  0  0  0  0  0  0  0  0  0  0  # atno 17370 bound_to 10713
  157.5267  131.0934  151.0009 LP  0  0  0  0  0  0  0  0  0  0  0  0  # atno 17371 bound_to 10713
  141.1809  133.6546  156.5015 LP  0  0  0  0  0  0  0  0  0  0  0  0  # atno 17394 bound_to 11000
  140.4289  134.7120  157.4931 LP  0  0  0  0  0  0  0  0  0  0  0  0  # atno 17395 bound_to 11000

$$$$
