AV-unprocessed.smi:2123|AV-procd|sdf|8648|dock4
  -GOLD-   2272011393D 1   1.00000     0.00000
 Structure written by MMmdl.
 47 48  0  0  0  0  0  0  0  0  1 V2000
  148.6538  131.2356  153.6614 C   0  0  0  0  0  0  0  0  0  0  0  0
  148.9218  133.0255  153.7387 S   0  0  0  0  0  0  0  0  0  0  0  0
  149.0041  133.2383  155.5405 C   0  0  0  0  0  0  0  0  0  0  0  0
  148.8956  134.7155  155.9643 C   0  0  0  0  0  0  0  0  0  0  0  0
  150.1561  135.5505  155.7060 C   0  0  0  0  0  0  0  0  0  0  0  0
  151.2080  135.3223  156.3048 O   0  0  0  0  0  0  0  0  0  0  0  0
  150.0255  136.5377  154.8064 N   0  0  0  0  0  0  0  0  0  0  0  0
  151.0828  137.4699  154.4260 C   0  0  0  0  0  0  0  0  0  0  0  0
  151.2574  138.6562  155.3659 C   0  0  0  0  0  0  0  0  0  0  0  0
  150.2764  139.6612  155.5070 C   0  0  0  0  0  0  0  0  0  0  0  0
  150.5101  140.7237  156.3999 C   0  0  0  0  0  0  0  0  0  0  0  0
  151.7230  140.7606  157.1259 C   0  0  0  0  0  0  0  0  0  0  0  0
  151.9662  141.8126  158.0331 N   0  0  0  0  0  0  0  0  0  0  0  0
  151.2027  143.0315  157.7842 C   0  0  0  0  0  0  0  0  0  0  0  0
  151.7529  144.2089  158.6124 C   0  0  2  0  0  0  0  0  0  0  0  0
  153.0656  144.7872  158.0549 C   0  0  0  0  0  0  0  0  0  0  0  0
  151.8666  143.8378  159.9885 O   0  0  0  0  0  0  0  0  0  0  0  0
  152.6581  142.6751  160.2311 C   0  0  1  0  0  0  0  0  0  0  0  0
  152.6731  142.4160  161.7411 C   0  0  0  0  0  0  0  0  0  0  0  0
  152.0756  141.4835  159.4508 C   0  0  0  0  0  0  0  0  0  0  0  0
  152.6722  139.8044  156.9748 N   0  0  0  0  0  0  0  0  0  0  0  0
  152.4406  138.7854  156.1207 C   0  0  0  0  0  0  0  0  0  0  0  0
  148.5622  130.9141  152.6240 H   0  0  0  0  0  0  0  0  0  0  0  0
  147.7402  130.9635  154.1901 H   0  0  0  0  0  0  0  0  0  0  0  0
  149.4911  130.7052  154.1155 H   0  0  0  0  0  0  0  0  0  0  0  0
  148.1807  132.6757  155.9813 H   0  0  0  0  0  0  0  0  0  0  0  0
  149.9223  132.7873  155.9191 H   0  0  0  0  0  0  0  0  0  0  0  0
  148.0421  135.1874  155.4757 H   0  0  0  0  0  0  0  0  0  0  0  0
  148.6951  134.7542  157.0356 H   0  0  0  0  0  0  0  0  0  0  0  0
  149.1286  136.6566  154.3582 H   0  0  0  0  0  0  0  0  0  0  0  0
  152.0281  136.9318  154.3377 H   0  0  0  0  0  0  0  0  0  0  0  0
  150.8539  137.8541  153.4319 H   0  0  0  0  0  0  0  0  0  0  0  0
  149.3548  139.6278  154.9452 H   0  0  0  0  0  0  0  0  0  0  0  0
  149.7676  141.5001  156.5107 H   0  0  0  0  0  0  0  0  0  0  0  0
  151.1972  143.3002  156.7283 H   0  0  0  0  0  0  0  0  0  0  0  0
  150.1648  142.8436  158.0622 H   0  0  0  0  0  0  0  0  0  0  0  0
  151.0160  145.0115  158.5749 H   0  0  0  0  0  0  0  0  0  0  0  0
  152.9156  145.1830  157.0501 H   0  0  0  0  0  0  0  0  0  0  0  0
  153.8547  144.0383  157.9914 H   0  0  0  0  0  0  0  0  0  0  0  0
  153.4269  145.6037  158.6804 H   0  0  0  0  0  0  0  0  0  0  0  0
  153.6843  142.8560  159.9106 H   0  0  0  0  0  0  0  0  0  0  0  0
  153.2754  141.5398  161.9829 H   0  0  0  0  0  0  0  0  0  0  0  0
  151.6659  142.2457  162.1223 H   0  0  0  0  0  0  0  0  0  0  0  0
  153.0936  143.2664  162.2782 H   0  0  0  0  0  0  0  0  0  0  0  0
  151.0887  141.2253  159.8374 H   0  0  0  0  0  0  0  0  0  0  0  0
  152.7179  140.6122  159.5861 H   0  0  0  0  0  0  0  0  0  0  0  0
  153.2257  138.0479  156.0411 H   0  0  0  0  0  0  0  0  0  0  0  0
  1  2  1  0  0  0  0
  1 23  1  0  0  0  0
  1 24  1  0  0  0  0
  1 25  1  0  0  0  0
  2  3  1  0  0  0  0
  3  4  1  0  0  0  0
  3 26  1  0  0  0  0
  3 27  1  0  0  0  0
  4  5  1  0  0  0  0
  4 28  1  0  0  0  0
  4 29  1  0  0  0  0
  5  6  2  0  0  0  0
  5  7  1  0  0  0  0
  7  8  1  0  0  0  0
  7 30  1  0  0  0  0
  8  9  1  0  0  0  0
  8 31  1  0  0  0  0
  8 32  1  0  0  0  0
  9 22  1  0  0  0  0
  9 10  2  0  0  0  0
 10 11  1  0  0  0  0
 10 33  1  0  0  0  0
 11 12  2  0  0  0  0
 11 34  1  0  0  0  0
 12 13  1  0  0  0  0
 12 21  1  0  0  0  0
 13 20  1  0  0  0  0
 13 14  1  0  0  0  0
 14 15  1  0  0  0  0
 14 35  1  0  0  0  0
 14 36  1  0  0  0  0
 15 16  1  0  0  0  0
 15 17  1  0  0  0  0
 15 37  1  0  0  0  0
 16 38  1  0  0  0  0
 16 39  1  0  0  0  0
 16 40  1  0  0  0  0
 17 18  1  0  0  0  0
 18 19  1  0  0  0  0
 18 20  1  0  0  0  0
 18 41  1  0  0  0  0
 19 42  1  0  0  0  0
 19 43  1  0  0  0  0
 19 44  1  0  0  0  0
 20 45  1  0  0  0  0
 20 46  1  0  0  0  0
 21 22  2  0  0  0  0
 22 47  1  0  0  0  0
M  END
> <s_m_source_file>
AV-unprocessed.smi

> <i_m_source_file_index>
2123

> <i_lp_mmshare_version>
43012

> <i_f3d_flags>
0

> <s_epik_input>
W0NIM11TW0NIMl1bQ0gyXUMoPU8pW05IXVtDSDJdYzFbY0hdW2NIXWMobltjSF0xKU4yW0NIMl1bQ0BASF0oW0NIM10pT1tDQEBIXShbQ0gzXSlbQ0gyXTI=

> <s_epik_cmdline>
J2VwaWtfcHl0aG9uJywgJy1waCcsICc3LjAnLCAnLXRuJywgJzgnLCAnLW1hJywgJzIwMCcsICctbWV0YWxfYmluZGluZycsICctaW1hZScsICc8aW5maWxlLm1hZT4nLCAnLW9tYWUnLCAnPG91dGZpbGUubWFlPic=

> <r_lp_tautomer_probability>
1

> <r_epik_Ionization_Penalty>
0.00642497

> <r_epik_Ionization_Penalty_Charging>
0

> <r_epik_Ionization_Penalty_Neutral>
0.00642497

> <r_epik_State_Penalty>
0.0047515

> <r_epik_Charging_Adjusted_Penalty>
0.0047515

> <i_epik_Tot_Q>
0

> <i_epik_Tot_abs_Q>
0

> <r_epik_Metal_State_Penalty>
-0

> <b_epik_Metal_Only>
0

> <s_lp_Force_Field>
OPLS_2005

> <r_lp_Energy>
18.6886

> <b_lp_Chiralities_Consistent>
1

> <s_lp_Variant>
AV-unprocessed.smi:2123-2

> <Gold.Version>
5.8.1

> <Gold.Id.Protein>
6NUR|6NUR_protein|mol2

> <Gold.PLP.Fitness>
50.6300

> <Gold.PLP.PLP>
-45.5910

> <Gold.PLP.part.hbond>
-2.4003

> <Gold.PLP.part.metal>
0.0000

> <Gold.PLP.part.buried>
-4.4049

> <Gold.PLP.part.nonpolar>
-37.9345

> <Gold.PLP.part.repulsive>
0.1100

> <Gold.PLP.ligand.clash>
0.0000

> <Gold.PLP.ligand.torsion>
0.6769

> <Gold.PLP.Chemscore.Hbond>
2.0000

> <Gold.PLP.Chemscore.CHOScore>
0.0000

> <Gold.PLP.Chemscore.Metal>
0.0000

> <Gold.Chemscore.Hbonds>
donor molecule, donor type, donor heavy atom, donor atom, acceptor molecule, acceptor atom, score
      P1  H  7997  8010       L1    21  1.00
      P1  H 10752 10765       L1     6  0.31

> <Gold.PLP.Chemscore.Internal.Correction>
0.3928

> <Gold.Rescore>
     Score         DG    S(hbond)    S(metal)    S(lipo)     H(rot)  DE(clash)    DE(int)     intcor
     20.34     -21.12       1.80        0.00     119.75       1.70       0.08       0.70       ----

> <Gold.Chemscore.Fitness>
20.3356

> <Gold.Chemscore.DG>
-21.1240

> <Gold.Chemscore.ZeroCoef>
-5.4800

> <Gold.Chemscore.Hbond>
1.7958

> <Gold.Chemscore.Metal>
0.0000

> <Gold.Chemscore.Lipo>
119.7484

> <Gold.Chemscore.Internal_Hbond>
0.0000

> <Gold.Chemscore.DEClash>
0.0839

> <Gold.Chemscore.DEInternal>
0.7045

> <Gold.Chemscore.Rot>
1.7049

> <Gold.Chemscore.Internal.Correction>
   9.000000E+99

> <Gold.Chemscore.Hbonds>
donor molecule, donor type, donor heavy atom, donor atom, acceptor molecule, acceptor atom, score
      P1  H  7997  8010       L1    21  0.34
      P1  H 10752 10765       L1     6  0.25

> <Gold.Chemscore.Hbond.Weighted>
-5.9981

> <Gold.Chemscore.Metal.Weighted>
-0.0000

> <Gold.Chemscore.Lipo.Weighted>
-14.0106

> <Gold.Chemscore.Internal_Hbond.Weighted>
0.0000

> <Gold.Chemscore.DEClash.Weighted>
0.0839

> <Gold.Chemscore.DEInternal.Weighted>
0.7045

> <Gold.Chemscore.Rot.Weighted>
4.3647

> <Gold.Chemscore.Internal.Correction.Weighted>
   9.000000E+99

> <Gold.Protein.RotatedTorsions>
[ 6907 6896 6895 6894 ] final   47.39 input  -60.11 | X-H torsion
[ 7974 7965 7964 7962 ] final  135.14 input  175.53 | X-H torsion
[ 8008 7997 7996 7995 ] final   51.73 input   59.86 | X-H torsion
[ 10167 10162 10161 10158 ] final  172.05 input  -65.29 | X-H torsion
[ 10718 10713 10712 10709 ] final  -50.11 input   66.30 | X-H torsion
[ 10763 10752 10751 10750 ] final -160.73 input  -60.55 | X-H torsion
[ 11005 11000 10999 10996 ] final  116.96 input  -57.11 | X-H torsion

> <Gold.Protein.ActiveResidues>
 VAL166  LYS551  ARG553  GLY616  TRP617  ASP618  TYR619  PRO620  LYS621  CYS622 
 ASP623  PHE694  ASN695  SER759  ASP760  ASP761  ALA762  ILE779  LEU786  VAL792 
 PHE793  MET794  SER795  GLU796  ALA797  LYS798  CYS799  TRP800  GLU811  SER814 

> <Gold.Protein.RotatedAtoms>
  152.2675  134.7968  160.0419 H   0  0  0  0  0  0  0  0  0  0  0  0  # atno 6907 bound_to 6896
  151.8593  133.3449  159.3707 H   0  0  0  0  0  0  0  0  0  0  0  0  # atno 6908 bound_to 6896
  150.7139  134.5150  159.5670 H   0  0  0  0  0  0  0  0  0  0  0  0  # atno 6909 bound_to 6896
  144.9693  139.4623  143.5441 H   0  0  0  0  0  0  0  0  0  0  0  0  # atno 7974 bound_to 7965
  155.4401  140.3454  155.4289 H   0  0  0  0  0  0  0  0  0  0  0  0  # atno 8008 bound_to 7997
  156.1284  140.1507  156.9132 H   0  0  0  0  0  0  0  0  0  0  0  0  # atno 8009 bound_to 7997
  154.4876  140.0851  156.7501 H   0  0  0  0  0  0  0  0  0  0  0  0  # atno 8010 bound_to 7997
  139.5065  144.3417  152.0011 H   0  0  0  0  0  0  0  0  0  0  0  0  # atno 10167 bound_to 10162
  156.1831  130.4151  149.9478 H   0  0  0  0  0  0  0  0  0  0  0  0  # atno 10718 bound_to 10713
  154.7365  135.3058  154.8802 H   0  0  0  0  0  0  0  0  0  0  0  0  # atno 10763 bound_to 10752
  153.9629  135.6751  153.4749 H   0  0  0  0  0  0  0  0  0  0  0  0  # atno 10764 bound_to 10752
  153.0967  135.4932  154.8715 H   0  0  0  0  0  0  0  0  0  0  0  0  # atno 10765 bound_to 10752
  139.9058  134.9604  156.7278 H   0  0  0  0  0  0  0  0  0  0  0  0  # atno 11005 bound_to 11000
  146.3377  139.8895  142.8811 LP  0  0  0  0  0  0  0  0  0  0  0  0  # atno 17320 bound_to 7965
  145.2582  141.0068  143.3841 LP  0  0  0  0  0  0  0  0  0  0  0  0  # atno 17321 bound_to 7965
  140.2855  144.3812  150.6105 LP  0  0  0  0  0  0  0  0  0  0  0  0  # atno 17342 bound_to 10162
  140.5986  143.2167  151.7116 LP  0  0  0  0  0  0  0  0  0  0  0  0  # atno 17343 bound_to 10162
  156.7243  130.9019  151.3621 LP  0  0  0  0  0  0  0  0  0  0  0  0  # atno 17370 bound_to 10713
  157.6881  130.9206  150.0440 LP  0  0  0  0  0  0  0  0  0  0  0  0  # atno 17371 bound_to 10713
  140.6949  133.9357  155.7989 LP  0  0  0  0  0  0  0  0  0  0  0  0  # atno 17394 bound_to 11000
  141.0414  134.0616  157.3897 LP  0  0  0  0  0  0  0  0  0  0  0  0  # atno 17395 bound_to 11000

$$$$
