AV-unprocessed.smi:2533|AV-procd|sdf|9972|dock6
  -GOLD-   2272014 23D 1   1.00000     0.00000
 Structure written by MMmdl.
 35 36  0  0  0  0  0  0  0  0  1 V2000
  146.1763  138.0747  152.2474 C   0  0  0  0  0  0  0  0  0  0  0  0
  146.4044  139.4036  152.6934 O   0  0  0  0  0  0  0  0  0  0  0  0
  147.5214  139.6473  153.4644 C   0  0  0  0  0  0  0  0  0  0  0  0
  148.4636  138.6544  153.8333 C   0  0  0  0  0  0  0  0  0  0  0  0
  149.5765  138.9864  154.6293 C   0  0  0  0  0  0  0  0  0  0  0  0
  149.7685  140.3123  155.0699 C   0  0  0  0  0  0  0  0  0  0  0  0
  150.9501  140.6700  155.9608 C   0  0  2  0  0  0  0  0  0  0  0  0
  152.1792  140.2210  155.4276 O   0  0  0  0  0  0  0  0  0  0  0  0
  150.8102  140.1218  157.3991 C   0  0  0  0  0  0  0  0  0  0  0  0
  151.6824  140.8181  158.3559 N   0  0  0  0  0  0  0  0  0  0  0  0
  151.5163  142.1926  158.3582 N   0  0  0  0  0  0  0  0  0  0  0  0
  152.1918  142.9522  159.1590 C   0  0  0  0  0  0  0  0  0  0  0  0
  151.9314  144.4368  159.0924 C   0  0  0  0  0  0  0  0  0  0  0  0
  152.0883  145.0063  160.2877 F   0  0  0  0  0  0  0  0  0  0  0  0
  152.7752  145.0121  158.2352 F   0  0  0  0  0  0  0  0  0  0  0  0
  150.6856  144.6639  158.6757 F   0  0  0  0  0  0  0  0  0  0  0  0
  153.1498  142.3451  160.0672 C   0  0  0  0  0  0  0  0  0  0  0  0
  153.3103  141.0047  160.0645 C   0  0  0  0  0  0  0  0  0  0  0  0
  152.5443  140.1400  159.1708 C   0  0  0  0  0  0  0  0  0  0  0  0
  152.6586  138.9148  159.1619 O   0  0  0  0  0  0  0  0  0  0  0  0
  148.8353  141.3030  154.7028 C   0  0  0  0  0  0  0  0  0  0  0  0
  147.7221  140.9716  153.9075 C   0  0  0  0  0  0  0  0  0  0  0  0
  146.8343  141.9375  153.5703 F   0  0  0  0  0  0  0  0  0  0  0  0
  145.2575  138.0438  151.6618 H   0  0  0  0  0  0  0  0  0  0  0  0
  146.0549  137.3877  153.0860 H   0  0  0  0  0  0  0  0  0  0  0  0
  146.9870  137.7246  151.6072 H   0  0  0  0  0  0  0  0  0  0  0  0
  148.3532  137.6269  153.5217 H   0  0  0  0  0  0  0  0  0  0  0  0
  150.2782  138.2149  154.9110 H   0  0  0  0  0  0  0  0  0  0  0  0
  151.0197  141.7575  156.0103 H   0  0  0  0  0  0  0  0  0  0  0  0
  152.1312  139.2841  155.3135 H   0  0  0  0  0  0  0  0  0  0  0  0
  149.7653  140.1703  157.7105 H   0  0  0  0  0  0  0  0  0  0  0  0
  151.0577  139.0588  157.4096 H   0  0  0  0  0  0  0  0  0  0  0  0
  153.7271  142.9637  160.7382 H   0  0  0  0  0  0  0  0  0  0  0  0
  154.0230  140.5575  160.7418 H   0  0  0  0  0  0  0  0  0  0  0  0
  148.9633  142.3213  155.0399 H   0  0  0  0  0  0  0  0  0  0  0  0
  1  2  1  0  0  0  0
  1 24  1  0  0  0  0
  1 25  1  0  0  0  0
  1 26  1  0  0  0  0
  2  3  1  0  0  0  0
  3 22  1  0  0  0  0
  3  4  2  0  0  0  0
  4  5  1  0  0  0  0
  4 27  1  0  0  0  0
  5  6  2  0  0  0  0
  5 28  1  0  0  0  0
  6  7  1  0  0  0  0
  6 21  1  0  0  0  0
  7  8  1  0  0  0  0
  7  9  1  0  0  0  0
  7 29  1  0  0  0  0
  8 30  1  0  0  0  0
  9 10  1  0  0  0  0
  9 31  1  0  0  0  0
  9 32  1  0  0  0  0
 10 19  1  0  0  0  0
 10 11  1  0  0  0  0
 11 12  2  0  0  0  0
 12 13  1  0  0  0  0
 12 17  1  0  0  0  0
 13 14  1  0  0  0  0
 13 15  1  0  0  0  0
 13 16  1  0  0  0  0
 17 18  2  0  0  0  0
 17 33  1  0  0  0  0
 18 19  1  0  0  0  0
 18 34  1  0  0  0  0
 19 20  2  0  0  0  0
 21 22  2  0  0  0  0
 21 35  1  0  0  0  0
 22 23  1  0  0  0  0
M  END
> <s_m_source_file>
AV-unprocessed.smi

> <i_m_source_file_index>
2533

> <i_lp_mmshare_version>
43012

> <i_f3d_flags>
0

> <s_epik_input>
W0NIM11PYzFbY0hdW2NIXWMoW2NIXWMxRilbQ0BIXShbT0hdKVtDSDJdbjJuYyhDKEYpKEYpRilbY0hdW2NIXWMyPU8=

> <s_epik_cmdline>
J2VwaWtfcHl0aG9uJywgJy1waCcsICc3LjAnLCAnLXRuJywgJzgnLCAnLW1hJywgJzIwMCcsICctbWV0YWxfYmluZGluZycsICctaW1hZScsICc8aW5maWxlLm1hZT4nLCAnLW9tYWUnLCAnPG91dGZpbGUubWFlPic=

> <r_lp_tautomer_probability>
1

> <r_epik_Ionization_Penalty>
5.00966e-08

> <r_epik_Ionization_Penalty_Charging>
3.92872e-09

> <r_epik_Ionization_Penalty_Neutral>
4.61679e-08

> <r_epik_State_Penalty>
-0

> <r_epik_Charging_Adjusted_Penalty>
3.92872e-09

> <i_epik_Tot_Q>
0

> <i_epik_Tot_abs_Q>
0

> <r_epik_Metal_State_Penalty>
-0

> <b_epik_Metal_Only>
0

> <s_lp_Force_Field>
OPLS_2005

> <r_lp_Energy>
31.2936

> <b_lp_Chiralities_Consistent>
1

> <s_lp_Variant>
AV-unprocessed.smi:2533-1

> <Gold.Version>
5.8.1

> <Gold.Id.Protein>
6NUR|6NUR_protein|mol2

> <Gold.PLP.Fitness>
50.3400

> <Gold.PLP.PLP>
-51.4038

> <Gold.PLP.part.hbond>
-1.3170

> <Gold.PLP.part.metal>
0.0000

> <Gold.PLP.part.buried>
-4.4980

> <Gold.PLP.part.nonpolar>
-46.7229

> <Gold.PLP.part.repulsive>
1.4472

> <Gold.PLP.ligand.clash>
0.0000

> <Gold.PLP.ligand.torsion>
1.4913

> <Gold.PLP.Chemscore.Hbond>
0.6268

> <Gold.PLP.Chemscore.CHOScore>
0.0000

> <Gold.PLP.Chemscore.Metal>
0.0000

> <Gold.Chemscore.Hbonds>
donor molecule, donor type, donor heavy atom, donor atom, acceptor molecule, acceptor atom, score
      P1  H  7989  7998       L1     8  0.35
      P1  H  7997  8010       L1     8  0.25

> <Gold.PLP.Chemscore.Internal.Correction>
0.0384

> <Gold.Rescore>
     Score         DG    S(hbond)    S(metal)    S(lipo)     H(rot)  DE(clash)    DE(int)     intcor
      8.52     -10.91       0.04        0.00     100.02       2.50       0.84       1.55       ----

> <Gold.Chemscore.Fitness>
8.5227

> <Gold.Chemscore.DG>
-10.9135

> <Gold.Chemscore.ZeroCoef>
-5.4800

> <Gold.Chemscore.Hbond>
0.0418

> <Gold.Chemscore.Metal>
0.0000

> <Gold.Chemscore.Lipo>
100.0164

> <Gold.Chemscore.Internal_Hbond>
0.0000

> <Gold.Chemscore.DEClash>
0.8383

> <Gold.Chemscore.DEInternal>
1.5525

> <Gold.Chemscore.Rot>
2.5031

> <Gold.Chemscore.Internal.Correction>
   9.000000E+99

> <Gold.Chemscore.Hbonds>
donor molecule, donor type, donor heavy atom, donor atom, acceptor molecule, acceptor atom, score
      P1  H  7989  7998       L1     8  0.01
      P1  H  7997  8010       L1     8  0.03

> <Gold.Chemscore.Hbond.Weighted>
-0.1395

> <Gold.Chemscore.Metal.Weighted>
-0.0000

> <Gold.Chemscore.Lipo.Weighted>
-11.7019

> <Gold.Chemscore.Internal_Hbond.Weighted>
0.0000

> <Gold.Chemscore.DEClash.Weighted>
0.8383

> <Gold.Chemscore.DEInternal.Weighted>
1.5525

> <Gold.Chemscore.Rot.Weighted>
6.4079

> <Gold.Chemscore.Internal.Correction.Weighted>
   9.000000E+99

> <Gold.Protein.RotatedTorsions>
[ 6907 6896 6895 6894 ] final   22.48 input  -60.11 | X-H torsion
[ 7974 7965 7964 7962 ] final   13.45 input  175.53 | X-H torsion
[ 8008 7997 7996 7995 ] final   88.56 input   59.86 | X-H torsion
[ 10167 10162 10161 10158 ] final  159.88 input  -65.29 | X-H torsion
[ 10718 10713 10712 10709 ] final -157.35 input   66.30 | X-H torsion
[ 10763 10752 10751 10750 ] final   26.37 input  -60.55 | X-H torsion
[ 11005 11000 10999 10996 ] final -170.27 input  -57.11 | X-H torsion

> <Gold.Protein.ActiveResidues>
 VAL166  LYS551  ARG553  GLY616  TRP617  ASP618  TYR619  PRO620  LYS621  CYS622 
 ASP623  PHE694  ASN695  SER759  ASP760  ASP761  ALA762  ILE779  LEU786  VAL792 
 PHE793  MET794  SER795  GLU796  ALA797  LYS798  CYS799  TRP800  GLU811  SER814 

> <Gold.Protein.RotatedAtoms>
  151.9277  135.0270  160.0526 H   0  0  0  0  0  0  0  0  0  0  0  0  # atno 6907 bound_to 6896
  152.2145  133.4932  159.5136 H   0  0  0  0  0  0  0  0  0  0  0  0  # atno 6908 bound_to 6896
  150.6984  134.1340  159.4123 H   0  0  0  0  0  0  0  0  0  0  0  0  # atno 6909 bound_to 6896
  146.2329  139.9187  142.8513 H   0  0  0  0  0  0  0  0  0  0  0  0  # atno 7974 bound_to 7965
  155.9892  140.3370  155.6737 H   0  0  0  0  0  0  0  0  0  0  0  0  # atno 8008 bound_to 7997
  155.6443  140.0698  157.2626 H   0  0  0  0  0  0  0  0  0  0  0  0  # atno 8009 bound_to 7997
  154.4214  140.1737  156.1594 H   0  0  0  0  0  0  0  0  0  0  0  0  # atno 8010 bound_to 7997
  139.4835  144.4687  151.8606 H   0  0  0  0  0  0  0  0  0  0  0  0  # atno 10167 bound_to 10162
  156.5391  130.8555  151.2742 H   0  0  0  0  0  0  0  0  0  0  0  0  # atno 10718 bound_to 10713
  153.0627  135.6562  154.0426 H   0  0  0  0  0  0  0  0  0  0  0  0  # atno 10763 bound_to 10752
  154.0090  135.2930  155.3396 H   0  0  0  0  0  0  0  0  0  0  0  0  # atno 10764 bound_to 10752
  154.6972  135.5259  153.8543 H   0  0  0  0  0  0  0  0  0  0  0  0  # atno 10765 bound_to 10752
  140.5214  134.5706  157.5049 H   0  0  0  0  0  0  0  0  0  0  0  0  # atno 11005 bound_to 11000
  145.2158  140.9914  143.4074 LP  0  0  0  0  0  0  0  0  0  0  0  0  # atno 17320 bound_to 7965
  144.9652  139.3937  143.6336 LP  0  0  0  0  0  0  0  0  0  0  0  0  # atno 17321 bound_to 7965
  140.4155  144.2313  150.5888 LP  0  0  0  0  0  0  0  0  0  0  0  0  # atno 17342 bound_to 10162
  140.4925  143.2343  151.8797 LP  0  0  0  0  0  0  0  0  0  0  0  0  # atno 17343 bound_to 10162
  157.7408  130.9858  150.2405 LP  0  0  0  0  0  0  0  0  0  0  0  0  # atno 17370 bound_to 10713
  156.2988  130.3755  149.7770 LP  0  0  0  0  0  0  0  0  0  0  0  0  # atno 17371 bound_to 10713
  139.9604  134.7462  156.0250 LP  0  0  0  0  0  0  0  0  0  0  0  0  # atno 17394 bound_to 11000
  141.1332  133.6581  156.3522 LP  0  0  0  0  0  0  0  0  0  0  0  0  # atno 17395 bound_to 11000

$$$$
