AV-unprocessed.smi:2226|AV-procd|sdf|9010|dock1
  -GOLD-   2272012213D 1   1.00000     0.00000
 Structure written by MMmdl.
 40 42  0  0  0  0  0  0  0  0  2 V2000
  145.8891  143.1526  153.7203 C   0  0  0  0  0  0  0  0  0  0  0  0
  146.9842  142.6058  154.5564 N   0  3  2  0  0  0  0  0  0  0  0  0
  147.8936  141.6658  153.8567 C   0  0  1  0  0  0  0  0  0  0  0  0
  149.1962  141.5239  154.6789 C   0  0  0  0  0  0  0  0  0  0  0  0
  148.9635  141.1395  156.1545 C   0  0  0  0  0  0  0  0  0  0  0  0
  147.7803  141.9046  156.7818 C   0  0  0  0  0  0  0  0  0  0  0  0
  146.5506  142.0268  155.8513 C   0  0  2  0  0  0  0  0  0  0  0  0
  145.7597  140.7109  155.6430 C   0  0  0  0  0  0  0  0  0  0  0  0
  146.4585  139.6749  154.7325 C   0  0  1  0  0  0  0  0  0  0  0  0
  145.4624  138.7279  154.2332 N   0  0  0  0  0  0  0  0  0  0  0  0
  145.4714  137.3954  154.3951 C   0  0  0  0  0  0  0  0  0  0  0  0
  146.3723  136.8212  155.0146 O   0  0  0  0  0  0  0  0  0  0  0  0
  144.3590  136.8421  153.7783 N   0  0  0  0  0  0  0  0  0  0  0  0
  144.5024  136.1512  152.6896 C   0  0  0  0  0  0  0  0  0  0  0  0
  143.5112  135.5313  151.9459 N   0  0  0  0  0  0  0  0  0  0  0  0
  144.1026  134.9149  150.8782 C   0  0  0  0  0  0  0  0  0  0  0  0
  145.4120  135.1365  150.9453 C   0  0  0  0  0  0  0  0  0  0  0  0
  145.6899  135.8916  152.0445 O   0  0  0  0  0  0  0  0  0  0  0  0
  147.1806  140.3294  153.5321 C   0  0  0  0  0  0  0  0  0  0  0  0
  145.1935  142.3807  153.3919 H   0  0  0  0  0  0  0  0  0  0  0  0
  146.2953  143.6394  152.8332 H   0  0  0  0  0  0  0  0  0  0  0  0
  145.3241  143.9011  154.2762 H   0  0  0  0  0  0  0  0  0  0  0  0
  148.1767  142.1217  152.9067 H   0  0  0  0  0  0  0  0  0  0  0  0
  149.8693  140.8073  154.2072 H   0  0  0  0  0  0  0  0  0  0  0  0
  149.7183  142.4813  154.6560 H   0  0  0  0  0  0  0  0  0  0  0  0
  148.8153  140.0673  156.2488 H   0  0  0  0  0  0  0  0  0  0  0  0
  149.8692  141.3391  156.7282 H   0  0  0  0  0  0  0  0  0  0  0  0
  147.4978  141.4451  157.7295 H   0  0  0  0  0  0  0  0  0  0  0  0
  148.1201  142.9111  157.0294 H   0  0  0  0  0  0  0  0  0  0  0  0
  145.8748  142.7401  156.3253 H   0  0  0  0  0  0  0  0  0  0  0  0
  145.5287  140.2567  156.6072 H   0  0  0  0  0  0  0  0  0  0  0  0
  144.7918  140.9665  155.2096 H   0  0  0  0  0  0  0  0  0  0  0  0
  147.1946  139.1384  155.3249 H   0  0  0  0  0  0  0  0  0  0  0  0
  144.6904  139.1207  153.7139 H   0  0  0  0  0  0  0  0  0  0  0  0
  142.5170  135.5107  152.1215 H   0  0  0  0  0  0  0  0  0  0  0  0
  143.5057  134.3676  150.1637 H   0  0  0  0  0  0  0  0  0  0  0  0
  146.2397  134.8398  150.3182 H   0  0  0  0  0  0  0  0  0  0  0  0
  146.4522  140.5208  152.7430 H   0  0  0  0  0  0  0  0  0  0  0  0
  147.8897  139.6224  153.0995 H   0  0  0  0  0  0  0  0  0  0  0  0
  147.5511  143.4078  154.7930 H   0  0  0  0  0  0  0  0  0  0  0  0
  1  2  1  0  0  0  0
  1 20  1  0  0  0  0
  1 21  1  0  0  0  0
  1 22  1  0  0  0  0
  2  7  1  0  0  0  0
  2  3  1  0  0  0  0
  2 40  1  0  0  0  0
  3 19  1  0  0  0  0
  3  4  1  0  0  0  0
  3 23  1  0  0  0  0
  4  5  1  0  0  0  0
  4 24  1  0  0  0  0
  4 25  1  0  0  0  0
  5  6  1  0  0  0  0
  5 26  1  0  0  0  0
  5 27  1  0  0  0  0
  6  7  1  0  0  0  0
  6 28  1  0  0  0  0
  6 29  1  0  0  0  0
  7  8  1  0  0  0  0
  7 30  1  0  0  0  0
  8  9  1  0  0  0  0
  8 31  1  0  0  0  0
  8 32  1  0  0  0  0
  9 10  1  0  0  0  0
  9 19  1  0  0  0  0
  9 33  1  0  0  0  0
 10 34  1  0  0  0  0
 10 11  1  0  0  0  0
 11 13  1  0  0  0  0
 11 12  2  0  0  0  0
 13 14  2  0  0  0  0
 14 18  1  0  0  0  0
 14 15  1  0  0  0  0
 15 35  1  0  0  0  0
 15 16  1  0  0  0  0
 16 36  1  0  0  0  0
 16 17  2  0  0  0  0
 17 37  1  0  0  0  0
 17 18  1  0  0  0  0
 19 38  1  0  0  0  0
 19 39  1  0  0  0  0
M  CHG  1   2   1
M  END
> <s_m_source_file>
AV-unprocessed.smi

> <i_m_source_file_index>
2226

> <i_lp_mmshare_version>
43012

> <i_f3d_flags>
0

> <s_epik_input>
W0NIMl0xW0NIMl1bQ0gyXVtDQEhdKE4oW0NIM10pW0NIXTEyKVtDSDJdW0NASF0oW0NIMl0yKVtOSF1DKD1PKVtOSF1jM25bY0hdW2NIXW8z

> <s_epik_cmdline>
J2VwaWtfcHl0aG9uJywgJy1waCcsICc3LjAnLCAnLXRuJywgJzgnLCAnLW1hJywgJzIwMCcsICctbWV0YWxfYmluZGluZycsICctaW1hZScsICc8aW5maWxlLm1hZT4nLCAnLW9tYWUnLCAnPG91dGZpbGUubWFlPic=

> <r_lp_tautomer_probability>
0.107061

> <r_epik_Ionization_Penalty>
1.08307

> <r_epik_Ionization_Penalty_Charging>
1.08272

> <r_epik_Ionization_Penalty_Neutral>
0.000345913

> <r_epik_State_Penalty>
2.5744

> <r_epik_Charging_Adjusted_Penalty>
3.65713

> <i_epik_Tot_Q>
1

> <i_epik_Tot_abs_Q>
1

> <r_epik_Metal_State_Penalty>
3.72133

> <b_epik_Metal_Only>
0

> <s_lp_Force_Field>
OPLS_2005

> <r_lp_Energy>
57.8706

> <b_lp_Chiralities_Consistent>
1

> <s_lp_Variant>
AV-unprocessed.smi:2226-10

> <Gold.Version>
5.8.1

> <Gold.Id.Protein>
6NUR|6NUR_protein|mol2

> <Gold.PLP.Fitness>
40.0089

> <Gold.PLP.PLP>
-26.6661

> <Gold.PLP.part.hbond>
-2.0000

> <Gold.PLP.part.metal>
0.0000

> <Gold.PLP.part.buried>
-4.6702

> <Gold.PLP.part.nonpolar>
-21.0875

> <Gold.PLP.part.repulsive>
0.4833

> <Gold.PLP.ligand.clash>
0.0000

> <Gold.PLP.ligand.torsion>
0.6916

> <Gold.PLP.Chemscore.Hbond>
3.0000

> <Gold.PLP.Chemscore.CHOScore>
1.9066

> <Gold.PLP.Chemscore.Metal>
0.0000

> <Gold.Chemscore.Hbonds>
donor molecule, donor type, donor heavy atom, donor atom, acceptor molecule, acceptor atom, score
      L1  H     2    40       P1  8028  2.00
      L1  H    10    34       P1 10175  0.86
      L1  C    16    36       P1 10186  0.91
      L1  C    17    37       P1  7921  0.57

> <Gold.PLP.Chemscore.Internal.Correction>
0.0063

> <Gold.Rescore>
     Score         DG    S(hbond)    S(metal)    S(lipo)     H(rot)  DE(clash)    DE(int)     intcor
     15.00     -15.76       1.89        0.00      55.65       1.00       0.11       0.65       ----

> <Gold.Chemscore.Fitness>
14.9997

> <Gold.Chemscore.DG>
-15.7576

> <Gold.Chemscore.ZeroCoef>
-5.4800

> <Gold.Chemscore.Hbond>
1.8942

> <Gold.Chemscore.Metal>
0.0000

> <Gold.Chemscore.Lipo>
55.6490

> <Gold.Chemscore.Internal_Hbond>
0.0000

> <Gold.Chemscore.DEClash>
0.1106

> <Gold.Chemscore.DEInternal>
0.6473

> <Gold.Chemscore.Rot>
1.0000

> <Gold.Chemscore.Internal.Correction>
   9.000000E+99

> <Gold.Chemscore.Hbonds>
donor molecule, donor type, donor heavy atom, donor atom, acceptor molecule, acceptor atom, score
      L1  H     2    40       P1  8028  0.29
      L1  H    10    34       P1 10175  0.83

> <Gold.Chemscore.Hbond.Weighted>
-6.3267

> <Gold.Chemscore.Metal.Weighted>
-0.0000

> <Gold.Chemscore.Lipo.Weighted>
-6.5109

> <Gold.Chemscore.Internal_Hbond.Weighted>
0.0000

> <Gold.Chemscore.DEClash.Weighted>
0.1106

> <Gold.Chemscore.DEInternal.Weighted>
0.6473

> <Gold.Chemscore.Rot.Weighted>
2.5600

> <Gold.Chemscore.Internal.Correction.Weighted>
   9.000000E+99

> <Gold.Protein.RotatedTorsions>
[ 6907 6896 6895 6894 ] final   45.51 input  -60.11 | X-H torsion
[ 7974 7965 7964 7962 ] final   38.80 input  175.53 | X-H torsion
[ 8008 7997 7996 7995 ] final   72.46 input   59.86 | X-H torsion
[ 10167 10162 10161 10158 ] final  -59.74 input  -65.29 | X-H torsion
[ 10718 10713 10712 10709 ] final  -68.02 input   66.30 | X-H torsion
[ 10763 10752 10751 10750 ] final  -69.24 input  -60.55 | X-H torsion
[ 11005 11000 10999 10996 ] final   92.35 input  -57.11 | X-H torsion

> <Gold.Protein.ActiveResidues>
 VAL166  LYS551  ARG553  GLY616  TRP617  ASP618  TYR619  PRO620  LYS621  CYS622 
 ASP623  PHE694  ASN695  SER759  ASP760  ASP761  ALA762  ILE779  LEU786  VAL792 
 PHE793  MET794  SER795  GLU796  ALA797  LYS798  CYS799  TRP800  GLU811  SER814 

> <Gold.Protein.RotatedAtoms>
  152.2454  134.8186  160.0453 H   0  0  0  0  0  0  0  0  0  0  0  0  # atno 6907 bound_to 6896
  151.8886  133.3506  159.3798 H   0  0  0  0  0  0  0  0  0  0  0  0  # atno 6908 bound_to 6896
  150.7067  134.4873  159.5543 H   0  0  0  0  0  0  0  0  0  0  0  0  # atno 6909 bound_to 6896
  146.1034  139.5728  142.9399 H   0  0  0  0  0  0  0  0  0  0  0  0  # atno 7974 bound_to 7965
  155.7692  140.3485  155.5238 H   0  0  0  0  0  0  0  0  0  0  0  0  # atno 8008 bound_to 7997
  155.8838  140.1006  157.1487 H   0  0  0  0  0  0  0  0  0  0  0  0  # atno 8009 bound_to 7997
  154.4027  140.1317  156.4217 H   0  0  0  0  0  0  0  0  0  0  0  0  # atno 8010 bound_to 7997
  140.6116  143.2389  151.5696 H   0  0  0  0  0  0  0  0  0  0  0  0  # atno 10167 bound_to 10162
  156.0527  130.4287  150.1940 H   0  0  0  0  0  0  0  0  0  0  0  0  # atno 10718 bound_to 10713
  154.4005  135.6032  153.5894 H   0  0  0  0  0  0  0  0  0  0  0  0  # atno 10763 bound_to 10752
  152.9788  135.5905  154.4190 H   0  0  0  0  0  0  0  0  0  0  0  0  # atno 10764 bound_to 10752
  154.3987  135.2842  155.2088 H   0  0  0  0  0  0  0  0  0  0  0  0  # atno 10765 bound_to 10752
  139.8825  134.8727  156.3559 H   0  0  0  0  0  0  0  0  0  0  0  0  # atno 11005 bound_to 11000
  145.5809  141.0382  143.2122 LP  0  0  0  0  0  0  0  0  0  0  0  0  # atno 17320 bound_to 7965
  144.7451  139.7343  143.7295 LP  0  0  0  0  0  0  0  0  0  0  0  0  # atno 17321 bound_to 7965
  139.5366  144.2765  152.1263 LP  0  0  0  0  0  0  0  0  0  0  0  0  # atno 17342 bound_to 10162
  140.1965  144.4700  150.6452 LP  0  0  0  0  0  0  0  0  0  0  0  0  # atno 17343 bound_to 10162
  157.0021  130.9925  151.3388 LP  0  0  0  0  0  0  0  0  0  0  0  0  # atno 17370 bound_to 10713
  157.5468  130.8156  149.8096 LP  0  0  0  0  0  0  0  0  0  0  0  0  # atno 17371 bound_to 10713
  140.9562  133.7418  156.0339 LP  0  0  0  0  0  0  0  0  0  0  0  0  # atno 17394 bound_to 11000
  140.8045  134.3470  157.5430 LP  0  0  0  0  0  0  0  0  0  0  0  0  # atno 17395 bound_to 11000

$$$$
