AV-unprocessed.smi:1385|AV-procd|sdf|5634|dock8
  -GOLD-   22720 5253D 1   1.00000     0.00000
 Structure written by MMmdl.
 38 39  0  0  0  0  0  0  0  0  3 V2000
  137.7872  137.3413  154.4300 C   0  0  0  0  0  0  0  0  0  0  0  0
  139.2708  137.4610  154.5106 C   0  0  0  0  0  0  0  0  0  0  0  0
  140.0264  136.6205  155.2279 N   0  0  0  0  0  0  0  0  0  0  0  0
  141.3776  136.9267  155.1451 N   0  0  0  0  0  0  0  0  0  0  0  0
  141.6017  137.9914  154.3624 C   0  0  0  0  0  0  0  0  0  0  0  0
  142.8936  138.5184  154.0976 N   0  0  0  0  0  0  0  0  0  0  0  0
  144.0461  138.2607  154.7409 C   0  0  0  0  0  0  0  0  0  0  0  0
  144.1689  137.5133  155.7117 O   0  0  0  0  0  0  0  0  0  0  0  0
  145.0704  138.9281  154.1896 N   0  0  0  0  0  0  0  0  0  0  0  0
  146.4571  138.8580  154.6412 C   0  0  2  0  0  0  0  0  0  0  0  0
  147.4149  139.4048  153.5670 C   0  0  0  0  0  0  0  0  0  0  0  0
  148.8822  139.2412  153.9966 C   0  0  0  0  0  0  0  0  0  0  0  0
  149.1973  137.8205  154.3075 N   0  3  1  0  0  0  0  0  0  0  0  0
  150.6332  137.5919  154.6052 C   0  0  0  0  0  0  0  0  0  0  0  0
  150.8591  136.1363  155.0268 C   0  0  0  0  0  0  0  0  0  0  0  0
  150.2304  135.2623  154.2183 N   0  5  0  0  0  0  0  0  0  0  0  0
  151.5420  135.8911  156.0192 O   0  0  0  0  0  0  0  0  0  0  0  0
  148.3082  137.2831  155.3686 C   0  0  0  0  0  0  0  0  0  0  0  0
  146.8286  137.4025  154.9666 C   0  0  0  0  0  0  0  0  0  0  0  0
  140.1648  138.7161  153.6612 S   0  0  0  0  0  0  0  0  0  0  0  0
  137.3927  136.8707  155.3312 H   0  0  0  0  0  0  0  0  0  0  0  0
  137.5097  136.7355  153.5674 H   0  0  0  0  0  0  0  0  0  0  0  0
  137.3346  138.3276  154.3262 H   0  0  0  0  0  0  0  0  0  0  0  0
  142.9471  139.1571  153.3181 H   0  0  0  0  0  0  0  0  0  0  0  0
  144.8792  139.5206  153.3949 H   0  0  0  0  0  0  0  0  0  0  0  0
  146.5666  139.4504  155.5518 H   0  0  0  0  0  0  0  0  0  0  0  0
  147.2535  138.8824  152.6228 H   0  0  0  0  0  0  0  0  0  0  0  0
  147.2070  140.4582  153.3761 H   0  0  0  0  0  0  0  0  0  0  0  0
  149.5277  139.6052  153.1969 H   0  0  0  0  0  0  0  0  0  0  0  0
  149.0871  139.8601  154.8715 H   0  0  0  0  0  0  0  0  0  0  0  0
  151.2530  137.8888  153.7561 H   0  0  0  0  0  0  0  0  0  0  0  0
  150.9438  138.2136  155.4461 H   0  0  0  0  0  0  0  0  0  0  0  0
  149.4699  135.6047  153.6188 H   0  0  0  0  0  0  0  0  0  0  0  0
  148.5446  136.2341  155.5508 H   0  0  0  0  0  0  0  0  0  0  0  0
  148.4909  137.8169  156.3027 H   0  0  0  0  0  0  0  0  0  0  0  0
  146.1971  137.0259  155.7723 H   0  0  0  0  0  0  0  0  0  0  0  0
  146.6378  136.7669  154.1003 H   0  0  0  0  0  0  0  0  0  0  0  0
  149.0024  137.2858  153.4730 H   0  0  0  0  0  0  0  0  0  0  0  0
  1  2  1  0  0  0  0
  1 21  1  0  0  0  0
  1 22  1  0  0  0  0
  1 23  1  0  0  0  0
  2 20  1  0  0  0  0
  2  3  2  0  0  0  0
  3  4  1  0  0  0  0
  4  5  2  0  0  0  0
  5  6  1  0  0  0  0
  5 20  1  0  0  0  0
  6  7  1  0  0  0  0
  6 24  1  0  0  0  0
  7  8  2  0  0  0  0
  7  9  1  0  0  0  0
  9 10  1  0  0  0  0
  9 25  1  0  0  0  0
 10 19  1  0  0  0  0
 10 11  1  0  0  0  0
 10 26  1  0  0  0  0
 11 12  1  0  0  0  0
 11 27  1  0  0  0  0
 11 28  1  0  0  0  0
 12 13  1  0  0  0  0
 12 29  1  0  0  0  0
 12 30  1  0  0  0  0
 13 14  1  0  0  0  0
 13 18  1  0  0  0  0
 13 38  1  0  0  0  0
 14 15  1  0  0  0  0
 14 31  1  0  0  0  0
 14 32  1  0  0  0  0
 15 16  1  0  0  0  0
 15 17  2  0  0  0  0
 16 33  1  0  0  0  0
 18 19  1  0  0  0  0
 18 34  1  0  0  0  0
 18 35  1  0  0  0  0
 19 36  1  0  0  0  0
 19 37  1  0  0  0  0
M  CHG  1  13   1
M  CHG  1  16  -1
M  END
> <s_m_source_file>
AV-unprocessed.smi

> <i_m_source_file_index>
1385

> <i_lp_mmshare_version>
43012

> <i_f3d_flags>
0

> <s_epik_input>
W0NIM11jMW5uYyhzMSlbTkhdQyg9TylbTkhdW0NIXTJbQ0gyXVtDSDJdTihbQ0gyXVtDSDJdMilbQ0gyXUMoPU8pW05IMl0=

> <s_epik_cmdline>
J2VwaWtfcHl0aG9uJywgJy1waCcsICc3LjAnLCAnLXRuJywgJzgnLCAnLW1hJywgJzIwMCcsICctbWV0YWxfYmluZGluZycsICctaW1hZScsICc8aW5maWxlLm1hZT4nLCAnLW9tYWUnLCAnPG91dGZpbGUubWFlPic=

> <r_lp_tautomer_probability>
1

> <r_epik_Ionization_Penalty>
5.73549

> <r_epik_Ionization_Penalty_Charging>
5.73152

> <r_epik_Ionization_Penalty_Neutral>
0.00396448

> <r_epik_State_Penalty>
6.57436

> <r_epik_Charging_Adjusted_Penalty>
12.3059

> <i_epik_Tot_Q>
0

> <i_epik_Tot_abs_Q>
2

> <r_epik_Metal_State_Penalty>
2.87628

> <b_epik_Metal_Only>
1

> <s_lp_Force_Field>
OPLS_2005

> <r_lp_Energy>
6.06006

> <b_lp_Chiralities_Consistent>
1

> <s_lp_Variant>
AV-unprocessed.smi:1385-7

> <Gold.Version>
5.8.1

> <Gold.Id.Protein>
6NUR|6NUR_protein|mol2

> <Gold.PLP.Fitness>
43.8396

> <Gold.PLP.PLP>
-24.1126

> <Gold.PLP.part.hbond>
-7.1953

> <Gold.PLP.part.metal>
0.0000

> <Gold.PLP.part.buried>
-0.8889

> <Gold.PLP.part.nonpolar>
-15.8032

> <Gold.PLP.part.repulsive>
0.0995

> <Gold.PLP.ligand.clash>
0.0000

> <Gold.PLP.ligand.torsion>
0.4780

> <Gold.PLP.Chemscore.Hbond>
6.8880

> <Gold.PLP.Chemscore.CHOScore>
0.0000

> <Gold.PLP.Chemscore.Metal>
0.0000

> <Gold.Chemscore.Hbonds>
donor molecule, donor type, donor heavy atom, donor atom, acceptor molecule, acceptor atom, score
      L1  H     6    24       P1 10175  1.00
      L1  H     9    25       P1 10175  0.94
      L1  H    13    38       P1  7948  2.00
      L1  H    16    33       P1  7948  0.90
      P1  H 10752 10763       L1    17  1.00
      P1  H 11000 11005       L1     3  1.00

> <Gold.PLP.Chemscore.Internal.Correction>
0.0191

> <Gold.Rescore>
     Score         DG    S(hbond)    S(metal)    S(lipo)     H(rot)  DE(clash)    DE(int)     intcor
     15.77     -20.45       4.66        0.00      39.53       2.04       1.58       3.09       ----

> <Gold.Chemscore.Fitness>
15.7699

> <Gold.Chemscore.DG>
-20.4455

> <Gold.Chemscore.ZeroCoef>
-5.4800

> <Gold.Chemscore.Hbond>
4.6571

> <Gold.Chemscore.Metal>
0.0000

> <Gold.Chemscore.Lipo>
39.5313

> <Gold.Chemscore.Internal_Hbond>
0.0000

> <Gold.Chemscore.DEClash>
1.5814

> <Gold.Chemscore.DEInternal>
3.0942

> <Gold.Chemscore.Rot>
2.0369

> <Gold.Chemscore.Internal.Correction>
   9.000000E+99

> <Gold.Chemscore.Hbonds>
donor molecule, donor type, donor heavy atom, donor atom, acceptor molecule, acceptor atom, score
      L1  H     6    24       P1 10175  0.97
      L1  H     9    25       P1 10175  0.91
      L1  H    13    38       P1  7948  1.00
      L1  H    16    33       P1  7948  0.22
      P1  H 10752 10763       L1    17  0.25
      P1  H 11000 11005       L1     3  0.51

> <Gold.Chemscore.Hbond.Weighted>
-15.5547

> <Gold.Chemscore.Metal.Weighted>
-0.0000

> <Gold.Chemscore.Lipo.Weighted>
-4.6252

> <Gold.Chemscore.Internal_Hbond.Weighted>
0.0000

> <Gold.Chemscore.DEClash.Weighted>
1.5814

> <Gold.Chemscore.DEInternal.Weighted>
3.0942

> <Gold.Chemscore.Rot.Weighted>
5.2144

> <Gold.Chemscore.Internal.Correction.Weighted>
   9.000000E+99

> <Gold.Protein.RotatedTorsions>
[ 6907 6896 6895 6894 ] final  -76.83 input  -60.11 | X-H torsion
[ 7974 7965 7964 7962 ] final -124.09 input  175.53 | X-H torsion
[ 8008 7997 7996 7995 ] final  -11.27 input   59.86 | X-H torsion
[ 10167 10162 10161 10158 ] final   -2.99 input  -65.29 | X-H torsion
[ 10718 10713 10712 10709 ] final  -53.83 input   66.30 | X-H torsion
[ 10763 10752 10751 10750 ] final  100.27 input  -60.55 | X-H torsion
[ 11005 11000 10999 10996 ] final   82.25 input  -57.11 | X-H torsion

> <Gold.Protein.ActiveResidues>
 VAL166  LYS551  ARG553  GLY616  TRP617  ASP618  TYR619  PRO620  LYS621  CYS622 
 ASP623  PHE694  ASN695  SER759  ASP760  ASP761  ALA762  ILE779  LEU786  VAL792 
 PHE793  MET794  SER795  GLU796  ALA797  LYS798  CYS799  TRP800  GLU811  SER814 

> <Gold.Protein.RotatedAtoms>
  150.7016  134.4513  159.5337 H   0  0  0  0  0  0  0  0  0  0  0  0  # atno 6907 bound_to 6896
  152.2205  134.8415  160.0495 H   0  0  0  0  0  0  0  0  0  0  0  0  # atno 6908 bound_to 6896
  151.9267  133.3565  159.3953 H   0  0  0  0  0  0  0  0  0  0  0  0  # atno 6909 bound_to 6896
  145.0117  140.7911  143.4434 H   0  0  0  0  0  0  0  0  0  0  0  0  # atno 7974 bound_to 7965
  154.5480  140.2307  155.8531 H   0  0  0  0  0  0  0  0  0  0  0  0  # atno 8008 bound_to 7997
  156.1921  140.3074  155.9314 H   0  0  0  0  0  0  0  0  0  0  0  0  # atno 8009 bound_to 7997
  155.3126  140.0436  157.3026 H   0  0  0  0  0  0  0  0  0  0  0  0  # atno 8010 bound_to 7997
  140.6873  143.6592  150.8282 H   0  0  0  0  0  0  0  0  0  0  0  0  # atno 10167 bound_to 10162
  156.1501  130.4151  149.9958 H   0  0  0  0  0  0  0  0  0  0  0  0  # atno 10718 bound_to 10713
  153.3118  135.4084  155.1342 H   0  0  0  0  0  0  0  0  0  0  0  0  # atno 10763 bound_to 10752
  154.8578  135.3566  154.5713 H   0  0  0  0  0  0  0  0  0  0  0  0  # atno 10764 bound_to 10752
  153.6142  135.7067  153.5394 H   0  0  0  0  0  0  0  0  0  0  0  0  # atno 10765 bound_to 10752
  139.9070  134.8057  156.2150 H   0  0  0  0  0  0  0  0  0  0  0  0  # atno 11005 bound_to 11000
  145.2014  139.2250  143.5191 LP  0  0  0  0  0  0  0  0  0  0  0  0  # atno 17320 bound_to 7965
  146.3471  140.1832  142.8589 LP  0  0  0  0  0  0  0  0  0  0  0  0  # atno 17321 bound_to 7965
  140.0300  143.5453  152.2764 LP  0  0  0  0  0  0  0  0  0  0  0  0  # atno 17342 bound_to 10162
  139.6242  144.7634  151.2673 LP  0  0  0  0  0  0  0  0  0  0  0  0  # atno 17343 bound_to 10162
  156.7818  130.9224  151.3646 LP  0  0  0  0  0  0  0  0  0  0  0  0  # atno 17370 bound_to 10713
  157.6650  130.8999  149.9912 LP  0  0  0  0  0  0  0  0  0  0  0  0  # atno 17371 bound_to 10713
  141.0442  133.6922  156.1652 LP  0  0  0  0  0  0  0  0  0  0  0  0  # atno 17394 bound_to 11000
  140.6910  134.4666  157.5588 LP  0  0  0  0  0  0  0  0  0  0  0  0  # atno 17395 bound_to 11000

$$$$
