AV-unprocessed.smi:148|AV-procd|sdf|1218|dock2
  -GOLD-   2262018403D 1   1.00000     0.00000
 Structure written by MMmdl.
 63 67  0  0  0  0  0  0  0  0  1 V2000
  155.2755  140.8644  160.3286 O   0  0  0  0  0  0  0  0  0  0  0  0
  154.0617  140.9803  161.0410 C   0  0  0  0  0  0  0  0  0  0  0  0
  152.8617  141.1517  160.0790 C   0  0  2  0  0  0  0  0  0  0  0  0
  153.0716  140.3877  158.7446 C   0  0  0  0  0  0  0  0  0  0  0  0
  151.8653  139.7214  158.2859 N   0  0  0  0  0  0  0  0  0  0  0  0
  150.7494  139.4358  159.0389 C   0  0  0  0  0  0  0  0  0  0  0  0
  149.7920  138.8189  158.4015 N   0  0  0  0  0  0  0  0  0  0  0  0
  150.2862  138.6689  157.1111 C   0  0  0  0  0  0  0  0  0  0  0  0
  149.7860  138.0818  155.9144 C   0  0  0  0  0  0  0  0  0  0  0  0
  148.5839  137.4736  155.7953 N   0  0  0  0  0  0  0  0  0  0  0  0
  148.6254  136.1606  156.4386 C   0  0  0  0  0  0  0  0  0  0  0  0
  147.2245  135.5463  156.5480 C   0  0  0  0  0  0  0  0  0  0  0  0
  146.5646  135.4829  155.1674 C   0  0  0  0  0  0  0  0  0  0  0  0
  146.5324  136.8819  154.5371 C   0  0  0  0  0  0  0  0  0  0  0  0
  147.9469  137.5155  154.4657 C   0  0  1  0  0  0  0  0  0  0  0  0
  147.9547  138.9430  153.8322 C   0  0  2  0  0  0  0  0  0  0  0  0
  147.7572  140.1216  154.8054 C   0  0  0  0  0  0  0  0  0  0  0  0
  147.0780  141.2411  153.9990 C   0  0  0  0  0  0  0  0  0  0  0  0
  146.9409  140.7168  152.5662 C   0  0  0  0  0  0  0  0  0  0  0  0
  146.9285  139.1964  152.7181 C   0  0  1  0  0  0  0  0  0  0  0  0
  147.2819  138.5538  151.5107 O   0  0  0  0  0  0  0  0  0  0  0  0
  150.5631  138.1367  154.8048 N   0  0  0  0  0  0  0  0  0  0  0  0
  151.7684  138.7111  154.8619 C   0  0  0  0  0  0  0  0  0  0  0  0
  152.3729  139.2828  155.9058 N   0  0  0  0  0  0  0  0  0  0  0  0
  151.5855  139.2414  157.0188 C   0  0  0  0  0  0  0  0  0  0  0  0
  152.4828  142.6467  159.8792 C   0  0  1  0  0  0  0  0  0  0  0  0
  153.4886  143.4789  159.0790 C   0  0  0  0  0  0  0  0  0  0  0  0
  152.6178  144.2752  158.1120 C   0  0  0  0  0  0  0  0  0  0  0  0
  151.5200  143.4092  157.8819 O   0  0  0  0  0  0  0  0  0  0  0  0
  151.1515  142.8767  159.1445 C   0  0  0  0  0  0  0  0  0  0  0  0
  155.0892  140.5049  159.4745 H   0  0  0  0  0  0  0  0  0  0  0  0
  153.9309  140.1060  161.6789 H   0  0  0  0  0  0  0  0  0  0  0  0
  154.1637  141.8403  161.7022 H   0  0  0  0  0  0  0  0  0  0  0  0
  152.0045  140.6838  160.5666 H   0  0  0  0  0  0  0  0  0  0  0  0
  153.3911  141.0626  157.9512 H   0  0  0  0  0  0  0  0  0  0  0  0
  153.8573  139.6394  158.8397 H   0  0  0  0  0  0  0  0  0  0  0  0
  150.6709  139.6956  160.0845 H   0  0  0  0  0  0  0  0  0  0  0  0
  149.2745  135.4981  155.8640 H   0  0  0  0  0  0  0  0  0  0  0  0
  149.0619  136.2461  157.4352 H   0  0  0  0  0  0  0  0  0  0  0  0
  147.2868  134.5477  156.9813 H   0  0  0  0  0  0  0  0  0  0  0  0
  146.6114  136.1439  157.2238 H   0  0  0  0  0  0  0  0  0  0  0  0
  147.1190  134.7994  154.5231 H   0  0  0  0  0  0  0  0  0  0  0  0
  145.5534  135.0841  155.2515 H   0  0  0  0  0  0  0  0  0  0  0  0
  146.0944  136.7956  153.5443 H   0  0  0  0  0  0  0  0  0  0  0  0
  145.8591  137.5099  155.1193 H   0  0  0  0  0  0  0  0  0  0  0  0
  148.5373  136.8730  153.8124 H   0  0  0  0  0  0  0  0  0  0  0  0
  148.9258  139.1031  153.3615 H   0  0  0  0  0  0  0  0  0  0  0  0
  147.1288  139.8531  155.6533 H   0  0  0  0  0  0  0  0  0  0  0  0
  148.7133  140.4512  155.2130 H   0  0  0  0  0  0  0  0  0  0  0  0
  146.0909  141.4437  154.4160 H   0  0  0  0  0  0  0  0  0  0  0  0
  147.6437  142.1728  154.0326 H   0  0  0  0  0  0  0  0  0  0  0  0
  146.0513  141.0966  152.0629 H   0  0  0  0  0  0  0  0  0  0  0  0
  147.8098  141.0283  151.9837 H   0  0  0  0  0  0  0  0  0  0  0  0
  145.9276  138.8867  153.0150 H   0  0  0  0  0  0  0  0  0  0  0  0
  148.1529  138.8289  151.2683 H   0  0  0  0  0  0  0  0  0  0  0  0
  152.3297  138.7105  153.9392 H   0  0  0  0  0  0  0  0  0  0  0  0
  152.3732  143.1014  160.8646 H   0  0  0  0  0  0  0  0  0  0  0  0
  154.0926  144.1268  159.7149 H   0  0  0  0  0  0  0  0  0  0  0  0
  154.1754  142.8515  158.5139 H   0  0  0  0  0  0  0  0  0  0  0  0
  152.2655  145.1996  158.5729 H   0  0  0  0  0  0  0  0  0  0  0  0
  153.1359  144.5265  157.1862 H   0  0  0  0  0  0  0  0  0  0  0  0
  150.5431  141.9785  159.0402 H   0  0  0  0  0  0  0  0  0  0  0  0
  150.5493  143.6165  159.6743 H   0  0  0  0  0  0  0  0  0  0  0  0
  1  2  1  0  0  0  0
  1 31  1  0  0  0  0
  2  3  1  0  0  0  0
  2 32  1  0  0  0  0
  2 33  1  0  0  0  0
  3  4  1  0  0  0  0
  3 26  1  0  0  0  0
  3 34  1  0  0  0  0
  4  5  1  0  0  0  0
  4 35  1  0  0  0  0
  4 36  1  0  0  0  0
  5 25  1  0  0  0  0
  5  6  1  0  0  0  0
  6  7  2  0  0  0  0
  6 37  1  0  0  0  0
  7  8  1  0  0  0  0
  8 25  2  0  0  0  0
  8  9  1  0  0  0  0
  9 10  1  0  0  0  0
  9 22  2  0  0  0  0
 10 15  1  0  0  0  0
 10 11  1  0  0  0  0
 11 12  1  0  0  0  0
 11 38  1  0  0  0  0
 11 39  1  0  0  0  0
 12 13  1  0  0  0  0
 12 40  1  0  0  0  0
 12 41  1  0  0  0  0
 13 14  1  0  0  0  0
 13 42  1  0  0  0  0
 13 43  1  0  0  0  0
 14 15  1  0  0  0  0
 14 44  1  0  0  0  0
 14 45  1  0  0  0  0
 15 16  1  0  0  0  0
 15 46  1  0  0  0  0
 16 20  1  0  0  0  0
 16 17  1  0  0  0  0
 16 47  1  0  0  0  0
 17 18  1  0  0  0  0
 17 48  1  0  0  0  0
 17 49  1  0  0  0  0
 18 19  1  0  0  0  0
 18 50  1  0  0  0  0
 18 51  1  0  0  0  0
 19 20  1  0  0  0  0
 19 52  1  0  0  0  0
 19 53  1  0  0  0  0
 20 21  1  0  0  0  0
 20 54  1  0  0  0  0
 21 55  1  0  0  0  0
 22 23  1  0  0  0  0
 23 24  2  0  0  0  0
 23 56  1  0  0  0  0
 24 25  1  0  0  0  0
 26 30  1  0  0  0  0
 26 27  1  0  0  0  0
 26 57  1  0  0  0  0
 27 28  1  0  0  0  0
 27 58  1  0  0  0  0
 27 59  1  0  0  0  0
 28 29  1  0  0  0  0
 28 60  1  0  0  0  0
 28 61  1  0  0  0  0
 29 30  1  0  0  0  0
 30 62  1  0  0  0  0
 30 63  1  0  0  0  0
M  END
> <s_m_source_file>
AV-unprocessed.smi

> <i_m_source_file_index>
148

> <i_lp_mmshare_version>
43012

> <i_f3d_flags>
0

> <s_epik_input>
W0NIMl0xT1tDSDJdW0NIMl1bQ0BIXTFbQ0BIXShbQ0gyXVtPSF0pW0NIMl1uKFtjSF1uMiljKGMyMyluW2NIXW5jM040W0NIMl1bQ0gyXVtDSDJdW0NIMl1bQ0BIXTRbQ0BASF01W0NIMl1bQ0gyXVtDSDJdW0NASF01W09IXQ==

> <s_epik_cmdline>
J2VwaWtfcHl0aG9uJywgJy1waCcsICc3LjAnLCAnLXRuJywgJzgnLCAnLW1hJywgJzIwMCcsICctbWV0YWxfYmluZGluZycsICctaW1hZScsICc8aW5maWxlLm1hZT4nLCAnLW9tYWUnLCAnPG91dGZpbGUubWFlPic=

> <r_lp_tautomer_probability>
1

> <r_epik_Ionization_Penalty>
0.00556303

> <r_epik_Ionization_Penalty_Charging>
0

> <r_epik_Ionization_Penalty_Neutral>
0.00556303

> <r_epik_State_Penalty>
0.00401767

> <r_epik_Charging_Adjusted_Penalty>
0.00401767

> <i_epik_Tot_Q>
0

> <i_epik_Tot_abs_Q>
0

> <r_epik_Metal_State_Penalty>
-0

> <b_epik_Metal_Only>
0

> <s_lp_Force_Field>
OPLS_2005

> <r_lp_Energy>
68.3578

> <b_lp_Chiralities_Consistent>
1

> <s_lp_Variant>
AV-unprocessed.smi:148-17

> <Gold.Version>
5.8.1

> <Gold.Id.Protein>
6NUR|6NUR_protein|mol2

> <Gold.PLP.Fitness>
43.3634

> <Gold.PLP.PLP>
-41.2426

> <Gold.PLP.part.hbond>
-4.9522

> <Gold.PLP.part.metal>
0.0000

> <Gold.PLP.part.buried>
-0.6099

> <Gold.PLP.part.nonpolar>
-34.4303

> <Gold.PLP.part.repulsive>
0.3156

> <Gold.PLP.ligand.clash>
0.0000

> <Gold.PLP.ligand.torsion>
2.3000

> <Gold.PLP.Chemscore.Hbond>
1.9913

> <Gold.PLP.Chemscore.CHOScore>
0.0000

> <Gold.PLP.Chemscore.Metal>
0.0000

> <Gold.Chemscore.Hbonds>
donor molecule, donor type, donor heavy atom, donor atom, acceptor molecule, acceptor atom, score
      L1  H    21    55       P1  7957  1.00
      P1  H  7997  8008       L1    24  0.62

> <Gold.PLP.Chemscore.Internal.Correction>
0.7471

> <Gold.Rescore>
     Score         DG    S(hbond)    S(metal)    S(lipo)     H(rot)  DE(clash)    DE(int)     intcor
     11.76     -15.42       1.76        0.00     107.44       3.32       0.32       3.33       ----

> <Gold.Chemscore.Fitness>
11.7638

> <Gold.Chemscore.DG>
-15.4169

> <Gold.Chemscore.ZeroCoef>
-5.4800

> <Gold.Chemscore.Hbond>
1.7564

> <Gold.Chemscore.Metal>
0.0000

> <Gold.Chemscore.Lipo>
107.4399

> <Gold.Chemscore.Internal_Hbond>
0.0000

> <Gold.Chemscore.DEClash>
0.3235

> <Gold.Chemscore.DEInternal>
3.3297

> <Gold.Chemscore.Rot>
3.3203

> <Gold.Chemscore.Internal.Correction>
   9.000000E+99

> <Gold.Chemscore.Hbonds>
donor molecule, donor type, donor heavy atom, donor atom, acceptor molecule, acceptor atom, score
      L1  H    21    55       P1  7957  0.34
      P1  H  7997  8008       L1    24  0.49

> <Gold.Chemscore.Hbond.Weighted>
-5.8664

> <Gold.Chemscore.Metal.Weighted>
-0.0000

> <Gold.Chemscore.Lipo.Weighted>
-12.5705

> <Gold.Chemscore.Internal_Hbond.Weighted>
0.0000

> <Gold.Chemscore.DEClash.Weighted>
0.3235

> <Gold.Chemscore.DEInternal.Weighted>
3.3297

> <Gold.Chemscore.Rot.Weighted>
8.5000

> <Gold.Chemscore.Internal.Correction.Weighted>
   9.000000E+99

> <Gold.Protein.RotatedTorsions>
[ 6907 6896 6895 6894 ] final -152.68 input  -60.11 | X-H torsion
[ 7974 7965 7964 7962 ] final  -46.43 input  175.53 | X-H torsion
[ 8008 7997 7996 7995 ] final  -45.11 input   59.86 | X-H torsion
[ 10167 10162 10161 10158 ] final -173.68 input  -65.29 | X-H torsion
[ 10718 10713 10712 10709 ] final -101.68 input   66.30 | X-H torsion
[ 10763 10752 10751 10750 ] final  -75.41 input  -60.55 | X-H torsion
[ 11005 11000 10999 10996 ] final  -60.59 input  -57.11 | X-H torsion

> <Gold.Protein.ActiveResidues>
 VAL166  LYS551  ARG553  GLY616  TRP617  ASP618  TYR619  PRO620  LYS621  CYS622 
 ASP623  PHE694  ASN695  SER759  ASP760  ASP761  ALA762  ILE779  LEU786  VAL792 
 PHE793  MET794  SER795  GLU796  ALA797  LYS798  CYS799  TRP800  GLU811  SER814 

> <Gold.Protein.RotatedAtoms>
  151.2313  133.4449  159.2603 H   0  0  0  0  0  0  0  0  0  0  0  0  # atno 6907 bound_to 6896
  151.0792  134.9847  159.8357 H   0  0  0  0  0  0  0  0  0  0  0  0  # atno 6908 bound_to 6896
  152.5422  134.2254  159.8857 H   0  0  0  0  0  0  0  0  0  0  0  0  # atno 6909 bound_to 6896
  145.9720  140.7373  142.9406 H   0  0  0  0  0  0  0  0  0  0  0  0  # atno 7974 bound_to 7965
  154.3999  140.1405  156.3794 H   0  0  0  0  0  0  0  0  0  0  0  0  # atno 8008 bound_to 7997
  155.8018  140.3475  155.5386 H   0  0  0  0  0  0  0  0  0  0  0  0  # atno 8009 bound_to 7997
  155.8476  140.0936  157.1686 H   0  0  0  0  0  0  0  0  0  0  0  0  # atno 8010 bound_to 7997
  139.5675  144.1720  152.1334 H   0  0  0  0  0  0  0  0  0  0  0  0  # atno 10167 bound_to 10162
  156.0203  130.5385  150.6999 H   0  0  0  0  0  0  0  0  0  0  0  0  # atno 10718 bound_to 10713
  154.4862  135.5832  153.6425 H   0  0  0  0  0  0  0  0  0  0  0  0  # atno 10763 bound_to 10752
  152.9855  135.6101  154.3183 H   0  0  0  0  0  0  0  0  0  0  0  0  # atno 10764 bound_to 10752
  154.3079  135.2845  155.2559 H   0  0  0  0  0  0  0  0  0  0  0  0  # atno 10765 bound_to 10752
  141.1293  133.6623  156.5247 H   0  0  0  0  0  0  0  0  0  0  0  0  # atno 11005 bound_to 11000
  144.6839  140.2765  143.7298 LP  0  0  0  0  0  0  0  0  0  0  0  0  # atno 17320 bound_to 7965
  145.7892  139.1920  143.2112 LP  0  0  0  0  0  0  0  0  0  0  0  0  # atno 17321 bound_to 7965
  140.1246  144.5342  150.6841 LP  0  0  0  0  0  0  0  0  0  0  0  0  # atno 17342 bound_to 10162
  140.6959  143.2403  151.5002 LP  0  0  0  0  0  0  0  0  0  0  0  0  # atno 17343 bound_to 10162
  157.4661  131.0888  151.0693 LP  0  0  0  0  0  0  0  0  0  0  0  0  # atno 17370 bound_to 10713
  157.1167  130.6044  149.5495 LP  0  0  0  0  0  0  0  0  0  0  0  0  # atno 17371 bound_to 10713
  140.4264  134.7141  157.4918 LP  0  0  0  0  0  0  0  0  0  0  0  0  # atno 17394 bound_to 11000
  140.0324  134.6387  155.9089 LP  0  0  0  0  0  0  0  0  0  0  0  0  # atno 17395 bound_to 11000

$$$$
