AV-unprocessed.smi:1976|AV-procd|sdf|7990|dock3
  -GOLD-   2272010173D 1   1.00000     0.00000
 Structure written by MMmdl.
 45 47  0  0  0  0  0  0  0  0  2 V2000
  148.8435  140.1921  156.1147 O   0  0  0  0  0  0  0  0  0  0  0  0
  149.2174  141.0409  155.3046 C   0  0  0  0  0  0  0  0  0  0  0  0
  150.5406  141.7924  155.5070 C   0  0  0  0  0  0  0  0  0  0  0  0
  151.0854  141.6453  156.8669 N   0  0  0  0  0  0  0  0  0  0  0  0
  151.1519  142.8062  157.6622 C   0  0  0  0  0  0  0  0  0  0  0  0
  151.6394  142.8074  158.9178 C   0  0  0  0  0  0  0  0  0  0  0  0
  151.6401  144.0642  159.7741 C   0  0  0  0  0  0  0  0  0  0  0  0
  152.2447  145.0727  159.1461 F   0  0  0  0  0  0  0  0  0  0  0  0
  150.3874  144.4319  160.0393 F   0  0  0  0  0  0  0  0  0  0  0  0
  152.2659  143.8572  160.9331 F   0  0  0  0  0  0  0  0  0  0  0  0
  152.0755  141.5279  159.4416 C   0  0  0  0  0  0  0  0  0  0  0  0
  152.0059  140.4056  158.6993 C   0  0  0  0  0  0  0  0  0  0  0  0
  151.4877  140.4237  157.3295 C   0  0  0  0  0  0  0  0  0  0  0  0
  151.4176  139.4052  156.6409 O   0  0  0  0  0  0  0  0  0  0  0  0
  148.5050  141.3811  154.2207 N   0  0  0  0  0  0  0  0  0  0  0  0
  147.2270  140.7848  153.8481 C   0  0  1  0  0  0  0  0  0  0  0  0
  147.3063  139.2788  153.5324 C   0  0  0  0  0  0  0  0  0  0  0  0
  146.0101  138.6729  154.1065 C   0  0  0  0  0  0  0  0  0  0  0  0
  145.2326  139.8210  154.6111 N   0  3  1  0  0  0  0  0  0  0  0  0
  144.2416  139.5511  155.6755 C   0  0  0  0  0  0  0  0  0  0  0  0
  143.4838  140.8529  156.0061 C   0  0  0  0  0  0  0  0  0  0  0  0
  144.4485  142.0104  156.3383 C   0  0  0  0  0  0  0  0  0  0  0  0
  145.5133  142.1814  155.2372 C   0  0  0  0  0  0  0  0  0  0  0  0
  146.2217  140.8384  154.9968 C   0  0  2  0  0  0  0  0  0  0  0  0
  151.2730  141.4508  154.7729 H   0  0  0  0  0  0  0  0  0  0  0  0
  150.3720  142.8443  155.2726 H   0  0  0  0  0  0  0  0  0  0  0  0
  150.7688  143.6982  157.1882 H   0  0  0  0  0  0  0  0  0  0  0  0
  152.4681  141.4678  160.4460 H   0  0  0  0  0  0  0  0  0  0  0  0
  152.3412  139.4698  159.1220 H   0  0  0  0  0  0  0  0  0  0  0  0
  148.8802  142.0906  153.6080 H   0  0  0  0  0  0  0  0  0  0  0  0
  146.8082  141.3109  152.9874 H   0  0  0  0  0  0  0  0  0  0  0  0
  147.3948  139.1076  152.4591 H   0  0  0  0  0  0  0  0  0  0  0  0
  148.1719  138.8170  154.0100 H   0  0  0  0  0  0  0  0  0  0  0  0
  145.4412  138.1206  153.3581 H   0  0  0  0  0  0  0  0  0  0  0  0
  146.2473  137.9906  154.9245 H   0  0  0  0  0  0  0  0  0  0  0  0
  143.5434  138.7833  155.3404 H   0  0  0  0  0  0  0  0  0  0  0  0
  144.7452  139.1652  156.5634 H   0  0  0  0  0  0  0  0  0  0  0  0
  142.8654  141.1357  155.1530 H   0  0  0  0  0  0  0  0  0  0  0  0
  142.7998  140.6853  156.8388 H   0  0  0  0  0  0  0  0  0  0  0  0
  143.8912  142.9385  156.4691 H   0  0  0  0  0  0  0  0  0  0  0  0
  144.9414  141.8088  157.2903 H   0  0  0  0  0  0  0  0  0  0  0  0
  145.0427  142.5296  154.3167 H   0  0  0  0  0  0  0  0  0  0  0  0
  146.2358  142.9446  155.5284 H   0  0  0  0  0  0  0  0  0  0  0  0
  146.7116  140.5149  155.9186 H   0  0  0  0  0  0  0  0  0  0  0  0
  144.7304  140.1970  153.8196 H   0  0  0  0  0  0  0  0  0  0  0  0
  1  2  2  0  0  0  0
  2  3  1  0  0  0  0
  2 15  1  0  0  0  0
  3  4  1  0  0  0  0
  3 25  1  0  0  0  0
  3 26  1  0  0  0  0
  4 13  1  0  0  0  0
  4  5  1  0  0  0  0
  5  6  2  0  0  0  0
  5 27  1  0  0  0  0
  6  7  1  0  0  0  0
  6 11  1  0  0  0  0
  7  8  1  0  0  0  0
  7  9  1  0  0  0  0
  7 10  1  0  0  0  0
 11 12  2  0  0  0  0
 11 28  1  0  0  0  0
 12 13  1  0  0  0  0
 12 29  1  0  0  0  0
 13 14  2  0  0  0  0
 15 16  1  0  0  0  0
 15 30  1  0  0  0  0
 16 24  1  0  0  0  0
 16 17  1  0  0  0  0
 16 31  1  0  0  0  0
 17 18  1  0  0  0  0
 17 32  1  0  0  0  0
 17 33  1  0  0  0  0
 18 19  1  0  0  0  0
 18 34  1  0  0  0  0
 18 35  1  0  0  0  0
 19 24  1  0  0  0  0
 19 20  1  0  0  0  0
 19 45  1  0  0  0  0
 20 21  1  0  0  0  0
 20 36  1  0  0  0  0
 20 37  1  0  0  0  0
 21 22  1  0  0  0  0
 21 38  1  0  0  0  0
 21 39  1  0  0  0  0
 22 23  1  0  0  0  0
 22 40  1  0  0  0  0
 22 41  1  0  0  0  0
 23 24  1  0  0  0  0
 23 42  1  0  0  0  0
 23 43  1  0  0  0  0
 24 44  1  0  0  0  0
M  CHG  1  19   1
M  END
> <s_m_source_file>
AV-unprocessed.smi

> <i_m_source_file_index>
1976

> <i_lp_mmshare_version>
43012

> <i_f3d_flags>
0

> <s_epik_input>
W0NIMl0xW0NIMl1bQ0gyXVtDSDJdW0NASF0oTjEyKVtDQEBIXShbQ0gyXVtDSDJdMilbTkhdQyg9TylbQ0gyXW4zW2NIXWMoQyhGKShGKUYpW2NIXVtjSF1jMz1P

> <s_epik_cmdline>
J2VwaWtfcHl0aG9uJywgJy1waCcsICc3LjAnLCAnLXRuJywgJzgnLCAnLW1hJywgJzIwMCcsICctbWV0YWxfYmluZGluZycsICctaW1hZScsICc8aW5maWxlLm1hZT4nLCAnLW9tYWUnLCAnPG91dGZpbGUubWFlPic=

> <r_lp_tautomer_probability>
1

> <r_epik_Ionization_Penalty>
0.00171506

> <r_epik_Ionization_Penalty_Charging>
0.00171498

> <r_epik_Ionization_Penalty_Neutral>
7.81737e-08

> <r_epik_State_Penalty>
0.00115937

> <r_epik_Charging_Adjusted_Penalty>
0.00287436

> <i_epik_Tot_Q>
1

> <i_epik_Tot_abs_Q>
1

> <r_epik_Metal_State_Penalty>
-0

> <b_epik_Metal_Only>
0

> <s_lp_Force_Field>
OPLS_2005

> <r_lp_Energy>
46.2407

> <b_lp_Chiralities_Consistent>
1

> <s_lp_Variant>
AV-unprocessed.smi:1976-8

> <Gold.Version>
5.8.1

> <Gold.Id.Protein>
6NUR|6NUR_protein|mol2

> <Gold.PLP.Fitness>
49.4578

> <Gold.PLP.PLP>
-41.2159

> <Gold.PLP.part.hbond>
-1.0000

> <Gold.PLP.part.metal>
0.0000

> <Gold.PLP.part.buried>
-7.0402

> <Gold.PLP.part.nonpolar>
-34.4278

> <Gold.PLP.part.repulsive>
0.2092

> <Gold.PLP.ligand.clash>
0.0000

> <Gold.PLP.ligand.torsion>
0.4229

> <Gold.PLP.Chemscore.Hbond>
2.0000

> <Gold.PLP.Chemscore.CHOScore>
1.0000

> <Gold.PLP.Chemscore.Metal>
0.0000

> <Gold.Chemscore.Hbonds>
donor molecule, donor type, donor heavy atom, donor atom, acceptor molecule, acceptor atom, score
      L1  H    19    45       P1 10175  2.00
      L1  C     5    27       P1  8028  0.79

> <Gold.PLP.Chemscore.Internal.Correction>
0.0877

> <Gold.Rescore>
     Score         DG    S(hbond)    S(metal)    S(lipo)     H(rot)  DE(clash)    DE(int)     intcor
      9.68     -13.65       1.00        0.00      76.08       1.58       0.36       3.61       ----

> <Gold.Chemscore.Fitness>
9.6847

> <Gold.Chemscore.DG>
-13.6544

> <Gold.Chemscore.ZeroCoef>
-5.4800

> <Gold.Chemscore.Hbond>
0.9955

> <Gold.Chemscore.Metal>
0.0000

> <Gold.Chemscore.Lipo>
76.0838

> <Gold.Chemscore.Internal_Hbond>
0.0000

> <Gold.Chemscore.DEClash>
0.3552

> <Gold.Chemscore.DEInternal>
3.6145

> <Gold.Chemscore.Rot>
1.5830

> <Gold.Chemscore.Internal.Correction>
   9.000000E+99

> <Gold.Chemscore.Hbonds>
donor molecule, donor type, donor heavy atom, donor atom, acceptor molecule, acceptor atom, score
      L1  H    19    45       P1 10175  1.00

> <Gold.Chemscore.Hbond.Weighted>
-3.3249

> <Gold.Chemscore.Metal.Weighted>
-0.0000

> <Gold.Chemscore.Lipo.Weighted>
-8.9018

> <Gold.Chemscore.Internal_Hbond.Weighted>
0.0000

> <Gold.Chemscore.DEClash.Weighted>
0.3552

> <Gold.Chemscore.DEInternal.Weighted>
3.6145

> <Gold.Chemscore.Rot.Weighted>
4.0524

> <Gold.Chemscore.Internal.Correction.Weighted>
   9.000000E+99

> <Gold.Protein.RotatedTorsions>
[ 6907 6896 6895 6894 ] final  -60.17 input  -60.11 | X-H torsion
[ 7974 7965 7964 7962 ] final   54.23 input  175.53 | X-H torsion
[ 8008 7997 7996 7995 ] final  -17.07 input   59.86 | X-H torsion
[ 10167 10162 10161 10158 ] final   77.06 input  -65.29 | X-H torsion
[ 10718 10713 10712 10709 ] final -126.60 input   66.30 | X-H torsion
[ 10763 10752 10751 10750 ] final  -71.11 input  -60.55 | X-H torsion
[ 11005 11000 10999 10996 ] final  103.23 input  -57.11 | X-H torsion

> <Gold.Protein.ActiveResidues>
 VAL166  LYS551  ARG553  GLY616  TRP617  ASP618  TYR619  PRO620  LYS621  CYS622 
 ASP623  PHE694  ASN695  SER759  ASP760  ASP761  ALA762  ILE779  LEU786  VAL792 
 PHE793  MET794  SER795  GLU796  ALA797  LYS798  CYS799  TRP800  GLU811  SER814 

> <Gold.Protein.RotatedAtoms>
  150.7876  134.6872  159.6476 H   0  0  0  0  0  0  0  0  0  0  0  0  # atno 6907 bound_to 6896
  152.3975  134.6338  160.0092 H   0  0  0  0  0  0  0  0  0  0  0  0  # atno 6908 bound_to 6896
  151.6619  133.3280  159.3212 H   0  0  0  0  0  0  0  0  0  0  0  0  # atno 6909 bound_to 6896
  145.9630  139.4076  143.0237 H   0  0  0  0  0  0  0  0  0  0  0  0  # atno 7974 bound_to 7965
  154.5006  140.2152  155.9355 H   0  0  0  0  0  0  0  0  0  0  0  0  # atno 8008 bound_to 7997
  156.1428  140.3176  155.8490 H   0  0  0  0  0  0  0  0  0  0  0  0  # atno 8009 bound_to 7997
  155.4088  140.0489  157.3023 H   0  0  0  0  0  0  0  0  0  0  0  0  # atno 8010 bound_to 7997
  139.9856  144.5795  150.7863 H   0  0  0  0  0  0  0  0  0  0  0  0  # atno 10167 bound_to 10162
  156.1780  130.6712  151.0267 H   0  0  0  0  0  0  0  0  0  0  0  0  # atno 10718 bound_to 10713
  154.4271  135.5973  153.6045 H   0  0  0  0  0  0  0  0  0  0  0  0  # atno 10763 bound_to 10752
  152.9797  135.5966  154.3884 H   0  0  0  0  0  0  0  0  0  0  0  0  # atno 10764 bound_to 10752
  154.3717  135.2841  155.2241 H   0  0  0  0  0  0  0  0  0  0  0  0  # atno 10765 bound_to 10752
  139.8782  134.9255  156.5178 H   0  0  0  0  0  0  0  0  0  0  0  0  # atno 11005 bound_to 11000
  145.8014  140.9769  143.0997 LP  0  0  0  0  0  0  0  0  0  0  0  0  # atno 17320 bound_to 7965
  144.6819  139.9806  143.7483 LP  0  0  0  0  0  0  0  0  0  0  0  0  # atno 17321 bound_to 7965
  140.7473  143.2905  151.3344 LP  0  0  0  0  0  0  0  0  0  0  0  0  # atno 17342 bound_to 10162
  139.6378  144.0598  152.2530 LP  0  0  0  0  0  0  0  0  0  0  0  0  # atno 17343 bound_to 10162
  157.6848  131.0828  150.7271 LP  0  0  0  0  0  0  0  0  0  0  0  0  # atno 17370 bound_to 10713
  156.7329  130.4715  149.5495 LP  0  0  0  0  0  0  0  0  0  0  0  0  # atno 17371 bound_to 10713
  140.8472  133.8159  155.9133 LP  0  0  0  0  0  0  0  0  0  0  0  0  # atno 17394 bound_to 11000
  140.9179  134.2178  157.4945 LP  0  0  0  0  0  0  0  0  0  0  0  0  # atno 17395 bound_to 11000

$$$$
