AV-unprocessed.smi:3302|AV-procd|sdf|12656|dock3
  -GOLD-   2272018593D 1   1.00000     0.00000
 Structure written by MMmdl.
 35 36  0  0  0  0  0  0  0  0  1 V2000
  151.4223  140.3224  155.1130 O   0  0  0  0  0  0  0  0  0  0  0  0
  150.8103  140.8514  156.0406 C   0  0  0  0  0  0  0  0  0  0  0  0
  151.5864  141.3546  157.2589 C   0  0  0  0  0  0  0  0  0  0  0  0
  151.2895  142.7283  157.4781 O   0  0  0  0  0  0  0  0  0  0  0  0
  152.0325  143.3325  158.5280 C   0  0  0  0  0  0  0  0  0  0  0  0
  152.1048  142.3949  159.7515 C   0  0  0  0  0  0  0  0  0  0  0  0
  152.7813  143.0857  160.9466 C   0  0  0  0  0  0  0  0  0  0  0  0
  152.0712  144.4003  161.3060 C   0  0  0  0  0  0  0  0  0  0  0  0
  151.9936  145.3392  160.0918 C   0  0  0  0  0  0  0  0  0  0  0  0
  151.3206  144.6464  158.8955 C   0  0  0  0  0  0  0  0  0  0  0  0
  149.4815  141.0621  156.0436 N   0  0  0  0  0  0  0  0  0  0  0  0
  148.5494  140.6794  155.0457 C   0  0  0  0  0  0  0  0  0  0  0  0
  148.9378  139.6973  154.1114 C   0  0  0  0  0  0  0  0  0  0  0  0
  148.0288  139.3289  153.0994 C   0  0  0  0  0  0  0  0  0  0  0  0
  146.8036  139.8796  152.9661 N   0  0  0  0  0  0  0  0  0  0  0  0
  146.4443  140.8381  153.8467 C   0  0  0  0  0  0  0  0  0  0  0  0
  147.2760  141.2816  154.8948 C   0  0  0  0  0  0  0  0  0  0  0  0
  146.8583  142.2833  155.7056 F   0  0  0  0  0  0  0  0  0  0  0  0
  151.3160  140.7519  158.1262 H   0  0  0  0  0  0  0  0  0  0  0  0
  152.6539  141.2214  157.0790 H   0  0  0  0  0  0  0  0  0  0  0  0
  153.0405  143.5724  158.1834 H   0  0  0  0  0  0  0  0  0  0  0  0
  151.0978  142.0850  160.0336 H   0  0  0  0  0  0  0  0  0  0  0  0
  152.6508  141.4838  159.5086 H   0  0  0  0  0  0  0  0  0  0  0  0
  152.7855  142.4177  161.8083 H   0  0  0  0  0  0  0  0  0  0  0  0
  153.8261  143.2881  160.7072 H   0  0  0  0  0  0  0  0  0  0  0  0
  151.0645  144.1849  161.6665 H   0  0  0  0  0  0  0  0  0  0  0  0
  152.5940  144.8940  162.1258 H   0  0  0  0  0  0  0  0  0  0  0  0
  151.4427  146.2425  160.3556 H   0  0  0  0  0  0  0  0  0  0  0  0
  152.9980  145.6594  159.8119 H   0  0  0  0  0  0  0  0  0  0  0  0
  151.3143  145.3177  158.0363 H   0  0  0  0  0  0  0  0  0  0  0  0
  150.2761  144.4425  159.1357 H   0  0  0  0  0  0  0  0  0  0  0  0
  149.1200  141.6295  156.7965 H   0  0  0  0  0  0  0  0  0  0  0  0
  149.9085  139.2268  154.1707 H   0  0  0  0  0  0  0  0  0  0  0  0
  148.2950  138.5736  152.3751 H   0  0  0  0  0  0  0  0  0  0  0  0
  145.4678  141.2763  153.7031 H   0  0  0  0  0  0  0  0  0  0  0  0
  1  2  2  0  0  0  0
  2  3  1  0  0  0  0
  2 11  1  0  0  0  0
  3  4  1  0  0  0  0
  3 19  1  0  0  0  0
  3 20  1  0  0  0  0
  4  5  1  0  0  0  0
  5 10  1  0  0  0  0
  5  6  1  0  0  0  0
  5 21  1  0  0  0  0
  6  7  1  0  0  0  0
  6 22  1  0  0  0  0
  6 23  1  0  0  0  0
  7  8  1  0  0  0  0
  7 24  1  0  0  0  0
  7 25  1  0  0  0  0
  8  9  1  0  0  0  0
  8 26  1  0  0  0  0
  8 27  1  0  0  0  0
  9 10  1  0  0  0  0
  9 28  1  0  0  0  0
  9 29  1  0  0  0  0
 10 30  1  0  0  0  0
 10 31  1  0  0  0  0
 11 12  1  0  0  0  0
 11 32  1  0  0  0  0
 12 17  1  0  0  0  0
 12 13  2  0  0  0  0
 13 14  1  0  0  0  0
 13 33  1  0  0  0  0
 14 15  2  0  0  0  0
 14 34  1  0  0  0  0
 15 16  1  0  0  0  0
 16 17  2  0  0  0  0
 16 35  1  0  0  0  0
 17 18  1  0  0  0  0
M  END
> <s_m_source_file>
AV-unprocessed.smi

> <i_m_source_file_index>
3302

> <i_lp_mmshare_version>
43012

> <i_f3d_flags>
0

> <s_epik_input>
RmMxW2NIXW5bY0hdW2NIXWMxW05IXUMoPU8pW0NIMl1PW0NIXTJbQ0gyXVtDSDJdW0NIMl1bQ0gyXVtDSDJdMg==

> <s_epik_cmdline>
J2VwaWtfcHl0aG9uJywgJy1waCcsICc3LjAnLCAnLXRuJywgJzgnLCAnLW1hJywgJzIwMCcsICctbWV0YWxfYmluZGluZycsICctaW1hZScsICc8aW5maWxlLm1hZT4nLCAnLW9tYWUnLCAnPG91dGZpbGUubWFlPic=

> <r_lp_tautomer_probability>
1

> <r_epik_Ionization_Penalty>
0.000106646

> <r_epik_Ionization_Penalty_Charging>
0

> <r_epik_Ionization_Penalty_Neutral>
0.000106646

> <r_epik_State_Penalty>
-0

> <r_epik_Charging_Adjusted_Penalty>
0

> <i_epik_Tot_Q>
0

> <i_epik_Tot_abs_Q>
0

> <r_epik_Metal_State_Penalty>
-0

> <b_epik_Metal_Only>
0

> <s_lp_Force_Field>
OPLS_2005

> <r_lp_Energy>
19.2883

> <b_lp_Chiralities_Consistent>
1

> <s_lp_Variant>
AV-unprocessed.smi:3302-1

> <Gold.Version>
5.8.1

> <Gold.Id.Protein>
6NUR|6NUR_protein|mol2

> <Gold.PLP.Fitness>
43.3353

> <Gold.PLP.PLP>
-33.8479

> <Gold.PLP.part.hbond>
-1.0000

> <Gold.PLP.part.metal>
0.0000

> <Gold.PLP.part.buried>
1.5474

> <Gold.PLP.part.nonpolar>
-34.3923

> <Gold.PLP.part.repulsive>
0.4358

> <Gold.PLP.ligand.clash>
0.0000

> <Gold.PLP.ligand.torsion>
0.2521

> <Gold.PLP.Chemscore.Hbond>
0.9920

> <Gold.PLP.Chemscore.CHOScore>
2.2723

> <Gold.PLP.Chemscore.Metal>
0.0000

> <Gold.Chemscore.Hbonds>
donor molecule, donor type, donor heavy atom, donor atom, acceptor molecule, acceptor atom, score
      P1  H  7989  7998       L1     1  0.99
      L1  C    14    34       P1  7948  1.00
      L1  C    14    34       P1  7957  0.28
      L1  C    16    35       P1 10175  1.00

> <Gold.PLP.Chemscore.Internal.Correction>
0.1989

> <Gold.Rescore>
     Score         DG    S(hbond)    S(metal)    S(lipo)     H(rot)  DE(clash)    DE(int)     intcor
     15.06     -17.30       0.97        0.00     104.42       1.42       0.56       1.67       ----

> <Gold.Chemscore.Fitness>
15.0638

> <Gold.Chemscore.DG>
-17.2955

> <Gold.Chemscore.ZeroCoef>
-5.4800

> <Gold.Chemscore.Hbond>
0.9716

> <Gold.Chemscore.Metal>
0.0000

> <Gold.Chemscore.Lipo>
104.4193

> <Gold.Chemscore.Internal_Hbond>
0.0000

> <Gold.Chemscore.DEClash>
0.5632

> <Gold.Chemscore.DEInternal>
1.6685

> <Gold.Chemscore.Rot>
1.4245

> <Gold.Chemscore.Internal.Correction>
   9.000000E+99

> <Gold.Chemscore.Hbonds>
donor molecule, donor type, donor heavy atom, donor atom, acceptor molecule, acceptor atom, score
      P1  H  7989  7998       L1     1  0.94

> <Gold.Chemscore.Hbond.Weighted>
-3.2453

> <Gold.Chemscore.Metal.Weighted>
-0.0000

> <Gold.Chemscore.Lipo.Weighted>
-12.2171

> <Gold.Chemscore.Internal_Hbond.Weighted>
0.0000

> <Gold.Chemscore.DEClash.Weighted>
0.5632

> <Gold.Chemscore.DEInternal.Weighted>
1.6685

> <Gold.Chemscore.Rot.Weighted>
3.6468

> <Gold.Chemscore.Internal.Correction.Weighted>
   9.000000E+99

> <Gold.Protein.RotatedTorsions>
[ 6907 6896 6895 6894 ] final  -26.00 input  -60.11 | X-H torsion
[ 7974 7965 7964 7962 ] final   75.87 input  175.53 | X-H torsion
[ 8008 7997 7996 7995 ] final  -58.87 input   59.86 | X-H torsion
[ 10167 10162 10161 10158 ] final  -23.21 input  -65.29 | X-H torsion
[ 10718 10713 10712 10709 ] final  153.02 input   66.30 | X-H torsion
[ 10763 10752 10751 10750 ] final -151.56 input  -60.55 | X-H torsion
[ 11005 11000 10999 10996 ] final  -52.72 input  -57.11 | X-H torsion

> <Gold.Protein.ActiveResidues>
 VAL166  LYS551  ARG553  GLY616  TRP617  ASP618  TYR619  PRO620  LYS621  CYS622 
 ASP623  PHE694  ASN695  SER759  ASP760  ASP761  ALA762  ILE779  LEU786  VAL792 
 PHE793  MET794  SER795  GLU796  ALA797  LYS798  CYS799  TRP800  GLU811  SER814 

> <Gold.Protein.RotatedAtoms>
  151.1672  135.0301  159.8735 H   0  0  0  0  0  0  0  0  0  0  0  0  # atno 6907 bound_to 6896
  152.5450  134.1212  159.8410 H   0  0  0  0  0  0  0  0  0  0  0  0  # atno 6908 bound_to 6896
  151.1314  133.4988  159.2631 H   0  0  0  0  0  0  0  0  0  0  0  0  # atno 6909 bound_to 6896
  145.7101  139.2612  143.1655 H   0  0  0  0  0  0  0  0  0  0  0  0  # atno 7974 bound_to 7965
  154.4327  140.1074  156.6025 H   0  0  0  0  0  0  0  0  0  0  0  0  # atno 8008 bound_to 7997
  155.5896  140.3492  155.4544 H   0  0  0  0  0  0  0  0  0  0  0  0  # atno 8009 bound_to 7997
  156.0257  140.1249  157.0301 H   0  0  0  0  0  0  0  0  0  0  0  0  # atno 8010 bound_to 7997
  140.7287  143.4464  151.0581 H   0  0  0  0  0  0  0  0  0  0  0  0  # atno 10167 bound_to 10162
  157.2502  131.0777  151.1735 H   0  0  0  0  0  0  0  0  0  0  0  0  # atno 10718 bound_to 10713
  154.8050  135.3257  154.7454 H   0  0  0  0  0  0  0  0  0  0  0  0  # atno 10763 bound_to 10752
  153.8115  135.6895  153.4844 H   0  0  0  0  0  0  0  0  0  0  0  0  # atno 10764 bound_to 10752
  153.1789  135.4594  154.9947 H   0  0  0  0  0  0  0  0  0  0  0  0  # atno 10765 bound_to 10752
  141.0939  133.6628  156.4067 H   0  0  0  0  0  0  0  0  0  0  0  0  # atno 11005 bound_to 11000
  146.0720  140.7858  142.9683 LP  0  0  0  0  0  0  0  0  0  0  0  0  # atno 17320 bound_to 7965
  144.6944  140.3357  143.7208 LP  0  0  0  0  0  0  0  0  0  0  0  0  # atno 17321 bound_to 7965
  139.8136  143.7917  152.3173 LP  0  0  0  0  0  0  0  0  0  0  0  0  # atno 17342 bound_to 10162
  139.7975  144.7387  150.9870 LP  0  0  0  0  0  0  0  0  0  0  0  0  # atno 17343 bound_to 10162
  157.3286  130.6973  149.6311 LP  0  0  0  0  0  0  0  0  0  0  0  0  # atno 17370 bound_to 10713
  155.9666  130.4314  150.4919 LP  0  0  0  0  0  0  0  0  0  0  0  0  # atno 17371 bound_to 10713
  140.5186  134.6326  157.5310 LP  0  0  0  0  0  0  0  0  0  0  0  0  # atno 17394 bound_to 11000
  139.9771  134.7197  155.9929 LP  0  0  0  0  0  0  0  0  0  0  0  0  # atno 17395 bound_to 11000

$$$$
