AV-unprocessed.smi:2923|AV-procd|sdf|11209|dock2
  -GOLD-   2272016103D 1   1.00000     0.00000
 Structure written by MMmdl.
 47 49  0  0  0  0  0  0  0  0  2 V2000
  144.5909  131.7698  150.5530 C   0  0  0  0  0  0  0  0  0  0  0  0
  143.8469  132.9803  150.2388 N   0  0  0  0  0  0  0  0  0  0  0  0
  143.4837  133.1628  148.8414 C   0  0  0  0  0  0  0  0  0  0  0  0
  144.4092  134.1285  150.8127 C   0  0  0  0  0  0  0  0  0  0  0  0
  144.1723  134.4639  152.1618 C   0  0  0  0  0  0  0  0  0  0  0  0
  144.7635  135.6253  152.6997 C   0  0  0  0  0  0  0  0  0  0  0  0
  145.5758  136.4415  151.8829 C   0  0  0  0  0  0  0  0  0  0  0  0
  146.1648  137.5917  152.4741 N   0  0  0  0  0  0  0  0  0  0  0  0
  146.7042  137.7196  153.6985 C   0  0  0  0  0  0  0  0  0  0  0  0
  146.8107  136.8170  154.5281 O   0  0  0  0  0  0  0  0  0  0  0  0
  147.1352  138.9701  153.9085 N   0  0  0  0  0  0  0  0  0  0  0  0
  147.7965  139.4297  155.1343 C   0  0  1  0  0  0  0  0  0  0  0  0
  149.2568  138.9776  155.2162 C   0  0  1  0  0  0  0  0  0  0  0  0
  150.0906  137.9440  154.5492 C   0  0  0  0  0  0  0  0  0  0  0  0
  151.3583  138.8181  154.3482 C   0  0  0  0  0  0  0  0  0  0  0  0
  150.9645  140.1752  154.6774 O   0  0  0  0  0  0  0  0  0  0  0  0
  149.5804  140.2066  154.3913 C   0  0  2  0  0  0  0  0  0  0  0  0
  148.3857  140.8961  155.0872 C   0  0  0  0  0  0  0  0  0  0  0  0
  147.6348  141.9270  154.2368 C   0  0  0  0  0  0  0  0  0  0  0  0
  148.6630  141.5885  156.4341 C   0  0  0  0  0  0  0  0  0  0  0  0
  145.7863  136.0503  150.5377 C   0  0  0  0  0  0  0  0  0  0  0  0
  145.2027  134.9289  150.0621 N   0  3  0  0  0  0  0  0  0  0  0  0
  144.7930  131.7040  151.6229 H   0  0  0  0  0  0  0  0  0  0  0  0
  145.5423  131.7457  150.0200 H   0  0  0  0  0  0  0  0  0  0  0  0
  144.0165  130.8891  150.2649 H   0  0  0  0  0  0  0  0  0  0  0  0
  142.9197  134.0861  148.7039 H   0  0  0  0  0  0  0  0  0  0  0  0
  142.8600  132.3349  148.5038 H   0  0  0  0  0  0  0  0  0  0  0  0
  144.3708  133.2025  148.2079 H   0  0  0  0  0  0  0  0  0  0  0  0
  143.5459  133.8379  152.7806 H   0  0  0  0  0  0  0  0  0  0  0  0
  144.5882  135.8867  153.7331 H   0  0  0  0  0  0  0  0  0  0  0  0
  146.2219  138.4049  151.8787 H   0  0  0  0  0  0  0  0  0  0  0  0
  147.0114  139.6511  153.1738 H   0  0  0  0  0  0  0  0  0  0  0  0
  147.2358  139.2166  156.0461 H   0  0  0  0  0  0  0  0  0  0  0  0
  149.5840  139.0668  156.2548 H   0  0  0  0  0  0  0  0  0  0  0  0
  150.2755  137.0742  155.1800 H   0  0  0  0  0  0  0  0  0  0  0  0
  149.6637  137.6164  153.6003 H   0  0  0  0  0  0  0  0  0  0  0  0
  152.1759  138.5063  154.9988 H   0  0  0  0  0  0  0  0  0  0  0  0
  151.7070  138.7633  153.3162 H   0  0  0  0  0  0  0  0  0  0  0  0
  149.4121  140.0810  153.3166 H   0  0  0  0  0  0  0  0  0  0  0  0
  148.1768  142.8716  154.1798 H   0  0  0  0  0  0  0  0  0  0  0  0
  146.6471  142.1382  154.6481 H   0  0  0  0  0  0  0  0  0  0  0  0
  147.4917  141.5863  153.2113 H   0  0  0  0  0  0  0  0  0  0  0  0
  149.3360  142.4373  156.3089 H   0  0  0  0  0  0  0  0  0  0  0  0
  149.1191  140.9344  157.1750 H   0  0  0  0  0  0  0  0  0  0  0  0
  147.7431  141.9660  156.8817 H   0  0  0  0  0  0  0  0  0  0  0  0
  146.4051  136.5753  149.8257 H   0  0  0  0  0  0  0  0  0  0  0  0
  145.3724  134.6713  149.0895 H   0  0  0  0  0  0  0  0  0  0  0  0
  1  2  1  0  0  0  0
  1 23  1  0  0  0  0
  1 24  1  0  0  0  0
  1 25  1  0  0  0  0
  2  3  1  0  0  0  0
  2  4  1  0  0  0  0
  3 26  1  0  0  0  0
  3 27  1  0  0  0  0
  3 28  1  0  0  0  0
  4 22  1  0  0  0  0
  4  5  2  0  0  0  0
  5  6  1  0  0  0  0
  5 29  1  0  0  0  0
  6  7  2  0  0  0  0
  6 30  1  0  0  0  0
  7  8  1  0  0  0  0
  7 21  1  0  0  0  0
  8  9  1  0  0  0  0
  8 31  1  0  0  0  0
  9 10  2  0  0  0  0
  9 11  1  0  0  0  0
 11 12  1  0  0  0  0
 11 32  1  0  0  0  0
 12 18  1  0  0  0  0
 12 13  1  0  0  0  0
 12 33  1  0  0  0  0
 13 17  1  0  0  0  0
 13 14  1  0  0  0  0
 13 34  1  0  0  0  0
 14 15  1  0  0  0  0
 14 35  1  0  0  0  0
 14 36  1  0  0  0  0
 15 16  1  0  0  0  0
 15 37  1  0  0  0  0
 15 38  1  0  0  0  0
 16 17  1  0  0  0  0
 17 18  1  0  0  0  0
 17 39  1  0  0  0  0
 18 19  1  0  0  0  0
 18 20  1  0  0  0  0
 19 40  1  0  0  0  0
 19 41  1  0  0  0  0
 19 42  1  0  0  0  0
 20 43  1  0  0  0  0
 20 44  1  0  0  0  0
 20 45  1  0  0  0  0
 21 22  2  0  0  0  0
 21 46  1  0  0  0  0
 22 47  1  0  0  0  0
M  CHG  1  22   1
M  END
> <s_m_source_file>
AV-unprocessed.smi

> <i_m_source_file_index>
2923

> <i_lp_mmshare_version>
43012

> <i_f3d_flags>
0

> <s_epik_input>
W0NIM11OKFtDSDNdKWMxW2NIXVtjSF1jKFtjSF1uMSlbTkhdQyg9TylbTkhdW0NASF0yQyhbQ0gzXSkoW0NIM10pW0NAQEhdKFtDQEhdMjMpT1tDSDJdW0NIMl0z

> <s_epik_cmdline>
J2VwaWtfcHl0aG9uJywgJy1waCcsICc3LjAnLCAnLXRuJywgJzgnLCAnLW1hJywgJzIwMCcsICctbWV0YWxfYmluZGluZycsICctaW1hZScsICc8aW5maWxlLm1hZT4nLCAnLW9tYWUnLCAnPG91dGZpbGUubWFlPic=

> <r_lp_tautomer_probability>
0.999994

> <r_epik_Ionization_Penalty>
0.252205

> <r_epik_Ionization_Penalty_Charging>
0.252185

> <r_epik_Ionization_Penalty_Neutral>
1.99479e-05

> <r_epik_State_Penalty>
0.243573

> <r_epik_Charging_Adjusted_Penalty>
0.495758

> <i_epik_Tot_Q>
1

> <i_epik_Tot_abs_Q>
1

> <r_epik_Metal_State_Penalty>
0.534372

> <b_epik_Metal_Only>
0

> <s_lp_Force_Field>
OPLS_2005

> <r_lp_Energy>
76.1275

> <b_lp_Chiralities_Consistent>
1

> <s_lp_Variant>
AV-unprocessed.smi:2923-8

> <Gold.Version>
5.8.1

> <Gold.Id.Protein>
6NUR|6NUR_protein|mol2

> <Gold.PLP.Fitness>
37.7268

> <Gold.PLP.PLP>
-33.4737

> <Gold.PLP.part.hbond>
-2.7695

> <Gold.PLP.part.metal>
0.0000

> <Gold.PLP.part.buried>
-3.0886

> <Gold.PLP.part.nonpolar>
-28.1107

> <Gold.PLP.part.repulsive>
0.4766

> <Gold.PLP.ligand.clash>
0.0000

> <Gold.PLP.ligand.torsion>
1.1036

> <Gold.PLP.Chemscore.Hbond>
2.0000

> <Gold.PLP.Chemscore.CHOScore>
0.0000

> <Gold.PLP.Chemscore.Metal>
0.0000

> <Gold.Chemscore.Hbonds>
donor molecule, donor type, donor heavy atom, donor atom, acceptor molecule, acceptor atom, score
      L1  H    22    47       P1  7921  1.00
      P1  H  7989  7998       L1    16  0.88

> <Gold.PLP.Chemscore.Internal.Correction>
0.4603

> <Gold.Rescore>
     Score         DG    S(hbond)    S(metal)    S(lipo)     H(rot)  DE(clash)    DE(int)     intcor
     13.18     -16.43       1.01        0.00      91.14       1.20       1.06       2.19       ----

> <Gold.Chemscore.Fitness>
13.1808

> <Gold.Chemscore.DG>
-16.4318

> <Gold.Chemscore.ZeroCoef>
-5.4800

> <Gold.Chemscore.Hbond>
1.0101

> <Gold.Chemscore.Metal>
0.0000

> <Gold.Chemscore.Lipo>
91.1352

> <Gold.Chemscore.Internal_Hbond>
0.0000

> <Gold.Chemscore.DEClash>
1.0619

> <Gold.Chemscore.DEInternal>
2.1891

> <Gold.Chemscore.Rot>
1.2049

> <Gold.Chemscore.Internal.Correction>
   9.000000E+99

> <Gold.Chemscore.Hbonds>
donor molecule, donor type, donor heavy atom, donor atom, acceptor molecule, acceptor atom, score
      L1  H    22    47       P1  7921  0.97
      P1  H  7989  7998       L1    16  0.08

> <Gold.Chemscore.Hbond.Weighted>
-3.3736

> <Gold.Chemscore.Metal.Weighted>
-0.0000

> <Gold.Chemscore.Lipo.Weighted>
-10.6628

> <Gold.Chemscore.Internal_Hbond.Weighted>
0.0000

> <Gold.Chemscore.DEClash.Weighted>
1.0619

> <Gold.Chemscore.DEInternal.Weighted>
2.1891

> <Gold.Chemscore.Rot.Weighted>
3.0846

> <Gold.Chemscore.Internal.Correction.Weighted>
   9.000000E+99

> <Gold.Protein.RotatedTorsions>
[ 6907 6896 6895 6894 ] final -130.68 input  -60.11 | X-H torsion
[ 7974 7965 7964 7962 ] final   94.83 input  175.53 | X-H torsion
[ 8008 7997 7996 7995 ] final  -45.39 input   59.86 | X-H torsion
[ 10167 10162 10161 10158 ] final  120.62 input  -65.29 | X-H torsion
[ 10718 10713 10712 10709 ] final  -45.99 input   66.30 | X-H torsion
[ 10763 10752 10751 10750 ] final -149.14 input  -60.55 | X-H torsion
[ 11005 11000 10999 10996 ] final  152.91 input  -57.11 | X-H torsion

> <Gold.Protein.ActiveResidues>
 VAL166  LYS551  ARG553  GLY616  TRP617  ASP618  TYR619  PRO620  LYS621  CYS622 
 ASP623  PHE694  ASN695  SER759  ASP760  ASP761  ALA762  ILE779  LEU786  VAL792 
 PHE793  MET794  SER795  GLU796  ALA797  LYS798  CYS799  TRP800  GLU811  SER814 

> <Gold.Protein.RotatedAtoms>
  150.9424  133.6641  159.2787 H   0  0  0  0  0  0  0  0  0  0  0  0  # atno 6907 bound_to 6896
  151.4026  135.0972  159.9570 H   0  0  0  0  0  0  0  0  0  0  0  0  # atno 6908 bound_to 6896
  152.5075  133.8914  159.7451 H   0  0  0  0  0  0  0  0  0  0  0  0  # atno 6909 bound_to 6896
  145.4603  139.2287  143.2991 H   0  0  0  0  0  0  0  0  0  0  0  0  # atno 7974 bound_to 7965
  154.4001  140.1398  156.3839 H   0  0  0  0  0  0  0  0  0  0  0  0  # atno 8008 bound_to 7997
  155.7977  140.3477  155.5364 H   0  0  0  0  0  0  0  0  0  0  0  0  # atno 8009 bound_to 7997
  155.8515  140.0942  157.1662 H   0  0  0  0  0  0  0  0  0  0  0  0  # atno 8010 bound_to 7997
  139.5970  144.7045  151.3152 H   0  0  0  0  0  0  0  0  0  0  0  0  # atno 10167 bound_to 10162
  156.2228  130.4167  149.8971 H   0  0  0  0  0  0  0  0  0  0  0  0  # atno 10718 bound_to 10713
  154.8194  135.3316  154.7083 H   0  0  0  0  0  0  0  0  0  0  0  0  # atno 10763 bound_to 10752
  153.7719  135.6925  153.4909 H   0  0  0  0  0  0  0  0  0  0  0  0  # atno 10764 bound_to 10752
  153.2039  135.4506  155.0248 H   0  0  0  0  0  0  0  0  0  0  0  0  # atno 10765 bound_to 10752
  140.1350  134.8777  157.2255 H   0  0  0  0  0  0  0  0  0  0  0  0  # atno 11005 bound_to 11000
  146.2455  140.5371  142.8916 LP  0  0  0  0  0  0  0  0  0  0  0  0  # atno 17320 bound_to 7965
  144.8007  140.6207  143.6480 LP  0  0  0  0  0  0  0  0  0  0  0  0  # atno 17321 bound_to 7965
  140.7220  143.7110  150.7770 LP  0  0  0  0  0  0  0  0  0  0  0  0  # atno 17342 bound_to 10162
  140.0678  143.5091  152.2595 LP  0  0  0  0  0  0  0  0  0  0  0  0  # atno 17343 bound_to 10162
  156.6612  130.8783  151.3547 LP  0  0  0  0  0  0  0  0  0  0  0  0  # atno 17370 bound_to 10713
  157.7096  130.9424  150.1044 LP  0  0  0  0  0  0  0  0  0  0  0  0  # atno 17371 bound_to 10713
  140.2794  134.3368  155.7348 LP  0  0  0  0  0  0  0  0  0  0  0  0  # atno 17394 bound_to 11000
  141.2177  133.7469  156.9341 LP  0  0  0  0  0  0  0  0  0  0  0  0  # atno 17395 bound_to 11000

$$$$
