AV-unprocessed.smi:3094|AV-procd|sdf|11791|dock6
  -GOLD-   2272017173D 1   1.00000     0.00000
 Structure written by MMmdl.
 29 30  0  0  0  0  0  0  0  0  1 V2000
  149.5117  141.5166  154.8685 C   0  0  0  0  0  0  0  0  0  0  0  0
  150.3295  141.3713  156.1589 C   0  0  1  0  0  0  0  0  0  0  0  0
  151.7147  140.7512  155.8784 C   0  0  0  0  0  0  0  0  0  0  0  0
  151.6316  139.3645  155.4577 N   0  0  0  0  0  0  0  0  0  0  0  0
  150.8986  138.8549  154.3939 C   0  0  0  0  0  0  0  0  0  0  0  0
  151.1138  137.4954  154.3843 C   0  0  0  0  0  0  0  0  0  0  0  0
  151.9768  137.1495  155.4215 N   0  0  0  0  0  0  0  0  0  0  0  0
  152.2428  138.3079  156.0110 C   0  0  0  0  0  0  0  0  0  0  0  0
  150.4635  142.6856  156.7870 N   0  0  0  0  0  0  0  0  0  0  0  0
  151.2908  142.9925  157.7991 C   0  0  0  0  0  0  0  0  0  0  0  0
  152.0400  142.1715  158.3297 O   0  0  0  0  0  0  0  0  0  0  0  0
  151.2334  144.4262  158.2123 C   0  0  0  0  0  0  0  0  0  0  0  0
  152.1909  144.8772  159.2962 C   0  0  0  0  0  0  0  0  0  0  0  0
  150.7204  144.7416  159.6029 C   0  0  0  0  0  0  0  0  0  0  0  0
  149.3712  140.5505  154.3830 H   0  0  0  0  0  0  0  0  0  0  0  0
  150.0058  142.1782  154.1560 H   0  0  0  0  0  0  0  0  0  0  0  0
  148.5223  141.9265  155.0741 H   0  0  0  0  0  0  0  0  0  0  0  0
  149.7722  140.7011  156.8160 H   0  0  0  0  0  0  0  0  0  0  0  0
  152.2205  141.3063  155.0874 H   0  0  0  0  0  0  0  0  0  0  0  0
  152.3522  140.8169  156.7616 H   0  0  0  0  0  0  0  0  0  0  0  0
  150.2949  139.4831  153.7556 H   0  0  0  0  0  0  0  0  0  0  0  0
  150.7170  136.7459  153.7154 H   0  0  0  0  0  0  0  0  0  0  0  0
  152.8912  138.3881  156.8714 H   0  0  0  0  0  0  0  0  0  0  0  0
  149.8876  143.4258  156.4126 H   0  0  0  0  0  0  0  0  0  0  0  0
  151.0089  145.1498  157.4299 H   0  0  0  0  0  0  0  0  0  0  0  0
  152.8643  144.1415  159.7331 H   0  0  0  0  0  0  0  0  0  0  0  0
  152.6041  145.8795  159.2031 H   0  0  0  0  0  0  0  0  0  0  0  0
  150.1367  145.6526  159.7188 H   0  0  0  0  0  0  0  0  0  0  0  0
  150.4188  143.9179  160.2477 H   0  0  0  0  0  0  0  0  0  0  0  0
  1  2  1  0  0  0  0
  1 15  1  0  0  0  0
  1 16  1  0  0  0  0
  1 17  1  0  0  0  0
  2  3  1  0  0  0  0
  2  9  1  0  0  0  0
  2 18  1  0  0  0  0
  3  4  1  0  0  0  0
  3 19  1  0  0  0  0
  3 20  1  0  0  0  0
  4  8  1  0  0  0  0
  4  5  1  0  0  0  0
  5  6  2  0  0  0  0
  5 21  1  0  0  0  0
  6  7  1  0  0  0  0
  6 22  1  0  0  0  0
  7  8  2  0  0  0  0
  8 23  1  0  0  0  0
  9 10  1  0  0  0  0
  9 24  1  0  0  0  0
 10 11  2  0  0  0  0
 10 12  1  0  0  0  0
 12 14  1  0  0  0  0
 12 13  1  0  0  0  0
 12 25  1  0  0  0  0
 13 14  1  0  0  0  0
 13 26  1  0  0  0  0
 13 27  1  0  0  0  0
 14 28  1  0  0  0  0
 14 29  1  0  0  0  0
M  END
> <s_m_source_file>
AV-unprocessed.smi

> <i_m_source_file_index>
3094

> <i_lp_mmshare_version>
43012

> <i_f3d_flags>
0

> <s_epik_input>
W0NIMl0xW0NIMl1bQ0hdMUMoPU8pW05IXVtDQEhdKFtDSDNdKVtDSDJdbjJbY0hdW2NIXW5bY0hdMg==

> <s_epik_cmdline>
J2VwaWtfcHl0aG9uJywgJy1waCcsICc3LjAnLCAnLXRuJywgJzgnLCAnLW1hJywgJzIwMCcsICctbWV0YWxfYmluZGluZycsICctaW1hZScsICc8aW5maWxlLm1hZT4nLCAnLW9tYWUnLCAnPG91dGZpbGUubWFlPic=

> <r_lp_tautomer_probability>
1

> <r_epik_Ionization_Penalty>
0.642614

> <r_epik_Ionization_Penalty_Charging>
0.642614

> <r_epik_Ionization_Penalty_Neutral>
4.09963e-08

> <r_epik_State_Penalty>
0.660429

> <r_epik_Charging_Adjusted_Penalty>
1.30304

> <i_epik_Tot_Q>
0

> <i_epik_Tot_abs_Q>
0

> <r_epik_Metal_State_Penalty>
0.31224

> <b_epik_Metal_Only>
0

> <s_lp_Force_Field>
OPLS_2005

> <r_lp_Energy>
7.79034

> <b_lp_Chiralities_Consistent>
1

> <s_lp_Variant>
AV-unprocessed.smi:3094-4

> <Gold.Version>
5.8.1

> <Gold.Id.Protein>
6NUR|6NUR_protein|mol2

> <Gold.PLP.Fitness>
44.8733

> <Gold.PLP.PLP>
-34.7055

> <Gold.PLP.part.hbond>
-2.0000

> <Gold.PLP.part.metal>
0.0000

> <Gold.PLP.part.buried>
-3.5092

> <Gold.PLP.part.nonpolar>
-29.3912

> <Gold.PLP.part.repulsive>
0.1089

> <Gold.PLP.ligand.clash>
0.0000

> <Gold.PLP.ligand.torsion>
0.2532

> <Gold.PLP.Chemscore.Hbond>
1.9833

> <Gold.PLP.Chemscore.CHOScore>
1.5428

> <Gold.PLP.Chemscore.Metal>
0.0000

> <Gold.Chemscore.Hbonds>
donor molecule, donor type, donor heavy atom, donor atom, acceptor molecule, acceptor atom, score
      L1  H     9    24       P1  8028  1.00
      P1  H 10752 10764       L1     7  0.93
      L1  C     5    21       P1  7957  0.49
      L1  C     6    22       P1  7948  0.32
      L1  C     6    22       P1  7949  0.71

> <Gold.PLP.Chemscore.Internal.Correction>
0.0959

> <Gold.Rescore>
     Score         DG    S(hbond)    S(metal)    S(lipo)     H(rot)  DE(clash)    DE(int)     intcor
     13.84     -15.29       1.81        0.00      72.37       1.83       0.14       1.31       ----

> <Gold.Chemscore.Fitness>
13.8427

> <Gold.Chemscore.DG>
-15.2881

> <Gold.Chemscore.ZeroCoef>
-5.4800

> <Gold.Chemscore.Hbond>
1.8077

> <Gold.Chemscore.Metal>
0.0000

> <Gold.Chemscore.Lipo>
72.3701

> <Gold.Chemscore.Internal_Hbond>
0.0000

> <Gold.Chemscore.DEClash>
0.1388

> <Gold.Chemscore.DEInternal>
1.3065

> <Gold.Chemscore.Rot>
1.8347

> <Gold.Chemscore.Internal.Correction>
   9.000000E+99

> <Gold.Chemscore.Hbonds>
donor molecule, donor type, donor heavy atom, donor atom, acceptor molecule, acceptor atom, score
      L1  H     9    24       P1  8028  1.00
      P1  H 10752 10764       L1     7  0.31

> <Gold.Chemscore.Hbond.Weighted>
-6.0376

> <Gold.Chemscore.Metal.Weighted>
-0.0000

> <Gold.Chemscore.Lipo.Weighted>
-8.4673

> <Gold.Chemscore.Internal_Hbond.Weighted>
0.0000

> <Gold.Chemscore.DEClash.Weighted>
0.1388

> <Gold.Chemscore.DEInternal.Weighted>
1.3065

> <Gold.Chemscore.Rot.Weighted>
4.6969

> <Gold.Chemscore.Internal.Correction.Weighted>
   9.000000E+99

> <Gold.Protein.RotatedTorsions>
[ 6907 6896 6895 6894 ] final   56.46 input  -60.11 | X-H torsion
[ 7974 7965 7964 7962 ] final  106.83 input  175.53 | X-H torsion
[ 8008 7997 7996 7995 ] final   -0.29 input   59.86 | X-H torsion
[ 10167 10162 10161 10158 ] final   51.88 input  -65.29 | X-H torsion
[ 10718 10713 10712 10709 ] final   10.31 input   66.30 | X-H torsion
[ 10763 10752 10751 10750 ] final  -58.18 input  -60.55 | X-H torsion
[ 11005 11000 10999 10996 ] final -115.87 input  -57.11 | X-H torsion

> <Gold.Protein.ActiveResidues>
 VAL166  LYS551  ARG553  GLY616  TRP617  ASP618  TYR619  PRO620  LYS621  CYS622 
 ASP623  PHE694  ASN695  SER759  ASP760  ASP761  ALA762  ILE779  LEU786  VAL792 
 PHE793  MET794  SER795  GLU796  ALA797  LYS798  CYS799  TRP800  GLU811  SER814 

> <Gold.Protein.RotatedAtoms>
  152.3638  134.6833  160.0198 H   0  0  0  0  0  0  0  0  0  0  0  0  # atno 6907 bound_to 6896
  151.7148  133.3307  159.3308 H   0  0  0  0  0  0  0  0  0  0  0  0  # atno 6908 bound_to 6896
  150.7624  134.6435  159.6294 H   0  0  0  0  0  0  0  0  0  0  0  0  # atno 6909 bound_to 6896
  145.3015  139.2568  143.3811 H   0  0  0  0  0  0  0  0  0  0  0  0  # atno 7974 bound_to 7965
  154.6598  140.2588  155.7122 H   0  0  0  0  0  0  0  0  0  0  0  0  # atno 8008 bound_to 7997
  156.2613  140.2851  156.0986 H   0  0  0  0  0  0  0  0  0  0  0  0  # atno 8009 bound_to 7997
  155.1326  140.0379  157.2769 H   0  0  0  0  0  0  0  0  0  0  0  0  # atno 8010 bound_to 7997
  140.2573  144.3413  150.6329 H   0  0  0  0  0  0  0  0  0  0  0  0  # atno 10167 bound_to 10162
  156.9792  130.5999  149.5675 H   0  0  0  0  0  0  0  0  0  0  0  0  # atno 10718 bound_to 10713
  154.2341  135.6355  153.5185 H   0  0  0  0  0  0  0  0  0  0  0  0  # atno 10763 bound_to 10752
  152.9943  135.5526  154.5981 H   0  0  0  0  0  0  0  0  0  0  0  0  # atno 10764 bound_to 10752
  154.5471  135.2899  155.1017 H   0  0  0  0  0  0  0  0  0  0  0  0  # atno 10765 bound_to 10752
  141.0459  133.9763  157.2917 H   0  0  0  0  0  0  0  0  0  0  0  0  # atno 11005 bound_to 11000
  146.3150  140.3531  142.8658 LP  0  0  0  0  0  0  0  0  0  0  0  0  # atno 17320 bound_to 7965
  144.9089  140.7733  143.5820 LP  0  0  0  0  0  0  0  0  0  0  0  0  # atno 17321 bound_to 7965
  140.5994  143.2167  151.7102 LP  0  0  0  0  0  0  0  0  0  0  0  0  # atno 17342 bound_to 10162
  139.5027  144.3817  152.0369 LP  0  0  0  0  0  0  0  0  0  0  0  0  # atno 17343 bound_to 10162
  156.0251  130.5345  150.8385 LP  0  0  0  0  0  0  0  0  0  0  0  0  # atno 17370 bound_to 10713
  157.5538  131.0944  150.9657 LP  0  0  0  0  0  0  0  0  0  0  0  0  # atno 17371 bound_to 10713
  139.9312  135.0200  156.8405 LP  0  0  0  0  0  0  0  0  0  0  0  0  # atno 17394 bound_to 11000
  140.6147  134.0050  155.7592 LP  0  0  0  0  0  0  0  0  0  0  0  0  # atno 17395 bound_to 11000

$$$$
