AV-unprocessed.smi:2210|AV-procd|sdf|8949|dock8
  -GOLD-   2272012163D 1   1.00000     0.00000
 Structure written by MMmdl.
 37 38  0  0  0  0  0  0  0  0  1 V2000
  150.0636  135.0698  155.9638 O   0  0  0  0  0  0  0  0  0  0  0  0
  149.6849  135.4193  154.8460 C   0  0  0  0  0  0  0  0  0  0  0  0
  148.9187  134.6561  154.0536 N   0  0  0  0  0  0  0  0  0  0  0  0
  148.4267  133.3259  154.3932 C   0  0  0  0  0  0  0  0  0  0  0  0
  148.5580  132.3540  153.2073 C   0  0  0  0  0  0  0  0  0  0  0  0
  147.2722  132.2241  152.4078 C   0  0  0  0  0  0  0  0  0  0  0  0
  146.7999  133.2325  151.6490 C   0  0  0  0  0  0  0  0  0  0  0  0
  145.5156  133.1637  150.8415 C   0  0  0  0  0  0  0  0  0  0  0  0
  144.6340  131.9694  151.2435 C   0  0  0  0  0  0  0  0  0  0  0  0
  145.4735  130.6991  151.4259 C   0  0  0  0  0  0  0  0  0  0  0  0
  146.5460  130.8876  152.5137 C   0  0  0  0  0  0  0  0  0  0  0  0
  149.9882  136.5858  154.2511 N   0  0  0  0  0  0  0  0  0  0  0  0
  150.7693  137.6599  154.7571 C   0  0  0  0  0  0  0  0  0  0  0  0
  151.7957  137.5139  155.7218 C   0  0  0  0  0  0  0  0  0  0  0  0
  152.4887  138.6607  156.1554 C   0  0  0  0  0  0  0  0  0  0  0  0
  152.1254  139.9103  155.6166 C   0  0  0  0  0  0  0  0  0  0  0  0
  151.1394  140.0661  154.7085 N   0  0  0  0  0  0  0  0  0  0  0  0
  150.4797  138.9623  154.2972 C   0  0  0  0  0  0  0  0  0  0  0  0
  148.6601  135.0192  153.1478 H   0  0  0  0  0  0  0  0  0  0  0  0
  149.0068  132.9670  155.2433 H   0  0  0  0  0  0  0  0  0  0  0  0
  147.3892  133.3843  154.7270 H   0  0  0  0  0  0  0  0  0  0  0  0
  149.3570  132.6899  152.5448 H   0  0  0  0  0  0  0  0  0  0  0  0
  148.8501  131.3649  153.5613 H   0  0  0  0  0  0  0  0  0  0  0  0
  147.3508  134.1595  151.5830 H   0  0  0  0  0  0  0  0  0  0  0  0
  144.9607  134.0936  150.9685 H   0  0  0  0  0  0  0  0  0  0  0  0
  145.7847  133.0958  149.7871 H   0  0  0  0  0  0  0  0  0  0  0  0
  144.1196  132.1948  152.1787 H   0  0  0  0  0  0  0  0  0  0  0  0
  143.8578  131.8092  150.4946 H   0  0  0  0  0  0  0  0  0  0  0  0
  144.8329  129.8535  151.6783 H   0  0  0  0  0  0  0  0  0  0  0  0
  145.9548  130.4494  150.4795 H   0  0  0  0  0  0  0  0  0  0  0  0
  147.2689  130.0733  152.4550 H   0  0  0  0  0  0  0  0  0  0  0  0
  146.0822  130.8285  153.4987 H   0  0  0  0  0  0  0  0  0  0  0  0
  149.6705  136.6940  153.2989 H   0  0  0  0  0  0  0  0  0  0  0  0
  152.0550  136.5564  156.1454 H   0  0  0  0  0  0  0  0  0  0  0  0
  153.2781  138.5840  156.8885 H   0  0  0  0  0  0  0  0  0  0  0  0
  152.6361  140.8093  155.9288 H   0  0  0  0  0  0  0  0  0  0  0  0
  149.6963  139.1256  153.5714 H   0  0  0  0  0  0  0  0  0  0  0  0
  1  2  2  0  0  0  0
  2  3  1  0  0  0  0
  2 12  1  0  0  0  0
  3  4  1  0  0  0  0
  3 19  1  0  0  0  0
  4  5  1  0  0  0  0
  4 20  1  0  0  0  0
  4 21  1  0  0  0  0
  5  6  1  0  0  0  0
  5 22  1  0  0  0  0
  5 23  1  0  0  0  0
  6 11  1  0  0  0  0
  6  7  2  0  0  0  0
  7  8  1  0  0  0  0
  7 24  1  0  0  0  0
  8  9  1  0  0  0  0
  8 25  1  0  0  0  0
  8 26  1  0  0  0  0
  9 10  1  0  0  0  0
  9 27  1  0  0  0  0
  9 28  1  0  0  0  0
 10 11  1  0  0  0  0
 10 29  1  0  0  0  0
 10 30  1  0  0  0  0
 11 31  1  0  0  0  0
 11 32  1  0  0  0  0
 12 13  1  0  0  0  0
 12 33  1  0  0  0  0
 13 18  1  0  0  0  0
 13 14  2  0  0  0  0
 14 15  1  0  0  0  0
 14 34  1  0  0  0  0
 15 16  2  0  0  0  0
 15 35  1  0  0  0  0
 16 17  1  0  0  0  0
 16 36  1  0  0  0  0
 17 18  2  0  0  0  0
 18 37  1  0  0  0  0
M  END
> <s_m_source_file>
AV-unprocessed.smi

> <i_m_source_file_index>
2210

> <i_lp_mmshare_version>
43012

> <i_f3d_flags>
0

> <s_epik_input>
W2NIXTFuW2NIXVtjSF1bY0hdYzFbTkhdQyg9TylbTkhdW0NIMl1bQ0gyXUMyPVtDSF1bQ0gyXVtDSDJdW0NIMl1bQ0gyXTI=

> <s_epik_cmdline>
J2VwaWtfcHl0aG9uJywgJy1waCcsICc3LjAnLCAnLXRuJywgJzgnLCAnLW1hJywgJzIwMCcsICctbWV0YWxfYmluZGluZycsICctaW1hZScsICc8aW5maWxlLm1hZT4nLCAnLW9tYWUnLCAnPG91dGZpbGUubWFlPic=

> <r_epik_Ionization_Penalty>
0.00482236

> <r_epik_Ionization_Penalty_Charging>
0

> <r_epik_Ionization_Penalty_Neutral>
0.00482236

> <r_epik_State_Penalty>
0.0034674

> <r_epik_Charging_Adjusted_Penalty>
0.0034674

> <i_epik_Tot_Q>
0

> <i_epik_Tot_abs_Q>
0

> <r_epik_Metal_State_Penalty>
-0

> <b_epik_Metal_Only>
0

> <s_lp_Force_Field>
OPLS_2005

> <r_lp_Energy>
10.3884

> <b_lp_Chiralities_Consistent>
1

> <s_lp_Variant>
AV-unprocessed.smi:2210-1

> <Gold.Version>
5.8.1

> <Gold.Id.Protein>
6NUR|6NUR_protein|mol2

> <Gold.PLP.Fitness>
45.3430

> <Gold.PLP.PLP>
-34.9033

> <Gold.PLP.part.hbond>
-3.7802

> <Gold.PLP.part.metal>
0.0000

> <Gold.PLP.part.buried>
-1.7204

> <Gold.PLP.part.nonpolar>
-28.8635

> <Gold.PLP.part.repulsive>
0.1622

> <Gold.PLP.ligand.clash>
0.0000

> <Gold.PLP.ligand.torsion>
0.6083

> <Gold.PLP.Chemscore.Hbond>
2.9673

> <Gold.PLP.Chemscore.CHOScore>
0.9168

> <Gold.PLP.Chemscore.Metal>
0.0000

> <Gold.Chemscore.Hbonds>
donor molecule, donor type, donor heavy atom, donor atom, acceptor molecule, acceptor atom, score
      L1  H     3    19       P1  7948  0.96
      L1  H    12    33       P1  7948  1.00
      P1  H  7989  7998       L1    17  1.00
      L1  C    18    37       P1  7957  0.89

> <Gold.PLP.Chemscore.Internal.Correction>
0.0038

> <Gold.Rescore>
     Score         DG    S(hbond)    S(metal)    S(lipo)     H(rot)  DE(clash)    DE(int)     intcor
     18.13     -19.73       2.26        0.00      87.42       1.37       0.01       1.59       ----

> <Gold.Chemscore.Fitness>
18.1322

> <Gold.Chemscore.DG>
-19.7316

> <Gold.Chemscore.ZeroCoef>
-5.4800

> <Gold.Chemscore.Hbond>
2.2584

> <Gold.Chemscore.Metal>
0.0000

> <Gold.Chemscore.Lipo>
87.4158

> <Gold.Chemscore.Internal_Hbond>
0.0000

> <Gold.Chemscore.DEClash>
0.0060

> <Gold.Chemscore.DEInternal>
1.5935

> <Gold.Chemscore.Rot>
1.3747

> <Gold.Chemscore.Internal.Correction>
   9.000000E+99

> <Gold.Chemscore.Hbonds>
donor molecule, donor type, donor heavy atom, donor atom, acceptor molecule, acceptor atom, score
      L1  H     3    19       P1  7948  0.51
      L1  H    12    33       P1  7948  0.44
      P1  H  7989  7998       L1    17  0.55

> <Gold.Chemscore.Hbond.Weighted>
-7.5432

> <Gold.Chemscore.Metal.Weighted>
-0.0000

> <Gold.Chemscore.Lipo.Weighted>
-10.2276

> <Gold.Chemscore.Internal_Hbond.Weighted>
0.0000

> <Gold.Chemscore.DEClash.Weighted>
0.0060

> <Gold.Chemscore.DEInternal.Weighted>
1.5935

> <Gold.Chemscore.Rot.Weighted>
3.5192

> <Gold.Chemscore.Internal.Correction.Weighted>
   9.000000E+99

> <Gold.Protein.RotatedTorsions>
[ 6907 6896 6895 6894 ] final  128.38 input  -60.11 | X-H torsion
[ 7974 7965 7964 7962 ] final   -8.33 input  175.53 | X-H torsion
[ 8008 7997 7996 7995 ] final  123.01 input   59.86 | X-H torsion
[ 10167 10162 10161 10158 ] final -173.43 input  -65.29 | X-H torsion
[ 10718 10713 10712 10709 ] final   39.80 input   66.30 | X-H torsion
[ 10763 10752 10751 10750 ] final  101.43 input  -60.55 | X-H torsion
[ 11005 11000 10999 10996 ] final   59.97 input  -57.11 | X-H torsion

> <Gold.Protein.ActiveResidues>
 VAL166  LYS551  ARG553  GLY616  TRP617  ASP618  TYR619  PRO620  LYS621  CYS622 
 ASP623  PHE694  ASN695  SER759  ASP760  ASP761  ALA762  ILE779  LEU786  VAL792 
 PHE793  MET794  SER795  GLU796  ALA797  LYS798  CYS799  TRP800  GLU811  SER814 

> <Gold.Protein.RotatedAtoms>
  152.3724  133.6437  159.6097 H   0  0  0  0  0  0  0  0  0  0  0  0  # atno 6907 bound_to 6896
  150.7679  133.9248  159.3418 H   0  0  0  0  0  0  0  0  0  0  0  0  # atno 6908 bound_to 6896
  151.7068  135.0921  160.0312 H   0  0  0  0  0  0  0  0  0  0  0  0  # atno 6909 bound_to 6896
  146.2283  140.2452  142.8345 H   0  0  0  0  0  0  0  0  0  0  0  0  # atno 7974 bound_to 7965
  156.2750  140.2773  156.1559 H   0  0  0  0  0  0  0  0  0  0  0  0  # atno 8008 bound_to 7997
  155.0805  140.0388  157.2655 H   0  0  0  0  0  0  0  0  0  0  0  0  # atno 8009 bound_to 7997
  154.6968  140.2641  155.6764 H   0  0  0  0  0  0  0  0  0  0  0  0  # atno 8010 bound_to 7997
  139.5689  144.1690  152.1354 H   0  0  0  0  0  0  0  0  0  0  0  0  # atno 10167 bound_to 10162
  157.3748  130.7721  149.7147 H   0  0  0  0  0  0  0  0  0  0  0  0  # atno 10718 bound_to 10713
  153.3266  135.4045  155.1461 H   0  0  0  0  0  0  0  0  0  0  0  0  # atno 10763 bound_to 10752
  154.8613  135.3600  154.5526 H   0  0  0  0  0  0  0  0  0  0  0  0  # atno 10764 bound_to 10752
  153.5962  135.7072  153.5462 H   0  0  0  0  0  0  0  0  0  0  0  0  # atno 10765 bound_to 10752
  140.0265  134.6075  155.9565 H   0  0  0  0  0  0  0  0  0  0  0  0  # atno 11005 bound_to 11000
  144.9453  140.8122  143.5605 LP  0  0  0  0  0  0  0  0  0  0  0  0  # atno 17320 bound_to 7965
  145.2408  139.2073  143.4994 LP  0  0  0  0  0  0  0  0  0  0  0  0  # atno 17321 bound_to 7965
  140.1218  144.5366  150.6858 LP  0  0  0  0  0  0  0  0  0  0  0  0  # atno 17342 bound_to 10162
  140.6973  143.2412  151.4965 LP  0  0  0  0  0  0  0  0  0  0  0  0  # atno 17343 bound_to 10162
  155.9763  130.4077  150.3789 LP  0  0  0  0  0  0  0  0  0  0  0  0  # atno 17370 bound_to 10713
  157.1885  131.0409  151.2712 LP  0  0  0  0  0  0  0  0  0  0  0  0  # atno 17371 bound_to 10713
  141.1806  133.6546  156.5004 LP  0  0  0  0  0  0  0  0  0  0  0  0  # atno 17394 bound_to 11000
  140.4297  134.7112  157.4935 LP  0  0  0  0  0  0  0  0  0  0  0  0  # atno 17395 bound_to 11000

$$$$
