AV-unprocessed.smi:573|AV-procd|sdf|2974|dock8
  -GOLD-   2262023483D 1   1.00000     0.00000
 Structure written by MMmdl.
 44 46  0  0  0  0  0  0  0  0  1 V2000
  145.8032  143.3066  153.5579 C   0  0  0  0  0  0  0  0  0  0  0  0
  146.5253  142.1848  154.3152 C   0  0  1  0  0  0  0  0  0  0  0  0
  146.0823  140.9592  153.7712 O   0  0  0  0  0  0  0  0  0  0  0  0
  148.0532  142.2808  154.1591 C   0  0  0  0  0  0  0  0  0  0  0  0
  148.7523  142.0508  155.4111 N   0  0  0  0  0  0  0  0  0  0  0  0
  149.7749  141.1806  155.7704 C   0  0  0  0  0  0  0  0  0  0  0  0
  150.3483  140.3182  154.9335 N   0  0  0  0  0  0  0  0  0  0  0  0
  151.2867  139.7045  155.7420 C   0  0  0  0  0  0  0  0  0  0  0  0
  152.2248  138.6887  155.4500 C   0  0  0  0  0  0  0  0  0  0  0  0
  153.0983  138.2144  156.4507 C   0  0  0  0  0  0  0  0  0  0  0  0
  153.0475  138.7487  157.7545 C   0  0  0  0  0  0  0  0  0  0  0  0
  152.1191  139.7600  158.0681 C   0  0  0  0  0  0  0  0  0  0  0  0
  151.2471  140.2283  157.0671 C   0  0  0  0  0  0  0  0  0  0  0  0
  150.2390  141.1877  157.0422 N   0  0  0  0  0  0  0  0  0  0  0  0
  149.7990  142.0155  158.1567 C   0  0  0  0  0  0  0  0  0  0  0  0
  150.9531  142.8352  158.7565 C   0  0  1  0  0  0  0  0  0  0  0  0
  151.5658  143.8038  157.7274 C   0  0  0  0  0  0  0  0  0  0  0  0
  152.6606  144.6580  158.3761 C   0  0  0  0  0  0  0  0  0  0  0  0
  152.1068  145.3401  159.6315 C   0  0  0  0  0  0  0  0  0  0  0  0
  151.4675  144.3008  160.5659 C   0  0  0  0  0  0  0  0  0  0  0  0
  150.4574  143.5783  159.8692 O   0  0  0  0  0  0  0  0  0  0  0  0
  146.0915  144.2860  153.9405 H   0  0  0  0  0  0  0  0  0  0  0  0
  144.7212  143.2191  153.6623 H   0  0  0  0  0  0  0  0  0  0  0  0
  146.0386  143.2841  152.4931 H   0  0  0  0  0  0  0  0  0  0  0  0
  146.2461  142.2331  155.3688 H   0  0  0  0  0  0  0  0  0  0  0  0
  145.1754  141.0553  153.5210 H   0  0  0  0  0  0  0  0  0  0  0  0
  148.4165  141.5959  153.3918 H   0  0  0  0  0  0  0  0  0  0  0  0
  148.3237  143.2853  153.8327 H   0  0  0  0  0  0  0  0  0  0  0  0
  148.4192  142.6321  156.1664 H   0  0  0  0  0  0  0  0  0  0  0  0
  152.2732  138.2745  154.4539 H   0  0  0  0  0  0  0  0  0  0  0  0
  153.8117  137.4381  156.2161 H   0  0  0  0  0  0  0  0  0  0  0  0
  153.7223  138.3820  158.5141 H   0  0  0  0  0  0  0  0  0  0  0  0
  152.0798  140.1732  159.0652 H   0  0  0  0  0  0  0  0  0  0  0  0
  148.9972  142.6718  157.8172 H   0  0  0  0  0  0  0  0  0  0  0  0
  149.3610  141.3690  158.9179 H   0  0  0  0  0  0  0  0  0  0  0  0
  151.7250  142.1478  159.1076 H   0  0  0  0  0  0  0  0  0  0  0  0
  151.9778  143.2494  156.8837 H   0  0  0  0  0  0  0  0  0  0  0  0
  150.7878  144.4540  157.3250 H   0  0  0  0  0  0  0  0  0  0  0  0
  153.5090  144.0269  158.6442 H   0  0  0  0  0  0  0  0  0  0  0  0
  153.0324  145.4012  157.6703 H   0  0  0  0  0  0  0  0  0  0  0  0
  152.9001  145.8787  160.1506 H   0  0  0  0  0  0  0  0  0  0  0  0
  151.3591  146.0813  159.3464 H   0  0  0  0  0  0  0  0  0  0  0  0
  152.2190  143.6124  160.9555 H   0  0  0  0  0  0  0  0  0  0  0  0
  151.0156  144.7974  161.4245 H   0  0  0  0  0  0  0  0  0  0  0  0
  1  2  1  0  0  0  0
  1 22  1  0  0  0  0
  1 23  1  0  0  0  0
  1 24  1  0  0  0  0
  2  3  1  0  0  0  0
  2  4  1  0  0  0  0
  2 25  1  0  0  0  0
  3 26  1  0  0  0  0
  4  5  1  0  0  0  0
  4 27  1  0  0  0  0
  4 28  1  0  0  0  0
  5  6  1  0  0  0  0
  5 29  1  0  0  0  0
  6 14  1  0  0  0  0
  6  7  2  0  0  0  0
  7  8  1  0  0  0  0
  8 13  2  0  0  0  0
  8  9  1  0  0  0  0
  9 10  2  0  0  0  0
  9 30  1  0  0  0  0
 10 11  1  0  0  0  0
 10 31  1  0  0  0  0
 11 12  2  0  0  0  0
 11 32  1  0  0  0  0
 12 13  1  0  0  0  0
 12 33  1  0  0  0  0
 13 14  1  0  0  0  0
 14 15  1  0  0  0  0
 15 16  1  0  0  0  0
 15 34  1  0  0  0  0
 15 35  1  0  0  0  0
 16 21  1  0  0  0  0
 16 17  1  0  0  0  0
 16 36  1  0  0  0  0
 17 18  1  0  0  0  0
 17 37  1  0  0  0  0
 17 38  1  0  0  0  0
 18 19  1  0  0  0  0
 18 39  1  0  0  0  0
 18 40  1  0  0  0  0
 19 20  1  0  0  0  0
 19 41  1  0  0  0  0
 19 42  1  0  0  0  0
 20 21  1  0  0  0  0
 20 43  1  0  0  0  0
 20 44  1  0  0  0  0
M  END
> <s_m_source_file>
AV-unprocessed.smi

> <i_m_source_file_index>
573

> <i_lp_mmshare_version>
43012

> <i_f3d_flags>
0

> <s_epik_input>
W0NIM11bQ0BIXShbT0hdKVtDSDJdW05IXWMobjEpbihjKGMxMilbY0hdW2NIXVtjSF1bY0hdMilbQ0gyXVtDQEBIXTNbQ0gyXVtDSDJdW0NIMl1bQ0gyXU8z

> <s_epik_cmdline>
J2VwaWtfcHl0aG9uJywgJy1waCcsICc3LjAnLCAnLXRuJywgJzgnLCAnLW1hJywgJzIwMCcsICctbWV0YWxfYmluZGluZycsICctaW1hZScsICc8aW5maWxlLm1hZT4nLCAnLW9tYWUnLCAnPG91dGZpbGUubWFlPic=

> <r_epik_Ionization_Penalty>
1.30635

> <r_epik_Ionization_Penalty_Charging>
0

> <r_epik_Ionization_Penalty_Neutral>
1.30635

> <r_epik_State_Penalty>
1.38073

> <r_epik_Charging_Adjusted_Penalty>
1.38073

> <i_epik_Tot_Q>
0

> <i_epik_Tot_abs_Q>
0

> <r_epik_Metal_State_Penalty>
0.00547412

> <b_epik_Metal_Only>
0

> <s_lp_Force_Field>
OPLS_2005

> <r_lp_Energy>
9.01344

> <b_lp_Chiralities_Consistent>
1

> <s_lp_Variant>
AV-unprocessed.smi:573-8

> <Gold.Version>
5.8.1

> <Gold.Id.Protein>
6NUR|6NUR_protein|mol2

> <Gold.PLP.Fitness>
50.6720

> <Gold.PLP.PLP>
-46.0201

> <Gold.PLP.part.hbond>
-3.6567

> <Gold.PLP.part.metal>
0.0000

> <Gold.PLP.part.buried>
-2.3505

> <Gold.PLP.part.nonpolar>
-39.4102

> <Gold.PLP.part.repulsive>
0.3175

> <Gold.PLP.ligand.clash>
0.0000

> <Gold.PLP.ligand.torsion>
0.6569

> <Gold.PLP.Chemscore.Hbond>
1.9852

> <Gold.PLP.Chemscore.CHOScore>
0.0000

> <Gold.PLP.Chemscore.Metal>
0.0000

> <Gold.Chemscore.Hbonds>
donor molecule, donor type, donor heavy atom, donor atom, acceptor molecule, acceptor atom, score
      L1  H     3    26       P1 10175  1.00
      L1  H     5    29       P1  8028  0.10
      P1  H  7989  7998       L1     7  0.85

> <Gold.PLP.Chemscore.Internal.Correction>
0.0101

> <Gold.Rescore>
     Score         DG    S(hbond)    S(metal)    S(lipo)     H(rot)  DE(clash)    DE(int)     intcor
     18.13     -18.71       1.33        0.00     119.40       2.02       0.03       0.55       ----

> <Gold.Chemscore.Fitness>
18.1305

> <Gold.Chemscore.DG>
-18.7125

> <Gold.Chemscore.ZeroCoef>
-5.4800

> <Gold.Chemscore.Hbond>
1.3295

> <Gold.Chemscore.Metal>
0.0000

> <Gold.Chemscore.Lipo>
119.3965

> <Gold.Chemscore.Internal_Hbond>
0.0000

> <Gold.Chemscore.DEClash>
0.0321

> <Gold.Chemscore.DEInternal>
0.5499

> <Gold.Chemscore.Rot>
2.0224

> <Gold.Chemscore.Internal.Correction>
   9.000000E+99

> <Gold.Chemscore.Hbonds>
donor molecule, donor type, donor heavy atom, donor atom, acceptor molecule, acceptor atom, score
      L1  H     3    26       P1 10175  0.57
      L1  H     5    29       P1  8028  0.10
      P1  H  7989  7998       L1     7  0.14

> <Gold.Chemscore.Hbond.Weighted>
-4.4404

> <Gold.Chemscore.Metal.Weighted>
-0.0000

> <Gold.Chemscore.Lipo.Weighted>
-13.9694

> <Gold.Chemscore.Internal_Hbond.Weighted>
0.0000

> <Gold.Chemscore.DEClash.Weighted>
0.0321

> <Gold.Chemscore.DEInternal.Weighted>
0.5499

> <Gold.Chemscore.Rot.Weighted>
5.1773

> <Gold.Chemscore.Internal.Correction.Weighted>
   9.000000E+99

> <Gold.Protein.RotatedTorsions>
[ 6907 6896 6895 6894 ] final  106.95 input  -60.11 | X-H torsion
[ 7974 7965 7964 7962 ] final  -47.17 input  175.53 | X-H torsion
[ 8008 7997 7996 7995 ] final   94.14 input   59.86 | X-H torsion
[ 10167 10162 10161 10158 ] final  119.35 input  -65.29 | X-H torsion
[ 10718 10713 10712 10709 ] final  -25.48 input   66.30 | X-H torsion
[ 10763 10752 10751 10750 ] final   65.57 input  -60.55 | X-H torsion
[ 11005 11000 10999 10996 ] final    2.83 input  -57.11 | X-H torsion

> <Gold.Protein.ActiveResidues>
 VAL166  LYS551  ARG553  GLY616  TRP617  ASP618  TYR619  PRO620  LYS621  CYS622 
 ASP623  PHE694  ASN695  SER759  ASP760  ASP761  ALA762  ILE779  LEU786  VAL792 
 PHE793  MET794  SER795  GLU796  ALA797  LYS798  CYS799  TRP800  GLU811  SER814 

> <Gold.Protein.RotatedAtoms>
  152.5174  133.9306  159.7578 H   0  0  0  0  0  0  0  0  0  0  0  0  # atno 6907 bound_to 6896
  150.9658  133.6388  159.2753 H   0  0  0  0  0  0  0  0  0  0  0  0  # atno 6908 bound_to 6896
  151.3617  135.0911  159.9489 H   0  0  0  0  0  0  0  0  0  0  0  0  # atno 6909 bound_to 6896
  145.9644  140.7447  142.9441 H   0  0  0  0  0  0  0  0  0  0  0  0  # atno 7974 bound_to 7965
  156.0546  140.3304  155.7390 H   0  0  0  0  0  0  0  0  0  0  0  0  # atno 8008 bound_to 7997
  155.5549  140.0613  157.2859 H   0  0  0  0  0  0  0  0  0  0  0  0  # atno 8009 bound_to 7997
  154.4452  140.1887  156.0712 H   0  0  0  0  0  0  0  0  0  0  0  0  # atno 8010 bound_to 7997
  139.6051  144.7068  151.2971 H   0  0  0  0  0  0  0  0  0  0  0  0  # atno 10167 bound_to 10162
  156.4638  130.4509  149.6912 H   0  0  0  0  0  0  0  0  0  0  0  0  # atno 10718 bound_to 10713
  153.0102  135.5352  154.6688 H   0  0  0  0  0  0  0  0  0  0  0  0  # atno 10763 bound_to 10752
  154.5878  135.2856  155.0669 H   0  0  0  0  0  0  0  0  0  0  0  0  # atno 10764 bound_to 10752
  154.1774  135.6522  153.5077 H   0  0  0  0  0  0  0  0  0  0  0  0  # atno 10765 bound_to 10752
  140.5999  133.9845  155.8127 H   0  0  0  0  0  0  0  0  0  0  0  0  # atno 11005 bound_to 11000
  144.6822  140.2644  143.7314 LP  0  0  0  0  0  0  0  0  0  0  0  0  # atno 17320 bound_to 7965
  145.7995  139.1958  143.2056 LP  0  0  0  0  0  0  0  0  0  0  0  0  # atno 17321 bound_to 7965
  140.7279  143.6950  150.7891 LP  0  0  0  0  0  0  0  0  0  0  0  0  # atno 17342 bound_to 10162
  140.0534  143.5226  152.2662 LP  0  0  0  0  0  0  0  0  0  0  0  0  # atno 17343 bound_to 10162
  156.3689  130.7520  151.2501 LP  0  0  0  0  0  0  0  0  0  0  0  0  # atno 17370 bound_to 10713
  157.7496  131.0329  150.4246 LP  0  0  0  0  0  0  0  0  0  0  0  0  # atno 17371 bound_to 10713
  141.0879  133.9962  157.3284 LP  0  0  0  0  0  0  0  0  0  0  0  0  # atno 17394 bound_to 11000
  139.9237  135.0201  156.8156 LP  0  0  0  0  0  0  0  0  0  0  0  0  # atno 17395 bound_to 11000

$$$$
