AV-unprocessed.smi:1896|AV-procd|sdf|7682|dock3
  -GOLD-   22720 9423D 1   1.00000     0.00000
 Structure written by MMmdl.
 47 48  0  0  0  0  0  0  0  0  2 V2000
  152.8598  138.0335  155.0047 C   0  0  0  0  0  0  0  0  0  0  0  0
  152.1042  139.1171  155.7198 C   0  0  0  0  0  0  0  0  0  0  0  0
  152.6118  139.6411  156.8229 N   0  0  0  0  0  0  0  0  0  0  0  0
  151.7075  140.5604  157.2158 N   0  0  0  0  0  0  0  0  0  0  0  0
  151.9570  141.3364  158.4151 C   0  0  0  0  0  0  0  0  0  0  0  0
  150.6261  140.6178  156.3585 C   0  0  0  0  0  0  0  0  0  0  0  0
  149.4850  141.5579  156.5789 C   0  0  0  0  0  0  0  0  0  0  0  0
  150.8458  139.6917  155.3736 C   0  0  0  0  0  0  0  0  0  0  0  0
  149.9705  139.3444  154.1964 C   0  0  0  0  0  0  0  0  0  0  0  0
  148.6407  138.7825  154.6981 C   0  0  0  0  0  0  0  0  0  0  0  0
  148.0403  139.3461  155.6128 O   0  0  0  0  0  0  0  0  0  0  0  0
  148.1935  137.6705  154.0927 N   0  0  0  0  0  0  0  0  0  0  0  0
  146.9788  136.9414  154.4484 C   0  0  0  0  0  0  0  0  0  0  0  0
  145.9780  136.8140  153.2704 C   0  0  2  0  0  0  0  0  0  0  0  0
  144.5238  136.6786  153.7772 C   0  0  0  0  0  0  0  0  0  0  0  0
  146.3527  135.6652  152.3946 N   0  3  0  0  0  0  0  0  0  0  0  0
  146.3685  134.3343  153.0412 C   0  0  0  0  0  0  0  0  0  0  0  0
  146.2827  133.3356  151.8932 C   0  0  0  0  0  0  0  0  0  0  0  0
  145.3373  134.0214  150.9145 C   0  0  0  0  0  0  0  0  0  0  0  0
  145.5454  135.5229  151.1556 C   0  0  0  0  0  0  0  0  0  0  0  0
  152.3699  137.0686  155.1344 H   0  0  0  0  0  0  0  0  0  0  0  0
  153.8810  137.9399  155.3762 H   0  0  0  0  0  0  0  0  0  0  0  0
  152.9170  138.2365  153.9355 H   0  0  0  0  0  0  0  0  0  0  0  0
  152.1298  142.3786  158.1465 H   0  0  0  0  0  0  0  0  0  0  0  0
  152.8324  140.9569  158.9440 H   0  0  0  0  0  0  0  0  0  0  0  0
  151.0943  141.2773  159.0790 H   0  0  0  0  0  0  0  0  0  0  0  0
  148.7373  141.4653  155.7916 H   0  0  0  0  0  0  0  0  0  0  0  0
  149.8310  142.5914  156.5913 H   0  0  0  0  0  0  0  0  0  0  0  0
  148.9926  141.3529  157.5297 H   0  0  0  0  0  0  0  0  0  0  0  0
  149.7748  140.2183  153.5740 H   0  0  0  0  0  0  0  0  0  0  0  0
  150.4480  138.6144  153.5418 H   0  0  0  0  0  0  0  0  0  0  0  0
  148.7573  137.2819  153.3501 H   0  0  0  0  0  0  0  0  0  0  0  0
  147.3064  135.9580  154.7839 H   0  0  0  0  0  0  0  0  0  0  0  0
  146.4887  137.4001  155.3091 H   0  0  0  0  0  0  0  0  0  0  0  0
  146.0358  137.7224  152.6681 H   0  0  0  0  0  0  0  0  0  0  0  0
  144.2313  137.5273  154.3943 H   0  0  0  0  0  0  0  0  0  0  0  0
  144.3963  135.7757  154.3750 H   0  0  0  0  0  0  0  0  0  0  0  0
  143.8033  136.6448  152.9605 H   0  0  0  0  0  0  0  0  0  0  0  0
  147.2639  134.1826  153.6446 H   0  0  0  0  0  0  0  0  0  0  0  0
  145.4958  134.2269  153.6879 H   0  0  0  0  0  0  0  0  0  0  0  0
  147.2651  133.2102  151.4357 H   0  0  0  0  0  0  0  0  0  0  0  0
  145.9293  132.3535  152.2093 H   0  0  0  0  0  0  0  0  0  0  0  0
  145.5265  133.7316  149.8803 H   0  0  0  0  0  0  0  0  0  0  0  0
  144.3069  133.7515  151.1503 H   0  0  0  0  0  0  0  0  0  0  0  0
  144.5757  136.0152  151.2451 H   0  0  0  0  0  0  0  0  0  0  0  0
  146.0789  135.9876  150.3257 H   0  0  0  0  0  0  0  0  0  0  0  0
  147.3016  135.8281  152.0885 H   0  0  0  0  0  0  0  0  0  0  0  0
  1  2  1  0  0  0  0
  1 21  1  0  0  0  0
  1 22  1  0  0  0  0
  1 23  1  0  0  0  0
  2  8  1  0  0  0  0
  2  3  2  0  0  0  0
  3  4  1  0  0  0  0
  4  5  1  0  0  0  0
  4  6  1  0  0  0  0
  5 24  1  0  0  0  0
  5 25  1  0  0  0  0
  5 26  1  0  0  0  0
  6  7  1  0  0  0  0
  6  8  2  0  0  0  0
  7 27  1  0  0  0  0
  7 28  1  0  0  0  0
  7 29  1  0  0  0  0
  8  9  1  0  0  0  0
  9 10  1  0  0  0  0
  9 30  1  0  0  0  0
  9 31  1  0  0  0  0
 10 11  2  0  0  0  0
 10 12  1  0  0  0  0
 12 13  1  0  0  0  0
 12 32  1  0  0  0  0
 13 14  1  0  0  0  0
 13 33  1  0  0  0  0
 13 34  1  0  0  0  0
 14 15  1  0  0  0  0
 14 16  1  0  0  0  0
 14 35  1  0  0  0  0
 15 36  1  0  0  0  0
 15 37  1  0  0  0  0
 15 38  1  0  0  0  0
 16 20  1  0  0  0  0
 16 17  1  0  0  0  0
 16 47  1  0  0  0  0
 17 18  1  0  0  0  0
 17 39  1  0  0  0  0
 17 40  1  0  0  0  0
 18 19  1  0  0  0  0
 18 41  1  0  0  0  0
 18 42  1  0  0  0  0
 19 20  1  0  0  0  0
 19 43  1  0  0  0  0
 19 44  1  0  0  0  0
 20 45  1  0  0  0  0
 20 46  1  0  0  0  0
M  CHG  1  16   1
M  END
> <s_m_source_file>
AV-unprocessed.smi

> <i_m_source_file_index>
1896

> <i_lp_mmshare_version>
43012

> <i_f3d_flags>
0

> <s_epik_input>
W0NIM11jMW5uKFtDSDNdKWMoW0NIM10pYzFbQ0gyXUMoPU8pW05IXVtDSDJdW0NASF0oW0NIM10pTjJbQ0gyXVtDSDJdW0NIMl1bQ0gyXTI=

> <s_epik_cmdline>
J2VwaWtfcHl0aG9uJywgJy1waCcsICc3LjAnLCAnLXRuJywgJzgnLCAnLW1hJywgJzIwMCcsICctbWV0YWxfYmluZGluZycsICctaW1hZScsICc8aW5maWxlLm1hZT4nLCAnLW9tYWUnLCAnPG91dGZpbGUubWFlPic=

> <r_lp_tautomer_probability>
1

> <r_epik_Ionization_Penalty>
0.00723064

> <r_epik_Ionization_Penalty_Charging>
0.0050435

> <r_epik_Ionization_Penalty_Neutral>
0.00218714

> <r_epik_State_Penalty>
-0

> <r_epik_Charging_Adjusted_Penalty>
0.0050435

> <i_epik_Tot_Q>
1

> <i_epik_Tot_abs_Q>
1

> <r_epik_Metal_State_Penalty>
-0

> <b_epik_Metal_Only>
0

> <s_lp_Force_Field>
OPLS_2005

> <r_lp_Energy>
25.1325

> <b_lp_Chiralities_Consistent>
1

> <s_lp_Variant>
AV-unprocessed.smi:1896-1

> <Gold.Version>
5.8.1

> <Gold.Id.Protein>
6NUR|6NUR_protein|mol2

> <Gold.PLP.Fitness>
44.1145

> <Gold.PLP.PLP>
-32.9982

> <Gold.PLP.part.hbond>
-3.0000

> <Gold.PLP.part.metal>
0.0000

> <Gold.PLP.part.buried>
-1.6088

> <Gold.PLP.part.nonpolar>
-27.7243

> <Gold.PLP.part.repulsive>
0.0232

> <Gold.PLP.ligand.clash>
0.0000

> <Gold.PLP.ligand.torsion>
0.4720

> <Gold.PLP.Chemscore.Hbond>
4.0000

> <Gold.PLP.Chemscore.CHOScore>
0.0000

> <Gold.PLP.Chemscore.Metal>
0.0000

> <Gold.Chemscore.Hbonds>
donor molecule, donor type, donor heavy atom, donor atom, acceptor molecule, acceptor atom, score
      L1  H    12    32       P1  7948  1.00
      L1  H    16    47       P1  7948  2.00
      P1  H  7997  8008       L1     3  1.00

> <Gold.PLP.Chemscore.Internal.Correction>
0.0603

> <Gold.Rescore>
     Score         DG    S(hbond)    S(metal)    S(lipo)     H(rot)  DE(clash)    DE(int)     intcor
     17.18     -19.93       2.89        0.00      77.03       1.65       0.17       2.58       ----

> <Gold.Chemscore.Fitness>
17.1821

> <Gold.Chemscore.DG>
-19.9336

> <Gold.Chemscore.ZeroCoef>
-5.4800

> <Gold.Chemscore.Hbond>
2.8932

> <Gold.Chemscore.Metal>
0.0000

> <Gold.Chemscore.Lipo>
77.0332

> <Gold.Chemscore.Internal_Hbond>
0.0000

> <Gold.Chemscore.DEClash>
0.1683

> <Gold.Chemscore.DEInternal>
2.5832

> <Gold.Chemscore.Rot>
1.6495

> <Gold.Chemscore.Internal.Correction>
   9.000000E+99

> <Gold.Chemscore.Hbonds>
donor molecule, donor type, donor heavy atom, donor atom, acceptor molecule, acceptor atom, score
      L1  H    12    32       P1  7948  0.97
      L1  H    16    47       P1  7948  1.00
      P1  H  7997  8008       L1     3  0.33

> <Gold.Chemscore.Hbond.Weighted>
-9.6634

> <Gold.Chemscore.Metal.Weighted>
-0.0000

> <Gold.Chemscore.Lipo.Weighted>
-9.0129

> <Gold.Chemscore.Internal_Hbond.Weighted>
0.0000

> <Gold.Chemscore.DEClash.Weighted>
0.1683

> <Gold.Chemscore.DEInternal.Weighted>
2.5832

> <Gold.Chemscore.Rot.Weighted>
4.2227

> <Gold.Chemscore.Internal.Correction.Weighted>
   9.000000E+99

> <Gold.Protein.RotatedTorsions>
[ 6907 6896 6895 6894 ] final -131.76 input  -60.11 | X-H torsion
[ 7974 7965 7964 7962 ] final  145.83 input  175.53 | X-H torsion
[ 8008 7997 7996 7995 ] final  -35.91 input   59.86 | X-H torsion
[ 10167 10162 10161 10158 ] final  -31.38 input  -65.29 | X-H torsion
[ 10718 10713 10712 10709 ] final -128.83 input   66.30 | X-H torsion
[ 10763 10752 10751 10750 ] final  -44.05 input  -60.55 | X-H torsion
[ 11005 11000 10999 10996 ] final  123.68 input  -57.11 | X-H torsion

> <Gold.Protein.ActiveResidues>
 VAL166  LYS551  ARG553  GLY616  TRP617  ASP618  TYR619  PRO620  LYS621  CYS622 
 ASP623  PHE694  ASN695  SER759  ASP760  ASP761  ALA762  ILE779  LEU786  VAL792 
 PHE793  MET794  SER795  GLU796  ALA797  LYS798  CYS799  TRP800  GLU811  SER814 

> <Gold.Protein.RotatedAtoms>
  150.9546  133.6511  159.2765 H   0  0  0  0  0  0  0  0  0  0  0  0  # atno 6907 bound_to 6896
  151.3855  135.0946  159.9519 H   0  0  0  0  0  0  0  0  0  0  0  0  # atno 6908 bound_to 6896
  152.5124  133.9072  159.7524 H   0  0  0  0  0  0  0  0  0  0  0  0  # atno 6909 bound_to 6896
  144.8720  139.5831  143.5882 H   0  0  0  0  0  0  0  0  0  0  0  0  # atno 7974 bound_to 7965
  154.4085  140.1645  156.2287 H   0  0  0  0  0  0  0  0  0  0  0  0  # atno 8008 bound_to 7997
  155.9301  140.3415  155.6219 H   0  0  0  0  0  0  0  0  0  0  0  0  # atno 8009 bound_to 7997
  155.7117  140.0757  157.2359 H   0  0  0  0  0  0  0  0  0  0  0  0  # atno 8010 bound_to 7997
  140.7237  143.3775  151.1661 H   0  0  0  0  0  0  0  0  0  0  0  0  # atno 10167 bound_to 10162
  156.1989  130.6844  151.0515 H   0  0  0  0  0  0  0  0  0  0  0  0  # atno 10718 bound_to 10713
  154.0056  135.6688  153.4762 H   0  0  0  0  0  0  0  0  0  0  0  0  # atno 10763 bound_to 10752
  153.0643  135.5010  154.8161 H   0  0  0  0  0  0  0  0  0  0  0  0  # atno 10764 bound_to 10752
  154.7026  135.3082  154.9281 H   0  0  0  0  0  0  0  0  0  0  0  0  # atno 10765 bound_to 10752
  139.9323  134.9641  156.8295 H   0  0  0  0  0  0  0  0  0  0  0  0  # atno 11005 bound_to 11000
  146.2937  139.7214  142.9142 LP  0  0  0  0  0  0  0  0  0  0  0  0  # atno 17320 bound_to 7965
  145.4112  141.0396  143.3016 LP  0  0  0  0  0  0  0  0  0  0  0  0  # atno 17321 bound_to 7965
  139.7358  143.9001  152.3034 LP  0  0  0  0  0  0  0  0  0  0  0  0  # atno 17342 bound_to 10162
  139.8805  144.7020  150.8883 LP  0  0  0  0  0  0  0  0  0  0  0  0  # atno 17343 bound_to 10162
  157.6974  131.0789  150.6927 LP  0  0  0  0  0  0  0  0  0  0  0  0  # atno 17370 bound_to 10713
  156.6985  130.4616  149.5579 LP  0  0  0  0  0  0  0  0  0  0  0  0  # atno 17371 bound_to 10713
  140.6168  134.0031  155.7600 LP  0  0  0  0  0  0  0  0  0  0  0  0  # atno 17394 bound_to 11000
  141.0919  133.9903  157.3223 LP  0  0  0  0  0  0  0  0  0  0  0  0  # atno 17395 bound_to 11000

$$$$
