AV-unprocessed.smi:2767|AV-procd|sdf|10647|dock2
  -GOLD-   2272015 93D 1   1.00000     0.00000
 Structure written by MMmdl.
 34 36  0  0  0  0  0  0  0  0  1 V2000
  143.3303  135.1409  152.8670 O   0  0  0  0  0  0  0  0  0  0  0  0
  143.4678  136.1433  152.1653 C   0  0  0  0  0  0  0  0  0  0  0  0
  144.5862  136.4171  151.4787 N   0  0  0  0  0  0  0  0  0  0  0  0
  145.7667  135.5621  151.4315 C   0  0  0  0  0  0  0  0  0  0  0  0
  145.4974  134.0622  151.4461 C   0  0  0  0  0  0  0  0  0  0  0  0
  144.3459  133.6075  150.5529 C   0  0  0  0  0  0  0  0  0  0  0  0
  144.0890  132.1334  150.3415 C   0  0  0  0  0  0  0  0  0  0  0  0
  144.5218  132.9941  149.1787 C   0  0  0  0  0  0  0  0  0  0  0  0
  146.7041  133.1469  151.5127 C   0  0  0  0  0  0  0  0  0  0  0  0
  145.8315  133.3128  152.7269 C   0  0  0  0  0  0  0  0  0  0  0  0
  142.5362  137.0943  151.9758 N   0  0  0  0  0  0  0  0  0  0  0  0
  141.2153  137.1457  152.4956 C   0  0  0  0  0  0  0  0  0  0  0  0
  140.6087  138.4219  152.4617 C   0  0  0  0  0  0  0  0  0  0  0  0
  139.2973  138.5795  152.9510 C   0  0  0  0  0  0  0  0  0  0  0  0
  138.6272  137.4540  153.4623 C   0  0  0  0  0  0  0  0  0  0  0  0
  137.3658  137.5567  153.9440 F   0  0  0  0  0  0  0  0  0  0  0  0
  139.3016  136.2190  153.4602 C   0  0  0  0  0  0  0  0  0  0  0  0
  140.5583  136.0667  152.9912 N   0  0  0  0  0  0  0  0  0  0  0  0
  144.6148  137.2632  150.9289 H   0  0  0  0  0  0  0  0  0  0  0  0
  146.3005  135.7985  150.5107 H   0  0  0  0  0  0  0  0  0  0  0  0
  146.4433  135.8289  152.2454 H   0  0  0  0  0  0  0  0  0  0  0  0
  143.4528  134.2220  150.6506 H   0  0  0  0  0  0  0  0  0  0  0  0
  144.8166  131.4305  150.7430 H   0  0  0  0  0  0  0  0  0  0  0  0
  143.0544  131.7978  150.3668 H   0  0  0  0  0  0  0  0  0  0  0  0
  143.7700  133.2286  148.4284 H   0  0  0  0  0  0  0  0  0  0  0  0
  145.5245  132.8432  148.7877 H   0  0  0  0  0  0  0  0  0  0  0  0
  146.6511  132.1955  150.9872 H   0  0  0  0  0  0  0  0  0  0  0  0
  147.6903  133.6064  151.5388 H   0  0  0  0  0  0  0  0  0  0  0  0
  146.2408  133.8850  153.5572 H   0  0  0  0  0  0  0  0  0  0  0  0
  145.2122  132.4707  153.0234 H   0  0  0  0  0  0  0  0  0  0  0  0
  142.7969  137.8629  151.3759 H   0  0  0  0  0  0  0  0  0  0  0  0
  141.1394  139.2753  152.0650 H   0  0  0  0  0  0  0  0  0  0  0  0
  138.8158  139.5460  152.9335 H   0  0  0  0  0  0  0  0  0  0  0  0
  138.8216  135.3310  153.8441 H   0  0  0  0  0  0  0  0  0  0  0  0
  1  2  2  0  0  0  0
  2  3  1  0  0  0  0
  2 11  1  0  0  0  0
  3  4  1  0  0  0  0
  3 19  1  0  0  0  0
  4  5  1  0  0  0  0
  4 20  1  0  0  0  0
  4 21  1  0  0  0  0
  5 10  1  0  0  0  0
  5  6  1  0  0  0  0
  5  9  1  0  0  0  0
  6  8  1  0  0  0  0
  6  7  1  0  0  0  0
  6 22  1  0  0  0  0
  7  8  1  0  0  0  0
  7 23  1  0  0  0  0
  7 24  1  0  0  0  0
  8 25  1  0  0  0  0
  8 26  1  0  0  0  0
  9 10  1  0  0  0  0
  9 27  1  0  0  0  0
  9 28  1  0  0  0  0
 10 29  1  0  0  0  0
 10 30  1  0  0  0  0
 11 12  1  0  0  0  0
 11 31  1  0  0  0  0
 12 18  1  0  0  0  0
 12 13  2  0  0  0  0
 13 14  1  0  0  0  0
 13 32  1  0  0  0  0
 14 15  2  0  0  0  0
 14 33  1  0  0  0  0
 15 16  1  0  0  0  0
 15 17  1  0  0  0  0
 17 18  2  0  0  0  0
 17 34  1  0  0  0  0
M  END
> <s_m_source_file>
AV-unprocessed.smi

> <i_m_source_file_index>
2767

> <i_lp_mmshare_version>
43012

> <i_f3d_flags>
0

> <s_epik_input>
W0NIMl0xW0NIMl1bQ0hdMUMyKFtDSDJdW0NIMl0yKVtDSDJdW05IXUMoPU8pW05IXWMzW2NIXVtjSF1jKEYpW2NIXW4z

> <s_epik_cmdline>
J2VwaWtfcHl0aG9uJywgJy1waCcsICc3LjAnLCAnLXRuJywgJzgnLCAnLW1hJywgJzIwMCcsICctbWV0YWxfYmluZGluZycsICctaW1hZScsICc8aW5maWxlLm1hZT4nLCAnLW9tYWUnLCAnPG91dGZpbGUubWFlPic=

> <r_lp_tautomer_probability>
1

> <r_epik_Ionization_Penalty>
3.94364e-05

> <r_epik_Ionization_Penalty_Charging>
0

> <r_epik_Ionization_Penalty_Neutral>
3.94364e-05

> <r_epik_State_Penalty>
-0

> <r_epik_Charging_Adjusted_Penalty>
0

> <i_epik_Tot_Q>
0

> <i_epik_Tot_abs_Q>
0

> <r_epik_Metal_State_Penalty>
-0

> <b_epik_Metal_Only>
0

> <s_lp_Force_Field>
OPLS_2005

> <r_lp_Energy>
31.6765

> <b_lp_Chiralities_Consistent>
1

> <s_lp_Variant>
AV-unprocessed.smi:2767-1

> <Gold.Version>
5.8.1

> <Gold.Id.Protein>
6NUR|6NUR_protein|mol2

> <Gold.PLP.Fitness>
38.8828

> <Gold.PLP.PLP>
-30.7168

> <Gold.PLP.part.hbond>
-2.2605

> <Gold.PLP.part.metal>
0.0000

> <Gold.PLP.part.buried>
-0.3340

> <Gold.PLP.part.nonpolar>
-27.4243

> <Gold.PLP.part.repulsive>
0.2729

> <Gold.PLP.ligand.clash>
0.0000

> <Gold.PLP.ligand.torsion>
1.6789

> <Gold.PLP.Chemscore.Hbond>
1.9920

> <Gold.PLP.Chemscore.CHOScore>
1.0000

> <Gold.PLP.Chemscore.Metal>
0.0000

> <Gold.Chemscore.Hbonds>
donor molecule, donor type, donor heavy atom, donor atom, acceptor molecule, acceptor atom, score
      L1  H     3    19       P1 10171  1.00
      L1  H    11    31       P1 10171  0.85

> <Gold.PLP.Chemscore.Internal.Correction>
2.5478

> <Gold.Rescore>
     Score         DG    S(hbond)    S(metal)    S(lipo)     H(rot)  DE(clash)    DE(int)     intcor
      9.52     -15.45       1.51        0.00      73.94       1.46       0.45       5.47       ----

> <Gold.Chemscore.Fitness>
9.5216

> <Gold.Chemscore.DG>
-15.4468

> <Gold.Chemscore.ZeroCoef>
-5.4800

> <Gold.Chemscore.Hbond>
1.5137

> <Gold.Chemscore.Metal>
0.0000

> <Gold.Chemscore.Lipo>
73.9359

> <Gold.Chemscore.Internal_Hbond>
0.0000

> <Gold.Chemscore.DEClash>
0.4527

> <Gold.Chemscore.DEInternal>
5.4725

> <Gold.Chemscore.Rot>
1.4608

> <Gold.Chemscore.Internal.Correction>
   9.000000E+99

> <Gold.Chemscore.Hbonds>
donor molecule, donor type, donor heavy atom, donor atom, acceptor molecule, acceptor atom, score
      L1  H     3    19       P1 10171  0.97
      L1  H    11    31       P1 10171  0.14

> <Gold.Chemscore.Hbond.Weighted>
-5.0559

> <Gold.Chemscore.Metal.Weighted>
-0.0000

> <Gold.Chemscore.Lipo.Weighted>
-8.6505

> <Gold.Chemscore.Internal_Hbond.Weighted>
0.0000

> <Gold.Chemscore.DEClash.Weighted>
0.4527

> <Gold.Chemscore.DEInternal.Weighted>
5.4725

> <Gold.Chemscore.Rot.Weighted>
3.7396

> <Gold.Chemscore.Internal.Correction.Weighted>
   9.000000E+99

> <Gold.Protein.RotatedTorsions>
[ 6907 6896 6895 6894 ] final -106.46 input  -60.11 | X-H torsion
[ 7974 7965 7964 7962 ] final  -49.41 input  175.53 | X-H torsion
[ 8008 7997 7996 7995 ] final  110.31 input   59.86 | X-H torsion
[ 10167 10162 10161 10158 ] final   52.05 input  -65.29 | X-H torsion
[ 10718 10713 10712 10709 ] final -102.66 input   66.30 | X-H torsion
[ 10763 10752 10751 10750 ] final   10.23 input  -60.55 | X-H torsion
[ 11005 11000 10999 10996 ] final -136.98 input  -57.11 | X-H torsion

> <Gold.Protein.ActiveResidues>
 VAL166  LYS551  ARG553  GLY616  TRP617  ASP618  TYR619  PRO620  LYS621  CYS622 
 ASP623  PHE694  ASN695  SER759  ASP760  ASP761  ALA762  ILE779  LEU786  VAL792 
 PHE793  MET794  SER795  GLU796  ALA797  LYS798  CYS799  TRP800  GLU811  SER814 

> <Gold.Protein.RotatedAtoms>
  150.7390  133.9973  159.3626 H   0  0  0  0  0  0  0  0  0  0  0  0  # atno 6907 bound_to 6896
  151.7924  135.0730  160.0398 H   0  0  0  0  0  0  0  0  0  0  0  0  # atno 6908 bound_to 6896
  152.3198  133.5805  159.5773 H   0  0  0  0  0  0  0  0  0  0  0  0  # atno 6909 bound_to 6896
  145.9408  140.7664  142.9553 H   0  0  0  0  0  0  0  0  0  0  0  0  # atno 7974 bound_to 7965
  156.2044  140.3041  155.9594 H   0  0  0  0  0  0  0  0  0  0  0  0  # atno 8008 bound_to 7997
  155.2878  140.0440  157.3037 H   0  0  0  0  0  0  0  0  0  0  0  0  # atno 8009 bound_to 7997
  154.5613  140.2321  155.8340 H   0  0  0  0  0  0  0  0  0  0  0  0  # atno 8010 bound_to 7997
  140.2555  144.3432  150.6334 H   0  0  0  0  0  0  0  0  0  0  0  0  # atno 10167 bound_to 10162
  156.0237  130.5430  150.7140 H   0  0  0  0  0  0  0  0  0  0  0  0  # atno 10718 bound_to 10713
  153.2054  135.6862  153.8179 H   0  0  0  0  0  0  0  0  0  0  0  0  # atno 10763 bound_to 10752
  153.7430  135.3235  155.3308 H   0  0  0  0  0  0  0  0  0  0  0  0  # atno 10764 bound_to 10752
  154.8194  135.4663  154.0839 H   0  0  0  0  0  0  0  0  0  0  0  0  # atno 10765 bound_to 10752
  140.8754  134.1999  157.4625 H   0  0  0  0  0  0  0  0  0  0  0  0  # atno 11005 bound_to 11000
  144.6779  140.2277  143.7359 LP  0  0  0  0  0  0  0  0  0  0  0  0  # atno 17320 bound_to 7965
  145.8302  139.2082  143.1887 LP  0  0  0  0  0  0  0  0  0  0  0  0  # atno 17321 bound_to 7965
  140.6007  143.2167  151.7077 LP  0  0  0  0  0  0  0  0  0  0  0  0  # atno 17342 bound_to 10162
  139.5033  144.3797  152.0388 LP  0  0  0  0  0  0  0  0  0  0  0  0  # atno 17343 bound_to 10162
  157.4772  131.0899  151.0577 LP  0  0  0  0  0  0  0  0  0  0  0  0  # atno 17370 bound_to 10713
  157.1021  130.5986  149.5462 LP  0  0  0  0  0  0  0  0  0  0  0  0  # atno 17371 bound_to 10713
  139.8715  134.9793  156.5032 LP  0  0  0  0  0  0  0  0  0  0  0  0  # atno 17394 bound_to 11000
  140.8524  133.8122  155.9182 LP  0  0  0  0  0  0  0  0  0  0  0  0  # atno 17395 bound_to 11000

$$$$
