AV-unprocessed.smi:160|AV-procd|sdf|1358|dock9
  -GOLD-   2262019 63D 1   1.00000     0.00000
 Structure written by MMmdl.
 29 30  0  0  0  0  0  0  0  0  1 V2000
  154.8509  138.0206  158.8008 N   0  0  0  0  0  0  0  0  0  0  0  0
  153.6248  137.5222  158.9904 C   0  0  0  0  0  0  0  0  0  0  0  0
  153.4160  136.5395  159.7001 O   0  0  0  0  0  0  0  0  0  0  0  0
  152.5031  138.2299  158.2818 C   0  0  0  0  0  0  0  0  0  0  0  0
  151.2008  137.8738  158.4896 N   0  0  0  0  0  0  0  0  0  0  0  0
  150.6136  138.7516  157.6862 C   0  0  0  0  0  0  0  0  0  0  0  0
  151.4638  139.5564  157.0410 N   0  0  0  0  0  0  0  0  0  0  0  0
  151.1915  140.6787  156.0931 C   0  0  1  0  0  0  0  0  0  0  0  0
  150.5953  140.1238  154.9578 O   0  0  0  0  0  0  0  0  0  0  0  0
  149.3525  140.7618  154.6726 C   0  0  1  0  0  0  0  0  0  0  0  0
  148.3881  139.7489  154.0361 C   0  0  0  0  0  0  0  0  0  0  0  0
  149.1102  138.7914  153.2919 O   0  0  0  0  0  0  0  0  0  0  0  0
  148.8910  141.2669  156.0406 C   0  0  2  0  0  0  0  0  0  0  0  0
  147.9534  142.3247  155.9630 O   0  0  0  0  0  0  0  0  0  0  0  0
  150.1997  141.6812  156.7019 C   0  0  2  0  0  0  0  0  0  0  0  0
  150.5740  143.0101  156.3880 O   0  0  0  0  0  0  0  0  0  0  0  0
  152.7224  139.2345  157.4316 N   0  0  0  0  0  0  0  0  0  0  0  0
  152.1740  141.0996  155.8740 H   0  0  0  0  0  0  0  0  0  0  0  0
  149.5327  141.6121  154.0117 H   0  0  0  0  0  0  0  0  0  0  0  0
  148.4459  140.4454  156.6036 H   0  0  0  0  0  0  0  0  0  0  0  0
  150.1582  141.5884  157.7883 H   0  0  0  0  0  0  0  0  0  0  0  0
  155.6446  137.5901  159.2523 H   0  0  0  0  0  0  0  0  0  0  0  0
  154.9739  138.8281  158.2075 H   0  0  0  0  0  0  0  0  0  0  0  0
  149.5416  138.8100  157.5671 H   0  0  0  0  0  0  0  0  0  0  0  0
  147.7730  139.2593  154.7920 H   0  0  0  0  0  0  0  0  0  0  0  0
  147.7120  140.2550  153.3464 H   0  0  0  0  0  0  0  0  0  0  0  0
  149.2670  139.1381  152.4268 H   0  0  0  0  0  0  0  0  0  0  0  0
  148.4148  143.1434  156.0615 H   0  0  0  0  0  0  0  0  0  0  0  0
  149.7862  143.5166  156.2597 H   0  0  0  0  0  0  0  0  0  0  0  0
  1  2  1  0  0  0  0
  1 22  1  0  0  0  0
  1 23  1  0  0  0  0
  2  3  2  0  0  0  0
  2  4  1  0  0  0  0
  4 17  2  0  0  0  0
  4  5  1  0  0  0  0
  5  6  2  0  0  0  0
  6  7  1  0  0  0  0
  6 24  1  0  0  0  0
  7  8  1  0  0  0  0
  7 17  1  0  0  0  0
  8 18  1  0  0  0  0
  8 15  1  0  0  0  0
  8  9  1  0  0  0  0
  9 10  1  0  0  0  0
 10 19  1  0  0  0  0
 10 11  1  0  0  0  0
 10 13  1  0  0  0  0
 11 12  1  0  0  0  0
 11 25  1  0  0  0  0
 11 26  1  0  0  0  0
 12 27  1  0  0  0  0
 13 20  1  0  0  0  0
 13 14  1  0  0  0  0
 13 15  1  0  0  0  0
 14 28  1  0  0  0  0
 15 21  1  0  0  0  0
 15 16  1  0  0  0  0
 16 29  1  0  0  0  0
M  END
> <s_m_source_file>
AV-unprocessed.smi

> <i_m_source_file_index>
160

> <i_lp_mmshare_version>
43012

> <i_f3d_flags>
0

> <s_epik_input>
W05IMl1DKD1PKWMxbltjSF1uKG4xKVtDQEBIXTJPW0NASF0oW0NIMl1bT0hdKVtDQEBIXShbT0hdKVtDQEhdMltPSF0=

> <s_epik_cmdline>
J2VwaWtfcHl0aG9uJywgJy1waCcsICc3LjAnLCAnLXRuJywgJzgnLCAnLW1hJywgJzIwMCcsICctbWV0YWxfYmluZGluZycsICctaW1hZScsICc8aW5maWxlLm1hZT4nLCAnLW9tYWUnLCAnPG91dGZpbGUubWFlPic=

> <r_lp_tautomer_probability>
1

> <r_epik_Ionization_Penalty>
1.06932e-05

> <r_epik_Ionization_Penalty_Charging>
0

> <r_epik_Ionization_Penalty_Neutral>
1.06932e-05

> <r_epik_State_Penalty>
-0

> <r_epik_Charging_Adjusted_Penalty>
0

> <i_epik_Tot_Q>
0

> <i_epik_Tot_abs_Q>
0

> <r_epik_Metal_State_Penalty>
0.0142097

> <b_epik_Metal_Only>
0

> <s_epik_Chemistry_Notes>
This compound contains an acetal/aminal-like group ( X-CH(R)-Y where X, Y are N, S, or O) that may be acid/base labile, releasing an aldehyde.

> <s_lp_Force_Field>
OPLS_2005

> <r_lp_Energy>
39.0504

> <b_lp_Chiralities_Consistent>
1

> <s_lp_Variant>
AV-unprocessed.smi:160-16

> <Gold.Version>
5.8.1

> <Gold.Id.Protein>
6NUR|6NUR_protein|mol2

> <Gold.PLP.Fitness>
40.5265

> <Gold.PLP.PLP>
-23.4775

> <Gold.PLP.part.hbond>
-6.6526

> <Gold.PLP.part.metal>
0.0000

> <Gold.PLP.part.buried>
-4.5697

> <Gold.PLP.part.nonpolar>
-13.5884

> <Gold.PLP.part.repulsive>
0.1444

> <Gold.PLP.ligand.clash>
0.0000

> <Gold.PLP.ligand.torsion>
0.4742

> <Gold.PLP.Chemscore.Hbond>
5.9913

> <Gold.PLP.Chemscore.CHOScore>
0.0000

> <Gold.PLP.Chemscore.Metal>
0.0000

> <Gold.Chemscore.Hbonds>
donor molecule, donor type, donor heavy atom, donor atom, acceptor molecule, acceptor atom, score
      L1  H    12    27       P1  7957  1.00
      L1  H    14    28       P1  8028  1.00
      L1  H    16    29       P1  8028  1.00
      P1  H  6896  6909       L1     3  0.99
      P1  H  7989  7998       L1     9  0.90
      P1  H  7997  8009       L1    17  0.99

> <Gold.PLP.Chemscore.Internal.Correction>
0.0236

> <Gold.Rescore>
     Score         DG    S(hbond)    S(metal)    S(lipo)     H(rot)  DE(clash)    DE(int)     intcor
     13.81     -14.56       4.92        0.00      25.93       4.06       0.18       0.56       ----

> <Gold.Chemscore.Fitness>
13.8133

> <Gold.Chemscore.DG>
-14.5588

> <Gold.Chemscore.ZeroCoef>
-5.4800

> <Gold.Chemscore.Hbond>
4.9218

> <Gold.Chemscore.Metal>
0.0000

> <Gold.Chemscore.Lipo>
25.9277

> <Gold.Chemscore.Internal_Hbond>
0.0000

> <Gold.Chemscore.DEClash>
0.1828

> <Gold.Chemscore.DEInternal>
0.5628

> <Gold.Chemscore.Rot>
4.0600

> <Gold.Chemscore.Internal.Correction>
   9.000000E+99

> <Gold.Chemscore.Hbonds>
donor molecule, donor type, donor heavy atom, donor atom, acceptor molecule, acceptor atom, score
      L1  H    12    27       P1  7957  0.96
      L1  H    14    28       P1  8028  0.89
      L1  H    16    29       P1  8028  0.97
      P1  H  6896  6909       L1     3  0.92
      P1  H  7989  7998       L1     9  0.07
      P1  H  7997  8009       L1    17  0.92

> <Gold.Chemscore.Hbond.Weighted>
-16.4389

> <Gold.Chemscore.Metal.Weighted>
-0.0000

> <Gold.Chemscore.Lipo.Weighted>
-3.0335

> <Gold.Chemscore.Internal_Hbond.Weighted>
0.0000

> <Gold.Chemscore.DEClash.Weighted>
0.1828

> <Gold.Chemscore.DEInternal.Weighted>
0.5628

> <Gold.Chemscore.Rot.Weighted>
10.3936

> <Gold.Chemscore.Internal.Correction.Weighted>
   9.000000E+99

> <Gold.Protein.RotatedTorsions>
[ 6907 6896 6895 6894 ] final  156.61 input  -60.11 | X-H torsion
[ 7974 7965 7964 7962 ] final -168.94 input  175.53 | X-H torsion
[ 8008 7997 7996 7995 ] final  160.16 input   59.86 | X-H torsion
[ 10167 10162 10161 10158 ] final  -54.59 input  -65.29 | X-H torsion
[ 10718 10713 10712 10709 ] final   -1.03 input   66.30 | X-H torsion
[ 10763 10752 10751 10750 ] final   92.71 input  -60.55 | X-H torsion
[ 11005 11000 10999 10996 ] final  -45.56 input  -57.11 | X-H torsion

> <Gold.Protein.ActiveResidues>
 VAL166  LYS551  ARG553  GLY616  TRP617  ASP618  TYR619  PRO620  LYS621  CYS622 
 ASP623  PHE694  ASN695  SER759  ASP760  ASP761  ALA762  ILE779  LEU786  VAL792 
 PHE793  MET794  SER795  GLU796  ALA797  LYS798  CYS799  TRP800  GLU811  SER814 

> <Gold.Protein.RotatedAtoms>
  152.0271  133.3922  159.4281 H   0  0  0  0  0  0  0  0  0  0  0  0  # atno 6907 bound_to 6896
  150.6885  134.3562  159.4939 H   0  0  0  0  0  0  0  0  0  0  0  0  # atno 6908 bound_to 6896
  152.1343  134.9111  160.0608 H   0  0  0  0  0  0  0  0  0  0  0  0  # atno 6909 bound_to 6896
  144.7194  140.2295  143.6306 H   0  0  0  0  0  0  0  0  0  0  0  0  # atno 7974 bound_to 7965
  156.2191  140.1812  156.7520 H   0  0  0  0  0  0  0  0  0  0  0  0  # atno 8008 bound_to 7997
  154.5837  140.0662  156.9169 H   0  0  0  0  0  0  0  0  0  0  0  0  # atno 8009 bound_to 7997
  155.2457  140.3325  155.4290 H   0  0  0  0  0  0  0  0  0  0  0  0  # atno 8010 bound_to 7997
  140.6422  143.2514  151.4959 H   0  0  0  0  0  0  0  0  0  0  0  0  # atno 10167 bound_to 10162
  156.8117  130.5427  149.5708 H   0  0  0  0  0  0  0  0  0  0  0  0  # atno 10718 bound_to 10713
  153.2222  135.4351  155.0502 H   0  0  0  0  0  0  0  0  0  0  0  0  # atno 10763 bound_to 10752
  154.8256  135.3359  154.6910 H   0  0  0  0  0  0  0  0  0  0  0  0  # atno 10764 bound_to 10752
  153.7341  135.7009  153.5038 H   0  0  0  0  0  0  0  0  0  0  0  0  # atno 10765 bound_to 10752
  141.0523  133.6738  156.3031 H   0  0  0  0  0  0  0  0  0  0  0  0  # atno 11005 bound_to 11000
  145.8424  139.2136  143.1820 LP  0  0  0  0  0  0  0  0  0  0  0  0  # atno 17320 bound_to 7965
  146.0334  140.8235  142.9864 LP  0  0  0  0  0  0  0  0  0  0  0  0  # atno 17321 bound_to 7965
  139.5631  144.2108  152.1723 LP  0  0  0  0  0  0  0  0  0  0  0  0  # atno 17342 bound_to 10162
  140.1381  144.5227  150.6761 LP  0  0  0  0  0  0  0  0  0  0  0  0  # atno 17343 bound_to 10162
  156.1040  130.5991  150.9941 LP  0  0  0  0  0  0  0  0  0  0  0  0  # atno 17370 bound_to 10713
  157.6502  131.0898  150.8066 LP  0  0  0  0  0  0  0  0  0  0  0  0  # atno 17371 bound_to 10713
  140.6031  134.5535  157.5521 LP  0  0  0  0  0  0  0  0  0  0  0  0  # atno 17394 bound_to 11000
  139.9361  134.7873  156.0800 LP  0  0  0  0  0  0  0  0  0  0  0  0  # atno 17395 bound_to 11000

$$$$
