AV-unprocessed.smi:1999|AV-procd|sdf|8097|dock9
  -GOLD-   2272010313D 1   1.00000     0.00000
 Structure written by MMmdl.
 37 38  0  0  0  0  0  0  0  0  2 V2000
  142.9623  134.7749  152.5942 C   0  0  0  0  0  0  0  0  0  0  0  0
  144.1151  135.6395  152.2144 C   0  0  0  0  0  0  0  0  0  0  0  0
  145.0075  135.2876  151.2857 N   0  0  0  0  0  0  0  0  0  0  0  0
  145.9883  136.2532  151.1111 N   0  0  0  0  0  0  0  0  0  0  0  0
  145.8297  137.3154  151.9136 C   0  0  0  0  0  0  0  0  0  0  0  0
  146.6712  138.3622  151.8975 N   0  5  0  0  0  0  0  0  0  0  0  0
  146.8052  139.1384  152.9972 C   0  0  0  0  0  0  0  0  0  0  0  0
  146.1294  139.0688  154.0264 O   0  0  0  0  0  0  0  0  0  0  0  0
  147.7823  140.0512  152.8974 N   0  0  0  0  0  0  0  0  0  0  0  0
  148.1507  141.0380  153.9115 C   0  0  1  0  0  0  0  0  0  0  0  0
  147.0909  142.1488  153.9750 C   0  0  0  0  0  0  0  0  0  0  0  0
  148.3170  140.3474  155.2810 C   0  0  0  0  0  0  0  0  0  0  0  0
  149.6682  139.8805  155.5989 N   0  0  0  0  0  0  0  0  0  0  0  0
  150.3622  139.3208  154.4412 C   0  0  0  0  0  0  0  0  0  0  0  0
  151.7874  138.8604  154.7946 C   0  0  0  0  0  0  0  0  0  0  0  0
  152.5190  139.9463  155.3544 O   0  0  0  0  0  0  0  0  0  0  0  0
  151.8961  140.4847  156.5159 C   0  0  0  0  0  0  0  0  0  0  0  0
  150.4747  140.9560  156.1646 C   0  0  0  0  0  0  0  0  0  0  0  0
  144.4115  137.2030  152.9558 S   0  0  0  0  0  0  0  0  0  0  0  0
  143.2767  134.0408  153.3361 H   0  0  0  0  0  0  0  0  0  0  0  0
  142.5779  134.2493  151.7196 H   0  0  0  0  0  0  0  0  0  0  0  0
  142.1600  135.3798  153.0170 H   0  0  0  0  0  0  0  0  0  0  0  0
  148.3050  140.0735  152.0342 H   0  0  0  0  0  0  0  0  0  0  0  0
  149.0978  141.5035  153.6375 H   0  0  0  0  0  0  0  0  0  0  0  0
  147.3538  142.8978  154.7223 H   0  0  0  0  0  0  0  0  0  0  0  0
  146.1104  141.7481  154.2345 H   0  0  0  0  0  0  0  0  0  0  0  0
  146.9978  142.6610  153.0168 H   0  0  0  0  0  0  0  0  0  0  0  0
  147.9721  141.0213  156.0666 H   0  0  0  0  0  0  0  0  0  0  0  0
  147.6390  139.4930  155.3057 H   0  0  0  0  0  0  0  0  0  0  0  0
  149.8128  138.4668  154.0466 H   0  0  0  0  0  0  0  0  0  0  0  0
  150.4087  140.0620  153.6422 H   0  0  0  0  0  0  0  0  0  0  0  0
  151.7592  138.0296  155.5015 H   0  0  0  0  0  0  0  0  0  0  0  0
  152.3032  138.5050  153.9026 H   0  0  0  0  0  0  0  0  0  0  0  0
  151.8701  139.7331  157.3065 H   0  0  0  0  0  0  0  0  0  0  0  0
  152.4919  141.3190  156.8861 H   0  0  0  0  0  0  0  0  0  0  0  0
  150.5351  141.7848  155.4573 H   0  0  0  0  0  0  0  0  0  0  0  0
  149.9939  141.3463  157.0622 H   0  0  0  0  0  0  0  0  0  0  0  0
  1  2  1  0  0  0  0
  1 20  1  0  0  0  0
  1 21  1  0  0  0  0
  1 22  1  0  0  0  0
  2 19  1  0  0  0  0
  2  3  2  0  0  0  0
  3  4  1  0  0  0  0
  4  5  2  0  0  0  0
  5  6  1  0  0  0  0
  5 19  1  0  0  0  0
  6  7  1  0  0  0  0
  7  8  2  0  0  0  0
  7  9  1  0  0  0  0
  9 10  1  0  0  0  0
  9 23  1  0  0  0  0
 10 11  1  0  0  0  0
 10 12  1  0  0  0  0
 10 24  1  0  0  0  0
 11 25  1  0  0  0  0
 11 26  1  0  0  0  0
 11 27  1  0  0  0  0
 12 13  1  0  0  0  0
 12 28  1  0  0  0  0
 12 29  1  0  0  0  0
 13 18  1  0  0  0  0
 13 14  1  0  0  0  0
 14 15  1  0  0  0  0
 14 30  1  0  0  0  0
 14 31  1  0  0  0  0
 15 16  1  0  0  0  0
 15 32  1  0  0  0  0
 15 33  1  0  0  0  0
 16 17  1  0  0  0  0
 17 18  1  0  0  0  0
 17 34  1  0  0  0  0
 17 35  1  0  0  0  0
 18 36  1  0  0  0  0
 18 37  1  0  0  0  0
M  CHG  1   6  -1
M  END
> <s_m_source_file>
AV-unprocessed.smi

> <i_m_source_file_index>
1999

> <i_lp_mmshare_version>
43012

> <i_f3d_flags>
0

> <s_epik_input>
W0NIM11jMW5uYyhzMSlbTkhdQyg9TylbTkhdW0NASF0oW0NIM10pW0NIMl1OMltDSDJdW0NIMl1PW0NIMl1bQ0gyXTI=

> <s_epik_cmdline>
J2VwaWtfcHl0aG9uJywgJy1waCcsICc3LjAnLCAnLXRuJywgJzgnLCAnLW1hJywgJzIwMCcsICctbWV0YWxfYmluZGluZycsICctaW1hZScsICc8aW5maWxlLm1hZT4nLCAnLW9tYWUnLCAnPG91dGZpbGUubWFlPic=

> <r_lp_tautomer_probability>
1

> <r_epik_Ionization_Penalty>
3.74165

> <r_epik_Ionization_Penalty_Charging>
3.28066

> <r_epik_Ionization_Penalty_Neutral>
0.460988

> <r_epik_State_Penalty>
3.48767

> <r_epik_Charging_Adjusted_Penalty>
6.76834

> <i_epik_Tot_Q>
-1

> <i_epik_Tot_abs_Q>
1

> <r_epik_Metal_State_Penalty>
0.700129

> <b_epik_Metal_Only>
1

> <s_lp_Force_Field>
OPLS_2005

> <r_lp_Energy>
23.1918

> <b_lp_Chiralities_Consistent>
1

> <s_lp_Variant>
AV-unprocessed.smi:1999-6

> <Gold.Version>
5.8.1

> <Gold.Id.Protein>
6NUR|6NUR_protein|mol2

> <Gold.PLP.Fitness>
35.8086

> <Gold.PLP.PLP>
-31.8762

> <Gold.PLP.part.hbond>
-2.9404

> <Gold.PLP.part.metal>
0.0000

> <Gold.PLP.part.buried>
-5.3604

> <Gold.PLP.part.nonpolar>
-25.4378

> <Gold.PLP.part.repulsive>
1.4200

> <Gold.PLP.ligand.clash>
0.0000

> <Gold.PLP.ligand.torsion>
0.9413

> <Gold.PLP.Chemscore.Hbond>
1.9108

> <Gold.PLP.Chemscore.CHOScore>
0.0000

> <Gold.PLP.Chemscore.Metal>
0.0000

> <Gold.Chemscore.Hbonds>
donor molecule, donor type, donor heavy atom, donor atom, acceptor molecule, acceptor atom, score
      L1  H     9    23       P1  7957  1.00
      P1  H  7997  8010       L1    16  0.99

> <Gold.PLP.Chemscore.Internal.Correction>
0.0826

> <Gold.Rescore>
     Score         DG    S(hbond)    S(metal)    S(lipo)     H(rot)  DE(clash)    DE(int)     intcor
      9.16     -14.39       1.93        0.00      55.22       1.56       1.39       3.84       ----

> <Gold.Chemscore.Fitness>
9.1630

> <Gold.Chemscore.DG>
-14.3911

> <Gold.Chemscore.ZeroCoef>
-5.4800

> <Gold.Chemscore.Hbond>
1.9260

> <Gold.Chemscore.Metal>
0.0000

> <Gold.Chemscore.Lipo>
55.2179

> <Gold.Chemscore.Internal_Hbond>
0.0000

> <Gold.Chemscore.DEClash>
1.3865

> <Gold.Chemscore.DEInternal>
3.8416

> <Gold.Chemscore.Rot>
1.5556

> <Gold.Chemscore.Internal.Correction>
   9.000000E+99

> <Gold.Chemscore.Hbonds>
donor molecule, donor type, donor heavy atom, donor atom, acceptor molecule, acceptor atom, score
      L1  H     9    23       P1  7957  0.94
      P1  H  7997  8010       L1    16  0.23

> <Gold.Chemscore.Hbond.Weighted>
-6.4329

> <Gold.Chemscore.Metal.Weighted>
-0.0000

> <Gold.Chemscore.Lipo.Weighted>
-6.4605

> <Gold.Chemscore.Internal_Hbond.Weighted>
0.0000

> <Gold.Chemscore.DEClash.Weighted>
1.3865

> <Gold.Chemscore.DEInternal.Weighted>
3.8416

> <Gold.Chemscore.Rot.Weighted>
3.9823

> <Gold.Chemscore.Internal.Correction.Weighted>
   9.000000E+99

> <Gold.Protein.RotatedTorsions>
[ 6907 6896 6895 6894 ] final  -22.74 input  -60.11 | X-H torsion
[ 7974 7965 7964 7962 ] final   57.44 input  175.53 | X-H torsion
[ 8008 7997 7996 7995 ] final  108.00 input   59.86 | X-H torsion
[ 10167 10162 10161 10158 ] final   -2.50 input  -65.29 | X-H torsion
[ 10718 10713 10712 10709 ] final   24.43 input   66.30 | X-H torsion
[ 10763 10752 10751 10750 ] final  166.38 input  -60.55 | X-H torsion
[ 11005 11000 10999 10996 ] final -173.51 input  -57.11 | X-H torsion

> <Gold.Protein.ActiveResidues>
 VAL166  LYS551  ARG553  GLY616  TRP617  ASP618  TYR619  PRO620  LYS621  CYS622 
 ASP623  PHE694  ASN695  SER759  ASP760  ASP761  ALA762  ILE779  LEU786  VAL792 
 PHE793  MET794  SER795  GLU796  ALA797  LYS798  CYS799  TRP800  GLU811  SER814 

> <Gold.Protein.RotatedAtoms>
  151.2142  135.0493  159.8923 H   0  0  0  0  0  0  0  0  0  0  0  0  # atno 6907 bound_to 6896
  152.5422  134.0711  159.8205 H   0  0  0  0  0  0  0  0  0  0  0  0  # atno 6908 bound_to 6896
  151.0869  133.5298  159.2649 H   0  0  0  0  0  0  0  0  0  0  0  0  # atno 6909 bound_to 6896
  145.9291  139.3792  143.0432 H   0  0  0  0  0  0  0  0  0  0  0  0  # atno 7974 bound_to 7965
  156.1868  140.3084  155.9255 H   0  0  0  0  0  0  0  0  0  0  0  0  # atno 8008 bound_to 7997
  155.3262  140.0458  157.3058 H   0  0  0  0  0  0  0  0  0  0  0  0  # atno 8009 bound_to 7997
  154.5406  140.2260  155.8658 H   0  0  0  0  0  0  0  0  0  0  0  0  # atno 8010 bound_to 7997
  140.6853  143.6650  150.8234 H   0  0  0  0  0  0  0  0  0  0  0  0  # atno 10167 bound_to 10162
  157.1797  130.6797  149.6108 H   0  0  0  0  0  0  0  0  0  0  0  0  # atno 10718 bound_to 10713
  154.3381  135.2754  155.2437 H   0  0  0  0  0  0  0  0  0  0  0  0  # atno 10763 bound_to 10752
  154.4719  135.5880  153.6331 H   0  0  0  0  0  0  0  0  0  0  0  0  # atno 10764 bound_to 10752
  152.9860  135.6090  154.3579 H   0  0  0  0  0  0  0  0  0  0  0  0  # atno 10765 bound_to 10752
  140.4849  134.6040  157.4933 H   0  0  0  0  0  0  0  0  0  0  0  0  # atno 11005 bound_to 11000
  145.8450  140.9560  143.0779 LP  0  0  0  0  0  0  0  0  0  0  0  0  # atno 17320 bound_to 7965
  144.6762  140.0333  143.7482 LP  0  0  0  0  0  0  0  0  0  0  0  0  # atno 17321 bound_to 7965
  140.0356  143.5399  152.2741 LP  0  0  0  0  0  0  0  0  0  0  0  0  # atno 17342 bound_to 10162
  139.6207  144.7628  151.2746 LP  0  0  0  0  0  0  0  0  0  0  0  0  # atno 17343 bound_to 10162
  155.9726  130.4651  150.6241 LP  0  0  0  0  0  0  0  0  0  0  0  0  # atno 17370 bound_to 10713
  157.3964  131.0803  151.1348 LP  0  0  0  0  0  0  0  0  0  0  0  0  # atno 17371 bound_to 10713
  139.9804  134.7146  155.9870 LP  0  0  0  0  0  0  0  0  0  0  0  0  # atno 17394 bound_to 11000
  141.1513  133.6548  156.4022 LP  0  0  0  0  0  0  0  0  0  0  0  0  # atno 17395 bound_to 11000

$$$$
