AV-unprocessed.smi:2100|AV-procd|sdf|8573|dock1
  -GOLD-   2272011303D 1   1.00000     0.00000
 Structure written by MMmdl.
 41 42  0  0  0  0  0  0  0  0  1 V2000
  150.7704  141.8975  156.2779 C   0  0  0  0  0  0  0  0  0  0  0  0
  150.8440  140.3747  156.1212 C   0  0  2  0  0  0  0  0  0  0  0  0
  151.9421  139.7593  157.0051 C   0  0  0  0  0  0  0  0  0  0  0  0
  152.0822  138.3185  156.7402 N   0  0  0  0  0  0  0  0  0  0  0  0
  153.0074  137.3847  157.8658 S   0  0  0  0  0  0  0  0  0  0  0  0
  152.1297  136.9604  158.9674 O   0  0  0  0  0  0  0  0  0  0  0  0
  153.8074  136.4040  157.1165 O   0  0  0  0  0  0  0  0  0  0  0  0
  154.0540  138.6202  158.4653 N   0  0  0  0  0  0  0  0  0  0  0  0
  153.9861  139.0145  159.8736 C   0  0  0  0  0  0  0  0  0  0  0  0
  154.7105  140.3471  160.1227 C   0  0  0  0  0  0  0  0  0  0  0  0
  153.7731  141.4139  160.6558 C   0  0  0  0  0  0  0  0  0  0  0  0
  152.8427  142.0479  159.8047 C   0  0  0  0  0  0  0  0  0  0  0  0
  151.9896  143.0252  160.3532 C   0  0  0  0  0  0  0  0  0  0  0  0
  152.0980  143.3281  161.7242 C   0  0  0  0  0  0  0  0  0  0  0  0
  153.0590  142.6374  162.4892 C   0  0  0  0  0  0  0  0  0  0  0  0
  153.8818  141.6990  161.9733 N   0  0  0  0  0  0  0  0  0  0  0  0
  152.2645  138.0126  155.3129 C   0  0  0  0  0  0  0  0  0  0  0  0
  151.1925  138.6987  154.4441 C   0  0  1  0  0  0  0  0  0  0  0  0
  149.8202  138.0043  154.5086 C   0  0  0  0  0  0  0  0  0  0  0  0
  151.1076  140.0879  154.7527 O   0  0  0  0  0  0  0  0  0  0  0  0
  150.5589  142.1766  157.3104 H   0  0  0  0  0  0  0  0  0  0  0  0
  149.9808  142.3151  155.6528 H   0  0  0  0  0  0  0  0  0  0  0  0
  151.7094  142.3704  155.9885 H   0  0  0  0  0  0  0  0  0  0  0  0
  149.8753  139.9631  156.4050 H   0  0  0  0  0  0  0  0  0  0  0  0
  152.9004  140.2453  156.8157 H   0  0  0  0  0  0  0  0  0  0  0  0
  151.7050  139.9256  158.0556 H   0  0  0  0  0  0  0  0  0  0  0  0
  154.1224  139.4131  157.8278 H   0  0  0  0  0  0  0  0  0  0  0  0
  152.9363  139.1094  160.1521 H   0  0  0  0  0  0  0  0  0  0  0  0
  154.4082  138.2205  160.4909 H   0  0  0  0  0  0  0  0  0  0  0  0
  155.5204  140.2142  160.8407 H   0  0  0  0  0  0  0  0  0  0  0  0
  155.1724  140.7004  159.1995 H   0  0  0  0  0  0  0  0  0  0  0  0
  152.7815  141.7919  158.7571 H   0  0  0  0  0  0  0  0  0  0  0  0
  151.2649  143.5326  159.7336 H   0  0  0  0  0  0  0  0  0  0  0  0
  151.4601  144.0714  162.1790 H   0  0  0  0  0  0  0  0  0  0  0  0
  153.1698  142.8440  163.5434 H   0  0  0  0  0  0  0  0  0  0  0  0
  153.2570  138.3516  155.0127 H   0  0  0  0  0  0  0  0  0  0  0  0
  152.2402  136.9342  155.1555 H   0  0  0  0  0  0  0  0  0  0  0  0
  151.5229  138.6421  153.4065 H   0  0  0  0  0  0  0  0  0  0  0  0
  149.8842  136.9869  154.1220 H   0  0  0  0  0  0  0  0  0  0  0  0
  149.0845  138.5391  153.9074 H   0  0  0  0  0  0  0  0  0  0  0  0
  149.4379  137.9375  155.5268 H   0  0  0  0  0  0  0  0  0  0  0  0
  1  2  1  0  0  0  0
  1 21  1  0  0  0  0
  1 22  1  0  0  0  0
  1 23  1  0  0  0  0
  2 20  1  0  0  0  0
  2  3  1  0  0  0  0
  2 24  1  0  0  0  0
  3  4  1  0  0  0  0
  3 25  1  0  0  0  0
  3 26  1  0  0  0  0
  4  5  1  0  0  0  0
  4 17  1  0  0  0  0
  5  6  2  0  0  0  0
  5  7  2  0  0  0  0
  5  8  1  0  0  0  0
  8  9  1  0  0  0  0
  8 27  1  0  0  0  0
  9 10  1  0  0  0  0
  9 28  1  0  0  0  0
  9 29  1  0  0  0  0
 10 11  1  0  0  0  0
 10 30  1  0  0  0  0
 10 31  1  0  0  0  0
 11 16  1  0  0  0  0
 11 12  2  0  0  0  0
 12 13  1  0  0  0  0
 12 32  1  0  0  0  0
 13 14  2  0  0  0  0
 13 33  1  0  0  0  0
 14 15  1  0  0  0  0
 14 34  1  0  0  0  0
 15 16  2  0  0  0  0
 15 35  1  0  0  0  0
 17 18  1  0  0  0  0
 17 36  1  0  0  0  0
 17 37  1  0  0  0  0
 18 19  1  0  0  0  0
 18 20  1  0  0  0  0
 18 38  1  0  0  0  0
 19 39  1  0  0  0  0
 19 40  1  0  0  0  0
 19 41  1  0  0  0  0
M  END
> <s_m_source_file>
AV-unprocessed.smi

> <i_m_source_file_index>
2100

> <i_lp_mmshare_version>
43012

> <i_f3d_flags>
0

> <s_epik_input>
W0NIM11bQ0BASF0xW0NIMl1OKFtDSDJdW0NASF0oTzEpW0NIM10pUyg9TykoPU8pW05IXVtDSDJdW0NIMl1jMltjSF1bY0hdW2NIXVtjSF1uMg==

> <s_epik_cmdline>
J2VwaWtfcHl0aG9uJywgJy1waCcsICc3LjAnLCAnLXRuJywgJzgnLCAnLW1hJywgJzIwMCcsICctbWV0YWxfYmluZGluZycsICctaW1hZScsICc8aW5maWxlLm1hZT4nLCAnLW9tYWUnLCAnPG91dGZpbGUubWFlPic=

> <r_epik_Ionization_Penalty>
0.085378

> <r_epik_Ionization_Penalty_Charging>
0

> <r_epik_Ionization_Penalty_Neutral>
0.085378

> <r_epik_State_Penalty>
0.0441186

> <r_epik_Charging_Adjusted_Penalty>
0.0441186

> <i_epik_Tot_Q>
0

> <i_epik_Tot_abs_Q>
0

> <r_epik_Metal_State_Penalty>
0.24397

> <b_epik_Metal_Only>
0

> <s_lp_Force_Field>
OPLS_2005

> <r_lp_Energy>
7.96462

> <b_lp_Chiralities_Consistent>
1

> <s_lp_Variant>
AV-unprocessed.smi:2100-1

> <Gold.Version>
5.8.1

> <Gold.Id.Protein>
6NUR|6NUR_protein|mol2

> <Gold.PLP.Fitness>
50.1295

> <Gold.PLP.PLP>
-43.6359

> <Gold.PLP.part.hbond>
-5.0000

> <Gold.PLP.part.metal>
0.0000

> <Gold.PLP.part.buried>
-6.5287

> <Gold.PLP.part.nonpolar>
-33.4084

> <Gold.PLP.part.repulsive>
0.0575

> <Gold.PLP.ligand.clash>
0.0000

> <Gold.PLP.ligand.torsion>
1.3053

> <Gold.PLP.Chemscore.Hbond>
2.7771

> <Gold.PLP.Chemscore.CHOScore>
0.0000

> <Gold.PLP.Chemscore.Metal>
0.0000

> <Gold.Chemscore.Hbonds>
donor molecule, donor type, donor heavy atom, donor atom, acceptor molecule, acceptor atom, score
      P1  H  6896  6908       L1     6  0.71
      P1  H  7989  7998       L1    20  1.00
      P1  H 10752 10764       L1     7  0.98

> <Gold.PLP.Chemscore.Internal.Correction>
0.7727

> <Gold.Rescore>
     Score         DG    S(hbond)    S(metal)    S(lipo)     H(rot)  DE(clash)    DE(int)     intcor
     21.67     -23.19       2.87        0.00     106.84       1.71       0.00       1.51       ----

> <Gold.Chemscore.Fitness>
21.6749

> <Gold.Chemscore.DG>
-23.1858

> <Gold.Chemscore.ZeroCoef>
-5.4800

> <Gold.Chemscore.Hbond>
2.8660

> <Gold.Chemscore.Metal>
0.0000

> <Gold.Chemscore.Lipo>
106.8444

> <Gold.Chemscore.Internal_Hbond>
0.0000

> <Gold.Chemscore.DEClash>
0.0029

> <Gold.Chemscore.DEInternal>
1.5081

> <Gold.Chemscore.Rot>
1.7060

> <Gold.Chemscore.Internal.Correction>
   9.000000E+99

> <Gold.Chemscore.Hbonds>
donor molecule, donor type, donor heavy atom, donor atom, acceptor molecule, acceptor atom, score
      P1  H  6896  6908       L1     6  0.70
      P1  H  7989  7998       L1    20  0.58
      P1  H 10752 10764       L1     7  0.88

> <Gold.Chemscore.Hbond.Weighted>
-9.5724

> <Gold.Chemscore.Metal.Weighted>
-0.0000

> <Gold.Chemscore.Lipo.Weighted>
-12.5008

> <Gold.Chemscore.Internal_Hbond.Weighted>
0.0000

> <Gold.Chemscore.DEClash.Weighted>
0.0029

> <Gold.Chemscore.DEInternal.Weighted>
1.5081

> <Gold.Chemscore.Rot.Weighted>
4.3674

> <Gold.Chemscore.Internal.Correction.Weighted>
   9.000000E+99

> <Gold.Protein.RotatedTorsions>
[ 6907 6896 6895 6894 ] final -108.05 input  -60.11 | X-H torsion
[ 7974 7965 7964 7962 ] final  145.47 input  175.53 | X-H torsion
[ 8008 7997 7996 7995 ] final  -36.63 input   59.86 | X-H torsion
[ 10167 10162 10161 10158 ] final  -39.42 input  -65.29 | X-H torsion
[ 10718 10713 10712 10709 ] final  137.11 input   66.30 | X-H torsion
[ 10763 10752 10751 10750 ] final    2.52 input  -60.55 | X-H torsion
[ 11005 11000 10999 10996 ] final  -76.40 input  -57.11 | X-H torsion

> <Gold.Protein.ActiveResidues>
 VAL166  LYS551  ARG553  GLY616  TRP617  ASP618  TYR619  PRO620  LYS621  CYS622 
 ASP623  PHE694  ASN695  SER759  ASP760  ASP761  ALA762  ILE779  LEU786  VAL792 
 PHE793  MET794  SER795  GLU796  ALA797  LYS798  CYS799  TRP800  GLU811  SER814 

> <Gold.Protein.RotatedAtoms>
  150.7479  133.9735  159.3553 H   0  0  0  0  0  0  0  0  0  0  0  0  # atno 6907 bound_to 6896
  151.7671  135.0794  160.0363 H   0  0  0  0  0  0  0  0  0  0  0  0  # atno 6908 bound_to 6896
  152.3364  133.5980  159.5882 H   0  0  0  0  0  0  0  0  0  0  0  0  # atno 6909 bound_to 6896
  144.8750  139.5787  143.5869 H   0  0  0  0  0  0  0  0  0  0  0  0  # atno 7974 bound_to 7965
  154.4069  140.1625  156.2406 H   0  0  0  0  0  0  0  0  0  0  0  0  # atno 8008 bound_to 7997
  155.9204  140.3421  155.6146 H   0  0  0  0  0  0  0  0  0  0  0  0  # atno 8009 bound_to 7997
  155.7228  140.0770  157.2314 H   0  0  0  0  0  0  0  0  0  0  0  0  # atno 8010 bound_to 7997
  140.7064  143.3215  151.2780 H   0  0  0  0  0  0  0  0  0  0  0  0  # atno 10167 bound_to 10162
  157.4395  131.1056  151.0159 H   0  0  0  0  0  0  0  0  0  0  0  0  # atno 10718 bound_to 10713
  153.2946  135.6951  153.7261 H   0  0  0  0  0  0  0  0  0  0  0  0  # atno 10763 bound_to 10752
  153.6199  135.3429  155.3008 H   0  0  0  0  0  0  0  0  0  0  0  0  # atno 10764 bound_to 10752
  154.8533  135.4383  154.2038 H   0  0  0  0  0  0  0  0  0  0  0  0  # atno 10765 bound_to 10752
  141.1653  133.6982  156.7663 H   0  0  0  0  0  0  0  0  0  0  0  0  # atno 11005 bound_to 11000
  146.2956  139.7269  142.9129 LP  0  0  0  0  0  0  0  0  0  0  0  0  # atno 17320 bound_to 7965
  145.4059  141.0391  143.3044 LP  0  0  0  0  0  0  0  0  0  0  0  0  # atno 17321 bound_to 7965
  139.6670  144.0087  152.2729 LP  0  0  0  0  0  0  0  0  0  0  0  0  # atno 17342 bound_to 10162
  139.9673  144.6518  150.8022 LP  0  0  0  0  0  0  0  0  0  0  0  0  # atno 17343 bound_to 10162
  157.1027  130.5988  149.5464 LP  0  0  0  0  0  0  0  0  0  0  0  0  # atno 17370 bound_to 10713
  155.9943  130.5007  150.7415 LP  0  0  0  0  0  0  0  0  0  0  0  0  # atno 17371 bound_to 10713
  140.2497  134.8550  157.3655 LP  0  0  0  0  0  0  0  0  0  0  0  0  # atno 17394 bound_to 11000
  140.1715  134.4603  155.7828 LP  0  0  0  0  0  0  0  0  0  0  0  0  # atno 17395 bound_to 11000

$$$$
