AV-unprocessed.smi:1384|AV-procd|sdf|5627|dock4
  -GOLD-   22720 5243D 1   1.00000     0.00000
 Structure written by MMmdl.
 41 42  0  0  0  0  0  0  0  0  1 V2000
  150.5138  137.5335  154.3733 C   0  0  0  0  0  0  0  0  0  0  0  0
  149.6222  138.6170  154.9967 C   0  0  2  0  0  0  0  0  0  0  0  0
  149.9356  140.0070  154.4106 C   0  0  0  0  0  0  0  0  0  0  0  0
  149.0498  141.1007  155.0340 C   0  0  0  0  0  0  0  0  0  0  0  0
  149.1494  141.1267  156.5712 C   0  0  2  0  0  0  0  0  0  0  0  0
  150.4604  141.6259  156.9833 N   0  0  0  0  0  0  0  0  0  0  0  0
  150.7037  142.3786  158.0669 C   0  0  0  0  0  0  0  0  0  0  0  0
  149.8248  142.7294  158.8557 O   0  0  0  0  0  0  0  0  0  0  0  0
  152.1710  142.7736  158.2886 C   0  0  0  0  0  0  0  0  0  0  0  0
  152.6777  142.4306  159.6288 N   0  0  0  0  0  0  0  0  0  0  0  0
  152.3474  143.3091  160.6761 C   0  0  0  0  0  0  0  0  0  0  0  0
  152.7570  143.0936  161.9335 C   0  0  0  0  0  0  0  0  0  0  0  0
  153.5563  141.9225  162.1991 C   0  0  0  0  0  0  0  0  0  0  0  0
  153.8959  141.0626  161.2109 C   0  0  0  0  0  0  0  0  0  0  0  0
  154.7374  139.8160  161.4760 C   0  0  0  0  0  0  0  0  0  0  0  0
  154.0277  138.7110  161.2440 F   0  0  0  0  0  0  0  0  0  0  0  0
  155.8082  139.7982  160.6816 F   0  0  0  0  0  0  0  0  0  0  0  0
  155.1652  139.7667  162.7386 F   0  0  0  0  0  0  0  0  0  0  0  0
  153.4425  141.3125  159.8271 C   0  0  0  0  0  0  0  0  0  0  0  0
  153.7314  140.5625  158.8930 O   0  0  0  0  0  0  0  0  0  0  0  0
  148.8639  139.7287  157.1605 C   0  0  0  0  0  0  0  0  0  0  0  0
  149.7499  138.6385  156.5319 C   0  0  0  0  0  0  0  0  0  0  0  0
  151.5680  137.7197  154.5809 H   0  0  0  0  0  0  0  0  0  0  0  0
  150.3891  137.4977  153.2908 H   0  0  0  0  0  0  0  0  0  0  0  0
  150.2662  136.5467  154.7658 H   0  0  0  0  0  0  0  0  0  0  0  0
  148.5878  138.3733  154.7494 H   0  0  0  0  0  0  0  0  0  0  0  0
  150.9865  140.2480  154.5752 H   0  0  0  0  0  0  0  0  0  0  0  0
  149.7911  139.9956  153.3298 H   0  0  0  0  0  0  0  0  0  0  0  0
  149.3133  142.0753  154.6214 H   0  0  0  0  0  0  0  0  0  0  0  0
  148.0126  140.9221  154.7475 H   0  0  0  0  0  0  0  0  0  0  0  0
  148.3937  141.8217  156.9420 H   0  0  0  0  0  0  0  0  0  0  0  0
  151.2430  141.3788  156.3950 H   0  0  0  0  0  0  0  0  0  0  0  0
  152.7730  142.2894  157.5181 H   0  0  0  0  0  0  0  0  0  0  0  0
  152.2851  143.8437  158.1051 H   0  0  0  0  0  0  0  0  0  0  0  0
  151.7526  144.1650  160.3911 H   0  0  0  0  0  0  0  0  0  0  0  0
  152.4988  143.7803  162.7260 H   0  0  0  0  0  0  0  0  0  0  0  0
  153.8824  141.7443  163.2128 H   0  0  0  0  0  0  0  0  0  0  0  0
  148.9922  139.7352  158.2433 H   0  0  0  0  0  0  0  0  0  0  0  0
  147.8169  139.4778  156.9857 H   0  0  0  0  0  0  0  0  0  0  0  0
  149.4732  137.6664  156.9416 H   0  0  0  0  0  0  0  0  0  0  0  0
  150.7903  138.8042  156.8147 H   0  0  0  0  0  0  0  0  0  0  0  0
  1  2  1  0  0  0  0
  1 23  1  0  0  0  0
  1 24  1  0  0  0  0
  1 25  1  0  0  0  0
  2 22  1  0  0  0  0
  2  3  1  0  0  0  0
  2 26  1  0  0  0  0
  3  4  1  0  0  0  0
  3 27  1  0  0  0  0
  3 28  1  0  0  0  0
  4  5  1  0  0  0  0
  4 29  1  0  0  0  0
  4 30  1  0  0  0  0
  5  6  1  0  0  0  0
  5 21  1  0  0  0  0
  5 31  1  0  0  0  0
  6  7  1  0  0  0  0
  6 32  1  0  0  0  0
  7  8  2  0  0  0  0
  7  9  1  0  0  0  0
  9 10  1  0  0  0  0
  9 33  1  0  0  0  0
  9 34  1  0  0  0  0
 10 19  1  0  0  0  0
 10 11  1  0  0  0  0
 11 12  2  0  0  0  0
 11 35  1  0  0  0  0
 12 13  1  0  0  0  0
 12 36  1  0  0  0  0
 13 14  2  0  0  0  0
 13 37  1  0  0  0  0
 14 15  1  0  0  0  0
 14 19  1  0  0  0  0
 15 16  1  0  0  0  0
 15 17  1  0  0  0  0
 15 18  1  0  0  0  0
 19 20  2  0  0  0  0
 21 22  1  0  0  0  0
 21 38  1  0  0  0  0
 21 39  1  0  0  0  0
 22 40  1  0  0  0  0
 22 41  1  0  0  0  0
M  END
> <s_m_source_file>
AV-unprocessed.smi

> <i_m_source_file_index>
1384

> <i_lp_mmshare_version>
43012

> <i_f3d_flags>
0

> <s_epik_input>
W0NIM11bQ0BASF0xW0NIMl1bQ0gyXVtDQEhdKFtDSDJdW0NIMl0xKVtOSF1DKD1PKVtDSDJdbjJbY0hdW2NIXVtjSF1jKEMoRikoRilGKWMyPU8=

> <s_epik_cmdline>
J2VwaWtfcHl0aG9uJywgJy1waCcsICc3LjAnLCAnLXRuJywgJzgnLCAnLW1hJywgJzIwMCcsICctbWV0YWxfYmluZGluZycsICctaW1hZScsICc8aW5maWxlLm1hZT4nLCAnLW9tYWUnLCAnPG91dGZpbGUubWFlPic=

> <r_lp_tautomer_probability>
1

> <r_epik_Ionization_Penalty>
2.11165e-08

> <r_epik_Ionization_Penalty_Charging>
2.06965e-09

> <r_epik_Ionization_Penalty_Neutral>
1.90469e-08

> <r_epik_State_Penalty>
-0

> <r_epik_Charging_Adjusted_Penalty>
2.06965e-09

> <i_epik_Tot_Q>
0

> <i_epik_Tot_abs_Q>
0

> <r_epik_Metal_State_Penalty>
-0

> <b_epik_Metal_Only>
0

> <s_lp_Force_Field>
OPLS_2005

> <r_lp_Energy>
18.4349

> <b_lp_Chiralities_Consistent>
1

> <s_lp_Variant>
AV-unprocessed.smi:1384-2

> <Gold.Version>
5.8.1

> <Gold.Id.Protein>
6NUR|6NUR_protein|mol2

> <Gold.PLP.Fitness>
45.4497

> <Gold.PLP.PLP>
-45.0306

> <Gold.PLP.part.hbond>
-1.6863

> <Gold.PLP.part.metal>
0.0000

> <Gold.PLP.part.buried>
-1.7197

> <Gold.PLP.part.nonpolar>
-40.9296

> <Gold.PLP.part.repulsive>
0.1319

> <Gold.PLP.ligand.clash>
0.2350

> <Gold.PLP.ligand.torsion>
0.7744

> <Gold.PLP.Chemscore.Hbond>
0.6261

> <Gold.PLP.Chemscore.CHOScore>
0.0000

> <Gold.PLP.Chemscore.Metal>
0.0000

> <Gold.Chemscore.Hbonds>
donor molecule, donor type, donor heavy atom, donor atom, acceptor molecule, acceptor atom, score
      P1  H  7997  8009       L1    20  0.71

> <Gold.PLP.Chemscore.Internal.Correction>
0.3246

> <Gold.Rescore>
     Score         DG    S(hbond)    S(metal)    S(lipo)     H(rot)  DE(clash)    DE(int)     intcor
     11.84     -15.06       0.80        0.00      92.38       1.52       0.08       3.14       ----

> <Gold.Chemscore.Fitness>
11.8435

> <Gold.Chemscore.DG>
-15.0632

> <Gold.Chemscore.ZeroCoef>
-5.4800

> <Gold.Chemscore.Hbond>
0.8014

> <Gold.Chemscore.Metal>
0.0000

> <Gold.Chemscore.Lipo>
92.3799

> <Gold.Chemscore.Internal_Hbond>
0.0000

> <Gold.Chemscore.DEClash>
0.0799

> <Gold.Chemscore.DEInternal>
3.1397

> <Gold.Chemscore.Rot>
1.5242

> <Gold.Chemscore.Internal.Correction>
   9.000000E+99

> <Gold.Chemscore.Hbonds>
donor molecule, donor type, donor heavy atom, donor atom, acceptor molecule, acceptor atom, score
      P1  H  7997  8009       L1    20  0.66

> <Gold.Chemscore.Hbond.Weighted>
-2.6766

> <Gold.Chemscore.Metal.Weighted>
-0.0000

> <Gold.Chemscore.Lipo.Weighted>
-10.8084

> <Gold.Chemscore.Internal_Hbond.Weighted>
0.0000

> <Gold.Chemscore.DEClash.Weighted>
0.0799

> <Gold.Chemscore.DEInternal.Weighted>
3.1397

> <Gold.Chemscore.Rot.Weighted>
3.9019

> <Gold.Chemscore.Internal.Correction.Weighted>
   9.000000E+99

> <Gold.Protein.RotatedTorsions>
[ 6907 6896 6895 6894 ] final -133.64 input  -60.11 | X-H torsion
[ 7974 7965 7964 7962 ] final   89.93 input  175.53 | X-H torsion
[ 8008 7997 7996 7995 ] final  138.57 input   59.86 | X-H torsion
[ 10167 10162 10161 10158 ] final   32.34 input  -65.29 | X-H torsion
[ 10718 10713 10712 10709 ] final    1.05 input   66.30 | X-H torsion
[ 10763 10752 10751 10750 ] final  -74.27 input  -60.55 | X-H torsion
[ 11005 11000 10999 10996 ] final  -39.52 input  -57.11 | X-H torsion

> <Gold.Protein.ActiveResidues>
 VAL166  LYS551  ARG553  GLY616  TRP617  ASP618  TYR619  PRO620  LYS621  CYS622 
 ASP623  PHE694  ASN695  SER759  ASP760  ASP761  ALA762  ILE779  LEU786  VAL792 
 PHE793  MET794  SER795  GLU796  ALA797  LYS798  CYS799  TRP800  GLU811  SER814 

> <Gold.Protein.RotatedAtoms>
  150.9764  133.6291  159.2729 H   0  0  0  0  0  0  0  0  0  0  0  0  # atno 6907 bound_to 6896
  151.3561  135.0893  159.9429 H   0  0  0  0  0  0  0  0  0  0  0  0  # atno 6908 bound_to 6896
  152.5200  133.9346  159.7652 H   0  0  0  0  0  0  0  0  0  0  0  0  # atno 6909 bound_to 6896
  145.5258  139.2281  143.2646 H   0  0  0  0  0  0  0  0  0  0  0  0  # atno 7974 bound_to 7965
  156.2996  140.2390  156.4095 H   0  0  0  0  0  0  0  0  0  0  0  0  # atno 8008 bound_to 7997
  154.8454  140.0426  157.1589 H   0  0  0  0  0  0  0  0  0  0  0  0  # atno 8009 bound_to 7997
  154.9057  140.2983  155.5297 H   0  0  0  0  0  0  0  0  0  0  0  0  # atno 8010 bound_to 7997
  140.4507  144.1052  150.6191 H   0  0  0  0  0  0  0  0  0  0  0  0  # atno 10167 bound_to 10162
  156.8425  130.5526  149.5676 H   0  0  0  0  0  0  0  0  0  0  0  0  # atno 10718 bound_to 10713
  154.4708  135.5870  153.6320 H   0  0  0  0  0  0  0  0  0  0  0  0  # atno 10763 bound_to 10752
  152.9834  135.6066  154.3369 H   0  0  0  0  0  0  0  0  0  0  0  0  # atno 10764 bound_to 10752
  154.3251  135.2843  155.2479 H   0  0  0  0  0  0  0  0  0  0  0  0  # atno 10765 bound_to 10752
  141.0108  133.6909  156.2198 H   0  0  0  0  0  0  0  0  0  0  0  0  # atno 11005 bound_to 11000
  146.2076  140.6072  142.9074 LP  0  0  0  0  0  0  0  0  0  0  0  0  # atno 17320 bound_to 7965
  144.7652  140.5513  143.6708 LP  0  0  0  0  0  0  0  0  0  0  0  0  # atno 17321 bound_to 7965
  140.4210  143.2611  151.9715 LP  0  0  0  0  0  0  0  0  0  0  0  0  # atno 17342 bound_to 10162
  139.4796  144.5831  151.7900 LP  0  0  0  0  0  0  0  0  0  0  0  0  # atno 17343 bound_to 10162
  156.0873  130.5868  150.9670 LP  0  0  0  0  0  0  0  0  0  0  0  0  # atno 17370 bound_to 10713
  157.6348  131.0917  150.8370 LP  0  0  0  0  0  0  0  0  0  0  0  0  # atno 17371 bound_to 10713
  140.6737  134.4841  157.5588 LP  0  0  0  0  0  0  0  0  0  0  0  0  # atno 17394 bound_to 11000
  139.9089  134.8388  156.1602 LP  0  0  0  0  0  0  0  0  0  0  0  0  # atno 17395 bound_to 11000

$$$$
