AV-unprocessed.smi:38|AV-procd|sdf|349|dock4
  -GOLD-   2262016183D 1   1.00000     0.00000
 Structure written by MMmdl.
 27 28  0  0  0  0  0  0  0  0  2 V2000
  153.4431  142.7150  160.1914 O   0  0  0  0  0  0  0  0  0  0  0  0
  152.6167  142.1784  159.4553 C   0  0  0  0  0  0  0  0  0  0  0  0
  152.2159  140.8840  159.6144 N   0  5  0  0  0  0  0  0  0  0  0  0
  151.2995  140.2899  158.7948 C   0  0  0  0  0  0  0  0  0  0  0  0
  150.9223  139.1266  158.9388 O   0  0  0  0  0  0  0  0  0  0  0  0
  150.7442  141.0425  157.7242 N   0  0  0  0  0  0  0  0  0  0  0  0
  149.7232  140.3867  156.8199 C   0  0  1  0  0  0  0  0  0  0  0  0
  149.3919  141.3036  155.6307 C   0  0  0  0  0  0  0  0  0  0  0  0
  149.3826  140.3354  154.4638 C   0  0  1  0  0  0  0  0  0  0  0  0
  149.7155  140.9885  153.2558 O   0  0  0  0  0  0  0  0  0  0  0  0
  150.4528  139.3340  154.9021 C   0  0  2  0  0  0  0  0  0  0  0  0
  150.4591  137.9596  154.2086 C   0  0  0  0  0  0  0  0  0  0  0  0
  151.3905  137.0714  154.7913 O   0  0  0  0  0  0  0  0  0  0  0  0
  150.2497  139.1963  156.3034 O   0  0  0  0  0  0  0  0  0  0  0  0
  151.1253  142.3623  157.5450 C   0  0  0  0  0  0  0  0  0  0  0  0
  152.0276  142.9461  158.3598 C   0  0  0  0  0  0  0  0  0  0  0  0
  152.3772  144.2288  158.1613 F   0  0  0  0  0  0  0  0  0  0  0  0
  148.8647  140.1428  157.4477 H   0  0  0  0  0  0  0  0  0  0  0  0
  148.4008  139.8680  154.3846 H   0  0  0  0  0  0  0  0  0  0  0  0
  151.4376  139.7879  154.7756 H   0  0  0  0  0  0  0  0  0  0  0  0
  148.4428  141.8190  155.7813 H   0  0  0  0  0  0  0  0  0  0  0  0
  150.1826  142.0473  155.5117 H   0  0  0  0  0  0  0  0  0  0  0  0
  149.7286  140.3464  152.5627 H   0  0  0  0  0  0  0  0  0  0  0  0
  149.4718  137.5048  154.2903 H   0  0  0  0  0  0  0  0  0  0  0  0
  150.6724  138.0688  153.1451 H   0  0  0  0  0  0  0  0  0  0  0  0
  151.3716  137.1883  155.7289 H   0  0  0  0  0  0  0  0  0  0  0  0
  150.7012  142.9492  156.7450 H   0  0  0  0  0  0  0  0  0  0  0  0
  1  2  2  0  0  0  0
  2 16  1  0  0  0  0
  2  3  1  0  0  0  0
  3  4  1  0  0  0  0
  4  5  2  0  0  0  0
  4  6  1  0  0  0  0
  6  7  1  0  0  0  0
  6 15  1  0  0  0  0
  7 18  1  0  0  0  0
  7 14  1  0  0  0  0
  7  8  1  0  0  0  0
  8  9  1  0  0  0  0
  8 21  1  0  0  0  0
  8 22  1  0  0  0  0
  9 19  1  0  0  0  0
  9 10  1  0  0  0  0
  9 11  1  0  0  0  0
 10 23  1  0  0  0  0
 11 20  1  0  0  0  0
 11 12  1  0  0  0  0
 11 14  1  0  0  0  0
 12 13  1  0  0  0  0
 12 24  1  0  0  0  0
 12 25  1  0  0  0  0
 13 26  1  0  0  0  0
 15 16  2  0  0  0  0
 15 27  1  0  0  0  0
 16 17  1  0  0  0  0
M  CHG  1   3  -1
M  END
> <s_m_source_file>
AV-unprocessed.smi

> <i_m_source_file_index>
38

> <i_lp_mmshare_version>
43012

> <i_f3d_flags>
0

> <s_epik_input>
Tz1jMVtuSF1jKD1PKW4oW2NIXWMxRilbQ0BIXTJbQ0gyXVtDQEhdKFtPSF0pW0NASF0oTzIpW0NIMl1bT0hd

> <s_epik_cmdline>
J2VwaWtfcHl0aG9uJywgJy1waCcsICc3LjAnLCAnLXRuJywgJzgnLCAnLW1hJywgJzIwMCcsICctbWV0YWxfYmluZGluZycsICctaW1hZScsICc8aW5maWxlLm1hZT4nLCAnLW9tYWUnLCAnPG91dGZpbGUubWFlPic=

> <r_epik_Ionization_Penalty>
1.68146

> <r_epik_Ionization_Penalty_Charging>
3.4211e-08

> <r_epik_Ionization_Penalty_Neutral>
1.68146

> <r_epik_State_Penalty>
1.78593

> <r_epik_Charging_Adjusted_Penalty>
1.78593

> <i_epik_Tot_Q>
-1

> <i_epik_Tot_abs_Q>
1

> <r_epik_Metal_State_Penalty>
0.0113696

> <b_epik_Metal_Only>
0

> <s_epik_Chemistry_Notes>
This compound contains an acetal/aminal-like group ( X-CH(R)-Y where X, Y are N, S, or O) that may be acid/base labile, releasing an aldehyde.

> <s_lp_Force_Field>
OPLS_2005

> <r_lp_Energy>
38.28

> <b_lp_Chiralities_Consistent>
1

> <s_lp_Variant>
AV-unprocessed.smi:38-15

> <Gold.Version>
5.8.1

> <Gold.Id.Protein>
6NUR|6NUR_protein|mol2

> <Gold.PLP.Fitness>
45.0679

> <Gold.PLP.PLP>
-33.8235

> <Gold.PLP.part.hbond>
-3.3568

> <Gold.PLP.part.metal>
0.0000

> <Gold.PLP.part.buried>
-5.2540

> <Gold.PLP.part.nonpolar>
-26.3249

> <Gold.PLP.part.repulsive>
0.0000

> <Gold.PLP.ligand.clash>
0.0000

> <Gold.PLP.ligand.torsion>
0.1228

> <Gold.PLP.Chemscore.Hbond>
2.8285

> <Gold.PLP.Chemscore.CHOScore>
1.0000

> <Gold.PLP.Chemscore.Metal>
0.0000

> <Gold.Chemscore.Hbonds>
donor molecule, donor type, donor heavy atom, donor atom, acceptor molecule, acceptor atom, score
      L1  H    10    23       P1  7957  0.75
      P1  H  7989  7998       L1    10  0.09
      P1  H  8011  8017       L1    10  0.95
      P1  H 10752 10764       L1    13  0.70
      L1  C    15    27       P1  8028  0.45

> <Gold.PLP.Chemscore.Internal.Correction>
0.0045

> <Gold.Rescore>
     Score         DG    S(hbond)    S(metal)    S(lipo)     H(rot)  DE(clash)    DE(int)     intcor
      8.77     -10.76       2.04        0.00      49.93       2.88       0.13       1.85       ----

> <Gold.Chemscore.Fitness>
8.7744

> <Gold.Chemscore.DG>
-10.7580

> <Gold.Chemscore.ZeroCoef>
-5.4800

> <Gold.Chemscore.Hbond>
2.0396

> <Gold.Chemscore.Metal>
0.0000

> <Gold.Chemscore.Lipo>
49.9340

> <Gold.Chemscore.Internal_Hbond>
0.0000

> <Gold.Chemscore.DEClash>
0.1287

> <Gold.Chemscore.DEInternal>
1.8549

> <Gold.Chemscore.Rot>
2.8815

> <Gold.Chemscore.Internal.Correction>
   9.000000E+99

> <Gold.Chemscore.Hbonds>
donor molecule, donor type, donor heavy atom, donor atom, acceptor molecule, acceptor atom, score
      L1  H    10    23       P1  7957  0.70
      P1  H  8011  8017       L1    10  0.21
      P1  H 10752 10764       L1    13  0.17

> <Gold.Chemscore.Hbond.Weighted>
-6.8122

> <Gold.Chemscore.Metal.Weighted>
-0.0000

> <Gold.Chemscore.Lipo.Weighted>
-5.8423

> <Gold.Chemscore.Internal_Hbond.Weighted>
0.0000

> <Gold.Chemscore.DEClash.Weighted>
0.1287

> <Gold.Chemscore.DEInternal.Weighted>
1.8549

> <Gold.Chemscore.Rot.Weighted>
7.3765

> <Gold.Chemscore.Internal.Correction.Weighted>
   9.000000E+99

> <Gold.Protein.RotatedTorsions>
[ 6907 6896 6895 6894 ] final   54.64 input  -60.11 | X-H torsion
[ 7974 7965 7964 7962 ] final  -24.03 input  175.53 | X-H torsion
[ 8008 7997 7996 7995 ] final  -21.75 input   59.86 | X-H torsion
[ 10167 10162 10161 10158 ] final  -33.75 input  -65.29 | X-H torsion
[ 10718 10713 10712 10709 ] final  103.89 input   66.30 | X-H torsion
[ 10763 10752 10751 10750 ] final  -57.41 input  -60.55 | X-H torsion
[ 11005 11000 10999 10996 ] final -162.38 input  -57.11 | X-H torsion

> <Gold.Protein.ActiveResidues>
 VAL166  LYS551  ARG553  GLY616  TRP617  ASP618  TYR619  PRO620  LYS621  CYS622 
 ASP623  PHE694  ASN695  SER759  ASP760  ASP761  ALA762  ILE779  LEU786  VAL792 
 PHE793  MET794  SER795  GLU796  ALA797  LYS798  CYS799  TRP800  GLU811  SER814 

> <Gold.Protein.RotatedAtoms>
  152.3459  134.7071  160.0250 H   0  0  0  0  0  0  0  0  0  0  0  0  # atno 6907 bound_to 6896
  151.7441  133.3318  159.3382 H   0  0  0  0  0  0  0  0  0  0  0  0  # atno 6908 bound_to 6896
  150.7509  134.6184  159.6168 H   0  0  0  0  0  0  0  0  0  0  0  0  # atno 6909 bound_to 6896
  146.1580  140.4696  142.8583 H   0  0  0  0  0  0  0  0  0  0  0  0  # atno 7974 bound_to 7965
  154.4686  140.2026  156.0053 H   0  0  0  0  0  0  0  0  0  0  0  0  # atno 8008 bound_to 7997
  156.0971  140.3249  155.7863 H   0  0  0  0  0  0  0  0  0  0  0  0  # atno 8009 bound_to 7997
  155.4860  140.0542  157.2951 H   0  0  0  0  0  0  0  0  0  0  0  0  # atno 8010 bound_to 7997
  140.7198  143.3597  151.1987 H   0  0  0  0  0  0  0  0  0  0  0  0  # atno 10167 bound_to 10162
  157.6758  131.0790  150.5623 H   0  0  0  0  0  0  0  0  0  0  0  0  # atno 10718 bound_to 10713
  154.2220  135.6376  153.5147 H   0  0  0  0  0  0  0  0  0  0  0  0  # atno 10763 bound_to 10752
  152.9967  135.5499  154.6104 H   0  0  0  0  0  0  0  0  0  0  0  0  # atno 10764 bound_to 10752
  154.5566  135.2905  155.0932 H   0  0  0  0  0  0  0  0  0  0  0  0  # atno 10765 bound_to 10752
  140.6099  134.4860  157.5214 H   0  0  0  0  0  0  0  0  0  0  0  0  # atno 11005 bound_to 11000
  144.7988  140.6175  143.6492 LP  0  0  0  0  0  0  0  0  0  0  0  0  # atno 17320 bound_to 7965
  145.4660  139.1508  143.3840 LP  0  0  0  0  0  0  0  0  0  0  0  0  # atno 17321 bound_to 7965
  139.7146  143.9320  152.2961 LP  0  0  0  0  0  0  0  0  0  0  0  0  # atno 17342 bound_to 10162
  139.9057  144.6886  150.8616 LP  0  0  0  0  0  0  0  0  0  0  0  0  # atno 17343 bound_to 10162
  156.5925  130.4333  149.5930 LP  0  0  0  0  0  0  0  0  0  0  0  0  # atno 17370 bound_to 10713
  156.2571  130.6941  151.1698 LP  0  0  0  0  0  0  0  0  0  0  0  0  # atno 17371 bound_to 10713
  139.9196  134.8175  156.1252 LP  0  0  0  0  0  0  0  0  0  0  0  0  # atno 17394 bound_to 11000
  141.0815  133.6752  156.2346 LP  0  0  0  0  0  0  0  0  0  0  0  0  # atno 17395 bound_to 11000

$$$$
