AV-unprocessed.smi:1936|AV-procd|sdf|7829|dock10
  -GOLD-   22720 9573D 1   1.00000     0.00000
 Structure written by MMmdl.
 38 39  0  0  0  0  0  0  0  0  1 V2000
  146.5909  138.8988  151.2069 C   0  0  0  0  0  0  0  0  0  0  0  0
  146.1993  138.0516  152.4245 C   0  0  2  0  0  0  0  0  0  0  0  0
  146.9824  138.4671  153.6884 C   0  0  0  0  0  0  0  0  0  0  0  0
  146.6146  139.7668  154.2552 N   0  0  0  0  0  0  0  0  0  0  0  0
  147.1128  140.8928  153.4690 C   0  0  0  0  0  0  0  0  0  0  0  0
  146.7088  142.2426  154.0868 C   0  0  0  0  0  0  0  0  0  0  0  0
  147.1692  142.3120  155.4327 O   0  0  0  0  0  0  0  0  0  0  0  0
  146.6698  141.2514  156.2410 C   0  0  0  0  0  0  0  0  0  0  0  0
  147.0808  139.9010  155.6298 C   0  0  0  0  0  0  0  0  0  0  0  0
  146.4440  136.6392  152.1428 N   0  0  0  0  0  0  0  0  0  0  0  0
  145.5871  135.6329  152.3756 C   0  0  0  0  0  0  0  0  0  0  0  0
  144.4144  135.7953  152.7116 O   0  0  0  0  0  0  0  0  0  0  0  0
  146.1594  134.2216  152.2507 C   0  0  0  0  0  0  0  0  0  0  0  0
  145.4814  133.4903  151.1934 N   0  0  0  0  0  0  0  0  0  0  0  0
  146.0307  132.6782  150.2219 C   0  0  0  0  0  0  0  0  0  0  0  0
  145.0025  132.1955  149.4646 C   0  0  0  0  0  0  0  0  0  0  0  0
  143.8460  132.7746  150.0577 C   0  0  0  0  0  0  0  0  0  0  0  0
  144.1353  133.5488  151.0911 N   0  0  0  0  0  0  0  0  0  0  0  0
  146.4091  139.9577  151.3930 H   0  0  0  0  0  0  0  0  0  0  0  0
  146.0108  138.6147  150.3284 H   0  0  0  0  0  0  0  0  0  0  0  0
  147.6470  138.7803  150.9618 H   0  0  0  0  0  0  0  0  0  0  0  0
  145.1375  138.2218  152.6079 H   0  0  0  0  0  0  0  0  0  0  0  0
  146.8168  137.7008  154.4471 H   0  0  0  0  0  0  0  0  0  0  0  0
  148.0524  138.4473  153.4760 H   0  0  0  0  0  0  0  0  0  0  0  0
  148.1998  140.8394  153.3925 H   0  0  0  0  0  0  0  0  0  0  0  0
  146.7242  140.8478  152.4520 H   0  0  0  0  0  0  0  0  0  0  0  0
  147.1432  143.0649  153.5180 H   0  0  0  0  0  0  0  0  0  0  0  0
  145.6259  142.3706  154.0576 H   0  0  0  0  0  0  0  0  0  0  0  0
  147.0723  141.3507  157.2491 H   0  0  0  0  0  0  0  0  0  0  0  0
  145.5840  141.3252  156.3200 H   0  0  0  0  0  0  0  0  0  0  0  0
  146.6754  139.0927  156.2395 H   0  0  0  0  0  0  0  0  0  0  0  0
  148.1671  139.8035  155.6638 H   0  0  0  0  0  0  0  0  0  0  0  0
  147.3821  136.3961  151.8598 H   0  0  0  0  0  0  0  0  0  0  0  0
  147.2289  134.2666  152.0380 H   0  0  0  0  0  0  0  0  0  0  0  0
  146.0390  133.6795  153.1897 H   0  0  0  0  0  0  0  0  0  0  0  0
  147.0955  132.5079  150.1556 H   0  0  0  0  0  0  0  0  0  0  0  0
  145.0661  131.5268  148.6192 H   0  0  0  0  0  0  0  0  0  0  0  0
  142.8114  132.6546  149.7713 H   0  0  0  0  0  0  0  0  0  0  0  0
  1  2  1  0  0  0  0
  1 19  1  0  0  0  0
  1 20  1  0  0  0  0
  1 21  1  0  0  0  0
  2  3  1  0  0  0  0
  2 10  1  0  0  0  0
  2 22  1  0  0  0  0
  3  4  1  0  0  0  0
  3 23  1  0  0  0  0
  3 24  1  0  0  0  0
  4  9  1  0  0  0  0
  4  5  1  0  0  0  0
  5  6  1  0  0  0  0
  5 25  1  0  0  0  0
  5 26  1  0  0  0  0
  6  7  1  0  0  0  0
  6 27  1  0  0  0  0
  6 28  1  0  0  0  0
  7  8  1  0  0  0  0
  8  9  1  0  0  0  0
  8 29  1  0  0  0  0
  8 30  1  0  0  0  0
  9 31  1  0  0  0  0
  9 32  1  0  0  0  0
 10 11  1  0  0  0  0
 10 33  1  0  0  0  0
 11 12  2  0  0  0  0
 11 13  1  0  0  0  0
 13 14  1  0  0  0  0
 13 34  1  0  0  0  0
 13 35  1  0  0  0  0
 14 18  1  0  0  0  0
 14 15  1  0  0  0  0
 15 16  2  0  0  0  0
 15 36  1  0  0  0  0
 16 17  1  0  0  0  0
 16 37  1  0  0  0  0
 17 18  2  0  0  0  0
 17 38  1  0  0  0  0
M  END
> <s_m_source_file>
AV-unprocessed.smi

> <i_m_source_file_index>
1936

> <i_lp_mmshare_version>
43012

> <i_f3d_flags>
0

> <s_epik_input>
W0NIMl0xW0NIMl1PW0NIMl1bQ0gyXU4xW0NIMl1bQ0BASF0oW0NIM10pW05IXUMoPU8pW0NIMl1uMltjSF1bY0hdW2NIXW4y

> <s_epik_cmdline>
J2VwaWtfcHl0aG9uJywgJy1waCcsICc3LjAnLCAnLXRuJywgJzgnLCAnLW1hJywgJzIwMCcsICctbWV0YWxfYmluZGluZycsICctaW1hZScsICc8aW5maWxlLm1hZT4nLCAnLW9tYWUnLCAnPG91dGZpbGUubWFlPic=

> <r_lp_tautomer_probability>
1

> <r_epik_Ionization_Penalty>
0.196927

> <r_epik_Ionization_Penalty_Charging>
0

> <r_epik_Ionization_Penalty_Neutral>
0.196927

> <r_epik_State_Penalty>
0.186684

> <r_epik_Charging_Adjusted_Penalty>
0.186684

> <i_epik_Tot_Q>
0

> <i_epik_Tot_abs_Q>
0

> <r_epik_Metal_State_Penalty>
0.186682

> <b_epik_Metal_Only>
0

> <s_lp_Force_Field>
OPLS_2005

> <r_lp_Energy>
24.3888

> <b_lp_Chiralities_Consistent>
1

> <s_lp_Variant>
AV-unprocessed.smi:1936-1

> <Gold.Version>
5.8.1

> <Gold.Id.Protein>
6NUR|6NUR_protein|mol2

> <Gold.PLP.Fitness>
37.5680

> <Gold.PLP.PLP>
-29.7079

> <Gold.PLP.part.hbond>
-1.0000

> <Gold.PLP.part.metal>
0.0000

> <Gold.PLP.part.buried>
-3.1220

> <Gold.PLP.part.nonpolar>
-27.2768

> <Gold.PLP.part.repulsive>
1.4935

> <Gold.PLP.ligand.clash>
0.0000

> <Gold.PLP.ligand.torsion>
0.5793

> <Gold.PLP.Chemscore.Hbond>
1.0000

> <Gold.PLP.Chemscore.CHOScore>
1.9958

> <Gold.PLP.Chemscore.Metal>
0.0000

> <Gold.Chemscore.Hbonds>
donor molecule, donor type, donor heavy atom, donor atom, acceptor molecule, acceptor atom, score
      L1  H    10    33       P1  7948  1.00
      L1  C    15    36       P1 10747  1.00
      L1  C    17    38       P1 10186  0.99

> <Gold.PLP.Chemscore.Internal.Correction>
0.0312

> <Gold.Rescore>
     Score         DG    S(hbond)    S(metal)    S(lipo)     H(rot)  DE(clash)    DE(int)     intcor
     10.67     -13.06       0.99        0.00      77.12       1.85       0.47       1.92       ----

> <Gold.Chemscore.Fitness>
10.6664

> <Gold.Chemscore.DG>
-13.0563

> <Gold.Chemscore.ZeroCoef>
-5.4800

> <Gold.Chemscore.Hbond>
0.9884

> <Gold.Chemscore.Metal>
0.0000

> <Gold.Chemscore.Lipo>
77.1237

> <Gold.Chemscore.Internal_Hbond>
0.0000

> <Gold.Chemscore.DEClash>
0.4656

> <Gold.Chemscore.DEInternal>
1.9243

> <Gold.Chemscore.Rot>
1.8549

> <Gold.Chemscore.Internal.Correction>
   9.000000E+99

> <Gold.Chemscore.Hbonds>
donor molecule, donor type, donor heavy atom, donor atom, acceptor molecule, acceptor atom, score
      L1  H    10    33       P1  7948  0.96

> <Gold.Chemscore.Hbond.Weighted>
-3.3013

> <Gold.Chemscore.Metal.Weighted>
-0.0000

> <Gold.Chemscore.Lipo.Weighted>
-9.0235

> <Gold.Chemscore.Internal_Hbond.Weighted>
0.0000

> <Gold.Chemscore.DEClash.Weighted>
0.4656

> <Gold.Chemscore.DEInternal.Weighted>
1.9243

> <Gold.Chemscore.Rot.Weighted>
4.7485

> <Gold.Chemscore.Internal.Correction.Weighted>
   9.000000E+99

> <Gold.Protein.RotatedTorsions>
[ 6907 6896 6895 6894 ] final -158.22 input  -60.11 | X-H torsion
[ 7974 7965 7964 7962 ] final  -91.62 input  175.53 | X-H torsion
[ 8008 7997 7996 7995 ] final   -4.62 input   59.86 | X-H torsion
[ 10167 10162 10161 10158 ] final  120.33 input  -65.29 | X-H torsion
[ 10718 10713 10712 10709 ] final -138.23 input   66.30 | X-H torsion
[ 10763 10752 10751 10750 ] final   77.32 input  -60.55 | X-H torsion
[ 11005 11000 10999 10996 ] final   -8.03 input  -57.11 | X-H torsion

> <Gold.Protein.ActiveResidues>
 VAL166  LYS551  ARG553  GLY616  TRP617  ASP618  TYR619  PRO620  LYS621  CYS622 
 ASP623  PHE694  ASN695  SER759  ASP760  ASP761  ALA762  ILE779  LEU786  VAL792 
 PHE793  MET794  SER795  GLU796  ALA797  LYS798  CYS799  TRP800  GLU811  SER814 

> <Gold.Protein.RotatedAtoms>
  151.3148  133.4065  159.2649 H   0  0  0  0  0  0  0  0  0  0  0  0  # atno 6907 bound_to 6896
  151.0084  134.9378  159.8003 H   0  0  0  0  0  0  0  0  0  0  0  0  # atno 6908 bound_to 6896
  152.5294  134.3112  159.9167 H   0  0  0  0  0  0  0  0  0  0  0  0  # atno 6909 bound_to 6896
  145.4107  140.9545  143.2235 H   0  0  0  0  0  0  0  0  0  0  0  0  # atno 7974 bound_to 7965
  154.6124  140.2479  155.7652 H   0  0  0  0  0  0  0  0  0  0  0  0  # atno 8008 bound_to 7997
  156.2378  140.2944  156.0311 H   0  0  0  0  0  0  0  0  0  0  0  0  # atno 8009 bound_to 7997
  155.2031  140.0395  157.2911 H   0  0  0  0  0  0  0  0  0  0  0  0  # atno 8010 bound_to 7997
  139.5989  144.7050  151.3109 H   0  0  0  0  0  0  0  0  0  0  0  0  # atno 10167 bound_to 10162
  156.2970  130.7407  151.1448 H   0  0  0  0  0  0  0  0  0  0  0  0  # atno 10718 bound_to 10713
  153.0790  135.4918  154.8464 H   0  0  0  0  0  0  0  0  0  0  0  0  # atno 10763 bound_to 10752
  154.7126  135.3023  154.9176 H   0  0  0  0  0  0  0  0  0  0  0  0  # atno 10764 bound_to 10752
  153.9865  135.6783  153.4805 H   0  0  0  0  0  0  0  0  0  0  0  0  # atno 10765 bound_to 10752
  140.7191  133.8844  155.8807 H   0  0  0  0  0  0  0  0  0  0  0  0  # atno 11005 bound_to 11000
  144.8311  139.5627  143.6943 LP  0  0  0  0  0  0  0  0  0  0  0  0  # atno 17320 bound_to 7965
  146.2706  139.6626  142.9298 LP  0  0  0  0  0  0  0  0  0  0  0  0  # atno 17321 bound_to 7965
  140.7234  143.7072  150.7798 LP  0  0  0  0  0  0  0  0  0  0  0  0  # atno 17342 bound_to 10162
  140.0644  143.5123  152.2611 LP  0  0  0  0  0  0  0  0  0  0  0  0  # atno 17343 bound_to 10162
  157.7358  131.0569  150.5450 LP  0  0  0  0  0  0  0  0  0  0  0  0  # atno 17370 bound_to 10713
  156.5573  130.4247  149.6079 LP  0  0  0  0  0  0  0  0  0  0  0  0  # atno 17371 bound_to 10713
  141.0019  134.1138  157.4308 LP  0  0  0  0  0  0  0  0  0  0  0  0  # atno 17394 bound_to 11000
  139.8852  135.0070  156.6423 LP  0  0  0  0  0  0  0  0  0  0  0  0  # atno 17395 bound_to 11000

$$$$
