AV-unprocessed.smi:101|AV-procd|sdf|924|dock6
  -GOLD-   2262017433D 1   1.00000     0.00000
 Structure written by MMmdl.
 44 46  0  0  0  0  0  0  0  0  1 V2000
  144.5602  137.9385  155.2654 C   0  0  0  0  0  0  0  0  0  0  0  0
  145.2208  138.8771  156.2621 C   0  0  0  0  0  0  0  0  0  0  0  0
  146.2588  139.6850  155.9241 C   0  0  0  0  0  0  0  0  0  0  0  0
  146.8818  140.5563  156.8119 N   0  0  0  0  0  0  0  0  0  0  0  0
  148.0606  141.4329  156.4202 C   0  0  1  0  0  0  0  0  0  0  0  0
  149.2085  141.0223  157.0988 O   0  0  0  0  0  0  0  0  0  0  0  0
  149.9524  140.1411  156.2707 C   0  0  2  0  0  0  0  0  0  0  0  0
  151.3991  140.0276  156.7709 C   0  0  0  0  0  0  0  0  0  0  0  0
  151.7403  141.1695  157.5411 O   0  0  0  0  0  0  0  0  0  0  0  0
  152.7040  141.0926  158.4775 C   0  0  0  0  0  0  0  0  0  0  0  0
  153.6260  140.2753  158.4429 O   0  0  0  0  0  0  0  0  0  0  0  0
  152.5373  142.1024  159.5623 C   0  0  0  0  0  0  0  0  0  0  0  0
  151.8002  143.2818  159.3049 C   0  0  0  0  0  0  0  0  0  0  0  0
  151.6273  144.2534  160.3097 C   0  0  0  0  0  0  0  0  0  0  0  0
  152.1885  144.0570  161.5849 C   0  0  0  0  0  0  0  0  0  0  0  0
  152.9231  142.8875  161.8542 C   0  0  0  0  0  0  0  0  0  0  0  0
  153.0982  141.9152  160.8502 C   0  0  0  0  0  0  0  0  0  0  0  0
  149.7798  140.7231  154.8666 C   0  0  1  0  0  0  0  0  0  0  0  0
  149.8658  139.6956  153.8997 O   0  0  0  0  0  0  0  0  0  0  0  0
  148.3714  141.3150  154.9064 C   0  0  2  0  0  0  0  0  0  0  0  0
  148.3555  142.5775  154.2712 O   0  0  0  0  0  0  0  0  0  0  0  0
  146.4606  140.5749  158.1587 C   0  0  0  0  0  0  0  0  0  0  0  0
  146.9961  141.2798  159.0137 O   0  0  0  0  0  0  0  0  0  0  0  0
  145.3917  139.7512  158.5044 N   0  0  0  0  0  0  0  0  0  0  0  0
  144.7162  138.8905  157.6374 C   0  0  0  0  0  0  0  0  0  0  0  0
  143.7790  138.2154  158.0597 O   0  0  0  0  0  0  0  0  0  0  0  0
  145.0826  139.7739  159.4653 H   0  0  0  0  0  0  0  0  0  0  0  0
  145.0145  138.0103  154.2766 H   0  0  0  0  0  0  0  0  0  0  0  0
  143.5006  138.1759  155.1637 H   0  0  0  0  0  0  0  0  0  0  0  0
  144.6492  136.9044  155.5996 H   0  0  0  0  0  0  0  0  0  0  0  0
  146.6079  139.6260  154.9048 H   0  0  0  0  0  0  0  0  0  0  0  0
  147.7824  142.4356  156.7514 H   0  0  0  0  0  0  0  0  0  0  0  0
  149.4828  139.1571  156.3174 H   0  0  0  0  0  0  0  0  0  0  0  0
  151.5135  139.1269  157.3754 H   0  0  0  0  0  0  0  0  0  0  0  0
  152.0793  139.9412  155.9226 H   0  0  0  0  0  0  0  0  0  0  0  0
  151.3590  143.4542  158.3338 H   0  0  0  0  0  0  0  0  0  0  0  0
  151.0631  145.1503  160.1013 H   0  0  0  0  0  0  0  0  0  0  0  0
  152.0554  144.8020  162.3554 H   0  0  0  0  0  0  0  0  0  0  0  0
  153.3539  142.7353  162.8328 H   0  0  0  0  0  0  0  0  0  0  0  0
  153.6678  141.0293  161.0906 H   0  0  0  0  0  0  0  0  0  0  0  0
  150.5236  141.4959  154.6662 H   0  0  0  0  0  0  0  0  0  0  0  0
  149.8619  140.0928  153.0420 H   0  0  0  0  0  0  0  0  0  0  0  0
  147.6509  140.6531  154.4232 H   0  0  0  0  0  0  0  0  0  0  0  0
  148.1994  143.2389  154.9283 H   0  0  0  0  0  0  0  0  0  0  0  0
  1  2  1  0  0  0  0
  1 28  1  0  0  0  0
  1 29  1  0  0  0  0
  1 30  1  0  0  0  0
  2 25  1  0  0  0  0
  2  3  2  0  0  0  0
  3  4  1  0  0  0  0
  3 31  1  0  0  0  0
  4  5  1  0  0  0  0
  4 22  1  0  0  0  0
  5 20  1  0  0  0  0
  5  6  1  0  0  0  0
  5 32  1  0  0  0  0
  6  7  1  0  0  0  0
  7  8  1  0  0  0  0
  7 18  1  0  0  0  0
  7 33  1  0  0  0  0
  8  9  1  0  0  0  0
  8 34  1  0  0  0  0
  8 35  1  0  0  0  0
  9 10  1  0  0  0  0
 10 11  2  0  0  0  0
 10 12  1  0  0  0  0
 12 17  1  0  0  0  0
 12 13  2  0  0  0  0
 13 14  1  0  0  0  0
 13 36  1  0  0  0  0
 14 15  2  0  0  0  0
 14 37  1  0  0  0  0
 15 16  1  0  0  0  0
 15 38  1  0  0  0  0
 16 17  2  0  0  0  0
 16 39  1  0  0  0  0
 17 40  1  0  0  0  0
 18 19  1  0  0  0  0
 18 20  1  0  0  0  0
 18 41  1  0  0  0  0
 19 42  1  0  0  0  0
 20 21  1  0  0  0  0
 20 43  1  0  0  0  0
 21 44  1  0  0  0  0
 22 23  2  0  0  0  0
 22 24  1  0  0  0  0
 24 27  1  0  0  0  0
 24 25  1  0  0  0  0
 25 26  2  0  0  0  0
M  END
> <s_m_source_file>
AV-unprocessed.smi

> <i_m_source_file_index>
101

> <i_lp_mmshare_version>
43012

> <i_f3d_flags>
0

> <s_epik_input>
Tz1jMVtuSF1jKD1PKW4oW2NIXWMxW0NIM10pW0NAQEhdMk9bQ0BIXShbQ0BASF0oW09IXSlbQ0BIXTJbT0hdKVtDSDJdT0MoPU8pYzNbY0hdW2NIXVtjSF1bY0hdW2NIXTM=

> <s_epik_cmdline>
J2VwaWtfcHl0aG9uJywgJy1waCcsICc3LjAnLCAnLXRuJywgJzgnLCAnLW1hJywgJzIwMCcsICctbWV0YWxfYmluZGluZycsICctaW1hZScsICc8aW5maWxlLm1hZT4nLCAnLW9tYWUnLCAnPG91dGZpbGUubWFlPic=

> <r_lp_tautomer_probability>
0.999537

> <r_epik_Ionization_Penalty>
0.00263537

> <r_epik_Ionization_Penalty_Charging>
0.00263428

> <r_epik_Ionization_Penalty_Neutral>
1.09111e-06

> <r_epik_State_Penalty>
0.00183335

> <r_epik_Charging_Adjusted_Penalty>
0.00446763

> <i_epik_Tot_Q>
0

> <i_epik_Tot_abs_Q>
0

> <r_epik_Metal_State_Penalty>
1.00528

> <b_epik_Metal_Only>
0

> <s_epik_Chemistry_Notes>
This compound has an ester and may undergo hydrolysis at high or low pH. This compound contains an acetal/aminal-like group ( X-CH(R)-Y where X, Y are N, S, or O) that may be acid/base labile, releasing an aldehyde.

> <s_lp_Force_Field>
OPLS_2005

> <r_lp_Energy>
29.5421

> <b_lp_Chiralities_Consistent>
1

> <s_lp_Variant>
AV-unprocessed.smi:101-12

> <Gold.Version>
5.8.1

> <Gold.Id.Protein>
6NUR|6NUR_protein|mol2

> <Gold.PLP.Fitness>
49.1327

> <Gold.PLP.PLP>
-40.7188

> <Gold.PLP.part.hbond>
-6.3888

> <Gold.PLP.part.metal>
0.0000

> <Gold.PLP.part.buried>
-4.1109

> <Gold.PLP.part.nonpolar>
-30.5675

> <Gold.PLP.part.repulsive>
0.1627

> <Gold.PLP.ligand.clash>
0.0000

> <Gold.PLP.ligand.torsion>
1.2671

> <Gold.PLP.Chemscore.Hbond>
3.6269

> <Gold.PLP.Chemscore.CHOScore>
0.0000

> <Gold.PLP.Chemscore.Metal>
0.0000

> <Gold.Chemscore.Hbonds>
donor molecule, donor type, donor heavy atom, donor atom, acceptor molecule, acceptor atom, score
      L1  H    19    42       P1  7957  1.00
      L1  H    21    44       P1  8028  0.86
      P1  H  6934  6946       L1    23  0.38
      P1  H  7997  8010       L1    11  0.88
      P1  H  8011  8017       L1    21  0.01

> <Gold.PLP.Chemscore.Internal.Correction>
0.0675

> <Gold.Rescore>
     Score         DG    S(hbond)    S(metal)    S(lipo)     H(rot)  DE(clash)    DE(int)     intcor
     16.86     -19.38       3.49        0.00      91.71       3.32       0.22       2.29       ----

> <Gold.Chemscore.Fitness>
16.8601

> <Gold.Chemscore.DG>
-19.3759

> <Gold.Chemscore.ZeroCoef>
-5.4800

> <Gold.Chemscore.Hbond>
3.4904

> <Gold.Chemscore.Metal>
0.0000

> <Gold.Chemscore.Lipo>
91.7097

> <Gold.Chemscore.Internal_Hbond>
0.0000

> <Gold.Chemscore.DEClash>
0.2219

> <Gold.Chemscore.DEInternal>
2.2939

> <Gold.Chemscore.Rot>
3.3172

> <Gold.Chemscore.Internal.Correction>
   9.000000E+99

> <Gold.Chemscore.Hbonds>
donor molecule, donor type, donor heavy atom, donor atom, acceptor molecule, acceptor atom, score
      L1  H    19    42       P1  7957  0.97
      L1  H    21    44       P1  8028  0.82
      P1  H  6934  6946       L1    23  0.39
      P1  H  7997  8010       L1    11  0.86
      P1  H  8011  8017       L1    21  0.01

> <Gold.Chemscore.Hbond.Weighted>
-11.6579

> <Gold.Chemscore.Metal.Weighted>
-0.0000

> <Gold.Chemscore.Lipo.Weighted>
-10.7300

> <Gold.Chemscore.Internal_Hbond.Weighted>
0.0000

> <Gold.Chemscore.DEClash.Weighted>
0.2219

> <Gold.Chemscore.DEInternal.Weighted>
2.2939

> <Gold.Chemscore.Rot.Weighted>
8.4920

> <Gold.Chemscore.Internal.Correction.Weighted>
   9.000000E+99

> <Gold.Protein.RotatedTorsions>
[ 6907 6896 6895 6894 ] final   74.70 input  -60.11 | X-H torsion
[ 7974 7965 7964 7962 ] final  124.23 input  175.53 | X-H torsion
[ 8008 7997 7996 7995 ] final   22.11 input   59.86 | X-H torsion
[ 10167 10162 10161 10158 ] final  -59.19 input  -65.29 | X-H torsion
[ 10718 10713 10712 10709 ] final    7.07 input   66.30 | X-H torsion
[ 10763 10752 10751 10750 ] final   80.79 input  -60.55 | X-H torsion
[ 11005 11000 10999 10996 ] final  128.53 input  -57.11 | X-H torsion

> <Gold.Protein.ActiveResidues>
 VAL166  LYS551  ARG553  GLY616  TRP617  ASP618  TYR619  PRO620  LYS621  CYS622 
 ASP623  PHE694  ASN695  SER759  ASP760  ASP761  ALA762  ILE779  LEU786  VAL792 
 PHE793  MET794  SER795  GLU796  ALA797  LYS798  CYS799  TRP800  GLU811  SER814 

> <Gold.Protein.RotatedAtoms>
  152.4989  134.4231  159.9487 H   0  0  0  0  0  0  0  0  0  0  0  0  # atno 6907 bound_to 6896
  151.4205  133.3693  159.2763 H   0  0  0  0  0  0  0  0  0  0  0  0  # atno 6908 bound_to 6896
  150.9226  134.8665  159.7558 H   0  0  0  0  0  0  0  0  0  0  0  0  # atno 6909 bound_to 6896
  145.0868  139.3616  143.4881 H   0  0  0  0  0  0  0  0  0  0  0  0  # atno 7974 bound_to 7965
  154.9607  140.3077  155.5032 H   0  0  0  0  0  0  0  0  0  0  0  0  # atno 8008 bound_to 7997
  156.2977  140.2302  156.4631 H   0  0  0  0  0  0  0  0  0  0  0  0  # atno 8009 bound_to 7997
  154.7967  140.0436  157.1230 H   0  0  0  0  0  0  0  0  0  0  0  0  # atno 8010 bound_to 7997
  140.6150  143.2399  151.5618 H   0  0  0  0  0  0  0  0  0  0  0  0  # atno 10167 bound_to 10162
  156.9315  130.5828  149.5649 H   0  0  0  0  0  0  0  0  0  0  0  0  # atno 10718 bound_to 10713
  153.1062  135.4789  154.8955 H   0  0  0  0  0  0  0  0  0  0  0  0  # atno 10763 bound_to 10752
  154.7433  135.3087  154.8693 H   0  0  0  0  0  0  0  0  0  0  0  0  # atno 10764 bound_to 10752
  153.9294  135.6846  153.4799 H   0  0  0  0  0  0  0  0  0  0  0  0  # atno 10765 bound_to 10752
  139.9566  134.9611  156.9016 H   0  0  0  0  0  0  0  0  0  0  0  0  # atno 11005 bound_to 11000
  146.3531  140.0684  142.8625 LP  0  0  0  0  0  0  0  0  0  0  0  0  # atno 17320 bound_to 7965
  145.1113  140.9407  143.4655 LP  0  0  0  0  0  0  0  0  0  0  0  0  # atno 17321 bound_to 7965
  139.5392  144.2696  152.1315 LP  0  0  0  0  0  0  0  0  0  0  0  0  # atno 17342 bound_to 10162
  140.1903  144.4758  150.6482 LP  0  0  0  0  0  0  0  0  0  0  0  0  # atno 17343 bound_to 10162
  156.0445  130.5523  150.8848 LP  0  0  0  0  0  0  0  0  0  0  0  0  # atno 17370 bound_to 10713
  157.5843  131.0946  150.9221 LP  0  0  0  0  0  0  0  0  0  0  0  0  # atno 17371 bound_to 10713
  140.5596  134.0548  155.7394 LP  0  0  0  0  0  0  0  0  0  0  0  0  # atno 17394 bound_to 11000
  141.1238  133.9417  157.2677 LP  0  0  0  0  0  0  0  0  0  0  0  0  # atno 17395 bound_to 11000

$$$$
