AV-unprocessed.smi:77|AV-procd|sdf|771|dock6
  -GOLD-   2262017113D 1   1.00000     0.00000
 Structure written by MMmdl.
 57 61  0  0  0  0  0  0  0  0  1 V2000
  151.4252  142.0697  158.9075 O   0  0  0  0  0  0  0  0  0  0  0  0
  150.6625  142.3650  157.9863 C   0  0  0  0  0  0  0  0  0  0  0  0
  149.8029  141.2912  157.3061 C   0  0  0  0  0  0  0  0  0  0  0  0
  150.5996  140.2286  156.6830 N   0  0  0  0  0  0  0  0  0  0  0  0
  150.7476  139.1160  157.4375 C   0  0  0  0  0  0  0  0  0  0  0  0
  151.9822  138.5757  157.6142 N   0  0  0  0  0  0  0  0  0  0  0  0
  152.1254  137.4726  158.3557 C   0  0  0  0  0  0  0  0  0  0  0  0
  151.1884  136.7668  158.9939 N   0  0  0  0  0  0  0  0  0  0  0  0
  149.9508  137.3129  158.8171 C   0  0  0  0  0  0  0  0  0  0  0  0
  149.6452  138.4802  158.0651 C   0  0  0  0  0  0  0  0  0  0  0  0
  148.2818  138.7399  158.1160 N   0  0  0  0  0  0  0  0  0  0  0  0
  147.8040  137.7715  158.8491 C   0  0  0  0  0  0  0  0  0  0  0  0
  148.7360  136.8647  159.3033 N   0  0  0  0  0  0  0  0  0  0  0  0
  148.4867  135.6949  160.1256 C   0  0  0  0  0  0  0  0  0  0  0  0
  147.0635  135.6513  160.7442 C   0  0  2  0  0  0  0  0  0  0  0  0
  146.7913  136.8507  161.6884 C   0  0  0  0  0  0  0  0  0  0  0  0
  147.8091  137.0049  162.6563 O   0  0  0  0  0  0  0  0  0  0  0  0
  146.8332  134.3029  161.4755 C   0  0  2  0  0  0  0  0  0  0  0  0
  147.0995  133.0641  160.6358 C   0  0  0  0  0  0  0  0  0  0  0  0
  146.3618  131.9820  161.4138 C   0  0  0  0  0  0  0  0  0  0  0  0
  145.2189  132.6262  161.9615 O   0  0  0  0  0  0  0  0  0  0  0  0
  145.3814  134.0401  161.8998 C   0  0  0  0  0  0  0  0  0  0  0  0
  150.2943  139.9245  155.2919 C   0  0  0  0  0  0  0  0  0  0  0  0
  149.5985  140.9645  154.4438 C   0  0  0  0  0  0  0  0  0  0  0  0
  148.8499  139.7321  154.8987 C   0  0  0  0  0  0  0  0  0  0  0  0
  150.5409  143.6087  157.4999 N   0  0  0  0  0  0  0  0  0  0  0  0
  151.2371  144.7582  157.9802 C   0  0  0  0  0  0  0  0  0  0  0  0
  152.6949  144.5898  158.3507 C   0  0  0  0  0  0  0  0  0  0  0  0
  151.6649  144.7677  159.4318 C   0  0  0  0  0  0  0  0  0  0  0  0
  149.0916  140.8715  158.0199 H   0  0  0  0  0  0  0  0  0  0  0  0
  149.2064  141.7867  156.5387 H   0  0  0  0  0  0  0  0  0  0  0  0
  153.1347  137.0996  158.4483 H   0  0  0  0  0  0  0  0  0  0  0  0
  146.7505  137.6869  159.0723 H   0  0  0  0  0  0  0  0  0  0  0  0
  148.6615  134.8216  159.4971 H   0  0  0  0  0  0  0  0  0  0  0  0
  149.2385  135.6619  160.9153 H   0  0  0  0  0  0  0  0  0  0  0  0
  146.3397  135.6983  159.9287 H   0  0  0  0  0  0  0  0  0  0  0  0
  146.7535  137.7887  161.1370 H   0  0  0  0  0  0  0  0  0  0  0  0
  145.8267  136.7421  162.1851 H   0  0  0  0  0  0  0  0  0  0  0  0
  147.4506  136.8013  163.5068 H   0  0  0  0  0  0  0  0  0  0  0  0
  147.4686  134.2582  162.3619 H   0  0  0  0  0  0  0  0  0  0  0  0
  146.6624  133.1743  159.6422 H   0  0  0  0  0  0  0  0  0  0  0  0
  148.1598  132.8376  160.5210 H   0  0  0  0  0  0  0  0  0  0  0  0
  146.0831  131.1325  160.7898 H   0  0  0  0  0  0  0  0  0  0  0  0
  146.9810  131.6140  162.2329 H   0  0  0  0  0  0  0  0  0  0  0  0
  145.1386  134.4949  162.8602 H   0  0  0  0  0  0  0  0  0  0  0  0
  144.6833  134.4293  161.1575 H   0  0  0  0  0  0  0  0  0  0  0  0
  151.0159  139.2932  154.7762 H   0  0  0  0  0  0  0  0  0  0  0  0
  149.3322  141.9111  154.9100 H   0  0  0  0  0  0  0  0  0  0  0  0
  149.8801  141.0249  153.3947 H   0  0  0  0  0  0  0  0  0  0  0  0
  148.6308  138.9715  154.1523 H   0  0  0  0  0  0  0  0  0  0  0  0
  148.0933  139.8606  155.6705 H   0  0  0  0  0  0  0  0  0  0  0  0
  149.8971  143.7547  156.7358 H   0  0  0  0  0  0  0  0  0  0  0  0
  150.9643  145.7228  157.5541 H   0  0  0  0  0  0  0  0  0  0  0  0
  153.1389  143.6024  158.2380 H   0  0  0  0  0  0  0  0  0  0  0  0
  153.3629  145.4255  158.1514 H   0  0  0  0  0  0  0  0  0  0  0  0
  151.6441  145.7221  159.9540 H   0  0  0  0  0  0  0  0  0  0  0  0
  151.4198  143.8991  160.0401 H   0  0  0  0  0  0  0  0  0  0  0  0
  1  2  2  0  0  0  0
  2  3  1  0  0  0  0
  2 26  1  0  0  0  0
  3  4  1  0  0  0  0
  3 30  1  0  0  0  0
  3 31  1  0  0  0  0
  4  5  1  0  0  0  0
  4 23  1  0  0  0  0
  5 10  1  0  0  0  0
  5  6  2  0  0  0  0
  6  7  1  0  0  0  0
  7  8  2  0  0  0  0
  7 32  1  0  0  0  0
  8  9  1  0  0  0  0
  9 13  1  0  0  0  0
  9 10  2  0  0  0  0
 10 11  1  0  0  0  0
 11 12  2  0  0  0  0
 12 13  1  0  0  0  0
 12 33  1  0  0  0  0
 13 14  1  0  0  0  0
 14 15  1  0  0  0  0
 14 34  1  0  0  0  0
 14 35  1  0  0  0  0
 15 16  1  0  0  0  0
 15 18  1  0  0  0  0
 15 36  1  0  0  0  0
 16 17  1  0  0  0  0
 16 37  1  0  0  0  0
 16 38  1  0  0  0  0
 17 39  1  0  0  0  0
 18 22  1  0  0  0  0
 18 19  1  0  0  0  0
 18 40  1  0  0  0  0
 19 20  1  0  0  0  0
 19 41  1  0  0  0  0
 19 42  1  0  0  0  0
 20 21  1  0  0  0  0
 20 43  1  0  0  0  0
 20 44  1  0  0  0  0
 21 22  1  0  0  0  0
 22 45  1  0  0  0  0
 22 46  1  0  0  0  0
 23 25  1  0  0  0  0
 23 24  1  0  0  0  0
 23 47  1  0  0  0  0
 24 25  1  0  0  0  0
 24 48  1  0  0  0  0
 24 49  1  0  0  0  0
 25 50  1  0  0  0  0
 25 51  1  0  0  0  0
 26 27  1  0  0  0  0
 26 52  1  0  0  0  0
 27 29  1  0  0  0  0
 27 28  1  0  0  0  0
 27 53  1  0  0  0  0
 28 29  1  0  0  0  0
 28 54  1  0  0  0  0
 28 55  1  0  0  0  0
 29 56  1  0  0  0  0
 29 57  1  0  0  0  0
M  END
> <s_m_source_file>
AV-unprocessed.smi

> <i_m_source_file_index>
77

> <i_lp_mmshare_version>
43012

> <i_f3d_flags>
0

> <s_epik_input>
W0NIMl0xW0NIMl1bQ0hdMVtOSF1DKD1PKVtDSDJdTihbQ0hdMltDSDJdW0NIMl0yKWMobltjSF1uMyljKGMzNCluW2NIXW40W0NIMl1bQ0BIXShbQ0gyXVtPSF0pW0NAQEhdNVtDSDJdW0NIMl1PW0NIMl01

> <s_epik_cmdline>
J2VwaWtfcHl0aG9uJywgJy1waCcsICc3LjAnLCAnLXRuJywgJzgnLCAnLW1hJywgJzIwMCcsICctbWV0YWxfYmluZGluZycsICctaW1hZScsICc8aW5maWxlLm1hZT4nLCAnLW9tYWUnLCAnPG91dGZpbGUubWFlPic=

> <r_lp_tautomer_probability>
1

> <r_epik_Ionization_Penalty>
0.000703847

> <r_epik_Ionization_Penalty_Charging>
0

> <r_epik_Ionization_Penalty_Neutral>
0.000703847

> <r_epik_State_Penalty>
0.00034025

> <r_epik_Charging_Adjusted_Penalty>
0.00034025

> <i_epik_Tot_Q>
0

> <i_epik_Tot_abs_Q>
0

> <r_epik_Metal_State_Penalty>
-0

> <b_epik_Metal_Only>
0

> <s_lp_Force_Field>
OPLS_2005

> <r_lp_Energy>
55.2708

> <b_lp_Chiralities_Consistent>
1

> <s_lp_Variant>
AV-unprocessed.smi:77-1

> <Gold.Version>
5.8.1

> <Gold.Id.Protein>
6NUR|6NUR_protein|mol2

> <Gold.PLP.Fitness>
55.1335

> <Gold.PLP.PLP>
-48.8908

> <Gold.PLP.part.hbond>
-3.8336

> <Gold.PLP.part.metal>
0.0000

> <Gold.PLP.part.buried>
-6.1226

> <Gold.PLP.part.nonpolar>
-39.1415

> <Gold.PLP.part.repulsive>
0.0926

> <Gold.PLP.ligand.clash>
0.0000

> <Gold.PLP.ligand.torsion>
2.2480

> <Gold.PLP.Chemscore.Hbond>
2.8640

> <Gold.PLP.Chemscore.CHOScore>
0.0000

> <Gold.PLP.Chemscore.Metal>
0.0000

> <Gold.Chemscore.Hbonds>
donor molecule, donor type, donor heavy atom, donor atom, acceptor molecule, acceptor atom, score
      L1  H    26    52       P1  8028  1.00
      P1  H  6896  6907       L1     8  1.00
      P1  H  6931  6943       L1    17  0.90

> <Gold.PLP.Chemscore.Internal.Correction>
2.1468

> <Gold.Rescore>
     Score         DG    S(hbond)    S(metal)    S(lipo)     H(rot)  DE(clash)    DE(int)     intcor
     12.37     -17.37       2.71        0.00     106.88       3.77       0.26       4.74       ----

> <Gold.Chemscore.Fitness>
12.3730

> <Gold.Chemscore.DG>
-17.3739

> <Gold.Chemscore.ZeroCoef>
-5.4800

> <Gold.Chemscore.Hbond>
2.7077

> <Gold.Chemscore.Metal>
0.0000

> <Gold.Chemscore.Lipo>
106.8807

> <Gold.Chemscore.Internal_Hbond>
0.0000

> <Gold.Chemscore.DEClash>
0.2640

> <Gold.Chemscore.DEInternal>
4.7369

> <Gold.Chemscore.Rot>
3.7714

> <Gold.Chemscore.Internal.Correction>
   9.000000E+99

> <Gold.Chemscore.Hbonds>
donor molecule, donor type, donor heavy atom, donor atom, acceptor molecule, acceptor atom, score
      L1  H    26    52       P1  8028  0.97
      P1  H  6896  6907       L1     8  0.86
      P1  H  6931  6943       L1    17  0.49

> <Gold.Chemscore.Hbond.Weighted>
-9.0437

> <Gold.Chemscore.Metal.Weighted>
-0.0000

> <Gold.Chemscore.Lipo.Weighted>
-12.5050

> <Gold.Chemscore.Internal_Hbond.Weighted>
0.0000

> <Gold.Chemscore.DEClash.Weighted>
0.2640

> <Gold.Chemscore.DEInternal.Weighted>
4.7369

> <Gold.Chemscore.Rot.Weighted>
9.6548

> <Gold.Chemscore.Internal.Correction.Weighted>
   9.000000E+99

> <Gold.Protein.RotatedTorsions>
[ 6907 6896 6895 6894 ] final  -22.82 input  -60.11 | X-H torsion
[ 7974 7965 7964 7962 ] final  112.40 input  175.53 | X-H torsion
[ 8008 7997 7996 7995 ] final  150.87 input   59.86 | X-H torsion
[ 10167 10162 10161 10158 ] final   76.99 input  -65.29 | X-H torsion
[ 10718 10713 10712 10709 ] final  -24.98 input   66.30 | X-H torsion
[ 10763 10752 10751 10750 ] final   25.74 input  -60.55 | X-H torsion
[ 11005 11000 10999 10996 ] final  134.61 input  -57.11 | X-H torsion

> <Gold.Protein.ActiveResidues>
 VAL166  LYS551  ARG553  GLY616  TRP617  ASP618  TYR619  PRO620  LYS621  CYS622 
 ASP623  PHE694  ASN695  SER759  ASP760  ASP761  ALA762  ILE779  LEU786  VAL792 
 PHE793  MET794  SER795  GLU796  ALA797  LYS798  CYS799  TRP800  GLU811  SER814 

> <Gold.Protein.RotatedAtoms>
  151.2130  135.0489  159.8918 H   0  0  0  0  0  0  0  0  0  0  0  0  # atno 6907 bound_to 6896
  152.5423  134.0723  159.8210 H   0  0  0  0  0  0  0  0  0  0  0  0  # atno 6908 bound_to 6896
  151.0879  133.5290  159.2648 H   0  0  0  0  0  0  0  0  0  0  0  0  # atno 6909 bound_to 6896
  145.2300  139.2823  143.4173 H   0  0  0  0  0  0  0  0  0  0  0  0  # atno 7974 bound_to 7965
  156.2698  140.2063  156.6086 H   0  0  0  0  0  0  0  0  0  0  0  0  # atno 8008 bound_to 7997
  154.6850  140.0536  157.0328 H   0  0  0  0  0  0  0  0  0  0  0  0  # atno 8009 bound_to 7997
  155.0947  140.3200  155.4566 H   0  0  0  0  0  0  0  0  0  0  0  0  # atno 8010 bound_to 7997
  139.9863  144.5789  150.7856 H   0  0  0  0  0  0  0  0  0  0  0  0  # atno 10167 bound_to 10162
  156.4704  130.4523  149.6873 H   0  0  0  0  0  0  0  0  0  0  0  0  # atno 10718 bound_to 10713
  153.0671  135.6576  154.0331 H   0  0  0  0  0  0  0  0  0  0  0  0  # atno 10763 bound_to 10752
  153.9985  135.2939  155.3406 H   0  0  0  0  0  0  0  0  0  0  0  0  # atno 10764 bound_to 10752
  154.7032  135.5236  153.8626 H   0  0  0  0  0  0  0  0  0  0  0  0  # atno 10765 bound_to 10752
  139.9926  134.9509  156.9890 H   0  0  0  0  0  0  0  0  0  0  0  0  # atno 11005 bound_to 11000
  146.3355  140.2632  142.8603 LP  0  0  0  0  0  0  0  0  0  0  0  0  # atno 17320 bound_to 7965
  144.9685  140.8345  143.5470 LP  0  0  0  0  0  0  0  0  0  0  0  0  # atno 17321 bound_to 7965
  140.7471  143.2901  151.3355 LP  0  0  0  0  0  0  0  0  0  0  0  0  # atno 17342 bound_to 10162
  139.6372  144.0607  152.2525 LP  0  0  0  0  0  0  0  0  0  0  0  0  # atno 17343 bound_to 10162
  156.3624  130.7488  151.2462 LP  0  0  0  0  0  0  0  0  0  0  0  0  # atno 17370 bound_to 10713
  157.7491  131.0346  150.4326 LP  0  0  0  0  0  0  0  0  0  0  0  0  # atno 17371 bound_to 10713
  140.4880  134.1222  155.7228 LP  0  0  0  0  0  0  0  0  0  0  0  0  # atno 17394 bound_to 11000
  141.1578  133.8850  157.1930 LP  0  0  0  0  0  0  0  0  0  0  0  0  # atno 17395 bound_to 11000

$$$$
