AV-unprocessed.smi:21|AV-procd|sdf|151|dock9
  -GOLD-   2262015373D 1   1.00000     0.00000
 Structure written by MMmdl.
 62 65  0  0  0  0  0  0  0  0  2 V2000
  143.4443  133.3457  151.5850 C   0  0  0  0  0  0  0  0  0  0  0  0
  143.7098  134.6886  151.9596 O   0  0  0  0  0  0  0  0  0  0  0  0
  144.8452  135.2495  151.3136 C   0  0  1  0  0  0  0  0  0  0  0  0
  145.1322  136.6098  151.9371 C   0  0  0  0  0  0  0  0  0  0  0  0
  145.9564  136.2710  153.1824 C   0  0  2  0  0  0  0  0  0  0  0  0
  146.8332  137.4344  153.6893 C   0  0  0  0  0  0  0  0  0  0  0  0
  146.0995  138.3508  154.5653 N   0  0  0  0  0  0  0  0  0  0  0  0
  144.6430  138.3135  154.5240 C   0  0  0  0  0  0  0  0  0  0  0  0
  146.7372  139.4198  155.1225 C   0  0  0  0  0  0  0  0  0  0  0  0
  145.9846  140.3403  155.7832 N   0  0  0  0  0  0  0  0  0  0  0  0
  146.5490  141.4072  156.3543 C   0  0  0  0  0  0  0  0  0  0  0  0
  147.8370  141.7461  156.3931 N   0  0  0  0  0  0  0  0  0  0  0  0
  148.6057  140.8319  155.7373 C   0  0  0  0  0  0  0  0  0  0  0  0
  148.1470  139.6547  155.0760 C   0  0  0  0  0  0  0  0  0  0  0  0
  149.2372  138.9803  154.5333 N   0  0  0  0  0  0  0  0  0  0  0  0
  150.2689  139.7145  154.8462 C   0  0  0  0  0  0  0  0  0  0  0  0
  149.9800  140.8402  155.5808 N   0  0  0  0  0  0  0  0  0  0  0  0
  150.9233  141.8272  156.0754 C   0  0  0  0  0  0  0  0  0  0  0  0
  150.9958  141.8576  157.6241 C   0  0  1  0  0  0  0  0  0  0  0  0
  151.3224  140.4601  158.1998 C   0  0  0  0  0  0  0  0  0  0  0  0
  150.3265  139.5189  157.8573 O   0  0  0  0  0  0  0  0  0  0  0  0
  151.9523  142.9502  158.1765 C   0  0  1  0  0  0  0  0  0  0  0  0
  151.6765  144.3814  157.7274 C   0  0  0  0  0  0  0  0  0  0  0  0
  152.2416  145.1954  158.8825 C   0  0  0  0  0  0  0  0  0  0  0  0
  151.8501  144.4382  160.0152 O   0  0  0  0  0  0  0  0  0  0  0  0
  152.0223  143.0583  159.7109 C   0  0  0  0  0  0  0  0  0  0  0  0
  146.7761  135.1038  152.7836 N   0  3  1  0  0  0  0  0  0  0  0  0
  147.1038  134.1851  153.8960 C   0  0  0  0  0  0  0  0  0  0  0  0
  146.1096  134.4380  151.6382 C   0  0  0  0  0  0  0  0  0  0  0  0
  144.6723  135.3436  150.2401 H   0  0  0  0  0  0  0  0  0  0  0  0
  145.2688  135.9534  153.9686 H   0  0  0  0  0  0  0  0  0  0  0  0
  142.5775  132.9793  152.1349 H   0  0  0  0  0  0  0  0  0  0  0  0
  144.2839  132.6872  151.8082 H   0  0  0  0  0  0  0  0  0  0  0  0
  143.2194  133.2732  150.5200 H   0  0  0  0  0  0  0  0  0  0  0  0
  145.7283  137.2046  151.2435 H   0  0  0  0  0  0  0  0  0  0  0  0
  144.2266  137.1735  152.1646 H   0  0  0  0  0  0  0  0  0  0  0  0
  147.6667  137.0320  154.2656 H   0  0  0  0  0  0  0  0  0  0  0  0
  147.2975  137.9522  152.8498 H   0  0  0  0  0  0  0  0  0  0  0  0
  144.2193  138.5499  155.5005 H   0  0  0  0  0  0  0  0  0  0  0  0
  144.2888  137.3205  154.2457 H   0  0  0  0  0  0  0  0  0  0  0  0
  144.2596  139.0226  153.7895 H   0  0  0  0  0  0  0  0  0  0  0  0
  145.8719  142.0863  156.8516 H   0  0  0  0  0  0  0  0  0  0  0  0
  151.2751  139.4473  154.5573 H   0  0  0  0  0  0  0  0  0  0  0  0
  151.9009  141.6050  155.6475 H   0  0  0  0  0  0  0  0  0  0  0  0
  150.6248  142.7935  155.6708 H   0  0  0  0  0  0  0  0  0  0  0  0
  149.9990  142.1203  157.9821 H   0  0  0  0  0  0  0  0  0  0  0  0
  152.2665  140.0842  157.8064 H   0  0  0  0  0  0  0  0  0  0  0  0
  151.4247  140.5004  159.2845 H   0  0  0  0  0  0  0  0  0  0  0  0
  149.5115  139.7841  158.2560 H   0  0  0  0  0  0  0  0  0  0  0  0
  152.9653  142.7079  157.8525 H   0  0  0  0  0  0  0  0  0  0  0  0
  152.1427  144.6244  156.7723 H   0  0  0  0  0  0  0  0  0  0  0  0
  150.6095  144.5818  157.6417 H   0  0  0  0  0  0  0  0  0  0  0  0
  153.3304  145.2474  158.8312 H   0  0  0  0  0  0  0  0  0  0  0  0
  151.8459  146.2107  158.9187 H   0  0  0  0  0  0  0  0  0  0  0  0
  151.2703  142.4644  160.2292 H   0  0  0  0  0  0  0  0  0  0  0  0
  152.9976  142.7282  160.0705 H   0  0  0  0  0  0  0  0  0  0  0  0
  146.2010  133.7388  154.3155 H   0  0  0  0  0  0  0  0  0  0  0  0
  147.6272  134.7129  154.6935 H   0  0  0  0  0  0  0  0  0  0  0  0
  147.7522  133.3812  153.5461 H   0  0  0  0  0  0  0  0  0  0  0  0
  145.8893  133.3883  151.8351 H   0  0  0  0  0  0  0  0  0  0  0  0
  146.7988  134.4674  150.7938 H   0  0  0  0  0  0  0  0  0  0  0  0
  147.6473  135.4705  152.4273 H   0  0  0  0  0  0  0  0  0  0  0  0
  1  2  1  0  0  0  0
  1 32  1  0  0  0  0
  1 33  1  0  0  0  0
  1 34  1  0  0  0  0
  2  3  1  0  0  0  0
  3 30  1  0  0  0  0
  3 29  1  0  0  0  0
  3  4  1  0  0  0  0
  4  5  1  0  0  0  0
  4 35  1  0  0  0  0
  4 36  1  0  0  0  0
  5 31  1  0  0  0  0
  5  6  1  0  0  0  0
  5 27  1  0  0  0  0
  6  7  1  0  0  0  0
  6 37  1  0  0  0  0
  6 38  1  0  0  0  0
  7  8  1  0  0  0  0
  7  9  1  0  0  0  0
  8 39  1  0  0  0  0
  8 40  1  0  0  0  0
  8 41  1  0  0  0  0
  9 14  1  0  0  0  0
  9 10  2  0  0  0  0
 10 11  1  0  0  0  0
 11 12  2  0  0  0  0
 11 42  1  0  0  0  0
 12 13  1  0  0  0  0
 13 17  1  0  0  0  0
 13 14  2  0  0  0  0
 14 15  1  0  0  0  0
 15 16  2  0  0  0  0
 16 17  1  0  0  0  0
 16 43  1  0  0  0  0
 17 18  1  0  0  0  0
 18 19  1  0  0  0  0
 18 44  1  0  0  0  0
 18 45  1  0  0  0  0
 19 20  1  0  0  0  0
 19 22  1  0  0  0  0
 19 46  1  0  0  0  0
 20 21  1  0  0  0  0
 20 47  1  0  0  0  0
 20 48  1  0  0  0  0
 21 49  1  0  0  0  0
 22 26  1  0  0  0  0
 22 23  1  0  0  0  0
 22 50  1  0  0  0  0
 23 24  1  0  0  0  0
 23 51  1  0  0  0  0
 23 52  1  0  0  0  0
 24 25  1  0  0  0  0
 24 53  1  0  0  0  0
 24 54  1  0  0  0  0
 25 26  1  0  0  0  0
 26 55  1  0  0  0  0
 26 56  1  0  0  0  0
 27 28  1  0  0  0  0
 27 29  1  0  0  0  0
 27 62  1  0  0  0  0
 28 57  1  0  0  0  0
 28 58  1  0  0  0  0
 28 59  1  0  0  0  0
 29 60  1  0  0  0  0
 29 61  1  0  0  0  0
M  CHG  1  27   1
M  END
> <s_m_source_file>
AV-unprocessed.smi

> <i_m_source_file_index>
21

> <i_lp_mmshare_version>
43012

> <i_f3d_flags>
0

> <s_epik_input>
W0NIM11PW0NASF0xW0NIMl1bQ0BIXShOKFtDSDNdKVtDSDJdMSlbQ0gyXU4oW0NIM10pYyhuW2NIXW4yKWMoYzIzKW5bY0hdbjNbQ0gyXVtDQEhdKFtDSDJdW09IXSlbQ0BASF00W0NIMl1bQ0gyXU9bQ0gyXTQ=

> <s_epik_cmdline>
J2VwaWtfcHl0aG9uJywgJy1waCcsICc3LjAnLCAnLXRuJywgJzgnLCAnLW1hJywgJzIwMCcsICctbWV0YWxfYmluZGluZycsICctaW1hZScsICc8aW5maWxlLm1hZT4nLCAnLW9tYWUnLCAnPG91dGZpbGUubWFlPic=

> <r_lp_tautomer_probability>
1

> <r_epik_Ionization_Penalty>
0.0157465

> <r_epik_Ionization_Penalty_Charging>
0.015354

> <r_epik_Ionization_Penalty_Neutral>
0.000392529

> <r_epik_State_Penalty>
0.0120612

> <r_epik_Charging_Adjusted_Penalty>
0.0274152

> <i_epik_Tot_Q>
1

> <i_epik_Tot_abs_Q>
1

> <r_epik_Metal_State_Penalty>
0.0121253

> <b_epik_Metal_Only>
0

> <s_lp_Force_Field>
OPLS_2005

> <r_lp_Energy>
59.9021

> <b_lp_Chiralities_Consistent>
1

> <s_lp_Variant>
AV-unprocessed.smi:21-31

> <Gold.Version>
5.8.1

> <Gold.Id.Protein>
6NUR|6NUR_protein|mol2

> <Gold.PLP.Fitness>
47.0600

> <Gold.PLP.PLP>
-41.7044

> <Gold.PLP.part.hbond>
-1.0000

> <Gold.PLP.part.metal>
0.0000

> <Gold.PLP.part.buried>
-5.4627

> <Gold.PLP.part.nonpolar>
-35.3807

> <Gold.PLP.part.repulsive>
0.5292

> <Gold.PLP.ligand.clash>
0.0000

> <Gold.PLP.ligand.torsion>
0.5017

> <Gold.PLP.Chemscore.Hbond>
2.0000

> <Gold.PLP.Chemscore.CHOScore>
0.0000

> <Gold.PLP.Chemscore.Metal>
0.0000

> <Gold.Chemscore.Hbonds>
donor molecule, donor type, donor heavy atom, donor atom, acceptor molecule, acceptor atom, score
      L1  H    27    62       P1  7948  2.00

> <Gold.PLP.Chemscore.Internal.Correction>
0.3590

> <Gold.Rescore>
     Score         DG    S(hbond)    S(metal)    S(lipo)     H(rot)  DE(clash)    DE(int)     intcor
      9.67     -12.87       1.00        0.00     102.04       3.08       0.10       3.10       ----

> <Gold.Chemscore.Fitness>
9.6703

> <Gold.Chemscore.DG>
-12.8692

> <Gold.Chemscore.ZeroCoef>
-5.4800

> <Gold.Chemscore.Hbond>
0.9953

> <Gold.Chemscore.Metal>
0.0000

> <Gold.Chemscore.Lipo>
102.0424

> <Gold.Chemscore.Internal_Hbond>
0.0000

> <Gold.Chemscore.DEClash>
0.0990

> <Gold.Chemscore.DEInternal>
3.1000

> <Gold.Chemscore.Rot>
3.0758

> <Gold.Chemscore.Internal.Correction>
   9.000000E+99

> <Gold.Chemscore.Hbonds>
donor molecule, donor type, donor heavy atom, donor atom, acceptor molecule, acceptor atom, score
      L1  H    27    62       P1  7948  0.98

> <Gold.Chemscore.Hbond.Weighted>
-3.3244

> <Gold.Chemscore.Metal.Weighted>
-0.0000

> <Gold.Chemscore.Lipo.Weighted>
-11.9390

> <Gold.Chemscore.Internal_Hbond.Weighted>
0.0000

> <Gold.Chemscore.DEClash.Weighted>
0.0990

> <Gold.Chemscore.DEInternal.Weighted>
3.1000

> <Gold.Chemscore.Rot.Weighted>
7.8741

> <Gold.Chemscore.Internal.Correction.Weighted>
   9.000000E+99

> <Gold.Protein.RotatedTorsions>
[ 6907 6896 6895 6894 ] final -148.19 input  -60.11 | X-H torsion
[ 7974 7965 7964 7962 ] final -114.25 input  175.53 | X-H torsion
[ 8008 7997 7996 7995 ] final -146.44 input   59.86 | X-H torsion
[ 10167 10162 10161 10158 ] final   38.79 input  -65.29 | X-H torsion
[ 10718 10713 10712 10709 ] final   80.66 input   66.30 | X-H torsion
[ 10763 10752 10751 10750 ] final -156.42 input  -60.55 | X-H torsion
[ 11005 11000 10999 10996 ] final   -7.76 input  -57.11 | X-H torsion

> <Gold.Protein.ActiveResidues>
 VAL166  LYS551  ARG553  GLY616  TRP617  ASP618  TYR619  PRO620  LYS621  CYS622 
 ASP623  PHE694  ASN695  SER759  ASP760  ASP761  ALA762  ILE779  LEU786  VAL792 
 PHE793  MET794  SER795  GLU796  ALA797  LYS798  CYS799  TRP800  GLU811  SER814 

> <Gold.Protein.RotatedAtoms>
  151.1662  133.4813  159.2593 H   0  0  0  0  0  0  0  0  0  0  0  0  # atno 6907 bound_to 6896
  151.1403  135.0175  159.8632 H   0  0  0  0  0  0  0  0  0  0  0  0  # atno 6908 bound_to 6896
  152.5462  134.1557  159.8590 H   0  0  0  0  0  0  0  0  0  0  0  0  # atno 6909 bound_to 6896
  145.1224  140.8677  143.3806 H   0  0  0  0  0  0  0  0  0  0  0  0  # atno 7974 bound_to 7965
  155.5594  140.0624  157.2832 H   0  0  0  0  0  0  0  0  0  0  0  0  # atno 8008 bound_to 7997
  154.4395  140.1888  156.0812 H   0  0  0  0  0  0  0  0  0  0  0  0  # atno 8009 bound_to 7997
  156.0458  140.3290  155.7298 H   0  0  0  0  0  0  0  0  0  0  0  0  # atno 8010 bound_to 7997
  140.3903  144.1862  150.6131 H   0  0  0  0  0  0  0  0  0  0  0  0  # atno 10167 bound_to 10162
  157.6812  130.9969  150.2112 H   0  0  0  0  0  0  0  0  0  0  0  0  # atno 10718 bound_to 10713
  154.7714  135.3146  154.8181 H   0  0  0  0  0  0  0  0  0  0  0  0  # atno 10763 bound_to 10752
  153.8915  135.6825  153.4764 H   0  0  0  0  0  0  0  0  0  0  0  0  # atno 10764 bound_to 10752
  153.1329  135.4772  154.9311 H   0  0  0  0  0  0  0  0  0  0  0  0  # atno 10765 bound_to 10752
  140.7162  133.8867  155.8787 H   0  0  0  0  0  0  0  0  0  0  0  0  # atno 11005 bound_to 11000
  145.0725  139.3020  143.5824 LP  0  0  0  0  0  0  0  0  0  0  0  0  # atno 17320 bound_to 7965
  146.3520  140.0205  142.8659 LP  0  0  0  0  0  0  0  0  0  0  0  0  # atno 17321 bound_to 7965
  140.4847  143.2367  151.8905 LP  0  0  0  0  0  0  0  0  0  0  0  0  # atno 17342 bound_to 10162
  139.4789  144.5231  151.8773 LP  0  0  0  0  0  0  0  0  0  0  0  0  # atno 17343 bound_to 10162
  156.2782  130.3730  149.7962 LP  0  0  0  0  0  0  0  0  0  0  0  0  # atno 17370 bound_to 10713
  156.5658  130.8403  151.3342 LP  0  0  0  0  0  0  0  0  0  0  0  0  # atno 17371 bound_to 10713
  141.0042  134.1108  157.4286 LP  0  0  0  0  0  0  0  0  0  0  0  0  # atno 17394 bound_to 11000
  139.8859  135.0077  156.6466 LP  0  0  0  0  0  0  0  0  0  0  0  0  # atno 17395 bound_to 11000

$$$$
