AV-unprocessed.smi:1791|AV-procd|sdf|7221|dock5
  -GOLD-   22720 8463D 1   1.00000     0.00000
 Structure written by MMmdl.
 38 39  0  0  0  0  0  0  0  0  1 V2000
  147.4432  129.7360  153.3236 C   0  0  0  0  0  0  0  0  0  0  0  0
  148.4711  130.0664  154.2512 O   0  0  0  0  0  0  0  0  0  0  0  0
  148.9089  131.3738  154.3053 C   0  0  0  0  0  0  0  0  0  0  0  0
  149.9716  131.6939  155.1735 C   0  0  0  0  0  0  0  0  0  0  0  0
  150.4246  133.0257  155.2343 C   0  0  0  0  0  0  0  0  0  0  0  0
  149.7927  134.0004  154.4256 C   0  0  0  0  0  0  0  0  0  0  0  0
  150.1727  135.3684  154.3782 N   0  0  0  0  0  0  0  0  0  0  0  0
  151.0266  136.0277  155.1794 C   0  0  0  0  0  0  0  0  0  0  0  0
  151.6026  135.5456  156.1544 O   0  0  0  0  0  0  0  0  0  0  0  0
  151.1571  137.3055  154.7943 N   0  0  0  0  0  0  0  0  0  0  0  0
  151.9976  138.3150  155.4360 C   0  0  1  0  0  0  0  0  0  0  0  0
  153.0424  138.8049  154.4229 C   0  0  0  0  0  0  0  0  0  0  0  0
  151.1296  139.4720  155.9701 C   0  0  1  0  0  0  0  0  0  0  0  0
  151.8995  140.5832  156.6851 C   0  0  0  0  0  0  0  0  0  0  0  0
  150.9748  141.7833  156.5650 C   0  0  0  0  0  0  0  0  0  0  0  0
  150.0278  141.4096  155.4203 C   0  0  0  0  0  0  0  0  0  0  0  0
  150.5245  140.1827  154.9015 O   0  0  0  0  0  0  0  0  0  0  0  0
  148.7472  133.5745  153.5806 C   0  0  0  0  0  0  0  0  0  0  0  0
  148.3068  132.3002  153.5191 N   0  0  0  0  0  0  0  0  0  0  0  0
  147.2185  128.6723  153.3981 H   0  0  0  0  0  0  0  0  0  0  0  0
  147.7509  129.9371  152.2964 H   0  0  0  0  0  0  0  0  0  0  0  0
  146.5241  130.2841  153.5363 H   0  0  0  0  0  0  0  0  0  0  0  0
  150.4360  130.9296  155.7791 H   0  0  0  0  0  0  0  0  0  0  0  0
  151.2521  133.2669  155.8832 H   0  0  0  0  0  0  0  0  0  0  0  0
  149.7060  135.9227  153.6754 H   0  0  0  0  0  0  0  0  0  0  0  0
  150.6330  137.6076  153.9862 H   0  0  0  0  0  0  0  0  0  0  0  0
  152.5368  137.8730  156.2758 H   0  0  0  0  0  0  0  0  0  0  0  0
  153.7182  139.5309  154.8756 H   0  0  0  0  0  0  0  0  0  0  0  0
  152.5710  139.2812  153.5626 H   0  0  0  0  0  0  0  0  0  0  0  0
  153.6504  137.9780  154.0548 H   0  0  0  0  0  0  0  0  0  0  0  0
  150.3451  139.0872  156.6251 H   0  0  0  0  0  0  0  0  0  0  0  0
  152.1410  140.3356  157.7191 H   0  0  0  0  0  0  0  0  0  0  0  0
  152.8339  140.7889  156.1610 H   0  0  0  0  0  0  0  0  0  0  0  0
  150.4120  141.9400  157.4860 H   0  0  0  0  0  0  0  0  0  0  0  0
  151.5345  142.6951  156.3540 H   0  0  0  0  0  0  0  0  0  0  0  0
  149.0149  141.2576  155.7952 H   0  0  0  0  0  0  0  0  0  0  0  0
  149.9911  142.1723  154.6423 H   0  0  0  0  0  0  0  0  0  0  0  0
  148.2435  134.2782  152.9342 H   0  0  0  0  0  0  0  0  0  0  0  0
  1  2  1  0  0  0  0
  1 20  1  0  0  0  0
  1 21  1  0  0  0  0
  1 22  1  0  0  0  0
  2  3  1  0  0  0  0
  3 19  1  0  0  0  0
  3  4  2  0  0  0  0
  4  5  1  0  0  0  0
  4 23  1  0  0  0  0
  5  6  2  0  0  0  0
  5 24  1  0  0  0  0
  6  7  1  0  0  0  0
  6 18  1  0  0  0  0
  7  8  1  0  0  0  0
  7 25  1  0  0  0  0
  8  9  2  0  0  0  0
  8 10  1  0  0  0  0
 10 11  1  0  0  0  0
 10 26  1  0  0  0  0
 11 12  1  0  0  0  0
 11 13  1  0  0  0  0
 11 27  1  0  0  0  0
 12 28  1  0  0  0  0
 12 29  1  0  0  0  0
 12 30  1  0  0  0  0
 13 17  1  0  0  0  0
 13 14  1  0  0  0  0
 13 31  1  0  0  0  0
 14 15  1  0  0  0  0
 14 32  1  0  0  0  0
 14 33  1  0  0  0  0
 15 16  1  0  0  0  0
 15 34  1  0  0  0  0
 15 35  1  0  0  0  0
 16 17  1  0  0  0  0
 16 36  1  0  0  0  0
 16 37  1  0  0  0  0
 18 19  2  0  0  0  0
 18 38  1  0  0  0  0
M  END
> <s_m_source_file>
AV-unprocessed.smi

> <i_m_source_file_index>
1791

> <i_lp_mmshare_version>
43012

> <i_f3d_flags>
0

> <s_epik_input>
W0NIM11PYzFbY0hdW2NIXWMoW2NIXW4xKVtOSF1DKD1PKVtOSF1bQ0BIXShbQ0gzXSlbQ0BASF0yW0NIMl1bQ0gyXVtDSDJdTzI=

> <s_epik_cmdline>
J2VwaWtfcHl0aG9uJywgJy1waCcsICc3LjAnLCAnLXRuJywgJzgnLCAnLW1hJywgJzIwMCcsICctbWV0YWxfYmluZGluZycsICctaW1hZScsICc8aW5maWxlLm1hZT4nLCAnLW9tYWUnLCAnPG91dGZpbGUubWFlPic=

> <r_lp_tautomer_probability>
1

> <r_epik_Ionization_Penalty>
9.18737e-05

> <r_epik_Ionization_Penalty_Charging>
0

> <r_epik_Ionization_Penalty_Neutral>
9.18737e-05

> <r_epik_State_Penalty>
-0

> <r_epik_Charging_Adjusted_Penalty>
0

> <i_epik_Tot_Q>
0

> <i_epik_Tot_abs_Q>
0

> <r_epik_Metal_State_Penalty>
-0

> <b_epik_Metal_Only>
0

> <s_lp_Force_Field>
OPLS_2005

> <r_lp_Energy>
20.4699

> <b_lp_Chiralities_Consistent>
1

> <s_lp_Variant>
AV-unprocessed.smi:1791-4

> <Gold.Version>
5.8.1

> <Gold.Id.Protein>
6NUR|6NUR_protein|mol2

> <Gold.PLP.Fitness>
42.5390

> <Gold.PLP.PLP>
-31.7031

> <Gold.PLP.part.hbond>
-3.6816

> <Gold.PLP.part.metal>
0.0000

> <Gold.PLP.part.buried>
-2.1979

> <Gold.PLP.part.nonpolar>
-23.9099

> <Gold.PLP.part.repulsive>
0.3911

> <Gold.PLP.ligand.clash>
0.0000

> <Gold.PLP.ligand.torsion>
0.0474

> <Gold.PLP.Chemscore.Hbond>
2.6340

> <Gold.PLP.Chemscore.CHOScore>
1.0000

> <Gold.PLP.Chemscore.Metal>
0.0000

> <Gold.Chemscore.Hbonds>
donor molecule, donor type, donor heavy atom, donor atom, acceptor molecule, acceptor atom, score
      L1  H     7    25       P1  7948  0.95
      P1  H  7989  7998       L1    17  0.95
      P1  H 10752 10765       L1     9  0.64
      L1  C    18    38       P1  7948  1.00

> <Gold.PLP.Chemscore.Internal.Correction>
0.0287

> <Gold.Rescore>
     Score         DG    S(hbond)    S(metal)    S(lipo)     H(rot)  DE(clash)    DE(int)     intcor
     11.20     -12.64       0.91        0.00      67.22       1.47       0.16       1.27       ----

> <Gold.Chemscore.Fitness>
11.2014

> <Gold.Chemscore.DG>
-12.6360

> <Gold.Chemscore.ZeroCoef>
-5.4800

> <Gold.Chemscore.Hbond>
0.9139

> <Gold.Chemscore.Metal>
0.0000

> <Gold.Chemscore.Lipo>
67.2218

> <Gold.Chemscore.Internal_Hbond>
0.0000

> <Gold.Chemscore.DEClash>
0.1618

> <Gold.Chemscore.DEInternal>
1.2728

> <Gold.Chemscore.Rot>
1.4693

> <Gold.Chemscore.Internal.Correction>
   9.000000E+99

> <Gold.Chemscore.Hbonds>
donor molecule, donor type, donor heavy atom, donor atom, acceptor molecule, acceptor atom, score
      L1  H     7    25       P1  7948  0.21
      P1  H  7989  7998       L1    17  0.21
      P1  H 10752 10765       L1     9  0.06

> <Gold.Chemscore.Hbond.Weighted>
-3.0523

> <Gold.Chemscore.Metal.Weighted>
-0.0000

> <Gold.Chemscore.Lipo.Weighted>
-7.8650

> <Gold.Chemscore.Internal_Hbond.Weighted>
0.0000

> <Gold.Chemscore.DEClash.Weighted>
0.1618

> <Gold.Chemscore.DEInternal.Weighted>
1.2728

> <Gold.Chemscore.Rot.Weighted>
3.7613

> <Gold.Chemscore.Internal.Correction.Weighted>
   9.000000E+99

> <Gold.Protein.RotatedTorsions>
[ 6907 6896 6895 6894 ] final  -90.02 input  -60.11 | X-H torsion
[ 7974 7965 7964 7962 ] final  165.35 input  175.53 | X-H torsion
[ 8008 7997 7996 7995 ] final   85.10 input   59.86 | X-H torsion
[ 10167 10162 10161 10158 ] final -177.17 input  -65.29 | X-H torsion
[ 10718 10713 10712 10709 ] final   28.04 input   66.30 | X-H torsion
[ 10763 10752 10751 10750 ] final -131.91 input  -60.55 | X-H torsion
[ 11005 11000 10999 10996 ] final  106.90 input  -57.11 | X-H torsion

> <Gold.Protein.ActiveResidues>
 VAL166  LYS551  ARG553  GLY616  TRP617  ASP618  TYR619  PRO620  LYS621  CYS622 
 ASP623  PHE694  ASN695  SER759  ASP760  ASP761  ALA762  ILE779  LEU786  VAL792 
 PHE793  MET794  SER795  GLU796  ALA797  LYS798  CYS799  TRP800  GLU811  SER814 

> <Gold.Protein.RotatedAtoms>
  150.6878  134.2497  159.4505 H   0  0  0  0  0  0  0  0  0  0  0  0  # atno 6907 bound_to 6896
  152.0435  134.9694  160.0583 H   0  0  0  0  0  0  0  0  0  0  0  0  # atno 6908 bound_to 6896
  152.1187  133.4306  159.4702 H   0  0  0  0  0  0  0  0  0  0  0  0  # atno 6909 bound_to 6896
  144.7506  139.8458  143.6367 H   0  0  0  0  0  0  0  0  0  0  0  0  # atno 7974 bound_to 7965
  155.9456  140.3405  155.6364 H   0  0  0  0  0  0  0  0  0  0  0  0  # atno 8008 bound_to 7997
  155.6984  140.0757  157.2438 H   0  0  0  0  0  0  0  0  0  0  0  0  # atno 8009 bound_to 7997
  154.4111  140.1644  156.2151 H   0  0  0  0  0  0  0  0  0  0  0  0  # atno 8010 bound_to 7997
  139.5493  144.2151  152.1047 H   0  0  0  0  0  0  0  0  0  0  0  0  # atno 10167 bound_to 10162
  157.2282  130.7011  149.6301 H   0  0  0  0  0  0  0  0  0  0  0  0  # atno 10718 bound_to 10713
  154.8747  135.3815  154.4323 H   0  0  0  0  0  0  0  0  0  0  0  0  # atno 10763 bound_to 10752
  153.5016  135.7030  153.5834 H   0  0  0  0  0  0  0  0  0  0  0  0  # atno 10764 bound_to 10752
  153.4163  135.3912  155.2049 H   0  0  0  0  0  0  0  0  0  0  0  0  # atno 10765 bound_to 10752
  139.8820  134.9384  156.5737 H   0  0  0  0  0  0  0  0  0  0  0  0  # atno 11005 bound_to 11000
  146.1451  139.4518  143.0084 LP  0  0  0  0  0  0  0  0  0  0  0  0  # atno 17320 bound_to 7965
  145.6958  141.0151  143.1531 LP  0  0  0  0  0  0  0  0  0  0  0  0  # atno 17321 bound_to 7965
  140.1644  144.4995  150.6614 LP  0  0  0  0  0  0  0  0  0  0  0  0  # atno 17342 bound_to 10162
  140.6751  143.2302  151.5527 LP  0  0  0  0  0  0  0  0  0  0  0  0  # atno 17343 bound_to 10162
  155.9677  130.4497  150.5670 LP  0  0  0  0  0  0  0  0  0  0  0  0  # atno 17370 bound_to 10713
  157.3506  131.0733  151.1716 LP  0  0  0  0  0  0  0  0  0  0  0  0  # atno 17371 bound_to 10713
  140.8079  133.8453  155.8784 LP  0  0  0  0  0  0  0  0  0  0  0  0  # atno 17394 bound_to 11000
  140.9533  134.1750  157.4711 LP  0  0  0  0  0  0  0  0  0  0  0  0  # atno 17395 bound_to 11000

$$$$
