AV-unprocessed.smi:3340|AV-procd|sdf|12879|dock6
  -GOLD-   2272019283D 1   1.00000     0.00000
 Structure written by MMmdl.
 42 43  0  0  0  0  0  0  0  0  2 V2000
  153.0415  143.5816  162.1226 C   0  0  0  0  0  0  0  0  0  0  0  0
  152.2946  143.6911  160.7915 C   0  0  0  0  0  0  0  0  0  0  0  0
  151.4749  144.6007  160.6631 O   0  0  0  0  0  0  0  0  0  0  0  0
  152.5560  142.7971  159.8078 N   0  0  0  0  0  0  0  0  0  0  0  0
  153.4880  141.6732  159.9809 C   0  0  0  0  0  0  0  0  0  0  0  0
  152.6986  140.3514  159.8934 C   0  0  0  0  0  0  0  0  0  0  0  0
  152.0139  140.2873  158.5873 N   0  0  0  0  0  0  0  0  0  0  0  0
  152.3099  139.4388  157.5711 C   0  0  0  0  0  0  0  0  0  0  0  0
  153.3884  138.8521  157.4712 O   0  0  0  0  0  0  0  0  0  0  0  0
  151.3494  139.3276  156.6372 N   0  0  0  0  0  0  0  0  0  0  0  0
  151.4301  138.5169  155.4260 C   0  0  2  0  0  0  0  0  0  0  0  0
  152.6763  138.9304  154.6261 C   0  0  0  0  0  0  0  0  0  0  0  0
  150.1199  138.6396  154.6186 C   0  0  0  0  0  0  0  0  0  0  0  0
  149.1406  139.5272  155.2521 N   0  0  0  0  0  0  0  0  0  0  0  0
  148.0435  139.1582  155.9869 C   0  0  0  0  0  0  0  0  0  0  0  0
  147.4259  140.3186  156.3769 C   0  0  0  0  0  0  0  0  0  0  0  0
  148.1734  141.3461  155.8664 N   0  3  0  0  0  0  0  0  0  0  0  0
  149.2178  140.8628  155.1857 C   0  0  0  0  0  0  0  0  0  0  0  0
  151.0881  141.4177  158.4146 C   0  0  0  0  0  0  0  0  0  0  0  0
  151.8774  142.7388  158.5043 C   0  0  0  0  0  0  0  0  0  0  0  0
  154.1166  143.6828  161.9718 H   0  0  0  0  0  0  0  0  0  0  0  0
  152.8376  142.6244  162.6032 H   0  0  0  0  0  0  0  0  0  0  0  0
  152.7267  144.3709  162.8061 H   0  0  0  0  0  0  0  0  0  0  0  0
  154.2492  141.7123  159.2002 H   0  0  0  0  0  0  0  0  0  0  0  0
  154.0281  141.7139  160.9275 H   0  0  0  0  0  0  0  0  0  0  0  0
  153.3779  139.5202  160.0806 H   0  0  0  0  0  0  0  0  0  0  0  0
  151.9530  140.3065  160.6886 H   0  0  0  0  0  0  0  0  0  0  0  0
  150.5002  139.8563  156.7748 H   0  0  0  0  0  0  0  0  0  0  0  0
  151.5640  137.4732  155.7163 H   0  0  0  0  0  0  0  0  0  0  0  0
  152.8301  138.2840  153.7621 H   0  0  0  0  0  0  0  0  0  0  0  0
  153.5748  138.8644  155.2406 H   0  0  0  0  0  0  0  0  0  0  0  0
  152.5944  139.9564  154.2659 H   0  0  0  0  0  0  0  0  0  0  0  0
  150.3173  139.0362  153.6216 H   0  0  0  0  0  0  0  0  0  0  0  0
  149.6591  137.6596  154.4824 H   0  0  0  0  0  0  0  0  0  0  0  0
  147.7904  138.1238  156.1709 H   0  0  0  0  0  0  0  0  0  0  0  0
  146.5345  140.4856  156.9642 H   0  0  0  0  0  0  0  0  0  0  0  0
  149.9708  141.4388  154.6778 H   0  0  0  0  0  0  0  0  0  0  0  0
  150.5445  141.3766  157.4699 H   0  0  0  0  0  0  0  0  0  0  0  0
  150.3271  141.3796  159.1955 H   0  0  0  0  0  0  0  0  0  0  0  0
  151.2047  143.5754  158.3228 H   0  0  0  0  0  0  0  0  0  0  0  0
  152.6243  142.7845  157.7104 H   0  0  0  0  0  0  0  0  0  0  0  0
  147.9680  142.3302  155.9857 H   0  0  0  0  0  0  0  0  0  0  0  0
  1  2  1  0  0  0  0
  1 21  1  0  0  0  0
  1 22  1  0  0  0  0
  1 23  1  0  0  0  0
  2  3  2  0  0  0  0
  2  4  1  0  0  0  0
  4 20  1  0  0  0  0
  4  5  1  0  0  0  0
  5  6  1  0  0  0  0
  5 24  1  0  0  0  0
  5 25  1  0  0  0  0
  6  7  1  0  0  0  0
  6 26  1  0  0  0  0
  6 27  1  0  0  0  0
  7  8  1  0  0  0  0
  7 19  1  0  0  0  0
  8  9  2  0  0  0  0
  8 10  1  0  0  0  0
 10 11  1  0  0  0  0
 10 28  1  0  0  0  0
 11 12  1  0  0  0  0
 11 13  1  0  0  0  0
 11 29  1  0  0  0  0
 12 30  1  0  0  0  0
 12 31  1  0  0  0  0
 12 32  1  0  0  0  0
 13 14  1  0  0  0  0
 13 33  1  0  0  0  0
 13 34  1  0  0  0  0
 14 18  1  0  0  0  0
 14 15  1  0  0  0  0
 15 16  2  0  0  0  0
 15 35  1  0  0  0  0
 16 17  1  0  0  0  0
 16 36  1  0  0  0  0
 17 18  2  0  0  0  0
 17 42  1  0  0  0  0
 18 37  1  0  0  0  0
 19 20  1  0  0  0  0
 19 38  1  0  0  0  0
 19 39  1  0  0  0  0
 20 40  1  0  0  0  0
 20 41  1  0  0  0  0
M  CHG  1  17   1
M  END
> <s_m_source_file>
AV-unprocessed.smi

> <i_m_source_file_index>
3340

> <i_lp_mmshare_version>
43012

> <i_f3d_flags>
0

> <s_epik_input>
W0NIM11DKD1PKU4xW0NIMl1bQ0gyXU4oW0NIMl1bQ0gyXTEpQyg9TylbTkhdW0NASF0oW0NIM10pW0NIMl1uMltjSF1bY0hdbltjSF0y

> <s_epik_cmdline>
J2VwaWtfcHl0aG9uJywgJy1waCcsICc3LjAnLCAnLXRuJywgJzgnLCAnLW1hJywgJzIwMCcsICctbWV0YWxfYmluZGluZycsICctaW1hZScsICc8aW5maWxlLm1hZT4nLCAnLW9tYWUnLCAnPG91dGZpbGUubWFlPic=

> <r_lp_tautomer_probability>
1

> <r_epik_Ionization_Penalty>
0.254791

> <r_epik_Ionization_Penalty_Charging>
0

> <r_epik_Ionization_Penalty_Neutral>
0.254791

> <r_epik_State_Penalty>
0.246235

> <r_epik_Charging_Adjusted_Penalty>
0.246235

> <i_epik_Tot_Q>
1

> <i_epik_Tot_abs_Q>
1

> <r_epik_Metal_State_Penalty>
0.536161

> <b_epik_Metal_Only>
0

> <s_lp_Force_Field>
OPLS_2005

> <r_lp_Energy>
50.8971

> <b_lp_Chiralities_Consistent>
1

> <s_lp_Variant>
AV-unprocessed.smi:3340-1

> <Gold.Version>
5.8.1

> <Gold.Id.Protein>
6NUR|6NUR_protein|mol2

> <Gold.PLP.Fitness>
46.8404

> <Gold.PLP.PLP>
-40.2831

> <Gold.PLP.part.hbond>
-2.0000

> <Gold.PLP.part.metal>
0.0000

> <Gold.PLP.part.buried>
-4.5143

> <Gold.PLP.part.nonpolar>
-33.4139

> <Gold.PLP.part.repulsive>
0.3793

> <Gold.PLP.ligand.clash>
0.0000

> <Gold.PLP.ligand.torsion>
1.2553

> <Gold.PLP.Chemscore.Hbond>
3.0000

> <Gold.PLP.Chemscore.CHOScore>
0.0000

> <Gold.PLP.Chemscore.Metal>
0.0000

> <Gold.Chemscore.Hbonds>
donor molecule, donor type, donor heavy atom, donor atom, acceptor molecule, acceptor atom, score
      P1  H  7997  8010       L1     9  0.98

> <Gold.PLP.Chemscore.Internal.Correction>
0.0679

> <Gold.Rescore>
     Score         DG    S(hbond)    S(metal)    S(lipo)     H(rot)  DE(clash)    DE(int)     intcor
     12.21     -14.54       1.37        0.00      75.49       1.70       0.09       2.24       ----

> <Gold.Chemscore.Fitness>
12.2117

> <Gold.Chemscore.DG>
-14.5401

> <Gold.Chemscore.ZeroCoef>
-5.4800

> <Gold.Chemscore.Hbond>
1.3692

> <Gold.Chemscore.Metal>
0.0000

> <Gold.Chemscore.Lipo>
75.4925

> <Gold.Chemscore.Internal_Hbond>
0.0000

> <Gold.Chemscore.DEClash>
0.0874

> <Gold.Chemscore.DEInternal>
2.2410

> <Gold.Chemscore.Rot>
1.6975

> <Gold.Chemscore.Internal.Correction>
   9.000000E+99

> <Gold.Chemscore.Hbonds>
donor molecule, donor type, donor heavy atom, donor atom, acceptor molecule, acceptor atom, score
      P1  H  7997  8010       L1     9  0.72

> <Gold.Chemscore.Hbond.Weighted>
-4.5730

> <Gold.Chemscore.Metal.Weighted>
-0.0000

> <Gold.Chemscore.Lipo.Weighted>
-8.8326

> <Gold.Chemscore.Internal_Hbond.Weighted>
0.0000

> <Gold.Chemscore.DEClash.Weighted>
0.0874

> <Gold.Chemscore.DEInternal.Weighted>
2.2410

> <Gold.Chemscore.Rot.Weighted>
4.3455

> <Gold.Chemscore.Internal.Correction.Weighted>
   9.000000E+99

> <Gold.Protein.RotatedTorsions>
[ 6907 6896 6895 6894 ] final  137.88 input  -60.11 | X-H torsion
[ 7974 7965 7964 7962 ] final -129.56 input  175.53 | X-H torsion
[ 8008 7997 7996 7995 ] final   24.06 input   59.86 | X-H torsion
[ 10167 10162 10161 10158 ] final -111.64 input  -65.29 | X-H torsion
[ 10718 10713 10712 10709 ] final   21.09 input   66.30 | X-H torsion
[ 10763 10752 10751 10750 ] final  -92.93 input  -60.55 | X-H torsion
[ 11005 11000 10999 10996 ] final  130.25 input  -57.11 | X-H torsion

> <Gold.Protein.ActiveResidues>
 VAL166  LYS551  ARG553  GLY616  TRP617  ASP618  TYR619  PRO620  LYS621  CYS622 
 ASP623  PHE694  ASN695  SER759  ASP760  ASP761  ALA762  ILE779  LEU786  VAL792 
 PHE793  MET794  SER795  GLU796  ALA797  LYS798  CYS799  TRP800  GLU811  SER814 

> <Gold.Protein.RotatedAtoms>
  152.2730  133.5399  159.5450 H   0  0  0  0  0  0  0  0  0  0  0  0  # atno 6907 bound_to 6896
  150.7166  134.0672  159.3860 H   0  0  0  0  0  0  0  0  0  0  0  0  # atno 6908 bound_to 6896
  151.8585  135.0532  160.0517 H   0  0  0  0  0  0  0  0  0  0  0  0  # atno 6909 bound_to 6896
  144.9559  140.7395  143.4759 H   0  0  0  0  0  0  0  0  0  0  0  0  # atno 7974 bound_to 7965
  154.9905  140.3113  155.4908 H   0  0  0  0  0  0  0  0  0  0  0  0  # atno 8008 bound_to 7997
  156.2940  140.2250  156.4950 H   0  0  0  0  0  0  0  0  0  0  0  0  # atno 8009 bound_to 7997
  154.7707  140.0452  157.1037 H   0  0  0  0  0  0  0  0  0  0  0  0  # atno 8010 bound_to 7997
  140.1314  143.4358  152.1625 H   0  0  0  0  0  0  0  0  0  0  0  0  # atno 10167 bound_to 10162
  157.1336  130.6602  149.5959 H   0  0  0  0  0  0  0  0  0  0  0  0  # atno 10718 bound_to 10713
  154.6909  135.5213  153.8391 H   0  0  0  0  0  0  0  0  0  0  0  0  # atno 10763 bound_to 10752
  153.0632  135.6575  154.0425 H   0  0  0  0  0  0  0  0  0  0  0  0  # atno 10764 bound_to 10752
  154.0299  135.2986  155.3349 H   0  0  0  0  0  0  0  0  0  0  0  0  # atno 10765 bound_to 10752
  139.9661  134.9590  156.9266 H   0  0  0  0  0  0  0  0  0  0  0  0  # atno 11005 bound_to 11000
  145.2772  139.1932  143.4810 LP  0  0  0  0  0  0  0  0  0  0  0  0  # atno 17320 bound_to 7965
  146.3337  140.2728  142.8606 LP  0  0  0  0  0  0  0  0  0  0  0  0  # atno 17321 bound_to 7965
  139.5518  144.7343  151.4413 LP  0  0  0  0  0  0  0  0  0  0  0  0  # atno 17342 bound_to 10162
  140.6815  143.8071  150.7128 LP  0  0  0  0  0  0  0  0  0  0  0  0  # atno 17343 bound_to 10162
  155.9803  130.4802  150.6763 LP  0  0  0  0  0  0  0  0  0  0  0  0  # atno 17370 bound_to 10713
  157.4370  131.0856  151.0982 LP  0  0  0  0  0  0  0  0  0  0  0  0  # atno 17371 bound_to 10713
  140.5393  134.0735  155.7337 LP  0  0  0  0  0  0  0  0  0  0  0  0  # atno 17394 bound_to 11000
  141.1341  133.9252  157.2473 LP  0  0  0  0  0  0  0  0  0  0  0  0  # atno 17395 bound_to 11000

$$$$
