AV-unprocessed.smi:1361|AV-procd|sdf|5556|dock4
  -GOLD-   22720 5143D 1   1.00000     0.00000
 Structure written by MMmdl.
 46 47  0  0  0  0  0  0  0  0  1 V2000
  144.7268  137.3194  154.9958 C   0  0  0  0  0  0  0  0  0  0  0  0
  145.4862  138.4806  155.5999 C   0  0  0  0  0  0  0  0  0  0  0  0
  145.4997  139.6125  154.8019 N   0  0  0  0  0  0  0  0  0  0  0  0
  146.1603  140.7319  155.2767 C   0  0  0  0  0  0  0  0  0  0  0  0
  146.1154  141.9317  154.3464 C   0  0  0  0  0  0  0  0  0  0  0  0
  146.7840  140.7205  156.4822 C   0  0  0  0  0  0  0  0  0  0  0  0
  147.5148  141.9370  157.0463 C   0  0  0  0  0  0  0  0  0  0  0  0
  148.9953  141.7225  157.3646 C   0  0  0  0  0  0  0  0  0  0  0  0
  149.4316  140.5826  157.5219 O   0  0  0  0  0  0  0  0  0  0  0  0
  149.7534  142.8263  157.4543 N   0  0  0  0  0  0  0  0  0  0  0  0
  151.1829  142.8587  157.7551 C   0  0  0  0  0  0  0  0  0  0  0  0
  151.4677  142.0052  159.0114 C   0  0  0  0  0  0  0  0  0  0  0  0
  152.8890  142.1557  159.5849 C   0  0  0  0  0  0  0  0  0  0  0  0
  152.9515  142.8072  160.9790 C   0  0  0  0  0  0  0  0  0  0  0  0
  152.0697  144.0515  161.2147 C   0  0  0  0  0  0  0  0  0  0  0  0
  152.2174  145.1963  160.1968 C   0  0  0  0  0  0  0  0  0  0  0  0
  151.2211  145.1646  159.0173 C   0  0  0  0  0  0  0  0  0  0  0  0
  151.6669  144.3272  157.8035 C   0  0  0  0  0  0  0  0  0  0  0  0
  146.7499  139.4738  157.2832 C   0  0  0  0  0  0  0  0  0  0  0  0
  147.3133  139.3925  158.3739 O   0  0  0  0  0  0  0  0  0  0  0  0
  146.0548  138.3707  156.7618 N   0  0  0  0  0  0  0  0  0  0  0  0
  145.0472  139.6641  153.9005 H   0  0  0  0  0  0  0  0  0  0  0  0
  144.6182  136.5077  155.7162 H   0  0  0  0  0  0  0  0  0  0  0  0
  145.2563  136.9339  154.1242 H   0  0  0  0  0  0  0  0  0  0  0  0
  143.7297  137.6342  154.6858 H   0  0  0  0  0  0  0  0  0  0  0  0
  145.6365  142.7793  154.8368 H   0  0  0  0  0  0  0  0  0  0  0  0
  145.5553  141.7134  153.4363 H   0  0  0  0  0  0  0  0  0  0  0  0
  147.1238  142.2251  154.0540 H   0  0  0  0  0  0  0  0  0  0  0  0
  147.0231  142.2986  157.9498 H   0  0  0  0  0  0  0  0  0  0  0  0
  147.4149  142.7585  156.3361 H   0  0  0  0  0  0  0  0  0  0  0  0
  149.3039  143.7182  157.3069 H   0  0  0  0  0  0  0  0  0  0  0  0
  151.7145  142.3988  156.9196 H   0  0  0  0  0  0  0  0  0  0  0  0
  150.7184  142.1986  159.7780 H   0  0  0  0  0  0  0  0  0  0  0  0
  151.3160  140.9577  158.7476 H   0  0  0  0  0  0  0  0  0  0  0  0
  153.3424  141.1665  159.6584 H   0  0  0  0  0  0  0  0  0  0  0  0
  153.5352  142.6962  158.8956 H   0  0  0  0  0  0  0  0  0  0  0  0
  152.6756  142.0589  161.7231 H   0  0  0  0  0  0  0  0  0  0  0  0
  153.9905  143.0603  161.1929 H   0  0  0  0  0  0  0  0  0  0  0  0
  151.0206  143.7727  161.3125 H   0  0  0  0  0  0  0  0  0  0  0  0
  152.3385  144.4426  162.1968 H   0  0  0  0  0  0  0  0  0  0  0  0
  152.0282  146.1237  160.7390 H   0  0  0  0  0  0  0  0  0  0  0  0
  153.2468  145.2776  159.8462 H   0  0  0  0  0  0  0  0  0  0  0  0
  150.2227  144.8795  159.3503 H   0  0  0  0  0  0  0  0  0  0  0  0
  151.1201  146.1929  158.6680 H   0  0  0  0  0  0  0  0  0  0  0  0
  152.7506  144.3785  157.7009 H   0  0  0  0  0  0  0  0  0  0  0  0
  151.2953  144.8196  156.9034 H   0  0  0  0  0  0  0  0  0  0  0  0
  1 23  1  0  0  0  0
  1 24  1  0  0  0  0
  1 25  1  0  0  0  0
  1  2  1  0  0  0  0
  2  3  1  0  0  0  0
  2 21  2  0  0  0  0
  3  4  1  0  0  0  0
  3 22  1  0  0  0  0
  4  6  2  0  0  0  0
  4  5  1  0  0  0  0
  5 26  1  0  0  0  0
  5 27  1  0  0  0  0
  5 28  1  0  0  0  0
  6 19  1  0  0  0  0
  6  7  1  0  0  0  0
  7  8  1  0  0  0  0
  7 29  1  0  0  0  0
  7 30  1  0  0  0  0
  8  9  2  0  0  0  0
  8 10  1  0  0  0  0
 10 11  1  0  0  0  0
 10 31  1  0  0  0  0
 11 18  1  0  0  0  0
 11 12  1  0  0  0  0
 11 32  1  0  0  0  0
 12 13  1  0  0  0  0
 12 33  1  0  0  0  0
 12 34  1  0  0  0  0
 13 14  1  0  0  0  0
 13 35  1  0  0  0  0
 13 36  1  0  0  0  0
 14 15  1  0  0  0  0
 14 37  1  0  0  0  0
 14 38  1  0  0  0  0
 15 16  1  0  0  0  0
 15 39  1  0  0  0  0
 15 40  1  0  0  0  0
 16 17  1  0  0  0  0
 16 41  1  0  0  0  0
 16 42  1  0  0  0  0
 17 18  1  0  0  0  0
 17 43  1  0  0  0  0
 17 44  1  0  0  0  0
 18 45  1  0  0  0  0
 18 46  1  0  0  0  0
 19 20  2  0  0  0  0
 19 21  1  0  0  0  0
M  END
> <s_m_source_file>
AV-unprocessed.smi

> <i_m_source_file_index>
1361

> <i_lp_mmshare_version>
43012

> <i_f3d_flags>
0

> <s_epik_input>
W0NIM11jMW5jKFtDSDNdKWMoYyg9TylbbkhdMSlbQ0gyXUMoPU8pW05IXVtDSF0yW0NIMl1bQ0gyXVtDSDJdW0NIMl1bQ0gyXVtDSDJdW0NIMl0y

> <s_epik_cmdline>
J2VwaWtfcHl0aG9uJywgJy1waCcsICc3LjAnLCAnLXRuJywgJzgnLCAnLW1hJywgJzIwMCcsICctbWV0YWxfYmluZGluZycsICctaW1hZScsICc8aW5maWxlLm1hZT4nLCAnLW9tYWUnLCAnPG91dGZpbGUubWFlPic=

> <r_lp_tautomer_probability>
0.156392

> <r_epik_Ionization_Penalty>
0.0140222

> <r_epik_Ionization_Penalty_Charging>
0.0138986

> <r_epik_Ionization_Penalty_Neutral>
0.000123575

> <r_epik_State_Penalty>
1.53084

> <r_epik_Charging_Adjusted_Penalty>
1.54474

> <i_epik_Tot_Q>
0

> <i_epik_Tot_abs_Q>
0

> <r_epik_Metal_State_Penalty>
1.70646

> <b_epik_Metal_Only>
0

> <s_lp_Force_Field>
OPLS_2005

> <r_lp_Energy>
27.031

> <b_lp_Chiralities_Consistent>
1

> <s_lp_Variant>
AV-unprocessed.smi:1361-2

> <Gold.Version>
5.8.1

> <Gold.Id.Protein>
6NUR|6NUR_protein|mol2

> <Gold.PLP.Fitness>
43.5291

> <Gold.PLP.PLP>
-39.5501

> <Gold.PLP.part.hbond>
-2.8273

> <Gold.PLP.part.metal>
0.0000

> <Gold.PLP.part.buried>
-5.4444

> <Gold.PLP.part.nonpolar>
-31.5440

> <Gold.PLP.part.repulsive>
0.0479

> <Gold.PLP.ligand.clash>
0.0000

> <Gold.PLP.ligand.torsion>
0.3329

> <Gold.PLP.Chemscore.Hbond>
1.5360

> <Gold.PLP.Chemscore.CHOScore>
0.0000

> <Gold.PLP.Chemscore.Metal>
0.0000

> <Gold.Chemscore.Hbonds>
donor molecule, donor type, donor heavy atom, donor atom, acceptor molecule, acceptor atom, score
      L1  H     3    22       P1 10175  0.75
      L1  H    10    31       P1  8028  0.66

> <Gold.PLP.Chemscore.Internal.Correction>
0.0369

> <Gold.Rescore>
     Score         DG    S(hbond)    S(metal)    S(lipo)     H(rot)  DE(clash)    DE(int)     intcor
     15.87     -19.51       1.66        0.00     104.57       1.47       0.09       3.55       ----

> <Gold.Chemscore.Fitness>
15.8731

> <Gold.Chemscore.DG>
-19.5128

> <Gold.Chemscore.ZeroCoef>
-5.4800

> <Gold.Chemscore.Hbond>
1.6644

> <Gold.Chemscore.Metal>
0.0000

> <Gold.Chemscore.Lipo>
104.5672

> <Gold.Chemscore.Internal_Hbond>
0.0000

> <Gold.Chemscore.DEClash>
0.0941

> <Gold.Chemscore.DEInternal>
3.5456

> <Gold.Chemscore.Rot>
1.4690

> <Gold.Chemscore.Internal.Correction>
   9.000000E+99

> <Gold.Chemscore.Hbonds>
donor molecule, donor type, donor heavy atom, donor atom, acceptor molecule, acceptor atom, score
      L1  H     3    22       P1 10175  0.73
      L1  H    10    31       P1  8028  0.33

> <Gold.Chemscore.Hbond.Weighted>
-5.5591

> <Gold.Chemscore.Metal.Weighted>
-0.0000

> <Gold.Chemscore.Lipo.Weighted>
-12.2344

> <Gold.Chemscore.Internal_Hbond.Weighted>
0.0000

> <Gold.Chemscore.DEClash.Weighted>
0.0941

> <Gold.Chemscore.DEInternal.Weighted>
3.5456

> <Gold.Chemscore.Rot.Weighted>
3.7607

> <Gold.Chemscore.Internal.Correction.Weighted>
   9.000000E+99

> <Gold.Protein.RotatedTorsions>
[ 6907 6896 6895 6894 ] final   52.34 input  -60.11 | X-H torsion
[ 7974 7965 7964 7962 ] final -107.97 input  175.53 | X-H torsion
[ 8008 7997 7996 7995 ] final   60.97 input   59.86 | X-H torsion
[ 10167 10162 10161 10158 ] final  144.56 input  -65.29 | X-H torsion
[ 10718 10713 10712 10709 ] final -154.23 input   66.30 | X-H torsion
[ 10763 10752 10751 10750 ] final  -74.74 input  -60.55 | X-H torsion
[ 11005 11000 10999 10996 ] final  112.20 input  -57.11 | X-H torsion

> <Gold.Protein.ActiveResidues>
 VAL166  LYS551  ARG553  GLY616  TRP617  ASP618  TYR619  PRO620  LYS621  CYS622 
 ASP623  PHE694  ASN695  SER759  ASP760  ASP761  ALA762  ILE779  LEU786  VAL792 
 PHE793  MET794  SER795  GLU796  ALA797  LYS798  CYS799  TRP800  GLU811  SER814 

> <Gold.Protein.RotatedAtoms>
  152.3222  134.7365  160.0310 H   0  0  0  0  0  0  0  0  0  0  0  0  # atno 6907 bound_to 6896
  151.7810  133.3344  159.3479 H   0  0  0  0  0  0  0  0  0  0  0  0  # atno 6908 bound_to 6896
  150.7376  134.5862  159.6008 H   0  0  0  0  0  0  0  0  0  0  0  0  # atno 6909 bound_to 6896
  145.1987  140.9047  143.3382 H   0  0  0  0  0  0  0  0  0  0  0  0  # atno 7974 bound_to 7965
  155.5909  140.3493  155.4566 H   0  0  0  0  0  0  0  0  0  0  0  0  # atno 8008 bound_to 7997
  156.0302  140.1273  157.0291 H   0  0  0  0  0  0  0  0  0  0  0  0  # atno 8009 bound_to 7997
  154.4349  140.1045  156.6074 H   0  0  0  0  0  0  0  0  0  0  0  0  # atno 8010 bound_to 7997
  139.4944  144.5963  151.6575 H   0  0  0  0  0  0  0  0  0  0  0  0  # atno 10167 bound_to 10162
  156.4965  130.8372  151.2592 H   0  0  0  0  0  0  0  0  0  0  0  0  # atno 10718 bound_to 10713
  154.4772  135.5854  153.6364 H   0  0  0  0  0  0  0  0  0  0  0  0  # atno 10763 bound_to 10752
  152.9842  135.6081  154.3292 H   0  0  0  0  0  0  0  0  0  0  0  0  # atno 10764 bound_to 10752
  154.3179  135.2844  155.2513 H   0  0  0  0  0  0  0  0  0  0  0  0  # atno 10765 bound_to 10752
  139.8921  134.9524  156.6549 H   0  0  0  0  0  0  0  0  0  0  0  0  # atno 11005 bound_to 11000
  144.9969  139.3636  143.6187 LP  0  0  0  0  0  0  0  0  0  0  0  0  # atno 17320 bound_to 7965
  146.3422  139.9175  142.8771 LP  0  0  0  0  0  0  0  0  0  0  0  0  # atno 17321 bound_to 7965
  140.5602  144.0281  150.6166 LP  0  0  0  0  0  0  0  0  0  0  0  0  # atno 17342 bound_to 10162
  140.3364  143.3046  152.0634 LP  0  0  0  0  0  0  0  0  0  0  0  0  # atno 17343 bound_to 10162
  157.7468  130.9996  150.2895 LP  0  0  0  0  0  0  0  0  0  0  0  0  # atno 17370 bound_to 10713
  156.3374  130.3810  149.7438 LP  0  0  0  0  0  0  0  0  0  0  0  0  # atno 17371 bound_to 10713
  140.7492  133.8912  155.8334 LP  0  0  0  0  0  0  0  0  0  0  0  0  # atno 17394 bound_to 11000
  141.0014  134.1144  157.4313 LP  0  0  0  0  0  0  0  0  0  0  0  0  # atno 17395 bound_to 11000

$$$$
