AV-unprocessed.smi:2528|AV-procd|sdf|9958|dock3
  -GOLD-   2272013593D 1   1.00000     0.00000
 Structure written by MMmdl.
 43 45  0  0  0  0  0  0  0  0  1 V2000
  149.9518  135.0807  156.2370 O   0  0  0  0  0  0  0  0  0  0  0  0
  149.6053  135.4299  155.1081 C   0  0  0  0  0  0  0  0  0  0  0  0
  149.4993  136.7125  154.7325 N   0  0  0  0  0  0  0  0  0  0  0  0
  149.7877  137.8602  155.5855 C   0  0  0  0  0  0  0  0  0  0  0  0
  150.9117  138.7402  154.9968 C   0  0  2  0  0  0  0  0  0  0  0  0
  151.9618  139.1606  156.0429 C   0  0  0  0  0  0  0  0  0  0  0  0
  151.4641  140.1694  156.9706 N   0  0  0  0  0  0  0  0  0  0  0  0
  152.4991  140.5587  157.9273 C   0  0  0  0  0  0  0  0  0  0  0  0
  152.0005  141.5989  158.9423 C   0  0  0  0  0  0  0  0  0  0  0  0
  151.4623  142.8373  158.2123 C   0  0  0  0  0  0  0  0  0  0  0  0
  150.4110  142.4186  157.1735 C   0  0  0  0  0  0  0  0  0  0  0  0
  150.9668  141.3317  156.2291 C   0  0  2  0  0  0  0  0  0  0  0  0
  149.8958  140.9143  155.2018 C   0  0  0  0  0  0  0  0  0  0  0  0
  150.4013  139.9007  154.3369 O   0  0  0  0  0  0  0  0  0  0  0  0
  149.2904  134.5995  154.0985 N   0  0  0  0  0  0  0  0  0  0  0  0
  149.2711  133.1790  154.1033 C   0  0  0  0  0  0  0  0  0  0  0  0
  150.0513  132.5725  155.1140 C   0  0  0  0  0  0  0  0  0  0  0  0
  150.0993  131.1676  155.2033 C   0  0  0  0  0  0  0  0  0  0  0  0
  149.3660  130.4040  154.2778 C   0  0  0  0  0  0  0  0  0  0  0  0
  148.6150  131.0859  153.3029 C   0  0  0  0  0  0  0  0  0  0  0  0
  148.5674  132.4320  153.2157 N   0  0  0  0  0  0  0  0  0  0  0  0
  149.2117  136.9113  153.7858 H   0  0  0  0  0  0  0  0  0  0  0  0
  148.8688  138.4314  155.7137 H   0  0  0  0  0  0  0  0  0  0  0  0
  150.0657  137.5167  156.5834 H   0  0  0  0  0  0  0  0  0  0  0  0
  151.4272  138.1531  154.2358 H   0  0  0  0  0  0  0  0  0  0  0  0
  152.3016  138.2827  156.5936 H   0  0  0  0  0  0  0  0  0  0  0  0
  152.8368  139.5511  155.5207 H   0  0  0  0  0  0  0  0  0  0  0  0
  152.8503  139.6774  158.4651 H   0  0  0  0  0  0  0  0  0  0  0  0
  153.3632  140.9593  157.3949 H   0  0  0  0  0  0  0  0  0  0  0  0
  151.2131  141.1622  159.5580 H   0  0  0  0  0  0  0  0  0  0  0  0
  152.8072  141.8816  159.6191 H   0  0  0  0  0  0  0  0  0  0  0  0
  151.0331  143.5424  158.9245 H   0  0  0  0  0  0  0  0  0  0  0  0
  152.2835  143.3543  157.7143 H   0  0  0  0  0  0  0  0  0  0  0  0
  149.5243  142.0434  157.6866 H   0  0  0  0  0  0  0  0  0  0  0  0
  150.0925  143.2901  156.6008 H   0  0  0  0  0  0  0  0  0  0  0  0
  151.7995  141.7683  155.6749 H   0  0  0  0  0  0  0  0  0  0  0  0
  148.9910  140.5655  155.7001 H   0  0  0  0  0  0  0  0  0  0  0  0
  149.6036  141.7699  154.5927 H   0  0  0  0  0  0  0  0  0  0  0  0
  149.0332  135.0344  153.2250 H   0  0  0  0  0  0  0  0  0  0  0  0
  150.6088  133.1745  155.8170 H   0  0  0  0  0  0  0  0  0  0  0  0
  150.6891  130.6853  155.9687 H   0  0  0  0  0  0  0  0  0  0  0  0
  149.3783  129.3245  154.3134 H   0  0  0  0  0  0  0  0  0  0  0  0
  148.0378  130.5373  152.5735 H   0  0  0  0  0  0  0  0  0  0  0  0
  1  2  2  0  0  0  0
  2  3  1  0  0  0  0
  2 15  1  0  0  0  0
  3  4  1  0  0  0  0
  3 22  1  0  0  0  0
  4  5  1  0  0  0  0
  4 23  1  0  0  0  0
  4 24  1  0  0  0  0
  5 14  1  0  0  0  0
  5  6  1  0  0  0  0
  5 25  1  0  0  0  0
  6  7  1  0  0  0  0
  6 26  1  0  0  0  0
  6 27  1  0  0  0  0
  7 12  1  0  0  0  0
  7  8  1  0  0  0  0
  8  9  1  0  0  0  0
  8 28  1  0  0  0  0
  8 29  1  0  0  0  0
  9 10  1  0  0  0  0
  9 30  1  0  0  0  0
  9 31  1  0  0  0  0
 10 11  1  0  0  0  0
 10 32  1  0  0  0  0
 10 33  1  0  0  0  0
 11 12  1  0  0  0  0
 11 34  1  0  0  0  0
 11 35  1  0  0  0  0
 12 13  1  0  0  0  0
 12 36  1  0  0  0  0
 13 14  1  0  0  0  0
 13 37  1  0  0  0  0
 13 38  1  0  0  0  0
 15 16  1  0  0  0  0
 15 39  1  0  0  0  0
 16 21  1  0  0  0  0
 16 17  2  0  0  0  0
 17 18  1  0  0  0  0
 17 40  1  0  0  0  0
 18 19  2  0  0  0  0
 18 41  1  0  0  0  0
 19 20  1  0  0  0  0
 19 42  1  0  0  0  0
 20 21  2  0  0  0  0
 20 43  1  0  0  0  0
M  END
> <s_m_source_file>
AV-unprocessed.smi

> <i_m_source_file_index>
2528

> <i_lp_mmshare_version>
43012

> <i_f3d_flags>
0

> <s_epik_input>
bjFbY0hdW2NIXVtjSF1bY0hdYzFbTkhdQyg9TylbTkhdW0NIMl1bQ0BIXShbQ0gyXTIpT1tDSDJdW0NAQEhdKE4yMylbQ0gyXVtDSDJdW0NIMl1bQ0gyXTM=

> <s_epik_cmdline>
J2VwaWtfcHl0aG9uJywgJy1waCcsICc3LjAnLCAnLXRuJywgJzgnLCAnLW1hJywgJzIwMCcsICctbWV0YWxfYmluZGluZycsICctaW1hZScsICc8aW5maWxlLm1hZT4nLCAnLW9tYWUnLCAnPG91dGZpbGUubWFlPic=

> <r_epik_Ionization_Penalty>
1.14192

> <r_epik_Ionization_Penalty_Charging>
0

> <r_epik_Ionization_Penalty_Neutral>
1.14192

> <r_epik_State_Penalty>
1.20248

> <r_epik_Charging_Adjusted_Penalty>
1.20248

> <i_epik_Tot_Q>
0

> <i_epik_Tot_abs_Q>
0

> <r_epik_Metal_State_Penalty>
1.20248

> <b_epik_Metal_Only>
0

> <s_lp_Force_Field>
OPLS_2005

> <r_lp_Energy>
38.2617

> <b_lp_Chiralities_Consistent>
1

> <s_lp_Variant>
AV-unprocessed.smi:2528-11

> <Gold.Version>
5.8.1

> <Gold.Id.Protein>
6NUR|6NUR_protein|mol2

> <Gold.PLP.Fitness>
43.0980

> <Gold.PLP.PLP>
-34.1194

> <Gold.PLP.part.hbond>
-3.0000

> <Gold.PLP.part.metal>
0.0000

> <Gold.PLP.part.buried>
-1.5387

> <Gold.PLP.part.nonpolar>
-28.7807

> <Gold.PLP.part.repulsive>
0.3338

> <Gold.PLP.ligand.clash>
0.0000

> <Gold.PLP.ligand.torsion>
0.7077

> <Gold.PLP.Chemscore.Hbond>
2.8516

> <Gold.PLP.Chemscore.CHOScore>
0.6106

> <Gold.PLP.Chemscore.Metal>
0.0000

> <Gold.Chemscore.Hbonds>
donor molecule, donor type, donor heavy atom, donor atom, acceptor molecule, acceptor atom, score
      L1  H     3    22       P1  7948  0.95
      L1  H    15    39       P1  7948  0.95
      P1  H  7989  7998       L1    14  0.95
      L1  C    20    43       P1 10747  0.61

> <Gold.PLP.Chemscore.Internal.Correction>
0.0074

> <Gold.Rescore>
     Score         DG    S(hbond)    S(metal)    S(lipo)     H(rot)  DE(clash)    DE(int)     intcor
     13.66     -15.91       1.26        0.00      80.87       1.27       0.11       2.14       ----

> <Gold.Chemscore.Fitness>
13.6612

> <Gold.Chemscore.DG>
-15.9130

> <Gold.Chemscore.ZeroCoef>
-5.4800

> <Gold.Chemscore.Hbond>
1.2638

> <Gold.Chemscore.Metal>
0.0000

> <Gold.Chemscore.Lipo>
80.8745

> <Gold.Chemscore.Internal_Hbond>
0.0000

> <Gold.Chemscore.DEClash>
0.1075

> <Gold.Chemscore.DEInternal>
2.1443

> <Gold.Chemscore.Rot>
1.2696

> <Gold.Chemscore.Internal.Correction>
   9.000000E+99

> <Gold.Chemscore.Hbonds>
donor molecule, donor type, donor heavy atom, donor atom, acceptor molecule, acceptor atom, score
      L1  H     3    22       P1  7948  0.84
      L1  H    15    39       P1  7948  0.21
      P1  H  7989  7998       L1    14  0.19

> <Gold.Chemscore.Hbond.Weighted>
-4.2209

> <Gold.Chemscore.Metal.Weighted>
-0.0000

> <Gold.Chemscore.Lipo.Weighted>
-9.4623

> <Gold.Chemscore.Internal_Hbond.Weighted>
0.0000

> <Gold.Chemscore.DEClash.Weighted>
0.1075

> <Gold.Chemscore.DEInternal.Weighted>
2.1443

> <Gold.Chemscore.Rot.Weighted>
3.2502

> <Gold.Chemscore.Internal.Correction.Weighted>
   9.000000E+99

> <Gold.Protein.RotatedTorsions>
[ 6907 6896 6895 6894 ] final  155.52 input  -60.11 | X-H torsion
[ 7974 7965 7964 7962 ] final   24.21 input  175.53 | X-H torsion
[ 8008 7997 7996 7995 ] final  -58.69 input   59.86 | X-H torsion
[ 10167 10162 10161 10158 ] final  -34.62 input  -65.29 | X-H torsion
[ 10718 10713 10712 10709 ] final -158.85 input   66.30 | X-H torsion
[ 10763 10752 10751 10750 ] final   99.48 input  -60.55 | X-H torsion
[ 11005 11000 10999 10996 ] final   67.19 input  -57.11 | X-H torsion

> <Gold.Protein.ActiveResidues>
 VAL166  LYS551  ARG553  GLY616  TRP617  ASP618  TYR619  PRO620  LYS621  CYS622 
 ASP623  PHE694  ASN695  SER759  ASP760  ASP761  ALA762  ILE779  LEU786  VAL792 
 PHE793  MET794  SER795  GLU796  ALA797  LYS798  CYS799  TRP800  GLU811  SER814 

> <Gold.Protein.RotatedAtoms>
  152.0429  133.3985  159.4344 H   0  0  0  0  0  0  0  0  0  0  0  0  # atno 6907 bound_to 6896
  150.6874  134.3394  159.4871 H   0  0  0  0  0  0  0  0  0  0  0  0  # atno 6908 bound_to 6896
  152.1195  134.9215  160.0614 H   0  0  0  0  0  0  0  0  0  0  0  0  # atno 6909 bound_to 6896
  146.1948  139.7636  142.8805 H   0  0  0  0  0  0  0  0  0  0  0  0  # atno 7974 bound_to 7965
  154.4319  140.1078  156.5996 H   0  0  0  0  0  0  0  0  0  0  0  0  # atno 8008 bound_to 7997
  155.5925  140.3492  155.4552 H   0  0  0  0  0  0  0  0  0  0  0  0  # atno 8009 bound_to 7997
  156.0236  140.1245  157.0322 H   0  0  0  0  0  0  0  0  0  0  0  0  # atno 8010 bound_to 7997
  140.7182  143.3535  151.2107 H   0  0  0  0  0  0  0  0  0  0  0  0  # atno 10167 bound_to 10162
  156.5599  130.8642  151.2806 H   0  0  0  0  0  0  0  0  0  0  0  0  # atno 10718 bound_to 10713
  153.3019  135.4112  155.1260 H   0  0  0  0  0  0  0  0  0  0  0  0  # atno 10763 bound_to 10752
  154.8551  135.3543  154.5840 H   0  0  0  0  0  0  0  0  0  0  0  0  # atno 10764 bound_to 10752
  153.6266  135.7062  153.5349 H   0  0  0  0  0  0  0  0  0  0  0  0  # atno 10765 bound_to 10752
  139.9786  134.6781  156.0306 H   0  0  0  0  0  0  0  0  0  0  0  0  # atno 11005 bound_to 11000
  145.3678  141.0337  143.3248 LP  0  0  0  0  0  0  0  0  0  0  0  0  # atno 17320 bound_to 7965
  144.8558  139.5252  143.6835 LP  0  0  0  0  0  0  0  0  0  0  0  0  # atno 17321 bound_to 7965
  139.7071  143.9437  152.2931 LP  0  0  0  0  0  0  0  0  0  0  0  0  # atno 17342 bound_to 10162
  139.9150  144.6834  150.8522 LP  0  0  0  0  0  0  0  0  0  0  0  0  # atno 17343 bound_to 10162
  157.7370  130.9789  150.2171 LP  0  0  0  0  0  0  0  0  0  0  0  0  # atno 17370 bound_to 10713
  156.2808  130.3733  149.7937 LP  0  0  0  0  0  0  0  0  0  0  0  0  # atno 17371 bound_to 10713
  141.1461  133.6556  156.3871 LP  0  0  0  0  0  0  0  0  0  0  0  0  # atno 17394 bound_to 11000
  140.5143  134.6365  157.5295 LP  0  0  0  0  0  0  0  0  0  0  0  0  # atno 17395 bound_to 11000

$$$$
