AV-unprocessed.smi:2422|AV-procd|sdf|9557|dock8
  -GOLD-   2272013193D 1   1.00000     0.00000
 Structure written by MMmdl.
 46 47  0  0  0  0  0  0  0  0  1 V2000
  145.7444  131.4355  150.8677 C   0  0  0  0  0  0  0  0  0  0  0  0
  146.5206  131.5220  152.0496 O   0  0  0  0  0  0  0  0  0  0  0  0
  147.1649  132.7799  152.1875 C   0  0  0  0  0  0  0  0  0  0  0  0
  148.0454  132.7970  153.4600 C   0  0  0  0  0  0  0  0  0  0  0  0
  147.1589  132.5898  154.7025 C   0  0  0  0  0  0  0  0  0  0  0  0
  149.0839  131.6562  153.4034 C   0  0  0  0  0  0  0  0  0  0  0  0
  148.7190  134.0927  153.6186 N   0  0  0  0  0  0  0  0  0  0  0  0
  149.4803  134.5181  154.6412 C   0  0  0  0  0  0  0  0  0  0  0  0
  149.7180  133.8503  155.6476 O   0  0  0  0  0  0  0  0  0  0  0  0
  149.9413  135.7597  154.4111 N   0  0  0  0  0  0  0  0  0  0  0  0
  150.7795  136.5525  155.2376 C   0  0  0  0  0  0  0  0  0  0  0  0
  151.7983  136.0564  156.0052 N   0  0  0  0  0  0  0  0  0  0  0  0
  152.2278  137.1898  156.5435 C   0  0  0  0  0  0  0  0  0  0  0  0
  151.5510  138.2716  156.1471 N   0  0  0  0  0  0  0  0  0  0  0  0
  151.7144  139.6681  156.5215 C   0  0  0  0  0  0  0  0  0  0  0  0
  151.7706  139.8368  158.0535 C   0  0  0  0  0  0  0  0  0  0  0  0
  151.9600  141.3118  158.4446 C   0  0  0  0  0  0  0  0  0  0  0  0
  150.8632  142.1970  157.8308 C   0  0  0  0  0  0  0  0  0  0  0  0
  150.8024  142.0314  156.3038 C   0  0  0  0  0  0  0  0  0  0  0  0
  150.6098  140.5574  155.9118 C   0  0  0  0  0  0  0  0  0  0  0  0
  150.5812  137.8679  155.2890 N   0  0  0  0  0  0  0  0  0  0  0  0
  145.2719  130.4550  150.8108 H   0  0  0  0  0  0  0  0  0  0  0  0
  146.3634  131.5636  149.9789 H   0  0  0  0  0  0  0  0  0  0  0  0
  144.9563  132.1896  150.8577 H   0  0  0  0  0  0  0  0  0  0  0  0
  147.7814  132.9720  151.3078 H   0  0  0  0  0  0  0  0  0  0  0  0
  146.4179  133.5740  152.2209 H   0  0  0  0  0  0  0  0  0  0  0  0
  146.6117  131.6483  154.6471 H   0  0  0  0  0  0  0  0  0  0  0  0
  146.4246  133.3891  154.8104 H   0  0  0  0  0  0  0  0  0  0  0  0
  147.7542  132.5686  155.6163 H   0  0  0  0  0  0  0  0  0  0  0  0
  148.5949  130.6820  153.3739 H   0  0  0  0  0  0  0  0  0  0  0  0
  149.7366  131.6687  154.2770 H   0  0  0  0  0  0  0  0  0  0  0  0
  149.7172  131.7208  152.5186 H   0  0  0  0  0  0  0  0  0  0  0  0
  148.6021  134.7337  152.8478 H   0  0  0  0  0  0  0  0  0  0  0  0
  149.6678  136.1862  153.5385 H   0  0  0  0  0  0  0  0  0  0  0  0
  153.0518  137.2320  157.2405 H   0  0  0  0  0  0  0  0  0  0  0  0
  152.6717  139.9955  156.1122 H   0  0  0  0  0  0  0  0  0  0  0  0
  150.8524  139.4592  158.5055 H   0  0  0  0  0  0  0  0  0  0  0  0
  152.5857  139.2406  158.4653 H   0  0  0  0  0  0  0  0  0  0  0  0
  151.9551  141.4127  159.5302 H   0  0  0  0  0  0  0  0  0  0  0  0
  152.9382  141.6564  158.1068 H   0  0  0  0  0  0  0  0  0  0  0  0
  149.8972  141.9354  158.2650 H   0  0  0  0  0  0  0  0  0  0  0  0
  151.0433  143.2421  158.0845 H   0  0  0  0  0  0  0  0  0  0  0  0
  149.9896  142.6336  155.8965 H   0  0  0  0  0  0  0  0  0  0  0  0
  151.7222  142.4115  155.8571 H   0  0  0  0  0  0  0  0  0  0  0  0
  150.6095  140.4623  154.8254 H   0  0  0  0  0  0  0  0  0  0  0  0
  149.6279  140.2240  156.2513 H   0  0  0  0  0  0  0  0  0  0  0  0
  1  2  1  0  0  0  0
  1 22  1  0  0  0  0
  1 23  1  0  0  0  0
  1 24  1  0  0  0  0
  2  3  1  0  0  0  0
  3  4  1  0  0  0  0
  3 25  1  0  0  0  0
  3 26  1  0  0  0  0
  4  5  1  0  0  0  0
  4  6  1  0  0  0  0
  4  7  1  0  0  0  0
  5 27  1  0  0  0  0
  5 28  1  0  0  0  0
  5 29  1  0  0  0  0
  6 30  1  0  0  0  0
  6 31  1  0  0  0  0
  6 32  1  0  0  0  0
  7  8  1  0  0  0  0
  7 33  1  0  0  0  0
  8  9  2  0  0  0  0
  8 10  1  0  0  0  0
 10 11  1  0  0  0  0
 10 34  1  0  0  0  0
 11 21  2  0  0  0  0
 11 12  1  0  0  0  0
 12 13  2  0  0  0  0
 13 14  1  0  0  0  0
 13 35  1  0  0  0  0
 14 15  1  0  0  0  0
 14 21  1  0  0  0  0
 15 20  1  0  0  0  0
 15 16  1  0  0  0  0
 15 36  1  0  0  0  0
 16 17  1  0  0  0  0
 16 37  1  0  0  0  0
 16 38  1  0  0  0  0
 17 18  1  0  0  0  0
 17 39  1  0  0  0  0
 17 40  1  0  0  0  0
 18 19  1  0  0  0  0
 18 41  1  0  0  0  0
 18 42  1  0  0  0  0
 19 20  1  0  0  0  0
 19 43  1  0  0  0  0
 19 44  1  0  0  0  0
 20 45  1  0  0  0  0
 20 46  1  0  0  0  0
M  END
> <s_m_source_file>
AV-unprocessed.smi

> <i_m_source_file_index>
2422

> <i_lp_mmshare_version>
43012

> <i_f3d_flags>
0

> <s_epik_input>
W0NIM11PW0NIMl1DKFtDSDNdKShbQ0gzXSlbTkhdQyg9TylbTkhdYzFuW2NIXW4objEpW0NIXTJbQ0gyXVtDSDJdW0NIMl1bQ0gyXVtDSDJdMg==

> <s_epik_cmdline>
J2VwaWtfcHl0aG9uJywgJy1waCcsICc3LjAnLCAnLXRuJywgJzgnLCAnLW1hJywgJzIwMCcsICctbWV0YWxfYmluZGluZycsICctaW1hZScsICc8aW5maWxlLm1hZT4nLCAnLW9tYWUnLCAnPG91dGZpbGUubWFlPic=

> <r_lp_tautomer_probability>
1

> <r_epik_Ionization_Penalty>
0.000103736

> <r_epik_Ionization_Penalty_Charging>
0

> <r_epik_Ionization_Penalty_Neutral>
0.000103736

> <r_epik_State_Penalty>
-0

> <r_epik_Charging_Adjusted_Penalty>
0

> <i_epik_Tot_Q>
0

> <i_epik_Tot_abs_Q>
0

> <r_epik_Metal_State_Penalty>
-0

> <b_epik_Metal_Only>
0

> <s_lp_Force_Field>
OPLS_2005

> <r_lp_Energy>
18.085

> <b_lp_Chiralities_Consistent>
1

> <s_lp_Variant>
AV-unprocessed.smi:2422-1

> <Gold.Version>
5.8.1

> <Gold.Id.Protein>
6NUR|6NUR_protein|mol2

> <Gold.PLP.Fitness>
40.5987

> <Gold.PLP.PLP>
-32.3355

> <Gold.PLP.part.hbond>
-3.4075

> <Gold.PLP.part.metal>
0.0000

> <Gold.PLP.part.buried>
-5.1029

> <Gold.PLP.part.nonpolar>
-24.5819

> <Gold.PLP.part.repulsive>
0.3245

> <Gold.PLP.ligand.clash>
0.0000

> <Gold.PLP.ligand.torsion>
0.4016

> <Gold.PLP.Chemscore.Hbond>
3.0000

> <Gold.PLP.Chemscore.CHOScore>
0.0000

> <Gold.PLP.Chemscore.Metal>
0.0000

> <Gold.Chemscore.Hbonds>
donor molecule, donor type, donor heavy atom, donor atom, acceptor molecule, acceptor atom, score
      L1  H     7    33       P1  7948  0.95
      L1  H    10    34       P1  7948  1.00
      P1  H 10752 10765       L1    12  1.00

> <Gold.PLP.Chemscore.Internal.Correction>
0.0665

> <Gold.Rescore>
     Score         DG    S(hbond)    S(metal)    S(lipo)     H(rot)  DE(clash)    DE(int)     intcor
     15.87     -17.28       2.53        0.00      65.84       1.70       0.04       1.37       ----

> <Gold.Chemscore.Fitness>
15.8721

> <Gold.Chemscore.DG>
-17.2783

> <Gold.Chemscore.ZeroCoef>
-5.4800

> <Gold.Chemscore.Hbond>
2.5255

> <Gold.Chemscore.Metal>
0.0000

> <Gold.Chemscore.Lipo>
65.8409

> <Gold.Chemscore.Internal_Hbond>
0.0000

> <Gold.Chemscore.DEClash>
0.0402

> <Gold.Chemscore.DEInternal>
1.3659

> <Gold.Chemscore.Rot>
1.6954

> <Gold.Chemscore.Internal.Correction>
   9.000000E+99

> <Gold.Chemscore.Hbonds>
donor molecule, donor type, donor heavy atom, donor atom, acceptor molecule, acceptor atom, score
      L1  H     7    33       P1  7948  0.21
      L1  H    10    34       P1  7948  0.30
      P1  H 10752 10765       L1    12  0.26

> <Gold.Chemscore.Hbond.Weighted>
-8.4351

> <Gold.Chemscore.Metal.Weighted>
-0.0000

> <Gold.Chemscore.Lipo.Weighted>
-7.7034

> <Gold.Chemscore.Internal_Hbond.Weighted>
0.0000

> <Gold.Chemscore.DEClash.Weighted>
0.0402

> <Gold.Chemscore.DEInternal.Weighted>
1.3659

> <Gold.Chemscore.Rot.Weighted>
4.3402

> <Gold.Chemscore.Internal.Correction.Weighted>
   9.000000E+99

> <Gold.Protein.RotatedTorsions>
[ 6907 6896 6895 6894 ] final   92.51 input  -60.11 | X-H torsion
[ 7974 7965 7964 7962 ] final  -94.65 input  175.53 | X-H torsion
[ 8008 7997 7996 7995 ] final -162.50 input   59.86 | X-H torsion
[ 10167 10162 10161 10158 ] final  -36.48 input  -65.29 | X-H torsion
[ 10718 10713 10712 10709 ] final  171.05 input   66.30 | X-H torsion
[ 10763 10752 10751 10750 ] final -169.24 input  -60.55 | X-H torsion
[ 11005 11000 10999 10996 ] final  -14.81 input  -57.11 | X-H torsion

> <Gold.Protein.ActiveResidues>
 VAL166  LYS551  ARG553  GLY616  TRP617  ASP618  TYR619  PRO620  LYS621  CYS622 
 ASP623  PHE694  ASN695  SER759  ASP760  ASP761  ALA762  ILE779  LEU786  VAL792 
 PHE793  MET794  SER795  GLU796  ALA797  LYS798  CYS799  TRP800  GLU811  SER814 

> <Gold.Protein.RotatedAtoms>
  152.5452  134.1491  159.8510 H   0  0  0  0  0  0  0  0  0  0  0  0  # atno 6907 bound_to 6896
  151.1519  133.4894  159.2602 H   0  0  0  0  0  0  0  0  0  0  0  0  # atno 6908 bound_to 6896
  151.1463  135.0215  159.8703 H   0  0  0  0  0  0  0  0  0  0  0  0  # atno 6909 bound_to 6896
  145.3705  140.9505  143.2450 H   0  0  0  0  0  0  0  0  0  0  0  0  # atno 7974 bound_to 7965
  155.8076  140.0901  157.1922 H   0  0  0  0  0  0  0  0  0  0  0  0  # atno 8008 bound_to 7997
  154.3980  140.1460  156.3408 H   0  0  0  0  0  0  0  0  0  0  0  0  # atno 8009 bound_to 7997
  155.8398  140.3439  155.5627 H   0  0  0  0  0  0  0  0  0  0  0  0  # atno 8010 bound_to 7997
  140.7141  143.3406  151.2366 H   0  0  0  0  0  0  0  0  0  0  0  0  # atno 10167 bound_to 10162
  156.9992  131.0171  151.2835 H   0  0  0  0  0  0  0  0  0  0  0  0  # atno 10718 bound_to 10713
  154.6543  135.2916  154.9947 H   0  0  0  0  0  0  0  0  0  0  0  0  # atno 10763 bound_to 10752
  154.1029  135.6574  153.4875 H   0  0  0  0  0  0  0  0  0  0  0  0  # atno 10764 bound_to 10752
  153.0394  135.5247  154.7466 H   0  0  0  0  0  0  0  0  0  0  0  0  # atno 10765 bound_to 10752
  140.7902  133.8294  155.9372 H   0  0  0  0  0  0  0  0  0  0  0  0  # atno 11005 bound_to 11000
  144.8580  139.5221  143.6826 LP  0  0  0  0  0  0  0  0  0  0  0  0  # atno 17320 bound_to 7965
  146.2887  139.7078  142.9176 LP  0  0  0  0  0  0  0  0  0  0  0  0  # atno 17321 bound_to 7965
  139.6912  143.9688  152.2860 LP  0  0  0  0  0  0  0  0  0  0  0  0  # atno 17342 bound_to 10162
  139.9351  144.6717  150.8323 LP  0  0  0  0  0  0  0  0  0  0  0  0  # atno 17343 bound_to 10162
  157.5402  130.8115  149.8020 LP  0  0  0  0  0  0  0  0  0  0  0  0  # atno 17370 bound_to 10713
  156.0177  130.3807  150.2057 LP  0  0  0  0  0  0  0  0  0  0  0  0  # atno 17371 bound_to 10713
  140.9397  134.1917  157.4806 LP  0  0  0  0  0  0  0  0  0  0  0  0  # atno 17394 bound_to 11000
  139.8732  134.9867  156.5334 LP  0  0  0  0  0  0  0  0  0  0  0  0  # atno 17395 bound_to 11000

$$$$
