AV-unprocessed.smi:488|AV-procd|sdf|2701|dock4
  -GOLD-   2262023133D 1   1.00000     0.00000
 Structure written by MMmdl.
 45 46  0  0  0  0  0  0  0  0  1 V2000
  147.0138  142.3055  157.3286 C   0  0  0  0  0  0  0  0  0  0  0  0
  147.9956  141.5132  156.5081 C   0  0  0  0  0  0  0  0  0  0  0  0
  147.5588  141.0235  155.3945 N   0  0  0  0  0  0  0  0  0  0  0  0
  148.3739  140.2724  154.5691 N   0  0  0  0  0  0  0  0  0  0  0  0
  147.7085  139.7859  153.3526 C   0  0  0  0  0  0  0  0  0  0  0  0
  146.6633  138.7107  153.6691 C   0  0  0  0  0  0  0  0  0  0  0  0
  145.7630  138.9637  154.4715 O   0  0  0  0  0  0  0  0  0  0  0  0
  146.8222  137.5379  153.0215 N   0  0  0  0  0  0  0  0  0  0  0  0
  146.0427  136.4431  153.1020 C   0  0  0  0  0  0  0  0  0  0  0  0
  145.0606  136.3117  153.8359 O   0  0  0  0  0  0  0  0  0  0  0  0
  146.4715  135.4862  152.2657 N   0  0  0  0  0  0  0  0  0  0  0  0
  145.7524  134.2549  151.9529 C   0  0  0  0  0  0  0  0  0  0  0  0
  146.6943  133.2769  151.2258 C   0  0  0  0  0  0  0  0  0  0  0  0
  145.9628  131.9847  150.8284 C   0  0  0  0  0  0  0  0  0  0  0  0
  144.7232  132.2877  149.9723 C   0  0  0  0  0  0  0  0  0  0  0  0
  143.7775  133.2631  150.6910 C   0  0  0  0  0  0  0  0  0  0  0  0
  144.5068  134.5556  151.0939 C   0  0  0  0  0  0  0  0  0  0  0  0
  149.6817  139.9809  154.8268 C   0  0  0  0  0  0  0  0  0  0  0  0
  150.3740  139.3068  154.0631 O   0  0  0  0  0  0  0  0  0  0  0  0
  150.1704  140.5420  156.0883 C   0  0  0  0  0  0  0  0  0  0  0  0
  151.5338  140.2560  156.3998 C   0  0  0  0  0  0  0  0  0  0  0  0
  152.6427  140.0452  156.6570 N   0  0  0  0  0  0  0  0  0  0  0  0
  149.3802  141.2815  156.9060 C   0  0  0  0  0  0  0  0  0  0  0  0
  149.8414  141.8832  158.2265 C   0  0  0  0  0  0  0  0  0  0  0  0
  147.3093  143.3536  157.3777 H   0  0  0  0  0  0  0  0  0  0  0  0
  146.9590  141.9203  158.3470 H   0  0  0  0  0  0  0  0  0  0  0  0
  146.0073  142.2653  156.9092 H   0  0  0  0  0  0  0  0  0  0  0  0
  147.2193  140.6110  152.8310 H   0  0  0  0  0  0  0  0  0  0  0  0
  148.4380  139.3903  152.6432 H   0  0  0  0  0  0  0  0  0  0  0  0
  147.6161  137.4775  152.4013 H   0  0  0  0  0  0  0  0  0  0  0  0
  147.3658  135.6138  151.8153 H   0  0  0  0  0  0  0  0  0  0  0  0
  145.4321  133.7824  152.8837 H   0  0  0  0  0  0  0  0  0  0  0  0
  147.1020  133.7503  150.3312 H   0  0  0  0  0  0  0  0  0  0  0  0
  147.5460  133.0348  151.8628 H   0  0  0  0  0  0  0  0  0  0  0  0
  146.6401  131.3269  150.2831 H   0  0  0  0  0  0  0  0  0  0  0  0
  145.6631  131.4438  151.7269 H   0  0  0  0  0  0  0  0  0  0  0  0
  145.0335  132.7151  149.0181 H   0  0  0  0  0  0  0  0  0  0  0  0
  144.1961  131.3620  149.7397 H   0  0  0  0  0  0  0  0  0  0  0  0
  142.9292  133.4996  150.0483 H   0  0  0  0  0  0  0  0  0  0  0  0
  143.3669  132.7845  151.5809 H   0  0  0  0  0  0  0  0  0  0  0  0
  143.8210  135.2059  151.6383 H   0  0  0  0  0  0  0  0  0  0  0  0
  144.8000  135.1001  150.1950 H   0  0  0  0  0  0  0  0  0  0  0  0
  150.9181  141.7915  158.3660 H   0  0  0  0  0  0  0  0  0  0  0  0
  149.3541  141.3803  159.0622 H   0  0  0  0  0  0  0  0  0  0  0  0
  149.6004  142.9455  158.2757 H   0  0  0  0  0  0  0  0  0  0  0  0
  1  2  1  0  0  0  0
  1 25  1  0  0  0  0
  1 26  1  0  0  0  0
  1 27  1  0  0  0  0
  2 23  1  0  0  0  0
  2  3  2  0  0  0  0
  3  4  1  0  0  0  0
  4  5  1  0  0  0  0
  4 18  1  0  0  0  0
  5  6  1  0  0  0  0
  5 28  1  0  0  0  0
  5 29  1  0  0  0  0
  6  7  2  0  0  0  0
  6  8  1  0  0  0  0
  8  9  1  0  0  0  0
  8 30  1  0  0  0  0
  9 10  2  0  0  0  0
  9 11  1  0  0  0  0
 11 12  1  0  0  0  0
 11 31  1  0  0  0  0
 12 17  1  0  0  0  0
 12 13  1  0  0  0  0
 12 32  1  0  0  0  0
 13 14  1  0  0  0  0
 13 33  1  0  0  0  0
 13 34  1  0  0  0  0
 14 15  1  0  0  0  0
 14 35  1  0  0  0  0
 14 36  1  0  0  0  0
 15 16  1  0  0  0  0
 15 37  1  0  0  0  0
 15 38  1  0  0  0  0
 16 17  1  0  0  0  0
 16 39  1  0  0  0  0
 16 40  1  0  0  0  0
 17 41  1  0  0  0  0
 17 42  1  0  0  0  0
 18 19  2  0  0  0  0
 18 20  1  0  0  0  0
 20 21  1  0  0  0  0
 20 23  2  0  0  0  0
 21 22  3  0  0  0  0
 23 24  1  0  0  0  0
 24 43  1  0  0  0  0
 24 44  1  0  0  0  0
 24 45  1  0  0  0  0
M  END
> <s_m_source_file>
AV-unprocessed.smi

> <i_m_source_file_index>
488

> <i_lp_mmshare_version>
43012

> <i_f3d_flags>
0

> <s_epik_input>
TiNDYyhjMVtDSDNdKWMoPU8pbihuYzFbQ0gzXSlbQ0gyXUMoPU8pW05IXUMoPU8pW05IXVtDSF0yW0NIMl1bQ0gyXVtDSDJdW0NIMl1bQ0gyXTI=

> <s_epik_cmdline>
J2VwaWtfcHl0aG9uJywgJy1waCcsICc3LjAnLCAnLXRuJywgJzgnLCAnLW1hJywgJzIwMCcsICctbWV0YWxfYmluZGluZycsICctaW1hZScsICc8aW5maWxlLm1hZT4nLCAnLW9tYWUnLCAnPG91dGZpbGUubWFlPic=

> <r_lp_tautomer_probability>
1

> <r_epik_Ionization_Penalty>
3.27035e-05

> <r_epik_Ionization_Penalty_Charging>
1.69167e-11

> <r_epik_Ionization_Penalty_Neutral>
3.27035e-05

> <r_epik_State_Penalty>
-0

> <r_epik_Charging_Adjusted_Penalty>
1.69167e-11

> <i_epik_Tot_Q>
0

> <i_epik_Tot_abs_Q>
0

> <r_epik_Metal_State_Penalty>
-0

> <b_epik_Metal_Only>
0

> <s_lp_Force_Field>
OPLS_2005

> <r_lp_Energy>
25.832

> <b_lp_Chiralities_Consistent>
1

> <s_lp_Variant>
AV-unprocessed.smi:488-1

> <Gold.Version>
5.8.1

> <Gold.Id.Protein>
6NUR|6NUR_protein|mol2

> <Gold.PLP.Fitness>
43.7232

> <Gold.PLP.PLP>
-33.3081

> <Gold.PLP.part.hbond>
-4.0000

> <Gold.PLP.part.metal>
0.0000

> <Gold.PLP.part.buried>
-2.2352

> <Gold.PLP.part.nonpolar>
-28.0511

> <Gold.PLP.part.repulsive>
0.8996

> <Gold.PLP.ligand.clash>
0.0000

> <Gold.PLP.ligand.torsion>
0.2558

> <Gold.PLP.Chemscore.Hbond>
3.6383

> <Gold.PLP.Chemscore.CHOScore>
0.0000

> <Gold.PLP.Chemscore.Metal>
0.0000

> <Gold.Chemscore.Hbonds>
donor molecule, donor type, donor heavy atom, donor atom, acceptor molecule, acceptor atom, score
      L1  H     8    30       P1  7948  0.82
      L1  H    11    31       P1  7948  1.00
      P1  H  7989  7998       L1    19  0.72
      P1  H  7997  8008       L1    22  0.96

> <Gold.PLP.Chemscore.Internal.Correction>
0.0120

> <Gold.Rescore>
     Score         DG    S(hbond)    S(metal)    S(lipo)     H(rot)  DE(clash)    DE(int)     intcor
     16.02     -18.91       2.97        0.00      64.58       1.59       0.04       2.85       ----

> <Gold.Chemscore.Fitness>
16.0194

> <Gold.Chemscore.DG>
-18.9086

> <Gold.Chemscore.ZeroCoef>
-5.4800

> <Gold.Chemscore.Hbond>
2.9742

> <Gold.Chemscore.Metal>
0.0000

> <Gold.Chemscore.Lipo>
64.5775

> <Gold.Chemscore.Internal_Hbond>
0.0000

> <Gold.Chemscore.DEClash>
0.0385

> <Gold.Chemscore.DEInternal>
2.8507

> <Gold.Chemscore.Rot>
1.5862

> <Gold.Chemscore.Internal.Correction>
   9.000000E+99

> <Gold.Chemscore.Hbonds>
donor molecule, donor type, donor heavy atom, donor atom, acceptor molecule, acceptor atom, score
      L1  H     8    30       P1  7948  0.81
      L1  H    11    31       P1  7948  0.95
      P1  H  7989  7998       L1    19  0.10
      P1  H  7997  8008       L1    22  0.92

> <Gold.Chemscore.Hbond.Weighted>
-9.9337

> <Gold.Chemscore.Metal.Weighted>
-0.0000

> <Gold.Chemscore.Lipo.Weighted>
-7.5556

> <Gold.Chemscore.Internal_Hbond.Weighted>
0.0000

> <Gold.Chemscore.DEClash.Weighted>
0.0385

> <Gold.Chemscore.DEInternal.Weighted>
2.8507

> <Gold.Chemscore.Rot.Weighted>
4.0607

> <Gold.Chemscore.Internal.Correction.Weighted>
   9.000000E+99

> <Gold.Protein.RotatedTorsions>
[ 6907 6896 6895 6894 ] final   26.62 input  -60.11 | X-H torsion
[ 7974 7965 7964 7962 ] final   49.48 input  175.53 | X-H torsion
[ 8008 7997 7996 7995 ] final  -34.04 input   59.86 | X-H torsion
[ 10167 10162 10161 10158 ] final  131.04 input  -65.29 | X-H torsion
[ 10718 10713 10712 10709 ] final -168.47 input   66.30 | X-H torsion
[ 10763 10752 10751 10750 ] final  -23.99 input  -60.55 | X-H torsion
[ 11005 11000 10999 10996 ] final  132.19 input  -57.11 | X-H torsion

> <Gold.Protein.ActiveResidues>
 VAL166  LYS551  ARG553  GLY616  TRP617  ASP618  TYR619  PRO620  LYS621  CYS622 
 ASP623  PHE694  ASN695  SER759  ASP760  ASP761  ALA762  ILE779  LEU786  VAL792 
 PHE793  MET794  SER795  GLU796  ALA797  LYS798  CYS799  TRP800  GLU811  SER814 

> <Gold.Protein.RotatedAtoms>
  151.9902  134.9983  160.0560 H   0  0  0  0  0  0  0  0  0  0  0  0  # atno 6907 bound_to 6896
  152.1615  133.4580  159.4872 H   0  0  0  0  0  0  0  0  0  0  0  0  # atno 6908 bound_to 6896
  150.6888  134.1983  159.4355 H   0  0  0  0  0  0  0  0  0  0  0  0  # atno 6909 bound_to 6896
  146.0105  139.4538  142.9959 H   0  0  0  0  0  0  0  0  0  0  0  0  # atno 7974 bound_to 7965
  154.4132  140.1694  156.1985 H   0  0  0  0  0  0  0  0  0  0  0  0  # atno 8008 bound_to 7997
  155.9544  140.3398  155.6412 H   0  0  0  0  0  0  0  0  0  0  0  0  # atno 8009 bound_to 7997
  155.6829  140.0724  157.2468 H   0  0  0  0  0  0  0  0  0  0  0  0  # atno 8010 bound_to 7997
  139.5402  144.6723  151.4650 H   0  0  0  0  0  0  0  0  0  0  0  0  # atno 10167 bound_to 10162
  156.6975  130.9183  151.3076 H   0  0  0  0  0  0  0  0  0  0  0  0  # atno 10718 bound_to 10713
  153.6767  135.6969  153.5130 H   0  0  0  0  0  0  0  0  0  0  0  0  # atno 10763 bound_to 10752
  153.2516  135.4273  155.0803 H   0  0  0  0  0  0  0  0  0  0  0  0  # atno 10764 bound_to 10752
  154.8412  135.3533  154.6310 H   0  0  0  0  0  0  0  0  0  0  0  0  # atno 10765 bound_to 10752
  139.9775  134.9559  156.9546 H   0  0  0  0  0  0  0  0  0  0  0  0  # atno 11005 bound_to 11000
  145.7349  141.0029  143.1332 LP  0  0  0  0  0  0  0  0  0  0  0  0  # atno 17320 bound_to 7965
  144.6951  139.9029  143.7459 LP  0  0  0  0  0  0  0  0  0  0  0  0  # atno 17321 bound_to 7965
  140.6628  143.8461  150.6908 LP  0  0  0  0  0  0  0  0  0  0  0  0  # atno 17342 bound_to 10162
  140.1861  143.4075  152.1897 LP  0  0  0  0  0  0  0  0  0  0  0  0  # atno 17343 bound_to 10162
  157.6986  130.9308  150.0717 LP  0  0  0  0  0  0  0  0  0  0  0  0  # atno 17370 bound_to 10713
  156.1753  130.3648  149.9109 LP  0  0  0  0  0  0  0  0  0  0  0  0  # atno 17371 bound_to 10713
  140.5164  134.0951  155.7282 LP  0  0  0  0  0  0  0  0  0  0  0  0  # atno 17394 bound_to 11000
  141.1451  133.9070  157.2235 LP  0  0  0  0  0  0  0  0  0  0  0  0  # atno 17395 bound_to 11000

$$$$
