AV-unprocessed.smi:3350|AV-procd|sdf|12939|dock6
  -GOLD-   2272019373D 1   1.00000     0.00000
 Structure written by MMmdl.
 41 42  0  0  0  0  0  0  0  0  1 V2000
  144.4822  135.9248  153.0720 C   0  0  0  0  0  0  0  0  0  0  0  0
  145.1935  136.5676  151.8739 C   0  0  2  0  0  0  0  0  0  0  0  0
  145.2918  135.5904  150.6845 C   0  0  0  0  0  0  0  0  0  0  0  0
  145.5620  134.2270  151.1056 N   0  0  0  0  0  0  0  0  0  0  0  0
  146.6039  133.7606  151.8790 C   0  0  0  0  0  0  0  0  0  0  0  0
  146.4319  132.4136  152.0219 C   0  0  0  0  0  0  0  0  0  0  0  0
  145.2417  132.1452  151.2897 C   0  0  0  0  0  0  0  0  0  0  0  0
  144.7252  133.2316  150.7391 N   0  0  0  0  0  0  0  0  0  0  0  0
  146.5231  137.0086  152.2931 N   0  0  0  0  0  0  0  0  0  0  0  0
  146.7818  138.0145  153.1410 C   0  0  0  0  0  0  0  0  0  0  0  0
  145.9170  138.6999  153.6871 O   0  0  0  0  0  0  0  0  0  0  0  0
  148.0993  138.1781  153.3224 N   0  0  0  0  0  0  0  0  0  0  0  0
  148.7201  139.1481  154.2228 C   0  0  2  0  0  0  0  0  0  0  0  0
  148.3344  140.5673  153.7824 C   0  0  0  0  0  0  0  0  0  0  0  0
  150.2528  138.9596  154.2887 C   0  0  2  0  0  0  0  0  0  0  0  0
  150.7500  137.6980  155.0095 C   0  0  0  0  0  0  0  0  0  0  0  0
  152.0893  138.1499  155.5449 C   0  0  0  0  0  0  0  0  0  0  0  0
  151.7816  139.5880  155.9427 C   0  0  0  0  0  0  0  0  0  0  0  0
  150.8728  140.0599  154.9542 O   0  0  0  0  0  0  0  0  0  0  0  0
  143.4723  135.6115  152.8065 H   0  0  0  0  0  0  0  0  0  0  0  0
  144.4007  136.6265  153.9029 H   0  0  0  0  0  0  0  0  0  0  0  0
  145.0201  135.0460  153.4293 H   0  0  0  0  0  0  0  0  0  0  0  0
  144.5936  137.4266  151.5673 H   0  0  0  0  0  0  0  0  0  0  0  0
  144.3742  135.6095  150.0938 H   0  0  0  0  0  0  0  0  0  0  0  0
  146.0972  135.8963  150.0157 H   0  0  0  0  0  0  0  0  0  0  0  0
  147.3686  134.4197  152.2629 H   0  0  0  0  0  0  0  0  0  0  0  0
  147.0590  131.7250  152.5682 H   0  0  0  0  0  0  0  0  0  0  0  0
  144.7420  131.1993  151.1422 H   0  0  0  0  0  0  0  0  0  0  0  0
  147.3084  136.5132  151.8974 H   0  0  0  0  0  0  0  0  0  0  0  0
  148.7240  137.5659  152.8186 H   0  0  0  0  0  0  0  0  0  0  0  0
  148.3209  139.0097  155.2293 H   0  0  0  0  0  0  0  0  0  0  0  0
  148.7650  141.3149  154.4491 H   0  0  0  0  0  0  0  0  0  0  0  0
  147.2521  140.7007  153.7950 H   0  0  0  0  0  0  0  0  0  0  0  0
  148.6838  140.7823  152.7720 H   0  0  0  0  0  0  0  0  0  0  0  0
  150.6550  138.9581  153.2746 H   0  0  0  0  0  0  0  0  0  0  0  0
  150.1016  137.4269  155.8429 H   0  0  0  0  0  0  0  0  0  0  0  0
  150.8253  136.8351  154.3474 H   0  0  0  0  0  0  0  0  0  0  0  0
  152.4468  137.5428  156.3768 H   0  0  0  0  0  0  0  0  0  0  0  0
  152.8402  138.1288  154.7539 H   0  0  0  0  0  0  0  0  0  0  0  0
  151.2849  139.6157  156.9137 H   0  0  0  0  0  0  0  0  0  0  0  0
  152.6744  140.2110  155.9985 H   0  0  0  0  0  0  0  0  0  0  0  0
  1  2  1  0  0  0  0
  1 20  1  0  0  0  0
  1 21  1  0  0  0  0
  1 22  1  0  0  0  0
  2  3  1  0  0  0  0
  2  9  1  0  0  0  0
  2 23  1  0  0  0  0
  3  4  1  0  0  0  0
  3 24  1  0  0  0  0
  3 25  1  0  0  0  0
  4  8  1  0  0  0  0
  4  5  1  0  0  0  0
  5  6  2  0  0  0  0
  5 26  1  0  0  0  0
  6  7  1  0  0  0  0
  6 27  1  0  0  0  0
  7  8  2  0  0  0  0
  7 28  1  0  0  0  0
  9 10  1  0  0  0  0
  9 29  1  0  0  0  0
 10 11  2  0  0  0  0
 10 12  1  0  0  0  0
 12 13  1  0  0  0  0
 12 30  1  0  0  0  0
 13 14  1  0  0  0  0
 13 15  1  0  0  0  0
 13 31  1  0  0  0  0
 14 32  1  0  0  0  0
 14 33  1  0  0  0  0
 14 34  1  0  0  0  0
 15 19  1  0  0  0  0
 15 16  1  0  0  0  0
 15 35  1  0  0  0  0
 16 17  1  0  0  0  0
 16 36  1  0  0  0  0
 16 37  1  0  0  0  0
 17 18  1  0  0  0  0
 17 38  1  0  0  0  0
 17 39  1  0  0  0  0
 18 19  1  0  0  0  0
 18 40  1  0  0  0  0
 18 41  1  0  0  0  0
M  END
> <s_m_source_file>
AV-unprocessed.smi

> <i_m_source_file_index>
3350

> <i_lp_mmshare_version>
43012

> <i_f3d_flags>
0

> <s_epik_input>
bjFbY0hdW2NIXVtjSF1uMVtDSDJdW0NAQEhdKFtDSDNdKVtOSF1DKD1PKVtOSF1bQ0BIXShbQ0gzXSlbQ0BASF0yW0NIMl1bQ0gyXVtDSDJdTzI=

> <s_epik_cmdline>
J2VwaWtfcHl0aG9uJywgJy1waCcsICc3LjAnLCAnLXRuJywgJzgnLCAnLW1hJywgJzIwMCcsICctbWV0YWxfYmluZGluZycsICctaW1hZScsICc8aW5maWxlLm1hZT4nLCAnLW9tYWUnLCAnPG91dGZpbGUubWFlPic=

> <r_lp_tautomer_probability>
1

> <r_epik_Ionization_Penalty>
6.42349e-05

> <r_epik_Ionization_Penalty_Charging>
0

> <r_epik_Ionization_Penalty_Neutral>
6.42349e-05

> <r_epik_State_Penalty>
-0

> <r_epik_Charging_Adjusted_Penalty>
0

> <i_epik_Tot_Q>
0

> <i_epik_Tot_abs_Q>
0

> <r_epik_Metal_State_Penalty>
-0

> <b_epik_Metal_Only>
0

> <s_lp_Force_Field>
OPLS_2005

> <r_lp_Energy>
17.0585

> <b_lp_Chiralities_Consistent>
1

> <s_lp_Variant>
AV-unprocessed.smi:3350-1

> <Gold.Version>
5.8.1

> <Gold.Id.Protein>
6NUR|6NUR_protein|mol2

> <Gold.PLP.Fitness>
45.9519

> <Gold.PLP.PLP>
-35.1512

> <Gold.PLP.part.hbond>
-3.3704

> <Gold.PLP.part.metal>
0.0000

> <Gold.PLP.part.buried>
-3.8363

> <Gold.PLP.part.nonpolar>
-29.0487

> <Gold.PLP.part.repulsive>
0.4213

> <Gold.PLP.ligand.clash>
0.0000

> <Gold.PLP.ligand.torsion>
0.5111

> <Gold.PLP.Chemscore.Hbond>
2.9280

> <Gold.PLP.Chemscore.CHOScore>
1.0000

> <Gold.PLP.Chemscore.Metal>
0.0000

> <Gold.Chemscore.Hbonds>
donor molecule, donor type, donor heavy atom, donor atom, acceptor molecule, acceptor atom, score
      L1  H     9    29       P1  7948  1.00
      L1  H    12    30       P1  7948  1.00
      P1  H  7989  7998       L1    19  0.95
      L1  C     5    26       P1  7948  1.00

> <Gold.PLP.Chemscore.Internal.Correction>
0.0388

> <Gold.Rescore>
     Score         DG    S(hbond)    S(metal)    S(lipo)     H(rot)  DE(clash)    DE(int)     intcor
     16.01     -16.59       1.93        0.00      79.54       1.82       0.10       0.47       ----

> <Gold.Chemscore.Fitness>
16.0140

> <Gold.Chemscore.DG>
-16.5871

> <Gold.Chemscore.ZeroCoef>
-5.4800

> <Gold.Chemscore.Hbond>
1.9339

> <Gold.Chemscore.Metal>
0.0000

> <Gold.Chemscore.Lipo>
79.5408

> <Gold.Chemscore.Internal_Hbond>
0.0000

> <Gold.Chemscore.DEClash>
0.1024

> <Gold.Chemscore.DEInternal>
0.4707

> <Gold.Chemscore.Rot>
1.8197

> <Gold.Chemscore.Internal.Correction>
   9.000000E+99

> <Gold.Chemscore.Hbonds>
donor molecule, donor type, donor heavy atom, donor atom, acceptor molecule, acceptor atom, score
      L1  H     9    29       P1  7948  0.95
      L1  H    12    30       P1  7948  0.95
      P1  H  7989  7998       L1    19  0.20

> <Gold.Chemscore.Hbond.Weighted>
-6.4591

> <Gold.Chemscore.Metal.Weighted>
-0.0000

> <Gold.Chemscore.Lipo.Weighted>
-9.3063

> <Gold.Chemscore.Internal_Hbond.Weighted>
0.0000

> <Gold.Chemscore.DEClash.Weighted>
0.1024

> <Gold.Chemscore.DEInternal.Weighted>
0.4707

> <Gold.Chemscore.Rot.Weighted>
4.6583

> <Gold.Chemscore.Internal.Correction.Weighted>
   9.000000E+99

> <Gold.Protein.RotatedTorsions>
[ 6907 6896 6895 6894 ] final -149.61 input  -60.11 | X-H torsion
[ 7974 7965 7964 7962 ] final   43.27 input  175.53 | X-H torsion
[ 8008 7997 7996 7995 ] final  -97.33 input   59.86 | X-H torsion
[ 10167 10162 10161 10158 ] final   42.85 input  -65.29 | X-H torsion
[ 10718 10713 10712 10709 ] final    3.00 input   66.30 | X-H torsion
[ 10763 10752 10751 10750 ] final -154.98 input  -60.55 | X-H torsion
[ 11005 11000 10999 10996 ] final  -53.58 input  -57.11 | X-H torsion

> <Gold.Protein.ActiveResidues>
 VAL166  LYS551  ARG553  GLY616  TRP617  ASP618  TYR619  PRO620  LYS621  CYS622 
 ASP623  PHE694  ASN695  SER759  ASP760  ASP761  ALA762  ILE779  LEU786  VAL792 
 PHE793  MET794  SER795  GLU796  ALA797  LYS798  CYS799  TRP800  GLU811  SER814 

> <Gold.Protein.RotatedAtoms>
  151.1866  133.4692  159.2594 H   0  0  0  0  0  0  0  0  0  0  0  0  # atno 6907 bound_to 6896
  151.1205  135.0077  159.8546 H   0  0  0  0  0  0  0  0  0  0  0  0  # atno 6908 bound_to 6896
  152.5455  134.1778  159.8676 H   0  0  0  0  0  0  0  0  0  0  0  0  # atno 6909 bound_to 6896
  146.0670  139.5206  142.9622 H   0  0  0  0  0  0  0  0  0  0  0  0  # atno 7974 bound_to 7965
  154.7863  140.0464  157.1166 H   0  0  0  0  0  0  0  0  0  0  0  0  # atno 8008 bound_to 7997
  154.9644  140.3081  155.4996 H   0  0  0  0  0  0  0  0  0  0  0  0  # atno 8009 bound_to 7997
  156.2944  140.2265  156.4732 H   0  0  0  0  0  0  0  0  0  0  0  0  # atno 8010 bound_to 7997
  140.3502  144.2359  150.6146 H   0  0  0  0  0  0  0  0  0  0  0  0  # atno 10167 bound_to 10162
  156.8713  130.5621  149.5657 H   0  0  0  0  0  0  0  0  0  0  0  0  # atno 10718 bound_to 10713
  154.7820  135.3178  154.7968 H   0  0  0  0  0  0  0  0  0  0  0  0  # atno 10763 bound_to 10752
  153.8677  135.6847  153.4781 H   0  0  0  0  0  0  0  0  0  0  0  0  # atno 10764 bound_to 10752
  153.1460  135.4719  154.9504 H   0  0  0  0  0  0  0  0  0  0  0  0  # atno 10765 bound_to 10752
  141.0983  133.6621  156.4192 H   0  0  0  0  0  0  0  0  0  0  0  0  # atno 11005 bound_to 11000
  145.6459  141.0274  143.1786 LP  0  0  0  0  0  0  0  0  0  0  0  0  # atno 17320 bound_to 7965
  144.7208  139.8036  143.7382 LP  0  0  0  0  0  0  0  0  0  0  0  0  # atno 17321 bound_to 7965
  140.5226  143.2262  151.8365 LP  0  0  0  0  0  0  0  0  0  0  0  0  # atno 17342 bound_to 10162
  139.4827  144.4818  151.9297 LP  0  0  0  0  0  0  0  0  0  0  0  0  # atno 17343 bound_to 10162
  156.0725  130.5754  150.9410 LP  0  0  0  0  0  0  0  0  0  0  0  0  # atno 17370 bound_to 10713
  157.6194  131.0931  150.8651 LP  0  0  0  0  0  0  0  0  0  0  0  0  # atno 17371 bound_to 10713
  140.5086  134.6417  157.5276 LP  0  0  0  0  0  0  0  0  0  0  0  0  # atno 17394 bound_to 11000
  139.9826  134.7113  155.9832 LP  0  0  0  0  0  0  0  0  0  0  0  0  # atno 17395 bound_to 11000

$$$$
