AV-unprocessed.smi:3345|AV-procd|sdf|12906|dock6
  -GOLD-   2272019323D 1   1.00000     0.00000
 Structure written by MMmdl.
 41 42  0  0  0  0  0  0  0  0  2 V2000
  146.1352  143.0300  154.4727 C   0  0  0  0  0  0  0  0  0  0  0  0
  146.8818  141.6916  154.5481 C   0  0  1  0  0  0  0  0  0  0  0  0
  147.1257  141.0948  153.1431 C   0  0  0  0  0  0  0  0  0  0  0  0
  146.3172  139.8767  152.8773 N   0  3  0  0  0  0  0  0  0  0  0  0
  146.7495  139.1262  151.6741 C   0  0  0  0  0  0  0  0  0  0  0  0
  145.8044  137.9395  151.4266 C   0  0  0  0  0  0  0  0  0  0  0  0
  145.7941  137.0972  152.5729 O   0  0  0  0  0  0  0  0  0  0  0  0
  145.3178  137.7744  153.7297 C   0  0  0  0  0  0  0  0  0  0  0  0
  146.2301  138.9717  154.0472 C   0  0  0  0  0  0  0  0  0  0  0  0
  148.1496  141.8804  155.2530 N   0  0  0  0  0  0  0  0  0  0  0  0
  149.0624  140.9267  155.5014 C   0  0  0  0  0  0  0  0  0  0  0  0
  148.8880  139.7378  155.2338 O   0  0  0  0  0  0  0  0  0  0  0  0
  150.3937  141.4063  156.0960 C   0  0  1  0  0  0  0  0  0  0  0  0
  150.2218  142.0827  157.4710 C   0  0  0  0  0  0  0  0  0  0  0  0
  151.3335  140.2922  156.1396 N   0  0  0  0  0  0  0  0  0  0  0  0
  152.0224  139.7914  157.1675 C   0  0  0  0  0  0  0  0  0  0  0  0
  152.8448  138.8060  156.8358 N   0  0  0  0  0  0  0  0  0  0  0  0
  152.5958  138.7420  155.4944 C   0  0  0  0  0  0  0  0  0  0  0  0
  151.7200  139.6279  155.0214 N   0  0  0  0  0  0  0  0  0  0  0  0
  145.1744  142.9142  153.9701 H   0  0  0  0  0  0  0  0  0  0  0  0
  146.7093  143.7778  153.9244 H   0  0  0  0  0  0  0  0  0  0  0  0
  145.9386  143.4267  155.4694 H   0  0  0  0  0  0  0  0  0  0  0  0
  146.2451  141.0081  155.1113 H   0  0  0  0  0  0  0  0  0  0  0  0
  146.9422  141.8402  152.3679 H   0  0  0  0  0  0  0  0  0  0  0  0
  148.1823  140.8323  153.0684 H   0  0  0  0  0  0  0  0  0  0  0  0
  146.7534  139.7750  150.7993 H   0  0  0  0  0  0  0  0  0  0  0  0
  147.7714  138.7690  151.8098 H   0  0  0  0  0  0  0  0  0  0  0  0
  144.7940  138.2862  151.2024 H   0  0  0  0  0  0  0  0  0  0  0  0
  146.1426  137.3619  150.5663 H   0  0  0  0  0  0  0  0  0  0  0  0
  144.2895  138.1003  153.5738 H   0  0  0  0  0  0  0  0  0  0  0  0
  145.3061  137.0779  154.5680 H   0  0  0  0  0  0  0  0  0  0  0  0
  147.2283  138.6227  154.3163 H   0  0  0  0  0  0  0  0  0  0  0  0
  145.8343  139.5130  154.9073 H   0  0  0  0  0  0  0  0  0  0  0  0
  148.3753  142.8260  155.5268 H   0  0  0  0  0  0  0  0  0  0  0  0
  150.8101  142.1529  155.4176 H   0  0  0  0  0  0  0  0  0  0  0  0
  149.5519  142.9406  157.4048 H   0  0  0  0  0  0  0  0  0  0  0  0
  151.1788  142.4450  157.8471 H   0  0  0  0  0  0  0  0  0  0  0  0
  149.8112  141.4017  158.2179 H   0  0  0  0  0  0  0  0  0  0  0  0
  151.9275  140.1614  158.1779 H   0  0  0  0  0  0  0  0  0  0  0  0
  153.0917  138.0370  154.8434 H   0  0  0  0  0  0  0  0  0  0  0  0
  145.3755  140.1954  152.6985 H   0  0  0  0  0  0  0  0  0  0  0  0
  1  2  1  0  0  0  0
  1 20  1  0  0  0  0
  1 21  1  0  0  0  0
  1 22  1  0  0  0  0
  2  3  1  0  0  0  0
  2 10  1  0  0  0  0
  2 23  1  0  0  0  0
  3  4  1  0  0  0  0
  3 24  1  0  0  0  0
  3 25  1  0  0  0  0
  4  9  1  0  0  0  0
  4  5  1  0  0  0  0
  4 41  1  0  0  0  0
  5  6  1  0  0  0  0
  5 26  1  0  0  0  0
  5 27  1  0  0  0  0
  6  7  1  0  0  0  0
  6 28  1  0  0  0  0
  6 29  1  0  0  0  0
  7  8  1  0  0  0  0
  8  9  1  0  0  0  0
  8 30  1  0  0  0  0
  8 31  1  0  0  0  0
  9 32  1  0  0  0  0
  9 33  1  0  0  0  0
 10 11  1  0  0  0  0
 10 34  1  0  0  0  0
 11 12  2  0  0  0  0
 11 13  1  0  0  0  0
 13 14  1  0  0  0  0
 13 15  1  0  0  0  0
 13 35  1  0  0  0  0
 14 36  1  0  0  0  0
 14 37  1  0  0  0  0
 14 38  1  0  0  0  0
 15 19  1  0  0  0  0
 15 16  1  0  0  0  0
 16 17  2  0  0  0  0
 16 39  1  0  0  0  0
 17 18  1  0  0  0  0
 18 19  2  0  0  0  0
 18 40  1  0  0  0  0
M  CHG  1   4   1
M  END
> <s_m_source_file>
AV-unprocessed.smi

> <i_m_source_file_index>
3345

> <i_lp_mmshare_version>
43012

> <i_f3d_flags>
0

> <s_epik_input>
W0NIMl0xW0NIMl1PW0NIMl1bQ0gyXU4xW0NIMl1bQ0BASF0oW0NIM10pW05IXUMoPU8pW0NASF0oW0NIM10pbjJbY0hdbltjSF1uMg==

> <s_epik_cmdline>
J2VwaWtfcHl0aG9uJywgJy1waCcsICc3LjAnLCAnLXRuJywgJzgnLCAnLW1hJywgJzIwMCcsICctbWV0YWxfYmluZGluZycsICctaW1hZScsICc8aW5maWxlLm1hZT4nLCAnLW9tYWUnLCAnPG91dGZpbGUubWFlPic=

> <r_lp_tautomer_probability>
1

> <r_epik_Ionization_Penalty>
0.71326

> <r_epik_Ionization_Penalty_Charging>
0.713252

> <r_epik_Ionization_Penalty_Neutral>
8.27671e-06

> <r_epik_State_Penalty>
0.737017

> <r_epik_Charging_Adjusted_Penalty>
1.45027

> <i_epik_Tot_Q>
1

> <i_epik_Tot_abs_Q>
1

> <r_epik_Metal_State_Penalty>
0.73702

> <b_epik_Metal_Only>
0

> <s_lp_Force_Field>
OPLS_2005

> <r_lp_Energy>
25.9196

> <b_lp_Chiralities_Consistent>
1

> <s_lp_Variant>
AV-unprocessed.smi:3345-8

> <Gold.Version>
5.8.1

> <Gold.Id.Protein>
6NUR|6NUR_protein|mol2

> <Gold.PLP.Fitness>
46.5179

> <Gold.PLP.PLP>
-33.2226

> <Gold.PLP.part.hbond>
-4.0000

> <Gold.PLP.part.metal>
0.0000

> <Gold.PLP.part.buried>
0.8140

> <Gold.PLP.part.nonpolar>
-29.3517

> <Gold.PLP.part.repulsive>
0.3977

> <Gold.PLP.ligand.clash>
0.0000

> <Gold.PLP.ligand.torsion>
0.9189

> <Gold.PLP.Chemscore.Hbond>
4.9920

> <Gold.PLP.Chemscore.CHOScore>
0.0000

> <Gold.PLP.Chemscore.Metal>
0.0000

> <Gold.Chemscore.Hbonds>
donor molecule, donor type, donor heavy atom, donor atom, acceptor molecule, acceptor atom, score
      L1  H     4    41       P1 10175  2.00
      L1  H    10    34       P1  8028  1.00
      P1  H  7989  7998       L1    19  1.00
      P1  H  7997  8009       L1    17  0.45

> <Gold.PLP.Chemscore.Internal.Correction>
0.1572

> <Gold.Rescore>
     Score         DG    S(hbond)    S(metal)    S(lipo)     H(rot)  DE(clash)    DE(int)     intcor
     11.15     -15.20       2.83        0.00      59.56       2.61       1.96       2.09       ----

> <Gold.Chemscore.Fitness>
11.1501

> <Gold.Chemscore.DG>
-15.2006

> <Gold.Chemscore.ZeroCoef>
-5.4800

> <Gold.Chemscore.Hbond>
2.8275

> <Gold.Chemscore.Metal>
0.0000

> <Gold.Chemscore.Lipo>
59.5560

> <Gold.Chemscore.Internal_Hbond>
0.0000

> <Gold.Chemscore.DEClash>
1.9634

> <Gold.Chemscore.DEInternal>
2.0871

> <Gold.Chemscore.Rot>
2.6138

> <Gold.Chemscore.Internal.Correction>
   9.000000E+99

> <Gold.Chemscore.Hbonds>
donor molecule, donor type, donor heavy atom, donor atom, acceptor molecule, acceptor atom, score
      L1  H     4    41       P1 10175  0.94
      L1  H    10    34       P1  8028  0.98
      P1  H  7989  7998       L1    19  0.67

> <Gold.Chemscore.Hbond.Weighted>
-9.4438

> <Gold.Chemscore.Metal.Weighted>
-0.0000

> <Gold.Chemscore.Lipo.Weighted>
-6.9681

> <Gold.Chemscore.Internal_Hbond.Weighted>
0.0000

> <Gold.Chemscore.DEClash.Weighted>
1.9634

> <Gold.Chemscore.DEInternal.Weighted>
2.0871

> <Gold.Chemscore.Rot.Weighted>
6.6912

> <Gold.Chemscore.Internal.Correction.Weighted>
   9.000000E+99

> <Gold.Protein.RotatedTorsions>
[ 6907 6896 6895 6894 ] final  -39.31 input  -60.11 | X-H torsion
[ 7974 7965 7964 7962 ] final  -46.32 input  175.53 | X-H torsion
[ 8008 7997 7996 7995 ] final  178.12 input   59.86 | X-H torsion
[ 10167 10162 10161 10158 ] final -118.63 input  -65.29 | X-H torsion
[ 10718 10713 10712 10709 ] final    6.75 input   66.30 | X-H torsion
[ 10763 10752 10751 10750 ] final -173.94 input  -60.55 | X-H torsion
[ 11005 11000 10999 10996 ] final   23.59 input  -57.11 | X-H torsion

> <Gold.Protein.ActiveResidues>
 VAL166  LYS551  ARG553  GLY616  TRP617  ASP618  TYR619  PRO620  LYS621  CYS622 
 ASP623  PHE694  ASN695  SER759  ASP760  ASP761  ALA762  ILE779  LEU786  VAL792 
 PHE793  MET794  SER795  GLU796  ALA797  LYS798  CYS799  TRP800  GLU811  SER814 

> <Gold.Protein.RotatedAtoms>
  150.9918  134.9251  159.7903 H   0  0  0  0  0  0  0  0  0  0  0  0  # atno 6907 bound_to 6896
  152.5253  134.3271  159.9179 H   0  0  0  0  0  0  0  0  0  0  0  0  # atno 6908 bound_to 6896
  151.3277  133.3972  159.2694 H   0  0  0  0  0  0  0  0  0  0  0  0  # atno 6909 bound_to 6896
  145.9731  140.7363  142.9401 H   0  0  0  0  0  0  0  0  0  0  0  0  # atno 7974 bound_to 7965
  156.0581  140.1341  156.9973 H   0  0  0  0  0  0  0  0  0  0  0  0  # atno 8008 bound_to 7997
  154.4468  140.0997  156.6547 H   0  0  0  0  0  0  0  0  0  0  0  0  # atno 8009 bound_to 7997
  155.5420  140.3461  155.4451 H   0  0  0  0  0  0  0  0  0  0  0  0  # atno 8010 bound_to 7997
  140.0554  143.5019  152.2060 H   0  0  0  0  0  0  0  0  0  0  0  0  # atno 10167 bound_to 10162
  156.9267  130.5811  149.5648 H   0  0  0  0  0  0  0  0  0  0  0  0  # atno 10718 bound_to 10713
  154.6020  135.2855  155.0525 H   0  0  0  0  0  0  0  0  0  0  0  0  # atno 10763 bound_to 10752
  154.1786  135.6460  153.5032 H   0  0  0  0  0  0  0  0  0  0  0  0  # atno 10764 bound_to 10752
  153.0160  135.5418  154.6742 H   0  0  0  0  0  0  0  0  0  0  0  0  # atno 10765 bound_to 10752
  140.3680  134.2054  155.7668 H   0  0  0  0  0  0  0  0  0  0  0  0  # atno 11005 bound_to 11000
  144.6842  140.2781  143.7296 LP  0  0  0  0  0  0  0  0  0  0  0  0  # atno 17320 bound_to 7965
  145.7878  139.1915  143.2120 LP  0  0  0  0  0  0  0  0  0  0  0  0  # atno 17321 bound_to 7965
  139.5927  144.7556  151.3362 LP  0  0  0  0  0  0  0  0  0  0  0  0  # atno 17342 bound_to 10162
  140.7197  143.7170  150.7725 LP  0  0  0  0  0  0  0  0  0  0  0  0  # atno 17343 bound_to 10162
  156.0466  130.5541  150.8894 LP  0  0  0  0  0  0  0  0  0  0  0  0  # atno 17370 bound_to 10713
  157.5873  131.0945  150.9176 LP  0  0  0  0  0  0  0  0  0  0  0  0  # atno 17371 bound_to 10713
  141.1963  133.8084  157.0675 LP  0  0  0  0  0  0  0  0  0  0  0  0  # atno 17394 bound_to 11000
  140.0574  134.9773  157.1245 LP  0  0  0  0  0  0  0  0  0  0  0  0  # atno 17395 bound_to 11000

$$$$
