AV-unprocessed.smi:204|AV-procd|sdf|1599|dock4
  -GOLD-   2262019503D 1   1.00000     0.00000
 Structure written by MMmdl.
 53 56  0  0  0  0  0  0  0  0  1 V2000
  152.4553  141.9518  158.2910 C   0  0  0  0  0  0  0  0  0  0  0  0
  152.2924  140.8361  157.2643 C   0  0  0  0  0  0  0  0  0  0  0  0
  153.0235  139.8470  157.3043 O   0  0  0  0  0  0  0  0  0  0  0  0
  151.3284  141.0071  156.3491 N   0  0  0  0  0  0  0  0  0  0  0  0
  151.0169  140.0519  155.2930 C   0  0  0  0  0  0  0  0  0  0  0  0
  149.5019  139.9666  155.0311 C   0  0  1  0  0  0  0  0  0  0  0  0
  149.0309  140.9452  153.9337 C   0  0  0  0  0  0  0  0  0  0  0  0
  147.5224  140.7947  153.6858 C   0  0  0  0  0  0  0  0  0  0  0  0
  147.1586  139.3382  153.3591 C   0  0  0  0  0  0  0  0  0  0  0  0
  147.6566  138.4341  154.3967 N   0  0  0  0  0  0  0  0  0  0  0  0
  147.1480  137.1755  154.4382 C   0  0  0  0  0  0  0  0  0  0  0  0
  147.4651  136.3503  155.4718 N   0  0  0  0  0  0  0  0  0  0  0  0
  146.9632  135.1134  155.5281 C   0  0  0  0  0  0  0  0  0  0  0  0
  146.1434  134.5064  154.6687 N   0  0  0  0  0  0  0  0  0  0  0  0
  145.8282  135.3229  153.6232 C   0  0  0  0  0  0  0  0  0  0  0  0
  146.2790  136.6604  153.4341 C   0  0  0  0  0  0  0  0  0  0  0  0
  145.7510  137.1735  152.2551 N   0  0  0  0  0  0  0  0  0  0  0  0
  145.0180  136.2023  151.7841 C   0  0  0  0  0  0  0  0  0  0  0  0
  145.0198  135.0473  152.5336 N   0  0  0  0  0  0  0  0  0  0  0  0
  144.3005  133.8177  152.2358 C   0  0  0  0  0  0  0  0  0  0  0  0
  144.8686  133.0278  151.0380 C   0  0  0  0  0  0  0  0  0  0  0  0
  146.3903  133.2264  150.9229 C   0  0  0  0  0  0  0  0  0  0  0  0
  146.9280  132.4955  149.8389 O   0  0  0  0  0  0  0  0  0  0  0  0
  144.4144  131.5658  150.9184 C   0  0  0  0  0  0  0  0  0  0  0  0
  144.0312  131.7405  149.5381 O   0  0  0  0  0  0  0  0  0  0  0  0
  144.1001  133.1710  149.7169 C   0  0  0  0  0  0  0  0  0  0  0  0
  149.0929  138.5274  154.6590 C   0  0  0  0  0  0  0  0  0  0  0  0
  151.5082  142.1493  158.7942 H   0  0  0  0  0  0  0  0  0  0  0  0
  152.7880  142.8693  157.8052 H   0  0  0  0  0  0  0  0  0  0  0  0
  153.1920  141.6787  159.0474 H   0  0  0  0  0  0  0  0  0  0  0  0
  150.7751  141.8509  156.3856 H   0  0  0  0  0  0  0  0  0  0  0  0
  151.5412  140.3389  154.3799 H   0  0  0  0  0  0  0  0  0  0  0  0
  151.3962  139.0701  155.5823 H   0  0  0  0  0  0  0  0  0  0  0  0
  148.9888  140.2258  155.9589 H   0  0  0  0  0  0  0  0  0  0  0  0
  149.2494  141.9758  154.2141 H   0  0  0  0  0  0  0  0  0  0  0  0
  149.5746  140.7521  153.0079 H   0  0  0  0  0  0  0  0  0  0  0  0
  146.9736  141.1165  154.5719 H   0  0  0  0  0  0  0  0  0  0  0  0
  147.2087  141.4493  152.8722 H   0  0  0  0  0  0  0  0  0  0  0  0
  146.0751  139.2483  153.2691 H   0  0  0  0  0  0  0  0  0  0  0  0
  147.5885  139.0542  152.3971 H   0  0  0  0  0  0  0  0  0  0  0  0
  147.2614  134.5262  156.3842 H   0  0  0  0  0  0  0  0  0  0  0  0
  144.4604  136.2979  150.8637 H   0  0  0  0  0  0  0  0  0  0  0  0
  144.3086  133.2018  153.1360 H   0  0  0  0  0  0  0  0  0  0  0  0
  143.2526  134.0690  152.0683 H   0  0  0  0  0  0  0  0  0  0  0  0
  146.6529  134.2784  150.8130 H   0  0  0  0  0  0  0  0  0  0  0  0
  146.8890  132.8869  151.8315 H   0  0  0  0  0  0  0  0  0  0  0  0
  147.6103  131.9297  150.1670 H   0  0  0  0  0  0  0  0  0  0  0  0
  145.2164  130.8379  151.0454 H   0  0  0  0  0  0  0  0  0  0  0  0
  143.5549  131.3104  151.5389 H   0  0  0  0  0  0  0  0  0  0  0  0
  143.1084  133.6133  149.8259 H   0  0  0  0  0  0  0  0  0  0  0  0
  144.6619  133.6672  148.9246 H   0  0  0  0  0  0  0  0  0  0  0  0
  149.6289  138.2080  153.7642 H   0  0  0  0  0  0  0  0  0  0  0  0
  149.3954  137.8501  155.4568 H   0  0  0  0  0  0  0  0  0  0  0  0
  1  2  1  0  0  0  0
  1 28  1  0  0  0  0
  1 29  1  0  0  0  0
  1 30  1  0  0  0  0
  2  3  2  0  0  0  0
  2  4  1  0  0  0  0
  4  5  1  0  0  0  0
  4 31  1  0  0  0  0
  5  6  1  0  0  0  0
  5 32  1  0  0  0  0
  5 33  1  0  0  0  0
  6 27  1  0  0  0  0
  6  7  1  0  0  0  0
  6 34  1  0  0  0  0
  7  8  1  0  0  0  0
  7 35  1  0  0  0  0
  7 36  1  0  0  0  0
  8  9  1  0  0  0  0
  8 37  1  0  0  0  0
  8 38  1  0  0  0  0
  9 10  1  0  0  0  0
  9 39  1  0  0  0  0
  9 40  1  0  0  0  0
 10 11  1  0  0  0  0
 10 27  1  0  0  0  0
 11 16  1  0  0  0  0
 11 12  2  0  0  0  0
 12 13  1  0  0  0  0
 13 14  2  0  0  0  0
 13 41  1  0  0  0  0
 14 15  1  0  0  0  0
 15 19  1  0  0  0  0
 15 16  2  0  0  0  0
 16 17  1  0  0  0  0
 17 18  2  0  0  0  0
 18 19  1  0  0  0  0
 18 42  1  0  0  0  0
 19 20  1  0  0  0  0
 20 21  1  0  0  0  0
 20 43  1  0  0  0  0
 20 44  1  0  0  0  0
 21 26  1  0  0  0  0
 21 22  1  0  0  0  0
 21 24  1  0  0  0  0
 22 23  1  0  0  0  0
 22 45  1  0  0  0  0
 22 46  1  0  0  0  0
 23 47  1  0  0  0  0
 24 25  1  0  0  0  0
 24 48  1  0  0  0  0
 24 49  1  0  0  0  0
 25 26  1  0  0  0  0
 26 50  1  0  0  0  0
 26 51  1  0  0  0  0
 27 52  1  0  0  0  0
 27 53  1  0  0  0  0
M  END
> <s_m_source_file>
AV-unprocessed.smi

> <i_m_source_file_index>
204

> <i_lp_mmshare_version>
43012

> <i_f3d_flags>
0

> <s_epik_input>
W0NIM11DKD1PKVtOSF1bQ0gyXVtDQEBIXTFbQ0gyXVtDSDJdW0NIMl1OKFtDSDJdMSljKG5bY0hdbjIpYyhjMjMpbltjSF1uM1tDSDJdQzQoW0NIMl1bT0hdKVtDSDJdT1tDSDJdNA==

> <s_epik_cmdline>
J2VwaWtfcHl0aG9uJywgJy1waCcsICc3LjAnLCAnLXRuJywgJzgnLCAnLW1hJywgJzIwMCcsICctbWV0YWxfYmluZGluZycsICctaW1hZScsICc8aW5maWxlLm1hZT4nLCAnLW9tYWUnLCAnPG91dGZpbGUubWFlPic=

> <r_lp_tautomer_probability>
1

> <r_epik_Ionization_Penalty>
0.00166599

> <r_epik_Ionization_Penalty_Charging>
0

> <r_epik_Ionization_Penalty_Neutral>
0.00166599

> <r_epik_State_Penalty>
0.000989951

> <r_epik_Charging_Adjusted_Penalty>
0.000989951

> <i_epik_Tot_Q>
0

> <i_epik_Tot_abs_Q>
0

> <r_epik_Metal_State_Penalty>
-0

> <b_epik_Metal_Only>
0

> <s_lp_Force_Field>
OPLS_2005

> <r_lp_Energy>
35.563

> <b_lp_Chiralities_Consistent>
1

> <s_lp_Variant>
AV-unprocessed.smi:204-2

> <Gold.Version>
5.8.1

> <Gold.Id.Protein>
6NUR|6NUR_protein|mol2

> <Gold.PLP.Fitness>
45.4721

> <Gold.PLP.PLP>
-36.8453

> <Gold.PLP.part.hbond>
-3.7757

> <Gold.PLP.part.metal>
0.0000

> <Gold.PLP.part.buried>
-4.4111

> <Gold.PLP.part.nonpolar>
-29.8345

> <Gold.PLP.part.repulsive>
0.7711

> <Gold.PLP.ligand.clash>
0.0000

> <Gold.PLP.ligand.torsion>
1.5266

> <Gold.PLP.Chemscore.Hbond>
2.7360

> <Gold.PLP.Chemscore.CHOScore>
0.8897

> <Gold.PLP.Chemscore.Metal>
0.0000

> <Gold.Chemscore.Hbonds>
donor molecule, donor type, donor heavy atom, donor atom, acceptor molecule, acceptor atom, score
      L1  H    23    47       P1 10747  1.00
      P1  H  7997  8009       L1     3  0.98
      P1  H 10785 10796       L1    25  0.70
      L1  C    18    42       P1 10171  0.77

> <Gold.PLP.Chemscore.Internal.Correction>
0.8030

> <Gold.Rescore>
     Score         DG    S(hbond)    S(metal)    S(lipo)     H(rot)  DE(clash)    DE(int)     intcor
     11.83     -15.92       2.62        0.00      87.30       3.33       0.01       4.07       ----

> <Gold.Chemscore.Fitness>
11.8329

> <Gold.Chemscore.DG>
-15.9166

> <Gold.Chemscore.ZeroCoef>
-5.4800

> <Gold.Chemscore.Hbond>
2.6159

> <Gold.Chemscore.Metal>
0.0000

> <Gold.Chemscore.Lipo>
87.3032

> <Gold.Chemscore.Internal_Hbond>
0.0000

> <Gold.Chemscore.DEClash>
0.0137

> <Gold.Chemscore.DEInternal>
4.0699

> <Gold.Chemscore.Rot>
3.3261

> <Gold.Chemscore.Internal.Correction>
   9.000000E+99

> <Gold.Chemscore.Hbonds>
donor molecule, donor type, donor heavy atom, donor atom, acceptor molecule, acceptor atom, score
      L1  H    23    47       P1 10747  1.00
      P1  H  7997  8009       L1     3  0.78
      P1  H 10785 10796       L1    25  0.59

> <Gold.Chemscore.Hbond.Weighted>
-8.7370

> <Gold.Chemscore.Metal.Weighted>
-0.0000

> <Gold.Chemscore.Lipo.Weighted>
-10.2145

> <Gold.Chemscore.Internal_Hbond.Weighted>
0.0000

> <Gold.Chemscore.DEClash.Weighted>
0.0137

> <Gold.Chemscore.DEInternal.Weighted>
4.0699

> <Gold.Chemscore.Rot.Weighted>
8.5149

> <Gold.Chemscore.Internal.Correction.Weighted>
   9.000000E+99

> <Gold.Protein.RotatedTorsions>
[ 6907 6896 6895 6894 ] final  140.33 input  -60.11 | X-H torsion
[ 7974 7965 7964 7962 ] final   87.20 input  175.53 | X-H torsion
[ 8008 7997 7996 7995 ] final  179.94 input   59.86 | X-H torsion
[ 10167 10162 10161 10158 ] final  105.72 input  -65.29 | X-H torsion
[ 10718 10713 10712 10709 ] final -114.71 input   66.30 | X-H torsion
[ 10763 10752 10751 10750 ] final -105.66 input  -60.55 | X-H torsion
[ 11005 11000 10999 10996 ] final  -17.99 input  -57.11 | X-H torsion

> <Gold.Protein.ActiveResidues>
 VAL166  LYS551  ARG553  GLY616  TRP617  ASP618  TYR619  PRO620  LYS621  CYS622 
 ASP623  PHE694  ASN695  SER759  ASP760  ASP761  ALA762  ILE779  LEU786  VAL792 
 PHE793  MET794  SER795  GLU796  ALA797  LYS798  CYS799  TRP800  GLU811  SER814 

> <Gold.Protein.RotatedAtoms>
  152.2443  133.5161  159.5287 H   0  0  0  0  0  0  0  0  0  0  0  0  # atno 6907 bound_to 6896
  150.7074  134.1047  159.3987 H   0  0  0  0  0  0  0  0  0  0  0  0  # atno 6908 bound_to 6896
  151.8967  135.0394  160.0553 H   0  0  0  0  0  0  0  0  0  0  0  0  # atno 6909 bound_to 6896
  145.5622  139.2305  143.2453 H   0  0  0  0  0  0  0  0  0  0  0  0  # atno 7974 bound_to 7965
  156.0377  140.1296  157.0190 H   0  0  0  0  0  0  0  0  0  0  0  0  # atno 8008 bound_to 7997
  154.4377  140.1036  156.6262 H   0  0  0  0  0  0  0  0  0  0  0  0  # atno 8009 bound_to 7997
  155.5713  140.3466  155.4518 H   0  0  0  0  0  0  0  0  0  0  0  0  # atno 8010 bound_to 7997
  139.7069  144.7084  151.1091 H   0  0  0  0  0  0  0  0  0  0  0  0  # atno 10167 bound_to 10162
  156.0848  130.6041  150.8810 H   0  0  0  0  0  0  0  0  0  0  0  0  # atno 10718 bound_to 10713
  154.7961  135.4740  154.0165 H   0  0  0  0  0  0  0  0  0  0  0  0  # atno 10763 bound_to 10752
  153.1706  135.6824  153.8620 H   0  0  0  0  0  0  0  0  0  0  0  0  # atno 10764 bound_to 10752
  153.8203  135.3205  155.3387 H   0  0  0  0  0  0  0  0  0  0  0  0  # atno 10765 bound_to 10752
  140.8223  133.8059  155.9672 H   0  0  0  0  0  0  0  0  0  0  0  0  # atno 11005 bound_to 11000
  146.1843  140.6447  142.9175 LP  0  0  0  0  0  0  0  0  0  0  0  0  # atno 17320 bound_to 7965
  144.7477  140.5112  143.6824 LP  0  0  0  0  0  0  0  0  0  0  0  0  # atno 17321 bound_to 7965
  140.7724  143.5346  150.9383 LP  0  0  0  0  0  0  0  0  0  0  0  0  # atno 17342 bound_to 10162
  139.9029  143.6813  152.3128 LP  0  0  0  0  0  0  0  0  0  0  0  0  # atno 17343 bound_to 10162
  157.5978  131.0942  150.9012 LP  0  0  0  0  0  0  0  0  0  0  0  0  # atno 17370 bound_to 10713
  156.9175  130.5303  149.5279 LP  0  0  0  0  0  0  0  0  0  0  0  0  # atno 17371 bound_to 10713
  140.9086  134.2289  157.4999 LP  0  0  0  0  0  0  0  0  0  0  0  0  # atno 17394 bound_to 11000
  139.8708  134.9739  156.4828 LP  0  0  0  0  0  0  0  0  0  0  0  0  # atno 17395 bound_to 11000

$$$$
