AV-unprocessed.smi:124|AV-procd|sdf|1147|dock1
  -GOLD-   2262018283D 1   1.00000     0.00000
 Structure written by MMmdl.
 52 56  0  0  0  0  0  0  0  0  1 V2000
  153.9325  139.2629  158.6247 O   0  0  0  0  0  0  0  0  0  0  0  0
  153.3746  140.1159  159.3172 C   0  0  0  0  0  0  0  0  0  0  0  0
  153.6323  140.1286  160.8362 C   0  0  0  0  0  0  0  0  0  0  0  0
  154.5392  139.0742  161.2793 N   0  0  0  0  0  0  0  0  0  0  0  0
  155.7987  139.4633  161.7997 C   0  0  0  0  0  0  0  0  0  0  0  0
  156.1356  140.6456  161.8870 O   0  0  0  0  0  0  0  0  0  0  0  0
  156.6575  138.3538  162.1956 C   0  0  0  0  0  0  0  0  0  0  0  0
  157.8928  138.6034  162.6620 F   0  0  0  0  0  0  0  0  0  0  0  0
  156.2387  137.0745  162.0877 C   0  0  0  0  0  0  0  0  0  0  0  0
  154.9823  136.7211  161.6221 N   0  0  0  0  0  0  0  0  0  0  0  0
  154.5930  135.2710  161.4202 C   0  0  2  0  0  0  0  0  0  0  0  0
  155.5845  134.2638  162.0293 C   0  0  0  0  0  0  0  0  0  0  0  0
  156.2858  133.7137  160.8024 C   0  0  0  0  0  0  0  0  0  0  0  0
  155.1913  133.8163  159.7475 C   0  0  0  0  0  0  0  0  0  0  0  0
  154.5323  135.0402  160.0448 O   0  0  0  0  0  0  0  0  0  0  0  0
  154.1164  137.7294  161.1392 C   0  0  0  0  0  0  0  0  0  0  0  0
  153.0375  137.4431  160.6147 O   0  0  0  0  0  0  0  0  0  0  0  0
  152.4731  141.1536  158.7981 C   0  0  0  0  0  0  0  0  0  0  0  0
  151.7203  140.9996  157.6492 C   0  0  0  0  0  0  0  0  0  0  0  0
  151.5636  139.8874  156.7186 C   0  0  0  0  0  0  0  0  0  0  0  0
  151.2522  140.1301  155.3636 C   0  0  0  0  0  0  0  0  0  0  0  0
  151.0936  139.0580  154.4641 C   0  0  0  0  0  0  0  0  0  0  0  0
  151.2419  137.7327  154.9149 C   0  0  0  0  0  0  0  0  0  0  0  0
  151.5484  137.4815  156.2657 C   0  0  0  0  0  0  0  0  0  0  0  0
  151.7068  138.5553  157.1631 C   0  0  0  0  0  0  0  0  0  0  0  0
  151.0104  142.1593  157.4060 N   0  0  0  0  0  0  0  0  0  0  0  0
  151.2479  143.0948  158.3853 C   0  0  0  0  0  0  0  0  0  0  0  0
  150.7521  144.3990  158.5667 C   0  0  0  0  0  0  0  0  0  0  0  0
  151.1649  145.1487  159.6805 C   0  0  0  0  0  0  0  0  0  0  0  0
  152.0678  144.5854  160.5990 C   0  0  0  0  0  0  0  0  0  0  0  0
  152.5594  143.2787  160.4062 C   0  0  0  0  0  0  0  0  0  0  0  0
  152.1693  142.4870  159.2926 C   0  0  0  0  0  0  0  0  0  0  0  0
  150.3959  142.2706  156.6124 H   0  0  0  0  0  0  0  0  0  0  0  0
  154.0616  141.0806  161.1505 H   0  0  0  0  0  0  0  0  0  0  0  0
  152.6986  140.0210  161.3896 H   0  0  0  0  0  0  0  0  0  0  0  0
  156.9364  136.3046  162.3755 H   0  0  0  0  0  0  0  0  0  0  0  0
  153.6096  135.1508  161.8768 H   0  0  0  0  0  0  0  0  0  0  0  0
  156.2448  134.7023  162.7775 H   0  0  0  0  0  0  0  0  0  0  0  0
  155.0095  133.4725  162.5121 H   0  0  0  0  0  0  0  0  0  0  0  0
  157.1327  134.3420  160.5262 H   0  0  0  0  0  0  0  0  0  0  0  0
  156.6491  132.6951  160.9398 H   0  0  0  0  0  0  0  0  0  0  0  0
  155.5833  133.8089  158.7303 H   0  0  0  0  0  0  0  0  0  0  0  0
  154.4822  132.9933  159.8485 H   0  0  0  0  0  0  0  0  0  0  0  0
  151.1372  141.1442  155.0098 H   0  0  0  0  0  0  0  0  0  0  0  0
  150.8583  139.2529  153.4282 H   0  0  0  0  0  0  0  0  0  0  0  0
  151.1204  136.9099  154.2257 H   0  0  0  0  0  0  0  0  0  0  0  0
  151.6618  136.4658  156.6146 H   0  0  0  0  0  0  0  0  0  0  0  0
  151.9415  138.3548  158.1984 H   0  0  0  0  0  0  0  0  0  0  0  0
  150.0576  144.8210  157.8555 H   0  0  0  0  0  0  0  0  0  0  0  0
  150.7902  146.1506  159.8308 H   0  0  0  0  0  0  0  0  0  0  0  0
  152.3864  145.1577  161.4579 H   0  0  0  0  0  0  0  0  0  0  0  0
  153.2467  142.8932  161.1405 H   0  0  0  0  0  0  0  0  0  0  0  0
  1  2  2  0  0  0  0
  2  3  1  0  0  0  0
  2 18  1  0  0  0  0
  3  4  1  0  0  0  0
  3 34  1  0  0  0  0
  3 35  1  0  0  0  0
  4 16  1  0  0  0  0
  4  5  1  0  0  0  0
  5  6  2  0  0  0  0
  5  7  1  0  0  0  0
  7  8  1  0  0  0  0
  7  9  2  0  0  0  0
  9 10  1  0  0  0  0
  9 36  1  0  0  0  0
 10 11  1  0  0  0  0
 10 16  1  0  0  0  0
 11 15  1  0  0  0  0
 11 12  1  0  0  0  0
 11 37  1  0  0  0  0
 12 13  1  0  0  0  0
 12 38  1  0  0  0  0
 12 39  1  0  0  0  0
 13 14  1  0  0  0  0
 13 40  1  0  0  0  0
 13 41  1  0  0  0  0
 14 15  1  0  0  0  0
 14 42  1  0  0  0  0
 14 43  1  0  0  0  0
 16 17  2  0  0  0  0
 18 32  1  0  0  0  0
 18 19  2  0  0  0  0
 19 20  1  0  0  0  0
 19 26  1  0  0  0  0
 20 25  1  0  0  0  0
 20 21  2  0  0  0  0
 21 22  1  0  0  0  0
 21 44  1  0  0  0  0
 22 23  2  0  0  0  0
 22 45  1  0  0  0  0
 23 24  1  0  0  0  0
 23 46  1  0  0  0  0
 24 25  2  0  0  0  0
 24 47  1  0  0  0  0
 25 48  1  0  0  0  0
 26 33  1  0  0  0  0
 26 27  1  0  0  0  0
 27 32  1  0  0  0  0
 27 28  2  0  0  0  0
 28 29  1  0  0  0  0
 28 49  1  0  0  0  0
 29 30  2  0  0  0  0
 29 50  1  0  0  0  0
 30 31  1  0  0  0  0
 30 51  1  0  0  0  0
 31 32  2  0  0  0  0
 31 52  1  0  0  0  0
M  END
> <s_m_source_file>
AV-unprocessed.smi

> <i_m_source_file_index>
124

> <i_lp_mmshare_version>
43012

> <i_f3d_flags>
0

> <s_epik_input>
W2NIXTFbY0hdW2NIXVtjSF1bY0hdYzEtYyhbbkhdMiljKGMoYzIzKVtjSF1bY0hdW2NIXVtjSF0zKUMoPU8pW0NIMl1uNGMoPU8pYyhGKVtjSF1uKGM0PU8pW0NAQEhdNVtDSDJdW0NIMl1bQ0gyXU81

> <s_epik_cmdline>
J2VwaWtfcHl0aG9uJywgJy1waCcsICc3LjAnLCAnLXRuJywgJzgnLCAnLW1hJywgJzIwMCcsICctbWV0YWxfYmluZGluZycsICctaW1hZScsICc8aW5maWxlLm1hZT4nLCAnLW9tYWUnLCAnPG91dGZpbGUubWFlPic=

> <r_lp_tautomer_probability>
1

> <r_epik_Ionization_Penalty>
1.43207e-08

> <r_epik_Ionization_Penalty_Charging>
5.01743e-09

> <r_epik_Ionization_Penalty_Neutral>
9.30329e-09

> <r_epik_State_Penalty>
-0

> <r_epik_Charging_Adjusted_Penalty>
5.01743e-09

> <i_epik_Tot_Q>
0

> <i_epik_Tot_abs_Q>
0

> <r_epik_Metal_State_Penalty>
-0

> <b_epik_Metal_Only>
0

> <s_epik_Chemistry_Notes>
This compound contains an acetal/aminal-like group ( X-CH(R)-Y where X, Y are N, S, or O) that may be acid/base labile, releasing an aldehyde.

> <s_lp_Force_Field>
OPLS_2005

> <r_lp_Energy>
48.315

> <b_lp_Chiralities_Consistent>
1

> <s_lp_Variant>
AV-unprocessed.smi:124-1

> <Gold.Version>
5.8.1

> <Gold.Id.Protein>
6NUR|6NUR_protein|mol2

> <Gold.PLP.Fitness>
56.0183

> <Gold.PLP.PLP>
-50.1647

> <Gold.PLP.part.hbond>
-2.6342

> <Gold.PLP.part.metal>
0.0000

> <Gold.PLP.part.buried>
-6.3371

> <Gold.PLP.part.nonpolar>
-41.4913

> <Gold.PLP.part.repulsive>
0.0392

> <Gold.PLP.ligand.clash>
0.0000

> <Gold.PLP.ligand.torsion>
0.8326

> <Gold.PLP.Chemscore.Hbond>
1.9750

> <Gold.PLP.Chemscore.CHOScore>
0.0000

> <Gold.PLP.Chemscore.Metal>
0.0000

> <Gold.Chemscore.Hbonds>
donor molecule, donor type, donor heavy atom, donor atom, acceptor molecule, acceptor atom, score
      P1  H  6896  6909       L1    15  0.79
      P1  H  7997  8010       L1     1  1.00

> <Gold.PLP.Chemscore.Internal.Correction>
1.5938

> <Gold.Rescore>
     Score         DG    S(hbond)    S(metal)    S(lipo)     H(rot)  DE(clash)    DE(int)     intcor
     16.66     -21.23       1.50        0.00     125.77       1.55       0.73       3.83       ----

> <Gold.Chemscore.Fitness>
16.6599

> <Gold.Chemscore.DG>
-21.2281

> <Gold.Chemscore.ZeroCoef>
-5.4800

> <Gold.Chemscore.Hbond>
1.5002

> <Gold.Chemscore.Metal>
0.0000

> <Gold.Chemscore.Lipo>
125.7690

> <Gold.Chemscore.Internal_Hbond>
0.0000

> <Gold.Chemscore.DEClash>
0.7338

> <Gold.Chemscore.DEInternal>
3.8344

> <Gold.Chemscore.Rot>
1.5537

> <Gold.Chemscore.Internal.Correction>
   9.000000E+99

> <Gold.Chemscore.Hbonds>
donor molecule, donor type, donor heavy atom, donor atom, acceptor molecule, acceptor atom, score
      P1  H  6896  6909       L1    15  0.05
      P1  H  7997  8010       L1     1  0.78

> <Gold.Chemscore.Hbond.Weighted>
-5.0105

> <Gold.Chemscore.Metal.Weighted>
-0.0000

> <Gold.Chemscore.Lipo.Weighted>
-14.7150

> <Gold.Chemscore.Internal_Hbond.Weighted>
0.0000

> <Gold.Chemscore.DEClash.Weighted>
0.7338

> <Gold.Chemscore.DEInternal.Weighted>
3.8344

> <Gold.Chemscore.Rot.Weighted>
3.9774

> <Gold.Chemscore.Internal.Correction.Weighted>
   9.000000E+99

> <Gold.Protein.RotatedTorsions>
[ 6907 6896 6895 6894 ] final -169.43 input  -60.11 | X-H torsion
[ 7974 7965 7964 7962 ] final   91.01 input  175.53 | X-H torsion
[ 8008 7997 7996 7995 ] final   22.30 input   59.86 | X-H torsion
[ 10167 10162 10161 10158 ] final -147.50 input  -65.29 | X-H torsion
[ 10718 10713 10712 10709 ] final  -94.80 input   66.30 | X-H torsion
[ 10763 10752 10751 10750 ] final  171.14 input  -60.55 | X-H torsion
[ 11005 11000 10999 10996 ] final   57.00 input  -57.11 | X-H torsion

> <Gold.Protein.ActiveResidues>
 VAL166  LYS551  ARG553  GLY616  TRP617  ASP618  TYR619  PRO620  LYS621  CYS622 
 ASP623  PHE694  ASN695  SER759  ASP760  ASP761  ALA762  ILE779  LEU786  VAL792 
 PHE793  MET794  SER795  GLU796  ALA797  LYS798  CYS799  TRP800  GLU811  SER814 

> <Gold.Protein.RotatedAtoms>
  151.4915  133.3524  159.2853 H   0  0  0  0  0  0  0  0  0  0  0  0  # atno 6907 bound_to 6896
  150.8831  134.8227  159.7250 H   0  0  0  0  0  0  0  0  0  0  0  0  # atno 6908 bound_to 6896
  152.4776  134.4816  159.9719 H   0  0  0  0  0  0  0  0  0  0  0  0  # atno 6909 bound_to 6896
  145.5113  139.2277  143.2723 H   0  0  0  0  0  0  0  0  0  0  0  0  # atno 7974 bound_to 7965
  154.9635  140.3081  155.5020 H   0  0  0  0  0  0  0  0  0  0  0  0  # atno 8008 bound_to 7997
  156.2974  140.2297  156.4661 H   0  0  0  0  0  0  0  0  0  0  0  0  # atno 8009 bound_to 7997
  154.7942  140.0438  157.1213 H   0  0  0  0  0  0  0  0  0  0  0  0  # atno 8010 bound_to 7997
  139.7616  143.8368  152.2608 H   0  0  0  0  0  0  0  0  0  0  0  0  # atno 10167 bound_to 10162
  156.0033  130.5082  150.5980 H   0  0  0  0  0  0  0  0  0  0  0  0  # atno 10718 bound_to 10713
  154.4077  135.2756  155.2057 H   0  0  0  0  0  0  0  0  0  0  0  0  # atno 10763 bound_to 10752
  154.4056  135.6034  153.5926 H   0  0  0  0  0  0  0  0  0  0  0  0  # atno 10764 bound_to 10752
  152.9831  135.5937  154.4353 H   0  0  0  0  0  0  0  0  0  0  0  0  # atno 10765 bound_to 10752
  140.0486  134.5770  155.9292 H   0  0  0  0  0  0  0  0  0  0  0  0  # atno 11005 bound_to 11000
  146.2164  140.5920  142.9036 LP  0  0  0  0  0  0  0  0  0  0  0  0  # atno 17320 bound_to 7965
  144.7726  140.5670  143.6660 LP  0  0  0  0  0  0  0  0  0  0  0  0  # atno 17321 bound_to 7965
  139.8376  144.7225  150.9371 LP  0  0  0  0  0  0  0  0  0  0  0  0  # atno 17342 bound_to 10162
  140.7807  143.4012  151.1145 LP  0  0  0  0  0  0  0  0  0  0  0  0  # atno 17343 bound_to 10162
  157.3834  131.0784  151.1457 LP  0  0  0  0  0  0  0  0  0  0  0  0  # atno 17370 bound_to 10713
  157.2172  130.6465  149.5797 LP  0  0  0  0  0  0  0  0  0  0  0  0  # atno 17371 bound_to 10713
  141.1919  133.6573  156.5477 LP  0  0  0  0  0  0  0  0  0  0  0  0  # atno 17394 bound_to 11000
  140.3954  134.7403  157.4747 LP  0  0  0  0  0  0  0  0  0  0  0  0  # atno 17395 bound_to 11000

$$$$
