AV-unprocessed.smi:1785|AV-procd|sdf|7201|dock1
  -GOLD-   22720 8443D 1   1.00000     0.00000
 Structure written by MMmdl.
 27 28  0  0  0  0  0  0  0  0  2 V2000
  151.3777  144.7485  158.3431 C   0  0  0  0  0  0  0  0  0  0  0  0
  151.8371  143.9100  159.5253 C   0  0  0  0  0  0  0  0  0  0  0  0
  152.1405  144.5474  160.7467 C   0  0  0  0  0  0  0  0  0  0  0  0
  152.5712  143.7723  161.8367 C   0  0  0  0  0  0  0  0  0  0  0  0
  152.6828  142.3834  161.6542 C   0  0  0  0  0  0  0  0  0  0  0  0
  152.3950  141.7662  160.4901 N   0  0  0  0  0  0  0  0  0  0  0  0
  151.9680  142.4965  159.4312 C   0  0  0  0  0  0  0  0  0  0  0  0
  151.7016  141.8414  158.2881 N   0  5  0  0  0  0  0  0  0  0  0  0
  152.3993  140.7283  157.9423 C   0  0  0  0  0  0  0  0  0  0  0  0
  153.3344  140.2653  158.6020 O   0  0  0  0  0  0  0  0  0  0  0  0
  151.9714  140.0767  156.7074 C   0  0  0  0  0  0  0  0  0  0  0  0
  151.0381  140.6612  155.9184 C   0  0  0  0  0  0  0  0  0  0  0  0
  150.5537  140.0985  154.7638 O   0  0  0  0  0  0  0  0  0  0  0  0
  150.9095  138.7345  154.5752 C   0  0  0  0  0  0  0  0  0  0  0  0
  152.3711  138.5044  154.9842 C   0  0  0  0  0  0  0  0  0  0  0  0
  152.5659  138.8890  156.3400 O   0  0  0  0  0  0  0  0  0  0  0  0
  151.4016  145.8132  158.5764 H   0  0  0  0  0  0  0  0  0  0  0  0
  150.3564  144.4854  158.0668 H   0  0  0  0  0  0  0  0  0  0  0  0
  152.0232  144.5790  157.4809 H   0  0  0  0  0  0  0  0  0  0  0  0
  152.0467  145.6184  160.8494 H   0  0  0  0  0  0  0  0  0  0  0  0
  152.8116  144.2295  162.7849 H   0  0  0  0  0  0  0  0  0  0  0  0
  153.0139  141.7499  162.4637 H   0  0  0  0  0  0  0  0  0  0  0  0
  150.5507  141.6016  156.1320 H   0  0  0  0  0  0  0  0  0  0  0  0
  150.2450  138.1040  155.1677 H   0  0  0  0  0  0  0  0  0  0  0  0
  150.7586  138.4672  153.5294 H   0  0  0  0  0  0  0  0  0  0  0  0
  152.6404  137.4544  154.8690 H   0  0  0  0  0  0  0  0  0  0  0  0
  153.0423  139.0811  154.3464 H   0  0  0  0  0  0  0  0  0  0  0  0
  1  2  1  0  0  0  0
  1 17  1  0  0  0  0
  1 18  1  0  0  0  0
  1 19  1  0  0  0  0
  2  7  1  0  0  0  0
  2  3  2  0  0  0  0
  3  4  1  0  0  0  0
  3 20  1  0  0  0  0
  4  5  2  0  0  0  0
  4 21  1  0  0  0  0
  5  6  1  0  0  0  0
  5 22  1  0  0  0  0
  6  7  2  0  0  0  0
  7  8  1  0  0  0  0
  8  9  1  0  0  0  0
  9 10  2  0  0  0  0
  9 11  1  0  0  0  0
 11 16  1  0  0  0  0
 11 12  2  0  0  0  0
 12 13  1  0  0  0  0
 12 23  1  0  0  0  0
 13 14  1  0  0  0  0
 14 15  1  0  0  0  0
 14 24  1  0  0  0  0
 14 25  1  0  0  0  0
 15 16  1  0  0  0  0
 15 26  1  0  0  0  0
 15 27  1  0  0  0  0
M  CHG  1   8  -1
M  END
> <s_m_source_file>
AV-unprocessed.smi

> <i_m_source_file_index>
1785

> <i_lp_mmshare_version>
43012

> <i_f3d_flags>
0

> <s_epik_input>
W0NIM11jMVtjSF1bY0hdW2NIXW5jMVtOSF1DKD1PKUMyPVtDSF1PW0NIMl1bQ0gyXU8y

> <s_epik_cmdline>
J2VwaWtfcHl0aG9uJywgJy1waCcsICc3LjAnLCAnLXRuJywgJzgnLCAnLW1hJywgJzIwMCcsICctbWV0YWxfYmluZGluZycsICctaW1hZScsICc8aW5maWxlLm1hZT4nLCAnLW9tYWUnLCAnPG91dGZpbGUubWFlPic=

> <r_lp_tautomer_probability>
1

> <r_epik_Ionization_Penalty>
11.0036

> <r_epik_Ionization_Penalty_Charging>
5.9985

> <r_epik_Ionization_Penalty_Neutral>
5.00509

> <r_epik_State_Penalty>
5.99847

> <r_epik_Charging_Adjusted_Penalty>
11.997

> <i_epik_Tot_Q>
-1

> <i_epik_Tot_abs_Q>
1

> <r_epik_Metal_State_Penalty>
1.95147

> <b_epik_Metal_Only>
1

> <s_lp_Force_Field>
OPLS_2005

> <r_lp_Energy>
4.89912

> <b_lp_Chiralities_Consistent>
1

> <s_lp_Variant>
AV-unprocessed.smi:1785-2

> <Gold.Version>
5.8.1

> <Gold.Id.Protein>
6NUR|6NUR_protein|mol2

> <Gold.PLP.Fitness>
43.2576

> <Gold.PLP.PLP>
-38.6365

> <Gold.PLP.part.hbond>
-3.0000

> <Gold.PLP.part.metal>
0.0000

> <Gold.PLP.part.buried>
-3.9329

> <Gold.PLP.part.nonpolar>
-30.3522

> <Gold.PLP.part.repulsive>
0.0860

> <Gold.PLP.ligand.clash>
0.7541

> <Gold.PLP.ligand.torsion>
0.2368

> <Gold.PLP.Chemscore.Hbond>
1.8800

> <Gold.PLP.Chemscore.CHOScore>
0.0000

> <Gold.PLP.Chemscore.Metal>
0.0000

> <Gold.Chemscore.Hbonds>
donor molecule, donor type, donor heavy atom, donor atom, acceptor molecule, acceptor atom, score
      P1  H  7989  7998       L1    13  1.00
      P1  H  7997  8009       L1    10  0.86

> <Gold.PLP.Chemscore.Internal.Correction>
0.2087

> <Gold.Rescore>
     Score         DG    S(hbond)    S(metal)    S(lipo)     H(rot)  DE(clash)    DE(int)     intcor
     16.78     -18.83       0.89        0.00      88.80       0.00       0.03       2.02       ----

> <Gold.Chemscore.Fitness>
16.7814

> <Gold.Chemscore.DG>
-18.8311

> <Gold.Chemscore.ZeroCoef>
-5.4800

> <Gold.Chemscore.Hbond>
0.8868

> <Gold.Chemscore.Metal>
0.0000

> <Gold.Chemscore.Lipo>
88.7979

> <Gold.Chemscore.Internal_Hbond>
0.0000

> <Gold.Chemscore.DEClash>
0.0339

> <Gold.Chemscore.DEInternal>
2.0158

> <Gold.Chemscore.Rot>
0.0000

> <Gold.Chemscore.Internal.Correction>
   9.000000E+99

> <Gold.Chemscore.Hbonds>
donor molecule, donor type, donor heavy atom, donor atom, acceptor molecule, acceptor atom, score
      P1  H  7989  7998       L1    13  0.09
      P1  H  7997  8009       L1    10  0.28

> <Gold.Chemscore.Hbond.Weighted>
-2.9618

> <Gold.Chemscore.Metal.Weighted>
-0.0000

> <Gold.Chemscore.Lipo.Weighted>
-10.3894

> <Gold.Chemscore.Internal_Hbond.Weighted>
0.0000

> <Gold.Chemscore.DEClash.Weighted>
0.0339

> <Gold.Chemscore.DEInternal.Weighted>
2.0158

> <Gold.Chemscore.Rot.Weighted>
0.0000

> <Gold.Chemscore.Internal.Correction.Weighted>
   9.000000E+99

> <Gold.Protein.RotatedTorsions>
[ 6907 6896 6895 6894 ] final  108.79 input  -60.11 | X-H torsion
[ 7974 7965 7964 7962 ] final  -23.34 input  175.53 | X-H torsion
[ 8008 7997 7996 7995 ] final  139.19 input   59.86 | X-H torsion
[ 10167 10162 10161 10158 ] final -114.60 input  -65.29 | X-H torsion
[ 10718 10713 10712 10709 ] final   52.99 input   66.30 | X-H torsion
[ 10763 10752 10751 10750 ] final -176.10 input  -60.55 | X-H torsion
[ 11005 11000 10999 10996 ] final  -77.63 input  -57.11 | X-H torsion

> <Gold.Protein.ActiveResidues>
 VAL166  LYS551  ARG553  GLY616  TRP617  ASP618  TYR619  PRO620  LYS621  CYS622 
 ASP623  PHE694  ASN695  SER759  ASP760  ASP761  ALA762  ILE779  LEU786  VAL792 
 PHE793  MET794  SER795  GLU796  ALA797  LYS798  CYS799  TRP800  GLU811  SER814 

> <Gold.Protein.RotatedAtoms>
  152.5097  133.9038  159.7454 H   0  0  0  0  0  0  0  0  0  0  0  0  # atno 6907 bound_to 6896
  150.9448  133.6607  159.2790 H   0  0  0  0  0  0  0  0  0  0  0  0  # atno 6908 bound_to 6896
  151.3906  135.0960  159.9577 H   0  0  0  0  0  0  0  0  0  0  0  0  # atno 6909 bound_to 6896
  146.1622  140.4602  142.8566 H   0  0  0  0  0  0  0  0  0  0  0  0  # atno 7974 bound_to 7965
  156.2992  140.2374  156.4196 H   0  0  0  0  0  0  0  0  0  0  0  0  # atno 8008 bound_to 7997
  154.8367  140.0430  157.1534 H   0  0  0  0  0  0  0  0  0  0  0  0  # atno 8009 bound_to 7997
  154.9148  140.2995  155.5251 H   0  0  0  0  0  0  0  0  0  0  0  0  # atno 8010 bound_to 7997
  140.0992  143.4629  152.1823 H   0  0  0  0  0  0  0  0  0  0  0  0  # atno 10167 bound_to 10162
  157.5126  130.8511  149.8454 H   0  0  0  0  0  0  0  0  0  0  0  0  # atno 10718 bound_to 10713
  154.5764  135.2832  155.0776 H   0  0  0  0  0  0  0  0  0  0  0  0  # atno 10763 bound_to 10752
  154.2129  135.6405  153.5124 H   0  0  0  0  0  0  0  0  0  0  0  0  # atno 10764 bound_to 10752
  153.0074  135.5496  154.6404 H   0  0  0  0  0  0  0  0  0  0  0  0  # atno 10765 bound_to 10752
  141.1661  133.7030  156.7849 H   0  0  0  0  0  0  0  0  0  0  0  0  # atno 11005 bound_to 11000
  144.8043  140.6270  143.6457 LP  0  0  0  0  0  0  0  0  0  0  0  0  # atno 17320 bound_to 7965
  145.4559  139.1518  143.3893 LP  0  0  0  0  0  0  0  0  0  0  0  0  # atno 17321 bound_to 7965
  139.5681  144.7447  151.3967 LP  0  0  0  0  0  0  0  0  0  0  0  0  # atno 17342 bound_to 10162
  140.6987  143.7685  150.7368 LP  0  0  0  0  0  0  0  0  0  0  0  0  # atno 17343 bound_to 10162
  156.0299  130.3768  150.1717 LP  0  0  0  0  0  0  0  0  0  0  0  0  # atno 17370 bound_to 10713
  156.9906  130.9892  151.3415 LP  0  0  0  0  0  0  0  0  0  0  0  0  # atno 17371 bound_to 10713
  140.2367  134.8644  157.3532 LP  0  0  0  0  0  0  0  0  0  0  0  0  # atno 17394 bound_to 11000
  140.1836  134.4458  155.7757 LP  0  0  0  0  0  0  0  0  0  0  0  0  # atno 17395 bound_to 11000

$$$$
