AV-unprocessed.smi:1075|AV-procd|sdf|4693|dock4
  -GOLD-   22720 3213D 1   1.00000     0.00000
 Structure written by MMmdl.
 50 51  0  0  0  0  0  0  0  0  1 V2000
  152.5093  144.1908  158.4162 C   0  0  0  0  0  0  0  0  0  0  0  0
  152.6681  142.8135  158.9943 C   0  0  0  0  0  0  0  0  0  0  0  0
  153.5490  142.6153  159.9596 N   0  0  0  0  0  0  0  0  0  0  0  0
  153.4565  141.3019  160.2446 N   0  0  0  0  0  0  0  0  0  0  0  0
  154.3040  140.7388  161.2780 C   0  0  0  0  0  0  0  0  0  0  0  0
  152.5177  140.6665  159.4550 C   0  0  0  0  0  0  0  0  0  0  0  0
  152.2486  139.1999  159.5798 C   0  0  0  0  0  0  0  0  0  0  0  0
  151.9763  141.6204  158.6296 C   0  0  0  0  0  0  0  0  0  0  0  0
  150.9101  141.4883  157.5578 C   0  0  2  0  0  0  0  0  0  0  0  0
  149.4947  141.5225  158.1652 C   0  0  0  0  0  0  0  0  0  0  0  0
  151.1647  140.2431  156.6870 C   0  0  0  0  0  0  0  0  0  0  0  0
  152.2515  140.0809  156.1321 O   0  0  0  0  0  0  0  0  0  0  0  0
  150.1470  139.3671  156.5932 N   0  0  0  0  0  0  0  0  0  0  0  0
  150.0756  138.1058  155.8445 C   0  0  1  0  0  0  0  0  0  0  0  0
  151.1169  137.1063  156.3934 C   0  0  0  0  0  0  0  0  0  0  0  0
  148.6509  137.4960  155.9006 C   0  0  0  0  0  0  0  0  0  0  0  0
  147.5925  138.3937  155.2337 C   0  0  0  0  0  0  0  0  0  0  0  0
  147.9582  138.7074  153.7713 C   0  0  1  0  0  0  0  0  0  0  0  0
  146.9105  139.6150  153.1119 C   0  0  0  0  0  0  0  0  0  0  0  0
  149.3677  139.3211  153.6886 C   0  0  0  0  0  0  0  0  0  0  0  0
  150.4182  138.4230  154.3692 C   0  0  0  0  0  0  0  0  0  0  0  0
  152.7096  144.1867  157.3445 H   0  0  0  0  0  0  0  0  0  0  0  0
  153.1917  144.9059  158.8773 H   0  0  0  0  0  0  0  0  0  0  0  0
  151.4941  144.5597  158.5639 H   0  0  0  0  0  0  0  0  0  0  0  0
  153.6930  140.1906  161.9950 H   0  0  0  0  0  0  0  0  0  0  0  0
  154.8430  141.5262  161.8068 H   0  0  0  0  0  0  0  0  0  0  0  0
  155.0251  140.0563  160.8279 H   0  0  0  0  0  0  0  0  0  0  0  0
  151.6861  138.8219  158.7271 H   0  0  0  0  0  0  0  0  0  0  0  0
  151.6735  138.9895  160.4815 H   0  0  0  0  0  0  0  0  0  0  0  0
  153.1793  138.6346  159.6311 H   0  0  0  0  0  0  0  0  0  0  0  0
  150.9735  142.3340  156.8723 H   0  0  0  0  0  0  0  0  0  0  0  0
  149.3210  140.6881  158.8447 H   0  0  0  0  0  0  0  0  0  0  0  0
  148.7274  141.4853  157.3912 H   0  0  0  0  0  0  0  0  0  0  0  0
  149.3393  142.4432  158.7283 H   0  0  0  0  0  0  0  0  0  0  0  0
  149.3073  139.6118  157.0982 H   0  0  0  0  0  0  0  0  0  0  0  0
  151.1574  136.2046  155.7815 H   0  0  0  0  0  0  0  0  0  0  0  0
  150.8862  136.7888  157.4099 H   0  0  0  0  0  0  0  0  0  0  0  0
  152.1173  137.5407  156.4021 H   0  0  0  0  0  0  0  0  0  0  0  0
  148.6545  136.5288  155.3958 H   0  0  0  0  0  0  0  0  0  0  0  0
  148.3561  137.2863  156.9287 H   0  0  0  0  0  0  0  0  0  0  0  0
  146.6214  137.8992  155.2742 H   0  0  0  0  0  0  0  0  0  0  0  0
  147.4847  139.3211  155.7978 H   0  0  0  0  0  0  0  0  0  0  0  0
  147.9706  137.7658  153.2202 H   0  0  0  0  0  0  0  0  0  0  0  0
  146.8486  140.5803  153.6155 H   0  0  0  0  0  0  0  0  0  0  0  0
  145.9207  139.1588  153.1435 H   0  0  0  0  0  0  0  0  0  0  0  0
  147.1545  139.8000  152.0654 H   0  0  0  0  0  0  0  0  0  0  0  0
  149.6444  139.4734  152.6448 H   0  0  0  0  0  0  0  0  0  0  0  0
  149.3699  140.3100  154.1494 H   0  0  0  0  0  0  0  0  0  0  0  0
  151.3984  138.8977  154.3044 H   0  0  0  0  0  0  0  0  0  0  0  0
  150.4987  137.4928  153.8046 H   0  0  0  0  0  0  0  0  0  0  0  0
  1  2  1  0  0  0  0
  1 22  1  0  0  0  0
  1 23  1  0  0  0  0
  1 24  1  0  0  0  0
  2  8  1  0  0  0  0
  2  3  2  0  0  0  0
  3  4  1  0  0  0  0
  4  5  1  0  0  0  0
  4  6  1  0  0  0  0
  5 25  1  0  0  0  0
  5 26  1  0  0  0  0
  5 27  1  0  0  0  0
  6  7  1  0  0  0  0
  6  8  2  0  0  0  0
  7 28  1  0  0  0  0
  7 29  1  0  0  0  0
  7 30  1  0  0  0  0
  8  9  1  0  0  0  0
  9 10  1  0  0  0  0
  9 11  1  0  0  0  0
  9 31  1  0  0  0  0
 10 32  1  0  0  0  0
 10 33  1  0  0  0  0
 10 34  1  0  0  0  0
 11 12  2  0  0  0  0
 11 13  1  0  0  0  0
 13 14  1  0  0  0  0
 13 35  1  0  0  0  0
 14 21  1  0  0  0  0
 14 15  1  0  0  0  0
 14 16  1  0  0  0  0
 15 36  1  0  0  0  0
 15 37  1  0  0  0  0
 15 38  1  0  0  0  0
 16 17  1  0  0  0  0
 16 39  1  0  0  0  0
 16 40  1  0  0  0  0
 17 18  1  0  0  0  0
 17 41  1  0  0  0  0
 17 42  1  0  0  0  0
 18 19  1  0  0  0  0
 18 20  1  0  0  0  0
 18 43  1  0  0  0  0
 19 44  1  0  0  0  0
 19 45  1  0  0  0  0
 19 46  1  0  0  0  0
 20 21  1  0  0  0  0
 20 47  1  0  0  0  0
 20 48  1  0  0  0  0
 21 49  1  0  0  0  0
 21 50  1  0  0  0  0
M  END
> <s_m_source_file>
AV-unprocessed.smi

> <i_m_source_file_index>
1075

> <i_lp_mmshare_version>
43012

> <i_f3d_flags>
0

> <s_epik_input>
W0NIM11jMW5uKFtDSDNdKWMoW0NIM10pYzFbQ0BIXShbQ0gzXSlDKD1PKVtOSF1bQ0BAXTIoW0NIM10pW0NIMl1bQ0gyXVtDQEBIXShbQ0gzXSlbQ0gyXVtDSDJdMg==

> <s_epik_cmdline>
J2VwaWtfcHl0aG9uJywgJy1waCcsICc3LjAnLCAnLXRuJywgJzgnLCAnLW1hJywgJzIwMCcsICctbWV0YWxfYmluZGluZycsICctaW1hZScsICc8aW5maWxlLm1hZT4nLCAnLW9tYWUnLCAnPG91dGZpbGUubWFlPic=

> <r_lp_tautomer_probability>
1

> <r_epik_Ionization_Penalty>
0.00502928

> <r_epik_Ionization_Penalty_Charging>
0

> <r_epik_Ionization_Penalty_Neutral>
0.00502928

> <r_epik_State_Penalty>
0.0036576

> <r_epik_Charging_Adjusted_Penalty>
0.0036576

> <i_epik_Tot_Q>
0

> <i_epik_Tot_abs_Q>
0

> <r_epik_Metal_State_Penalty>
-0

> <b_epik_Metal_Only>
0

> <s_lp_Force_Field>
OPLS_2005

> <r_lp_Energy>
4.57547

> <b_lp_Chiralities_Consistent>
1

> <s_lp_Variant>
AV-unprocessed.smi:1075-1

> <Gold.Version>
5.8.1

> <Gold.Id.Protein>
6NUR|6NUR_protein|mol2

> <Gold.PLP.Fitness>
35.9459

> <Gold.PLP.PLP>
-34.1300

> <Gold.PLP.part.hbond>
-1.0000

> <Gold.PLP.part.metal>
0.0000

> <Gold.PLP.part.buried>
0.4324

> <Gold.PLP.part.nonpolar>
-34.1621

> <Gold.PLP.part.repulsive>
0.0180

> <Gold.PLP.ligand.clash>
0.1327

> <Gold.PLP.ligand.torsion>
0.5704

> <Gold.PLP.Chemscore.Hbond>
1.0000

> <Gold.PLP.Chemscore.CHOScore>
0.0000

> <Gold.PLP.Chemscore.Metal>
0.0000

> <Gold.Chemscore.Hbonds>
donor molecule, donor type, donor heavy atom, donor atom, acceptor molecule, acceptor atom, score
      P1  H  7997  8010       L1    12  0.81

> <Gold.PLP.Chemscore.Internal.Correction>
0.0894

> <Gold.Rescore>
     Score         DG    S(hbond)    S(metal)    S(lipo)     H(rot)  DE(clash)    DE(int)     intcor
     15.42     -17.83       0.98        0.00     104.37       1.23       1.81       0.60       ----

> <Gold.Chemscore.Fitness>
15.4152

> <Gold.Chemscore.DG>
-17.8253

> <Gold.Chemscore.ZeroCoef>
-5.4800

> <Gold.Chemscore.Hbond>
0.9846

> <Gold.Chemscore.Metal>
0.0000

> <Gold.Chemscore.Lipo>
104.3667

> <Gold.Chemscore.Internal_Hbond>
0.0000

> <Gold.Chemscore.DEClash>
1.8077

> <Gold.Chemscore.DEInternal>
0.6024

> <Gold.Chemscore.Rot>
1.2321

> <Gold.Chemscore.Internal.Correction>
   9.000000E+99

> <Gold.Chemscore.Hbonds>
donor molecule, donor type, donor heavy atom, donor atom, acceptor molecule, acceptor atom, score
      P1  H  7997  8010       L1    12  0.80

> <Gold.Chemscore.Hbond.Weighted>
-3.2885

> <Gold.Chemscore.Metal.Weighted>
-0.0000

> <Gold.Chemscore.Lipo.Weighted>
-12.2109

> <Gold.Chemscore.Internal_Hbond.Weighted>
0.0000

> <Gold.Chemscore.DEClash.Weighted>
1.8077

> <Gold.Chemscore.DEInternal.Weighted>
0.6024

> <Gold.Chemscore.Rot.Weighted>
3.1541

> <Gold.Chemscore.Internal.Correction.Weighted>
   9.000000E+99

> <Gold.Protein.RotatedTorsions>
[ 6907 6896 6895 6894 ] final  -54.70 input  -60.11 | X-H torsion
[ 7974 7965 7964 7962 ] final -173.27 input  175.53 | X-H torsion
[ 8008 7997 7996 7995 ] final   88.79 input   59.86 | X-H torsion
[ 10167 10162 10161 10158 ] final  -28.00 input  -65.29 | X-H torsion
[ 10718 10713 10712 10709 ] final  124.88 input   66.30 | X-H torsion
[ 10763 10752 10751 10750 ] final  -80.90 input  -60.55 | X-H torsion
[ 11005 11000 10999 10996 ] final   71.19 input  -57.11 | X-H torsion

> <Gold.Protein.ActiveResidues>
 VAL166  LYS551  ARG553  GLY616  TRP617  ASP618  TYR619  PRO620  LYS621  CYS622 
 ASP623  PHE694  ASN695  SER759  ASP760  ASP761  ALA762  ILE779  LEU786  VAL792 
 PHE793  MET794  SER795  GLU796  ALA797  LYS798  CYS799  TRP800  GLU811  SER814 

> <Gold.Protein.RotatedAtoms>
  150.8315  134.7570  159.6857 H   0  0  0  0  0  0  0  0  0  0  0  0  # atno 6907 bound_to 6896
  152.4418  134.5571  159.9893 H   0  0  0  0  0  0  0  0  0  0  0  0  # atno 6908 bound_to 6896
  151.5731  133.3349  159.3029 H   0  0  0  0  0  0  0  0  0  0  0  0  # atno 6909 bound_to 6896
  144.7139  140.1647  143.6373 H   0  0  0  0  0  0  0  0  0  0  0  0  # atno 7974 bound_to 7965
  155.9921  140.3368  155.6763 H   0  0  0  0  0  0  0  0  0  0  0  0  # atno 8008 bound_to 7997
  155.6406  140.0695  157.2638 H   0  0  0  0  0  0  0  0  0  0  0  0  # atno 8009 bound_to 7997
  154.4223  140.1743  156.1556 H   0  0  0  0  0  0  0  0  0  0  0  0  # atno 8010 bound_to 7997
  140.7273  143.4047  151.1206 H   0  0  0  0  0  0  0  0  0  0  0  0  # atno 10167 bound_to 10162
  157.5549  131.1092  150.8639 H   0  0  0  0  0  0  0  0  0  0  0  0  # atno 10718 bound_to 10713
  154.5569  135.5645  153.6972 H   0  0  0  0  0  0  0  0  0  0  0  0  # atno 10763 bound_to 10752
  153.0006  135.6264  154.2297 H   0  0  0  0  0  0  0  0  0  0  0  0  # atno 10764 bound_to 10752
  154.2234  135.2869  155.2896 H   0  0  0  0  0  0  0  0  0  0  0  0  # atno 10765 bound_to 10752
  139.9557  134.7149  156.0759 H   0  0  0  0  0  0  0  0  0  0  0  0  # atno 11005 bound_to 11000
  145.8998  139.2424  143.1500 LP  0  0  0  0  0  0  0  0  0  0  0  0  # atno 17320 bound_to 7965
  145.9822  140.8673  143.0109 LP  0  0  0  0  0  0  0  0  0  0  0  0  # atno 17321 bound_to 7965
  139.7671  143.8548  152.3113 LP  0  0  0  0  0  0  0  0  0  0  0  0  # atno 17342 bound_to 10162
  139.8454  144.7190  150.9279 LP  0  0  0  0  0  0  0  0  0  0  0  0  # atno 17343 bound_to 10162
  156.9154  130.5295  149.5279 LP  0  0  0  0  0  0  0  0  0  0  0  0  # atno 17370 bound_to 10713
  156.0609  130.5662  150.9191 LP  0  0  0  0  0  0  0  0  0  0  0  0  # atno 17371 bound_to 10713
  141.1228  133.6608  156.3258 LP  0  0  0  0  0  0  0  0  0  0  0  0  # atno 17394 bound_to 11000
  140.5615  134.5929  157.5435 LP  0  0  0  0  0  0  0  0  0  0  0  0  # atno 17395 bound_to 11000

$$$$
