AV-unprocessed.smi:3018|AV-procd|sdf|11482|dock6
  -GOLD-   2272016423D 1   1.00000     0.00000
 Structure written by MMmdl.
 44 45  0  0  0  0  0  0  0  0  2 V2000
  149.6082  140.3693  154.5880 C   0  0  0  0  0  0  0  0  0  0  0  0
  150.1922  141.4073  155.5546 C   0  0  0  0  0  0  0  0  0  0  0  0
  149.5140  141.3800  156.9368 C   0  0  1  0  0  0  0  0  0  0  0  0
  149.9332  142.5428  157.6488 O   0  0  0  0  0  0  0  0  0  0  0  0
  151.2622  142.5319  158.1634 C   0  0  0  0  0  0  0  0  0  0  0  0
  151.3975  141.2883  159.0588 C   0  0  0  0  0  0  0  0  0  0  0  0
  152.7765  141.2317  159.7357 C   0  0  0  0  0  0  0  0  0  0  0  0
  153.0539  142.5129  160.5382 C   0  0  0  0  0  0  0  0  0  0  0  0
  152.9117  143.7634  159.6561 C   0  0  0  0  0  0  0  0  0  0  0  0
  151.5337  143.8146  158.9762 C   0  0  0  0  0  0  0  0  0  0  0  0
  147.9830  141.3797  156.8067 C   0  0  0  0  0  0  0  0  0  0  0  0
  147.3103  140.5341  157.3969 O   0  0  0  0  0  0  0  0  0  0  0  0
  147.4505  142.3263  156.0184 N   0  0  0  0  0  0  0  0  0  0  0  0
  146.0265  142.4954  155.7554 C   0  0  0  0  0  0  0  0  0  0  0  0
  145.4160  143.5967  156.6467 C   0  0  0  0  0  0  0  0  0  0  0  0
  145.6486  143.4231  158.1412 C   0  0  0  0  0  0  0  0  0  0  0  0
  145.0082  142.6676  158.9563 N   0  0  0  0  0  0  0  0  0  0  0  0
  145.6301  142.8833  160.2291 N   0  5  0  0  0  0  0  0  0  0  0  0
  146.6219  143.7867  160.0379 C   0  0  0  0  0  0  0  0  0  0  0  0
  147.4041  144.2560  160.8614 O   0  0  0  0  0  0  0  0  0  0  0  0
  146.6466  144.1285  158.7541 N   0  0  0  0  0  0  0  0  0  0  0  0
  147.2723  144.7830  158.3091 H   0  0  0  0  0  0  0  0  0  0  0  0
  150.1014  140.4224  153.6172 H   0  0  0  0  0  0  0  0  0  0  0  0
  148.5423  140.5346  154.4295 H   0  0  0  0  0  0  0  0  0  0  0  0
  149.7370  139.3563  154.9704 H   0  0  0  0  0  0  0  0  0  0  0  0
  151.2647  141.2370  155.6601 H   0  0  0  0  0  0  0  0  0  0  0  0
  150.0814  142.3976  155.1100 H   0  0  0  0  0  0  0  0  0  0  0  0
  149.8330  140.4765  157.4582 H   0  0  0  0  0  0  0  0  0  0  0  0
  151.9935  142.4490  157.3584 H   0  0  0  0  0  0  0  0  0  0  0  0
  150.6181  141.2979  159.8220 H   0  0  0  0  0  0  0  0  0  0  0  0
  151.2387  140.3864  158.4667 H   0  0  0  0  0  0  0  0  0  0  0  0
  152.8335  140.3625  160.3913 H   0  0  0  0  0  0  0  0  0  0  0  0
  153.5503  141.0992  158.9783 H   0  0  0  0  0  0  0  0  0  0  0  0
  152.3582  142.5764  161.3759 H   0  0  0  0  0  0  0  0  0  0  0  0
  154.0545  142.4729  160.9696 H   0  0  0  0  0  0  0  0  0  0  0  0
  153.0634  144.6605  160.2568 H   0  0  0  0  0  0  0  0  0  0  0  0
  153.6935  143.7644  158.8955 H   0  0  0  0  0  0  0  0  0  0  0  0
  151.4811  144.6949  158.3363 H   0  0  0  0  0  0  0  0  0  0  0  0
  150.7585  143.9383  159.7335 H   0  0  0  0  0  0  0  0  0  0  0  0
  148.0778  142.9773  155.5689 H   0  0  0  0  0  0  0  0  0  0  0  0
  145.9143  142.7583  154.7029 H   0  0  0  0  0  0  0  0  0  0  0  0
  145.5088  141.5451  155.8987 H   0  0  0  0  0  0  0  0  0  0  0  0
  145.8114  144.5702  156.3550 H   0  0  0  0  0  0  0  0  0  0  0  0
  144.3397  143.6404  156.4767 H   0  0  0  0  0  0  0  0  0  0  0  0
  1  2  1  0  0  0  0
  1 23  1  0  0  0  0
  1 24  1  0  0  0  0
  1 25  1  0  0  0  0
  2  3  1  0  0  0  0
  2 26  1  0  0  0  0
  2 27  1  0  0  0  0
  3  4  1  0  0  0  0
  3 11  1  0  0  0  0
  3 28  1  0  0  0  0
  4  5  1  0  0  0  0
  5 10  1  0  0  0  0
  5  6  1  0  0  0  0
  5 29  1  0  0  0  0
  6  7  1  0  0  0  0
  6 30  1  0  0  0  0
  6 31  1  0  0  0  0
  7  8  1  0  0  0  0
  7 32  1  0  0  0  0
  7 33  1  0  0  0  0
  8  9  1  0  0  0  0
  8 34  1  0  0  0  0
  8 35  1  0  0  0  0
  9 10  1  0  0  0  0
  9 36  1  0  0  0  0
  9 37  1  0  0  0  0
 10 38  1  0  0  0  0
 10 39  1  0  0  0  0
 11 12  2  0  0  0  0
 11 13  1  0  0  0  0
 13 14  1  0  0  0  0
 13 40  1  0  0  0  0
 14 15  1  0  0  0  0
 14 41  1  0  0  0  0
 14 42  1  0  0  0  0
 15 16  1  0  0  0  0
 15 43  1  0  0  0  0
 15 44  1  0  0  0  0
 16 21  1  0  0  0  0
 16 17  2  0  0  0  0
 17 18  1  0  0  0  0
 18 19  1  0  0  0  0
 19 20  2  0  0  0  0
 19 21  1  0  0  0  0
 21 22  1  0  0  0  0
M  CHG  1  18  -1
M  END
> <s_m_source_file>
AV-unprocessed.smi

> <i_m_source_file_index>
3018

> <i_lp_mmshare_version>
43012

> <i_f3d_flags>
0

> <s_epik_input>
W0NIMl0xW0NIMl1bQ0gyXVtDSDJdW0NIMl1bQ0hdMU9bQ0BASF0oW0NIMl1bQ0gzXSlDKD1PKVtOSF1bQ0gyXVtDSDJdYzJuW25IXWMoPU8pW25IXTI=

> <s_epik_cmdline>
J2VwaWtfcHl0aG9uJywgJy1waCcsICc3LjAnLCAnLXRuJywgJzgnLCAnLW1hJywgJzIwMCcsICctbWV0YWxfYmluZGluZycsICctaW1hZScsICc8aW5maWxlLm1hZT4nLCAnLW9tYWUnLCAnPG91dGZpbGUubWFlPic=

> <r_lp_tautomer_probability>
1

> <r_epik_Ionization_Penalty>
14.1812

> <r_epik_Ionization_Penalty_Charging>
13.7758

> <r_epik_Ionization_Penalty_Neutral>
0.405355

> <r_epik_State_Penalty>
4.92413

> <r_epik_Charging_Adjusted_Penalty>
18.7

> <i_epik_Tot_Q>
-1

> <i_epik_Tot_abs_Q>
1

> <r_epik_Metal_State_Penalty>
1.32654

> <b_epik_Metal_Only>
1

> <s_lp_Force_Field>
OPLS_2005

> <r_lp_Energy>
19.6137

> <b_lp_Chiralities_Consistent>
1

> <s_lp_Variant>
AV-unprocessed.smi:3018-4

> <Gold.Version>
5.8.1

> <Gold.Id.Protein>
6NUR|6NUR_protein|mol2

> <Gold.PLP.Fitness>
48.1405

> <Gold.PLP.PLP>
-34.7990

> <Gold.PLP.part.hbond>
-4.0000

> <Gold.PLP.part.metal>
0.0000

> <Gold.PLP.part.buried>
-5.0449

> <Gold.PLP.part.nonpolar>
-26.4554

> <Gold.PLP.part.repulsive>
0.3702

> <Gold.PLP.ligand.clash>
0.0000

> <Gold.PLP.ligand.torsion>
0.7785

> <Gold.PLP.Chemscore.Hbond>
4.9000

> <Gold.PLP.Chemscore.CHOScore>
0.0000

> <Gold.PLP.Chemscore.Metal>
0.0000

> <Gold.Chemscore.Hbonds>
donor molecule, donor type, donor heavy atom, donor atom, acceptor molecule, acceptor atom, score
      L1  H    13    40       P1  8028  0.91
      L1  H    21    22       P1  8029  1.00
      P1  H  6933  6944       L1    20  0.42

> <Gold.PLP.Chemscore.Internal.Correction>
0.1986

> <Gold.Rescore>
     Score         DG    S(hbond)    S(metal)    S(lipo)     H(rot)  DE(clash)    DE(int)     intcor
     14.91     -15.60       2.21        0.00      88.53       2.98       0.07       0.62       ----

> <Gold.Chemscore.Fitness>
14.9054

> <Gold.Chemscore.DG>
-15.5959

> <Gold.Chemscore.ZeroCoef>
-5.4800

> <Gold.Chemscore.Hbond>
2.2094

> <Gold.Chemscore.Metal>
0.0000

> <Gold.Chemscore.Lipo>
88.5316

> <Gold.Chemscore.Internal_Hbond>
0.0000

> <Gold.Chemscore.DEClash>
0.0661

> <Gold.Chemscore.DEInternal>
0.6244

> <Gold.Chemscore.Rot>
2.9772

> <Gold.Chemscore.Internal.Correction>
   9.000000E+99

> <Gold.Chemscore.Hbonds>
donor molecule, donor type, donor heavy atom, donor atom, acceptor molecule, acceptor atom, score
      L1  H    13    40       P1  8028  0.75
      L1  H    21    22       P1  8029  0.95
      P1  H  6933  6944       L1    20  0.11
      P1  H  6934  6946       L1    18  0.01

> <Gold.Chemscore.Hbond.Weighted>
-7.3793

> <Gold.Chemscore.Metal.Weighted>
-0.0000

> <Gold.Chemscore.Lipo.Weighted>
-10.3582

> <Gold.Chemscore.Internal_Hbond.Weighted>
0.0000

> <Gold.Chemscore.DEClash.Weighted>
0.0661

> <Gold.Chemscore.DEInternal.Weighted>
0.6244

> <Gold.Chemscore.Rot.Weighted>
7.6216

> <Gold.Chemscore.Internal.Correction.Weighted>
   9.000000E+99

> <Gold.Protein.RotatedTorsions>
[ 6907 6896 6895 6894 ] final  148.79 input  -60.11 | X-H torsion
[ 7974 7965 7964 7962 ] final  -89.87 input  175.53 | X-H torsion
[ 8008 7997 7996 7995 ] final  -45.73 input   59.86 | X-H torsion
[ 10167 10162 10161 10158 ] final   69.59 input  -65.29 | X-H torsion
[ 10718 10713 10712 10709 ] final   80.96 input   66.30 | X-H torsion
[ 10763 10752 10751 10750 ] final  161.77 input  -60.55 | X-H torsion
[ 11005 11000 10999 10996 ] final   51.97 input  -57.11 | X-H torsion

> <Gold.Protein.ActiveResidues>
 VAL166  LYS551  ARG553  GLY616  TRP617  ASP618  TYR619  PRO620  LYS621  CYS622 
 ASP623  PHE694  ASN695  SER759  ASP760  ASP761  ALA762  ILE779  LEU786  VAL792 
 PHE793  MET794  SER795  GLU796  ALA797  LYS798  CYS799  TRP800  GLU811  SER814 

> <Gold.Protein.RotatedAtoms>
  152.1367  133.4439  159.4746 H   0  0  0  0  0  0  0  0  0  0  0  0  # atno 6907 bound_to 6896
  150.6882  134.2355  159.4460 H   0  0  0  0  0  0  0  0  0  0  0  0  # atno 6908 bound_to 6896
  152.0243  134.9804  160.0622 H   0  0  0  0  0  0  0  0  0  0  0  0  # atno 6909 bound_to 6896
  145.4340  140.9557  143.2112 H   0  0  0  0  0  0  0  0  0  0  0  0  # atno 7974 bound_to 7965
  154.4002  140.1389  156.3895 H   0  0  0  0  0  0  0  0  0  0  0  0  # atno 8008 bound_to 7997
  155.7928  140.3478  155.5338 H   0  0  0  0  0  0  0  0  0  0  0  0  # atno 8009 bound_to 7997
  155.8562  140.0949  157.1633 H   0  0  0  0  0  0  0  0  0  0  0  0  # atno 8010 bound_to 7997
  140.0662  144.5191  150.7259 H   0  0  0  0  0  0  0  0  0  0  0  0  # atno 10167 bound_to 10162
  157.6820  130.9983  150.2156 H   0  0  0  0  0  0  0  0  0  0  0  0  # atno 10718 bound_to 10713
  154.2680  135.2766  155.2750 H   0  0  0  0  0  0  0  0  0  0  0  0  # atno 10763 bound_to 10752
  154.5326  135.5725  153.6775 H   0  0  0  0  0  0  0  0  0  0  0  0  # atno 10764 bound_to 10752
  152.9950  135.6231  154.2833 H   0  0  0  0  0  0  0  0  0  0  0  0  # atno 10765 bound_to 10752
  140.0888  134.5237  155.8872 H   0  0  0  0  0  0  0  0  0  0  0  0  # atno 11005 bound_to 11000
  144.8164  139.5869  143.7006 LP  0  0  0  0  0  0  0  0  0  0  0  0  # atno 17320 bound_to 7965
  146.2592  139.6371  142.9374 LP  0  0  0  0  0  0  0  0  0  0  0  0  # atno 17321 bound_to 7965
  140.7148  143.2535  151.4468 LP  0  0  0  0  0  0  0  0  0  0  0  0  # atno 17342 bound_to 10162
  139.5864  144.1596  152.2034 LP  0  0  0  0  0  0  0  0  0  0  0  0  # atno 17343 bound_to 10162
  156.2818  130.3734  149.7928 LP  0  0  0  0  0  0  0  0  0  0  0  0  # atno 17370 bound_to 10713
  156.5614  130.8385  151.3330 LP  0  0  0  0  0  0  0  0  0  0  0  0  # atno 17371 bound_to 10713
  141.2071  133.6661  156.6286 LP  0  0  0  0  0  0  0  0  0  0  0  0  # atno 17394 bound_to 11000
  140.3381  134.7872  157.4377 LP  0  0  0  0  0  0  0  0  0  0  0  0  # atno 17395 bound_to 11000

$$$$
