AV-unprocessed.smi:295|AV-procd|sdf|2256|dock3
  -GOLD-   2262022143D 1   1.00000     0.00000
 Structure written by MMmdl.
 35 36  0  0  0  0  0  0  0  0  1 V2000
  154.5173  140.6703  161.4959 C   0  0  0  0  0  0  0  0  0  0  0  0
  153.9000  142.0104  161.0574 C   0  0  2  0  0  0  0  0  0  0  0  0
  152.7931  142.4614  162.0335 C   0  0  0  0  0  0  0  0  0  0  0  0
  152.2075  143.8249  161.6342 C   0  0  0  0  0  0  0  0  0  0  0  0
  151.6832  143.8071  160.1909 C   0  0  0  0  0  0  0  0  0  0  0  0
  152.7779  143.3597  159.2062 C   0  0  0  0  0  0  0  0  0  0  0  0
  153.3911  141.9987  159.5922 C   0  0  2  0  0  0  0  0  0  0  0  0
  152.4108  140.9343  159.3830 N   0  0  0  0  0  0  0  0  0  0  0  0
  152.6645  139.6845  158.9645 C   0  0  0  0  0  0  0  0  0  0  0  0
  153.7722  139.2942  158.5976 O   0  0  0  0  0  0  0  0  0  0  0  0
  151.4834  138.7149  159.0025 C   0  0  0  0  0  0  0  0  0  0  0  0
  150.5745  138.9806  157.9014 N   0  0  0  0  0  0  0  0  0  0  0  0
  149.3547  138.4954  157.6471 C   0  0  0  0  0  0  0  0  0  0  0  0
  148.7875  139.0046  156.5604 N   0  0  0  0  0  0  0  0  0  0  0  0
  149.7869  139.8511  156.1765 C   0  0  0  0  0  0  0  0  0  0  0  0
  149.6572  140.6963  155.0020 C   0  0  0  0  0  0  0  0  0  0  0  0
  149.5537  141.3689  154.0662 N   0  0  0  0  0  0  0  0  0  0  0  0
  150.8821  139.8783  156.9325 N   0  0  0  0  0  0  0  0  0  0  0  0
  153.7692  139.8791  161.5539 H   0  0  0  0  0  0  0  0  0  0  0  0
  154.9761  140.7575  162.4810 H   0  0  0  0  0  0  0  0  0  0  0  0
  155.2913  140.3476  160.7994 H   0  0  0  0  0  0  0  0  0  0  0  0
  154.6975  142.7532  161.1092 H   0  0  0  0  0  0  0  0  0  0  0  0
  151.9964  141.7166  162.0649 H   0  0  0  0  0  0  0  0  0  0  0  0
  153.1933  142.5219  163.0460 H   0  0  0  0  0  0  0  0  0  0  0  0
  151.4037  144.0980  162.3182 H   0  0  0  0  0  0  0  0  0  0  0  0
  152.9739  144.5943  161.7349 H   0  0  0  0  0  0  0  0  0  0  0  0
  150.8250  143.1375  160.1217 H   0  0  0  0  0  0  0  0  0  0  0  0
  151.3210  144.7982  159.9161 H   0  0  0  0  0  0  0  0  0  0  0  0
  152.3749  143.3181  158.1934 H   0  0  0  0  0  0  0  0  0  0  0  0
  153.5665  144.1128  159.1864 H   0  0  0  0  0  0  0  0  0  0  0  0
  154.2481  141.8322  158.9372 H   0  0  0  0  0  0  0  0  0  0  0  0
  151.4614  141.1463  159.6548 H   0  0  0  0  0  0  0  0  0  0  0  0
  151.8402  137.6856  158.9434 H   0  0  0  0  0  0  0  0  0  0  0  0
  150.9394  138.8185  159.9424 H   0  0  0  0  0  0  0  0  0  0  0  0
  148.8673  137.7668  158.2783 H   0  0  0  0  0  0  0  0  0  0  0  0
  1  2  1  0  0  0  0
  1 19  1  0  0  0  0
  1 20  1  0  0  0  0
  1 21  1  0  0  0  0
  2  7  1  0  0  0  0
  2  3  1  0  0  0  0
  2 22  1  0  0  0  0
  3  4  1  0  0  0  0
  3 23  1  0  0  0  0
  3 24  1  0  0  0  0
  4  5  1  0  0  0  0
  4 25  1  0  0  0  0
  4 26  1  0  0  0  0
  5  6  1  0  0  0  0
  5 27  1  0  0  0  0
  5 28  1  0  0  0  0
  6  7  1  0  0  0  0
  6 29  1  0  0  0  0
  6 30  1  0  0  0  0
  7  8  1  0  0  0  0
  7 31  1  0  0  0  0
  8  9  1  0  0  0  0
  8 32  1  0  0  0  0
  9 10  2  0  0  0  0
  9 11  1  0  0  0  0
 11 12  1  0  0  0  0
 11 33  1  0  0  0  0
 11 34  1  0  0  0  0
 12 18  1  0  0  0  0
 12 13  1  0  0  0  0
 13 14  2  0  0  0  0
 13 35  1  0  0  0  0
 14 15  1  0  0  0  0
 15 16  1  0  0  0  0
 15 18  2  0  0  0  0
 16 17  3  0  0  0  0
M  END
> <s_m_source_file>
AV-unprocessed.smi

> <i_m_source_file_index>
295

> <i_lp_mmshare_version>
43012

> <i_f3d_flags>
0

> <s_epik_input>
W0NIM11bQ0BASF0xW0NIMl1bQ0gyXVtDSDJdW0NIMl1bQ0BIXTFbTkhdQyg9TylbQ0gyXW4yW2NIXW5jKG4yKUMjTg==

> <s_epik_cmdline>
J2VwaWtfcHl0aG9uJywgJy1waCcsICc3LjAnLCAnLXRuJywgJzgnLCAnLW1hJywgJzIwMCcsICctbWV0YWxfYmluZGluZycsICctaW1hZScsICc8aW5maWxlLm1hZT4nLCAnLW9tYWUnLCAnPG91dGZpbGUubWFlPic=

> <r_lp_tautomer_probability>
1

> <r_epik_Ionization_Penalty>
5.31112e-08

> <r_epik_Ionization_Penalty_Charging>
0

> <r_epik_Ionization_Penalty_Neutral>
5.31112e-08

> <r_epik_State_Penalty>
-0

> <r_epik_Charging_Adjusted_Penalty>
0

> <i_epik_Tot_Q>
0

> <i_epik_Tot_abs_Q>
0

> <r_epik_Metal_State_Penalty>
-0

> <b_epik_Metal_Only>
0

> <s_lp_Force_Field>
OPLS_2005

> <r_lp_Energy>
12.1326

> <b_lp_Chiralities_Consistent>
1

> <s_lp_Variant>
AV-unprocessed.smi:295-3

> <Gold.Version>
5.8.1

> <Gold.Id.Protein>
6NUR|6NUR_protein|mol2

> <Gold.PLP.Fitness>
40.9394

> <Gold.PLP.PLP>
-36.7666

> <Gold.PLP.part.hbond>
-3.0000

> <Gold.PLP.part.metal>
0.0000

> <Gold.PLP.part.buried>
-3.9259

> <Gold.PLP.part.nonpolar>
-29.4714

> <Gold.PLP.part.repulsive>
0.3279

> <Gold.PLP.ligand.clash>
0.0000

> <Gold.PLP.ligand.torsion>
0.6091

> <Gold.PLP.Chemscore.Hbond>
1.7925

> <Gold.PLP.Chemscore.CHOScore>
0.0000

> <Gold.PLP.Chemscore.Metal>
0.0000

> <Gold.Chemscore.Hbonds>
donor molecule, donor type, donor heavy atom, donor atom, acceptor molecule, acceptor atom, score
      P1  H  7989  7998       L1    17  0.11
      P1  H  7997  8010       L1    10  1.00
      P1  H  8011  8017       L1    17  0.70

> <Gold.PLP.Chemscore.Internal.Correction>
0.0134

> <Gold.Rescore>
     Score         DG    S(hbond)    S(metal)    S(lipo)     H(rot)  DE(clash)    DE(int)     intcor
     15.40     -16.15       1.77        0.00      83.21       1.95       0.08       0.67       ----

> <Gold.Chemscore.Fitness>
15.4023

> <Gold.Chemscore.DG>
-16.1527

> <Gold.Chemscore.ZeroCoef>
-5.4800

> <Gold.Chemscore.Hbond>
1.7732

> <Gold.Chemscore.Metal>
0.0000

> <Gold.Chemscore.Lipo>
83.2075

> <Gold.Chemscore.Internal_Hbond>
0.0000

> <Gold.Chemscore.DEClash>
0.0833

> <Gold.Chemscore.DEInternal>
0.6671

> <Gold.Chemscore.Rot>
1.9474

> <Gold.Chemscore.Internal.Correction>
   9.000000E+99

> <Gold.Chemscore.Hbonds>
donor molecule, donor type, donor heavy atom, donor atom, acceptor molecule, acceptor atom, score
      P1  H  7989  7998       L1    17  0.01
      P1  H  7997  8010       L1    10  0.99
      P1  H  8011  8017       L1    17  0.66

> <Gold.Chemscore.Hbond.Weighted>
-5.9226

> <Gold.Chemscore.Metal.Weighted>
-0.0000

> <Gold.Chemscore.Lipo.Weighted>
-9.7353

> <Gold.Chemscore.Internal_Hbond.Weighted>
0.0000

> <Gold.Chemscore.DEClash.Weighted>
0.0833

> <Gold.Chemscore.DEInternal.Weighted>
0.6671

> <Gold.Chemscore.Rot.Weighted>
4.9852

> <Gold.Chemscore.Internal.Correction.Weighted>
   9.000000E+99

> <Gold.Protein.RotatedTorsions>
[ 6907 6896 6895 6894 ] final  -17.45 input  -60.11 | X-H torsion
[ 7974 7965 7964 7962 ] final  104.02 input  175.53 | X-H torsion
[ 8008 7997 7996 7995 ] final   26.04 input   59.86 | X-H torsion
[ 10167 10162 10161 10158 ] final -141.97 input  -65.29 | X-H torsion
[ 10718 10713 10712 10709 ] final   62.47 input   66.30 | X-H torsion
[ 10763 10752 10751 10750 ] final -130.53 input  -60.55 | X-H torsion
[ 11005 11000 10999 10996 ] final   59.68 input  -57.11 | X-H torsion

> <Gold.Protein.ActiveResidues>
 VAL166  LYS551  ARG553  GLY616  TRP617  ASP618  TYR619  PRO620  LYS621  CYS622 
 ASP623  PHE694  ASN695  SER759  ASP760  ASP761  ALA762  ILE779  LEU786  VAL792 
 PHE793  MET794  SER795  GLU796  ALA797  LYS798  CYS799  TRP800  GLU811  SER814 

> <Gold.Protein.RotatedAtoms>
  151.2931  135.0747  159.9211 H   0  0  0  0  0  0  0  0  0  0  0  0  # atno 6907 bound_to 6896
  152.5312  133.9911  159.7861 H   0  0  0  0  0  0  0  0  0  0  0  0  # atno 6908 bound_to 6896
  151.0184  133.5848  159.2704 H   0  0  0  0  0  0  0  0  0  0  0  0  # atno 6909 bound_to 6896
  145.3383  139.2469  143.3623 H   0  0  0  0  0  0  0  0  0  0  0  0  # atno 7974 bound_to 7965
  155.0211  140.3148  155.4793 H   0  0  0  0  0  0  0  0  0  0  0  0  # atno 8008 bound_to 7997
  156.2892  140.2197  156.5271 H   0  0  0  0  0  0  0  0  0  0  0  0  # atno 8009 bound_to 7997
  154.7451  140.0470  157.0833 H   0  0  0  0  0  0  0  0  0  0  0  0  # atno 8010 bound_to 7997
  139.8134  143.7672  152.2664 H   0  0  0  0  0  0  0  0  0  0  0  0  # atno 10167 bound_to 10162
  157.5903  130.9052  149.9592 H   0  0  0  0  0  0  0  0  0  0  0  0  # atno 10718 bound_to 10713
  154.8755  135.3859  154.4098 H   0  0  0  0  0  0  0  0  0  0  0  0  # atno 10763 bound_to 10752
  153.4813  135.7030  153.5942 H   0  0  0  0  0  0  0  0  0  0  0  0  # atno 10764 bound_to 10752
  153.4356  135.3868  155.2164 H   0  0  0  0  0  0  0  0  0  0  0  0  # atno 10765 bound_to 10752
  140.0286  134.6046  155.9538 H   0  0  0  0  0  0  0  0  0  0  0  0  # atno 11005 bound_to 11000
  146.3018  140.3975  142.8701 LP  0  0  0  0  0  0  0  0  0  0  0  0  # atno 17320 bound_to 7965
  144.8810  140.7400  143.5986 LP  0  0  0  0  0  0  0  0  0  0  0  0  # atno 17321 bound_to 7965
  139.7828  144.7438  151.0064 LP  0  0  0  0  0  0  0  0  0  0  0  0  # atno 17342 bound_to 10162
  140.7817  143.4524  151.0394 LP  0  0  0  0  0  0  0  0  0  0  0  0  # atno 17343 bound_to 10162
  156.0957  130.3659  150.0311 LP  0  0  0  0  0  0  0  0  0  0  0  0  # atno 17370 bound_to 10713
  156.8435  130.9434  151.3630 LP  0  0  0  0  0  0  0  0  0  0  0  0  # atno 17371 bound_to 10713
  141.1817  133.6548  156.5050 LP  0  0  0  0  0  0  0  0  0  0  0  0  # atno 17394 bound_to 11000
  140.4264  134.7141  157.4918 LP  0  0  0  0  0  0  0  0  0  0  0  0  # atno 17395 bound_to 11000

$$$$
