AV-unprocessed.smi:2083|AV-procd|sdf|8511|dock2
  -GOLD-   2272011223D 1   1.00000     0.00000
 Structure written by MMmdl.
 44 45  0  0  0  0  0  0  0  0  3 V2000
  147.3974  135.9900  162.9745 C   0  0  0  0  0  0  0  0  0  0  0  0
  147.6950  136.0147  161.5145 C   0  0  0  0  0  0  0  0  0  0  0  0
  147.7628  135.0366  160.5629 C   0  0  0  0  0  0  0  0  0  0  0  0
  148.0907  135.7577  159.3837 C   0  0  0  0  0  0  0  0  0  0  0  0
  148.2529  135.0823  158.1454 N   0  0  0  0  0  0  0  0  0  0  0  0
  148.6372  133.8125  157.9202 C   0  0  0  0  0  0  0  0  0  0  0  0
  148.8998  133.0611  158.8671 O   0  0  0  0  0  0  0  0  0  0  0  0
  148.6852  133.5200  156.5919 N   0  5  0  0  0  0  0  0  0  0  0  0
  147.5498  133.6280  155.6774 C   0  0  0  0  0  0  0  0  0  0  0  0
  147.9315  134.4978  154.4363 C   0  0  1  0  0  0  0  0  0  0  0  0
  149.4443  134.4746  154.1113 C   0  0  0  0  0  0  0  0  0  0  0  0
  147.1370  134.2324  153.1880 N   0  3  1  0  0  0  0  0  0  0  0  0
  147.2097  132.8587  152.6063 C   0  0  0  0  0  0  0  0  0  0  0  0
  146.6618  132.8493  151.1711 C   0  0  0  0  0  0  0  0  0  0  0  0
  145.2290  133.4006  151.1255 C   0  0  0  0  0  0  0  0  0  0  0  0
  145.1394  134.7926  151.7801 C   0  0  2  0  0  0  0  0  0  0  0  0
  145.7553  135.9012  150.9083 C   0  0  0  0  0  0  0  0  0  0  0  0
  145.7432  134.7639  153.1994 C   0  0  0  0  0  0  0  0  0  0  0  0
  148.2131  137.0594  159.5981 N   0  0  0  0  0  0  0  0  0  0  0  0
  147.9610  137.2305  160.9645 O   0  0  0  0  0  0  0  0  0  0  0  0
  146.9830  135.0264  163.2714 H   0  0  0  0  0  0  0  0  0  0  0  0
  146.6745  136.7631  163.2357 H   0  0  0  0  0  0  0  0  0  0  0  0
  148.3033  136.1619  163.5556 H   0  0  0  0  0  0  0  0  0  0  0  0
  147.6025  133.9763  160.6908 H   0  0  0  0  0  0  0  0  0  0  0  0
  148.0577  135.6316  157.3217 H   0  0  0  0  0  0  0  0  0  0  0  0
  147.2031  132.6533  155.3322 H   0  0  0  0  0  0  0  0  0  0  0  0
  146.6946  134.0837  156.1774 H   0  0  0  0  0  0  0  0  0  0  0  0
  147.7110  135.5342  154.6981 H   0  0  0  0  0  0  0  0  0  0  0  0
  150.0466  134.8703  154.9312 H   0  0  0  0  0  0  0  0  0  0  0  0
  149.6587  135.0977  153.2425 H   0  0  0  0  0  0  0  0  0  0  0  0
  149.8153  133.4727  153.8913 H   0  0  0  0  0  0  0  0  0  0  0  0
  148.2384  132.5006  152.5931 H   0  0  0  0  0  0  0  0  0  0  0  0
  146.6377  132.1574  153.2158 H   0  0  0  0  0  0  0  0  0  0  0  0
  147.3111  133.4398  150.5240 H   0  0  0  0  0  0  0  0  0  0  0  0
  146.6795  131.8334  150.7753 H   0  0  0  0  0  0  0  0  0  0  0  0
  144.8689  133.4369  150.0967 H   0  0  0  0  0  0  0  0  0  0  0  0
  144.5683  132.7131  151.6554 H   0  0  0  0  0  0  0  0  0  0  0  0
  144.0808  135.0357  151.8809 H   0  0  0  0  0  0  0  0  0  0  0  0
  146.8296  135.7691  150.7789 H   0  0  0  0  0  0  0  0  0  0  0  0
  145.5966  136.8825  151.3563 H   0  0  0  0  0  0  0  0  0  0  0  0
  145.3012  135.9179  149.9171 H   0  0  0  0  0  0  0  0  0  0  0  0
  145.1196  134.1431  153.8441 H   0  0  0  0  0  0  0  0  0  0  0  0
  145.7247  135.7691  153.6223 H   0  0  0  0  0  0  0  0  0  0  0  0
  147.6027  134.8112  152.5045 H   0  0  0  0  0  0  0  0  0  0  0  0
  1  2  1  0  0  0  0
  1 21  1  0  0  0  0
  1 22  1  0  0  0  0
  1 23  1  0  0  0  0
  2 20  1  0  0  0  0
  2  3  2  0  0  0  0
  3  4  1  0  0  0  0
  3 24  1  0  0  0  0
  4  5  1  0  0  0  0
  4 19  2  0  0  0  0
  5  6  1  0  0  0  0
  5 25  1  0  0  0  0
  6  7  2  0  0  0  0
  6  8  1  0  0  0  0
  8  9  1  0  0  0  0
  9 10  1  0  0  0  0
  9 26  1  0  0  0  0
  9 27  1  0  0  0  0
 10 11  1  0  0  0  0
 10 12  1  0  0  0  0
 10 28  1  0  0  0  0
 11 29  1  0  0  0  0
 11 30  1  0  0  0  0
 11 31  1  0  0  0  0
 12 18  1  0  0  0  0
 12 13  1  0  0  0  0
 12 44  1  0  0  0  0
 13 14  1  0  0  0  0
 13 32  1  0  0  0  0
 13 33  1  0  0  0  0
 14 15  1  0  0  0  0
 14 34  1  0  0  0  0
 14 35  1  0  0  0  0
 15 16  1  0  0  0  0
 15 36  1  0  0  0  0
 15 37  1  0  0  0  0
 16 17  1  0  0  0  0
 16 18  1  0  0  0  0
 16 38  1  0  0  0  0
 17 39  1  0  0  0  0
 17 40  1  0  0  0  0
 17 41  1  0  0  0  0
 18 42  1  0  0  0  0
 18 43  1  0  0  0  0
 19 20  1  0  0  0  0
M  CHG  1   8  -1
M  CHG  1  12   1
M  END
> <s_m_source_file>
AV-unprocessed.smi

> <i_m_source_file_index>
2083

> <i_lp_mmshare_version>
43012

> <i_f3d_flags>
0

> <s_epik_input>
W0NIM11jMVtjSF1jKG5vMSlbTkhdQyg9TylbTkhdW0NIMl1bQ0BIXShbQ0gzXSlOMltDSDJdW0NIMl1bQ0gyXVtDQEBIXShbQ0gzXSlbQ0gyXTI=

> <s_epik_cmdline>
J2VwaWtfcHl0aG9uJywgJy1waCcsICc3LjAnLCAnLXRuJywgJzgnLCAnLW1hJywgJzIwMCcsICctbWV0YWxfYmluZGluZycsICctaW1hZScsICc8aW5maWxlLm1hZT4nLCAnLW9tYWUnLCAnPG91dGZpbGUubWFlPic=

> <r_epik_Ionization_Penalty>
6.76934

> <r_epik_Ionization_Penalty_Charging>
6.76934

> <r_epik_Ionization_Penalty_Neutral>
5.77849e-06

> <r_epik_State_Penalty>
6.79457

> <r_epik_Charging_Adjusted_Penalty>
13.5639

> <i_epik_Tot_Q>
0

> <i_epik_Tot_abs_Q>
2

> <r_epik_Metal_State_Penalty>
2.72837

> <b_epik_Metal_Only>
1

> <s_lp_Force_Field>
OPLS_2005

> <r_lp_Energy>
23.3528

> <b_lp_Chiralities_Consistent>
1

> <s_lp_Variant>
AV-unprocessed.smi:2083-22

> <Gold.Version>
5.8.1

> <Gold.Id.Protein>
6NUR|6NUR_protein|mol2

> <Gold.PLP.Fitness>
39.3109

> <Gold.PLP.PLP>
-27.8811

> <Gold.PLP.part.hbond>
-4.0000

> <Gold.PLP.part.metal>
0.0000

> <Gold.PLP.part.buried>
-0.0326

> <Gold.PLP.part.nonpolar>
-22.8932

> <Gold.PLP.part.repulsive>
0.0622

> <Gold.PLP.ligand.clash>
0.0000

> <Gold.PLP.ligand.torsion>
1.2888

> <Gold.PLP.Chemscore.Hbond>
4.5839

> <Gold.PLP.Chemscore.CHOScore>
0.0000

> <Gold.PLP.Chemscore.Metal>
0.0000

> <Gold.Chemscore.Hbonds>
donor molecule, donor type, donor heavy atom, donor atom, acceptor molecule, acceptor atom, score
      L1  H    12    44       P1  7948  2.00
      P1  H  6896  6908       L1     7  0.85
      P1  H  6931  6943       L1    20  0.91
      P1  H  6934  6947       L1    20  0.75

> <Gold.PLP.Chemscore.Internal.Correction>
0.2558

> <Gold.Rescore>
     Score         DG    S(hbond)    S(metal)    S(lipo)     H(rot)  DE(clash)    DE(int)     intcor
     13.15     -17.38       2.37        0.00      67.20       1.52       1.58       2.65       ----

> <Gold.Chemscore.Fitness>
13.1487

> <Gold.Chemscore.DG>
-17.3836

> <Gold.Chemscore.ZeroCoef>
-5.4800

> <Gold.Chemscore.Hbond>
2.3744

> <Gold.Chemscore.Metal>
0.0000

> <Gold.Chemscore.Lipo>
67.1954

> <Gold.Chemscore.Internal_Hbond>
0.0000

> <Gold.Chemscore.DEClash>
1.5826

> <Gold.Chemscore.DEInternal>
2.6523

> <Gold.Chemscore.Rot>
1.5190

> <Gold.Chemscore.Internal.Correction>
   9.000000E+99

> <Gold.Chemscore.Hbonds>
donor molecule, donor type, donor heavy atom, donor atom, acceptor molecule, acceptor atom, score
      L1  H    12    44       P1  7948  0.85
      P1  H  6896  6908       L1     7  0.15
      P1  H  6931  6943       L1    20  0.79
      P1  H  6934  6947       L1    20  0.19

> <Gold.Chemscore.Hbond.Weighted>
-7.9303

> <Gold.Chemscore.Metal.Weighted>
-0.0000

> <Gold.Chemscore.Lipo.Weighted>
-7.8619

> <Gold.Chemscore.Internal_Hbond.Weighted>
0.0000

> <Gold.Chemscore.DEClash.Weighted>
1.5826

> <Gold.Chemscore.DEInternal.Weighted>
2.6523

> <Gold.Chemscore.Rot.Weighted>
3.8886

> <Gold.Chemscore.Internal.Correction.Weighted>
   9.000000E+99

> <Gold.Protein.RotatedTorsions>
[ 6907 6896 6895 6894 ] final  118.24 input  -60.11 | X-H torsion
[ 7974 7965 7964 7962 ] final  121.94 input  175.53 | X-H torsion
[ 8008 7997 7996 7995 ] final   62.49 input   59.86 | X-H torsion
[ 10167 10162 10161 10158 ] final   88.74 input  -65.29 | X-H torsion
[ 10718 10713 10712 10709 ] final   87.57 input   66.30 | X-H torsion
[ 10763 10752 10751 10750 ] final -127.18 input  -60.55 | X-H torsion
[ 11005 11000 10999 10996 ] final   70.13 input  -57.11 | X-H torsion

> <Gold.Protein.ActiveResidues>
 VAL166  LYS551  ARG553  GLY616  TRP617  ASP618  TYR619  PRO620  LYS621  CYS622 
 ASP623  PHE694  ASN695  SER759  ASP760  ASP761  ALA762  ILE779  LEU786  VAL792 
 PHE793  MET794  SER795  GLU796  ALA797  LYS798  CYS799  TRP800  GLU811  SER814 

> <Gold.Protein.RotatedAtoms>
  152.4557  133.7718  159.6802 H   0  0  0  0  0  0  0  0  0  0  0  0  # atno 6907 bound_to 6896
  150.8482  133.7818  159.3041 H   0  0  0  0  0  0  0  0  0  0  0  0  # atno 6908 bound_to 6896
  151.5421  135.1071  159.9981 H   0  0  0  0  0  0  0  0  0  0  0  0  # atno 6909 bound_to 6896
  145.1134  139.3437  143.4751 H   0  0  0  0  0  0  0  0  0  0  0  0  # atno 7974 bound_to 7965
  155.6151  140.3495  155.4634 H   0  0  0  0  0  0  0  0  0  0  0  0  # atno 8008 bound_to 7997
  156.0124  140.1236  157.0465 H   0  0  0  0  0  0  0  0  0  0  0  0  # atno 8009 bound_to 7997
  154.4285  140.1079  156.5834 H   0  0  0  0  0  0  0  0  0  0  0  0  # atno 8010 bound_to 7997
  139.8643  144.6527  150.9022 H   0  0  0  0  0  0  0  0  0  0  0  0  # atno 10167 bound_to 10162
  157.6941  131.0260  150.3143 H   0  0  0  0  0  0  0  0  0  0  0  0  # atno 10718 bound_to 10713
  154.8751  135.3970  154.3551 H   0  0  0  0  0  0  0  0  0  0  0  0  # atno 10763 bound_to 10752
  153.4331  135.7025  153.6223 H   0  0  0  0  0  0  0  0  0  0  0  0  # atno 10764 bound_to 10752
  153.4836  135.3764  155.2424 H   0  0  0  0  0  0  0  0  0  0  0  0  # atno 10765 bound_to 10752
  139.9615  134.7053  156.0636 H   0  0  0  0  0  0  0  0  0  0  0  0  # atno 11005 bound_to 11000
  146.3525  140.1063  142.8606 LP  0  0  0  0  0  0  0  0  0  0  0  0  # atno 17320 bound_to 7965
  145.0821  140.9228  143.4819 LP  0  0  0  0  0  0  0  0  0  0  0  0  # atno 17321 bound_to 7965
  140.7770  143.3718  151.1636 LP  0  0  0  0  0  0  0  0  0  0  0  0  # atno 17342 bound_to 10162
  139.7344  143.9022  152.3030 LP  0  0  0  0  0  0  0  0  0  0  0  0  # atno 17343 bound_to 10162
  156.3640  130.3852  149.7229 LP  0  0  0  0  0  0  0  0  0  0  0  0  # atno 17370 bound_to 10713
  156.4665  130.7976  151.2995 LP  0  0  0  0  0  0  0  0  0  0  0  0  # atno 17371 bound_to 10713
  141.1292  133.6591  156.3419 LP  0  0  0  0  0  0  0  0  0  0  0  0  # atno 17394 bound_to 11000
  140.5490  134.6046  157.5402 LP  0  0  0  0  0  0  0  0  0  0  0  0  # atno 17395 bound_to 11000

$$$$
