AV-unprocessed.smi:766|AV-procd|sdf|3656|dock1
  -GOLD-   22720 1 63D 1   1.00000     0.00000
 Structure written by MMmdl.
 46 48  0  0  0  0  0  0  0  0  1 V2000
  151.8442  144.1433  159.9793 C   0  0  0  0  0  0  0  0  0  0  0  0
  151.7439  142.9656  159.0261 C   0  0  0  0  0  0  0  0  0  0  0  0
  150.9809  143.1012  157.8444 C   0  0  0  0  0  0  0  0  0  0  0  0
  150.8585  142.0286  156.9342 C   0  0  0  0  0  0  0  0  0  0  0  0
  150.1693  141.9402  155.7370 N   0  0  0  0  0  0  0  0  0  0  0  0
  150.4369  140.6912  155.3676 C   0  0  0  0  0  0  0  0  0  0  0  0
  151.2227  139.9605  156.1821 N   0  0  0  0  0  0  0  0  0  0  0  0
  151.6458  138.5846  155.9908 C   0  0  0  0  0  0  0  0  0  0  0  0
  150.8558  137.8643  154.8765 C   0  0  1  0  0  0  0  0  0  0  0  0
  151.7126  137.0033  154.1557 O   0  0  0  0  0  0  0  0  0  0  0  0
  149.6094  137.0817  155.3378 C   0  0  0  0  0  0  0  0  0  0  0  0
  149.4665  135.8109  154.6329 N   0  0  0  0  0  0  0  0  0  0  0  0
  148.2559  135.0775  154.9886 C   0  0  0  0  0  0  0  0  0  0  0  0
  148.0017  133.9113  154.0200 C   0  0  0  0  0  0  0  0  0  0  0  0
  148.6375  132.6814  154.4597 N   0  0  0  0  0  0  0  0  0  0  0  0
  148.6790  131.4605  153.8196 C   0  0  0  0  0  0  0  0  0  0  0  0
  149.3913  130.6086  154.6146 C   0  0  0  0  0  0  0  0  0  0  0  0
  149.7458  131.4097  155.7359 C   0  0  0  0  0  0  0  0  0  0  0  0
  149.2890  132.6481  155.6427 N   0  0  0  0  0  0  0  0  0  0  0  0
  151.5274  140.8074  157.2407 C   0  0  0  0  0  0  0  0  0  0  0  0
  152.2921  140.6611  158.4112 C   0  0  0  0  0  0  0  0  0  0  0  0
  152.4025  141.7422  159.3104 C   0  0  0  0  0  0  0  0  0  0  0  0
  153.2277  141.5728  160.5738 C   0  0  0  0  0  0  0  0  0  0  0  0
  151.2574  144.9923  159.6274 H   0  0  0  0  0  0  0  0  0  0  0  0
  152.8803  144.4685  160.0747 H   0  0  0  0  0  0  0  0  0  0  0  0
  151.4740  143.8688  160.9673 H   0  0  0  0  0  0  0  0  0  0  0  0
  150.4789  144.0324  157.6268 H   0  0  0  0  0  0  0  0  0  0  0  0
  150.0429  140.2826  154.4494 H   0  0  0  0  0  0  0  0  0  0  0  0
  152.7116  138.5827  155.7590 H   0  0  0  0  0  0  0  0  0  0  0  0
  151.5364  138.0564  156.9392 H   0  0  0  0  0  0  0  0  0  0  0  0
  150.5183  138.6173  154.1633 H   0  0  0  0  0  0  0  0  0  0  0  0
  151.3017  136.7937  153.3308 H   0  0  0  0  0  0  0  0  0  0  0  0
  149.6895  136.8916  156.4090 H   0  0  0  0  0  0  0  0  0  0  0  0
  148.7160  137.6929  155.2036 H   0  0  0  0  0  0  0  0  0  0  0  0
  149.4945  135.9696  153.6306 H   0  0  0  0  0  0  0  0  0  0  0  0
  148.3302  134.6986  156.0086 H   0  0  0  0  0  0  0  0  0  0  0  0
  147.4001  135.7531  154.9711 H   0  0  0  0  0  0  0  0  0  0  0  0
  146.9300  133.7276  153.9331 H   0  0  0  0  0  0  0  0  0  0  0  0
  148.3586  134.1571  153.0189 H   0  0  0  0  0  0  0  0  0  0  0  0
  148.2085  131.3029  152.8603 H   0  0  0  0  0  0  0  0  0  0  0  0
  149.6261  129.5720  154.4235 H   0  0  0  0  0  0  0  0  0  0  0  0
  150.3174  131.1302  156.6086 H   0  0  0  0  0  0  0  0  0  0  0  0
  152.7867  139.7230  158.6148 H   0  0  0  0  0  0  0  0  0  0  0  0
  153.6801  140.5820  160.6229 H   0  0  0  0  0  0  0  0  0  0  0  0
  152.6022  141.6997  161.4577 H   0  0  0  0  0  0  0  0  0  0  0  0
  154.0308  142.3092  160.6083 H   0  0  0  0  0  0  0  0  0  0  0  0
  1  2  1  0  0  0  0
  1 24  1  0  0  0  0
  1 25  1  0  0  0  0
  1 26  1  0  0  0  0
  2 22  1  0  0  0  0
  2  3  2  0  0  0  0
  3  4  1  0  0  0  0
  3 27  1  0  0  0  0
  4 20  2  0  0  0  0
  4  5  1  0  0  0  0
  5  6  2  0  0  0  0
  6  7  1  0  0  0  0
  6 28  1  0  0  0  0
  7  8  1  0  0  0  0
  7 20  1  0  0  0  0
  8  9  1  0  0  0  0
  8 29  1  0  0  0  0
  8 30  1  0  0  0  0
  9 10  1  0  0  0  0
  9 11  1  0  0  0  0
  9 31  1  0  0  0  0
 10 32  1  0  0  0  0
 11 12  1  0  0  0  0
 11 33  1  0  0  0  0
 11 34  1  0  0  0  0
 12 13  1  0  0  0  0
 12 35  1  0  0  0  0
 13 14  1  0  0  0  0
 13 36  1  0  0  0  0
 13 37  1  0  0  0  0
 14 15  1  0  0  0  0
 14 38  1  0  0  0  0
 14 39  1  0  0  0  0
 15 19  1  0  0  0  0
 15 16  1  0  0  0  0
 16 17  2  0  0  0  0
 16 40  1  0  0  0  0
 17 18  1  0  0  0  0
 17 41  1  0  0  0  0
 18 19  2  0  0  0  0
 18 42  1  0  0  0  0
 20 21  1  0  0  0  0
 21 22  2  0  0  0  0
 21 43  1  0  0  0  0
 22 23  1  0  0  0  0
 23 44  1  0  0  0  0
 23 45  1  0  0  0  0
 23 46  1  0  0  0  0
M  END
> <s_m_source_file>
AV-unprocessed.smi

> <i_m_source_file_index>
766

> <i_lp_mmshare_version>
43012

> <i_f3d_flags>
0

> <s_epik_input>
W0NIM11jKFtjSF0xKWMoW0NIM10pW2NIXWMoYzEyKW4oW2NIXW4yKVtDSDJdW0NASF0oW09IXSlbQ0gyXVtOSF1bQ0gyXVtDSDJdbjNbY0hdW2NIXVtjSF1uMw==

> <s_epik_cmdline>
J2VwaWtfcHl0aG9uJywgJy1waCcsICc3LjAnLCAnLXRuJywgJzgnLCAnLW1hJywgJzIwMCcsICctbWV0YWxfYmluZGluZycsICctaW1hZScsICc8aW5maWxlLm1hZT4nLCAnLW9tYWUnLCAnPG91dGZpbGUubWFlPic=

> <r_lp_tautomer_probability>
1

> <r_epik_Ionization_Penalty>
1.68727

> <r_epik_Ionization_Penalty_Charging>
0

> <r_epik_Ionization_Penalty_Neutral>
1.68727

> <r_epik_State_Penalty>
1.78741

> <r_epik_Charging_Adjusted_Penalty>
1.78741

> <i_epik_Tot_Q>
0

> <i_epik_Tot_abs_Q>
0

> <r_epik_Metal_State_Penalty>
1.73664

> <b_epik_Metal_Only>
0

> <s_lp_Force_Field>
OPLS_2005

> <r_lp_Energy>
18.4914

> <b_lp_Chiralities_Consistent>
1

> <s_lp_Variant>
AV-unprocessed.smi:766-6

> <Gold.Version>
5.8.1

> <Gold.Id.Protein>
6NUR|6NUR_protein|mol2

> <Gold.PLP.Fitness>
57.0652

> <Gold.PLP.PLP>
-47.7448

> <Gold.PLP.part.hbond>
-3.0000

> <Gold.PLP.part.metal>
0.0000

> <Gold.PLP.part.buried>
-4.7404

> <Gold.PLP.part.nonpolar>
-40.4073

> <Gold.PLP.part.repulsive>
0.9968

> <Gold.PLP.ligand.clash>
0.0000

> <Gold.PLP.ligand.torsion>
1.4510

> <Gold.PLP.Chemscore.Hbond>
3.0000

> <Gold.PLP.Chemscore.CHOScore>
1.0000

> <Gold.PLP.Chemscore.Metal>
0.0000

> <Gold.Chemscore.Hbonds>
donor molecule, donor type, donor heavy atom, donor atom, acceptor molecule, acceptor atom, score
      L1  H    10    32       P1  7949  1.00
      L1  H    12    35       P1  7948  1.00
      P1  H 10752 10764       L1    10  0.90
      L1  C    16    40       P1 10747  0.53

> <Gold.PLP.Chemscore.Internal.Correction>
0.2223

> <Gold.Rescore>
     Score         DG    S(hbond)    S(metal)    S(lipo)     H(rot)  DE(clash)    DE(int)     intcor
     16.34     -18.23       2.09        0.00     111.44       2.83       0.27       1.62       ----

> <Gold.Chemscore.Fitness>
16.3426

> <Gold.Chemscore.DG>
-18.2304

> <Gold.Chemscore.ZeroCoef>
-5.4800

> <Gold.Chemscore.Hbond>
2.0867

> <Gold.Chemscore.Metal>
0.0000

> <Gold.Chemscore.Lipo>
111.4365

> <Gold.Chemscore.Internal_Hbond>
0.0000

> <Gold.Chemscore.DEClash>
0.2726

> <Gold.Chemscore.DEInternal>
1.6152

> <Gold.Chemscore.Rot>
2.8348

> <Gold.Chemscore.Internal.Correction>
   9.000000E+99

> <Gold.Chemscore.Hbonds>
donor molecule, donor type, donor heavy atom, donor atom, acceptor molecule, acceptor atom, score
      L1  H    10    32       P1  7949  0.66
      L1  H    12    35       P1  7948  0.45
      P1  H 10752 10764       L1    10  0.18

> <Gold.Chemscore.Hbond.Weighted>
-6.9694

> <Gold.Chemscore.Metal.Weighted>
-0.0000

> <Gold.Chemscore.Lipo.Weighted>
-13.0381

> <Gold.Chemscore.Internal_Hbond.Weighted>
0.0000

> <Gold.Chemscore.DEClash.Weighted>
0.2726

> <Gold.Chemscore.DEInternal.Weighted>
1.6152

> <Gold.Chemscore.Rot.Weighted>
7.2572

> <Gold.Chemscore.Internal.Correction.Weighted>
   9.000000E+99

> <Gold.Protein.RotatedTorsions>
[ 6907 6896 6895 6894 ] final    0.10 input  -60.11 | X-H torsion
[ 7974 7965 7964 7962 ] final  166.50 input  175.53 | X-H torsion
[ 8008 7997 7996 7995 ] final  109.23 input   59.86 | X-H torsion
[ 10167 10162 10161 10158 ] final -133.04 input  -65.29 | X-H torsion
[ 10718 10713 10712 10709 ] final  156.37 input   66.30 | X-H torsion
[ 10763 10752 10751 10750 ] final  -84.66 input  -60.55 | X-H torsion
[ 11005 11000 10999 10996 ] final   -8.27 input  -57.11 | X-H torsion

> <Gold.Protein.ActiveResidues>
 VAL166  LYS551  ARG553  GLY616  TRP617  ASP618  TYR619  PRO620  LYS621  CYS622 
 ASP623  PHE694  ASN695  SER759  ASP760  ASP761  ALA762  ILE779  LEU786  VAL792 
 PHE793  MET794  SER795  GLU796  ALA797  LYS798  CYS799  TRP800  GLU811  SER814 

> <Gold.Protein.RotatedAtoms>
  151.5710  135.1062  159.9994 H   0  0  0  0  0  0  0  0  0  0  0  0  # atno 6907 bound_to 6896
  152.4401  133.7428  159.6661 H   0  0  0  0  0  0  0  0  0  0  0  0  # atno 6908 bound_to 6896
  150.8305  133.8031  159.3124 H   0  0  0  0  0  0  0  0  0  0  0  0  # atno 6909 bound_to 6896
  144.7460  139.8624  143.6382 H   0  0  0  0  0  0  0  0  0  0  0  0  # atno 7974 bound_to 7965
  156.1963  140.3061  155.9435 H   0  0  0  0  0  0  0  0  0  0  0  0  # atno 8008 bound_to 7997
  155.3057  140.0448  157.3049 H   0  0  0  0  0  0  0  0  0  0  0  0  # atno 8009 bound_to 7997
  154.5514  140.2292  155.8487 H   0  0  0  0  0  0  0  0  0  0  0  0  # atno 8010 bound_to 7997
  139.9024  143.6592  152.2592 H   0  0  0  0  0  0  0  0  0  0  0  0  # atno 10167 bound_to 10162
  157.2059  131.0686  151.1998 H   0  0  0  0  0  0  0  0  0  0  0  0  # atno 10718 bound_to 10713
  154.6021  135.5512  153.7385 H   0  0  0  0  0  0  0  0  0  0  0  0  # atno 10763 bound_to 10752
  153.0159  135.6369  154.1699 H   0  0  0  0  0  0  0  0  0  0  0  0  # atno 10764 bound_to 10752
  154.1639  135.2896  155.3081 H   0  0  0  0  0  0  0  0  0  0  0  0  # atno 10765 bound_to 10752
  140.7217  133.8823  155.8826 H   0  0  0  0  0  0  0  0  0  0  0  0  # atno 11005 bound_to 11000
  146.1338  139.4380  143.0152 LP  0  0  0  0  0  0  0  0  0  0  0  0  # atno 17320 bound_to 7965
  145.7122  141.0102  143.1447 LP  0  0  0  0  0  0  0  0  0  0  0  0  # atno 17321 bound_to 7965
  139.7014  144.7634  151.1267 LP  0  0  0  0  0  0  0  0  0  0  0  0  # atno 17342 bound_to 10162
  140.7704  143.5453  150.9266 LP  0  0  0  0  0  0  0  0  0  0  0  0  # atno 17343 bound_to 10162
  157.3721  130.7186  149.6572 LP  0  0  0  0  0  0  0  0  0  0  0  0  # atno 17370 bound_to 10713
  155.9695  130.4196  150.4382 LP  0  0  0  0  0  0  0  0  0  0  0  0  # atno 17371 bound_to 10713
  140.9997  134.1166  157.4329 LP  0  0  0  0  0  0  0  0  0  0  0  0  # atno 17394 bound_to 11000
  139.8846  135.0065  156.6383 LP  0  0  0  0  0  0  0  0  0  0  0  0  # atno 17395 bound_to 11000

$$$$
