AV-unprocessed.smi:663|AV-procd|sdf|3247|dock8
  -GOLD-   22720 0193D 1   1.00000     0.00000
 Structure written by MMmdl.
 30 31  0  0  0  0  0  0  0  0  1 V2000
  150.4732  136.8603  154.1667 N   0  0  0  0  0  0  0  0  0  0  0  0
  150.8477  138.0255  154.7008 C   0  0  0  0  0  0  0  0  0  0  0  0
  151.6832  138.0913  155.6005 O   0  0  0  0  0  0  0  0  0  0  0  0
  150.1690  139.2917  154.1597 C   0  0  0  0  0  0  0  0  0  0  0  0
  148.6240  139.2658  154.2328 C   0  0  2  0  0  0  0  0  0  0  0  0
  148.0949  138.1336  153.4731 N   0  0  0  0  0  0  0  0  0  0  0  0
  146.8168  137.7291  153.4649 C   0  0  0  0  0  0  0  0  0  0  0  0
  145.9217  138.2895  154.0972 O   0  0  0  0  0  0  0  0  0  0  0  0
  146.6577  136.6460  152.6875 N   0  0  0  0  0  0  0  0  0  0  0  0
  145.4618  135.9351  152.4175 C   0  0  0  0  0  0  0  0  0  0  0  0
  144.4599  136.0324  153.2994 N   0  0  0  0  0  0  0  0  0  0  0  0
  143.3524  135.2873  152.9136 N   0  0  0  0  0  0  0  0  0  0  0  0
  143.5635  134.6553  151.7551 C   0  0  0  0  0  0  0  0  0  0  0  0
  145.1361  134.9071  151.0190 S   0  0  0  0  0  0  0  0  0  0  0  0
  148.0489  140.5973  153.7778 C   0  0  0  0  0  0  0  0  0  0  0  0
  148.0540  141.7993  154.6928 C   0  0  0  0  0  0  0  0  0  0  0  0
  146.7486  141.1269  154.3352 C   0  0  0  0  0  0  0  0  0  0  0  0
  150.8948  136.0023  154.4921 H   0  0  0  0  0  0  0  0  0  0  0  0
  149.7725  136.8388  153.4400 H   0  0  0  0  0  0  0  0  0  0  0  0
  150.5434  140.1533  154.7148 H   0  0  0  0  0  0  0  0  0  0  0  0
  150.4900  139.4396  153.1277 H   0  0  0  0  0  0  0  0  0  0  0  0
  148.3519  139.1328  155.2823 H   0  0  0  0  0  0  0  0  0  0  0  0
  148.7607  137.6070  152.9263 H   0  0  0  0  0  0  0  0  0  0  0  0
  147.4866  136.2876  152.2366 H   0  0  0  0  0  0  0  0  0  0  0  0
  142.7870  134.0364  151.3311 H   0  0  0  0  0  0  0  0  0  0  0  0
  148.2353  140.8123  152.7271 H   0  0  0  0  0  0  0  0  0  0  0  0
  148.4255  141.6640  155.7067 H   0  0  0  0  0  0  0  0  0  0  0  0
  148.2597  142.7698  154.2460 H   0  0  0  0  0  0  0  0  0  0  0  0
  146.0843  141.6470  153.6482 H   0  0  0  0  0  0  0  0  0  0  0  0
  146.2543  140.5499  155.1141 H   0  0  0  0  0  0  0  0  0  0  0  0
  1  2  1  0  0  0  0
  1 18  1  0  0  0  0
  1 19  1  0  0  0  0
  2  3  2  0  0  0  0
  2  4  1  0  0  0  0
  4  5  1  0  0  0  0
  4 20  1  0  0  0  0
  4 21  1  0  0  0  0
  5  6  1  0  0  0  0
  5 15  1  0  0  0  0
  5 22  1  0  0  0  0
  6  7  1  0  0  0  0
  6 23  1  0  0  0  0
  7  8  2  0  0  0  0
  7  9  1  0  0  0  0
  9 10  1  0  0  0  0
  9 24  1  0  0  0  0
 10 14  1  0  0  0  0
 10 11  2  0  0  0  0
 11 12  1  0  0  0  0
 12 13  2  0  0  0  0
 13 14  1  0  0  0  0
 13 25  1  0  0  0  0
 15 17  1  0  0  0  0
 15 16  1  0  0  0  0
 15 26  1  0  0  0  0
 16 17  1  0  0  0  0
 16 27  1  0  0  0  0
 16 28  1  0  0  0  0
 17 29  1  0  0  0  0
 17 30  1  0  0  0  0
M  END
> <s_m_source_file>
AV-unprocessed.smi

> <i_m_source_file_index>
663

> <i_lp_mmshare_version>
43012

> <i_f3d_flags>
0

> <s_epik_input>
W05IMl1DKD1PKVtDSDJdW0NAQEhdKFtDSF0xW0NIMl1bQ0gyXTEpW05IXUMoPU8pW05IXWMybm5bY0hdczI=

> <s_epik_cmdline>
J2VwaWtfcHl0aG9uJywgJy1waCcsICc3LjAnLCAnLXRuJywgJzgnLCAnLW1hJywgJzIwMCcsICctbWV0YWxfYmluZGluZycsICctaW1hZScsICc8aW5maWxlLm1hZT4nLCAnLW9tYWUnLCAnPG91dGZpbGUubWFlPic=

> <r_lp_tautomer_probability>
1

> <r_epik_Ionization_Penalty>
0.000388224

> <r_epik_Ionization_Penalty_Charging>
0

> <r_epik_Ionization_Penalty_Neutral>
0.000388224

> <r_epik_State_Penalty>
-0

> <r_epik_Charging_Adjusted_Penalty>
0

> <i_epik_Tot_Q>
0

> <i_epik_Tot_abs_Q>
0

> <r_epik_Metal_State_Penalty>
0.191941

> <b_epik_Metal_Only>
0

> <s_lp_Force_Field>
OPLS_2005

> <r_lp_Energy>
6.58878

> <b_lp_Chiralities_Consistent>
1

> <s_lp_Variant>
AV-unprocessed.smi:663-1

> <Gold.Version>
5.8.1

> <Gold.Id.Protein>
6NUR|6NUR_protein|mol2

> <Gold.PLP.Fitness>
34.7094

> <Gold.PLP.PLP>
-23.2139

> <Gold.PLP.part.hbond>
-3.9601

> <Gold.PLP.part.metal>
0.0000

> <Gold.PLP.part.buried>
-0.1997

> <Gold.PLP.part.nonpolar>
-19.6026

> <Gold.PLP.part.repulsive>
0.4714

> <Gold.PLP.ligand.clash>
0.0000

> <Gold.PLP.ligand.torsion>
0.7159

> <Gold.PLP.Chemscore.Hbond>
2.9440

> <Gold.PLP.Chemscore.CHOScore>
1.0000

> <Gold.PLP.Chemscore.Metal>
0.0000

> <Gold.Chemscore.Hbonds>
donor molecule, donor type, donor heavy atom, donor atom, acceptor molecule, acceptor atom, score
      L1  H     1    19       P1  7948  1.00
      L1  H     6    23       P1  7948  0.91
      L1  H     9    24       P1  7948  0.93
      L1  C    13    25       P1 10186  0.99

> <Gold.PLP.Chemscore.Internal.Correction>
1.0953

> <Gold.Rescore>
     Score         DG    S(hbond)    S(metal)    S(lipo)     H(rot)  DE(clash)    DE(int)     intcor
      9.62     -13.34       2.74        0.00      44.23       2.52       0.16       3.56       ----

> <Gold.Chemscore.Fitness>
9.6209

> <Gold.Chemscore.DG>
-13.3429

> <Gold.Chemscore.ZeroCoef>
-5.4800

> <Gold.Chemscore.Hbond>
2.7376

> <Gold.Chemscore.Metal>
0.0000

> <Gold.Chemscore.Lipo>
44.2314

> <Gold.Chemscore.Internal_Hbond>
0.0000

> <Gold.Chemscore.DEClash>
0.1629

> <Gold.Chemscore.DEInternal>
3.5591

> <Gold.Chemscore.Rot>
2.5218

> <Gold.Chemscore.Internal.Correction>
   9.000000E+99

> <Gold.Chemscore.Hbonds>
donor molecule, donor type, donor heavy atom, donor atom, acceptor molecule, acceptor atom, score
      L1  H     1    19       P1  7948  0.44
      L1  H     6    23       P1  7948  0.90
      L1  H     9    24       P1  7948  0.88

> <Gold.Chemscore.Hbond.Weighted>
-9.1437

> <Gold.Chemscore.Metal.Weighted>
-0.0000

> <Gold.Chemscore.Lipo.Weighted>
-5.1751

> <Gold.Chemscore.Internal_Hbond.Weighted>
0.0000

> <Gold.Chemscore.DEClash.Weighted>
0.1629

> <Gold.Chemscore.DEInternal.Weighted>
3.5591

> <Gold.Chemscore.Rot.Weighted>
6.4559

> <Gold.Chemscore.Internal.Correction.Weighted>
   9.000000E+99

> <Gold.Protein.RotatedTorsions>
[ 6907 6896 6895 6894 ] final -158.95 input  -60.11 | X-H torsion
[ 7974 7965 7964 7962 ] final  -83.94 input  175.53 | X-H torsion
[ 8008 7997 7996 7995 ] final  -67.57 input   59.86 | X-H torsion
[ 10167 10162 10161 10158 ] final  110.74 input  -65.29 | X-H torsion
[ 10718 10713 10712 10709 ] final  -54.71 input   66.30 | X-H torsion
[ 10763 10752 10751 10750 ] final   51.78 input  -60.55 | X-H torsion
[ 11005 11000 10999 10996 ] final   -5.30 input  -57.11 | X-H torsion

> <Gold.Protein.ActiveResidues>
 VAL166  LYS551  ARG553  GLY616  TRP617  ASP618  TYR619  PRO620  LYS621  CYS622 
 ASP623  PHE694  ASN695  SER759  ASP760  ASP761  ALA762  ILE779  LEU786  VAL792 
 PHE793  MET794  SER795  GLU796  ALA797  LYS798  CYS799  TRP800  GLU811  SER814 

> <Gold.Protein.RotatedAtoms>
  151.3260  133.4020  159.2658 H   0  0  0  0  0  0  0  0  0  0  0  0  # atno 6907 bound_to 6896
  150.9995  134.9311  159.7956 H   0  0  0  0  0  0  0  0  0  0  0  0  # atno 6908 bound_to 6896
  152.5271  134.3225  159.9206 H   0  0  0  0  0  0  0  0  0  0  0  0  # atno 6909 bound_to 6896
  145.5133  140.9538  143.1695 H   0  0  0  0  0  0  0  0  0  0  0  0  # atno 7974 bound_to 7965
  154.4809  140.0890  156.7375 H   0  0  0  0  0  0  0  0  0  0  0  0  # atno 8008 bound_to 7997
  155.4473  140.3456  155.4278 H   0  0  0  0  0  0  0  0  0  0  0  0  # atno 8009 bound_to 7997
  156.1189  140.1468  156.9220 H   0  0  0  0  0  0  0  0  0  0  0  0  # atno 8010 bound_to 7997
  139.6665  144.7127  151.1767 H   0  0  0  0  0  0  0  0  0  0  0  0  # atno 10167 bound_to 10162
  156.1428  130.4154  150.0074 H   0  0  0  0  0  0  0  0  0  0  0  0  # atno 10718 bound_to 10713
  152.9786  135.5834  154.4472 H   0  0  0  0  0  0  0  0  0  0  0  0  # atno 10763 bound_to 10752
  154.4065  135.2769  155.2065 H   0  0  0  0  0  0  0  0  0  0  0  0  # atno 10764 bound_to 10752
  154.3874  135.6133  153.5878 H   0  0  0  0  0  0  0  0  0  0  0  0  # atno 10765 bound_to 10752
  140.6896  133.9082  155.8609 H   0  0  0  0  0  0  0  0  0  0  0  0  # atno 11005 bound_to 11000
  144.7716  139.6723  143.7192 LP  0  0  0  0  0  0  0  0  0  0  0  0  # atno 17320 bound_to 7965
  146.2153  139.5538  142.9654 LP  0  0  0  0  0  0  0  0  0  0  0  0  # atno 17321 bound_to 7965
  140.7601  143.5911  150.8795 LP  0  0  0  0  0  0  0  0  0  0  0  0  # atno 17342 bound_to 10162
  139.9573  143.6204  152.3012 LP  0  0  0  0  0  0  0  0  0  0  0  0  # atno 17343 bound_to 10162
  156.7955  130.9271  151.3646 LP  0  0  0  0  0  0  0  0  0  0  0  0  # atno 17370 bound_to 10713
  157.6591  130.8950  149.9791 LP  0  0  0  0  0  0  0  0  0  0  0  0  # atno 17371 bound_to 10713
  141.0252  134.0834  157.4076 LP  0  0  0  0  0  0  0  0  0  0  0  0  # atno 17394 bound_to 11000
  139.8927  135.0126  156.6861 LP  0  0  0  0  0  0  0  0  0  0  0  0  # atno 17395 bound_to 11000

$$$$
