AV-unprocessed.smi:25|AV-procd|sdf|181|dock8
  -GOLD-   2262015443D 1   1.00000     0.00000
 Structure written by MMmdl.
 47 50  0  0  0  0  0  0  0  0  1 V2000
  151.1758  140.1940  155.1874 C   0  0  0  0  0  0  0  0  0  0  0  0
  150.4334  140.9057  156.3359 C   0  0  2  0  0  0  0  0  0  0  0  0
  150.5445  142.4422  156.2133 C   0  0  0  0  0  0  0  0  0  0  0  0
  151.3454  142.8232  157.4199 C   0  0  0  0  0  0  0  0  0  0  0  0
  151.8171  144.1116  157.7253 C   0  0  0  0  0  0  0  0  0  0  0  0
  152.5873  144.2823  158.8926 C   0  0  0  0  0  0  0  0  0  0  0  0
  152.8782  143.1741  159.7181 C   0  0  0  0  0  0  0  0  0  0  0  0
  152.3967  141.8864  159.3948 C   0  0  0  0  0  0  0  0  0  0  0  0
  151.6056  141.7206  158.2323 C   0  0  0  0  0  0  0  0  0  0  0  0
  150.9998  140.5610  157.6604 N   0  0  0  0  0  0  0  0  0  0  0  0
  150.7656  139.3392  158.2146 C   0  0  0  0  0  0  0  0  0  0  0  0
  151.1947  139.0597  159.3369 O   0  0  0  0  0  0  0  0  0  0  0  0
  149.9841  138.2509  157.4528 C   0  0  0  0  0  0  0  0  0  0  0  0
  148.8186  137.7208  158.1991 N   0  0  0  0  0  0  0  0  0  0  0  0
  147.5170  137.9822  157.7033 C   0  0  0  0  0  0  0  0  0  0  0  0
  147.3421  138.6511  156.6836 O   0  0  0  0  0  0  0  0  0  0  0  0
  146.4233  137.4069  158.4760 C   0  0  0  0  0  0  0  0  0  0  0  0
  145.1580  137.5491  158.0465 F   0  0  0  0  0  0  0  0  0  0  0  0
  146.6615  136.7163  159.6095 C   0  0  0  0  0  0  0  0  0  0  0  0
  147.9319  136.5300  160.1258 N   0  0  0  0  0  0  0  0  0  0  0  0
  148.1750  135.6764  161.3541 C   0  0  1  0  0  0  0  0  0  0  0  0
  147.4692  136.1826  162.6244 C   0  0  0  0  0  0  0  0  0  0  0  0
  146.3163  135.2078  162.7646 C   0  0  0  0  0  0  0  0  0  0  0  0
  146.9159  133.9379  162.1743 C   0  0  0  0  0  0  0  0  0  0  0  0
  147.6935  134.3955  161.0756 O   0  0  0  0  0  0  0  0  0  0  0  0
  149.0482  136.9907  159.3908 C   0  0  0  0  0  0  0  0  0  0  0  0
  150.1966  136.7711  159.7824 O   0  0  0  0  0  0  0  0  0  0  0  0
  150.7808  140.5036  154.2196 H   0  0  0  0  0  0  0  0  0  0  0  0
  151.0740  139.1106  155.2439 H   0  0  0  0  0  0  0  0  0  0  0  0
  152.2408  140.4280  155.2014 H   0  0  0  0  0  0  0  0  0  0  0  0
  149.3771  140.6319  156.3001 H   0  0  0  0  0  0  0  0  0  0  0  0
  151.0459  142.7621  155.2990 H   0  0  0  0  0  0  0  0  0  0  0  0
  149.5648  142.9190  156.2567 H   0  0  0  0  0  0  0  0  0  0  0  0
  151.6008  144.9491  157.0784 H   0  0  0  0  0  0  0  0  0  0  0  0
  152.9650  145.2605  159.1510 H   0  0  0  0  0  0  0  0  0  0  0  0
  153.4808  143.3120  160.6036 H   0  0  0  0  0  0  0  0  0  0  0  0
  152.6703  141.0789  160.0493 H   0  0  0  0  0  0  0  0  0  0  0  0
  149.6551  138.6679  156.5011 H   0  0  0  0  0  0  0  0  0  0  0  0
  150.6627  137.4353  157.2016 H   0  0  0  0  0  0  0  0  0  0  0  0
  145.8085  136.2954  160.1168 H   0  0  0  0  0  0  0  0  0  0  0  0
  149.2553  135.6625  161.5056 H   0  0  0  0  0  0  0  0  0  0  0  0
  148.1562  136.0623  163.4630 H   0  0  0  0  0  0  0  0  0  0  0  0
  147.1831  137.2330  162.5756 H   0  0  0  0  0  0  0  0  0  0  0  0
  145.9862  135.0822  163.7960 H   0  0  0  0  0  0  0  0  0  0  0  0
  145.4612  135.5304  162.1706 H   0  0  0  0  0  0  0  0  0  0  0  0
  147.5719  133.4509  162.8976 H   0  0  0  0  0  0  0  0  0  0  0  0
  146.1588  133.2194  161.8595 H   0  0  0  0  0  0  0  0  0  0  0  0
  1  2  1  0  0  0  0
  1 28  1  0  0  0  0
  1 29  1  0  0  0  0
  1 30  1  0  0  0  0
  2 10  1  0  0  0  0
  2  3  1  0  0  0  0
  2 31  1  0  0  0  0
  3  4  1  0  0  0  0
  3 32  1  0  0  0  0
  3 33  1  0  0  0  0
  4  9  2  0  0  0  0
  4  5  1  0  0  0  0
  5  6  2  0  0  0  0
  5 34  1  0  0  0  0
  6  7  1  0  0  0  0
  6 35  1  0  0  0  0
  7  8  2  0  0  0  0
  7 36  1  0  0  0  0
  8  9  1  0  0  0  0
  8 37  1  0  0  0  0
  9 10  1  0  0  0  0
 10 11  1  0  0  0  0
 11 12  2  0  0  0  0
 11 13  1  0  0  0  0
 13 14  1  0  0  0  0
 13 38  1  0  0  0  0
 13 39  1  0  0  0  0
 14 26  1  0  0  0  0
 14 15  1  0  0  0  0
 15 16  2  0  0  0  0
 15 17  1  0  0  0  0
 17 18  1  0  0  0  0
 17 19  2  0  0  0  0
 19 20  1  0  0  0  0
 19 40  1  0  0  0  0
 20 21  1  0  0  0  0
 20 26  1  0  0  0  0
 21 25  1  0  0  0  0
 21 22  1  0  0  0  0
 21 41  1  0  0  0  0
 22 23  1  0  0  0  0
 22 42  1  0  0  0  0
 22 43  1  0  0  0  0
 23 24  1  0  0  0  0
 23 44  1  0  0  0  0
 23 45  1  0  0  0  0
 24 25  1  0  0  0  0
 24 46  1  0  0  0  0
 24 47  1  0  0  0  0
 26 27  2  0  0  0  0
M  END
> <s_m_source_file>
AV-unprocessed.smi

> <i_m_source_file_index>
25

> <i_lp_mmshare_version>
43012

> <i_f3d_flags>
0

> <s_epik_input>
W2NIXTFbY0hdW2NIXVtjSF1jKGMxMilOKFtDQEhdKFtDSDNdKVtDSDJdMilDKD1PKVtDSDJdbjNjKD1PKWMoRilbY0hdbihjMz1PKVtDQEBIXTRbQ0gyXVtDSDJdW0NIMl1PNA==

> <s_epik_cmdline>
J2VwaWtfcHl0aG9uJywgJy1waCcsICc3LjAnLCAnLXRuJywgJzgnLCAnLW1hJywgJzIwMCcsICctbWV0YWxfYmluZGluZycsICctaW1hZScsICc8aW5maWxlLm1hZT4nLCAnLW9tYWUnLCAnPG91dGZpbGUubWFlPic=

> <r_lp_tautomer_probability>
1

> <r_epik_Ionization_Penalty>
1.67943e-06

> <r_epik_Ionization_Penalty_Charging>
3.79603e-09

> <r_epik_Ionization_Penalty_Neutral>
1.67563e-06

> <r_epik_State_Penalty>
-0

> <r_epik_Charging_Adjusted_Penalty>
3.79603e-09

> <i_epik_Tot_Q>
0

> <i_epik_Tot_abs_Q>
0

> <r_epik_Metal_State_Penalty>
-0

> <b_epik_Metal_Only>
0

> <s_epik_Chemistry_Notes>
This compound contains an acetal/aminal-like group ( X-CH(R)-Y where X, Y are N, S, or O) that may be acid/base labile, releasing an aldehyde.

> <s_lp_Force_Field>
OPLS_2005

> <r_lp_Energy>
54.5982

> <b_lp_Chiralities_Consistent>
1

> <s_lp_Variant>
AV-unprocessed.smi:25-3

> <Gold.Version>
5.8.1

> <Gold.Id.Protein>
6NUR|6NUR_protein|mol2

> <Gold.PLP.Fitness>
50.8463

> <Gold.PLP.PLP>
-47.9976

> <Gold.PLP.part.hbond>
-1.7195

> <Gold.PLP.part.metal>
0.0000

> <Gold.PLP.part.buried>
-1.3892

> <Gold.PLP.part.nonpolar>
-45.5753

> <Gold.PLP.part.repulsive>
0.0000

> <Gold.PLP.ligand.clash>
0.0000

> <Gold.PLP.ligand.torsion>
0.1265

> <Gold.PLP.Chemscore.Hbond>
1.0000

> <Gold.PLP.Chemscore.CHOScore>
0.0000

> <Gold.PLP.Chemscore.Metal>
0.0000

> <Gold.Chemscore.Hbonds>
donor molecule, donor type, donor heavy atom, donor atom, acceptor molecule, acceptor atom, score
      P1  H  6896  6907       L1    27  1.00

> <Gold.PLP.Chemscore.Internal.Correction>
0.1018

> <Gold.Rescore>
     Score         DG    S(hbond)    S(metal)    S(lipo)     H(rot)  DE(clash)    DE(int)     intcor
     14.96     -18.47       1.00        0.00     116.38       1.55       0.53       2.98       ----

> <Gold.Chemscore.Fitness>
14.9604

> <Gold.Chemscore.DG>
-18.4708

> <Gold.Chemscore.ZeroCoef>
-5.4800

> <Gold.Chemscore.Hbond>
1.0000

> <Gold.Chemscore.Metal>
0.0000

> <Gold.Chemscore.Lipo>
116.3755

> <Gold.Chemscore.Internal_Hbond>
0.0000

> <Gold.Chemscore.DEClash>
0.5307

> <Gold.Chemscore.DEInternal>
2.9797

> <Gold.Chemscore.Rot>
1.5489

> <Gold.Chemscore.Internal.Correction>
   9.000000E+99

> <Gold.Chemscore.Hbonds>
donor molecule, donor type, donor heavy atom, donor atom, acceptor molecule, acceptor atom, score
      P1  H  6896  6907       L1    27  0.95

> <Gold.Chemscore.Hbond.Weighted>
-3.3400

> <Gold.Chemscore.Metal.Weighted>
-0.0000

> <Gold.Chemscore.Lipo.Weighted>
-13.6159

> <Gold.Chemscore.Internal_Hbond.Weighted>
0.0000

> <Gold.Chemscore.DEClash.Weighted>
0.5307

> <Gold.Chemscore.DEInternal.Weighted>
2.9797

> <Gold.Chemscore.Rot.Weighted>
3.9651

> <Gold.Chemscore.Internal.Correction.Weighted>
   9.000000E+99

> <Gold.Protein.RotatedTorsions>
[ 6907 6896 6895 6894 ] final  -45.10 input  -60.11 | X-H torsion
[ 7974 7965 7964 7962 ] final   55.54 input  175.53 | X-H torsion
[ 8008 7997 7996 7995 ] final    1.07 input   59.86 | X-H torsion
[ 10167 10162 10161 10158 ] final   15.30 input  -65.29 | X-H torsion
[ 10718 10713 10712 10709 ] final  135.17 input   66.30 | X-H torsion
[ 10763 10752 10751 10750 ] final -115.78 input  -60.55 | X-H torsion
[ 11005 11000 10999 10996 ] final  164.09 input  -57.11 | X-H torsion

> <Gold.Protein.ActiveResidues>
 VAL166  LYS551  ARG553  GLY616  TRP617  ASP618  TYR619  PRO620  LYS621  CYS622 
 ASP623  PHE694  ASN695  SER759  ASP760  ASP761  ALA762  ILE779  LEU786  VAL792 
 PHE793  MET794  SER795  GLU796  ALA797  LYS798  CYS799  TRP800  GLU811  SER814 

> <Gold.Protein.RotatedAtoms>
  150.9256  134.8672  159.7517 H   0  0  0  0  0  0  0  0  0  0  0  0  # atno 6907 bound_to 6896
  152.5013  134.4155  159.9473 H   0  0  0  0  0  0  0  0  0  0  0  0  # atno 6908 bound_to 6896
  151.4185  133.3666  159.2788 H   0  0  0  0  0  0  0  0  0  0  0  0  # atno 6909 bound_to 6896
  145.9493  139.3957  143.0316 H   0  0  0  0  0  0  0  0  0  0  0  0  # atno 7974 bound_to 7965
  154.6755  140.2621  155.6963 H   0  0  0  0  0  0  0  0  0  0  0  0  # atno 8008 bound_to 7997
  156.2676  140.2821  156.1202 H   0  0  0  0  0  0  0  0  0  0  0  0  # atno 8009 bound_to 7997
  155.1107  140.0375  157.2713 H   0  0  0  0  0  0  0  0  0  0  0  0  # atno 8010 bound_to 7997
  140.5876  143.8858  150.6845 H   0  0  0  0  0  0  0  0  0  0  0  0  # atno 10167 bound_to 10162
  157.4598  131.1072  150.9934 H   0  0  0  0  0  0  0  0  0  0  0  0  # atno 10718 bound_to 10713
  154.8494  135.4369  154.1718 H   0  0  0  0  0  0  0  0  0  0  0  0  # atno 10763 bound_to 10752
  153.2829  135.6955  153.7373 H   0  0  0  0  0  0  0  0  0  0  0  0  # atno 10764 bound_to 10752
  153.6570  135.3441  155.3091 H   0  0  0  0  0  0  0  0  0  0  0  0  # atno 10765 bound_to 10752
  140.2424  134.8041  157.3423 H   0  0  0  0  0  0  0  0  0  0  0  0  # atno 11005 bound_to 11000
  145.8193  140.9687  143.0907 LP  0  0  0  0  0  0  0  0  0  0  0  0  # atno 17320 bound_to 7965
  144.6793  140.0021  143.7484 LP  0  0  0  0  0  0  0  0  0  0  0  0  # atno 17321 bound_to 7965
  140.2373  143.3690  152.1516 LP  0  0  0  0  0  0  0  0  0  0  0  0  # atno 17342 bound_to 10162
  139.5207  144.7037  151.5418 LP  0  0  0  0  0  0  0  0  0  0  0  0  # atno 17343 bound_to 10162
  157.0735  130.5874  149.5407 LP  0  0  0  0  0  0  0  0  0  0  0  0  # atno 17370 bound_to 10713
  156.0023  130.5105  150.7708 LP  0  0  0  0  0  0  0  0  0  0  0  0  # atno 17371 bound_to 10713
  140.1640  134.4692  155.7875 LP  0  0  0  0  0  0  0  0  0  0  0  0  # atno 17394 bound_to 11000
  141.2209  133.6913  156.7593 LP  0  0  0  0  0  0  0  0  0  0  0  0  # atno 17395 bound_to 11000

$$$$
