AV-unprocessed.smi:1327|AV-procd|sdf|5478|dock7
  -GOLD-   22720 5 53D 1   1.00000     0.00000
 Structure written by MMmdl.
 39 40  0  0  0  0  0  0  0  0  2 V2000
  151.1981  139.6008  154.5245 O   0  0  0  0  0  0  0  0  0  0  0  0
  152.1063  138.8528  155.4089 S   0  0  0  0  0  0  0  0  0  0  0  0
  152.9310  137.7939  154.8027 O   0  0  0  0  0  0  0  0  0  0  0  0
  152.9182  139.8164  156.4318 N   0  5  0  0  0  0  0  0  0  0  0  0
  152.2204  140.9008  157.1034 C   0  0  0  0  0  0  0  0  0  0  0  0
  152.7629  141.1072  158.5392 C   0  0  0  0  0  0  0  0  0  0  0  0
  152.5089  142.4822  159.1530 C   0  0  0  0  0  0  0  0  0  0  0  0
  152.1599  143.5859  158.3411 C   0  0  0  0  0  0  0  0  0  0  0  0
  151.9538  144.8360  158.9554 C   0  0  0  0  0  0  0  0  0  0  0  0
  152.0927  144.9376  160.3528 C   0  0  0  0  0  0  0  0  0  0  0  0
  152.4305  143.7780  161.0774 C   0  0  0  0  0  0  0  0  0  0  0  0
  152.6284  142.5747  160.4998 N   0  0  0  0  0  0  0  0  0  0  0  0
  151.1023  138.0739  156.5994 N   0  0  0  0  0  0  0  0  0  0  0  0
  151.7882  137.4195  157.7368 C   0  0  0  0  0  0  0  0  0  0  0  0
  150.8774  136.6532  158.7163 C   0  0  0  0  0  0  0  0  0  0  0  0
  150.4845  135.2509  158.2255 C   0  0  0  0  0  0  0  0  0  0  0  0
  149.3736  135.2526  157.1703 C   0  0  0  0  0  0  0  0  0  0  0  0
  149.7107  136.0765  155.9214 C   0  0  0  0  0  0  0  0  0  0  0  0
  149.7636  137.5910  156.1935 C   0  0  0  0  0  0  0  0  0  0  0  0
  152.2902  141.8414  156.5553 H   0  0  0  0  0  0  0  0  0  0  0  0
  151.1536  140.6863  157.1700 H   0  0  0  0  0  0  0  0  0  0  0  0
  152.3160  140.3600  159.1956 H   0  0  0  0  0  0  0  0  0  0  0  0
  153.8353  140.9053  158.5544 H   0  0  0  0  0  0  0  0  0  0  0  0
  152.0686  143.4785  157.2703 H   0  0  0  0  0  0  0  0  0  0  0  0
  151.6967  145.7024  158.3645 H   0  0  0  0  0  0  0  0  0  0  0  0
  151.9453  145.8808  160.8570 H   0  0  0  0  0  0  0  0  0  0  0  0
  152.5462  143.8172  162.1503 H   0  0  0  0  0  0  0  0  0  0  0  0
  152.5612  136.7523  157.3535 H   0  0  0  0  0  0  0  0  0  0  0  0
  152.3148  138.1960  158.2918 H   0  0  0  0  0  0  0  0  0  0  0  0
  151.4384  136.5235  159.6422 H   0  0  0  0  0  0  0  0  0  0  0  0
  150.0008  137.2404  158.9919 H   0  0  0  0  0  0  0  0  0  0  0  0
  151.3632  134.7316  157.8405 H   0  0  0  0  0  0  0  0  0  0  0  0
  150.1420  134.6641  159.0785 H   0  0  0  0  0  0  0  0  0  0  0  0
  149.1754  134.2229  156.8716 H   0  0  0  0  0  0  0  0  0  0  0  0
  148.4467  135.6193  157.6125 H   0  0  0  0  0  0  0  0  0  0  0  0
  150.6327  135.7228  155.4601 H   0  0  0  0  0  0  0  0  0  0  0  0
  148.9274  135.8948  155.1852 H   0  0  0  0  0  0  0  0  0  0  0  0
  149.0290  137.8778  156.9458 H   0  0  0  0  0  0  0  0  0  0  0  0
  149.4573  138.1147  155.2896 H   0  0  0  0  0  0  0  0  0  0  0  0
  1  2  2  0  0  0  0
  2  3  2  0  0  0  0
  2  4  1  0  0  0  0
  2 13  1  0  0  0  0
  4  5  1  0  0  0  0
  5  6  1  0  0  0  0
  5 20  1  0  0  0  0
  5 21  1  0  0  0  0
  6  7  1  0  0  0  0
  6 22  1  0  0  0  0
  6 23  1  0  0  0  0
  7 12  1  0  0  0  0
  7  8  2  0  0  0  0
  8  9  1  0  0  0  0
  8 24  1  0  0  0  0
  9 10  2  0  0  0  0
  9 25  1  0  0  0  0
 10 11  1  0  0  0  0
 10 26  1  0  0  0  0
 11 12  2  0  0  0  0
 11 27  1  0  0  0  0
 13 19  1  0  0  0  0
 13 14  1  0  0  0  0
 14 15  1  0  0  0  0
 14 28  1  0  0  0  0
 14 29  1  0  0  0  0
 15 16  1  0  0  0  0
 15 30  1  0  0  0  0
 15 31  1  0  0  0  0
 16 17  1  0  0  0  0
 16 32  1  0  0  0  0
 16 33  1  0  0  0  0
 17 18  1  0  0  0  0
 17 34  1  0  0  0  0
 17 35  1  0  0  0  0
 18 19  1  0  0  0  0
 18 36  1  0  0  0  0
 18 37  1  0  0  0  0
 19 38  1  0  0  0  0
 19 39  1  0  0  0  0
M  CHG  1   4  -1
M  END
> <s_m_source_file>
AV-unprocessed.smi

> <i_m_source_file_index>
1327

> <i_lp_mmshare_version>
43012

> <i_f3d_flags>
0

> <s_epik_input>
W0NIMl0xW0NIMl1bQ0gyXVtDSDJdW0NIMl1bQ0gyXU4xUyg9TykoPU8pW05IXVtDSDJdW0NIMl1jMltjSF1bY0hdW2NIXVtjSF1uMg==

> <s_epik_cmdline>
J2VwaWtfcHl0aG9uJywgJy1waCcsICc3LjAnLCAnLXRuJywgJzgnLCAnLW1hJywgJzIwMCcsICctbWV0YWxfYmluZGluZycsICctaW1hZScsICc8aW5maWxlLm1hZT4nLCAnLW9tYWUnLCAnPG91dGZpbGUubWFlPic=

> <r_lp_tautomer_probability>
1

> <r_epik_Ionization_Penalty>
3.18796

> <r_epik_Ionization_Penalty_Charging>
3.10426

> <r_epik_Ionization_Penalty_Neutral>
0.0836926

> <r_epik_State_Penalty>
3.10111

> <r_epik_Charging_Adjusted_Penalty>
6.20538

> <i_epik_Tot_Q>
-1

> <i_epik_Tot_abs_Q>
1

> <r_epik_Metal_State_Penalty>
0.463976

> <b_epik_Metal_Only>
1

> <s_lp_Force_Field>
OPLS_2005

> <r_lp_Energy>
9.11233

> <b_lp_Chiralities_Consistent>
1

> <s_lp_Variant>
AV-unprocessed.smi:1327-2

> <Gold.Version>
5.8.1

> <Gold.Id.Protein>
6NUR|6NUR_protein|mol2

> <Gold.PLP.Fitness>
44.4069

> <Gold.PLP.PLP>
-34.7318

> <Gold.PLP.part.hbond>
-3.3884

> <Gold.PLP.part.metal>
0.0000

> <Gold.PLP.part.buried>
-6.3277

> <Gold.PLP.part.nonpolar>
-25.2959

> <Gold.PLP.part.repulsive>
0.1767

> <Gold.PLP.ligand.clash>
0.0000

> <Gold.PLP.ligand.torsion>
2.1582

> <Gold.PLP.Chemscore.Hbond>
3.6344

> <Gold.PLP.Chemscore.CHOScore>
0.0000

> <Gold.PLP.Chemscore.Metal>
0.0000

> <Gold.Chemscore.Hbonds>
donor molecule, donor type, donor heavy atom, donor atom, acceptor molecule, acceptor atom, score
      P1  H  7989  7998       L1     1  1.00
      P1  H  7997  8009       L1     4  1.66
      P1  H 10752 10765       L1     3  0.21

> <Gold.PLP.Chemscore.Internal.Correction>
3.0882

> <Gold.Rescore>
     Score         DG    S(hbond)    S(metal)    S(lipo)     H(rot)  DE(clash)    DE(int)     intcor
     18.12     -20.24       2.29        0.00      88.71       1.27       0.00       2.12       ----

> <Gold.Chemscore.Fitness>
18.1195

> <Gold.Chemscore.DG>
-20.2399

> <Gold.Chemscore.ZeroCoef>
-5.4800

> <Gold.Chemscore.Hbond>
2.2880

> <Gold.Chemscore.Metal>
0.0000

> <Gold.Chemscore.Lipo>
88.7093

> <Gold.Chemscore.Internal_Hbond>
0.0000

> <Gold.Chemscore.DEClash>
0.0029

> <Gold.Chemscore.DEInternal>
2.1175

> <Gold.Chemscore.Rot>
1.2738

> <Gold.Chemscore.Internal.Correction>
   9.000000E+99

> <Gold.Chemscore.Hbonds>
donor molecule, donor type, donor heavy atom, donor atom, acceptor molecule, acceptor atom, score
      P1  H  7989  7998       L1     1  1.00
      P1  H  7997  8009       L1     4  0.59
      P1  H 10752 10765       L1     3  0.21

> <Gold.Chemscore.Hbond.Weighted>
-7.6420

> <Gold.Chemscore.Metal.Weighted>
-0.0000

> <Gold.Chemscore.Lipo.Weighted>
-10.3790

> <Gold.Chemscore.Internal_Hbond.Weighted>
0.0000

> <Gold.Chemscore.DEClash.Weighted>
0.0029

> <Gold.Chemscore.DEInternal.Weighted>
2.1175

> <Gold.Chemscore.Rot.Weighted>
3.2610

> <Gold.Chemscore.Internal.Correction.Weighted>
   9.000000E+99

> <Gold.Protein.RotatedTorsions>
[ 6907 6896 6895 6894 ] final  -56.06 input  -60.11 | X-H torsion
[ 7974 7965 7964 7962 ] final   98.95 input  175.53 | X-H torsion
[ 8008 7997 7996 7995 ] final -158.41 input   59.86 | X-H torsion
[ 10167 10162 10161 10158 ] final   62.64 input  -65.29 | X-H torsion
[ 10718 10713 10712 10709 ] final   19.91 input   66.30 | X-H torsion
[ 10763 10752 10751 10750 ] final  179.69 input  -60.55 | X-H torsion
[ 11005 11000 10999 10996 ] final  -82.60 input  -57.11 | X-H torsion

> <Gold.Protein.ActiveResidues>
 VAL166  LYS551  ARG553  GLY616  TRP617  ASP618  TYR619  PRO620  LYS621  CYS622 
 ASP623  PHE694  ASN695  SER759  ASP760  ASP761  ALA762  ILE779  LEU786  VAL792 
 PHE793  MET794  SER795  GLU796  ALA797  LYS798  CYS799  TRP800  GLU811  SER814 

> <Gold.Protein.RotatedAtoms>
  150.8199  134.7401  159.6762 H   0  0  0  0  0  0  0  0  0  0  0  0  # atno 6907 bound_to 6896
  152.4315  134.5765  159.9945 H   0  0  0  0  0  0  0  0  0  0  0  0  # atno 6908 bound_to 6896
  151.5952  133.3325  159.3072 H   0  0  0  0  0  0  0  0  0  0  0  0  # atno 6909 bound_to 6896
  145.4054  139.2341  143.3277 H   0  0  0  0  0  0  0  0  0  0  0  0  # atno 7974 bound_to 7965
  155.7471  140.0821  157.2219 H   0  0  0  0  0  0  0  0  0  0  0  0  # atno 8008 bound_to 7997
  154.4016  140.1567  156.2737 H   0  0  0  0  0  0  0  0  0  0  0  0  # atno 8009 bound_to 7997
  155.8966  140.3412  155.5998 H   0  0  0  0  0  0  0  0  0  0  0  0  # atno 8010 bound_to 7997
  140.1417  144.4547  150.6807 H   0  0  0  0  0  0  0  0  0  0  0  0  # atno 10167 bound_to 10162
  157.1171  130.6533  149.5913 H   0  0  0  0  0  0  0  0  0  0  0  0  # atno 10718 bound_to 10713
  154.5239  135.2795  155.1238 H   0  0  0  0  0  0  0  0  0  0  0  0  # atno 10763 bound_to 10752
  154.2785  135.6290  153.5341 H   0  0  0  0  0  0  0  0  0  0  0  0  # atno 10764 bound_to 10752
  152.9942  135.5645  154.5736 H   0  0  0  0  0  0  0  0  0  0  0  0  # atno 10765 bound_to 10752
  141.1662  133.7252  156.8595 H   0  0  0  0  0  0  0  0  0  0  0  0  # atno 11005 bound_to 11000
  146.2731  140.4758  142.8806 LP  0  0  0  0  0  0  0  0  0  0  0  0  # atno 17320 bound_to 7965
  144.8345  140.6760  143.6269 LP  0  0  0  0  0  0  0  0  0  0  0  0  # atno 17321 bound_to 7965
  140.6756  143.2304  151.5515 LP  0  0  0  0  0  0  0  0  0  0  0  0  # atno 17342 bound_to 10162
  139.5469  144.2498  152.1458 LP  0  0  0  0  0  0  0  0  0  0  0  0  # atno 17343 bound_to 10162
  155.9837  130.4858  150.6946 LP  0  0  0  0  0  0  0  0  0  0  0  0  # atno 17370 bound_to 10713
  157.4509  131.0872  151.0847 LP  0  0  0  0  0  0  0  0  0  0  0  0  # atno 17371 bound_to 10713
  140.1858  134.9001  157.3002 LP  0  0  0  0  0  0  0  0  0  0  0  0  # atno 17394 bound_to 11000
  140.2344  134.3870  155.7507 LP  0  0  0  0  0  0  0  0  0  0  0  0  # atno 17395 bound_to 11000

$$$$
