AV-unprocessed.smi:1867|AV-procd|sdf|7583|dock7
  -GOLD-   22720 9293D 1   1.00000     0.00000
 Structure written by MMmdl.
 52 55  0  0  0  0  0  0  0  0  4 V2000
  150.8112  137.8540  155.7328 O   0  0  0  0  0  0  0  0  0  0  0  0
  151.4158  137.0134  156.3964 C   0  0  0  0  0  0  0  0  0  0  0  0
  152.1299  137.4198  157.4755 N   0  0  0  0  0  0  0  0  0  0  0  0
  152.2274  138.7186  158.0425 C   0  0  0  0  0  0  0  0  0  0  0  0
  152.9435  138.8635  159.2487 C   0  0  0  0  0  0  0  0  0  0  0  0
  153.0446  140.1329  159.8539 C   0  0  0  0  0  0  0  0  0  0  0  0
  152.4122  141.2476  159.2539 C   0  0  0  0  0  0  0  0  0  0  0  0
  152.4759  142.5447  159.7971 N   0  0  0  0  0  0  0  0  0  0  0  0
  151.6399  143.6236  159.2956 C   0  0  0  0  0  0  0  0  0  0  0  0
  151.9077  144.7900  160.2453 C   0  0  0  0  0  0  0  0  0  0  0  0
  152.1768  144.0952  161.5804 C   0  0  0  0  0  0  0  0  0  0  0  0
  152.8416  142.7701  161.1883 C   0  0  0  0  0  0  0  0  0  0  0  0
  151.7230  141.0586  158.1035 N   0  3  0  0  0  0  0  0  0  0  0  0
  151.6035  139.8617  157.4897 C   0  0  0  0  0  0  0  0  0  0  0  0
  151.3993  135.6912  156.0480 N   0  5  0  0  0  0  0  0  0  0  0  0
  150.2521  134.7846  155.9002 C   0  0  1  0  0  0  0  0  0  0  0  0
  149.3867  135.1528  154.6792 C   0  0  0  0  0  0  0  0  0  0  0  0
  148.9214  133.8110  154.0811 C   0  0  0  0  0  0  0  0  0  0  0  0
  149.5120  132.7678  154.9415 N   0  3  1  0  0  0  0  0  0  0  0  0
  149.7768  131.4496  154.3235 C   0  0  0  0  0  0  0  0  0  0  0  0
  150.2876  130.4742  155.4034 C   0  0  0  0  0  0  0  0  0  0  0  0
  151.4950  131.0495  156.1727 C   0  0  0  0  0  0  0  0  0  0  0  0
  151.1880  132.4572  156.7210 C   0  0  0  0  0  0  0  0  0  0  0  0
  150.7068  133.3589  155.5651 C   0  0  2  0  0  0  0  0  0  0  0  0
  152.7053  136.7118  157.9071 H   0  0  0  0  0  0  0  0  0  0  0  0
  153.4222  138.0095  159.7057 H   0  0  0  0  0  0  0  0  0  0  0  0
  153.6103  140.2359  160.7680 H   0  0  0  0  0  0  0  0  0  0  0  0
  151.8848  143.8789  158.2639 H   0  0  0  0  0  0  0  0  0  0  0  0
  150.5920  143.3234  159.3399 H   0  0  0  0  0  0  0  0  0  0  0  0
  152.7999  145.3301  159.9252 H   0  0  0  0  0  0  0  0  0  0  0  0
  151.0811  145.4995  160.2905 H   0  0  0  0  0  0  0  0  0  0  0  0
  152.7907  144.6929  162.2548 H   0  0  0  0  0  0  0  0  0  0  0  0
  151.2292  143.8941  162.0821 H   0  0  0  0  0  0  0  0  0  0  0  0
  152.5101  141.9605  161.8394 H   0  0  0  0  0  0  0  0  0  0  0  0
  153.9271  142.8459  161.2592 H   0  0  0  0  0  0  0  0  0  0  0  0
  151.0051  139.8660  156.5906 H   0  0  0  0  0  0  0  0  0  0  0  0
  149.6181  134.7505  156.7882 H   0  0  0  0  0  0  0  0  0  0  0  0
  148.5457  135.7842  154.9676 H   0  0  0  0  0  0  0  0  0  0  0  0
  149.9617  135.7006  153.9305 H   0  0  0  0  0  0  0  0  0  0  0  0
  147.8350  133.7188  154.0614 H   0  0  0  0  0  0  0  0  0  0  0  0
  149.2860  133.7105  153.0572 H   0  0  0  0  0  0  0  0  0  0  0  0
  148.8613  131.0660  153.8723 H   0  0  0  0  0  0  0  0  0  0  0  0
  150.5122  131.5556  153.5244 H   0  0  0  0  0  0  0  0  0  0  0  0
  149.4820  130.2639  156.1082 H   0  0  0  0  0  0  0  0  0  0  0  0
  150.5546  129.5198  154.9487 H   0  0  0  0  0  0  0  0  0  0  0  0
  151.7737  130.3816  156.9881 H   0  0  0  0  0  0  0  0  0  0  0  0
  152.3573  131.1008  155.5067 H   0  0  0  0  0  0  0  0  0  0  0  0
  150.4288  132.3832  157.5024 H   0  0  0  0  0  0  0  0  0  0  0  0
  152.0826  132.8709  157.1904 H   0  0  0  0  0  0  0  0  0  0  0  0
  151.4914  133.4095  154.8057 H   0  0  0  0  0  0  0  0  0  0  0  0
  148.8549  132.6206  155.6940 H   0  0  0  0  0  0  0  0  0  0  0  0
  151.2648  141.8634  157.6761 H   0  0  0  0  0  0  0  0  0  0  0  0
  1  2  2  0  0  0  0
  2  3  1  0  0  0  0
  2 15  1  0  0  0  0
  3  4  1  0  0  0  0
  3 25  1  0  0  0  0
  4 14  1  0  0  0  0
  4  5  2  0  0  0  0
  5  6  1  0  0  0  0
  5 26  1  0  0  0  0
  6  7  2  0  0  0  0
  6 27  1  0  0  0  0
  7  8  1  0  0  0  0
  7 13  1  0  0  0  0
  8 12  1  0  0  0  0
  8  9  1  0  0  0  0
  9 10  1  0  0  0  0
  9 28  1  0  0  0  0
  9 29  1  0  0  0  0
 10 11  1  0  0  0  0
 10 30  1  0  0  0  0
 10 31  1  0  0  0  0
 11 12  1  0  0  0  0
 11 32  1  0  0  0  0
 11 33  1  0  0  0  0
 12 34  1  0  0  0  0
 12 35  1  0  0  0  0
 13 14  2  0  0  0  0
 13 52  1  0  0  0  0
 14 36  1  0  0  0  0
 15 16  1  0  0  0  0
 16 24  1  0  0  0  0
 16 17  1  0  0  0  0
 16 37  1  0  0  0  0
 17 18  1  0  0  0  0
 17 38  1  0  0  0  0
 17 39  1  0  0  0  0
 18 19  1  0  0  0  0
 18 40  1  0  0  0  0
 18 41  1  0  0  0  0
 19 24  1  0  0  0  0
 19 20  1  0  0  0  0
 19 51  1  0  0  0  0
 20 21  1  0  0  0  0
 20 42  1  0  0  0  0
 20 43  1  0  0  0  0
 21 22  1  0  0  0  0
 21 44  1  0  0  0  0
 21 45  1  0  0  0  0
 22 23  1  0  0  0  0
 22 46  1  0  0  0  0
 22 47  1  0  0  0  0
 23 24  1  0  0  0  0
 23 48  1  0  0  0  0
 23 49  1  0  0  0  0
 24 50  1  0  0  0  0
M  CHG  1  13   1
M  CHG  1  15  -1
M  CHG  1  19   1
M  END
> <s_m_source_file>
AV-unprocessed.smi

> <i_m_source_file_index>
1867

> <i_lp_mmshare_version>
43012

> <i_f3d_flags>
0

> <s_epik_input>
W0NIMl0xW0NIMl1bQ0gyXVtDSDJdW0NASF0oTjEyKVtDQEBIXShbQ0gyXVtDSDJdMilbTkhdQyg9TylbTkhdYzNbY0hdW2NIXWMobltjSF0zKU40W0NIMl1bQ0gyXVtDSDJdW0NIMl00

> <s_epik_cmdline>
J2VwaWtfcHl0aG9uJywgJy1waCcsICc3LjAnLCAnLXRuJywgJzgnLCAnLW1hJywgJzIwMCcsICctbWV0YWxfYmluZGluZycsICctaW1hZScsICc8aW5maWxlLm1hZT4nLCAnLW9tYWUnLCAnPG91dGZpbGUubWFlPic=

> <r_lp_tautomer_probability>
0.999994

> <r_epik_Ionization_Penalty>
8.56137

> <r_epik_Ionization_Penalty_Charging>
8.56136

> <r_epik_Ionization_Penalty_Neutral>
3.91889e-06

> <r_epik_State_Penalty>
8.16255

> <r_epik_Charging_Adjusted_Penalty>
16.7239

> <i_epik_Tot_Q>
1

> <i_epik_Tot_abs_Q>
3

> <r_epik_Metal_State_Penalty>
4.14279

> <b_epik_Metal_Only>
1

> <s_lp_Force_Field>
OPLS_2005

> <r_lp_Energy>
66.3104

> <b_lp_Chiralities_Consistent>
1

> <s_lp_Variant>
AV-unprocessed.smi:1867-24

> <Gold.Version>
5.8.1

> <Gold.Id.Protein>
6NUR|6NUR_protein|mol2

> <Gold.PLP.Fitness>
48.6921

> <Gold.PLP.PLP>
-43.8622

> <Gold.PLP.part.hbond>
-1.0000

> <Gold.PLP.part.metal>
0.0000

> <Gold.PLP.part.buried>
-5.1327

> <Gold.PLP.part.nonpolar>
-37.8159

> <Gold.PLP.part.repulsive>
0.2557

> <Gold.PLP.ligand.clash>
0.0000

> <Gold.PLP.ligand.torsion>
0.6931

> <Gold.PLP.Chemscore.Hbond>
2.0000

> <Gold.PLP.Chemscore.CHOScore>
0.0000

> <Gold.PLP.Chemscore.Metal>
0.0000

> <Gold.Chemscore.Hbonds>
donor molecule, donor type, donor heavy atom, donor atom, acceptor molecule, acceptor atom, score
      P1  H 10752 10765       L1    15  2.00

> <Gold.PLP.Chemscore.Internal.Correction>
0.2161

> <Gold.Rescore>
     Score         DG    S(hbond)    S(metal)    S(lipo)     H(rot)  DE(clash)    DE(int)     intcor
     16.69     -18.89       0.81        0.00     113.54       1.00       0.03       2.17       ----

> <Gold.Chemscore.Fitness>
16.6913

> <Gold.Chemscore.DG>
-18.8928

> <Gold.Chemscore.ZeroCoef>
-5.4800

> <Gold.Chemscore.Hbond>
0.8051

> <Gold.Chemscore.Metal>
0.0000

> <Gold.Chemscore.Lipo>
113.5380

> <Gold.Chemscore.Internal_Hbond>
0.0000

> <Gold.Chemscore.DEClash>
0.0319

> <Gold.Chemscore.DEInternal>
2.1697

> <Gold.Chemscore.Rot>
1.0000

> <Gold.Chemscore.Internal.Correction>
   9.000000E+99

> <Gold.Chemscore.Hbonds>
donor molecule, donor type, donor heavy atom, donor atom, acceptor molecule, acceptor atom, score
      P1  H 10752 10765       L1    15  0.37

> <Gold.Chemscore.Hbond.Weighted>
-2.6889

> <Gold.Chemscore.Metal.Weighted>
-0.0000

> <Gold.Chemscore.Lipo.Weighted>
-13.2839

> <Gold.Chemscore.Internal_Hbond.Weighted>
0.0000

> <Gold.Chemscore.DEClash.Weighted>
0.0319

> <Gold.Chemscore.DEInternal.Weighted>
2.1697

> <Gold.Chemscore.Rot.Weighted>
2.5600

> <Gold.Chemscore.Internal.Correction.Weighted>
   9.000000E+99

> <Gold.Protein.RotatedTorsions>
[ 6907 6896 6895 6894 ] final  -17.06 input  -60.11 | X-H torsion
[ 7974 7965 7964 7962 ] final  117.70 input  175.53 | X-H torsion
[ 8008 7997 7996 7995 ] final -172.05 input   59.86 | X-H torsion
[ 10167 10162 10161 10158 ] final  135.38 input  -65.29 | X-H torsion
[ 10718 10713 10712 10709 ] final  125.40 input   66.30 | X-H torsion
[ 10763 10752 10751 10750 ] final -147.04 input  -60.55 | X-H torsion
[ 11005 11000 10999 10996 ] final   85.50 input  -57.11 | X-H torsion

> <Gold.Protein.ActiveResidues>
 VAL166  LYS551  ARG553  GLY616  TRP617  ASP618  TYR619  PRO620  LYS621  CYS622 
 ASP623  PHE694  ASN695  SER759  ASP760  ASP761  ALA762  ILE779  LEU786  VAL792 
 PHE793  MET794  SER795  GLU796  ALA797  LYS798  CYS799  TRP800  GLU811  SER814 

> <Gold.Protein.RotatedAtoms>
  151.2990  135.0763  159.9231 H   0  0  0  0  0  0  0  0  0  0  0  0  # atno 6907 bound_to 6896
  152.5301  133.9853  159.7836 H   0  0  0  0  0  0  0  0  0  0  0  0  # atno 6908 bound_to 6896
  151.0136  133.5891  159.2710 H   0  0  0  0  0  0  0  0  0  0  0  0  # atno 6909 bound_to 6896
  145.1642  139.3138  143.4501 H   0  0  0  0  0  0  0  0  0  0  0  0  # atno 7974 bound_to 7965
  155.9395  140.1106  157.1067 H   0  0  0  0  0  0  0  0  0  0  0  0  # atno 8008 bound_to 7997
  154.4086  140.1222  156.4974 H   0  0  0  0  0  0  0  0  0  0  0  0  # atno 8009 bound_to 7997
  155.6979  140.3472  155.4923 H   0  0  0  0  0  0  0  0  0  0  0  0  # atno 8010 bound_to 7997
  139.5219  144.6520  151.5274 H   0  0  0  0  0  0  0  0  0  0  0  0  # atno 10167 bound_to 10162
  157.5506  131.1094  150.8708 H   0  0  0  0  0  0  0  0  0  0  0  0  # atno 10718 bound_to 10713
  154.8306  135.3370  154.6757 H   0  0  0  0  0  0  0  0  0  0  0  0  # atno 10763 bound_to 10752
  153.7377  135.6948  153.4979 H   0  0  0  0  0  0  0  0  0  0  0  0  # atno 10764 bound_to 10752
  153.2266  135.4430  155.0501 H   0  0  0  0  0  0  0  0  0  0  0  0  # atno 10765 bound_to 10752
  139.8970  134.8291  156.2590 H   0  0  0  0  0  0  0  0  0  0  0  0  # atno 11005 bound_to 11000
  146.3478  140.1764  142.8589 LP  0  0  0  0  0  0  0  0  0  0  0  0  # atno 17320 bound_to 7965
  145.0299  140.8862  143.5115 LP  0  0  0  0  0  0  0  0  0  0  0  0  # atno 17321 bound_to 7965
  140.6329  143.9041  150.6621 LP  0  0  0  0  0  0  0  0  0  0  0  0  # atno 17342 bound_to 10162
  140.2351  143.3706  152.1533 LP  0  0  0  0  0  0  0  0  0  0  0  0  # atno 17343 bound_to 10162
  156.9234  130.5323  149.5279 LP  0  0  0  0  0  0  0  0  0  0  0  0  # atno 17370 bound_to 10713
  156.0573  130.5632  150.9119 LP  0  0  0  0  0  0  0  0  0  0  0  0  # atno 17371 bound_to 10713
  141.0174  133.7060  156.1212 LP  0  0  0  0  0  0  0  0  0  0  0  0  # atno 17394 bound_to 11000
  140.7281  134.4284  157.5568 LP  0  0  0  0  0  0  0  0  0  0  0  0  # atno 17395 bound_to 11000

$$$$
