AV-unprocessed.smi:2227|AV-procd|sdf|9022|dock2
  -GOLD-   2272012223D 1   1.00000     0.00000
 Structure written by MMmdl.
 42 44  0  0  0  0  0  0  0  0  1 V2000
  152.5252  144.7871  158.4621 C   0  0  0  0  0  0  0  0  0  0  0  0
  151.7334  143.5773  158.9782 C   0  0  0  0  0  0  0  0  0  0  0  0
  150.2292  143.8717  159.0736 C   0  0  0  0  0  0  0  0  0  0  0  0
  152.2877  143.0759  160.2844 C   0  0  0  0  0  0  0  0  0  0  0  0
  152.1857  143.7544  161.4250 N   0  0  0  0  0  0  0  0  0  0  0  0
  152.8384  142.9738  162.3710 C   0  0  0  0  0  0  0  0  0  0  0  0
  153.3248  141.8416  161.7662 C   0  0  0  0  0  0  0  0  0  0  0  0
  152.9724  141.9186  160.4238 N   0  0  0  0  0  0  0  0  0  0  0  0
  153.3045  140.9220  159.4155 C   0  0  0  0  0  0  0  0  0  0  0  0
  152.0474  140.3400  158.7638 C   0  0  0  0  0  0  0  0  0  0  0  0
  151.0337  140.1530  159.4365 O   0  0  0  0  0  0  0  0  0  0  0  0
  152.1342  140.0511  157.4560 N   0  0  0  0  0  0  0  0  0  0  0  0
  151.0788  139.4610  156.6403 C   0  0  0  0  0  0  0  0  0  0  0  0
  151.5328  138.1569  156.0099 C   0  0  0  0  0  0  0  0  0  0  0  0
  152.3114  138.1339  154.7156 C   0  0  0  0  0  0  0  0  0  0  0  0
  150.8860  137.6312  154.7511 C   0  0  0  0  0  0  0  0  0  0  0  0
  150.5656  140.4116  155.5705 C   0  0  0  0  0  0  0  0  0  0  0  0
  149.3756  141.3100  155.8156 C   0  0  0  0  0  0  0  0  0  0  0  0
  149.2630  140.1540  154.8494 C   0  0  0  0  0  0  0  0  0  0  0  0
  153.5802  144.5392  158.3398 H   0  0  0  0  0  0  0  0  0  0  0  0
  152.4594  145.6293  159.1519 H   0  0  0  0  0  0  0  0  0  0  0  0
  152.1495  145.1196  157.4943 H   0  0  0  0  0  0  0  0  0  0  0  0
  151.8387  142.7948  158.2295 H   0  0  0  0  0  0  0  0  0  0  0  0
  149.6758  142.9846  159.3831 H   0  0  0  0  0  0  0  0  0  0  0  0
  149.8295  144.1899  158.1103 H   0  0  0  0  0  0  0  0  0  0  0  0
  150.0226  144.6627  159.7953 H   0  0  0  0  0  0  0  0  0  0  0  0
  152.9087  143.2853  163.4027 H   0  0  0  0  0  0  0  0  0  0  0  0
  153.8847  141.0103  162.1687 H   0  0  0  0  0  0  0  0  0  0  0  0
  153.9149  141.3909  158.6429 H   0  0  0  0  0  0  0  0  0  0  0  0
  153.9197  140.1434  159.8681 H   0  0  0  0  0  0  0  0  0  0  0  0
  153.0091  140.2420  156.9900 H   0  0  0  0  0  0  0  0  0  0  0  0
  150.2402  139.2193  157.2969 H   0  0  0  0  0  0  0  0  0  0  0  0
  151.8193  137.4019  156.7401 H   0  0  0  0  0  0  0  0  0  0  0  0
  152.4913  139.0796  154.2086 H   0  0  0  0  0  0  0  0  0  0  0  0
  153.1040  137.3947  154.6197 H   0  0  0  0  0  0  0  0  0  0  0  0
  150.7269  136.5572  154.6795 H   0  0  0  0  0  0  0  0  0  0  0  0
  150.1288  138.2481  154.2720 H   0  0  0  0  0  0  0  0  0  0  0  0
  151.3581  140.8378  154.9582 H   0  0  0  0  0  0  0  0  0  0  0  0
  148.8517  141.2178  156.7647 H   0  0  0  0  0  0  0  0  0  0  0  0
  149.4112  142.3145  155.3989 H   0  0  0  0  0  0  0  0  0  0  0  0
  149.2236  140.3864  153.7873 H   0  0  0  0  0  0  0  0  0  0  0  0
  148.6630  139.3026  155.1634 H   0  0  0  0  0  0  0  0  0  0  0  0
  1  2  1  0  0  0  0
  1 20  1  0  0  0  0
  1 21  1  0  0  0  0
  1 22  1  0  0  0  0
  2  3  1  0  0  0  0
  2  4  1  0  0  0  0
  2 23  1  0  0  0  0
  3 24  1  0  0  0  0
  3 25  1  0  0  0  0
  3 26  1  0  0  0  0
  4  8  1  0  0  0  0
  4  5  2  0  0  0  0
  5  6  1  0  0  0  0
  6  7  2  0  0  0  0
  6 27  1  0  0  0  0
  7  8  1  0  0  0  0
  7 28  1  0  0  0  0
  8  9  1  0  0  0  0
  9 10  1  0  0  0  0
  9 29  1  0  0  0  0
  9 30  1  0  0  0  0
 10 11  2  0  0  0  0
 10 12  1  0  0  0  0
 12 13  1  0  0  0  0
 12 31  1  0  0  0  0
 13 14  1  0  0  0  0
 13 17  1  0  0  0  0
 13 32  1  0  0  0  0
 14 16  1  0  0  0  0
 14 15  1  0  0  0  0
 14 33  1  0  0  0  0
 15 16  1  0  0  0  0
 15 34  1  0  0  0  0
 15 35  1  0  0  0  0
 16 36  1  0  0  0  0
 16 37  1  0  0  0  0
 17 19  1  0  0  0  0
 17 18  1  0  0  0  0
 17 38  1  0  0  0  0
 18 19  1  0  0  0  0
 18 39  1  0  0  0  0
 18 40  1  0  0  0  0
 19 41  1  0  0  0  0
 19 42  1  0  0  0  0
M  END
> <s_m_source_file>
AV-unprocessed.smi

> <i_m_source_file_index>
2227

> <i_lp_mmshare_version>
43012

> <i_f3d_flags>
0

> <s_epik_input>
W0NIM11bQ0hdKFtDSDNdKWMxbltjSF1bY0hdbjFbQ0gyXUMoPU8pW05IXVtDSF0oW0NIXTJbQ0gyXVtDSDJdMilbQ0hdM1tDSDJdW0NIMl0z

> <s_epik_cmdline>
J2VwaWtfcHl0aG9uJywgJy1waCcsICc3LjAnLCAnLXRuJywgJzgnLCAnLW1hJywgJzIwMCcsICctbWV0YWxfYmluZGluZycsICctaW1hZScsICc8aW5maWxlLm1hZT4nLCAnLW9tYWUnLCAnPG91dGZpbGUubWFlPic=

> <r_lp_tautomer_probability>
1

> <r_epik_Ionization_Penalty>
0.615412

> <r_epik_Ionization_Penalty_Charging>
0.615412

> <r_epik_Ionization_Penalty_Neutral>
4.7269e-08

> <r_epik_State_Penalty>
0.630977

> <r_epik_Charging_Adjusted_Penalty>
1.24639

> <i_epik_Tot_Q>
0

> <i_epik_Tot_abs_Q>
0

> <r_epik_Metal_State_Penalty>
0.305199

> <b_epik_Metal_Only>
0

> <s_lp_Force_Field>
OPLS_2005

> <r_lp_Energy>
23.5493

> <b_lp_Chiralities_Consistent>
1

> <s_lp_Variant>
AV-unprocessed.smi:2227-2

> <Gold.Version>
5.8.1

> <Gold.Id.Protein>
6NUR|6NUR_protein|mol2

> <Gold.PLP.Fitness>
46.9424

> <Gold.PLP.PLP>
-47.8230

> <Gold.PLP.part.hbond>
0.0000

> <Gold.PLP.part.metal>
0.0000

> <Gold.PLP.part.buried>
-4.4231

> <Gold.PLP.part.nonpolar>
-43.1035

> <Gold.PLP.part.repulsive>
0.6393

> <Gold.PLP.ligand.clash>
0.0000

> <Gold.PLP.ligand.torsion>
1.5712

> <Gold.PLP.Chemscore.Hbond>
0.0000

> <Gold.PLP.Chemscore.CHOScore>
0.0000

> <Gold.PLP.Chemscore.Metal>
0.0000

> <Gold.PLP.Chemscore.Internal.Correction>
2.2618

> <Gold.Rescore>
     Score         DG    S(hbond)    S(metal)    S(lipo)     H(rot)  DE(clash)    DE(int)     intcor
     12.80     -14.48       0.00        0.00     113.28       1.66       0.14       1.53       ----

> <Gold.Chemscore.Fitness>
12.8021

> <Gold.Chemscore.DG>
-14.4770

> <Gold.Chemscore.ZeroCoef>
-5.4800

> <Gold.Chemscore.Hbond>
0.0000

> <Gold.Chemscore.Metal>
0.0000

> <Gold.Chemscore.Lipo>
113.2776

> <Gold.Chemscore.Internal_Hbond>
0.0000

> <Gold.Chemscore.DEClash>
0.1439

> <Gold.Chemscore.DEInternal>
1.5310

> <Gold.Chemscore.Rot>
1.6627

> <Gold.Chemscore.Internal.Correction>
   9.000000E+99

> <Gold.Chemscore.Hbond.Weighted>
-0.0000

> <Gold.Chemscore.Metal.Weighted>
-0.0000

> <Gold.Chemscore.Lipo.Weighted>
-13.2535

> <Gold.Chemscore.Internal_Hbond.Weighted>
0.0000

> <Gold.Chemscore.DEClash.Weighted>
0.1439

> <Gold.Chemscore.DEInternal.Weighted>
1.5310

> <Gold.Chemscore.Rot.Weighted>
4.2565

> <Gold.Chemscore.Internal.Correction.Weighted>
   9.000000E+99

> <Gold.Protein.RotatedTorsions>
[ 6907 6896 6895 6894 ] final  -55.61 input  -60.11 | X-H torsion
[ 7974 7965 7964 7962 ] final  100.91 input  175.53 | X-H torsion
[ 8008 7997 7996 7995 ] final   41.31 input   59.86 | X-H torsion
[ 10167 10162 10161 10158 ] final   67.13 input  -65.29 | X-H torsion
[ 10718 10713 10712 10709 ] final   51.64 input   66.30 | X-H torsion
[ 10763 10752 10751 10750 ] final  160.21 input  -60.55 | X-H torsion
[ 11005 11000 10999 10996 ] final   40.09 input  -57.11 | X-H torsion

> <Gold.Protein.ActiveResidues>
 VAL166  LYS551  ARG553  GLY616  TRP617  ASP618  TYR619  PRO620  LYS621  CYS622 
 ASP623  PHE694  ASN695  SER759  ASP760  ASP761  ALA762  ILE779  LEU786  VAL792 
 PHE793  MET794  SER795  GLU796  ALA797  LYS798  CYS799  TRP800  GLU811  SER814 

> <Gold.Protein.RotatedAtoms>
  150.8237  134.7458  159.6794 H   0  0  0  0  0  0  0  0  0  0  0  0  # atno 6907 bound_to 6896
  152.4350  134.5700  159.9928 H   0  0  0  0  0  0  0  0  0  0  0  0  # atno 6908 bound_to 6896
  151.5878  133.3332  159.3057 H   0  0  0  0  0  0  0  0  0  0  0  0  # atno 6909 bound_to 6896
  145.3793  139.2383  143.3412 H   0  0  0  0  0  0  0  0  0  0  0  0  # atno 7974 bound_to 7965
  155.2675  140.3363  155.4268 H   0  0  0  0  0  0  0  0  0  0  0  0  # atno 8008 bound_to 7997
  156.2147  140.1784  156.7657 H   0  0  0  0  0  0  0  0  0  0  0  0  # atno 8009 bound_to 7997
  154.5737  140.0665  156.8987 H   0  0  0  0  0  0  0  0  0  0  0  0  # atno 8010 bound_to 7997
  140.0929  144.4972  150.7087 H   0  0  0  0  0  0  0  0  0  0  0  0  # atno 10167 bound_to 10162
  157.5000  130.8431  149.8305 H   0  0  0  0  0  0  0  0  0  0  0  0  # atno 10718 bound_to 10713
  154.2439  135.2774  155.2843 H   0  0  0  0  0  0  0  0  0  0  0  0  # atno 10763 bound_to 10752
  154.5522  135.5671  153.6936 H   0  0  0  0  0  0  0  0  0  0  0  0  # atno 10764 bound_to 10752
  152.9994  135.6277  154.2583 H   0  0  0  0  0  0  0  0  0  0  0  0  # atno 10765 bound_to 10752
  140.1964  134.3923  155.8119 H   0  0  0  0  0  0  0  0  0  0  0  0  # atno 11005 bound_to 11000
  146.2849  140.4458  142.8762 LP  0  0  0  0  0  0  0  0  0  0  0  0  # atno 17320 bound_to 7965
  144.8519  140.7013  143.6163 LP  0  0  0  0  0  0  0  0  0  0  0  0  # atno 17321 bound_to 7965
  140.7019  143.2440  151.4840 LP  0  0  0  0  0  0  0  0  0  0  0  0  # atno 17342 bound_to 10162
  139.5714  144.1919  152.1842 LP  0  0  0  0  0  0  0  0  0  0  0  0  # atno 17343 bound_to 10162
  156.0223  130.3791  150.1925 LP  0  0  0  0  0  0  0  0  0  0  0  0  # atno 17370 bound_to 10713
  157.0114  130.9952  151.3365 LP  0  0  0  0  0  0  0  0  0  0  0  0  # atno 17371 bound_to 10713
  141.2227  133.7072  156.8184 LP  0  0  0  0  0  0  0  0  0  0  0  0  # atno 17394 bound_to 11000
  140.2102  134.8833  157.3266 LP  0  0  0  0  0  0  0  0  0  0  0  0  # atno 17395 bound_to 11000

$$$$
