AV-unprocessed.smi:22|AV-procd|sdf|172|dock7
  -GOLD-   2262015423D 1   1.00000     0.00000
 Structure written by MMmdl.
 56 59  0  0  0  0  0  0  0  0  2 V2000
  144.7029  135.3013  150.4208 C   0  0  0  0  0  0  0  0  0  0  0  0
  144.3801  133.9261  150.8844 N   0  3  1  0  0  0  0  0  0  0  0  0
  144.5992  132.9045  149.8167 C   0  0  0  0  0  0  0  0  0  0  0  0
  143.4921  132.8628  148.7455 C   0  0  0  0  0  0  0  0  0  0  0  0
  143.5463  134.0215  147.9398 O   0  0  0  0  0  0  0  0  0  0  0  0
  145.0241  133.6330  152.2070 C   0  0  0  0  0  0  0  0  0  0  0  0
  144.6588  134.6155  153.3495 C   0  0  0  0  0  0  0  0  0  0  0  0
  145.3886  134.2646  154.6565 C   0  0  0  0  0  0  0  0  0  0  0  0
  146.8337  134.2066  154.4511 N   0  0  0  0  0  0  0  0  0  0  0  0
  147.5684  134.2326  155.5932 C   0  0  0  0  0  0  0  0  0  0  0  0
  148.4942  133.2635  155.8261 N   0  0  0  0  0  0  0  0  0  0  0  0
  149.2140  133.2720  156.9517 C   0  0  0  0  0  0  0  0  0  0  0  0
  149.1724  134.1426  157.9614 N   0  0  0  0  0  0  0  0  0  0  0  0
  148.2547  135.1244  157.7309 C   0  0  0  0  0  0  0  0  0  0  0  0
  147.4167  135.2428  156.5858 C   0  0  0  0  0  0  0  0  0  0  0  0
  146.6153  136.3725  156.7034 N   0  0  0  0  0  0  0  0  0  0  0  0
  146.9517  136.8846  157.8559 C   0  0  0  0  0  0  0  0  0  0  0  0
  147.9366  136.2044  158.5361 N   0  0  0  0  0  0  0  0  0  0  0  0
  148.5050  136.5481  159.8313 C   0  0  0  0  0  0  0  0  0  0  0  0
  147.4558  136.6520  160.9653 C   0  0  2  0  0  0  0  0  0  0  0  0
  146.8432  137.9275  160.9122 O   0  0  0  0  0  0  0  0  0  0  0  0
  148.0735  136.4548  162.3519 C   0  0  0  0  0  0  0  0  0  0  0  0
  147.5443  135.0957  162.7935 C   0  0  0  0  0  0  0  0  0  0  0  0
  146.2480  135.0669  162.2242 O   0  0  0  0  0  0  0  0  0  0  0  0
  146.3652  135.5643  160.8992 C   0  0  0  0  0  0  0  0  0  0  0  0
  147.2615  133.2938  153.3916 C   0  0  0  0  0  0  0  0  0  0  0  0
  146.5641  133.6262  152.0633 C   0  0  0  0  0  0  0  0  0  0  0  0
  145.7239  135.3523  150.0406 H   0  0  0  0  0  0  0  0  0  0  0  0
  144.6121  136.0361  151.2190 H   0  0  0  0  0  0  0  0  0  0  0  0
  144.0248  135.6268  149.6331 H   0  0  0  0  0  0  0  0  0  0  0  0
  145.5645  133.0840  149.3409 H   0  0  0  0  0  0  0  0  0  0  0  0
  144.6391  131.9066  150.2518 H   0  0  0  0  0  0  0  0  0  0  0  0
  143.5436  131.9690  148.1247 H   0  0  0  0  0  0  0  0  0  0  0  0
  142.5173  132.8371  149.2333 H   0  0  0  0  0  0  0  0  0  0  0  0
  144.4467  134.3046  147.8778 H   0  0  0  0  0  0  0  0  0  0  0  0
  144.6946  132.6419  152.5250 H   0  0  0  0  0  0  0  0  0  0  0  0
  144.9139  135.6367  153.0627 H   0  0  0  0  0  0  0  0  0  0  0  0
  143.5881  134.5971  153.5534 H   0  0  0  0  0  0  0  0  0  0  0  0
  145.1233  134.9951  155.4198 H   0  0  0  0  0  0  0  0  0  0  0  0
  145.0486  133.2954  155.0237 H   0  0  0  0  0  0  0  0  0  0  0  0
  149.9256  132.4666  157.0582 H   0  0  0  0  0  0  0  0  0  0  0  0
  146.4880  137.7810  158.2412 H   0  0  0  0  0  0  0  0  0  0  0  0
  149.2567  135.7987  160.0828 H   0  0  0  0  0  0  0  0  0  0  0  0
  149.0411  137.4925  159.7281 H   0  0  0  0  0  0  0  0  0  0  0  0
  145.9272  137.8117  160.7106 H   0  0  0  0  0  0  0  0  0  0  0  0
  149.1633  136.4942  162.3527 H   0  0  0  0  0  0  0  0  0  0  0  0
  147.7203  137.2157  163.0502 H   0  0  0  0  0  0  0  0  0  0  0  0
  148.1482  134.2860  162.3801 H   0  0  0  0  0  0  0  0  0  0  0  0
  147.5131  134.9868  163.8777 H   0  0  0  0  0  0  0  0  0  0  0  0
  145.4081  135.9245  160.5195 H   0  0  0  0  0  0  0  0  0  0  0  0
  146.6780  134.7329  160.2667 H   0  0  0  0  0  0  0  0  0  0  0  0
  148.3421  133.3599  153.2568 H   0  0  0  0  0  0  0  0  0  0  0  0
  147.0344  132.2674  153.6837 H   0  0  0  0  0  0  0  0  0  0  0  0
  146.8927  132.9076  151.3139 H   0  0  0  0  0  0  0  0  0  0  0  0
  146.9021  134.6033  151.7146 H   0  0  0  0  0  0  0  0  0  0  0  0
  143.3851  133.9090  151.0602 H   0  0  0  0  0  0  0  0  0  0  0  0
  1  2  1  0  0  0  0
  1 28  1  0  0  0  0
  1 29  1  0  0  0  0
  1 30  1  0  0  0  0
  2  3  1  0  0  0  0
  2  6  1  0  0  0  0
  2 56  1  0  0  0  0
  3  4  1  0  0  0  0
  3 31  1  0  0  0  0
  3 32  1  0  0  0  0
  4  5  1  0  0  0  0
  4 33  1  0  0  0  0
  4 34  1  0  0  0  0
  5 35  1  0  0  0  0
  6 27  1  0  0  0  0
  6  7  1  0  0  0  0
  6 36  1  0  0  0  0
  7  8  1  0  0  0  0
  7 37  1  0  0  0  0
  7 38  1  0  0  0  0
  8  9  1  0  0  0  0
  8 39  1  0  0  0  0
  8 40  1  0  0  0  0
  9 10  1  0  0  0  0
  9 26  1  0  0  0  0
 10 15  1  0  0  0  0
 10 11  2  0  0  0  0
 11 12  1  0  0  0  0
 12 13  2  0  0  0  0
 12 41  1  0  0  0  0
 13 14  1  0  0  0  0
 14 18  1  0  0  0  0
 14 15  2  0  0  0  0
 15 16  1  0  0  0  0
 16 17  2  0  0  0  0
 17 18  1  0  0  0  0
 17 42  1  0  0  0  0
 18 19  1  0  0  0  0
 19 20  1  0  0  0  0
 19 43  1  0  0  0  0
 19 44  1  0  0  0  0
 20 25  1  0  0  0  0
 20 21  1  0  0  0  0
 20 22  1  0  0  0  0
 21 45  1  0  0  0  0
 22 23  1  0  0  0  0
 22 46  1  0  0  0  0
 22 47  1  0  0  0  0
 23 24  1  0  0  0  0
 23 48  1  0  0  0  0
 23 49  1  0  0  0  0
 24 25  1  0  0  0  0
 25 50  1  0  0  0  0
 25 51  1  0  0  0  0
 26 27  1  0  0  0  0
 26 52  1  0  0  0  0
 26 53  1  0  0  0  0
 27 54  1  0  0  0  0
 27 55  1  0  0  0  0
M  CHG  1   2   1
M  END
> <s_m_source_file>
AV-unprocessed.smi

> <i_m_source_file_index>
22

> <i_lp_mmshare_version>
43012

> <i_f3d_flags>
0

> <s_epik_input>
W09IXVtDSDJdW0NIMl1OKFtDSDNdKVtDSF0xW0NIMl1bQ0gyXU4oW0NIMl1bQ0gyXTEpYyhuW2NIXW4yKWMoYzIzKW5bY0hdbjNbQ0gyXVtDQEBdNChbT0hdKVtDSDJdW0NIMl1PW0NIMl00

> <s_epik_cmdline>
J2VwaWtfcHl0aG9uJywgJy1waCcsICc3LjAnLCAnLXRuJywgJzgnLCAnLW1hJywgJzIwMCcsICctbWV0YWxfYmluZGluZycsICctaW1hZScsICc8aW5maWxlLm1hZT4nLCAnLW9tYWUnLCAnPG91dGZpbGUubWFlPic=

> <r_lp_tautomer_probability>
1

> <r_epik_Ionization_Penalty>
0.00317524

> <r_epik_Ionization_Penalty_Charging>
0.00191487

> <r_epik_Ionization_Penalty_Neutral>
0.00126037

> <r_epik_State_Penalty>
-0

> <r_epik_Charging_Adjusted_Penalty>
0.00191487

> <i_epik_Tot_Q>
1

> <i_epik_Tot_abs_Q>
1

> <r_epik_Metal_State_Penalty>
-0

> <b_epik_Metal_Only>
0

> <s_lp_Force_Field>
OPLS_2005

> <r_lp_Energy>
50.3895

> <b_lp_Chiralities_Consistent>
1

> <s_lp_Variant>
AV-unprocessed.smi:22-4

> <Gold.Version>
5.8.1

> <Gold.Id.Protein>
6NUR|6NUR_protein|mol2

> <Gold.PLP.Fitness>
48.7512

> <Gold.PLP.PLP>
-38.0530

> <Gold.PLP.part.hbond>
-5.6370

> <Gold.PLP.part.metal>
0.0000

> <Gold.PLP.part.buried>
-5.8438

> <Gold.PLP.part.nonpolar>
-27.1316

> <Gold.PLP.part.repulsive>
0.0696

> <Gold.PLP.ligand.clash>
0.0000

> <Gold.PLP.ligand.torsion>
0.7827

> <Gold.PLP.Chemscore.Hbond>
3.9175

> <Gold.PLP.Chemscore.CHOScore>
0.0000

> <Gold.PLP.Chemscore.Metal>
0.0000

> <Gold.Chemscore.Hbonds>
donor molecule, donor type, donor heavy atom, donor atom, acceptor molecule, acceptor atom, score
      L1  H     5    35       P1  7921  1.00
      P1  H  6896  6907       L1    13  0.99
      P1  H  6934  6947       L1    21  0.03
      P1  H 10192 10197       L1     5  0.93

> <Gold.PLP.Chemscore.Internal.Correction>
0.5111

> <Gold.Rescore>
     Score         DG    S(hbond)    S(metal)    S(lipo)     H(rot)  DE(clash)    DE(int)     intcor
     17.08     -18.69       3.80        0.00      86.51       3.76       0.83       0.77       ----

> <Gold.Chemscore.Fitness>
17.0787

> <Gold.Chemscore.DG>
-18.6854

> <Gold.Chemscore.ZeroCoef>
-5.4800

> <Gold.Chemscore.Hbond>
3.8039

> <Gold.Chemscore.Metal>
0.0000

> <Gold.Chemscore.Lipo>
86.5081

> <Gold.Chemscore.Internal_Hbond>
0.0000

> <Gold.Chemscore.DEClash>
0.8317

> <Gold.Chemscore.DEInternal>
0.7749

> <Gold.Chemscore.Rot>
3.7583

> <Gold.Chemscore.Internal.Correction>
   9.000000E+99

> <Gold.Chemscore.Hbonds>
donor molecule, donor type, donor heavy atom, donor atom, acceptor molecule, acceptor atom, score
      L1  H     5    35       P1  7921  1.00
      P1  H  6896  6907       L1    13  0.89
      P1  H  6934  6947       L1    21  0.07
      P1  H 10192 10197       L1     5  0.87

> <Gold.Chemscore.Hbond.Weighted>
-12.7052

> <Gold.Chemscore.Metal.Weighted>
-0.0000

> <Gold.Chemscore.Lipo.Weighted>
-10.1214

> <Gold.Chemscore.Internal_Hbond.Weighted>
0.0000

> <Gold.Chemscore.DEClash.Weighted>
0.8317

> <Gold.Chemscore.DEInternal.Weighted>
0.7749

> <Gold.Chemscore.Rot.Weighted>
9.6213

> <Gold.Chemscore.Internal.Correction.Weighted>
   9.000000E+99

> <Gold.Protein.RotatedTorsions>
[ 6907 6896 6895 6894 ] final  -98.39 input  -60.11 | X-H torsion
[ 7974 7965 7964 7962 ] final -134.50 input  175.53 | X-H torsion
[ 8008 7997 7996 7995 ] final  -11.60 input   59.86 | X-H torsion
[ 10167 10162 10161 10158 ] final  144.43 input  -65.29 | X-H torsion
[ 10718 10713 10712 10709 ] final -115.47 input   66.30 | X-H torsion
[ 10763 10752 10751 10750 ] final  -82.94 input  -60.55 | X-H torsion
[ 11005 11000 10999 10996 ] final  108.81 input  -57.11 | X-H torsion

> <Gold.Protein.ActiveResidues>
 VAL166  LYS551  ARG553  GLY616  TRP617  ASP618  TYR619  PRO620  LYS621  CYS622 
 ASP623  PHE694  ASN695  SER759  ASP760  ASP761  ALA762  ILE779  LEU786  VAL792 
 PHE793  MET794  SER795  GLU796  ALA797  LYS798  CYS799  TRP800  GLU811  SER814 

> <Gold.Protein.RotatedAtoms>
  150.7045  134.1201  159.4031 H   0  0  0  0  0  0  0  0  0  0  0  0  # atno 6907 bound_to 6896
  151.9188  135.0305  160.0529 H   0  0  0  0  0  0  0  0  0  0  0  0  # atno 6908 bound_to 6896
  152.2274  133.4996  159.5233 H   0  0  0  0  0  0  0  0  0  0  0  0  # atno 6909 bound_to 6896
  144.9097  140.6879  143.5033 H   0  0  0  0  0  0  0  0  0  0  0  0  # atno 7974 bound_to 7965
  154.5450  140.2298  155.8577 H   0  0  0  0  0  0  0  0  0  0  0  0  # atno 8008 bound_to 7997
  156.1894  140.3081  155.9265 H   0  0  0  0  0  0  0  0  0  0  0  0  # atno 8009 bound_to 7997
  155.3182  140.0439  157.3028 H   0  0  0  0  0  0  0  0  0  0  0  0  # atno 8010 bound_to 7997
  139.4947  144.5972  151.6558 H   0  0  0  0  0  0  0  0  0  0  0  0  # atno 10167 bound_to 10162
  156.0898  130.6082  150.8910 H   0  0  0  0  0  0  0  0  0  0  0  0  # atno 10718 bound_to 10713
  154.5818  135.5573  153.7193 H   0  0  0  0  0  0  0  0  0  0  0  0  # atno 10763 bound_to 10752
  153.0084  135.6322  154.1972 H   0  0  0  0  0  0  0  0  0  0  0  0  # atno 10764 bound_to 10752
  154.1912  135.2882  155.3001 H   0  0  0  0  0  0  0  0  0  0  0  0  # atno 10765 bound_to 10752
  139.8850  134.9441  156.6029 H   0  0  0  0  0  0  0  0  0  0  0  0  # atno 11005 bound_to 11000
  145.3476  139.1715  143.4452 LP  0  0  0  0  0  0  0  0  0  0  0  0  # atno 17320 bound_to 7965
  146.3152  140.3524  142.8657 LP  0  0  0  0  0  0  0  0  0  0  0  0  # atno 17321 bound_to 7965
  140.5613  144.0264  150.6171 LP  0  0  0  0  0  0  0  0  0  0  0  0  # atno 17342 bound_to 10162
  140.3351  143.3054  152.0647 LP  0  0  0  0  0  0  0  0  0  0  0  0  # atno 17343 bound_to 10162
  157.6043  131.0940  150.8906 LP  0  0  0  0  0  0  0  0  0  0  0  0  # atno 17370 bound_to 10713
  156.9057  130.5263  149.5281 LP  0  0  0  0  0  0  0  0  0  0  0  0  # atno 17371 bound_to 10713
  140.7870  133.8614  155.8614 LP  0  0  0  0  0  0  0  0  0  0  0  0  # atno 17394 bound_to 11000
  140.9711  134.1530  157.4575 LP  0  0  0  0  0  0  0  0  0  0  0  0  # atno 17395 bound_to 11000

$$$$
