AV-unprocessed.smi:1160|AV-procd|sdf|4916|dock6
  -GOLD-   22720 3493D 1   1.00000     0.00000
 Structure written by MMmdl.
 44 45  0  0  0  0  0  0  0  0  1 V2000
  146.1989  133.2933  151.3486 C   0  0  0  0  0  0  0  0  0  0  0  0
  146.6641  132.6447  152.6546 C   0  0  0  0  0  0  0  0  0  0  0  0
  147.7200  133.4279  153.2030 O   0  0  0  0  0  0  0  0  0  0  0  0
  148.4760  132.8971  154.2313 C   0  0  0  0  0  0  0  0  0  0  0  0
  148.2287  131.6216  154.6218 N   0  0  0  0  0  0  0  0  0  0  0  0
  148.9696  131.1003  155.6207 C   0  0  0  0  0  0  0  0  0  0  0  0
  149.9919  131.8124  156.2735 C   0  0  0  0  0  0  0  0  0  0  0  0
  150.2503  133.1358  155.8708 C   0  0  0  0  0  0  0  0  0  0  0  0
  149.4706  133.7032  154.8333 C   0  0  0  0  0  0  0  0  0  0  0  0
  149.6493  135.0246  154.3365 N   0  0  0  0  0  0  0  0  0  0  0  0
  150.3806  136.0293  154.8484 C   0  0  0  0  0  0  0  0  0  0  0  0
  151.0742  135.9622  155.8625 O   0  0  0  0  0  0  0  0  0  0  0  0
  150.2455  137.1422  154.1128 N   0  0  0  0  0  0  0  0  0  0  0  0
  150.8711  138.4325  154.3893 C   0  0  0  0  0  0  0  0  0  0  0  0
  152.3168  138.2113  154.8826 C   0  0  0  0  0  0  0  0  0  0  0  0
  152.9435  139.5259  155.3797 C   0  0  0  0  0  0  0  0  0  0  0  0
  152.0862  140.0926  156.4277 N   0  0  0  0  0  0  0  0  0  0  0  0
  152.4495  140.1234  157.7325 C   0  0  0  0  0  0  0  0  0  0  0  0
  151.4716  140.6803  158.7694 C   0  0  0  0  0  0  0  0  0  0  0  0
  153.5431  139.7199  158.1284 O   0  0  0  0  0  0  0  0  0  0  0  0
  150.7713  140.4794  155.9006 C   0  0  0  0  0  0  0  0  0  0  0  0
  150.0331  139.2151  155.4242 C   0  0  0  0  0  0  0  0  0  0  0  0
  145.3925  132.7176  150.8938 H   0  0  0  0  0  0  0  0  0  0  0  0
  147.0155  133.3514  150.6286 H   0  0  0  0  0  0  0  0  0  0  0  0
  145.8315  134.3051  151.5221 H   0  0  0  0  0  0  0  0  0  0  0  0
  145.8285  132.5902  153.3541 H   0  0  0  0  0  0  0  0  0  0  0  0
  147.0063  131.6278  152.4550 H   0  0  0  0  0  0  0  0  0  0  0  0
  148.7449  130.0826  155.9035 H   0  0  0  0  0  0  0  0  0  0  0  0
  150.5683  131.3530  157.0626 H   0  0  0  0  0  0  0  0  0  0  0  0
  151.0462  133.6776  156.3568 H   0  0  0  0  0  0  0  0  0  0  0  0
  149.0856  135.2561  153.5316 H   0  0  0  0  0  0  0  0  0  0  0  0
  149.6503  137.0979  153.2986 H   0  0  0  0  0  0  0  0  0  0  0  0
  150.9247  139.0340  153.4800 H   0  0  0  0  0  0  0  0  0  0  0  0
  152.3247  137.4836  155.6957 H   0  0  0  0  0  0  0  0  0  0  0  0
  152.9246  137.7871  154.0825 H   0  0  0  0  0  0  0  0  0  0  0  0
  153.9642  139.3453  155.7190 H   0  0  0  0  0  0  0  0  0  0  0  0
  153.0271  140.2370  154.5566 H   0  0  0  0  0  0  0  0  0  0  0  0
  150.5434  140.1085  158.7733 H   0  0  0  0  0  0  0  0  0  0  0  0
  151.2445  141.7265  158.5635 H   0  0  0  0  0  0  0  0  0  0  0  0
  151.9008  140.6245  159.7703 H   0  0  0  0  0  0  0  0  0  0  0  0
  150.1539  141.0195  156.6170 H   0  0  0  0  0  0  0  0  0  0  0  0
  150.9109  141.1652  155.0637 H   0  0  0  0  0  0  0  0  0  0  0  0
  149.0681  139.4871  154.9950 H   0  0  0  0  0  0  0  0  0  0  0  0
  149.8201  138.5809  156.2864 H   0  0  0  0  0  0  0  0  0  0  0  0
  1  2  1  0  0  0  0
  1 23  1  0  0  0  0
  1 24  1  0  0  0  0
  1 25  1  0  0  0  0
  2  3  1  0  0  0  0
  2 26  1  0  0  0  0
  2 27  1  0  0  0  0
  3  4  1  0  0  0  0
  4  9  1  0  0  0  0
  4  5  2  0  0  0  0
  5  6  1  0  0  0  0
  6  7  2  0  0  0  0
  6 28  1  0  0  0  0
  7  8  1  0  0  0  0
  7 29  1  0  0  0  0
  8  9  2  0  0  0  0
  8 30  1  0  0  0  0
  9 10  1  0  0  0  0
 10 11  1  0  0  0  0
 10 31  1  0  0  0  0
 11 12  2  0  0  0  0
 11 13  1  0  0  0  0
 13 14  1  0  0  0  0
 13 32  1  0  0  0  0
 14 22  1  0  0  0  0
 14 15  1  0  0  0  0
 14 33  1  0  0  0  0
 15 16  1  0  0  0  0
 15 34  1  0  0  0  0
 15 35  1  0  0  0  0
 16 17  1  0  0  0  0
 16 36  1  0  0  0  0
 16 37  1  0  0  0  0
 17 18  1  0  0  0  0
 17 21  1  0  0  0  0
 18 19  1  0  0  0  0
 18 20  2  0  0  0  0
 19 38  1  0  0  0  0
 19 39  1  0  0  0  0
 19 40  1  0  0  0  0
 21 22  1  0  0  0  0
 21 41  1  0  0  0  0
 21 42  1  0  0  0  0
 22 43  1  0  0  0  0
 22 44  1  0  0  0  0
M  END
> <s_m_source_file>
AV-unprocessed.smi

> <i_m_source_file_index>
1160

> <i_lp_mmshare_version>
43012

> <i_f3d_flags>
0

> <s_epik_input>
W0NIM11bQ0gyXU9jMW5bY0hdW2NIXVtjSF1jMVtOSF1DKD1PKVtOSF1bQ0hdMltDSDJdW0NIMl1OKEMoPU8pW0NIM10pW0NIMl1bQ0gyXTI=

> <s_epik_cmdline>
J2VwaWtfcHl0aG9uJywgJy1waCcsICc3LjAnLCAnLXRuJywgJzgnLCAnLW1hJywgJzIwMCcsICctbWV0YWxfYmluZGluZycsICctaW1hZScsICc8aW5maWxlLm1hZT4nLCAnLW9tYWUnLCAnPG91dGZpbGUubWFlPic=

> <r_lp_tautomer_probability>
1

> <r_epik_Ionization_Penalty>
0.00011666

> <r_epik_Ionization_Penalty_Charging>
0

> <r_epik_Ionization_Penalty_Neutral>
0.00011666

> <r_epik_State_Penalty>
-0

> <r_epik_Charging_Adjusted_Penalty>
0

> <i_epik_Tot_Q>
0

> <i_epik_Tot_abs_Q>
0

> <r_epik_Metal_State_Penalty>
-0

> <b_epik_Metal_Only>
0

> <s_lp_Force_Field>
OPLS_2005

> <r_lp_Energy>
24.4955

> <b_lp_Chiralities_Consistent>
1

> <s_lp_Variant>
AV-unprocessed.smi:1160-1

> <Gold.Version>
5.8.1

> <Gold.Id.Protein>
6NUR|6NUR_protein|mol2

> <Gold.PLP.Fitness>
46.1447

> <Gold.PLP.PLP>
-35.4517

> <Gold.PLP.part.hbond>
-5.6445

> <Gold.PLP.part.metal>
0.0000

> <Gold.PLP.part.buried>
2.1630

> <Gold.PLP.part.nonpolar>
-31.7935

> <Gold.PLP.part.repulsive>
0.4185

> <Gold.PLP.ligand.clash>
0.0000

> <Gold.PLP.ligand.torsion>
0.3952

> <Gold.PLP.Chemscore.Hbond>
3.8209

> <Gold.PLP.Chemscore.CHOScore>
0.0000

> <Gold.PLP.Chemscore.Metal>
0.0000

> <Gold.Chemscore.Hbonds>
donor molecule, donor type, donor heavy atom, donor atom, acceptor molecule, acceptor atom, score
      L1  H    10    31       P1  7948  0.93
      L1  H    13    32       P1  7948  1.00
      P1  H  7997  8009       L1    20  1.00
      P1  H 10752 10765       L1    12  0.43

> <Gold.PLP.Chemscore.Internal.Correction>
0.0207

> <Gold.Rescore>
     Score         DG    S(hbond)    S(metal)    S(lipo)     H(rot)  DE(clash)    DE(int)     intcor
     14.96     -18.16       2.43        0.00      70.36       1.43       0.19       3.01       ----

> <Gold.Chemscore.Fitness>
14.9567

> <Gold.Chemscore.DG>
-18.1582

> <Gold.Chemscore.ZeroCoef>
-5.4800

> <Gold.Chemscore.Hbond>
2.4269

> <Gold.Chemscore.Metal>
0.0000

> <Gold.Chemscore.Lipo>
70.3628

> <Gold.Chemscore.Internal_Hbond>
0.0000

> <Gold.Chemscore.DEClash>
0.1948

> <Gold.Chemscore.DEInternal>
3.0067

> <Gold.Chemscore.Rot>
1.4297

> <Gold.Chemscore.Internal.Correction>
   9.000000E+99

> <Gold.Chemscore.Hbonds>
donor molecule, donor type, donor heavy atom, donor atom, acceptor molecule, acceptor atom, score
      L1  H    10    31       P1  7948  0.40
      L1  H    13    32       P1  7948  0.62
      P1  H  7997  8009       L1    20  0.57
      P1  H 10752 10765       L1    12  0.07

> <Gold.Chemscore.Hbond.Weighted>
-8.1057

> <Gold.Chemscore.Metal.Weighted>
-0.0000

> <Gold.Chemscore.Lipo.Weighted>
-8.2324

> <Gold.Chemscore.Internal_Hbond.Weighted>
0.0000

> <Gold.Chemscore.DEClash.Weighted>
0.1948

> <Gold.Chemscore.DEInternal.Weighted>
3.0067

> <Gold.Chemscore.Rot.Weighted>
3.6600

> <Gold.Chemscore.Internal.Correction.Weighted>
   9.000000E+99

> <Gold.Protein.RotatedTorsions>
[ 6907 6896 6895 6894 ] final  -50.56 input  -60.11 | X-H torsion
[ 7974 7965 7964 7962 ] final  142.90 input  175.53 | X-H torsion
[ 8008 7997 7996 7995 ] final  155.45 input   59.86 | X-H torsion
[ 10167 10162 10161 10158 ] final -101.07 input  -65.29 | X-H torsion
[ 10718 10713 10712 10709 ] final -139.12 input   66.30 | X-H torsion
[ 10763 10752 10751 10750 ] final -164.43 input  -60.55 | X-H torsion
[ 11005 11000 10999 10996 ] final  -70.68 input  -57.11 | X-H torsion

> <Gold.Protein.ActiveResidues>
 VAL166  LYS551  ARG553  GLY616  TRP617  ASP618  TYR619  PRO620  LYS621  CYS622 
 ASP623  PHE694  ASN695  SER759  ASP760  ASP761  ALA762  ILE779  LEU786  VAL792 
 PHE793  MET794  SER795  GLU796  ALA797  LYS798  CYS799  TRP800  GLU811  SER814 

> <Gold.Protein.RotatedAtoms>
  150.8695  134.8066  159.7143 H   0  0  0  0  0  0  0  0  0  0  0  0  # atno 6907 bound_to 6896
  152.4704  134.4970  159.9723 H   0  0  0  0  0  0  0  0  0  0  0  0  # atno 6908 bound_to 6896
  151.5061  133.3456  159.2912 H   0  0  0  0  0  0  0  0  0  0  0  0  # atno 6909 bound_to 6896
  144.8967  139.5480  143.5773 H   0  0  0  0  0  0  0  0  0  0  0  0  # atno 7974 bound_to 7965
  156.2477  140.1939  156.6802 H   0  0  0  0  0  0  0  0  0  0  0  0  # atno 8008 bound_to 7997
  154.6327  140.0593  156.9778 H   0  0  0  0  0  0  0  0  0  0  0  0  # atno 8009 bound_to 7997
  155.1685  140.3266  155.4400 H   0  0  0  0  0  0  0  0  0  0  0  0  # atno 8010 bound_to 7997
  140.2452  143.3510  152.0765 H   0  0  0  0  0  0  0  0  0  0  0  0  # atno 10167 bound_to 10162
  156.3071  130.7461  151.1527 H   0  0  0  0  0  0  0  0  0  0  0  0  # atno 10718 bound_to 10713
  154.7029  135.2991  154.9314 H   0  0  0  0  0  0  0  0  0  0  0  0  # atno 10763 bound_to 10752
  154.0241  135.6679  153.4779 H   0  0  0  0  0  0  0  0  0  0  0  0  # atno 10764 bound_to 10752
  153.0695  135.5069  154.8183 H   0  0  0  0  0  0  0  0  0  0  0  0  # atno 10765 bound_to 10752
  141.1578  133.6796  156.6789 H   0  0  0  0  0  0  0  0  0  0  0  0  # atno 11005 bound_to 11000
  146.3085  139.7664  142.9037 LP  0  0  0  0  0  0  0  0  0  0  0  0  # atno 17320 bound_to 7965
  145.3687  141.0339  143.3243 LP  0  0  0  0  0  0  0  0  0  0  0  0  # atno 17321 bound_to 7965
  139.5064  144.6813  151.6002 LP  0  0  0  0  0  0  0  0  0  0  0  0  # atno 17342 bound_to 10162
  140.6083  143.9484  150.6434 LP  0  0  0  0  0  0  0  0  0  0  0  0  # atno 17343 bound_to 10162
  157.7382  131.0543  150.5309 LP  0  0  0  0  0  0  0  0  0  0  0  0  # atno 17370 bound_to 10713
  156.5443  130.4216  149.6138 LP  0  0  0  0  0  0  0  0  0  0  0  0  # atno 17371 bound_to 10713
  140.3117  134.8080  157.4182 LP  0  0  0  0  0  0  0  0  0  0  0  0  # atno 17394 bound_to 11000
  140.1173  134.5267  155.8214 LP  0  0  0  0  0  0  0  0  0  0  0  0  # atno 17395 bound_to 11000

$$$$
