AV-unprocessed.smi:73|AV-procd|sdf|762|dock3
  -GOLD-   2262017103D 1   1.00000     0.00000
 Structure written by MMmdl.
 35 36  0  0  0  0  0  0  0  0  2 V2000
  150.4713  142.4974  158.2415 C   0  0  0  0  0  0  0  0  0  0  0  0
  150.9269  142.0203  156.8532 C   0  0  0  0  0  0  0  0  0  0  0  0
  150.5588  140.6390  156.4803 N   0  0  0  0  0  0  0  0  0  0  0  0
  151.5749  140.1154  155.5496 C   0  0  0  0  0  0  0  0  0  0  0  0
  151.4240  138.6574  155.2481 C   0  0  0  0  0  0  0  0  0  0  0  0
  152.2531  137.8850  154.5414 N   0  0  0  0  0  0  0  0  0  0  0  0
  151.6854  136.6302  154.5400 N   0  0  0  0  0  0  0  0  0  0  0  0
  150.5583  136.7406  155.2473 C   0  0  0  0  0  0  0  0  0  0  0  0
  149.5729  135.6653  155.5534 C   0  0  0  0  0  0  0  0  0  0  0  0
  150.3386  137.9937  155.7231 O   0  0  0  0  0  0  0  0  0  0  0  0
  149.2143  140.5441  155.8657 C   0  0  1  0  0  0  0  0  0  0  0  0
  148.1404  141.4079  156.5877 C   0  0  0  0  0  0  0  0  0  0  0  0
  147.5426  142.3193  155.6000 N   0  3  0  0  0  0  0  0  0  0  0  0
  147.7365  141.7011  154.2900 C   0  0  0  0  0  0  0  0  0  0  0  0
  149.1010  141.0286  154.4000 C   0  0  2  0  0  0  0  0  0  0  0  0
  149.1653  139.9541  153.4842 O   0  0  0  0  0  0  0  0  0  0  0  0
  149.8566  141.7818  154.1784 H   0  0  0  0  0  0  0  0  0  0  0  0
  151.0320  143.3859  158.5328 H   0  0  0  0  0  0  0  0  0  0  0  0
  150.6546  141.7355  158.9997 H   0  0  0  0  0  0  0  0  0  0  0  0
  149.4213  142.7756  158.2795 H   0  0  0  0  0  0  0  0  0  0  0  0
  150.5973  142.7208  156.0849 H   0  0  0  0  0  0  0  0  0  0  0  0
  152.0120  142.1208  156.8698 H   0  0  0  0  0  0  0  0  0  0  0  0
  151.5437  140.6248  154.5889 H   0  0  0  0  0  0  0  0  0  0  0  0
  152.5747  140.2946  155.9481 H   0  0  0  0  0  0  0  0  0  0  0  0
  149.5075  134.9659  154.7196 H   0  0  0  0  0  0  0  0  0  0  0  0
  148.5856  136.0942  155.7276 H   0  0  0  0  0  0  0  0  0  0  0  0
  149.8820  135.1209  156.4457 H   0  0  0  0  0  0  0  0  0  0  0  0
  148.8782  139.5062  155.9114 H   0  0  0  0  0  0  0  0  0  0  0  0
  147.3615  140.7686  157.0048 H   0  0  0  0  0  0  0  0  0  0  0  0
  148.5387  142.0205  157.3966 H   0  0  0  0  0  0  0  0  0  0  0  0
  146.5667  142.4939  155.7926 H   0  0  0  0  0  0  0  0  0  0  0  0
  146.9462  140.9636  154.1394 H   0  0  0  0  0  0  0  0  0  0  0  0
  147.6832  142.4303  153.4810 H   0  0  0  0  0  0  0  0  0  0  0  0
  149.4497  140.2888  152.6468 H   0  0  0  0  0  0  0  0  0  0  0  0
  148.0584  143.1877  155.6187 H   0  0  0  0  0  0  0  0  0  0  0  0
  1  2  1  0  0  0  0
  1 18  1  0  0  0  0
  1 19  1  0  0  0  0
  1 20  1  0  0  0  0
  2  3  1  0  0  0  0
  2 21  1  0  0  0  0
  2 22  1  0  0  0  0
  3  4  1  0  0  0  0
  3 11  1  0  0  0  0
  4  5  1  0  0  0  0
  4 23  1  0  0  0  0
  4 24  1  0  0  0  0
  5 10  1  0  0  0  0
  5  6  2  0  0  0  0
  6  7  1  0  0  0  0
  7  8  2  0  0  0  0
  8  9  1  0  0  0  0
  8 10  1  0  0  0  0
  9 25  1  0  0  0  0
  9 26  1  0  0  0  0
  9 27  1  0  0  0  0
 11 15  1  0  0  0  0
 11 12  1  0  0  0  0
 11 28  1  0  0  0  0
 12 13  1  0  0  0  0
 12 29  1  0  0  0  0
 12 30  1  0  0  0  0
 13 14  1  0  0  0  0
 13 31  1  0  0  0  0
 13 35  1  0  0  0  0
 14 15  1  0  0  0  0
 14 32  1  0  0  0  0
 14 33  1  0  0  0  0
 15 17  1  0  0  0  0
 15 16  1  0  0  0  0
 16 34  1  0  0  0  0
M  CHG  1  13   1
M  END
> <s_m_source_file>
AV-unprocessed.smi

> <i_m_source_file_index>
73

> <i_lp_mmshare_version>
43012

> <i_f3d_flags>
0

> <s_epik_input>
W09IXVtDQEBIXTFbQ0gyXVtOSF1bQ0gyXVtDQEhdMU4oW0NIMl1bQ0gzXSlbQ0gyXWMybm5jKG8yKVtDSDNd

> <s_epik_cmdline>
J2VwaWtfcHl0aG9uJywgJy1waCcsICc3LjAnLCAnLXRuJywgJzgnLCAnLW1hJywgJzIwMCcsICctbWV0YWxfYmluZGluZycsICctaW1hZScsICc8aW5maWxlLm1hZT4nLCAnLW9tYWUnLCAnPG91dGZpbGUubWFlPic=

> <r_lp_tautomer_probability>
1

> <r_epik_Ionization_Penalty>
0.00160433

> <r_epik_Ionization_Penalty_Charging>
0.000122314

> <r_epik_Ionization_Penalty_Neutral>
0.00148202

> <r_epik_State_Penalty>
-0

> <r_epik_Charging_Adjusted_Penalty>
0.000122314

> <i_epik_Tot_Q>
1

> <i_epik_Tot_abs_Q>
1

> <r_epik_Metal_State_Penalty>
-0

> <b_epik_Metal_Only>
0

> <s_lp_Force_Field>
OPLS_2005

> <r_lp_Energy>
41.961

> <b_lp_Chiralities_Consistent>
1

> <s_lp_Variant>
AV-unprocessed.smi:73-4

> <Gold.Version>
5.8.1

> <Gold.Id.Protein>
6NUR|6NUR_protein|mol2

> <Gold.PLP.Fitness>
36.9974

> <Gold.PLP.PLP>
-26.2259

> <Gold.PLP.part.hbond>
-3.3498

> <Gold.PLP.part.metal>
0.0000

> <Gold.PLP.part.buried>
-5.7091

> <Gold.PLP.part.nonpolar>
-18.7611

> <Gold.PLP.part.repulsive>
0.3687

> <Gold.PLP.ligand.clash>
0.0000

> <Gold.PLP.ligand.torsion>
0.6296

> <Gold.PLP.Chemscore.Hbond>
3.9913

> <Gold.PLP.Chemscore.CHOScore>
0.0000

> <Gold.PLP.Chemscore.Metal>
0.0000

> <Gold.Chemscore.Hbonds>
donor molecule, donor type, donor heavy atom, donor atom, acceptor molecule, acceptor atom, score
      L1  H    13    35       P1  8028  2.00
      L1  H    16    34       P1  7957  0.92
      P1  H 10752 10763       L1     7  1.00

> <Gold.PLP.Chemscore.Internal.Correction>
0.0570

> <Gold.Rescore>
     Score         DG    S(hbond)    S(metal)    S(lipo)     H(rot)  DE(clash)    DE(int)     intcor
     12.19     -14.22       2.80        0.00      49.56       2.51       0.02       2.02       ----

> <Gold.Chemscore.Fitness>
12.1865

> <Gold.Chemscore.DG>
-14.2228

> <Gold.Chemscore.ZeroCoef>
-5.4800

> <Gold.Chemscore.Hbond>
2.8014

> <Gold.Chemscore.Metal>
0.0000

> <Gold.Chemscore.Lipo>
49.5648

> <Gold.Chemscore.Internal_Hbond>
0.0000

> <Gold.Chemscore.DEClash>
0.0170

> <Gold.Chemscore.DEInternal>
2.0193

> <Gold.Chemscore.Rot>
2.5051

> <Gold.Chemscore.Internal.Correction>
   9.000000E+99

> <Gold.Chemscore.Hbonds>
donor molecule, donor type, donor heavy atom, donor atom, acceptor molecule, acceptor atom, score
      L1  H    13    35       P1  8028  0.74
      L1  H    16    34       P1  7957  0.84
      P1  H 10752 10763       L1     7  0.49

> <Gold.Chemscore.Hbond.Weighted>
-9.3568

> <Gold.Chemscore.Metal.Weighted>
-0.0000

> <Gold.Chemscore.Lipo.Weighted>
-5.7991

> <Gold.Chemscore.Internal_Hbond.Weighted>
0.0000

> <Gold.Chemscore.DEClash.Weighted>
0.0170

> <Gold.Chemscore.DEInternal.Weighted>
2.0193

> <Gold.Chemscore.Rot.Weighted>
6.4131

> <Gold.Chemscore.Internal.Correction.Weighted>
   9.000000E+99

> <Gold.Protein.RotatedTorsions>
[ 6907 6896 6895 6894 ] final  128.76 input  -60.11 | X-H torsion
[ 7974 7965 7964 7962 ] final -153.14 input  175.53 | X-H torsion
[ 8008 7997 7996 7995 ] final  139.45 input   59.86 | X-H torsion
[ 10167 10162 10161 10158 ] final  -17.18 input  -65.29 | X-H torsion
[ 10718 10713 10712 10709 ] final   50.23 input   66.30 | X-H torsion
[ 10763 10752 10751 10750 ] final   61.53 input  -60.55 | X-H torsion
[ 11005 11000 10999 10996 ] final -150.14 input  -57.11 | X-H torsion

> <Gold.Protein.ActiveResidues>
 VAL166  LYS551  ARG553  GLY616  TRP617  ASP618  TYR619  PRO620  LYS621  CYS622 
 ASP623  PHE694  ASN695  SER759  ASP760  ASP761  ALA762  ILE779  LEU786  VAL792 
 PHE793  MET794  SER795  GLU796  ALA797  LYS798  CYS799  TRP800  GLU811  SER814 

> <Gold.Protein.RotatedAtoms>
  152.3689  133.6393  159.6071 H   0  0  0  0  0  0  0  0  0  0  0  0  # atno 6907 bound_to 6896
  150.7654  133.9302  159.3433 H   0  0  0  0  0  0  0  0  0  0  0  0  # atno 6908 bound_to 6896
  151.7128  135.0910  160.0322 H   0  0  0  0  0  0  0  0  0  0  0  0  # atno 6909 bound_to 6896
  144.7756  140.4567  143.5875 H   0  0  0  0  0  0  0  0  0  0  0  0  # atno 7974 bound_to 7965
  156.2989  140.2367  156.4239 H   0  0  0  0  0  0  0  0  0  0  0  0  # atno 8008 bound_to 7997
  154.8331  140.0432  157.1510 H   0  0  0  0  0  0  0  0  0  0  0  0  # atno 8009 bound_to 7997
  154.9186  140.3000  155.5232 H   0  0  0  0  0  0  0  0  0  0  0  0  # atno 8010 bound_to 7997
  140.7244  143.5042  150.9831 H   0  0  0  0  0  0  0  0  0  0  0  0  # atno 10167 bound_to 10162
  157.4865  130.8348  149.8152 H   0  0  0  0  0  0  0  0  0  0  0  0  # atno 10718 bound_to 10713
  152.9953  135.5497  154.6048 H   0  0  0  0  0  0  0  0  0  0  0  0  # atno 10763 bound_to 10752
  154.5381  135.2818  155.1122 H   0  0  0  0  0  0  0  0  0  0  0  0  # atno 10764 bound_to 10752
  154.2410  135.6416  153.5260 H   0  0  0  0  0  0  0  0  0  0  0  0  # atno 10765 bound_to 10752
  140.7434  134.3489  157.5142 H   0  0  0  0  0  0  0  0  0  0  0  0  # atno 11005 bound_to 11000
  145.6194  139.1522  143.3031 LP  0  0  0  0  0  0  0  0  0  0  0  0  # atno 17320 bound_to 7965
  146.1934  140.6306  142.9135 LP  0  0  0  0  0  0  0  0  0  0  0  0  # atno 17321 bound_to 7965
  139.8752  143.7141  152.3162 LP  0  0  0  0  0  0  0  0  0  0  0  0  # atno 17342 bound_to 10162
  139.7404  144.7561  151.0661 LP  0  0  0  0  0  0  0  0  0  0  0  0  # atno 17343 bound_to 10162
  156.0149  130.3817  150.2142 LP  0  0  0  0  0  0  0  0  0  0  0  0  # atno 17370 bound_to 10713
  157.0329  131.0013  151.3307 LP  0  0  0  0  0  0  0  0  0  0  0  0  # atno 17371 bound_to 10713
  139.8801  134.9095  156.2992 LP  0  0  0  0  0  0  0  0  0  0  0  0  # atno 17394 bound_to 11000
  140.9817  133.7263  156.0681 LP  0  0  0  0  0  0  0  0  0  0  0  0  # atno 17395 bound_to 11000

$$$$
