AV-unprocessed.smi:1487|AV-procd|sdf|6015|dock5
  -GOLD-   22720 6113D 1   1.00000     0.00000
 Structure written by MMmdl.
 49 51  0  0  0  0  0  0  0  0  3 V2000
  152.7714  143.4003  161.6964 C   0  0  0  0  0  0  0  0  0  0  0  0
  152.3133  142.8842  160.3428 C   0  0  0  0  0  0  0  0  0  0  0  0
  152.6942  141.5802  159.9537 C   0  0  0  0  0  0  0  0  0  0  0  0
  152.2580  141.1359  158.7112 C   0  0  0  0  0  0  0  0  0  0  0  0
  152.4601  139.9209  158.0538 N   0  3  0  0  0  0  0  0  0  0  0  0
  151.8342  139.9481  156.8450 C   0  0  0  0  0  0  0  0  0  0  0  0
  151.2307  141.1617  156.7214 N   0  0  0  0  0  0  0  0  0  0  0  0
  150.4405  141.7022  155.6058 C   0  0  0  0  0  0  0  0  0  0  0  0
  149.4875  140.6653  154.9773 C   0  0  2  0  0  0  0  0  0  0  0  0
  150.2024  140.0179  153.9442 O   0  0  0  0  0  0  0  0  0  0  0  0
  148.1975  141.2860  154.3938 C   0  0  0  0  0  0  0  0  0  0  0  0
  147.4322  142.0933  155.3794 N   0  3  1  0  0  0  0  0  0  0  0  0
  146.1491  142.6255  154.8446 C   0  0  0  0  0  0  0  0  0  0  0  0
  145.4633  143.5513  155.8638 C   0  0  0  0  0  0  0  0  0  0  0  0
  145.2352  142.8290  157.1973 C   0  0  0  0  0  0  0  0  0  0  0  0
  146.5654  142.2637  157.7152 C   0  0  1  0  0  0  0  0  0  0  0  0
  146.3341  141.5142  158.8883 O   0  0  0  0  0  0  0  0  0  0  0  0
  147.2276  141.3623  156.6574 C   0  0  0  0  0  0  0  0  0  0  0  0
  151.4722  141.9395  157.8616 C   0  0  0  0  0  0  0  0  0  0  0  0
  151.0905  143.2281  158.2300 C   0  0  0  0  0  0  0  0  0  0  0  0
  151.5213  143.6971  159.4916 C   0  0  0  0  0  0  0  0  0  0  0  0
  151.1158  145.0971  159.9209 C   0  0  0  0  0  0  0  0  0  0  0  0
  153.3539  142.6513  162.2335 H   0  0  0  0  0  0  0  0  0  0  0  0
  151.9142  143.6624  162.3172 H   0  0  0  0  0  0  0  0  0  0  0  0
  153.3965  144.2856  161.5768 H   0  0  0  0  0  0  0  0  0  0  0  0
  153.2988  140.9562  160.5959 H   0  0  0  0  0  0  0  0  0  0  0  0
  151.8233  139.1518  156.1144 H   0  0  0  0  0  0  0  0  0  0  0  0
  149.8983  142.5866  155.9404 H   0  0  0  0  0  0  0  0  0  0  0  0
  151.1519  142.0515  154.8560 H   0  0  0  0  0  0  0  0  0  0  0  0
  149.2475  139.9235  155.7383 H   0  0  0  0  0  0  0  0  0  0  0  0
  149.7091  140.0806  153.1405 H   0  0  0  0  0  0  0  0  0  0  0  0
  148.4234  141.9145  153.5318 H   0  0  0  0  0  0  0  0  0  0  0  0
  147.5684  140.4748  154.0234 H   0  0  0  0  0  0  0  0  0  0  0  0
  146.3200  143.1859  153.9268 H   0  0  0  0  0  0  0  0  0  0  0  0
  145.4881  141.7960  154.5888 H   0  0  0  0  0  0  0  0  0  0  0  0
  146.0783  144.4374  156.0269 H   0  0  0  0  0  0  0  0  0  0  0  0
  144.5117  143.9045  155.4655 H   0  0  0  0  0  0  0  0  0  0  0  0
  144.8015  143.5147  157.9265 H   0  0  0  0  0  0  0  0  0  0  0  0
  144.5134  142.0226  157.0567 H   0  0  0  0  0  0  0  0  0  0  0  0
  147.2384  143.0850  157.9659 H   0  0  0  0  0  0  0  0  0  0  0  0
  145.5151  141.0513  158.7956 H   0  0  0  0  0  0  0  0  0  0  0  0
  146.6155  140.4774  156.4731 H   0  0  0  0  0  0  0  0  0  0  0  0
  148.1881  141.0103  157.0370 H   0  0  0  0  0  0  0  0  0  0  0  0
  150.4890  143.8520  157.5859 H   0  0  0  0  0  0  0  0  0  0  0  0
  150.5197  145.5934  159.1544 H   0  0  0  0  0  0  0  0  0  0  0  0
  151.9969  145.7118  160.1067 H   0  0  0  0  0  0  0  0  0  0  0  0
  150.5202  145.0599  160.8333 H   0  0  0  0  0  0  0  0  0  0  0  0
  148.0115  142.8890  155.6054 H   0  0  0  0  0  0  0  0  0  0  0  0
  152.9912  139.1317  158.4000 H   0  0  0  0  0  0  0  0  0  0  0  0
  1  2  1  0  0  0  0
  1 23  1  0  0  0  0
  1 24  1  0  0  0  0
  1 25  1  0  0  0  0
  2 21  1  0  0  0  0
  2  3  2  0  0  0  0
  3  4  1  0  0  0  0
  3 26  1  0  0  0  0
  4 19  2  0  0  0  0
  4  5  1  0  0  0  0
  5  6  2  0  0  0  0
  5 49  1  0  0  0  0
  6  7  1  0  0  0  0
  6 27  1  0  0  0  0
  7  8  1  0  0  0  0
  7 19  1  0  0  0  0
  8  9  1  0  0  0  0
  8 28  1  0  0  0  0
  8 29  1  0  0  0  0
  9 10  1  0  0  0  0
  9 11  1  0  0  0  0
  9 30  1  0  0  0  0
 10 31  1  0  0  0  0
 11 12  1  0  0  0  0
 11 32  1  0  0  0  0
 11 33  1  0  0  0  0
 12 18  1  0  0  0  0
 12 13  1  0  0  0  0
 12 48  1  0  0  0  0
 13 14  1  0  0  0  0
 13 34  1  0  0  0  0
 13 35  1  0  0  0  0
 14 15  1  0  0  0  0
 14 36  1  0  0  0  0
 14 37  1  0  0  0  0
 15 16  1  0  0  0  0
 15 38  1  0  0  0  0
 15 39  1  0  0  0  0
 16 17  1  0  0  0  0
 16 18  1  0  0  0  0
 16 40  1  0  0  0  0
 17 41  1  0  0  0  0
 18 42  1  0  0  0  0
 18 43  1  0  0  0  0
 19 20  1  0  0  0  0
 20 21  2  0  0  0  0
 20 44  1  0  0  0  0
 21 22  1  0  0  0  0
 22 45  1  0  0  0  0
 22 46  1  0  0  0  0
 22 47  1  0  0  0  0
M  CHG  1   5   1
M  CHG  1  12   1
M  END
> <s_m_source_file>
AV-unprocessed.smi

> <i_m_source_file_index>
1487

> <i_lp_mmshare_version>
43012

> <i_f3d_flags>
0

> <s_epik_input>
W0NIM11jKFtjSF0xKWMoW0NIM10pW2NIXWMoYzEyKW4oW2NIXW4yKVtDSDJdW0NASF0oW09IXSlbQ0gyXU4zW0NIMl1bQ0gyXVtDSDJdW0NAQEhdKFtPSF0pW0NIMl0z

> <s_epik_cmdline>
J2VwaWtfcHl0aG9uJywgJy1waCcsICc3LjAnLCAnLXRuJywgJzgnLCAnLW1hJywgJzIwMCcsICctbWV0YWxfYmluZGluZycsICctaW1hZScsICc8aW5maWxlLm1hZT4nLCAnLW9tYWUnLCAnPG91dGZpbGUubWFlPic=

> <r_epik_Ionization_Penalty>
1.1857

> <r_epik_Ionization_Penalty_Charging>
1.1857

> <r_epik_Ionization_Penalty_Neutral>
1.75578e-06

> <r_epik_State_Penalty>
1.26953

> <r_epik_Charging_Adjusted_Penalty>
2.45524

> <i_epik_Tot_Q>
2

> <i_epik_Tot_abs_Q>
2

> <r_epik_Metal_State_Penalty>
5.28243

> <b_epik_Metal_Only>
0

> <s_lp_Force_Field>
OPLS_2005

> <r_lp_Energy>
33.096

> <b_lp_Chiralities_Consistent>
1

> <s_lp_Variant>
AV-unprocessed.smi:1487-9

> <Gold.Version>
5.8.1

> <Gold.Id.Protein>
6NUR|6NUR_protein|mol2

> <Gold.PLP.Fitness>
59.0579

> <Gold.PLP.PLP>
-46.4806

> <Gold.PLP.part.hbond>
-4.0000

> <Gold.PLP.part.metal>
0.0000

> <Gold.PLP.part.buried>
-7.5730

> <Gold.PLP.part.nonpolar>
-34.9909

> <Gold.PLP.part.repulsive>
0.1578

> <Gold.PLP.ligand.clash>
0.0000

> <Gold.PLP.ligand.torsion>
0.7021

> <Gold.PLP.Chemscore.Hbond>
4.6480

> <Gold.PLP.Chemscore.CHOScore>
0.0000

> <Gold.PLP.Chemscore.Metal>
0.0000

> <Gold.Chemscore.Hbonds>
donor molecule, donor type, donor heavy atom, donor atom, acceptor molecule, acceptor atom, score
      L1  H    10    31       P1  7957  1.00
      L1  H    12    48       P1  8028  2.00
      P1  H  6934  6946       L1    17  0.70
      P1  H  7989  7998       L1    10  0.90

> <Gold.PLP.Chemscore.Internal.Correction>
0.0374

> <Gold.Rescore>
     Score         DG    S(hbond)    S(metal)    S(lipo)     H(rot)  DE(clash)    DE(int)     intcor
     18.45     -19.83       2.36        0.00     115.13       2.74       0.69       0.69       ----

> <Gold.Chemscore.Fitness>
18.4482

> <Gold.Chemscore.DG>
-19.8272

> <Gold.Chemscore.ZeroCoef>
-5.4800

> <Gold.Chemscore.Hbond>
2.3616

> <Gold.Chemscore.Metal>
0.0000

> <Gold.Chemscore.Lipo>
115.1276

> <Gold.Chemscore.Internal_Hbond>
0.0000

> <Gold.Chemscore.DEClash>
0.6861

> <Gold.Chemscore.DEInternal>
0.6928

> <Gold.Chemscore.Rot>
2.7384

> <Gold.Chemscore.Internal.Correction>
   9.000000E+99

> <Gold.Chemscore.Hbonds>
donor molecule, donor type, donor heavy atom, donor atom, acceptor molecule, acceptor atom, score
      L1  H    10    31       P1  7957  0.92
      L1  H    12    48       P1  8028  0.78
      P1  H  6934  6946       L1    17  0.17
      P1  H  7989  7998       L1    10  0.17

> <Gold.Chemscore.Hbond.Weighted>
-7.8876

> <Gold.Chemscore.Metal.Weighted>
-0.0000

> <Gold.Chemscore.Lipo.Weighted>
-13.4699

> <Gold.Chemscore.Internal_Hbond.Weighted>
0.0000

> <Gold.Chemscore.DEClash.Weighted>
0.6861

> <Gold.Chemscore.DEInternal.Weighted>
0.6928

> <Gold.Chemscore.Rot.Weighted>
7.0103

> <Gold.Chemscore.Internal.Correction.Weighted>
   9.000000E+99

> <Gold.Protein.RotatedTorsions>
[ 6907 6896 6895 6894 ] final  129.17 input  -60.11 | X-H torsion
[ 7974 7965 7964 7962 ] final -117.25 input  175.53 | X-H torsion
[ 8008 7997 7996 7995 ] final   12.90 input   59.86 | X-H torsion
[ 10167 10162 10161 10158 ] final -128.20 input  -65.29 | X-H torsion
[ 10718 10713 10712 10709 ] final   43.61 input   66.30 | X-H torsion
[ 10763 10752 10751 10750 ] final   61.65 input  -60.55 | X-H torsion
[ 11005 11000 10999 10996 ] final  164.30 input  -57.11 | X-H torsion

> <Gold.Protein.ActiveResidues>
 VAL166  LYS551  ARG553  GLY616  TRP617  ASP618  TYR619  PRO620  LYS621  CYS622 
 ASP623  PHE694  ASN695  SER759  ASP760  ASP761  ALA762  ILE779  LEU786  VAL792 
 PHE793  MET794  SER795  GLU796  ALA797  LYS798  CYS799  TRP800  GLU811  SER814 

> <Gold.Protein.RotatedAtoms>
  152.3650  133.6345  159.6043 H   0  0  0  0  0  0  0  0  0  0  0  0  # atno 6907 bound_to 6896
  150.7627  133.9363  159.3451 H   0  0  0  0  0  0  0  0  0  0  0  0  # atno 6908 bound_to 6896
  151.7195  135.0898  160.0333 H   0  0  0  0  0  0  0  0  0  0  0  0  # atno 6909 bound_to 6896
  145.0873  140.8466  143.4003 H   0  0  0  0  0  0  0  0  0  0  0  0  # atno 7974 bound_to 7965
  154.8270  140.2893  155.5748 H   0  0  0  0  0  0  0  0  0  0  0  0  # atno 8008 bound_to 7997
  156.3002  140.2539  156.3119 H   0  0  0  0  0  0  0  0  0  0  0  0  # atno 8009 bound_to 7997
  154.9274  140.0384  157.2019 H   0  0  0  0  0  0  0  0  0  0  0  0  # atno 8010 bound_to 7997
  139.9528  143.6036  152.2470 H   0  0  0  0  0  0  0  0  0  0  0  0  # atno 10167 bound_to 10162
  157.4178  130.7951  149.7488 H   0  0  0  0  0  0  0  0  0  0  0  0  # atno 10718 bound_to 10713
  152.9957  135.5493  154.6068 H   0  0  0  0  0  0  0  0  0  0  0  0  # atno 10763 bound_to 10752
  154.5397  135.2819  155.1108 H   0  0  0  0  0  0  0  0  0  0  0  0  # atno 10764 bound_to 10752
  154.2391  135.6419  153.5253 H   0  0  0  0  0  0  0  0  0  0  0  0  # atno 10765 bound_to 10752
  140.2446  134.8024  157.3443 H   0  0  0  0  0  0  0  0  0  0  0  0  # atno 11005 bound_to 11000
  145.1107  139.2759  143.5639 LP  0  0  0  0  0  0  0  0  0  0  0  0  # atno 17320 bound_to 7965
  146.3531  140.0701  142.8624 LP  0  0  0  0  0  0  0  0  0  0  0  0  # atno 17321 bound_to 7965
  139.6615  144.7662  151.1954 LP  0  0  0  0  0  0  0  0  0  0  0  0  # atno 17342 bound_to 10162
  140.7577  143.6004  150.8706 LP  0  0  0  0  0  0  0  0  0  0  0  0  # atno 17343 bound_to 10162
  155.9871  130.3970  150.3182 LP  0  0  0  0  0  0  0  0  0  0  0  0  # atno 17370 bound_to 10713
  157.1327  131.0276  151.2962 LP  0  0  0  0  0  0  0  0  0  0  0  0  # atno 17371 bound_to 10713
  140.1619  134.4718  155.7889 LP  0  0  0  0  0  0  0  0  0  0  0  0  # atno 17394 bound_to 11000
  141.2207  133.6905  156.7559 LP  0  0  0  0  0  0  0  0  0  0  0  0  # atno 17395 bound_to 11000

$$$$
