AV-unprocessed.smi:49|AV-procd|sdf|489|dock8
  -GOLD-   2262016353D 1   1.00000     0.00000
 Structure written by MMmdl.
 26 27  0  0  0  0  0  0  0  0  2 V2000
  152.0673  142.2671  159.1058 C   0  0  0  0  0  0  0  0  0  0  0  0
  151.7705  140.8259  158.6795 C   0  0  0  0  0  0  0  0  0  0  0  0
  151.3620  140.7343  157.2256 C   0  0  0  0  0  0  0  0  0  0  0  0
  150.2309  141.1982  156.7033 N   0  0  0  0  0  0  0  0  0  0  0  0
  150.3050  140.9477  155.3883 C   0  0  0  0  0  0  0  0  0  0  0  0
  149.2019  141.2754  154.3994 C   0  0  2  0  0  0  0  0  0  0  0  0
  147.9081  141.7240  155.0899 C   0  0  0  0  0  0  0  0  0  0  0  0
  146.8424  141.3247  154.0806 C   0  0  2  0  0  0  0  0  0  0  0  0
  145.5606  141.1835  154.6555 O   0  0  0  0  0  0  0  0  0  0  0  0
  147.3892  140.0049  153.5434 C   0  0  0  0  0  0  0  0  0  0  0  0
  148.8422  140.1567  153.5191 N   0  0  0  0  0  0  0  0  0  0  0  0
  151.4579  140.3275  155.0888 N   0  0  0  0  0  0  0  0  0  0  0  0
  152.1041  140.2158  156.2315 N   0  5  0  0  0  0  0  0  0  0  0  0
  149.5537  142.0974  153.7750 H   0  0  0  0  0  0  0  0  0  0  0  0
  146.7987  142.0625  153.2781 H   0  0  0  0  0  0  0  0  0  0  0  0
  152.3656  142.3096  160.1533 H   0  0  0  0  0  0  0  0  0  0  0  0
  151.1888  142.9010  158.9818 H   0  0  0  0  0  0  0  0  0  0  0  0
  152.8750  142.6933  158.5101 H   0  0  0  0  0  0  0  0  0  0  0  0
  152.6501  140.2014  158.8374 H   0  0  0  0  0  0  0  0  0  0  0  0
  150.9738  140.4103  159.2972 H   0  0  0  0  0  0  0  0  0  0  0  0
  147.7644  141.1621  156.0149 H   0  0  0  0  0  0  0  0  0  0  0  0
  147.9024  142.7857  155.3379 H   0  0  0  0  0  0  0  0  0  0  0  0
  144.9497  140.9548  153.9719 H   0  0  0  0  0  0  0  0  0  0  0  0
  147.1260  139.1934  154.2234 H   0  0  0  0  0  0  0  0  0  0  0  0
  146.9893  139.7540  152.5608 H   0  0  0  0  0  0  0  0  0  0  0  0
  149.1276  140.3915  152.5744 H   0  0  0  0  0  0  0  0  0  0  0  0
  1  2  1  0  0  0  0
  1 16  1  0  0  0  0
  1 17  1  0  0  0  0
  1 18  1  0  0  0  0
  2  3  1  0  0  0  0
  2 19  1  0  0  0  0
  2 20  1  0  0  0  0
  3 13  1  0  0  0  0
  3  4  2  0  0  0  0
  4  5  1  0  0  0  0
  5  6  1  0  0  0  0
  5 12  2  0  0  0  0
  6 14  1  0  0  0  0
  6 11  1  0  0  0  0
  6  7  1  0  0  0  0
  7  8  1  0  0  0  0
  7 21  1  0  0  0  0
  7 22  1  0  0  0  0
  8 15  1  0  0  0  0
  8  9  1  0  0  0  0
  8 10  1  0  0  0  0
  9 23  1  0  0  0  0
 10 11  1  0  0  0  0
 10 24  1  0  0  0  0
 10 25  1  0  0  0  0
 11 26  1  0  0  0  0
 12 13  1  0  0  0  0
M  CHG  1  13  -1
M  END
> <s_m_source_file>
AV-unprocessed.smi

> <i_m_source_file_index>
49

> <i_lp_mmshare_version>
43012

> <i_f3d_flags>
0

> <s_epik_input>
W0NIM11bQ0gyXWMxbmMobltuSF0xKVtDQEBIXTJbQ0gyXVtDQEBIXShbT0hdKVtDSDJdW05IXTI=

> <s_epik_cmdline>
J2VwaWtfcHl0aG9uJywgJy1waCcsICc3LjAnLCAnLXRuJywgJzgnLCAnLW1hJywgJzIwMCcsICctbWV0YWxfYmluZGluZycsICctaW1hZScsICc8aW5maWxlLm1hZT4nLCAnLW9tYWUnLCAnPG91dGZpbGUubWFlPic=

> <r_lp_tautomer_probability>
0.948284

> <r_epik_Ionization_Penalty>
20.726

> <r_epik_Ionization_Penalty_Charging>
17.6814

> <r_epik_Ionization_Penalty_Neutral>
3.04463

> <r_epik_State_Penalty>
7.95092

> <r_epik_Charging_Adjusted_Penalty>
25.6323

> <i_epik_Tot_Q>
-1

> <i_epik_Tot_abs_Q>
1

> <r_epik_Metal_State_Penalty>
4.146

> <b_epik_Metal_Only>
1

> <s_lp_Force_Field>
OPLS_2005

> <r_lp_Energy>
18.025

> <b_lp_Chiralities_Consistent>
1

> <s_lp_Variant>
AV-unprocessed.smi:49-27

> <Gold.Version>
5.8.1

> <Gold.Id.Protein>
6NUR|6NUR_protein|mol2

> <Gold.PLP.Fitness>
35.5279

> <Gold.PLP.PLP>
-23.4573

> <Gold.PLP.part.hbond>
-3.4162

> <Gold.PLP.part.metal>
0.0000

> <Gold.PLP.part.buried>
0.1434

> <Gold.PLP.part.nonpolar>
-17.6049

> <Gold.PLP.part.repulsive>
0.0994

> <Gold.PLP.ligand.clash>
0.0000

> <Gold.PLP.ligand.torsion>
0.3106

> <Gold.PLP.Chemscore.Hbond>
4.2260

> <Gold.PLP.Chemscore.CHOScore>
0.0000

> <Gold.PLP.Chemscore.Metal>
0.0000

> <Gold.Chemscore.Hbonds>
donor molecule, donor type, donor heavy atom, donor atom, acceptor molecule, acceptor atom, score
      L1  H     9    23       P1 10175  1.00
      L1  H    11    26       P1  7957  1.00
      P1  H  7989  7998       L1    12  0.93
      P1  H  7997  8008       L1    13  1.01

> <Gold.PLP.Chemscore.Internal.Correction>
0.0137

> <Gold.Rescore>
     Score         DG    S(hbond)    S(metal)    S(lipo)     H(rot)  DE(clash)    DE(int)     intcor
     14.14     -14.72       2.62        0.00      44.11       1.82       0.32       0.26       ----

> <Gold.Chemscore.Fitness>
14.1404

> <Gold.Chemscore.DG>
-14.7209

> <Gold.Chemscore.ZeroCoef>
-5.4800

> <Gold.Chemscore.Hbond>
2.6186

> <Gold.Chemscore.Metal>
0.0000

> <Gold.Chemscore.Lipo>
44.1060

> <Gold.Chemscore.Internal_Hbond>
0.0000

> <Gold.Chemscore.DEClash>
0.3155

> <Gold.Chemscore.DEInternal>
0.2649

> <Gold.Chemscore.Rot>
1.8226

> <Gold.Chemscore.Internal.Correction>
   9.000000E+99

> <Gold.Chemscore.Hbonds>
donor molecule, donor type, donor heavy atom, donor atom, acceptor molecule, acceptor atom, score
      L1  H     9    23       P1 10175  0.85
      L1  H    11    26       P1  7957  0.91
      P1  H  7989  7998       L1    12  0.20
      P1  H  7997  8008       L1    13  0.48

> <Gold.Chemscore.Hbond.Weighted>
-8.7463

> <Gold.Chemscore.Metal.Weighted>
-0.0000

> <Gold.Chemscore.Lipo.Weighted>
-5.1604

> <Gold.Chemscore.Internal_Hbond.Weighted>
0.0000

> <Gold.Chemscore.DEClash.Weighted>
0.3155

> <Gold.Chemscore.DEInternal.Weighted>
0.2649

> <Gold.Chemscore.Rot.Weighted>
4.6658

> <Gold.Chemscore.Internal.Correction.Weighted>
   9.000000E+99

> <Gold.Protein.RotatedTorsions>
[ 6907 6896 6895 6894 ] final  -59.76 input  -60.11 | X-H torsion
[ 7974 7965 7964 7962 ] final    5.74 input  175.53 | X-H torsion
[ 8008 7997 7996 7995 ] final  -40.14 input   59.86 | X-H torsion
[ 10167 10162 10161 10158 ] final  -25.30 input  -65.29 | X-H torsion
[ 10718 10713 10712 10709 ] final   82.08 input   66.30 | X-H torsion
[ 10763 10752 10751 10750 ] final  -53.99 input  -60.55 | X-H torsion
[ 11005 11000 10999 10996 ] final  177.59 input  -57.11 | X-H torsion

> <Gold.Protein.ActiveResidues>
 VAL166  LYS551  ARG553  GLY616  TRP617  ASP618  TYR619  PRO620  LYS621  CYS622 
 ASP623  PHE694  ASN695  SER759  ASP760  ASP761  ALA762  ILE779  LEU786  VAL792 
 PHE793  MET794  SER795  GLU796  ALA797  LYS798  CYS799  TRP800  GLU811  SER814 

> <Gold.Protein.RotatedAtoms>
  150.7906  134.6927  159.6505 H   0  0  0  0  0  0  0  0  0  0  0  0  # atno 6907 bound_to 6896
  152.4011  134.6281  160.0078 H   0  0  0  0  0  0  0  0  0  0  0  0  # atno 6908 bound_to 6896
  151.6552  133.3282  159.3197 H   0  0  0  0  0  0  0  0  0  0  0  0  # atno 6909 bound_to 6896
  146.2439  140.0339  142.8387 H   0  0  0  0  0  0  0  0  0  0  0  0  # atno 7974 bound_to 7965
  154.4015  140.1533  156.2978 H   0  0  0  0  0  0  0  0  0  0  0  0  # atno 8008 bound_to 7997
  155.8728  140.3448  155.5811 H   0  0  0  0  0  0  0  0  0  0  0  0  # atno 8009 bound_to 7997
  155.7755  140.0836  157.2076 H   0  0  0  0  0  0  0  0  0  0  0  0  # atno 8010 bound_to 7997
  140.7287  143.4277  151.0851 H   0  0  0  0  0  0  0  0  0  0  0  0  # atno 10167 bound_to 10162
  157.6848  131.0032  150.2321 H   0  0  0  0  0  0  0  0  0  0  0  0  # atno 10718 bound_to 10713
  154.1676  135.6464  153.5001 H   0  0  0  0  0  0  0  0  0  0  0  0  # atno 10763 bound_to 10752
  153.0093  135.5375  154.6646 H   0  0  0  0  0  0  0  0  0  0  0  0  # atno 10764 bound_to 10752
  154.5976  135.2940  155.0541 H   0  0  0  0  0  0  0  0  0  0  0  0  # atno 10765 bound_to 10752
  140.3858  134.6906  157.4478 H   0  0  0  0  0  0  0  0  0  0  0  0  # atno 11005 bound_to 11000
  145.1130  140.9417  143.4645 LP  0  0  0  0  0  0  0  0  0  0  0  0  # atno 17320 bound_to 7965
  145.0557  139.3146  143.5906 LP  0  0  0  0  0  0  0  0  0  0  0  0  # atno 17321 bound_to 7965
  139.7930  143.8191  152.3154 LP  0  0  0  0  0  0  0  0  0  0  0  0  # atno 17342 bound_to 10162
  139.8181  144.7307  150.9608 LP  0  0  0  0  0  0  0  0  0  0  0  0  # atno 17343 bound_to 10162
  156.2952  130.3751  149.7803 LP  0  0  0  0  0  0  0  0  0  0  0  0  # atno 17370 bound_to 10713
  156.5450  130.8317  151.3281 LP  0  0  0  0  0  0  0  0  0  0  0  0  # atno 17371 bound_to 10713
  140.0444  134.6221  155.8940 LP  0  0  0  0  0  0  0  0  0  0  0  0  # atno 17394 bound_to 11000
  141.1908  133.6569  156.5428 LP  0  0  0  0  0  0  0  0  0  0  0  0  # atno 17395 bound_to 11000

$$$$
