AV-unprocessed.smi:45|AV-procd|sdf|408|dock2
  -GOLD-   2262016263D 1   1.00000     0.00000
 Structure written by MMmdl.
 60 63  0  0  0  0  0  0  0  0  1 V2000
  156.1745  129.6081  154.6398 C   0  0  0  0  0  0  0  0  0  0  0  0
  155.5578  130.5407  155.5153 O   0  0  0  0  0  0  0  0  0  0  0  0
  154.1915  130.7120  155.4293 C   0  0  0  0  0  0  0  0  0  0  0  0
  153.3434  129.9034  154.6304 C   0  0  0  0  0  0  0  0  0  0  0  0
  151.9557  130.1397  154.5929 C   0  0  0  0  0  0  0  0  0  0  0  0
  151.3911  131.1841  155.3524 C   0  0  0  0  0  0  0  0  0  0  0  0
  149.8980  131.4463  155.3081 C   0  0  0  0  0  0  0  0  0  0  0  0
  149.5279  132.7747  155.7763 N   0  0  0  0  0  0  0  0  0  0  0  0
  148.3321  133.3836  155.3595 C   0  0  0  0  0  0  0  0  0  0  0  0
  147.8181  133.0063  154.1648 N   0  0  0  0  0  0  0  0  0  0  0  0
  146.6856  133.5794  153.7459 C   0  0  0  0  0  0  0  0  0  0  0  0
  146.1779  133.1818  152.5087 N   0  0  0  0  0  0  0  0  0  0  0  0
  146.3005  131.8047  152.0414 C   0  0  0  0  0  0  0  0  0  0  0  0
  145.0628  131.5374  151.1872 C   0  0  0  0  0  0  0  0  0  0  0  0
  144.7226  132.9169  150.6403 C   0  0  0  0  0  0  0  0  0  0  0  0
  145.0931  133.8590  151.7947 C   0  0  2  0  0  0  0  0  0  0  0  0
  145.4723  135.2733  151.3065 C   0  0  0  0  0  0  0  0  0  0  0  0
  144.5638  135.7038  150.3158 O   0  0  0  0  0  0  0  0  0  0  0  0
  146.0022  134.5156  154.4113 N   0  0  0  0  0  0  0  0  0  0  0  0
  146.4937  134.9110  155.6035 C   0  0  0  0  0  0  0  0  0  0  0  0
  147.6863  134.3776  156.1446 C   0  0  0  0  0  0  0  0  0  0  0  0
  148.1868  134.8291  157.4907 C   0  0  0  0  0  0  0  0  0  0  0  0
  149.0992  134.2366  158.0676 O   0  0  0  0  0  0  0  0  0  0  0  0
  147.5884  135.9255  157.9830 N   0  0  0  0  0  0  0  0  0  0  0  0
  147.8899  136.5333  159.2735 C   0  0  0  0  0  0  0  0  0  0  0  0
  147.5320  135.6294  160.4401 C   0  0  0  0  0  0  0  0  0  0  0  0
  147.4314  136.2117  161.6400 N   0  0  0  0  0  0  0  0  0  0  0  0
  147.1049  135.4139  162.6800 C   0  0  0  0  0  0  0  0  0  0  0  0
  146.8797  134.0327  162.5133 C   0  0  0  0  0  0  0  0  0  0  0  0
  147.0149  133.5326  161.2025 C   0  0  0  0  0  0  0  0  0  0  0  0
  147.3424  134.3346  160.1662 N   0  0  0  0  0  0  0  0  0  0  0  0
  152.2279  131.9928  156.1461 C   0  0  0  0  0  0  0  0  0  0  0  0
  153.6162  131.7578  156.1852 C   0  0  0  0  0  0  0  0  0  0  0  0
  154.6126  132.7679  157.1708 Cl  0  0  0  0  0  0  0  0  0  0  0  0
  144.2458  133.9256  152.4792 H   0  0  0  0  0  0  0  0  0  0  0  0
  157.2479  129.5944  154.8279 H   0  0  0  0  0  0  0  0  0  0  0  0
  156.0272  129.8842  153.5950 H   0  0  0  0  0  0  0  0  0  0  0  0
  155.7983  128.5976  154.8045 H   0  0  0  0  0  0  0  0  0  0  0  0
  153.7338  129.0935  154.0333 H   0  0  0  0  0  0  0  0  0  0  0  0
  151.3250  129.5157  153.9765 H   0  0  0  0  0  0  0  0  0  0  0  0
  149.5365  131.3145  154.2875 H   0  0  0  0  0  0  0  0  0  0  0  0
  149.3995  130.6964  155.9236 H   0  0  0  0  0  0  0  0  0  0  0  0
  150.0794  133.2061  156.5046 H   0  0  0  0  0  0  0  0  0  0  0  0
  147.2084  131.7188  151.4433 H   0  0  0  0  0  0  0  0  0  0  0  0
  146.3666  131.0909  152.8634 H   0  0  0  0  0  0  0  0  0  0  0  0
  145.2364  130.7960  150.4067 H   0  0  0  0  0  0  0  0  0  0  0  0
  144.2473  131.1812  151.8183 H   0  0  0  0  0  0  0  0  0  0  0  0
  145.3428  133.1202  149.7657 H   0  0  0  0  0  0  0  0  0  0  0  0
  143.6788  133.0087  150.3394 H   0  0  0  0  0  0  0  0  0  0  0  0
  145.4469  136.0017  152.1156 H   0  0  0  0  0  0  0  0  0  0  0  0
  146.4834  135.2865  150.8987 H   0  0  0  0  0  0  0  0  0  0  0  0
  145.0343  135.8111  149.5033 H   0  0  0  0  0  0  0  0  0  0  0  0
  145.9194  135.6596  156.1298 H   0  0  0  0  0  0  0  0  0  0  0  0
  146.8554  136.3569  157.4391 H   0  0  0  0  0  0  0  0  0  0  0  0
  148.9429  136.8182  159.3188 H   0  0  0  0  0  0  0  0  0  0  0  0
  147.3202  137.4593  159.3575 H   0  0  0  0  0  0  0  0  0  0  0  0
  147.0224  135.8804  163.6504 H   0  0  0  0  0  0  0  0  0  0  0  0
  146.6184  133.3933  163.3437 H   0  0  0  0  0  0  0  0  0  0  0  0
  146.8593  132.4865  160.9846 H   0  0  0  0  0  0  0  0  0  0  0  0
  151.8064  132.7980  156.7299 H   0  0  0  0  0  0  0  0  0  0  0  0
  1  2  1  0  0  0  0
  1 36  1  0  0  0  0
  1 37  1  0  0  0  0
  1 38  1  0  0  0  0
  2  3  1  0  0  0  0
  3 33  1  0  0  0  0
  3  4  2  0  0  0  0
  4  5  1  0  0  0  0
  4 39  1  0  0  0  0
  5  6  2  0  0  0  0
  5 40  1  0  0  0  0
  6  7  1  0  0  0  0
  6 32  1  0  0  0  0
  7  8  1  0  0  0  0
  7 41  1  0  0  0  0
  7 42  1  0  0  0  0
  8  9  1  0  0  0  0
  8 43  1  0  0  0  0
  9 21  1  0  0  0  0
  9 10  2  0  0  0  0
 10 11  1  0  0  0  0
 11 12  1  0  0  0  0
 11 19  2  0  0  0  0
 12 16  1  0  0  0  0
 12 13  1  0  0  0  0
 13 14  1  0  0  0  0
 13 44  1  0  0  0  0
 13 45  1  0  0  0  0
 14 15  1  0  0  0  0
 14 46  1  0  0  0  0
 14 47  1  0  0  0  0
 15 16  1  0  0  0  0
 15 48  1  0  0  0  0
 15 49  1  0  0  0  0
 16 35  1  0  0  0  0
 16 17  1  0  0  0  0
 17 18  1  0  0  0  0
 17 50  1  0  0  0  0
 17 51  1  0  0  0  0
 18 52  1  0  0  0  0
 19 20  1  0  0  0  0
 20 21  2  0  0  0  0
 20 53  1  0  0  0  0
 21 22  1  0  0  0  0
 22 23  2  0  0  0  0
 22 24  1  0  0  0  0
 24 25  1  0  0  0  0
 24 54  1  0  0  0  0
 25 26  1  0  0  0  0
 25 55  1  0  0  0  0
 25 56  1  0  0  0  0
 26 31  1  0  0  0  0
 26 27  2  0  0  0  0
 27 28  1  0  0  0  0
 28 29  2  0  0  0  0
 28 57  1  0  0  0  0
 29 30  1  0  0  0  0
 29 58  1  0  0  0  0
 30 31  2  0  0  0  0
 30 59  1  0  0  0  0
 32 33  2  0  0  0  0
 32 60  1  0  0  0  0
 33 34  1  0  0  0  0
M  END
> <s_m_source_file>
AV-unprocessed.smi

> <i_m_source_file_index>
45

> <i_lp_mmshare_version>
43012

> <i_f3d_flags>
0

> <s_epik_input>
W0NIM11PYzFbY0hdW2NIXWMoW2NIXWMxQ2wpW0NIMl1bTkhdYzJuYyhOM1tDSDJdW0NIMl1bQ0gyXVtDQEhdM1tDSDJdW09IXSluW2NIXWMyQyg9TylbTkhdW0NIMl1jNG5bY0hdW2NIXVtjSF1uNA==

> <s_epik_cmdline>
J2VwaWtfcHl0aG9uJywgJy1waCcsICc3LjAnLCAnLXRuJywgJzgnLCAnLW1hJywgJzIwMCcsICctbWV0YWxfYmluZGluZycsICctaW1hZScsICc8aW5maWxlLm1hZT4nLCAnLW9tYWUnLCAnPG91dGZpbGUubWFlPic=

> <r_lp_tautomer_probability>
1

> <r_epik_Ionization_Penalty>
0.0522664

> <r_epik_Ionization_Penalty_Charging>
0

> <r_epik_Ionization_Penalty_Neutral>
0.0522664

> <r_epik_State_Penalty>
0.0369431

> <r_epik_Charging_Adjusted_Penalty>
0.0369431

> <i_epik_Tot_Q>
0

> <i_epik_Tot_abs_Q>
0

> <r_epik_Metal_State_Penalty>
0.0404664

> <b_epik_Metal_Only>
0

> <s_epik_Chemistry_Notes>
This compound contains an electron-poor aromatic ring that is susceptible to covalent hydrolysis at low pH, typically resulting in measured values for nitrogen ring protonation that are around two units higher than predicted values.

> <s_lp_Force_Field>
OPLS_2005

> <r_lp_Energy>
32.9916

> <b_lp_Chiralities_Consistent>
1

> <s_lp_Variant>
AV-unprocessed.smi:45-2

> <Gold.Version>
5.8.1

> <Gold.Id.Protein>
6NUR|6NUR_protein|mol2

> <Gold.PLP.Fitness>
58.4991

> <Gold.PLP.PLP>
-51.4702

> <Gold.PLP.part.hbond>
-4.0000

> <Gold.PLP.part.metal>
0.0000

> <Gold.PLP.part.buried>
-9.0867

> <Gold.PLP.part.nonpolar>
-39.2314

> <Gold.PLP.part.repulsive>
0.1760

> <Gold.PLP.ligand.clash>
0.0000

> <Gold.PLP.ligand.torsion>
1.3272

> <Gold.PLP.Chemscore.Hbond>
3.0000

> <Gold.PLP.Chemscore.CHOScore>
0.0000

> <Gold.PLP.Chemscore.Metal>
0.0000

> <Gold.Chemscore.Hbonds>
donor molecule, donor type, donor heavy atom, donor atom, acceptor molecule, acceptor atom, score
      L1  H    18    52       P1  7921  0.13
      P1  H  6896  6909       L1    23  1.00

> <Gold.PLP.Chemscore.Internal.Correction>
0.6834

> <Gold.Rescore>
     Score         DG    S(hbond)    S(metal)    S(lipo)     H(rot)  DE(clash)    DE(int)     intcor
     17.10     -19.95       3.02        0.00     100.99       2.90       0.05       2.81       ----

> <Gold.Chemscore.Fitness>
17.0981

> <Gold.Chemscore.DG>
-19.9509

> <Gold.Chemscore.ZeroCoef>
-5.4800

> <Gold.Chemscore.Hbond>
3.0167

> <Gold.Chemscore.Metal>
0.0000

> <Gold.Chemscore.Lipo>
100.9915

> <Gold.Chemscore.Internal_Hbond>
0.0000

> <Gold.Chemscore.DEClash>
0.0456

> <Gold.Chemscore.DEInternal>
2.8072

> <Gold.Chemscore.Rot>
2.8988

> <Gold.Chemscore.Internal.Correction>
   9.000000E+99

> <Gold.Chemscore.Hbonds>
donor molecule, donor type, donor heavy atom, donor atom, acceptor molecule, acceptor atom, score
      L1  H    18    52       P1  7921  0.15
      P1  H  6896  6909       L1    23  0.93

> <Gold.Chemscore.Hbond.Weighted>
-10.0758

> <Gold.Chemscore.Metal.Weighted>
-0.0000

> <Gold.Chemscore.Lipo.Weighted>
-11.8160

> <Gold.Chemscore.Internal_Hbond.Weighted>
0.0000

> <Gold.Chemscore.DEClash.Weighted>
0.0456

> <Gold.Chemscore.DEInternal.Weighted>
2.8072

> <Gold.Chemscore.Rot.Weighted>
7.4209

> <Gold.Chemscore.Internal.Correction.Weighted>
   9.000000E+99

> <Gold.Protein.RotatedTorsions>
[ 6907 6896 6895 6894 ] final   17.61 input  -60.11 | X-H torsion
[ 7974 7965 7964 7962 ] final  -51.88 input  175.53 | X-H torsion
[ 8008 7997 7996 7995 ] final   68.74 input   59.86 | X-H torsion
[ 10167 10162 10161 10158 ] final  104.55 input  -65.29 | X-H torsion
[ 10718 10713 10712 10709 ] final   38.23 input   66.30 | X-H torsion
[ 10763 10752 10751 10750 ] final   21.60 input  -60.55 | X-H torsion
[ 11005 11000 10999 10996 ] final -116.60 input  -57.11 | X-H torsion

> <Gold.Protein.ActiveResidues>
 VAL166  LYS551  ARG553  GLY616  TRP617  ASP618  TYR619  PRO620  LYS621  CYS622 
 ASP623  PHE694  ASN695  SER759  ASP760  ASP761  ALA762  ILE779  LEU786  VAL792 
 PHE793  MET794  SER795  GLU796  ALA797  LYS798  CYS799  TRP800  GLU811  SER814 

> <Gold.Protein.RotatedAtoms>
  151.8523  135.0553  160.0460 H   0  0  0  0  0  0  0  0  0  0  0  0  # atno 6907 bound_to 6896
  152.2727  133.5392  159.5457 H   0  0  0  0  0  0  0  0  0  0  0  0  # atno 6908 bound_to 6896
  150.7158  134.0591  159.3867 H   0  0  0  0  0  0  0  0  0  0  0  0  # atno 6909 bound_to 6896
  145.9141  140.7890  142.9680 H   0  0  0  0  0  0  0  0  0  0  0  0  # atno 7974 bound_to 7965
  155.7129  140.3494  155.4982 H   0  0  0  0  0  0  0  0  0  0  0  0  # atno 8008 bound_to 7997
  155.9339  140.1089  157.1132 H   0  0  0  0  0  0  0  0  0  0  0  0  # atno 8009 bound_to 7997
  154.4090  140.1226  156.4826 H   0  0  0  0  0  0  0  0  0  0  0  0  # atno 8010 bound_to 7997
  139.7168  144.7066  151.0937 H   0  0  0  0  0  0  0  0  0  0  0  0  # atno 10167 bound_to 10162
  157.3564  130.7626  149.7015 H   0  0  0  0  0  0  0  0  0  0  0  0  # atno 10718 bound_to 10713
  153.0982  135.6665  153.9723 H   0  0  0  0  0  0  0  0  0  0  0  0  # atno 10763 bound_to 10752
  153.9301  135.3005  155.3447 H   0  0  0  0  0  0  0  0  0  0  0  0  # atno 10764 bound_to 10752
  154.7402  135.5083  153.9184 H   0  0  0  0  0  0  0  0  0  0  0  0  # atno 10765 bound_to 10752
  141.0411  133.9834  157.2993 H   0  0  0  0  0  0  0  0  0  0  0  0  # atno 11005 bound_to 11000
  144.6746  140.1871  143.7400 LP  0  0  0  0  0  0  0  0  0  0  0  0  # atno 17320 bound_to 7965
  145.8634  139.2234  143.1703 LP  0  0  0  0  0  0  0  0  0  0  0  0  # atno 17321 bound_to 7965
  140.7745  143.5219  150.9526 LP  0  0  0  0  0  0  0  0  0  0  0  0  # atno 17342 bound_to 10162
  139.8905  143.6959  152.3146 LP  0  0  0  0  0  0  0  0  0  0  0  0  # atno 17343 bound_to 10162
  155.9730  130.4126  150.4041 LP  0  0  0  0  0  0  0  0  0  0  0  0  # atno 17370 bound_to 10713
  157.2111  131.0460  151.2598 LP  0  0  0  0  0  0  0  0  0  0  0  0  # atno 17371 bound_to 10713
  139.9276  135.0201  156.8290 LP  0  0  0  0  0  0  0  0  0  0  0  0  # atno 17394 bound_to 11000
  140.6233  133.9974  155.7628 LP  0  0  0  0  0  0  0  0  0  0  0  0  # atno 17395 bound_to 11000

$$$$
