AV-unprocessed.smi:3234|AV-procd|sdf|12351|dock4
  -GOLD-   2272018213D 1   1.00000     0.00000
 Structure written by MMmdl.
 37 39  0  0  0  0  0  0  0  0  2 V2000
  150.0152  140.7715  157.0629 O   0  0  0  0  0  0  0  0  0  0  0  0
  149.8206  141.8445  156.4922 C   0  0  0  0  0  0  0  0  0  0  0  0
  149.0721  142.0180  155.3891 N   0  0  0  0  0  0  0  0  0  0  0  0
  148.3894  141.0384  154.6186 C   0  0  0  0  0  0  0  0  0  0  0  0
  148.8000  139.6956  154.7488 C   0  0  0  0  0  0  0  0  0  0  0  0
  148.1271  138.7048  154.0063 C   0  0  0  0  0  0  0  0  0  0  0  0
  147.0954  138.9715  153.1781 N   0  0  0  0  0  0  0  0  0  0  0  0
  146.6933  140.2552  153.0673 C   0  0  0  0  0  0  0  0  0  0  0  0
  147.2975  141.3214  153.7634 C   0  0  0  0  0  0  0  0  0  0  0  0
  150.3246  143.0087  156.9255 N   0  0  0  0  0  0  0  0  0  0  0  0
  151.1744  143.1603  158.1015 C   0  0  1  0  0  0  0  0  0  0  0  0
  152.2484  144.2288  157.9471 C   0  0  0  0  0  0  0  0  0  0  0  0
  152.6276  144.5318  159.4014 C   0  0  0  0  0  0  0  0  0  0  0  0
  151.4281  144.2410  160.2265 N   0  3  2  0  0  0  0  0  0  0  0  0
  151.7177  143.4164  161.4197 C   0  0  0  0  0  0  0  0  0  0  0  0
  153.0131  143.7805  162.1044 C   0  0  0  0  0  0  0  0  0  0  0  0
  152.9278  142.5275  161.2602 C   0  0  0  0  0  0  0  0  0  0  0  0
  150.4081  143.6499  159.3329 C   0  0  0  0  0  0  0  0  0  0  0  0
  148.9329  142.9727  155.0917 H   0  0  0  0  0  0  0  0  0  0  0  0
  149.6194  139.4251  155.3988 H   0  0  0  0  0  0  0  0  0  0  0  0
  148.4254  137.6698  154.0816 H   0  0  0  0  0  0  0  0  0  0  0  0
  145.8589  140.4392  152.4068 H   0  0  0  0  0  0  0  0  0  0  0  0
  146.9073  142.3196  153.6379 H   0  0  0  0  0  0  0  0  0  0  0  0
  150.1133  143.8456  156.4013 H   0  0  0  0  0  0  0  0  0  0  0  0
  151.6578  142.2079  158.3300 H   0  0  0  0  0  0  0  0  0  0  0  0
  153.0978  143.8972  157.3491 H   0  0  0  0  0  0  0  0  0  0  0  0
  151.8315  145.1217  157.4781 H   0  0  0  0  0  0  0  0  0  0  0  0
  153.4565  143.8881  159.7015 H   0  0  0  0  0  0  0  0  0  0  0  0
  152.9517  145.5644  159.5329 H   0  0  0  0  0  0  0  0  0  0  0  0
  150.8589  143.0830  162.0003 H   0  0  0  0  0  0  0  0  0  0  0  0
  153.5883  144.6154  161.7081 H   0  0  0  0  0  0  0  0  0  0  0  0
  153.0636  143.6522  163.1837 H   0  0  0  0  0  0  0  0  0  0  0  0
  152.9221  141.5736  161.7837 H   0  0  0  0  0  0  0  0  0  0  0  0
  153.4470  142.5297  160.3033 H   0  0  0  0  0  0  0  0  0  0  0  0
  149.7072  144.4388  159.0555 H   0  0  0  0  0  0  0  0  0  0  0  0
  149.8342  142.8552  159.8128 H   0  0  0  0  0  0  0  0  0  0  0  0
  151.0579  145.1209  160.5566 H   0  0  0  0  0  0  0  0  0  0  0  0
  1  2  2  0  0  0  0
  2  3  1  0  0  0  0
  2 10  1  0  0  0  0
  3  4  1  0  0  0  0
  3 19  1  0  0  0  0
  4  9  1  0  0  0  0
  4  5  2  0  0  0  0
  5  6  1  0  0  0  0
  5 20  1  0  0  0  0
  6  7  2  0  0  0  0
  6 21  1  0  0  0  0
  7  8  1  0  0  0  0
  8  9  2  0  0  0  0
  8 22  1  0  0  0  0
  9 23  1  0  0  0  0
 10 11  1  0  0  0  0
 10 24  1  0  0  0  0
 11 18  1  0  0  0  0
 11 12  1  0  0  0  0
 11 25  1  0  0  0  0
 12 13  1  0  0  0  0
 12 26  1  0  0  0  0
 12 27  1  0  0  0  0
 13 14  1  0  0  0  0
 13 28  1  0  0  0  0
 13 29  1  0  0  0  0
 14 15  1  0  0  0  0
 14 18  1  0  0  0  0
 14 37  1  0  0  0  0
 15 17  1  0  0  0  0
 15 16  1  0  0  0  0
 15 30  1  0  0  0  0
 16 17  1  0  0  0  0
 16 31  1  0  0  0  0
 16 32  1  0  0  0  0
 17 33  1  0  0  0  0
 17 34  1  0  0  0  0
 18 35  1  0  0  0  0
 18 36  1  0  0  0  0
M  CHG  1  14   1
M  END
> <s_m_source_file>
AV-unprocessed.smi

> <i_m_source_file_index>
3234

> <i_lp_mmshare_version>
43012

> <i_f3d_flags>
0

> <s_epik_input>
W2NIXTFbY0hdbltjSF1bY0hdYzFbTkhdQyg9TylbTkhdW0NAQEhdMltDSDJdW0NIMl1OKFtDSDJdMilbQ0hdM1tDSDJdW0NIMl0z

> <s_epik_cmdline>
J2VwaWtfcHl0aG9uJywgJy1waCcsICc3LjAnLCAnLXRuJywgJzgnLCAnLW1hJywgJzIwMCcsICctbWV0YWxfYmluZGluZycsICctaW1hZScsICc8aW5maWxlLm1hZT4nLCAnLW9tYWUnLCAnPG91dGZpbGUubWFlPic=

> <r_epik_Ionization_Penalty>
0.0934328

> <r_epik_Ionization_Penalty_Charging>
0.000606352

> <r_epik_Ionization_Penalty_Neutral>
0.0928265

> <r_epik_State_Penalty>
0.0830811

> <r_epik_Charging_Adjusted_Penalty>
0.0836875

> <i_epik_Tot_Q>
1

> <i_epik_Tot_abs_Q>
1

> <r_epik_Metal_State_Penalty>
0.0724491

> <b_epik_Metal_Only>
0

> <s_lp_Force_Field>
OPLS_2005

> <r_lp_Energy>
41.5008

> <b_lp_Chiralities_Consistent>
1

> <s_lp_Variant>
AV-unprocessed.smi:3234-4

> <Gold.Version>
5.8.1

> <Gold.Id.Protein>
6NUR|6NUR_protein|mol2

> <Gold.PLP.Fitness>
44.5683

> <Gold.PLP.PLP>
-34.1969

> <Gold.PLP.part.hbond>
-2.0000

> <Gold.PLP.part.metal>
0.0000

> <Gold.PLP.part.buried>
-2.0433

> <Gold.PLP.part.nonpolar>
-31.8461

> <Gold.PLP.part.repulsive>
1.4505

> <Gold.PLP.ligand.clash>
0.0000

> <Gold.PLP.ligand.torsion>
1.0490

> <Gold.PLP.Chemscore.Hbond>
1.8400

> <Gold.PLP.Chemscore.CHOScore>
1.8945

> <Gold.PLP.Chemscore.Metal>
0.0000

> <Gold.Chemscore.Hbonds>
donor molecule, donor type, donor heavy atom, donor atom, acceptor molecule, acceptor atom, score
      L1  H     3    19       P1  8028  0.91
      L1  H    10    24       P1  8028  0.91
      L1  C     6    21       P1  7948  0.49
      L1  C     8    22       P1 10175  1.00

> <Gold.PLP.Chemscore.Internal.Correction>
1.2658

> <Gold.Rescore>
     Score         DG    S(hbond)    S(metal)    S(lipo)     H(rot)  DE(clash)    DE(int)     intcor
     17.76     -21.73       1.93        0.00     110.29       1.21       1.56       2.41       ----

> <Gold.Chemscore.Fitness>
17.7565

> <Gold.Chemscore.DG>
-21.7266

> <Gold.Chemscore.ZeroCoef>
-5.4800

> <Gold.Chemscore.Hbond>
1.9288

> <Gold.Chemscore.Metal>
0.0000

> <Gold.Chemscore.Lipo>
110.2914

> <Gold.Chemscore.Internal_Hbond>
0.0000

> <Gold.Chemscore.DEClash>
1.5578

> <Gold.Chemscore.DEInternal>
2.4122

> <Gold.Chemscore.Rot>
1.2108

> <Gold.Chemscore.Internal.Correction>
   9.000000E+99

> <Gold.Chemscore.Hbonds>
donor molecule, donor type, donor heavy atom, donor atom, acceptor molecule, acceptor atom, score
      L1  H     3    19       P1  8028  0.88
      L1  H    10    24       P1  8028  0.89

> <Gold.Chemscore.Hbond.Weighted>
-6.4420

> <Gold.Chemscore.Metal.Weighted>
-0.0000

> <Gold.Chemscore.Lipo.Weighted>
-12.9041

> <Gold.Chemscore.Internal_Hbond.Weighted>
0.0000

> <Gold.Chemscore.DEClash.Weighted>
1.5578

> <Gold.Chemscore.DEInternal.Weighted>
2.4122

> <Gold.Chemscore.Rot.Weighted>
3.0996

> <Gold.Chemscore.Internal.Correction.Weighted>
   9.000000E+99

> <Gold.Protein.RotatedTorsions>
[ 6907 6896 6895 6894 ] final   29.14 input  -60.11 | X-H torsion
[ 7974 7965 7964 7962 ] final  -57.98 input  175.53 | X-H torsion
[ 8008 7997 7996 7995 ] final -151.47 input   59.86 | X-H torsion
[ 10167 10162 10161 10158 ] final  -62.09 input  -65.29 | X-H torsion
[ 10718 10713 10712 10709 ] final  137.40 input   66.30 | X-H torsion
[ 10763 10752 10751 10750 ] final -163.34 input  -60.55 | X-H torsion
[ 11005 11000 10999 10996 ] final  -40.02 input  -57.11 | X-H torsion

> <Gold.Protein.ActiveResidues>
 VAL166  LYS551  ARG553  GLY616  TRP617  ASP618  TYR619  PRO620  LYS621  CYS622 
 ASP623  PHE694  ASN695  SER759  ASP760  ASP761  ALA762  ILE779  LEU786  VAL792 
 PHE793  MET794  SER795  GLU796  ALA797  LYS798  CYS799  TRP800  GLU811  SER814 

> <Gold.Protein.RotatedAtoms>
  152.0272  134.9788  160.0571 H   0  0  0  0  0  0  0  0  0  0  0  0  # atno 6907 bound_to 6896
  152.1279  133.4386  159.4715 H   0  0  0  0  0  0  0  0  0  0  0  0  # atno 6908 bound_to 6896
  150.6854  134.2374  159.4502 H   0  0  0  0  0  0  0  0  0  0  0  0  # atno 6909 bound_to 6896
  145.8447  140.8393  143.0016 H   0  0  0  0  0  0  0  0  0  0  0  0  # atno 7974 bound_to 7965
  155.6399  140.0700  157.2622 H   0  0  0  0  0  0  0  0  0  0  0  0  # atno 8008 bound_to 7997
  154.4186  140.1752  156.1611 H   0  0  0  0  0  0  0  0  0  0  0  0  # atno 8009 bound_to 7997
  155.9864  140.3349  155.6714 H   0  0  0  0  0  0  0  0  0  0  0  0  # atno 8010 bound_to 7997
  140.5962  143.2351  151.6030 H   0  0  0  0  0  0  0  0  0  0  0  0  # atno 10167 bound_to 10162
  157.4364  131.1053  151.0192 H   0  0  0  0  0  0  0  0  0  0  0  0  # atno 10718 bound_to 10713
  154.7132  135.3010  154.9165 H   0  0  0  0  0  0  0  0  0  0  0  0  # atno 10763 bound_to 10752
  154.0060  135.6701  153.4766 H   0  0  0  0  0  0  0  0  0  0  0  0  # atno 10764 bound_to 10752
  153.0772  135.5028  154.8342 H   0  0  0  0  0  0  0  0  0  0  0  0  # atno 10765 bound_to 10752
  141.0144  133.6892  156.2265 H   0  0  0  0  0  0  0  0  0  0  0  0  # atno 11005 bound_to 11000
  144.6732  140.0864  143.7467 LP  0  0  0  0  0  0  0  0  0  0  0  0  # atno 17320 bound_to 7965
  145.9426  139.2679  143.1260 LP  0  0  0  0  0  0  0  0  0  0  0  0  # atno 17321 bound_to 7965
  139.5260  144.3059  152.1034 LP  0  0  0  0  0  0  0  0  0  0  0  0  # atno 17342 bound_to 10162
  140.2231  144.4445  150.6333 LP  0  0  0  0  0  0  0  0  0  0  0  0  # atno 17343 bound_to 10162
  157.1071  130.6006  149.5473 LP  0  0  0  0  0  0  0  0  0  0  0  0  # atno 17370 bound_to 10713
  155.9932  130.4992  150.7371 LP  0  0  0  0  0  0  0  0  0  0  0  0  # atno 17371 bound_to 10713
  140.6679  134.4899  157.5586 LP  0  0  0  0  0  0  0  0  0  0  0  0  # atno 17394 bound_to 11000
  139.9108  134.8348  156.1534 LP  0  0  0  0  0  0  0  0  0  0  0  0  # atno 17395 bound_to 11000

$$$$
