AV-unprocessed.smi:276|AV-procd|sdf|2075|dock5
  -GOLD-   2262021333D 1   1.00000     0.00000
 Structure written by MMmdl.
 57 61  0  0  0  0  0  0  0  0  1 V2000
  144.1198  134.6128  162.7111 C   0  0  0  0  0  0  0  0  0  0  0  0
  145.1478  133.8422  162.1142 O   0  0  0  0  0  0  0  0  0  0  0  0
  146.4456  134.2115  162.5595 C   0  0  1  0  0  0  0  0  0  0  0  0
  147.5501  133.3057  161.9924 C   0  0  0  0  0  0  0  0  0  0  0  0
  147.6872  134.2671  160.7949 C   0  0  1  0  0  0  0  0  0  0  0  0
  146.8809  133.8187  159.6507 N   0  0  0  0  0  0  0  0  0  0  0  0
  146.9498  132.3948  159.3382 C   0  0  0  0  0  0  0  0  0  0  0  0
  147.0226  134.5422  158.5191 C   0  0  0  0  0  0  0  0  0  0  0  0
  145.9337  135.2201  158.0790 N   0  0  0  0  0  0  0  0  0  0  0  0
  146.0128  135.9620  156.9702 C   0  0  0  0  0  0  0  0  0  0  0  0
  147.0596  136.1496  156.1634 N   0  0  0  0  0  0  0  0  0  0  0  0
  148.1496  135.4527  156.5952 C   0  0  0  0  0  0  0  0  0  0  0  0
  148.2196  134.6291  157.7534 C   0  0  0  0  0  0  0  0  0  0  0  0
  149.4908  134.0791  157.8680 N   0  0  0  0  0  0  0  0  0  0  0  0
  150.1353  134.5501  156.8357 C   0  0  0  0  0  0  0  0  0  0  0  0
  149.4026  135.3765  156.0140 N   0  0  0  0  0  0  0  0  0  0  0  0
  149.8622  136.0246  154.7992 C   0  0  0  0  0  0  0  0  0  0  0  0
  150.8935  137.1456  155.0543 C   0  0  1  0  0  0  0  0  0  0  0  0
  151.6678  137.2709  153.8780 O   0  0  0  0  0  0  0  0  0  0  0  0
  150.2832  138.5220  155.4076 C   0  0  2  0  0  0  0  0  0  0  0  0
  149.7306  139.2898  154.2020 C   0  0  0  0  0  0  0  0  0  0  0  0
  149.8369  140.7253  154.6604 C   0  0  0  0  0  0  0  0  0  0  0  0
  151.1652  140.7027  155.4038 C   0  0  0  0  0  0  0  0  0  0  0  0
  151.2664  139.3973  155.9625 O   0  0  0  0  0  0  0  0  0  0  0  0
  147.0350  135.3449  161.7023 C   0  0  0  0  0  0  0  0  0  0  0  0
  147.9288  136.3867  162.3982 C   0  0  0  0  0  0  0  0  0  0  0  0
  146.7285  137.3363  162.4085 C   0  0  0  0  0  0  0  0  0  0  0  0
  146.1754  136.5353  161.2292 C   0  0  0  0  0  0  0  0  0  0  0  0
  143.1516  134.2821  162.3356 H   0  0  0  0  0  0  0  0  0  0  0  0
  144.2315  135.6701  162.4677 H   0  0  0  0  0  0  0  0  0  0  0  0
  144.1148  134.5018  163.7956 H   0  0  0  0  0  0  0  0  0  0  0  0
  146.5063  134.3927  163.6339 H   0  0  0  0  0  0  0  0  0  0  0  0
  148.4421  133.3030  162.6206 H   0  0  0  0  0  0  0  0  0  0  0  0
  147.2376  132.2873  161.7639 H   0  0  0  0  0  0  0  0  0  0  0  0
  148.7289  134.4755  160.5501 H   0  0  0  0  0  0  0  0  0  0  0  0
  146.5600  132.1741  158.3430 H   0  0  0  0  0  0  0  0  0  0  0  0
  146.3592  131.8187  160.0495 H   0  0  0  0  0  0  0  0  0  0  0  0
  147.9801  132.0402  159.3841 H   0  0  0  0  0  0  0  0  0  0  0  0
  145.1070  136.4783  156.6889 H   0  0  0  0  0  0  0  0  0  0  0  0
  151.1667  134.2965  156.6388 H   0  0  0  0  0  0  0  0  0  0  0  0
  150.2913  135.2588  154.1516 H   0  0  0  0  0  0  0  0  0  0  0  0
  148.9934  136.4247  154.2746 H   0  0  0  0  0  0  0  0  0  0  0  0
  151.5684  136.8411  155.8549 H   0  0  0  0  0  0  0  0  0  0  0  0
  151.1601  136.9483  153.1492 H   0  0  0  0  0  0  0  0  0  0  0  0
  149.4899  138.4041  156.1474 H   0  0  0  0  0  0  0  0  0  0  0  0
  150.3611  139.1349  153.3252 H   0  0  0  0  0  0  0  0  0  0  0  0
  148.7116  138.9999  153.9440 H   0  0  0  0  0  0  0  0  0  0  0  0
  149.8191  141.4426  153.8395 H   0  0  0  0  0  0  0  0  0  0  0  0
  149.0226  140.9640  155.3459 H   0  0  0  0  0  0  0  0  0  0  0  0
  151.9936  140.8467  154.7089 H   0  0  0  0  0  0  0  0  0  0  0  0
  151.2284  141.4725  156.1730 H   0  0  0  0  0  0  0  0  0  0  0  0
  148.2933  136.1004  163.3851 H   0  0  0  0  0  0  0  0  0  0  0  0
  148.7394  136.7408  161.7588 H   0  0  0  0  0  0  0  0  0  0  0  0
  146.1180  137.2404  163.3080 H   0  0  0  0  0  0  0  0  0  0  0  0
  146.9646  138.3770  162.1850 H   0  0  0  0  0  0  0  0  0  0  0  0
  146.4955  136.9615  160.2783 H   0  0  0  0  0  0  0  0  0  0  0  0
  145.0980  136.3710  161.2524 H   0  0  0  0  0  0  0  0  0  0  0  0
  1  2  1  0  0  0  0
  1 29  1  0  0  0  0
  1 30  1  0  0  0  0
  1 31  1  0  0  0  0
  2  3  1  0  0  0  0
  3 25  1  0  0  0  0
  3  4  1  0  0  0  0
  3 32  1  0  0  0  0
  4  5  1  0  0  0  0
  4 33  1  0  0  0  0
  4 34  1  0  0  0  0
  5  6  1  0  0  0  0
  5 25  1  0  0  0  0
  5 35  1  0  0  0  0
  6  7  1  0  0  0  0
  6  8  1  0  0  0  0
  7 36  1  0  0  0  0
  7 37  1  0  0  0  0
  7 38  1  0  0  0  0
  8 13  1  0  0  0  0
  8  9  2  0  0  0  0
  9 10  1  0  0  0  0
 10 11  2  0  0  0  0
 10 39  1  0  0  0  0
 11 12  1  0  0  0  0
 12 16  1  0  0  0  0
 12 13  2  0  0  0  0
 13 14  1  0  0  0  0
 14 15  2  0  0  0  0
 15 16  1  0  0  0  0
 15 40  1  0  0  0  0
 16 17  1  0  0  0  0
 17 18  1  0  0  0  0
 17 41  1  0  0  0  0
 17 42  1  0  0  0  0
 18 19  1  0  0  0  0
 18 20  1  0  0  0  0
 18 43  1  0  0  0  0
 19 44  1  0  0  0  0
 20 24  1  0  0  0  0
 20 21  1  0  0  0  0
 20 45  1  0  0  0  0
 21 22  1  0  0  0  0
 21 46  1  0  0  0  0
 21 47  1  0  0  0  0
 22 23  1  0  0  0  0
 22 48  1  0  0  0  0
 22 49  1  0  0  0  0
 23 24  1  0  0  0  0
 23 50  1  0  0  0  0
 23 51  1  0  0  0  0
 25 28  1  0  0  0  0
 25 26  1  0  0  0  0
 26 27  1  0  0  0  0
 26 52  1  0  0  0  0
 26 53  1  0  0  0  0
 27 28  1  0  0  0  0
 27 54  1  0  0  0  0
 27 55  1  0  0  0  0
 28 56  1  0  0  0  0
 28 57  1  0  0  0  0
M  END
> <s_m_source_file>
AV-unprocessed.smi

> <i_m_source_file_index>
276

> <i_lp_mmshare_version>
43012

> <i_f3d_flags>
0

> <s_epik_input>
W0NIMl0xW0NIMl1bQ0gyXUMxMltDQEhdKE9bQ0gzXSlbQ0gyXVtDQEhdMk4oW0NIM10pYyhuW2NIXW4zKWMoYzM0KW5bY0hdbjRbQ0gyXVtDQEhdKFtPSF0pW0NAQEhdNVtDSDJdW0NIMl1bQ0gyXU81

> <s_epik_cmdline>
J2VwaWtfcHl0aG9uJywgJy1waCcsICc3LjAnLCAnLXRuJywgJzgnLCAnLW1hJywgJzIwMCcsICctbWV0YWxfYmluZGluZycsICctaW1hZScsICc8aW5maWxlLm1hZT4nLCAnLW9tYWUnLCAnPG91dGZpbGUubWFlPic=

> <r_lp_tautomer_probability>
1

> <r_epik_Ionization_Penalty>
0.00204117

> <r_epik_Ionization_Penalty_Charging>
0

> <r_epik_Ionization_Penalty_Neutral>
0.00204117

> <r_epik_State_Penalty>
0.00127401

> <r_epik_Charging_Adjusted_Penalty>
0.00127401

> <i_epik_Tot_Q>
0

> <i_epik_Tot_abs_Q>
0

> <r_epik_Metal_State_Penalty>
-0

> <b_epik_Metal_Only>
0

> <s_lp_Force_Field>
OPLS_2005

> <r_lp_Energy>
56.2402

> <b_lp_Chiralities_Consistent>
1

> <s_lp_Variant>
AV-unprocessed.smi:276-6

> <Gold.Version>
5.8.1

> <Gold.Id.Protein>
6NUR|6NUR_protein|mol2

> <Gold.PLP.Fitness>
47.0577

> <Gold.PLP.PLP>
-40.0779

> <Gold.PLP.part.hbond>
-3.0000

> <Gold.PLP.part.metal>
0.0000

> <Gold.PLP.part.buried>
-2.0577

> <Gold.PLP.part.nonpolar>
-35.2472

> <Gold.PLP.part.repulsive>
0.0623

> <Gold.PLP.ligand.clash>
0.0000

> <Gold.PLP.ligand.torsion>
1.3926

> <Gold.PLP.Chemscore.Hbond>
2.9920

> <Gold.PLP.Chemscore.CHOScore>
0.0000

> <Gold.PLP.Chemscore.Metal>
0.0000

> <Gold.Chemscore.Hbonds>
donor molecule, donor type, donor heavy atom, donor atom, acceptor molecule, acceptor atom, score
      L1  H    19    44       P1  7949  0.93
      P1  H  6896  6907       L1    14  1.00
      P1  H 10752 10763       L1    19  0.68

> <Gold.PLP.Chemscore.Internal.Correction>
0.7892

> <Gold.Rescore>
     Score         DG    S(hbond)    S(metal)    S(lipo)     H(rot)  DE(clash)    DE(int)     intcor
     12.77     -13.83       0.97        0.00     103.08       2.72       0.07       0.99       ----

> <Gold.Chemscore.Fitness>
12.7653

> <Gold.Chemscore.DG>
-13.8293

> <Gold.Chemscore.ZeroCoef>
-5.4800

> <Gold.Chemscore.Hbond>
0.9714

> <Gold.Chemscore.Metal>
0.0000

> <Gold.Chemscore.Lipo>
103.0838

> <Gold.Chemscore.Internal_Hbond>
0.0000

> <Gold.Chemscore.DEClash>
0.0701

> <Gold.Chemscore.DEInternal>
0.9939

> <Gold.Chemscore.Rot>
2.7172

> <Gold.Chemscore.Internal.Correction>
   9.000000E+99

> <Gold.Chemscore.Hbonds>
donor molecule, donor type, donor heavy atom, donor atom, acceptor molecule, acceptor atom, score
      L1  H    19    44       P1  7949  0.45
      P1  H  6896  6907       L1    14  0.65
      P1  H 10752 10763       L1    19  0.03

> <Gold.Chemscore.Hbond.Weighted>
-3.2445

> <Gold.Chemscore.Metal.Weighted>
-0.0000

> <Gold.Chemscore.Lipo.Weighted>
-12.0608

> <Gold.Chemscore.Internal_Hbond.Weighted>
0.0000

> <Gold.Chemscore.DEClash.Weighted>
0.0701

> <Gold.Chemscore.DEInternal.Weighted>
0.9939

> <Gold.Chemscore.Rot.Weighted>
6.9560

> <Gold.Chemscore.Internal.Correction.Weighted>
   9.000000E+99

> <Gold.Protein.RotatedTorsions>
[ 6907 6896 6895 6894 ] final  -99.92 input  -60.11 | X-H torsion
[ 7974 7965 7964 7962 ] final  -81.84 input  175.53 | X-H torsion
[ 8008 7997 7996 7995 ] final -144.47 input   59.86 | X-H torsion
[ 10167 10162 10161 10158 ] final  -11.70 input  -65.29 | X-H torsion
[ 10718 10713 10712 10709 ] final -128.41 input   66.30 | X-H torsion
[ 10763 10752 10751 10750 ] final   42.61 input  -60.55 | X-H torsion
[ 11005 11000 10999 10996 ] final -179.78 input  -57.11 | X-H torsion

> <Gold.Protein.ActiveResidues>
 VAL166  LYS551  ARG553  GLY616  TRP617  ASP618  TYR619  PRO620  LYS621  CYS622 
 ASP623  PHE694  ASN695  SER759  ASP760  ASP761  ALA762  ILE779  LEU786  VAL792 
 PHE793  MET794  SER795  GLU796  ALA797  LYS798  CYS799  TRP800  GLU811  SER814 

> <Gold.Protein.RotatedAtoms>
  150.7097  134.0966  159.3950 H   0  0  0  0  0  0  0  0  0  0  0  0  # atno 6907 bound_to 6896
  151.8952  135.0398  160.0511 H   0  0  0  0  0  0  0  0  0  0  0  0  # atno 6908 bound_to 6896
  152.2459  133.5138  159.5333 H   0  0  0  0  0  0  0  0  0  0  0  0  # atno 6909 bound_to 6896
  145.5413  140.9509  143.1549 H   0  0  0  0  0  0  0  0  0  0  0  0  # atno 7974 bound_to 7965
  155.5275  140.0597  157.2895 H   0  0  0  0  0  0  0  0  0  0  0  0  # atno 8008 bound_to 7997
  154.4496  140.1942  156.0506 H   0  0  0  0  0  0  0  0  0  0  0  0  # atno 8009 bound_to 7997
  156.0676  140.3264  155.7540 H   0  0  0  0  0  0  0  0  0  0  0  0  # atno 8010 bound_to 7997
  140.7144  143.5611  150.9195 H   0  0  0  0  0  0  0  0  0  0  0  0  # atno 10167 bound_to 10162
  156.1948  130.6819  151.0469 H   0  0  0  0  0  0  0  0  0  0  0  0  # atno 10718 bound_to 10713
  152.9879  135.6126  154.2977 H   0  0  0  0  0  0  0  0  0  0  0  0  # atno 10763 bound_to 10752
  154.2699  135.2780  155.2744 H   0  0  0  0  0  0  0  0  0  0  0  0  # atno 10764 bound_to 10752
  154.5131  135.5835  153.6678 H   0  0  0  0  0  0  0  0  0  0  0  0  # atno 10765 bound_to 10752
  140.4149  134.6658  157.4633 H   0  0  0  0  0  0  0  0  0  0  0  0  # atno 11005 bound_to 11000
  144.7575  139.7037  143.7248 LP  0  0  0  0  0  0  0  0  0  0  0  0  # atno 17320 bound_to 7965
  146.1979  139.5256  142.9762 LP  0  0  0  0  0  0  0  0  0  0  0  0  # atno 17321 bound_to 7965
  139.9336  143.6464  152.3070 LP  0  0  0  0  0  0  0  0  0  0  0  0  # atno 17342 bound_to 10162
  139.6923  144.7645  151.1416 LP  0  0  0  0  0  0  0  0  0  0  0  0  # atno 17343 bound_to 10162
  157.6951  131.0797  150.6992 LP  0  0  0  0  0  0  0  0  0  0  0  0  # atno 17370 bound_to 10713
  156.7049  130.4634  149.5563 LP  0  0  0  0  0  0  0  0  0  0  0  0  # atno 17371 bound_to 10713
  140.0241  134.6503  155.9197 LP  0  0  0  0  0  0  0  0  0  0  0  0  # atno 17394 bound_to 11000
  141.1807  133.6546  156.5007 LP  0  0  0  0  0  0  0  0  0  0  0  0  # atno 17395 bound_to 11000

$$$$
